LRH.pdb
     RDKit          3D

 30 30  0  0  1  0  0  0  0  0999 V2000
   30.1551  -21.3397  -10.7468 C   0  0  0  0  0  0  0  0  0  0  0  0
   28.6980  -21.5844  -10.5488 C   0  0  1  0  0  0  0  0  0  0  0  0
   28.3749  -21.1859   -9.1010 C   0  0  0  0  0  0  0  0  0  0  0  0
   27.8338  -20.7392  -11.4291 C   0  0  0  0  0  0  0  0  0  0  0  0
   26.3573  -20.9636  -11.3069 C   0  0  2  0  0  0  0  0  0  0  0  0
   26.0759  -22.3641  -11.1083 N   0  0  0  0  0  0  0  0  0  0  0  0
   25.6032  -20.2988  -12.3493 C   0  0  0  0  0  0  0  0  0  0  0  0
   25.6509  -19.0438  -12.4190 O   0  0  0  0  0  0  0  0  0  0  0  0
   26.7984  -24.1830  -16.1883 N   0  0  0  0  0  0  0  0  0  0  0  0
   27.6904  -23.3455  -16.9427 C   0  0  0  0  0  0  0  0  0  0  0  0
   28.8987  -23.7543  -17.0722 N   0  0  0  0  0  0  0  0  0  0  0  0
   27.2744  -22.1300  -17.5197 N   0  0  0  0  0  0  0  0  0  0  0  0
   25.9397  -21.6534  -17.2928 C   0  0  0  0  0  0  0  0  0  0  0  0
   25.7095  -21.2258  -15.8617 C   0  0  0  0  0  0  0  0  0  0  0  0
   24.3266  -20.6354  -15.7276 C   0  0  0  0  0  0  0  0  0  0  0  0
   24.0274  -20.2023  -14.3133 C   0  0  2  0  0  0  0  0  0  0  0  0
   24.7827  -20.9392  -13.3378 N   0  0  0  0  0  0  0  0  0  0  0  0
   22.5907  -20.2787  -13.9746 C   0  0  0  0  0  0  0  0  0  0  0  0
   22.2159  -20.5728  -12.8126 O   0  0  0  0  0  0  0  0  0  0  0  0
   29.6486  -23.1928  -17.5355 N   0  0  0  0  0  0  0  0  0  0  0  0
   21.5947  -20.0229  -14.9499 C   0  0  2  0  0  0  0  0  0  0  0  0
   20.4525  -19.2051  -14.5771 C   0  0  0  0  0  0  0  0  0  0  0  0
   20.8516  -17.8183  -14.2133 C   0  0  0  0  0  0  0  0  0  0  0  0
   19.6709  -17.0060  -13.8776 C   0  0  0  0  0  0  0  0  0  0  0  0
   18.3324  -17.3325  -13.8438 N   0  0  0  0  0  0  0  0  0  0  0  0
   17.6019  -16.2276  -13.4993 C   0  0  0  0  0  0  0  0  0  0  0  0
   18.4800  -15.2314  -13.3231 N   0  0  0  0  0  0  0  0  0  0  0  0
   19.7193  -15.6831  -13.5461 C   0  0  0  0  0  0  0  0  0  0  0  0
   19.4853  -19.2226  -15.6646 O   0  0  0  0  0  0  0  0  0  0  0  0
   18.1076  -19.3811  -15.5070 O   0  0  0  0  0  0  0  0  0  0  0  0
  2  1  1  6
  3  2  1  0
  4  2  1  0
  5  6  1  6
  5  7  1  0
  5  4  1  0
  7  8  2  0
 10  9  1  0
 10 12  1  0
 11 10  2  0
 12 13  1  0
 13 14  1  0
 14 15  1  0
 16 15  1  6
 16 18  1  0
 17  7  1  0
 17 16  1  0
 18 20  1  0
 19 18  2  0
 20 21  1  0
 21 22  1  1
 22 23  1  0
 23 24  2  0
 23 27  1  0
 24 25  1  0
 25 26  1  0
 27 26  2  0
 28 29  1  0
 28 21  1  0
 30 28  2  0
M  END
$$$$
