LRH.pdb
     RDKit          3D

 30 30  0  0  1  0  0  0  0  0999 V2000
   21.6924  -15.3166  -22.4290 C   0  0  0  0  0  0  0  0  0  0  0  0
   22.3017  -14.9728  -21.1127 C   0  0  1  0  0  0  0  0  0  0  0  0
   21.2641  -14.1358  -20.3497 C   0  0  0  0  0  0  0  0  0  0  0  0
   22.5915  -16.1712  -20.2667 C   0  0  0  0  0  0  0  0  0  0  0  0
   23.0888  -15.8898  -18.8816 C   0  0  2  0  0  0  0  0  0  0  0  0
   24.2158  -14.9909  -18.9245 N   0  0  0  0  0  0  0  0  0  0  0  0
   23.2571  -17.0930  -18.0933 C   0  0  0  0  0  0  0  0  0  0  0  0
   22.8260  -18.1804  -18.5562 O   0  0  0  0  0  0  0  0  0  0  0  0
   24.9052  -20.6686  -11.4273 N   0  0  0  0  0  0  0  0  0  0  0  0
   25.8868  -21.4243  -12.1565 C   0  0  0  0  0  0  0  0  0  0  0  0
   25.7581  -22.6999  -12.1504 N   0  0  0  0  0  0  0  0  0  0  0  0
   26.9469  -20.8097  -12.8507 N   0  0  0  0  0  0  0  0  0  0  0  0
   26.7085  -19.6051  -13.5940 C   0  0  0  0  0  0  0  0  0  0  0  0
   25.4908  -19.7014  -14.4839 C   0  0  0  0  0  0  0  0  0  0  0  0
   25.3105  -18.4042  -15.2347 C   0  0  0  0  0  0  0  0  0  0  0  0
   24.0926  -18.4267  -16.1254 C   0  0  2  0  0  0  0  0  0  0  0  0
   23.8797  -17.1774  -16.8028 N   0  0  0  0  0  0  0  0  0  0  0  0
   22.8570  -18.8081  -15.4095 C   0  0  0  0  0  0  0  0  0  0  0  0
   22.3148  -18.0225  -14.5933 O   0  0  0  0  0  0  0  0  0  0  0  0
   26.4257  -23.3469  -12.6278 N   0  0  0  0  0  0  0  0  0  0  0  0
   22.2481  -20.0701  -15.6225 C   0  0  2  0  0  0  0  0  0  0  0  0
   20.9967  -20.3603  -14.9427 C   0  0  0  0  0  0  0  0  0  0  0  0
   20.1268  -21.2711  -15.7356 C   0  0  0  0  0  0  0  0  0  0  0  0
   19.6877  -20.6210  -16.9811 C   0  0  0  0  0  0  0  0  0  0  0  0
   18.9148  -19.4990  -17.1880 N   0  0  0  0  0  0  0  0  0  0  0  0
   18.7514  -19.2991  -18.5320 C   0  0  0  0  0  0  0  0  0  0  0  0
   19.4158  -20.2867  -19.1465 N   0  0  0  0  0  0  0  0  0  0  0  0
   19.9796  -21.0833  -18.2314 C   0  0  0  0  0  0  0  0  0  0  0  0
   21.2912  -20.9039  -13.6251 O   0  0  0  0  0  0  0  0  0  0  0  0
   20.6527  -20.5257  -12.4430 O   0  0  0  0  0  0  0  0  0  0  0  0
  2  1  1  6
  3  2  1  0
  4  2  1  0
  5  6  1  6
  5  7  1  0
  5  4  1  0
  7  8  2  0
 10  9  1  0
 10 12  1  0
 11 10  2  0
 12 13  1  0
 13 14  1  0
 14 15  1  0
 16 15  1  1
 16 18  1  0
 17  7  1  0
 17 16  1  0
 18 20  1  0
 19 18  2  0
 20 21  1  0
 21 22  1  6
 22 23  1  0
 23 24  2  0
 23 27  1  0
 24 25  1  0
 25 26  1  0
 27 26  2  0
 28 29  1  0
 28 21  1  0
 30 28  2  0
M  END
$$$$
