LRH.pdb
     RDKit          3D

 30 30  0  0  1  0  0  0  0  0999 V2000
   18.7219  -28.4049   -2.1363 C   0  0  0  0  0  0  0  0  0  0  0  0
   17.9478  -27.6396   -3.1549 C   0  0  1  0  0  0  0  0  0  0  0  0
   16.8106  -28.5574   -3.6280 C   0  0  0  0  0  0  0  0  0  0  0  0
   17.3034  -26.4086   -2.6024 C   0  0  0  0  0  0  0  0  0  0  0  0
   16.5575  -25.5617   -3.5881 C   0  0  2  0  0  0  0  0  0  0  0  0
   17.4043  -25.2272   -4.7065 N   0  0  0  0  0  0  0  0  0  0  0  0
   15.8575  -24.4599   -2.9607 C   0  0  0  0  0  0  0  0  0  0  0  0
   16.4543  -23.3592   -2.8397 O   0  0  0  0  0  0  0  0  0  0  0  0
   10.5688  -22.9393   -5.8553 N   0  0  0  0  0  0  0  0  0  0  0  0
   10.1456  -24.2862   -5.5852 C   0  0  0  0  0  0  0  0  0  0  0  0
   10.0144  -25.0660   -6.5944 N   0  0  0  0  0  0  0  0  0  0  0  0
    9.8828  -24.7453   -4.2800 N   0  0  0  0  0  0  0  0  0  0  0  0
   10.4192  -24.0358   -3.1534 C   0  0  0  0  0  0  0  0  0  0  0  0
   11.9303  -24.0300   -3.1348 C   0  0  0  0  0  0  0  0  0  0  0  0
   12.4168  -23.3700   -1.8672 C   0  0  0  0  0  0  0  0  0  0  0  0
   13.9222  -23.3785   -1.7629 C   0  0  2  0  0  0  0  0  0  0  0  0
   14.5177  -24.4933   -2.4468 N   0  0  0  0  0  0  0  0  0  0  0  0
   14.4074  -23.3491   -0.3671 C   0  0  0  0  0  0  0  0  0  0  0  0
   14.9061  -24.3715    0.1650 O   0  0  0  0  0  0  0  0  0  0  0  0
    9.7480  -26.0731   -6.5113 N   0  0  0  0  0  0  0  0  0  0  0  0
   14.3244  -22.1676    0.4114 C   0  0  1  0  0  0  0  0  0  0  0  0
   14.8685  -22.1850    1.7590 C   0  0  0  0  0  0  0  0  0  0  0  0
   16.3465  -22.0108    1.7684 C   0  0  0  0  0  0  0  0  0  0  0  0
   16.8566  -21.9508    3.1478 C   0  0  0  0  0  0  0  0  0  0  0  0
   16.3929  -21.2677    4.2512 N   0  0  0  0  0  0  0  0  0  0  0  0
   17.2223  -21.5017    5.3144 C   0  0  0  0  0  0  0  0  0  0  0  0
   18.1864  -22.3194    4.8714 N   0  0  0  0  0  0  0  0  0  0  0  0
   17.9797  -22.5953    3.5787 C   0  0  0  0  0  0  0  0  0  0  0  0
   14.1980  -21.1646    2.5512 O   0  0  0  0  0  0  0  0  0  0  0  0
   14.0263  -21.2115    3.9355 O   0  0  0  0  0  0  0  0  0  0  0  0
  2  1  1  1
  3  2  1  0
  4  2  1  0
  5  6  1  6
  5  7  1  0
  5  4  1  0
  7  8  2  0
 10  9  1  0
 10 12  1  0
 11 10  2  0
 12 13  1  0
 13 14  1  0
 14 15  1  0
 16 15  1  1
 16 18  1  0
 17  7  1  0
 17 16  1  0
 18 20  1  0
 19 18  2  0
 20 21  1  0
 21 22  1  1
 22 23  1  0
 23 24  2  0
 23 27  1  0
 24 25  1  0
 25 26  1  0
 27 26  2  0
 28 29  1  0
 28 21  1  0
 30 28  2  0
M  END
$$$$
