SGE.pdb
     RDKit          3D

 20 19  0  0  1  0  0  0  0  0999 V2000
   21.5595  -11.4385  -17.1413 O   0  0  0  0  0  0  0  0  0  0  0  0
   21.2515  -11.9748  -15.8960 C   0  0  0  0  0  0  0  0  0  0  0  0
   20.5931  -10.8992  -15.0547 C   0  0  2  0  0  0  0  0  0  0  0  0
   19.3895  -10.4512  -15.7080 N   0  0  0  0  0  0  0  0  0  0  0  0
   21.5403   -9.7720  -14.9083 C   0  0  0  0  0  0  0  0  0  0  0  0
   22.6541   -9.9015  -14.3367 O   0  0  0  0  0  0  0  0  0  0  0  0
   21.1907   -8.5017  -15.4255 N   0  0  0  0  0  0  0  0  0  0  0  0
   22.0675   -7.3765  -15.1760 C   0  0  0  0  0  0  0  0  0  0  0  0
   21.2464   -6.1738  -14.8141 C   0  0  0  0  0  0  0  0  0  0  0  0
   20.0715   -6.2621  -14.3899 O   0  0  0  0  0  0  0  0  0  0  0  0
   21.8037   -4.8743  -14.9500 N   0  0  0  0  0  0  0  0  0  0  0  0
   21.0658   -3.6862  -14.5959 C   0  0  1  0  0  0  0  0  0  0  0  0
   22.0066   -2.5046  -14.5232 C   0  0  0  0  0  0  0  0  0  0  0  0
   21.2393   -1.3085  -14.0545 C   0  0  0  0  0  0  0  0  0  0  0  0
   22.0921   -0.0919  -13.9648 C   0  0  0  0  0  0  0  0  0  0  0  0
   22.1677    0.7269  -14.9082 O   0  0  0  0  0  0  0  0  0  0  0  0
   19.9826   -3.4525  -15.5732 C   0  0  0  0  0  0  0  0  0  0  0  0
   20.2131   -3.6671  -16.7834 O   0  0  0  0  0  0  0  0  0  0  0  0
   22.8252    0.1508  -12.8134 O   0  0  0  0  0  0  0  0  0  0  0  0
   18.7217   -3.0068  -15.2168 O   0  0  0  0  0  0  0  0  0  0  0  0
  1  2  1  0
  3  2  1  0
  3  4  1  6
  5  3  1  0
  6  5  2  0
  7  5  1  0
  8  7  1  0
  9 11  1  0
  9  8  1  0
 10  9  2  0
 12 11  1  0
 12 13  1  6
 13 14  1  0
 14 15  1  0
 15 16  2  0
 17 12  1  0
 17 20  1  0
 18 17  2  0
 19 15  1  0
M  END
$$$$
