SGE.pdb
     RDKit          3D

 20 19  0  0  1  0  0  0  0  0999 V2000
   15.1644  -13.3821   -9.9612 O   0  0  0  0  0  0  0  0  0  0  0  0
   15.2976  -12.2412  -10.7446 C   0  0  0  0  0  0  0  0  0  0  0  0
   14.5317  -11.1100  -10.0874 C   0  0  2  0  0  0  0  0  0  0  0  0
   13.1457  -11.4825   -9.9587 N   0  0  0  0  0  0  0  0  0  0  0  0
   14.6561   -9.9039  -10.9353 C   0  0  0  0  0  0  0  0  0  0  0  0
   13.7234   -9.5105  -11.6833 O   0  0  0  0  0  0  0  0  0  0  0  0
   15.8608   -9.1613  -10.9111 N   0  0  0  0  0  0  0  0  0  0  0  0
   15.9630   -7.9626  -11.7173 C   0  0  0  0  0  0  0  0  0  0  0  0
   17.3600   -7.4214  -11.6331 C   0  0  0  0  0  0  0  0  0  0  0  0
   18.1939   -7.8344  -10.7951 O   0  0  0  0  0  0  0  0  0  0  0  0
   17.7744   -6.4001  -12.5293 N   0  0  0  0  0  0  0  0  0  0  0  0
   19.1546   -6.2382  -12.9167 C   0  0  1  0  0  0  0  0  0  0  0  0
   19.6719   -7.5287  -13.5114 C   0  0  0  0  0  0  0  0  0  0  0  0
   21.1000   -7.3335  -13.9129 C   0  0  0  0  0  0  0  0  0  0  0  0
   21.7203   -8.5894  -14.4163 C   0  0  0  0  0  0  0  0  0  0  0  0
   22.1657   -9.4596  -13.6351 O   0  0  0  0  0  0  0  0  0  0  0  0
   19.2852   -5.1162  -13.8691 C   0  0  0  0  0  0  0  0  0  0  0  0
   20.3961   -4.5530  -13.9804 O   0  0  0  0  0  0  0  0  0  0  0  0
   21.8127   -8.8117  -15.7817 O   0  0  0  0  0  0  0  0  0  0  0  0
   18.2375   -4.6550  -14.6471 O   0  0  0  0  0  0  0  0  0  0  0  0
  1  2  1  0
  3  2  1  0
  3  4  1  6
  5  3  1  0
  6  5  2  0
  7  5  1  0
  8  7  1  0
  9 11  1  0
  9  8  1  0
 10  9  2  0
 12 11  1  0
 12 13  1  6
 13 14  1  0
 14 15  1  0
 15 16  2  0
 17 12  1  0
 17 20  1  0
 18 17  2  0
 19 15  1  0
M  END
$$$$
