SGE.pdb
     RDKit          3D

 20 19  0  0  1  0  0  0  0  0999 V2000
   19.0454  -12.5958  -19.2753 O   0  0  0  0  0  0  0  0  0  0  0  0
   18.6552  -11.5554  -18.4396 C   0  0  0  0  0  0  0  0  0  0  0  0
   19.5818  -11.5239  -17.2401 C   0  0  2  0  0  0  0  0  0  0  0  0
   19.4746  -12.7675  -16.5204 N   0  0  0  0  0  0  0  0  0  0  0  0
   19.1826  -10.3973  -16.3680 C   0  0  0  0  0  0  0  0  0  0  0  0
   18.4112  -10.5501  -15.3853 O   0  0  0  0  0  0  0  0  0  0  0  0
   19.6800   -9.1004  -16.6403 N   0  0  0  0  0  0  0  0  0  0  0  0
   19.3018   -8.0063  -15.7703 C   0  0  0  0  0  0  0  0  0  0  0  0
   20.3889   -6.9721  -15.7665 C   0  0  0  0  0  0  0  0  0  0  0  0
   21.4276   -7.0828  -16.4572 O   0  0  0  0  0  0  0  0  0  0  0  0
   20.2557   -5.8138  -14.9549 N   0  0  0  0  0  0  0  0  0  0  0  0
   21.2178   -4.7394  -14.9940 C   0  0  1  0  0  0  0  0  0  0  0  0
   20.5128   -3.4165  -14.7959 C   0  0  0  0  0  0  0  0  0  0  0  0
   19.6456   -3.1519  -15.9862 C   0  0  0  0  0  0  0  0  0  0  0  0
   18.3937   -2.4336  -15.6226 C   0  0  0  0  0  0  0  0  0  0  0  0
   18.2248   -1.2263  -15.9051 O   0  0  0  0  0  0  0  0  0  0  0  0
   22.2585   -4.9538  -13.9674 C   0  0  0  0  0  0  0  0  0  0  0  0
   21.9739   -5.6411  -12.9622 O   0  0  0  0  0  0  0  0  0  0  0  0
   17.3831   -3.1079  -14.9547 O   0  0  0  0  0  0  0  0  0  0  0  0
   23.5367   -4.4311  -14.0615 O   0  0  0  0  0  0  0  0  0  0  0  0
  1  2  1  0
  3  2  1  0
  3  4  1  1
  5  3  1  0
  6  5  2  0
  7  5  1  0
  8  7  1  0
  9 11  1  0
  9  8  1  0
 10  9  2  0
 12 11  1  0
 12 13  1  1
 13 14  1  0
 14 15  1  0
 15 16  2  0
 17 12  1  0
 17 20  1  0
 18 17  2  0
 19 15  1  0
M  END
$$$$
