SGE.pdb
     RDKit          3D

 20 19  0  0  1  0  0  0  0  0999 V2000
   17.2908  -24.5375  -10.6691 O   0  0  0  0  0  0  0  0  0  0  0  0
   17.5302  -23.3774   -9.9410 C   0  0  0  0  0  0  0  0  0  0  0  0
   18.4579  -23.7110   -8.7894 C   0  0  2  0  0  0  0  0  0  0  0  0
   19.3024  -24.8178   -9.1608 N   0  0  0  0  0  0  0  0  0  0  0  0
   17.6356  -24.0728   -7.6137 C   0  0  0  0  0  0  0  0  0  0  0  0
   16.8964  -23.2384   -7.0295 O   0  0  0  0  0  0  0  0  0  0  0  0
   17.6752  -25.3997   -7.1226 N   0  0  0  0  0  0  0  0  0  0  0  0
   18.8282  -25.8322   -6.3605 C   0  0  0  0  0  0  0  0  0  0  0  0
   18.5068  -25.7811   -4.8957 C   0  0  0  0  0  0  0  0  0  0  0  0
   19.3847  -25.8841   -4.0087 O   0  0  0  0  0  0  0  0  0  0  0  0
   17.1605  -25.6100   -4.4760 N   0  0  0  0  0  0  0  0  0  0  0  0
   16.8094  -25.4417   -3.0868 C   0  0  1  0  0  0  0  0  0  0  0  0
   15.5963  -24.5462   -2.9726 C   0  0  0  0  0  0  0  0  0  0  0  0
   15.2700  -24.3629   -1.5238 C   0  0  0  0  0  0  0  0  0  0  0  0
   14.0737  -23.5009   -1.3206 C   0  0  0  0  0  0  0  0  0  0  0  0
   14.0338  -22.3242   -1.7443 O   0  0  0  0  0  0  0  0  0  0  0  0
   16.5670  -26.7587   -2.4625 C   0  0  0  0  0  0  0  0  0  0  0  0
   16.0478  -27.6617   -3.1545 O   0  0  0  0  0  0  0  0  0  0  0  0
   12.9707  -24.0029   -0.6469 O   0  0  0  0  0  0  0  0  0  0  0  0
   16.8861  -27.0453   -1.1465 O   0  0  0  0  0  0  0  0  0  0  0  0
  1  2  1  0
  3  2  1  0
  3  4  1  6
  5  3  1  0
  6  5  2  0
  7  5  1  0
  8  7  1  0
  9 11  1  0
  9  8  1  0
 10  9  2  0
 12 11  1  0
 12 13  1  6
 13 14  1  0
 14 15  1  0
 15 16  2  0
 17 12  1  0
 17 20  1  0
 18 17  2  0
 19 15  1  0
M  END
$$$$
