SGE.pdb
     RDKit          3D

 20 19  0  0  1  0  0  0  0  0999 V2000
   16.6528  -10.9437  -14.0788 O   0  0  0  0  0  0  0  0  0  0  0  0
   17.7026  -10.3908  -13.3540 C   0  0  0  0  0  0  0  0  0  0  0  0
   18.0005   -9.0115  -13.9082 C   0  0  2  0  0  0  0  0  0  0  0  0
   18.3953   -9.1262  -15.2892 N   0  0  0  0  0  0  0  0  0  0  0  0
   19.0972   -8.4137  -13.1151 C   0  0  0  0  0  0  0  0  0  0  0  0
   18.9737   -8.1510  -11.8905 O   0  0  0  0  0  0  0  0  0  0  0  0
   20.3305   -8.1242  -13.7465 N   0  0  0  0  0  0  0  0  0  0  0  0
   21.4008   -7.5427  -12.9633 C   0  0  0  0  0  0  0  0  0  0  0  0
   21.7389   -6.1862  -13.5086 C   0  0  0  0  0  0  0  0  0  0  0  0
   22.7067   -5.5122  -13.0875 O   0  0  0  0  0  0  0  0  0  0  0  0
   20.9436   -5.6253  -14.5433 N   0  0  0  0  0  0  0  0  0  0  0  0
   21.3122   -4.4005  -15.2108 C   0  0  1  0  0  0  0  0  0  0  0  0
   21.0517   -4.5305  -16.6946 C   0  0  0  0  0  0  0  0  0  0  0  0
   22.0972   -5.4206  -17.2892 C   0  0  0  0  0  0  0  0  0  0  0  0
   21.9329   -5.5780  -18.7602 C   0  0  0  0  0  0  0  0  0  0  0  0
   22.1596   -4.6341  -19.5499 O   0  0  0  0  0  0  0  0  0  0  0  0
   20.5676   -3.2637  -14.6311 C   0  0  0  0  0  0  0  0  0  0  0  0
   19.4729   -3.4898  -14.0706 O   0  0  0  0  0  0  0  0  0  0  0  0
   21.5192   -6.7949  -19.2798 O   0  0  0  0  0  0  0  0  0  0  0  0
   21.0211   -1.9568  -14.6766 O   0  0  0  0  0  0  0  0  0  0  0  0
  1  2  1  0
  3  2  1  0
  3  4  1  6
  5  3  1  0
  6  5  2  0
  7  5  1  0
  8  7  1  0
  9 11  1  0
  9  8  1  0
 10  9  2  0
 12 11  1  0
 12 13  1  6
 13 14  1  0
 14 15  1  0
 15 16  2  0
 17 12  1  0
 17 20  1  0
 18 17  2  0
 19 15  1  0
M  END
$$$$
