SGE.pdb
     RDKit          3D

 20 19  0  0  1  0  0  0  0  0999 V2000
   16.4594  -13.3606  -16.6877 O   0  0  0  0  0  0  0  0  0  0  0  0
   17.4216  -13.2441  -17.6845 C   0  0  0  0  0  0  0  0  0  0  0  0
   18.7757  -13.5824  -17.0929 C   0  0  2  0  0  0  0  0  0  0  0  0
   18.6134  -13.9583  -15.7114 N   0  0  0  0  0  0  0  0  0  0  0  0
   19.6442  -12.3889  -17.1950 C   0  0  0  0  0  0  0  0  0  0  0  0
   20.0150  -11.9218  -18.3033 O   0  0  0  0  0  0  0  0  0  0  0  0
   20.0776  -11.7442  -16.0118 N   0  0  0  0  0  0  0  0  0  0  0  0
   20.9744  -10.6121  -16.1172 C   0  0  0  0  0  0  0  0  0  0  0  0
   20.3267   -9.4031  -15.5086 C   0  0  0  0  0  0  0  0  0  0  0  0
   19.1542   -9.4154  -15.0693 O   0  0  0  0  0  0  0  0  0  0  0  0
   21.0538   -8.1862  -15.4170 N   0  0  0  0  0  0  0  0  0  0  0  0
   20.5190   -7.0259  -14.7467 C   0  0  1  0  0  0  0  0  0  0  0  0
   21.6421   -6.0745  -14.4005 C   0  0  0  0  0  0  0  0  0  0  0  0
   21.0910   -4.9682  -13.5571 C   0  0  0  0  0  0  0  0  0  0  0  0
   22.1244   -3.9538  -13.2129 C   0  0  0  0  0  0  0  0  0  0  0  0
   22.0010   -2.7535  -13.5445 O   0  0  0  0  0  0  0  0  0  0  0  0
   19.5031   -6.3726  -15.5977 C   0  0  0  0  0  0  0  0  0  0  0  0
   19.7287   -6.2664  -16.8231 O   0  0  0  0  0  0  0  0  0  0  0  0
   23.2555   -4.3361  -12.5081 O   0  0  0  0  0  0  0  0  0  0  0  0
   18.3105   -5.8704  -15.1065 O   0  0  0  0  0  0  0  0  0  0  0  0
  1  2  1  0
  3  2  1  0
  3  4  1  1
  5  3  1  0
  6  5  2  0
  7  5  1  0
  8  7  1  0
  9 11  1  0
  9  8  1  0
 10  9  2  0
 12 11  1  0
 12 13  1  6
 13 14  1  0
 14 15  1  0
 15 16  2  0
 17 12  1  0
 17 20  1  0
 18 17  2  0
 19 15  1  0
M  END
$$$$
