SGE.pdb
     RDKit          3D

 20 19  0  0  1  0  0  0  0  0999 V2000
   11.9022  -13.3697  -10.6208 O   0  0  0  0  0  0  0  0  0  0  0  0
   12.4258  -12.5736  -11.6333 C   0  0  0  0  0  0  0  0  0  0  0  0
   13.9305  -12.7555  -11.6635 C   0  0  2  0  0  0  0  0  0  0  0  0
   14.4803  -12.4063  -10.3782 N   0  0  0  0  0  0  0  0  0  0  0  0
   14.4893  -11.8724  -12.7109 C   0  0  0  0  0  0  0  0  0  0  0  0
   14.1408  -11.9584  -13.9172 O   0  0  0  0  0  0  0  0  0  0  0  0
   15.4487  -10.8950  -12.3536 N   0  0  0  0  0  0  0  0  0  0  0  0
   16.0175  -10.0578  -13.3893 C   0  0  0  0  0  0  0  0  0  0  0  0
   16.8745   -8.9983  -12.7610 C   0  0  0  0  0  0  0  0  0  0  0  0
   16.9373   -8.8287  -11.5219 O   0  0  0  0  0  0  0  0  0  0  0  0
   17.6535   -8.1428  -13.5852 N   0  0  0  0  0  0  0  0  0  0  0  0
   18.5188   -7.1299  -13.0317 C   0  0  1  0  0  0  0  0  0  0  0  0
   19.8135   -7.0839  -13.8115 C   0  0  0  0  0  0  0  0  0  0  0  0
   20.7455   -6.1263  -13.1381 C   0  0  0  0  0  0  0  0  0  0  0  0
   22.0296   -5.9770  -13.8759 C   0  0  0  0  0  0  0  0  0  0  0  0
   22.6273   -6.9650  -14.3582 O   0  0  0  0  0  0  0  0  0  0  0  0
   17.8367   -5.8193  -13.0432 C   0  0  0  0  0  0  0  0  0  0  0  0
   16.9752   -5.6017  -13.9231 O   0  0  0  0  0  0  0  0  0  0  0  0
   22.5868   -4.7180  -14.0391 O   0  0  0  0  0  0  0  0  0  0  0  0
   18.1031   -4.8167  -12.1269 O   0  0  0  0  0  0  0  0  0  0  0  0
  1  2  1  0
  3  2  1  0
  3  4  1  1
  5  3  1  0
  6  5  2  0
  7  5  1  0
  8  7  1  0
  9 11  1  0
  9  8  1  0
 10  9  2  0
 12 11  1  0
 12 13  1  6
 13 14  1  0
 14 15  1  0
 15 16  2  0
 17 12  1  0
 17 20  1  0
 18 17  2  0
 19 15  1  0
M  END
$$$$
