IMK.pdb
     RDKit          3D

 26 25  0  0  1  0  0  0  0  0999 V2000
    7.1903  -12.5301   18.1730 C   0  0  0  0  0  0  0  0  0  0  0  0
    7.6225  -13.9270   18.6382 C   0  0  0  0  0  0  0  0  0  0  0  0
    7.9113  -13.8025   20.1138 C   0  0  2  0  0  0  0  0  0  0  0  0
    9.0991  -12.8728   20.2695 C   0  0  0  0  0  0  0  0  0  0  0  0
    8.2450  -15.1054   20.7685 C   0  0  2  0  0  0  0  0  0  0  0  0
    7.1946  -16.0545   20.5208 N   0  0  0  0  0  0  0  0  0  0  0  0
    8.5580  -15.0272   22.1934 C   0  0  0  0  0  0  0  0  0  0  0  0
    9.7675  -14.9611   22.5519 O   0  0  0  0  0  0  0  0  0  0  0  0
    8.3512  -11.9148   27.9677 C   0  0  0  0  0  0  0  0  0  0  0  0
    6.7624  -12.3790   27.1806 S   0  0  0  0  0  0  0  0  0  0  0  0
    6.9113  -14.1793   26.7978 C   0  0  0  0  0  0  0  0  0  0  0  0
    6.7602  -14.2901   25.3139 C   0  0  0  0  0  0  0  0  0  0  0  0
    7.9793  -14.8787   24.6617 C   0  0  2  0  0  0  0  0  0  0  0  0
    7.5999  -15.0190   23.2295 N   0  0  0  0  0  0  0  0  0  0  0  0
    8.4019  -16.1969   25.1796 C   0  0  0  0  0  0  0  0  0  0  0  0
    7.6008  -17.1946   25.1424 O   0  0  0  0  0  0  0  0  0  0  0  0
    9.6638  -16.4518   25.7226 N   0  0  0  0  0  0  0  0  0  0  0  0
   10.0367  -17.8221   26.2316 C   0  0  1  0  0  0  0  0  0  0  0  0
   11.2188  -18.1543   25.3963 C   0  0  0  0  0  0  0  0  0  0  0  0
   11.5410  -19.5043   24.9596 C   0  0  0  0  0  0  0  0  0  0  0  0
   12.7352  -19.8040   24.1530 C   0  0  0  0  0  0  0  0  0  0  0  0
   12.9053  -21.2537   23.7630 C   0  0  0  0  0  0  0  0  0  0  0  0
   13.9339  -21.4829   22.7963 N   0  0  0  0  0  0  0  0  0  0  0  0
   10.2396  -17.6254   27.6608 C   0  0  0  0  0  0  0  0  0  0  0  0
   10.2689  -18.6960   28.5388 O   0  0  0  0  0  0  0  0  0  0  0  0
   10.3942  -16.4995   28.1664 O   0  0  0  0  0  0  0  0  0  0  0  0
  2  1  1  0
  3  5  1  0
  3  2  1  0
  3  4  1  6
  5  6  1  1
  7  8  2  0
  7  5  1  0
 10  9  1  0
 11 10  1  0
 12 11  1  0
 13 12  1  1
 13 14  1  0
 14  7  1  0
 15 16  2  0
 15 13  1  0
 17 15  1  0
 18 17  1  0
 18 24  1  0
 18 19  1  6
 20 19  1  0
 21 20  1  0
 22 21  1  0
 22 23  1  0
 24 25  1  0
 26 24  2  0
M  END
$$$$
