IMK.pdb
     RDKit          3D

 26 25  0  0  1  0  0  0  0  0999 V2000
    7.4738  -12.1581   19.5182 C   0  0  0  0  0  0  0  0  0  0  0  0
    7.3777  -13.2859   20.5542 C   0  0  0  0  0  0  0  0  0  0  0  0
    8.4288  -14.2966   20.1668 C   0  0  2  0  0  0  0  0  0  0  0  0
    8.0303  -14.8776   18.8240 C   0  0  0  0  0  0  0  0  0  0  0  0
    8.5644  -15.4209   21.1441 C   0  0  2  0  0  0  0  0  0  0  0  0
    7.3469  -16.1839   21.1759 N   0  0  0  0  0  0  0  0  0  0  0  0
    8.9772  -15.0325   22.4908 C   0  0  0  0  0  0  0  0  0  0  0  0
   10.1028  -14.4823   22.6514 O   0  0  0  0  0  0  0  0  0  0  0  0
    7.3591  -11.4250   27.3458 C   0  0  0  0  0  0  0  0  0  0  0  0
    6.0021  -12.5148   26.7711 S   0  0  0  0  0  0  0  0  0  0  0  0
    6.6589  -13.3677   25.2709 C   0  0  0  0  0  0  0  0  0  0  0  0
    7.4158  -14.5533   25.7796 C   0  0  0  0  0  0  0  0  0  0  0  0
    8.6781  -14.7971   25.0016 C   0  0  2  0  0  0  0  0  0  0  0  0
    8.2057  -15.2246   23.6567 N   0  0  0  0  0  0  0  0  0  0  0  0
    9.5713  -15.8382   25.5519 C   0  0  0  0  0  0  0  0  0  0  0  0
    9.8690  -15.8443   26.7969 O   0  0  0  0  0  0  0  0  0  0  0  0
   10.1337  -16.8644   24.7884 N   0  0  0  0  0  0  0  0  0  0  0  0
   10.9838  -17.9379   25.4216 C   0  0  1  0  0  0  0  0  0  0  0  0
   10.2509  -19.1753   25.0512 C   0  0  0  0  0  0  0  0  0  0  0  0
    9.6204  -20.0574   26.0214 C   0  0  0  0  0  0  0  0  0  0  0  0
    8.9927  -21.3307   25.6325 C   0  0  0  0  0  0  0  0  0  0  0  0
    8.4065  -22.1363   26.7683 C   0  0  0  0  0  0  0  0  0  0  0  0
    7.6844  -23.2978   26.3503 N   0  0  0  0  0  0  0  0  0  0  0  0
   12.3062  -17.7257   24.8484 C   0  0  0  0  0  0  0  0  0  0  0  0
   13.4455  -18.2187   25.4624 O   0  0  0  0  0  0  0  0  0  0  0  0
   12.4842  -17.0965   23.7904 O   0  0  0  0  0  0  0  0  0  0  0  0
  2  1  1  0
  3  5  1  0
  3  2  1  0
  3  4  1  6
  5  6  1  1
  7  8  2  0
  7  5  1  0
 10  9  1  0
 11 10  1  0
 12 11  1  0
 13 12  1  1
 13 14  1  0
 14  7  1  0
 15 16  2  0
 15 13  1  0
 17 15  1  0
 18 17  1  0
 18 24  1  0
 18 19  1  6
 20 19  1  0
 21 20  1  0
 22 21  1  0
 22 23  1  0
 24 25  1  0
 26 24  2  0
M  END
$$$$
