IMK.pdb
     RDKit          3D

 26 25  0  0  1  0  0  0  0  0999 V2000
    7.1710  -12.3205   18.0154 C   0  0  0  0  0  0  0  0  0  0  0  0
    7.4059  -13.7435   18.5395 C   0  0  0  0  0  0  0  0  0  0  0  0
    7.8647  -13.5894   19.9685 C   0  0  2  0  0  0  0  0  0  0  0  0
    9.1768  -12.8296   19.9471 C   0  0  0  0  0  0  0  0  0  0  0  0
    8.0876  -14.8930   20.6673 C   0  0  2  0  0  0  0  0  0  0  0  0
    6.8936  -15.6899   20.5974 N   0  0  0  0  0  0  0  0  0  0  0  0
    8.5721  -14.7909   22.0419 C   0  0  0  0  0  0  0  0  0  0  0  0
    9.8044  -14.6011   22.2443 O   0  0  0  0  0  0  0  0  0  0  0  0
    6.8424  -10.9199   26.7179 C   0  0  0  0  0  0  0  0  0  0  0  0
    6.4097  -12.5598   27.4128 S   0  0  0  0  0  0  0  0  0  0  0  0
    7.6702  -13.7278   26.7373 C   0  0  0  0  0  0  0  0  0  0  0  0
    7.2879  -13.9522   25.3088 C   0  0  0  0  0  0  0  0  0  0  0  0
    8.3124  -14.7645   24.5680 C   0  0  2  0  0  0  0  0  0  0  0  0
    7.7598  -14.8886   23.1918 N   0  0  0  0  0  0  0  0  0  0  0  0
    8.5631  -16.1164   25.1103 C   0  0  0  0  0  0  0  0  0  0  0  0
    7.6019  -16.9521   25.2366 O   0  0  0  0  0  0  0  0  0  0  0  0
    9.8223  -16.5754   25.5052 N   0  0  0  0  0  0  0  0  0  0  0  0
   10.0384  -18.0076   25.9273 C   0  0  1  0  0  0  0  0  0  0  0  0
   11.0987  -18.4532   24.9877 C   0  0  0  0  0  0  0  0  0  0  0  0
   10.9089  -18.5501   23.5484 C   0  0  0  0  0  0  0  0  0  0  0  0
   11.9817  -18.9940   22.6437 C   0  0  0  0  0  0  0  0  0  0  0  0
   11.6700  -18.8866   21.1692 C   0  0  0  0  0  0  0  0  0  0  0  0
   12.7640  -19.2274   20.3134 N   0  0  0  0  0  0  0  0  0  0  0  0
   10.3709  -17.9129   27.3425 C   0  0  0  0  0  0  0  0  0  0  0  0
   10.9187  -16.7596   27.8787 O   0  0  0  0  0  0  0  0  0  0  0  0
   10.1856  -18.8511   28.1379 O   0  0  0  0  0  0  0  0  0  0  0  0
  2  1  1  0
  3  5  1  0
  3  2  1  0
  3  4  1  6
  5  6  1  1
  7  8  2  0
  7  5  1  0
 10  9  1  0
 11 10  1  0
 12 11  1  0
 13 12  1  1
 13 14  1  0
 14  7  1  0
 15 16  2  0
 15 13  1  0
 17 15  1  0
 18 17  1  0
 18 24  1  0
 18 19  1  6
 20 19  1  0
 21 20  1  0
 22 21  1  0
 22 23  1  0
 24 25  1  0
 26 24  2  0
M  END
$$$$
