IMK.pdb
     RDKit          3D

 26 25  0  0  1  0  0  0  0  0999 V2000
    7.4878  -17.1763   17.9371 C   0  0  0  0  0  0  0  0  0  0  0  0
    7.0042  -15.8487   18.5357 C   0  0  0  0  0  0  0  0  0  0  0  0
    7.7328  -15.6948   19.8479 C   0  0  2  0  0  0  0  0  0  0  0  0
    7.3650  -16.8824   20.7161 C   0  0  0  0  0  0  0  0  0  0  0  0
    7.3749  -14.4439   20.5859 C   0  0  2  0  0  0  0  0  0  0  0  0
    7.5374  -13.3081   19.7205 N   0  0  0  0  0  0  0  0  0  0  0  0
    8.0737  -14.2439   21.8533 C   0  0  0  0  0  0  0  0  0  0  0  0
    9.2741  -13.8511   21.8351 O   0  0  0  0  0  0  0  0  0  0  0  0
    7.4681  -11.5682   27.5381 C   0  0  0  0  0  0  0  0  0  0  0  0
    5.9262  -11.7864   26.5715 S   0  0  0  0  0  0  0  0  0  0  0  0
    6.4474  -12.5784   24.9871 C   0  0  0  0  0  0  0  0  0  0  0  0
    7.1867  -13.8179   25.3796 C   0  0  0  0  0  0  0  0  0  0  0  0
    8.2536  -14.1811   24.3857 C   0  0  2  0  0  0  0  0  0  0  0  0
    7.5074  -14.4573   23.1281 N   0  0  0  0  0  0  0  0  0  0  0  0
    9.0676  -15.3649   24.7329 C   0  0  0  0  0  0  0  0  0  0  0  0
    8.5888  -16.2816   25.4872 O   0  0  0  0  0  0  0  0  0  0  0  0
   10.3715  -15.5741   24.2763 N   0  0  0  0  0  0  0  0  0  0  0  0
   11.0962  -16.8709   24.5391 C   0  0  1  0  0  0  0  0  0  0  0  0
   10.3564  -17.8230   23.6721 C   0  0  0  0  0  0  0  0  0  0  0  0
   10.8127  -19.1758   23.3910 C   0  0  0  0  0  0  0  0  0  0  0  0
   10.1087  -20.3632   23.9017 C   0  0  0  0  0  0  0  0  0  0  0  0
   10.8115  -21.6807   23.6715 C   0  0  0  0  0  0  0  0  0  0  0  0
   10.1443  -22.8081   24.2451 N   0  0  0  0  0  0  0  0  0  0  0  0
   12.4832  -16.5747   24.2061 C   0  0  0  0  0  0  0  0  0  0  0  0
   13.5251  -17.3249   24.7253 O   0  0  0  0  0  0  0  0  0  0  0  0
   12.8054  -15.6426   23.4482 O   0  0  0  0  0  0  0  0  0  0  0  0
  2  1  1  0
  3  5  1  0
  3  2  1  0
  3  4  1  1
  5  6  1  6
  7  8  2  0
  7  5  1  0
 10  9  1  0
 11 10  1  0
 12 11  1  0
 13 12  1  1
 13 14  1  0
 14  7  1  0
 15 16  2  0
 15 13  1  0
 17 15  1  0
 18 17  1  0
 18 24  1  0
 18 19  1  6
 20 19  1  0
 21 20  1  0
 22 21  1  0
 22 23  1  0
 24 25  1  0
 26 24  2  0
M  END
$$$$
