IMK.pdb
     RDKit          3D

 26 25  0  0  1  0  0  0  0  0999 V2000
    7.7166  -11.2353   27.1982 C   0  0  0  0  0  0  0  0  0  0  0  0
    7.7917  -12.7602   27.3528 C   0  0  0  0  0  0  0  0  0  0  0  0
    7.1090  -13.3351   26.1363 C   0  0  2  0  0  0  0  0  0  0  0  0
    5.6370  -12.9832   26.2301 C   0  0  0  0  0  0  0  0  0  0  0  0
    7.2313  -14.8222   26.0306 C   0  0  2  0  0  0  0  0  0  0  0  0
    8.2912  -15.2826   26.8851 N   0  0  0  0  0  0  0  0  0  0  0  0
    7.3859  -15.3420   24.6740 C   0  0  0  0  0  0  0  0  0  0  0  0
    6.7850  -16.4060   24.3538 O   0  0  0  0  0  0  0  0  0  0  0  0
    8.5170  -11.5778   19.9422 C   0  0  0  0  0  0  0  0  0  0  0  0
    7.6272  -12.9017   19.0396 S   0  0  0  0  0  0  0  0  0  0  0  0
    8.0160  -14.4620   19.9473 C   0  0  0  0  0  0  0  0  0  0  0  0
    8.0066  -14.0980   21.3980 C   0  0  0  0  0  0  0  0  0  0  0  0
    8.2417  -15.2891   22.2835 C   0  0  2  0  0  0  0  0  0  0  0  0
    8.1691  -14.7414   23.6654 N   0  0  0  0  0  0  0  0  0  0  0  0
    9.5420  -15.9678   22.1019 C   0  0  0  0  0  0  0  0  0  0  0  0
   10.5755  -15.5700   22.7439 O   0  0  0  0  0  0  0  0  0  0  0  0
    9.7378  -17.0609   21.2540 N   0  0  0  0  0  0  0  0  0  0  0  0
   11.0307  -17.8383   21.2618 C   0  0  1  0  0  0  0  0  0  0  0  0
   10.6964  -18.9910   22.1365 C   0  0  0  0  0  0  0  0  0  0  0  0
   11.4539  -19.3425   23.3280 C   0  0  0  0  0  0  0  0  0  0  0  0
   11.0968  -20.4931   24.1737 C   0  0  0  0  0  0  0  0  0  0  0  0
   11.8488  -20.5936   25.4802 C   0  0  0  0  0  0  0  0  0  0  0  0
   11.4312  -21.6778   26.3141 N   0  0  0  0  0  0  0  0  0  0  0  0
   11.2949  -18.0995   19.8532 C   0  0  0  0  0  0  0  0  0  0  0  0
   12.5821  -18.3111   19.3884 O   0  0  0  0  0  0  0  0  0  0  0  0
   10.3912  -18.1445   18.9996 O   0  0  0  0  0  0  0  0  0  0  0  0
  2  1  1  0
  3  5  1  0
  3  2  1  0
  3  4  1  1
  5  6  1  1
  7  8  2  0
  7  5  1  0
 10  9  1  0
 11 10  1  0
 12 11  1  0
 13 12  1  6
 13 14  1  0
 14  7  1  0
 15 16  2  0
 15 13  1  0
 17 15  1  0
 18 17  1  0
 18 24  1  0
 18 19  1  1
 20 19  1  0
 21 20  1  0
 22 21  1  0
 22 23  1  0
 24 25  1  0
 26 24  2  0
M  END
$$$$
