IMK.pdb
     RDKit          3D

 26 25  0  0  1  0  0  0  0  0999 V2000
    1.5059  -19.0619   21.6150 C   0  0  0  0  0  0  0  0  0  0  0  0
    2.6725  -19.4238   22.5438 C   0  0  0  0  0  0  0  0  0  0  0  0
    3.7887  -18.4686   22.2003 C   0  0  2  0  0  0  0  0  0  0  0  0
    4.1246  -18.6672   20.7350 C   0  0  0  0  0  0  0  0  0  0  0  0
    5.0319  -18.6906   23.0020 C   0  0  2  0  0  0  0  0  0  0  0  0
    4.6815  -19.0791   24.3406 N   0  0  0  0  0  0  0  0  0  0  0  0
    5.9791  -17.5782   23.0080 C   0  0  0  0  0  0  0  0  0  0  0  0
    6.5651  -17.2673   21.9331 O   0  0  0  0  0  0  0  0  0  0  0  0
    6.6545  -13.5614   28.0106 C   0  0  0  0  0  0  0  0  0  0  0  0
    6.8875  -12.4584   26.5655 S   0  0  0  0  0  0  0  0  0  0  0  0
    7.6622  -13.5126   25.2624 C   0  0  0  0  0  0  0  0  0  0  0  0
    6.7902  -14.7227   25.1513 C   0  0  0  0  0  0  0  0  0  0  0  0
    7.2595  -15.6637   24.0777 C   0  0  2  0  0  0  0  0  0  0  0  0
    6.3031  -16.8021   24.1412 N   0  0  0  0  0  0  0  0  0  0  0  0
    8.6345  -16.1798   24.2432 C   0  0  0  0  0  0  0  0  0  0  0  0
    8.8927  -17.0610   25.1350 O   0  0  0  0  0  0  0  0  0  0  0  0
    9.7191  -15.7691   23.4639 N   0  0  0  0  0  0  0  0  0  0  0  0
   11.0442  -16.4879   23.5226 C   0  0  1  0  0  0  0  0  0  0  0  0
   11.7470  -15.9447   22.3324 C   0  0  0  0  0  0  0  0  0  0  0  0
   13.0560  -16.4031   21.8928 C   0  0  0  0  0  0  0  0  0  0  0  0
   13.3526  -17.8265   21.6635 C   0  0  0  0  0  0  0  0  0  0  0  0
   14.7677  -18.1307   21.2304 C   0  0  0  0  0  0  0  0  0  0  0  0
   15.0257  -19.5195   21.0072 N   0  0  0  0  0  0  0  0  0  0  0  0
   11.5688  -16.1555   24.8405 C   0  0  0  0  0  0  0  0  0  0  0  0
   12.3613  -17.0453   25.5463 O   0  0  0  0  0  0  0  0  0  0  0  0
   11.3357  -15.0690   25.3993 O   0  0  0  0  0  0  0  0  0  0  0  0
  2  1  1  0
  3  5  1  0
  3  2  1  0
  3  4  1  6
  5  6  1  1
  7  8  2  0
  7  5  1  0
 10  9  1  0
 11 10  1  0
 12 11  1  0
 13 12  1  1
 13 14  1  0
 14  7  1  0
 15 16  2  0
 15 13  1  0
 17 15  1  0
 18 17  1  0
 18 24  1  0
 18 19  1  6
 20 19  1  0
 21 20  1  0
 22 21  1  0
 22 23  1  0
 24 25  1  0
 26 24  2  0
M  END
$$$$
