IMK.pdb
     RDKit          3D

 26 25  0  0  1  0  0  0  0  0999 V2000
    7.2916  -18.9358   18.5987 C   0  0  0  0  0  0  0  0  0  0  0  0
    7.2592  -17.4027   18.6550 C   0  0  0  0  0  0  0  0  0  0  0  0
    7.9229  -17.0207   19.9550 C   0  0  2  0  0  0  0  0  0  0  0  0
    7.2080  -17.7627   21.0676 C   0  0  0  0  0  0  0  0  0  0  0  0
    7.8586  -15.5557   20.2498 C   0  0  2  0  0  0  0  0  0  0  0  0
    8.4729  -14.8193   19.1794 N   0  0  0  0  0  0  0  0  0  0  0  0
    8.4027  -15.1538   21.5448 C   0  0  0  0  0  0  0  0  0  0  0  0
    9.6542  -15.1730   21.7157 O   0  0  0  0  0  0  0  0  0  0  0  0
    6.6871  -10.5702   26.1934 C   0  0  0  0  0  0  0  0  0  0  0  0
    6.2709  -12.2550   26.7828 S   0  0  0  0  0  0  0  0  0  0  0  0
    7.5969  -13.3515   26.1129 C   0  0  0  0  0  0  0  0  0  0  0  0
    7.2086  -13.6355   24.6967 C   0  0  0  0  0  0  0  0  0  0  0  0
    8.2280  -14.4816   23.9875 C   0  0  2  0  0  0  0  0  0  0  0  0
    7.6297  -14.7354   22.6488 N   0  0  0  0  0  0  0  0  0  0  0  0
    8.5363  -15.7761   24.6308 C   0  0  0  0  0  0  0  0  0  0  0  0
    7.6548  -16.7031   24.6758 O   0  0  0  0  0  0  0  0  0  0  0  0
    9.7697  -16.0826   25.2114 N   0  0  0  0  0  0  0  0  0  0  0  0
   10.0880  -17.4788   25.6861 C   0  0  1  0  0  0  0  0  0  0  0  0
   11.3497  -17.7749   24.9609 C   0  0  0  0  0  0  0  0  0  0  0  0
   11.5102  -18.9007   24.0532 C   0  0  0  0  0  0  0  0  0  0  0  0
   12.7800  -19.1761   23.3617 C   0  0  0  0  0  0  0  0  0  0  0  0
   12.8030  -20.4368   22.5293 C   0  0  0  0  0  0  0  0  0  0  0  0
   14.0629  -20.7051   21.9081 N   0  0  0  0  0  0  0  0  0  0  0  0
   10.1428  -17.3552   27.1367 C   0  0  0  0  0  0  0  0  0  0  0  0
   10.1314  -18.4715   27.9562 O   0  0  0  0  0  0  0  0  0  0  0  0
   10.2003  -16.2545   27.7131 O   0  0  0  0  0  0  0  0  0  0  0  0
  2  1  1  0
  3  5  1  0
  3  2  1  0
  3  4  1  1
  5  6  1  6
  7  8  2  0
  7  5  1  0
 10  9  1  0
 11 10  1  0
 12 11  1  0
 13 12  1  1
 13 14  1  0
 14  7  1  0
 15 16  2  0
 15 13  1  0
 17 15  1  0
 18 17  1  0
 18 24  1  0
 18 19  1  6
 20 19  1  0
 21 20  1  0
 22 21  1  0
 22 23  1  0
 24 25  1  0
 26 24  2  0
M  END
$$$$
