IMK.pdb
     RDKit          3D

 26 25  0  0  1  0  0  0  0  0999 V2000
    7.2210  -12.2146   18.3962 C   0  0  0  0  0  0  0  0  0  0  0  0
    7.4454  -13.6760   18.8072 C   0  0  0  0  0  0  0  0  0  0  0  0
    7.9583  -13.6346   20.2254 C   0  0  2  0  0  0  0  0  0  0  0  0
    9.3508  -13.0353   20.1898 C   0  0  0  0  0  0  0  0  0  0  0  0
    8.0427  -14.9823   20.8689 C   0  0  2  0  0  0  0  0  0  0  0  0
    6.8255  -15.7088   20.6319 N   0  0  0  0  0  0  0  0  0  0  0  0
    8.3839  -14.9767   22.2896 C   0  0  0  0  0  0  0  0  0  0  0  0
    9.5904  -14.8192   22.6289 O   0  0  0  0  0  0  0  0  0  0  0  0
    6.4701  -11.4650   26.9374 C   0  0  0  0  0  0  0  0  0  0  0  0
    7.7152  -12.7949   27.1380 S   0  0  0  0  0  0  0  0  0  0  0  0
    6.7832  -14.3756   26.9321 C   0  0  0  0  0  0  0  0  0  0  0  0
    6.5918  -14.5422   25.4581 C   0  0  0  0  0  0  0  0  0  0  0  0
    7.8465  -15.0031   24.7715 C   0  0  2  0  0  0  0  0  0  0  0  0
    7.4567  -15.1362   23.3414 N   0  0  0  0  0  0  0  0  0  0  0  0
    8.3912  -16.2932   25.2445 C   0  0  0  0  0  0  0  0  0  0  0  0
    7.6576  -17.3421   25.2523 O   0  0  0  0  0  0  0  0  0  0  0  0
    9.7023  -16.4660   25.6955 N   0  0  0  0  0  0  0  0  0  0  0  0
   10.2276  -17.8278   26.0768 C   0  0  1  0  0  0  0  0  0  0  0  0
   11.3319  -18.0203   25.1025 C   0  0  0  0  0  0  0  0  0  0  0  0
   11.2073  -18.8205   23.8936 C   0  0  0  0  0  0  0  0  0  0  0  0
   12.2894  -18.9150   22.9004 C   0  0  0  0  0  0  0  0  0  0  0  0
   12.0004  -19.8012   21.7114 C   0  0  0  0  0  0  0  0  0  0  0  0
   13.0261  -19.7965   20.7148 N   0  0  0  0  0  0  0  0  0  0  0  0
   10.5715  -17.6925   27.4860 C   0  0  0  0  0  0  0  0  0  0  0  0
   10.3149  -16.5227   28.1814 O   0  0  0  0  0  0  0  0  0  0  0  0
   11.1095  -18.6074   28.1347 O   0  0  0  0  0  0  0  0  0  0  0  0
  2  1  1  0
  3  5  1  0
  3  2  1  0
  3  4  1  6
  5  6  1  1
  7  8  2  0
  7  5  1  0
 10  9  1  0
 11 10  1  0
 12 11  1  0
 13 12  1  1
 13 14  1  0
 14  7  1  0
 15 16  2  0
 15 13  1  0
 17 15  1  0
 18 17  1  0
 18 24  1  0
 18 19  1  6
 20 19  1  0
 21 20  1  0
 22 21  1  0
 22 23  1  0
 24 25  1  0
 26 24  2  0
M  END
$$$$
