KRV.pdb
     RDKit          3D

 28 27  0  0  1  0  0  0  0  0999 V2000
   19.9918  -22.1333  -14.9178 N   0  0  0  0  0  0  0  0  0  0  0  0
   20.5521  -21.0181  -14.2045 C   0  0  1  0  0  0  0  0  0  0  0  0
   21.4583  -21.4641  -13.1183 C   0  0  0  0  0  0  0  0  0  0  0  0
   20.9368  -21.1240  -11.7590 C   0  0  0  0  0  0  0  0  0  0  0  0
   20.1984  -22.1890  -11.0369 C   0  0  0  0  0  0  0  0  0  0  0  0
   19.4958  -21.6441   -9.8110 C   0  0  0  0  0  0  0  0  0  0  0  0
   18.7212  -22.7338   -9.2370 N   0  0  0  0  0  0  0  0  0  0  0  0
   21.2121  -20.0859  -15.1588 C   0  0  0  0  0  0  0  0  0  0  0  0
   21.5186  -20.5233  -16.2940 O   0  0  0  0  0  0  0  0  0  0  0  0
   19.4252  -11.8820  -15.5995 N   0  0  0  0  0  0  0  0  0  0  0  0
   19.0268  -13.1536  -16.0958 C   0  0  0  0  0  0  0  0  0  0  0  0
   17.7732  -13.4116  -16.3621 N   0  0  0  0  0  0  0  0  0  0  0  0
   19.9401  -14.2110  -16.3327 N   0  0  0  0  0  0  0  0  0  0  0  0
   21.3435  -14.0920  -16.0146 C   0  0  0  0  0  0  0  0  0  0  0  0
   22.1106  -15.3494  -16.3730 C   0  0  0  0  0  0  0  0  0  0  0  0
   21.5335  -16.4649  -15.5321 C   0  0  0  0  0  0  0  0  0  0  0  0
   22.1070  -17.8142  -15.8254 C   0  0  2  0  0  0  0  0  0  0  0  0
   21.5114  -18.7471  -14.8630 N   0  0  0  0  0  0  0  0  0  0  0  0
   23.5631  -17.9123  -15.7426 C   0  0  0  0  0  0  0  0  0  0  0  0
   24.2389  -17.7797  -14.6917 O   0  0  0  0  0  0  0  0  0  0  0  0
   17.4391  -14.2999  -16.7524 C   0  0  0  0  0  0  0  0  0  0  0  0
   27.8521  -19.0106  -17.9309 C   0  0  2  0  0  0  0  0  0  0  0  0
   26.3437  -19.0636  -18.0442 C   0  0  0  0  0  0  0  0  0  0  0  0
   25.9336  -20.5130  -17.8914 C   0  0  1  0  0  0  0  0  0  0  0  0
   25.7674  -18.2531  -16.9164 N   0  0  0  0  0  0  0  0  0  0  0  0
   24.3390  -18.1810  -16.9287 C   0  0  0  0  0  0  0  0  0  0  0  0
   26.4002  -16.9144  -16.8258 O   0  0  0  0  0  0  0  0  0  0  0  0
   27.5605  -16.7203  -16.1238 O   0  0  0  0  0  0  0  0  0  0  0  0
  2  1  1  6
  2  3  1  0
  3  4  1  0
  4  5  1  0
  5  6  1  0
  7  6  1  0
  8  9  2  0
  8  2  1  0
 10 11  1  0
 11 12  2  0
 13 14  1  0
 13 11  1  0
 14 15  1  0
 15 16  1  0
 17 16  1  1
 17 18  1  0
 18  8  1  0
 19 17  1  0
 20 19  2  0
 22 21  1  6
 22 24  1  0
 23 22  1  0
 24 26  1  0
 24 25  1  6
 25 19  1  0
 26 27  1  0
 28 26  2  0
M  END
$$$$
