KRV.pdb
     RDKit          3D

 28 27  0  0  1  0  0  0  0  0999 V2000
   27.6246  -23.7500  -16.1991 N   0  0  0  0  0  0  0  0  0  0  0  0
   27.4516  -22.3602  -15.8756 C   0  0  1  0  0  0  0  0  0  0  0  0
   27.4229  -21.5152  -17.0943 C   0  0  0  0  0  0  0  0  0  0  0  0
   28.7314  -21.5050  -17.8174 C   0  0  0  0  0  0  0  0  0  0  0  0
   28.7528  -22.1011  -19.1758 C   0  0  0  0  0  0  0  0  0  0  0  0
   28.9280  -21.0420  -20.2440 C   0  0  0  0  0  0  0  0  0  0  0  0
   28.9720  -21.7262  -21.5274 N   0  0  0  0  0  0  0  0  0  0  0  0
   26.2435  -22.1844  -15.0242 C   0  0  0  0  0  0  0  0  0  0  0  0
   25.2391  -22.8942  -15.2719 O   0  0  0  0  0  0  0  0  0  0  0  0
   22.7232  -20.6509   -8.5053 N   0  0  0  0  0  0  0  0  0  0  0  0
   23.8877  -21.0102   -7.7728 C   0  0  0  0  0  0  0  0  0  0  0  0
   23.7990  -21.6397   -6.6304 N   0  0  0  0  0  0  0  0  0  0  0  0
   25.2011  -20.7184   -8.2181 N   0  0  0  0  0  0  0  0  0  0  0  0
   25.4537  -20.1247   -9.5099 C   0  0  0  0  0  0  0  0  0  0  0  0
   24.9792  -21.0151  -10.6413 C   0  0  0  0  0  0  0  0  0  0  0  0
   25.3680  -20.3257  -11.9289 C   0  0  0  0  0  0  0  0  0  0  0  0
   24.9496  -21.0542  -13.1657 C   0  0  2  0  0  0  0  0  0  0  0  0
   26.1624  -21.2717  -13.9614 N   0  0  0  0  0  0  0  0  0  0  0  0
   23.9551  -20.3733  -13.9929 C   0  0  0  0  0  0  0  0  0  0  0  0
   24.1589  -19.3239  -14.6531 O   0  0  0  0  0  0  0  0  0  0  0  0
   24.6044  -21.8764   -6.0400 C   0  0  0  0  0  0  0  0  0  0  0  0
   20.0898  -20.2740  -16.7899 C   0  0  2  0  0  0  0  0  0  0  0  0
   21.0819  -21.1067  -16.0067 C   0  0  0  0  0  0  0  0  0  0  0  0
   22.2212  -21.4457  -16.9444 C   0  0  1  0  0  0  0  0  0  0  0  0
   21.5948  -20.2659  -14.8705 N   0  0  0  0  0  0  0  0  0  0  0  0
   22.6168  -20.9016  -14.0977 C   0  0  0  0  0  0  0  0  0  0  0  0
   20.4876  -19.7503  -14.0283 O   0  0  0  0  0  0  0  0  0  0  0  0
   19.6030  -18.8193  -14.5053 O   0  0  0  0  0  0  0  0  0  0  0  0
  2  1  1  6
  2  3  1  0
  3  4  1  0
  4  5  1  0
  5  6  1  0
  7  6  1  0
  8  9  2  0
  8  2  1  0
 10 11  1  0
 11 12  2  0
 13 14  1  0
 13 11  1  0
 14 15  1  0
 15 16  1  0
 17 16  1  1
 17 18  1  0
 18  8  1  0
 19 17  1  0
 20 19  2  0
 22 21  1  6
 22 24  1  0
 23 22  1  0
 24 26  1  0
 24 25  1  1
 25 19  1  0
 26 27  1  0
 28 26  2  0
M  END
$$$$
