KRV.pdb
     RDKit          3D

 28 27  0  0  1  0  0  0  0  0999 V2000
   27.7367  -30.8438  -17.7760 N   0  0  0  0  0  0  0  0  0  0  0  0
   28.0184  -31.7304  -16.6802 C   0  0  1  0  0  0  0  0  0  0  0  0
   29.2518  -31.3324  -15.9588 C   0  0  0  0  0  0  0  0  0  0  0  0
   30.4899  -31.8835  -16.5902 C   0  0  0  0  0  0  0  0  0  0  0  0
   31.1071  -33.0651  -15.9391 C   0  0  0  0  0  0  0  0  0  0  0  0
   32.3993  -33.4629  -16.6212 C   0  0  0  0  0  0  0  0  0  0  0  0
   32.8246  -34.7262  -16.0377 N   0  0  0  0  0  0  0  0  0  0  0  0
   26.8325  -31.8235  -15.7856 C   0  0  0  0  0  0  0  0  0  0  0  0
   26.1655  -30.7810  -15.5802 O   0  0  0  0  0  0  0  0  0  0  0  0
   21.6041  -36.4812  -13.1337 N   0  0  0  0  0  0  0  0  0  0  0  0
   20.5191  -35.9062  -13.8507 C   0  0  0  0  0  0  0  0  0  0  0  0
   19.2848  -36.0681  -13.4513 N   0  0  0  0  0  0  0  0  0  0  0  0
   20.6930  -35.1326  -15.0253 N   0  0  0  0  0  0  0  0  0  0  0  0
   22.0026  -34.8391  -15.5579 C   0  0  0  0  0  0  0  0  0  0  0  0
   22.8849  -34.1505  -14.5354 C   0  0  0  0  0  0  0  0  0  0  0  0
   24.1795  -33.8106  -15.2374 C   0  0  0  0  0  0  0  0  0  0  0  0
   25.1859  -33.1242  -14.3705 C   0  0  2  0  0  0  0  0  0  0  0  0
   26.4173  -33.0085  -15.1590 N   0  0  0  0  0  0  0  0  0  0  0  0
   25.4922  -33.7940  -13.1078 C   0  0  0  0  0  0  0  0  0  0  0  0
   26.1397  -34.8648  -12.9950 O   0  0  0  0  0  0  0  0  0  0  0  0
   18.4703  -35.6529  -13.9175 C   0  0  0  0  0  0  0  0  0  0  0  0
   26.9108  -32.1228   -9.9019 C   0  0  2  0  0  0  0  0  0  0  0  0
   25.6414  -32.8465   -9.5071 C   0  0  0  0  0  0  0  0  0  0  0  0
   24.5435  -31.8080   -9.4161 C   0  0  2  0  0  0  0  0  0  0  0  0
   25.3157  -33.8333  -10.5938 N   0  0  0  0  0  0  0  0  0  0  0  0
   25.0412  -33.2275  -11.8601 C   0  0  0  0  0  0  0  0  0  0  0  0
   24.2493  -34.7759  -10.1752 O   0  0  0  0  0  0  0  0  0  0  0  0
   23.0429  -34.8208  -10.8228 O   0  0  0  0  0  0  0  0  0  0  0  0
  2  1  1  6
  2  3  1  0
  3  4  1  0
  4  5  1  0
  5  6  1  0
  7  6  1  0
  8  9  2  0
  8  2  1  0
 10 11  1  0
 11 12  2  0
 13 14  1  0
 13 11  1  0
 14 15  1  0
 15 16  1  0
 17 16  1  6
 17 18  1  0
 18  8  1  0
 19 17  1  0
 20 19  2  0
 22 21  1  1
 22 24  1  0
 23 22  1  0
 24 26  1  0
 24 25  1  1
 25 19  1  0
 26 27  1  0
 28 26  2  0
M  END
$$$$
