KRV.pdb
     RDKit          3D

 28 27  0  0  1  0  0  0  0  0999 V2000
   28.2409  -27.9997  -16.4472 N   0  0  0  0  0  0  0  0  0  0  0  0
   28.3337  -26.8586  -17.3164 C   0  0  1  0  0  0  0  0  0  0  0  0
   28.2544  -27.2518  -18.7443 C   0  0  0  0  0  0  0  0  0  0  0  0
   29.2838  -28.2697  -19.1180 C   0  0  0  0  0  0  0  0  0  0  0  0
   29.2627  -28.7643  -20.5166 C   0  0  0  0  0  0  0  0  0  0  0  0
   30.4048  -29.7221  -20.7839 C   0  0  0  0  0  0  0  0  0  0  0  0
   30.3214  -30.1138  -22.1827 N   0  0  0  0  0  0  0  0  0  0  0  0
   27.3070  -25.8491  -16.9391 C   0  0  0  0  0  0  0  0  0  0  0  0
   26.6974  -26.0052  -15.8538 O   0  0  0  0  0  0  0  0  0  0  0  0
   28.7655  -20.4473  -19.0925 N   0  0  0  0  0  0  0  0  0  0  0  0
   29.9872  -20.7388  -18.4258 C   0  0  0  0  0  0  0  0  0  0  0  0
   31.1380  -20.5772  -19.0245 N   0  0  0  0  0  0  0  0  0  0  0  0
   30.0448  -21.2157  -17.0925 N   0  0  0  0  0  0  0  0  0  0  0  0
   28.8532  -21.4140  -16.3016 C   0  0  0  0  0  0  0  0  0  0  0  0
   28.2150  -22.7619  -16.5732 C   0  0  0  0  0  0  0  0  0  0  0  0
   26.7777  -22.4928  -16.9557 C   0  0  0  0  0  0  0  0  0  0  0  0
   26.0029  -23.7156  -17.3298 C   0  0  2  0  0  0  0  0  0  0  0  0
   26.9815  -24.7338  -17.7260 N   0  0  0  0  0  0  0  0  0  0  0  0
   25.0342  -23.5423  -18.4108 C   0  0  0  0  0  0  0  0  0  0  0  0
   25.3191  -23.4617  -19.6319 O   0  0  0  0  0  0  0  0  0  0  0  0
   32.0447  -20.7972  -18.5971 C   0  0  0  0  0  0  0  0  0  0  0  0
   22.3757  -25.7033  -19.3890 C   0  0  2  0  0  0  0  0  0  0  0  0
   21.6242  -24.4078  -19.1703 C   0  0  0  0  0  0  0  0  0  0  0  0
   20.9263  -24.5152  -17.8311 C   0  0  2  0  0  0  0  0  0  0  0  0
   22.6310  -23.2917  -19.1281 N   0  0  0  0  0  0  0  0  0  0  0  0
   23.6258  -23.4501  -18.1127 C   0  0  0  0  0  0  0  0  0  0  0  0
   21.9731  -21.9632  -19.0725 O   0  0  0  0  0  0  0  0  0  0  0  0
   22.0758  -21.1626  -17.9656 O   0  0  0  0  0  0  0  0  0  0  0  0
  2  1  1  1
  2  3  1  0
  3  4  1  0
  4  5  1  0
  5  6  1  0
  7  6  1  0
  8  9  2  0
  8  2  1  0
 10 11  1  0
 11 12  2  0
 13 14  1  0
 13 11  1  0
 14 15  1  0
 15 16  1  0
 17 16  1  6
 17 18  1  0
 18  8  1  0
 19 17  1  0
 20 19  2  0
 22 21  1  6
 22 24  1  0
 23 22  1  0
 24 26  1  0
 24 25  1  6
 25 19  1  0
 26 27  1  0
 28 26  2  0
M  END
$$$$
