TTA.pdb
     RDKit          3D

 20 19  0  0  1  0  0  0  0  0999 V2000
   15.1966  -10.5260  -17.4191 C   0  0  0  0  0  0  0  0  0  0  0  0
   16.4021  -10.2225  -16.5805 C   0  0  1  0  0  0  0  0  0  0  0  0
   16.1724  -10.4288  -15.2279 O   0  0  0  0  0  0  0  0  0  0  0  0
   17.6322  -10.9813  -17.0733 C   0  0  2  0  0  0  0  0  0  0  0  0
   17.4150  -12.4069  -16.9089 N   0  0  0  0  0  0  0  0  0  0  0  0
   18.8465  -10.5993  -16.3268 C   0  0  0  0  0  0  0  0  0  0  0  0
   19.2659  -11.3714  -15.4364 O   0  0  0  0  0  0  0  0  0  0  0  0
   22.1405  -10.3013  -17.5896 C   0  0  0  0  0  0  0  0  0  0  0  0
   21.8288   -8.9545  -16.9951 C   0  0  1  0  0  0  0  0  0  0  0  0
   21.5602   -8.0201  -17.9880 O   0  0  0  0  0  0  0  0  0  0  0  0
   20.7657   -9.0123  -15.9368 C   0  0  2  0  0  0  0  0  0  0  0  0
   19.5351   -9.4138  -16.5820 N   0  0  0  0  0  0  0  0  0  0  0  0
   20.6221   -7.7636  -15.1615 C   0  0  0  0  0  0  0  0  0  0  0  0
   19.9199   -6.8001  -15.5644 O   0  0  0  0  0  0  0  0  0  0  0  0
   21.5831   -6.5443  -11.7540 C   0  0  0  0  0  0  0  0  0  0  0  0
   21.1419   -6.3130  -13.2063 C   0  0  2  0  0  0  0  0  0  0  0  0
   21.2564   -7.5465  -13.9103 N   0  0  0  0  0  0  0  0  0  0  0  0
   21.9375   -5.2128  -13.7304 C   0  0  0  0  0  0  0  0  0  0  0  0
   21.7227   -3.8644  -13.4824 O   0  0  0  0  0  0  0  0  0  0  0  0
   22.9103   -5.4979  -14.4768 O   0  0  0  0  0  0  0  0  0  0  0  0
  2  1  1  6
  2  3  1  0
  2  4  1  0
  4  5  1  1
  6  4  1  0
  6 12  1  0
  7  6  2  0
  9  8  1  6
 10  9  1  0
 11  9  1  0
 11 12  1  6
 11 13  1  0
 13 14  2  0
 16 15  1  1
 16 18  1  0
 17 13  1  0
 17 16  1  0
 18 19  1  0
 20 18  2  0
M  END
$$$$
