TTA.pdb
     RDKit          3D

 20 19  0  0  1  0  0  0  0  0999 V2000
   32.5435   -6.2397  -19.5704 C   0  0  0  0  0  0  0  0  0  0  0  0
   31.2688   -7.0026  -19.3654 C   0  0  1  0  0  0  0  0  0  0  0  0
   30.6699   -7.3652  -20.5631 O   0  0  0  0  0  0  0  0  0  0  0  0
   31.4766   -8.2026  -18.4443 C   0  0  2  0  0  0  0  0  0  0  0  0
   30.2035   -8.8630  -18.2213 N   0  0  0  0  0  0  0  0  0  0  0  0
   32.0352   -7.8006  -17.1390 C   0  0  0  0  0  0  0  0  0  0  0  0
   31.2490   -7.6341  -16.1803 O   0  0  0  0  0  0  0  0  0  0  0  0
   34.1039   -9.6942  -14.9716 C   0  0  0  0  0  0  0  0  0  0  0  0
   34.8917   -8.4552  -15.3014 C   0  0  1  0  0  0  0  0  0  0  0  0
   35.8769   -8.7255  -16.2435 O   0  0  0  0  0  0  0  0  0  0  0  0
   34.0226   -7.2896  -15.6751 C   0  0  2  0  0  0  0  0  0  0  0  0
   33.4016   -7.6026  -16.9432 N   0  0  0  0  0  0  0  0  0  0  0  0
   34.7308   -5.9938  -15.6911 C   0  0  0  0  0  0  0  0  0  0  0  0
   35.4279   -5.6217  -16.6707 O   0  0  0  0  0  0  0  0  0  0  0  0
   34.9145   -2.9696  -13.4739 C   0  0  0  0  0  0  0  0  0  0  0  0
   35.3964   -3.8337  -14.6480 C   0  0  2  0  0  0  0  0  0  0  0  0
   34.6858   -5.0683  -14.6158 N   0  0  0  0  0  0  0  0  0  0  0  0
   36.8442   -3.9377  -14.5434 C   0  0  0  0  0  0  0  0  0  0  0  0
   37.7621   -3.0153  -15.0256 O   0  0  0  0  0  0  0  0  0  0  0  0
   37.3178   -4.9510  -13.9657 O   0  0  0  0  0  0  0  0  0  0  0  0
  2  1  1  6
  2  3  1  0
  2  4  1  0
  4  5  1  1
  6  4  1  0
  6 12  1  0
  7  6  2  0
  9  8  1  6
 10  9  1  0
 11  9  1  0
 11 12  1  6
 11 13  1  0
 13 14  2  0
 16 15  1  1
 16 18  1  0
 17 13  1  0
 17 16  1  0
 18 19  1  0
 20 18  2  0
M  END
$$$$
