TTA.pdb
     RDKit          3D

 20 19  0  0  1  0  0  0  0  0999 V2000
   26.9902  -10.5330  -15.8950 C   0  0  0  0  0  0  0  0  0  0  0  0
   26.6855  -11.4638  -17.0306 C   0  0  1  0  0  0  0  0  0  0  0  0
   27.5542  -12.5446  -17.0776 O   0  0  0  0  0  0  0  0  0  0  0  0
   25.2239  -11.9059  -17.0153 C   0  0  2  0  0  0  0  0  0  0  0  0
   25.0144  -12.9076  -18.0445 N   0  0  0  0  0  0  0  0  0  0  0  0
   24.3076  -10.7759  -17.2623 C   0  0  0  0  0  0  0  0  0  0  0  0
   24.3037  -10.2492  -18.3970 O   0  0  0  0  0  0  0  0  0  0  0  0
   20.6849  -10.7525  -17.1288 C   0  0  0  0  0  0  0  0  0  0  0  0
   21.1508   -9.7101  -16.1485 C   0  0  1  0  0  0  0  0  0  0  0  0
   21.0186  -10.1600  -14.8403 O   0  0  0  0  0  0  0  0  0  0  0  0
   22.5240   -9.1876  -16.4563 C   0  0  2  0  0  0  0  0  0  0  0  0
   23.4528  -10.2817  -16.2776 N   0  0  0  0  0  0  0  0  0  0  0  0
   22.8982   -7.9890  -15.6790 C   0  0  0  0  0  0  0  0  0  0  0  0
   23.4401   -8.0659  -14.5457 O   0  0  0  0  0  0  0  0  0  0  0  0
   22.8652   -4.2728  -16.2429 C   0  0  0  0  0  0  0  0  0  0  0  0
   23.0705   -5.5240  -15.3770 C   0  0  2  0  0  0  0  0  0  0  0  0
   22.6814   -6.6636  -16.1386 N   0  0  0  0  0  0  0  0  0  0  0  0
   22.3391   -5.3164  -14.1361 C   0  0  0  0  0  0  0  0  0  0  0  0
   22.8217   -4.6703  -13.0067 O   0  0  0  0  0  0  0  0  0  0  0  0
   21.1622   -5.7583  -14.0697 O   0  0  0  0  0  0  0  0  0  0  0  0
  2  1  1  1
  2  3  1  0
  2  4  1  0
  4  5  1  6
  6  4  1  0
  6 12  1  0
  7  6  2  0
  9  8  1  6
 10  9  1  0
 11  9  1  0
 11 12  1  1
 11 13  1  0
 13 14  2  0
 16 15  1  6
 16 18  1  0
 17 13  1  0
 17 16  1  0
 18 19  1  0
 20 18  2  0
M  END
$$$$
