TTA.pdb
     RDKit          3D

 20 19  0  0  1  0  0  0  0  0999 V2000
   24.3150  -11.6265  -18.0373 C   0  0  0  0  0  0  0  0  0  0  0  0
   24.3520  -11.7459  -16.5430 C   0  0  1  0  0  0  0  0  0  0  0  0
   25.0968  -10.7374  -15.9490 O   0  0  0  0  0  0  0  0  0  0  0  0
   22.9463  -11.8407  -15.9540 C   0  0  2  0  0  0  0  0  0  0  0  0
   22.2412  -12.9496  -16.5701 N   0  0  0  0  0  0  0  0  0  0  0  0
   22.1731  -10.6045  -16.1811 C   0  0  0  0  0  0  0  0  0  0  0  0
   21.8038  -10.3385  -17.3463 O   0  0  0  0  0  0  0  0  0  0  0  0
   18.9026   -9.8723  -15.3107 C   0  0  0  0  0  0  0  0  0  0  0  0
   19.7172   -8.8196  -14.6087 C   0  0  1  0  0  0  0  0  0  0  0  0
   19.8508   -9.1105  -13.2564 O   0  0  0  0  0  0  0  0  0  0  0  0
   21.0289   -8.5450  -15.2851 C   0  0  2  0  0  0  0  0  0  0  0  0
   21.8441   -9.7313  -15.1448 N   0  0  0  0  0  0  0  0  0  0  0  0
   21.7087   -7.3256  -14.8037 C   0  0  0  0  0  0  0  0  0  0  0  0
   22.3929   -7.3108  -13.7475 O   0  0  0  0  0  0  0  0  0  0  0  0
   22.1677   -3.8055  -16.0444 C   0  0  0  0  0  0  0  0  0  0  0  0
   22.3182   -4.9198  -14.9990 C   0  0  2  0  0  0  0  0  0  0  0  0
   21.6493   -6.0808  -15.4834 N   0  0  0  0  0  0  0  0  0  0  0  0
   21.8298   -4.3942  -13.7327 C   0  0  0  0  0  0  0  0  0  0  0  0
   20.6469   -4.7571  -13.1043 O   0  0  0  0  0  0  0  0  0  0  0  0
   22.5354   -3.5326  -13.1459 O   0  0  0  0  0  0  0  0  0  0  0  0
  2  1  1  6
  2  3  1  0
  2  4  1  0
  4  5  1  6
  6  4  1  0
  6 12  1  0
  7  6  2  0
  9  8  1  6
 10  9  1  0
 11  9  1  0
 11 12  1  1
 11 13  1  0
 13 14  2  0
 16 15  1  6
 16 18  1  0
 17 13  1  0
 17 16  1  0
 18 19  1  0
 20 18  2  0
M  END
$$$$
