TTA.pdb
     RDKit          3D

 20 19  0  0  1  0  0  0  0  0999 V2000
   16.6312   -9.3416  -15.1364 C   0  0  0  0  0  0  0  0  0  0  0  0
   16.9073  -10.8155  -15.1428 C   0  0  1  0  0  0  0  0  0  0  0  0
   15.7602  -11.5687  -15.3462 O   0  0  0  0  0  0  0  0  0  0  0  0
   18.0100  -11.1742  -16.1364 C   0  0  2  0  0  0  0  0  0  0  0  0
   18.2067  -12.6122  -16.1372 N   0  0  0  0  0  0  0  0  0  0  0  0
   19.2889  -10.5226  -15.7937 C   0  0  0  0  0  0  0  0  0  0  0  0
   20.0179  -11.0586  -14.9299 O   0  0  0  0  0  0  0  0  0  0  0  0
   22.1728   -9.8524  -17.9384 C   0  0  0  0  0  0  0  0  0  0  0  0
   21.6994   -8.5272  -17.4052 C   0  0  1  0  0  0  0  0  0  0  0  0
   21.0040   -7.8174  -18.3767 O   0  0  0  0  0  0  0  0  0  0  0  0
   20.9461   -8.6503  -16.1126 C   0  0  2  0  0  0  0  0  0  0  0  0
   19.7062   -9.3375  -16.3987 N   0  0  0  0  0  0  0  0  0  0  0  0
   20.7383   -7.3656  -15.4144 C   0  0  0  0  0  0  0  0  0  0  0  0
   19.7953   -6.5860  -15.7094 O   0  0  0  0  0  0  0  0  0  0  0  0
   22.0338   -5.6814  -12.3510 C   0  0  0  0  0  0  0  0  0  0  0  0
   21.3824   -5.6391  -13.7407 C   0  0  2  0  0  0  0  0  0  0  0  0
   21.5744   -6.9063  -14.3633 N   0  0  0  0  0  0  0  0  0  0  0  0
   21.9452   -4.4985  -14.4480 C   0  0  0  0  0  0  0  0  0  0  0  0
   21.5869   -3.1705  -14.2636 O   0  0  0  0  0  0  0  0  0  0  0  0
   22.8378   -4.7247  -15.3065 O   0  0  0  0  0  0  0  0  0  0  0  0
  2  1  1  6
  2  3  1  0
  2  4  1  0
  4  5  1  1
  6  4  1  0
  6 12  1  0
  7  6  2  0
  9  8  1  6
 10  9  1  0
 11  9  1  0
 11 12  1  6
 11 13  1  0
 13 14  2  0
 16 15  1  1
 16 18  1  0
 17 13  1  0
 17 16  1  0
 18 19  1  0
 20 18  2  0
M  END
$$$$
