TTA.pdb
     RDKit          3D

 20 19  0  0  1  0  0  0  0  0999 V2000
   18.5273  -13.4104  -15.4389 C   0  0  0  0  0  0  0  0  0  0  0  0
   18.1070  -12.5823  -16.6164 C   0  0  1  0  0  0  0  0  0  0  0  0
   17.0213  -13.1270  -17.2867 O   0  0  0  0  0  0  0  0  0  0  0  0
   17.8626  -11.1282  -16.2195 C   0  0  2  0  0  0  0  0  0  0  0  0
   17.1890  -10.4406  -17.3059 N   0  0  0  0  0  0  0  0  0  0  0  0
   19.1240  -10.4221  -15.9234 C   0  0  0  0  0  0  0  0  0  0  0  0
   19.9039  -10.9228  -15.0831 O   0  0  0  0  0  0  0  0  0  0  0  0
   21.8624   -9.5225  -18.2704 C   0  0  0  0  0  0  0  0  0  0  0  0
   21.3425   -8.2571  -17.6437 C   0  0  1  0  0  0  0  0  0  0  0  0
   20.5353   -7.5551  -18.5308 O   0  0  0  0  0  0  0  0  0  0  0  0
   20.6923   -8.4870  -16.3104 C   0  0  2  0  0  0  0  0  0  0  0  0
   19.4704   -9.2238  -16.5469 N   0  0  0  0  0  0  0  0  0  0  0  0
   20.4722   -7.2532  -15.5292 C   0  0  0  0  0  0  0  0  0  0  0  0
   19.4262   -6.5629  -15.6448 O   0  0  0  0  0  0  0  0  0  0  0  0
   22.1387   -5.4910  -12.6809 C   0  0  0  0  0  0  0  0  0  0  0  0
   21.2011   -5.5213  -13.8964 C   0  0  2  0  0  0  0  0  0  0  0  0
   21.4106   -6.7468  -14.5923 N   0  0  0  0  0  0  0  0  0  0  0  0
   21.4495   -4.3105  -14.6648 C   0  0  0  0  0  0  0  0  0  0  0  0
   21.0086   -3.0359  -14.3379 O   0  0  0  0  0  0  0  0  0  0  0  0
   22.1235   -4.4170  -15.7227 O   0  0  0  0  0  0  0  0  0  0  0  0
  2  1  1  1
  2  3  1  0
  2  4  1  0
  4  5  1  6
  6  4  1  0
  6 12  1  0
  7  6  2  0
  9  8  1  6
 10  9  1  0
 11  9  1  0
 11 12  1  6
 11 13  1  0
 13 14  2  0
 16 15  1  1
 16 18  1  0
 17 13  1  0
 17 16  1  0
 18 19  1  0
 20 18  2  0
M  END
$$$$
