TTA.pdb
     RDKit          3D

 20 19  0  0  1  0  0  0  0  0999 V2000
   22.1428  -10.4473  -19.8529 C   0  0  0  0  0  0  0  0  0  0  0  0
   22.1461  -11.8755  -19.3958 C   0  0  1  0  0  0  0  0  0  0  0  0
   21.9295  -12.7658  -20.4375 O   0  0  0  0  0  0  0  0  0  0  0  0
   23.4138  -12.2097  -18.6129 C   0  0  2  0  0  0  0  0  0  0  0  0
   23.4050  -13.6183  -18.2631 N   0  0  0  0  0  0  0  0  0  0  0  0
   23.5170  -11.4158  -17.3733 C   0  0  0  0  0  0  0  0  0  0  0  0
   22.8544  -11.7790  -16.3763 O   0  0  0  0  0  0  0  0  0  0  0  0
   26.5415  -10.6762  -15.4410 C   0  0  0  0  0  0  0  0  0  0  0  0
   25.9217   -9.3500  -15.7898 C   0  0  1  0  0  0  0  0  0  0  0  0
   26.6493   -8.7039  -16.7820 O   0  0  0  0  0  0  0  0  0  0  0  0
   24.4574   -9.4515  -16.1040 C   0  0  2  0  0  0  0  0  0  0  0  0
   24.3243  -10.2825  -17.2802 N   0  0  0  0  0  0  0  0  0  0  0  0
   23.7827   -8.1458  -16.2490 C   0  0  0  0  0  0  0  0  0  0  0  0
   23.8262   -7.4825  -17.3176 O   0  0  0  0  0  0  0  0  0  0  0  0
   21.3708   -6.0766  -14.2801 C   0  0  0  0  0  0  0  0  0  0  0  0
   22.4652   -6.2368  -15.3450 C   0  0  2  0  0  0  0  0  0  0  0  0
   23.0363   -7.5349  -15.2075 N   0  0  0  0  0  0  0  0  0  0  0  0
   23.3885   -5.1229  -15.1878 C   0  0  0  0  0  0  0  0  0  0  0  0
   23.2379   -3.8585  -15.7396 O   0  0  0  0  0  0  0  0  0  0  0  0
   24.4198   -5.3117  -14.4908 O   0  0  0  0  0  0  0  0  0  0  0  0
  2  1  1  6
  2  3  1  0
  2  4  1  0
  4  5  1  1
  6  4  1  0
  6 12  1  0
  7  6  2  0
  9  8  1  6
 10  9  1  0
 11  9  1  0
 11 12  1  6
 11 13  1  0
 13 14  2  0
 16 15  1  1
 16 18  1  0
 17 13  1  0
 17 16  1  0
 18 19  1  0
 20 18  2  0
M  END
$$$$
