TTA.pdb
     RDKit          3D

 20 19  0  0  1  0  0  0  0  0999 V2000
   15.1831   -9.6020  -15.5423 C   0  0  0  0  0  0  0  0  0  0  0  0
   14.8191  -11.0229  -15.2306 C   0  0  1  0  0  0  0  0  0  0  0  0
   13.4483  -11.2070  -15.1213 O   0  0  0  0  0  0  0  0  0  0  0  0
   15.4482  -11.9936  -16.2274 C   0  0  2  0  0  0  0  0  0  0  0  0
   15.0554  -13.3497  -15.8906 N   0  0  0  0  0  0  0  0  0  0  0  0
   16.9216  -11.9119  -16.2157 C   0  0  0  0  0  0  0  0  0  0  0  0
   17.5552  -12.6854  -15.4639 O   0  0  0  0  0  0  0  0  0  0  0  0
   21.0192  -10.4840  -18.4888 C   0  0  0  0  0  0  0  0  0  0  0  0
   19.5545  -10.8116  -18.3800 C   0  0  1  0  0  0  0  0  0  0  0  0
   19.2552  -11.9913  -19.0509 O   0  0  0  0  0  0  0  0  0  0  0  0
   19.0532  -10.7946  -16.9652 C   0  0  2  0  0  0  0  0  0  0  0  0
   17.6232  -11.0063  -17.0108 N   0  0  0  0  0  0  0  0  0  0  0  0
   19.4262   -9.5811  -16.2108 C   0  0  0  0  0  0  0  0  0  0  0  0
   18.9050   -8.4594  -16.4429 O   0  0  0  0  0  0  0  0  0  0  0  0
   21.7419   -8.7587  -13.3625 C   0  0  0  0  0  0  0  0  0  0  0  0
   20.7552   -8.3857  -14.4781 C   0  0  2  0  0  0  0  0  0  0  0  0
   20.3931   -9.5766  -15.1715 N   0  0  0  0  0  0  0  0  0  0  0  0
   21.3865   -7.3535  -15.2869 C   0  0  0  0  0  0  0  0  0  0  0  0
   21.3347   -5.9877  -15.0466 O   0  0  0  0  0  0  0  0  0  0  0  0
   22.0408   -7.7209  -16.2978 O   0  0  0  0  0  0  0  0  0  0  0  0
  2  1  1  6
  2  3  1  0
  2  4  1  0
  4  5  1  1
  6  4  1  0
  6 12  1  0
  7  6  2  0
  9  8  1  1
 10  9  1  0
 11  9  1  0
 11 12  1  6
 11 13  1  0
 13 14  2  0
 16 15  1  1
 16 18  1  0
 17 13  1  0
 17 16  1  0
 18 19  1  0
 20 18  2  0
M  END
$$$$
