QTA.pdb
     RDKit          3D

 22 21  0  0  1  0  0  0  0  0999 V2000
   15.0149  -12.2011  -14.0322 N   0  0  0  0  0  0  0  0  0  0  0  0
   14.6493  -11.6489  -15.3049 C   0  0  0  0  0  0  0  0  0  0  0  0
   13.4999  -11.8851  -15.7159 O   0  0  0  0  0  0  0  0  0  0  0  0
   15.5683  -10.8384  -16.1050 C   0  0  0  0  0  0  0  0  0  0  0  0
   16.8834  -10.5471  -15.4819 C   0  0  0  0  0  0  0  0  0  0  0  0
   18.0300  -10.7131  -16.4346 C   0  0  2  0  0  0  0  0  0  0  0  0
   18.2110  -12.1302  -16.7870 N   0  0  0  0  0  0  0  0  0  0  0  0
   19.2888  -10.2328  -15.7997 C   0  0  0  0  0  0  0  0  0  0  0  0
   19.8613  -10.8657  -14.8763 O   0  0  0  0  0  0  0  0  0  0  0  0
   22.4265  -10.2372  -17.1408 C   0  0  0  0  0  0  0  0  0  0  0  0
   22.1141   -8.7906  -16.8865 C   0  0  1  0  0  0  0  0  0  0  0  0
   21.3756   -8.3695  -18.0240 O   0  0  0  0  0  0  0  0  0  0  0  0
   21.1731   -8.5592  -15.7218 C   0  0  2  0  0  0  0  0  0  0  0  0
   19.8674   -9.0373  -16.2342 N   0  0  0  0  0  0  0  0  0  0  0  0
   20.9608   -7.1409  -15.3936 C   0  0  0  0  0  0  0  0  0  0  0  0
   20.2431   -6.3708  -16.1222 O   0  0  0  0  0  0  0  0  0  0  0  0
   22.0838   -4.9980  -12.4656 C   0  0  0  0  0  0  0  0  0  0  0  0
   21.5384   -5.2046  -13.8507 C   0  0  2  0  0  0  0  0  0  0  0  0
   21.5593   -6.5875  -14.2382 N   0  0  0  0  0  0  0  0  0  0  0  0
   22.1762   -4.3124  -14.8639 C   0  0  0  0  0  0  0  0  0  0  0  0
   21.6382   -3.0750  -15.1068 O   0  0  0  0  0  0  0  0  0  0  0  0
   23.1865   -4.6945  -15.4753 O   0  0  0  0  0  0  0  0  0  0  0  0
  1  2  1  0
  2  4  1  0
  3  2  2  0
  4  5  1  0
  5  6  1  0
  6  8  1  0
  6  7  1  1
  8  9  2  0
 11 10  1  6
 11 12  1  0
 11 13  1  0
 13 15  1  0
 13 14  1  6
 14  8  1  0
 15 19  1  0
 15 16  2  0
 18 17  1  1
 18 20  1  0
 19 18  1  0
 20 22  2  0
 20 21  1  0
M  END
$$$$
