QTA.pdb
     RDKit          3D

 22 21  0  0  1  0  0  0  0  0999 V2000
   15.3739  -10.2660  -15.0234 N   0  0  0  0  0  0  0  0  0  0  0  0
   15.6141  -11.6097  -14.5815 C   0  0  0  0  0  0  0  0  0  0  0  0
   14.6261  -12.2727  -14.2211 O   0  0  0  0  0  0  0  0  0  0  0  0
   16.9528  -12.2000  -14.5475 C   0  0  0  0  0  0  0  0  0  0  0  0
   18.0699  -11.2899  -14.9029 C   0  0  0  0  0  0  0  0  0  0  0  0
   18.2223  -11.1036  -16.3835 C   0  0  2  0  0  0  0  0  0  0  0  0
   18.7342  -12.3320  -17.0111 N   0  0  0  0  0  0  0  0  0  0  0  0
   19.1932  -10.0079  -16.6581 C   0  0  0  0  0  0  0  0  0  0  0  0
   20.4331  -10.2069  -16.7202 O   0  0  0  0  0  0  0  0  0  0  0  0
   19.4870   -5.4560  -18.5386 C   0  0  0  0  0  0  0  0  0  0  0  0
   18.8584   -6.7755  -18.1938 C   0  0  1  0  0  0  0  0  0  0  0  0
   18.9449   -7.5452  -19.3840 O   0  0  0  0  0  0  0  0  0  0  0  0
   19.6347   -7.5790  -17.1704 C   0  0  2  0  0  0  0  0  0  0  0  0
   18.7255   -8.7061  -16.8563 N   0  0  0  0  0  0  0  0  0  0  0  0
   19.8401   -6.8831  -15.8905 C   0  0  0  0  0  0  0  0  0  0  0  0
   18.8753   -6.6284  -15.0886 O   0  0  0  0  0  0  0  0  0  0  0  0
   22.9756   -5.8013  -14.0555 C   0  0  0  0  0  0  0  0  0  0  0  0
   21.4932   -5.7840  -14.3022 C   0  0  2  0  0  0  0  0  0  0  0  0
   21.1393   -6.4731  -15.5117 N   0  0  0  0  0  0  0  0  0  0  0  0
   20.9093   -4.4118  -14.2286 C   0  0  0  0  0  0  0  0  0  0  0  0
   20.4463   -3.9394  -13.0278 O   0  0  0  0  0  0  0  0  0  0  0  0
   20.8494   -3.7099  -15.2505 O   0  0  0  0  0  0  0  0  0  0  0  0
  1  2  1  0
  2  4  1  0
  3  2  2  0
  4  5  1  0
  5  6  1  0
  6  8  1  0
  6  7  1  6
  8  9  2  0
 11 10  1  6
 11 12  1  0
 11 13  1  0
 13 15  1  0
 13 14  1  1
 14  8  1  0
 15 19  1  0
 15 16  2  0
 18 17  1  6
 18 20  1  0
 19 18  1  0
 20 22  2  0
 20 21  1  0
M  END
$$$$
