QTA.pdb
     RDKit          3D

 22 21  0  0  1  0  0  0  0  0999 V2000
-84745.0938163177.1875-30337.4082 N   0  0  0  0  0  0  0  0  0  0  0  0
-84743.8438163177.7969-30337.1484 C   0  0  0  0  0  0  0  0  0  0  0  0
-84743.6484163178.4062-30336.0742 O   0  0  0  0  0  0  0  0  0  0  0  0
-84742.6797163177.7031-30338.0898 C   0  0  0  0  0  0  0  0  0  0  0  0
-84741.3594163177.7969-30337.4473 C   0  0  0  0  0  0  0  0  0  0  0  0
-84741.2578163179.0000-30336.5234 C   0  0  2  0  0  0  0  0  0  0  0  0
-84741.2812163180.2188-30337.2441 N   0  0  0  0  0  0  0  0  0  0  0  0
-84739.9062163178.8438-30335.8242 C   0  0  0  0  0  0  0  0  0  0  0  0
-84739.1875163179.9062-30335.6602 O   0  0  0  0  0  0  0  0  0  0  0  0
-84737.7031163175.7500-30333.7773 C   0  0  0  0  0  0  0  0  0  0  0  0
-84739.1641163176.0312-30333.6484 C   0  0  1  0  0  0  0  0  0  0  0  0
-84739.3984163175.7031-30332.2988 O   0  0  0  0  0  0  0  0  0  0  0  0
-84739.5000163177.4688-30333.8105 C   0  0  2  0  0  0  0  0  0  0  0  0
-84739.4844163177.6406-30335.2793 N   0  0  0  0  0  0  0  0  0  0  0  0
-84738.4844163178.4375-30333.2363 C   0  0  0  0  0  0  0  0  0  0  0  0
-84737.5234163178.7812-30333.8965 O   0  0  0  0  0  0  0  0  0  0  0  0
-84738.2344163180.1250-30329.8516 C   0  0  0  0  0  0  0  0  0  0  0  0
-84737.7500163179.7188-30331.2188 C   0  0  2  0  0  0  0  0  0  0  0  0
-84738.6797163178.9375-30331.9492 N   0  0  0  0  0  0  0  0  0  0  0  0
-84736.3828163179.0938-30331.1406 C   0  0  0  0  0  0  0  0  0  0  0  0
-84735.2734163179.7656-30331.3281 O   0  0  0  0  0  0  0  0  0  0  0  0
-84736.2500163177.7188-30331.0137 O   0  0  0  0  0  0  0  0  0  0  0  0
  1  2  1  0
  2  4  1  0
  3  2  2  0
  4  5  1  0
  5  6  1  0
  6  8  1  0
  6  7  1  6
  8  9  2  0
 11 10  1  1
 11 12  1  0
 11 13  1  0
 13 15  1  0
 13 14  1  6
 14  8  1  0
 15 19  1  0
 15 16  2  0
 18 17  1  1
 18 20  1  0
 19 18  1  0
 20 22  2  0
 20 21  1  0
M  END
$$$$
