QTA.pdb
     RDKit          3D

 22 21  0  0  1  0  0  0  0  0999 V2000
   15.0598   -8.8926  -18.3441 N   0  0  0  0  0  0  0  0  0  0  0  0
   15.5060  -10.2404  -18.5507 C   0  0  0  0  0  0  0  0  0  0  0  0
   14.8277  -10.9513  -19.3124 O   0  0  0  0  0  0  0  0  0  0  0  0
   16.7042  -10.7806  -17.9072 C   0  0  0  0  0  0  0  0  0  0  0  0
   17.4244   -9.8532  -16.9995 C   0  0  0  0  0  0  0  0  0  0  0  0
   18.6125  -10.4881  -16.3395 C   0  0  2  0  0  0  0  0  0  0  0  0
   18.2694  -11.8242  -15.8277 N   0  0  0  0  0  0  0  0  0  0  0  0
   19.0567   -9.6546  -15.1878 C   0  0  0  0  0  0  0  0  0  0  0  0
   18.4577   -9.6597  -14.0823 O   0  0  0  0  0  0  0  0  0  0  0  0
   21.5207  -10.1897  -13.1251 C   0  0  0  0  0  0  0  0  0  0  0  0
   21.9006   -8.8655  -13.7228 C   0  0  1  0  0  0  0  0  0  0  0  0
   22.6019   -9.1887  -14.9145 O   0  0  0  0  0  0  0  0  0  0  0  0
   20.7200   -8.0411  -14.1943 C   0  0  2  0  0  0  0  0  0  0  0  0
   20.1778   -8.8317  -15.3243 N   0  0  0  0  0  0  0  0  0  0  0  0
   21.0893   -6.7417  -14.7770 C   0  0  0  0  0  0  0  0  0  0  0  0
   21.8325   -6.6444  -15.8148 O   0  0  0  0  0  0  0  0  0  0  0  0
   19.9778   -3.1985  -14.0295 C   0  0  0  0  0  0  0  0  0  0  0  0
   20.9185   -4.2098  -14.6220 C   0  0  2  0  0  0  0  0  0  0  0  0
   20.6179   -5.5457  -14.1881 N   0  0  0  0  0  0  0  0  0  0  0  0
   22.3544   -3.8498  -14.4272 C   0  0  0  0  0  0  0  0  0  0  0  0
   22.9790   -3.0469  -15.3462 O   0  0  0  0  0  0  0  0  0  0  0  0
   22.9696   -4.2762  -13.4371 O   0  0  0  0  0  0  0  0  0  0  0  0
  1  2  1  0
  2  4  1  0
  3  2  2  0
  4  5  1  0
  5  6  1  0
  6  8  1  0
  6  7  1  1
  8  9  2  0
 11 10  1  6
 11 12  1  0
 11 13  1  0
 13 15  1  0
 13 14  1  6
 14  8  1  0
 15 19  1  0
 15 16  2  0
 18 17  1  1
 18 20  1  0
 19 18  1  0
 20 22  2  0
 20 21  1  0
M  END
$$$$
