QTA.pdb
     RDKit          3D

 22 21  0  0  1  0  0  0  0  0999 V2000
   14.5615   -8.6152  -14.3350 N   0  0  0  0  0  0  0  0  0  0  0  0
   14.3277   -9.7504  -15.1807 C   0  0  0  0  0  0  0  0  0  0  0  0
   13.1440  -10.0738  -15.3805 O   0  0  0  0  0  0  0  0  0  0  0  0
   15.4158  -10.5118  -15.7955 C   0  0  0  0  0  0  0  0  0  0  0  0
   16.7898  -10.0772  -15.4408 C   0  0  0  0  0  0  0  0  0  0  0  0
   17.8511  -10.8363  -16.1807 C   0  0  2  0  0  0  0  0  0  0  0  0
   17.8153  -12.2626  -15.8209 N   0  0  0  0  0  0  0  0  0  0  0  0
   19.1957  -10.3053  -15.8223 C   0  0  0  0  0  0  0  0  0  0  0  0
   19.8778  -10.7806  -14.8790 O   0  0  0  0  0  0  0  0  0  0  0  0
   23.0266   -7.8346  -17.6247 C   0  0  0  0  0  0  0  0  0  0  0  0
   21.7112   -8.5591  -17.6260 C   0  0  1  0  0  0  0  0  0  0  0  0
   22.0293   -9.8962  -17.9832 O   0  0  0  0  0  0  0  0  0  0  0  0
   21.0724   -8.6785  -16.2573 C   0  0  2  0  0  0  0  0  0  0  0  0
   19.7331   -9.2406  -16.5507 N   0  0  0  0  0  0  0  0  0  0  0  0
   20.8118   -7.3877  -15.6013 C   0  0  0  0  0  0  0  0  0  0  0  0
   20.0264   -6.5113  -16.1051 O   0  0  0  0  0  0  0  0  0  0  0  0
   21.9320   -5.9529  -12.2679 C   0  0  0  0  0  0  0  0  0  0  0  0
   21.3080   -5.8586  -13.6318 C   0  0  2  0  0  0  0  0  0  0  0  0
   21.4385   -7.0832  -14.3709 N   0  0  0  0  0  0  0  0  0  0  0  0
   21.7753   -4.6679  -14.4021 C   0  0  0  0  0  0  0  0  0  0  0  0
   21.1839   -3.4501  -14.1858 O   0  0  0  0  0  0  0  0  0  0  0  0
   22.6941   -4.7876  -15.2279 O   0  0  0  0  0  0  0  0  0  0  0  0
  1  2  1  0
  2  4  1  0
  3  2  2  0
  4  5  1  0
  5  6  1  0
  6  8  1  0
  6  7  1  1
  8  9  2  0
 11 10  1  1
 11 12  1  0
 11 13  1  0
 13 15  1  0
 13 14  1  6
 14  8  1  0
 15 19  1  0
 15 16  2  0
 18 17  1  1
 18 20  1  0
 19 18  1  0
 20 22  2  0
 20 21  1  0
M  END
$$$$
