QTA.pdb
     RDKit          3D

 22 21  0  0  1  0  0  0  0  0999 V2000
   27.0039  -19.0340  -18.3627 N   0  0  0  0  0  0  0  0  0  0  0  0
   27.9577  -18.2042  -17.6842 C   0  0  0  0  0  0  0  0  0  0  0  0
   28.7108  -17.5123  -18.3911 O   0  0  0  0  0  0  0  0  0  0  0  0
   28.0606  -18.1538  -16.2253 C   0  0  0  0  0  0  0  0  0  0  0  0
   26.9837  -18.8487  -15.4768 C   0  0  0  0  0  0  0  0  0  0  0  0
   27.4715  -20.0655  -14.7479 C   0  0  2  0  0  0  0  0  0  0  0  0
   28.3504  -20.8701  -15.6111 N   0  0  0  0  0  0  0  0  0  0  0  0
   26.3142  -20.9150  -14.3508 C   0  0  0  0  0  0  0  0  0  0  0  0
   26.1190  -22.0575  -14.8381 O   0  0  0  0  0  0  0  0  0  0  0  0
   25.9916  -21.5453  -10.8635 C   0  0  0  0  0  0  0  0  0  0  0  0
   24.6119  -21.1502  -11.3054 C   0  0  1  0  0  0  0  0  0  0  0  0
   24.5445  -19.7485  -11.0879 O   0  0  0  0  0  0  0  0  0  0  0  0
   24.3717  -21.3109  -12.7927 C   0  0  2  0  0  0  0  0  0  0  0  0
   25.4032  -20.4398  -13.4037 N   0  0  0  0  0  0  0  0  0  0  0  0
   23.0859  -20.7665  -13.2559 C   0  0  0  0  0  0  0  0  0  0  0  0
   22.8245  -19.5136  -13.2284 O   0  0  0  0  0  0  0  0  0  0  0  0
   20.0650  -22.3744  -14.8946 C   0  0  0  0  0  0  0  0  0  0  0  0
   20.7599  -21.2685  -14.1511 C   0  0  2  0  0  0  0  0  0  0  0  0
   22.0898  -21.6380  -13.7536 N   0  0  0  0  0  0  0  0  0  0  0  0
   19.9480  -20.7318  -13.0187 C   0  0  0  0  0  0  0  0  0  0  0  0
   20.2662  -21.0863  -11.7333 O   0  0  0  0  0  0  0  0  0  0  0  0
   18.9958  -19.9694  -13.2479 O   0  0  0  0  0  0  0  0  0  0  0  0
  1  2  1  0
  2  4  1  0
  3  2  2  0
  4  5  1  0
  5  6  1  0
  6  8  1  0
  6  7  1  6
  8  9  2  0
 11 10  1  6
 11 12  1  0
 11 13  1  0
 13 15  1  0
 13 14  1  6
 14  8  1  0
 15 19  1  0
 15 16  2  0
 18 17  1  1
 18 20  1  0
 19 18  1  0
 20 22  2  0
 20 21  1  0
M  END
$$$$
