QTA.pdb
     RDKit          3D

 22 21  0  0  1  0  0  0  0  0999 V2000
   21.9645  -16.4566  -14.5803 N   0  0  0  0  0  0  0  0  0  0  0  0
   21.5069  -17.5305  -15.4143 C   0  0  0  0  0  0  0  0  0  0  0  0
   21.5416  -18.6762  -14.9328 O   0  0  0  0  0  0  0  0  0  0  0  0
   21.0143  -17.3155  -16.7755 C   0  0  0  0  0  0  0  0  0  0  0  0
   20.9655  -15.9035  -17.2298 C   0  0  0  0  0  0  0  0  0  0  0  0
   19.6511  -15.2419  -16.9385 C   0  0  2  0  0  0  0  0  0  0  0  0
   18.5418  -16.0116  -17.5232 N   0  0  0  0  0  0  0  0  0  0  0  0
   19.6285  -13.8773  -17.5350 C   0  0  0  0  0  0  0  0  0  0  0  0
   19.7013  -13.6833  -18.7751 O   0  0  0  0  0  0  0  0  0  0  0  0
   17.2937  -11.1750  -15.8602 C   0  0  0  0  0  0  0  0  0  0  0  0
   17.9153  -11.1271  -17.2263 C   0  0  1  0  0  0  0  0  0  0  0  0
   17.7895   -9.7743  -17.6393 O   0  0  0  0  0  0  0  0  0  0  0  0
   19.4086  -11.3838  -17.2330 C   0  0  2  0  0  0  0  0  0  0  0  0
   19.5231  -12.7617  -16.7000 N   0  0  0  0  0  0  0  0  0  0  0  0
   20.1666  -10.5440  -16.2925 C   0  0  0  0  0  0  0  0  0  0  0  0
   20.1838  -10.7727  -15.0331 O   0  0  0  0  0  0  0  0  0  0  0  0
   22.3146   -7.4493  -16.8160 C   0  0  0  0  0  0  0  0  0  0  0  0
   21.6350   -8.4930  -15.9750 C   0  0  2  0  0  0  0  0  0  0  0  0
   20.9101   -9.4416  -16.7736 N   0  0  0  0  0  0  0  0  0  0  0  0
   20.8047   -7.9061  -14.8816 C   0  0  0  0  0  0  0  0  0  0  0  0
   21.3709   -7.6752  -13.6546 O   0  0  0  0  0  0  0  0  0  0  0  0
   19.6129   -7.6300  -15.0909 O   0  0  0  0  0  0  0  0  0  0  0  0
  1  2  1  0
  2  4  1  0
  3  2  2  0
  4  5  1  0
  5  6  1  0
  6  8  1  0
  6  7  1  6
  8  9  2  0
 11 10  1  1
 11 12  1  0
 11 13  1  0
 13 15  1  0
 13 14  1  1
 14  8  1  0
 15 19  1  0
 15 16  2  0
 18 17  1  6
 18 20  1  0
 19 18  1  0
 20 22  2  0
 20 21  1  0
M  END
$$$$
