QTA.pdb
     RDKit          3D

 22 21  0  0  1  0  0  0  0  0999 V2000
   21.2783  -13.9268  -15.8992 N   0  0  0  0  0  0  0  0  0  0  0  0
   20.1353  -14.4536  -16.5880 C   0  0  0  0  0  0  0  0  0  0  0  0
   19.7986  -15.6195  -16.3178 O   0  0  0  0  0  0  0  0  0  0  0  0
   19.3793  -13.6747  -17.5695 C   0  0  0  0  0  0  0  0  0  0  0  0
   19.8126  -12.2667  -17.7498 C   0  0  0  0  0  0  0  0  0  0  0  0
   18.6805  -11.2890  -17.6381 C   0  0  2  0  0  0  0  0  0  0  0  0
   17.5579  -11.6945  -18.4985 N   0  0  0  0  0  0  0  0  0  0  0  0
   19.1325   -9.9395  -18.0775 C   0  0  0  0  0  0  0  0  0  0  0  0
   19.2073   -9.6162  -19.2903 O   0  0  0  0  0  0  0  0  0  0  0  0
   17.7719   -7.3976  -18.8593 C   0  0  0  0  0  0  0  0  0  0  0  0
   18.5619   -6.8998  -17.6832 C   0  0  1  0  0  0  0  0  0  0  0  0
   17.7961   -7.2671  -16.5451 O   0  0  0  0  0  0  0  0  0  0  0  0
   19.8874   -7.6073  -17.4875 C   0  0  2  0  0  0  0  0  0  0  0  0
   19.4900   -8.9866  -17.1198 N   0  0  0  0  0  0  0  0  0  0  0  0
   20.6681   -7.1143  -16.3422 C   0  0  0  0  0  0  0  0  0  0  0  0
   20.2538   -7.2217  -15.1357 O   0  0  0  0  0  0  0  0  0  0  0  0
   24.1059   -5.5016  -16.1287 C   0  0  0  0  0  0  0  0  0  0  0  0
   22.8671   -6.1193  -15.5435 C   0  0  2  0  0  0  0  0  0  0  0  0
   21.9225   -6.4981  -16.5571 N   0  0  0  0  0  0  0  0  0  0  0  0
   22.2548   -5.2834  -14.4684 C   0  0  0  0  0  0  0  0  0  0  0  0
   21.1812   -4.4841  -14.7647 O   0  0  0  0  0  0  0  0  0  0  0  0
   22.7187   -5.3195  -13.3178 O   0  0  0  0  0  0  0  0  0  0  0  0
  1  2  1  0
  2  4  1  0
  3  2  2  0
  4  5  1  0
  5  6  1  0
  6  8  1  0
  6  7  1  6
  8  9  2  0
 11 10  1  6
 11 12  1  0
 11 13  1  0
 13 15  1  0
 13 14  1  1
 14  8  1  0
 15 19  1  0
 15 16  2  0
 18 17  1  6
 18 20  1  0
 19 18  1  0
 20 22  2  0
 20 21  1  0
M  END
$$$$
