QTA.pdb
     RDKit          3D

 22 21  0  0  1  0  0  0  0  0999 V2000
   17.8205  -12.6595  -14.7141 N   0  0  0  0  0  0  0  0  0  0  0  0
   16.4023  -12.4756  -14.5987 C   0  0  0  0  0  0  0  0  0  0  0  0
   15.7470  -13.4137  -14.1124 O   0  0  0  0  0  0  0  0  0  0  0  0
   15.7301  -11.2477  -15.0255 C   0  0  0  0  0  0  0  0  0  0  0  0
   16.6179  -10.1522  -15.4884 C   0  0  0  0  0  0  0  0  0  0  0  0
   15.8765   -8.8778  -15.7647 C   0  0  2  0  0  0  0  0  0  0  0  0
   14.9891   -9.0354  -16.9278 N   0  0  0  0  0  0  0  0  0  0  0  0
   16.8430   -7.7860  -16.0684 C   0  0  0  0  0  0  0  0  0  0  0  0
   17.3700   -7.6492  -17.2018 O   0  0  0  0  0  0  0  0  0  0  0  0
   18.0783   -3.2489  -14.9039 C   0  0  0  0  0  0  0  0  0  0  0  0
   17.2883   -4.5242  -14.9705 C   0  0  1  0  0  0  0  0  0  0  0  0
   16.4228   -4.3617  -16.0846 O   0  0  0  0  0  0  0  0  0  0  0  0
   18.1171   -5.7450  -15.3145 C   0  0  2  0  0  0  0  0  0  0  0  0
   17.1874   -6.8723  -15.0686 N   0  0  0  0  0  0  0  0  0  0  0  0
   19.2507   -5.9769  -14.4060 C   0  0  0  0  0  0  0  0  0  0  0  0
   19.0968   -6.1155  -13.1427 O   0  0  0  0  0  0  0  0  0  0  0  0
   22.9649   -6.4662  -15.0295 C   0  0  0  0  0  0  0  0  0  0  0  0
   21.7716   -6.1931  -14.1577 C   0  0  2  0  0  0  0  0  0  0  0  0
   20.5643   -6.0542  -14.9234 N   0  0  0  0  0  0  0  0  0  0  0  0
   21.9905   -5.0560  -13.2151 C   0  0  0  0  0  0  0  0  0  0  0  0
   22.6141   -5.2847  -12.0158 O   0  0  0  0  0  0  0  0  0  0  0  0
   21.6100   -3.9156  -13.5234 O   0  0  0  0  0  0  0  0  0  0  0  0
  1  2  1  0
  2  4  1  0
  3  2  2  0
  4  5  1  0
  5  6  1  0
  6  8  1  0
  6  7  1  6
  8  9  2  0
 11 10  1  6
 11 12  1  0
 11 13  1  0
 13 15  1  0
 13 14  1  1
 14  8  1  0
 15 19  1  0
 15 16  2  0
 18 17  1  6
 18 20  1  0
 19 18  1  0
 20 22  2  0
 20 21  1  0
M  END
$$$$
