MED.pdb
     RDKit          3D

 26 25  0  0  1  0  0  0  0  0999 V2000
    7.7502  -11.4285   27.2704 C   0  0  0  0  0  0  0  0  0  0  0  0
    6.4896  -12.4896   26.5021 S   0  0  0  0  0  0  0  0  0  0  0  0
    7.2689  -13.4547   25.2239 C   0  0  0  0  0  0  0  0  0  0  0  0
    6.4143  -14.3676   24.4423 C   0  0  0  0  0  0  0  0  0  0  0  0
    6.9973  -15.1352   23.3196 C   0  0  2  0  0  0  0  0  0  0  0  0
    5.8564  -15.9423   22.7921 N   0  0  0  0  0  0  0  0  0  0  0  0
    8.0899  -16.0399   23.7109 C   0  0  0  0  0  0  0  0  0  0  0  0
    7.9355  -17.0432   24.4420 O   0  0  0  0  0  0  0  0  0  0  0  0
    9.4476  -15.8258   23.2668 N   0  0  0  0  0  0  0  0  0  0  0  0
   10.5243  -16.7502   23.6242 C   0  0  1  0  0  0  0  0  0  0  0  0
   11.6860  -16.3871   22.7431 C   0  0  0  0  0  0  0  0  0  0  0  0
   12.9577  -17.1012   23.0400 C   0  0  0  0  0  0  0  0  0  0  0  0
   14.0060  -16.6230   22.1033 C   0  0  0  0  0  0  0  0  0  0  0  0
   14.9596  -15.8974   22.4888 O   0  0  0  0  0  0  0  0  0  0  0  0
   10.8095  -16.7090   25.0631 C   0  0  0  0  0  0  0  0  0  0  0  0
   11.1800  -15.6364   25.5771 O   0  0  0  0  0  0  0  0  0  0  0  0
   13.9545  -16.9717   20.7643 O   0  0  0  0  0  0  0  0  0  0  0  0
   10.6715  -17.8605   25.8711 N   0  0  0  0  0  0  0  0  0  0  0  0
   11.0145  -17.9367   27.2817 C   0  0  1  0  0  0  0  0  0  0  0  0
    9.8640  -18.3996   28.1117 C   0  0  0  0  0  0  0  0  0  0  0  0
    9.3527  -19.7325   27.8177 C   0  0  0  0  0  0  0  0  0  0  0  0
    9.3300  -20.7130   28.6115 O   0  0  0  0  0  0  0  0  0  0  0  0
   12.2802  -18.6315   27.5468 C   0  0  0  0  0  0  0  0  0  0  0  0
   12.9490  -19.2555   26.5151 O   0  0  0  0  0  0  0  0  0  0  0  0
    8.8220  -20.0076   26.5415 O   0  0  0  0  0  0  0  0  0  0  0  0
   12.7627  -18.6687   28.6910 O   0  0  0  0  0  0  0  0  0  0  0  0
  2  1  1  0
  3  4  1  0
  3  2  1  0
  4  5  1  0
  5  7  1  0
  5  6  1  1
  7  8  2  0
  9  7  1  0
 10  9  1  0
 10 11  1  6
 11 12  1  0
 12 13  1  0
 13 14  2  0
 13 17  1  0
 15 10  1  0
 16 15  2  0
 18 15  1  0
 19 20  1  1
 19 18  1  0
 20 21  1  0
 21 22  2  0
 21 25  1  0
 23 19  1  0
 24 23  1  0
 26 23  2  0
M  END
$$$$
