MED.pdb
     RDKit          3D

 26 25  0  0  1  0  0  0  0  0999 V2000
    7.2530  -11.0487   25.8137 C   0  0  0  0  0  0  0  0  0  0  0  0
    6.7545  -12.2539   27.0803 S   0  0  0  0  0  0  0  0  0  0  0  0
    6.1186  -13.7017   26.2605 C   0  0  0  0  0  0  0  0  0  0  0  0
    7.0658  -14.7960   25.9773 C   0  0  0  0  0  0  0  0  0  0  0  0
    6.7989  -15.7237   24.8558 C   0  0  2  0  0  0  0  0  0  0  0  0
    5.5462  -16.4334   25.2537 N   0  0  0  0  0  0  0  0  0  0  0  0
    7.8634  -16.7133   24.6256 C   0  0  0  0  0  0  0  0  0  0  0  0
    8.1025  -17.6709   25.3943 O   0  0  0  0  0  0  0  0  0  0  0  0
    8.7252  -16.6446   23.4685 N   0  0  0  0  0  0  0  0  0  0  0  0
    9.8441  -17.5712   23.2918 C   0  0  1  0  0  0  0  0  0  0  0  0
   10.2974  -17.4005   21.8695 C   0  0  0  0  0  0  0  0  0  0  0  0
   11.0607  -16.1537   21.5898 C   0  0  0  0  0  0  0  0  0  0  0  0
   11.4944  -16.1655   20.1696 C   0  0  0  0  0  0  0  0  0  0  0  0
   10.6772  -16.0110   19.2248 O   0  0  0  0  0  0  0  0  0  0  0  0
   10.8878  -17.3483   24.2990 C   0  0  0  0  0  0  0  0  0  0  0  0
   11.0094  -16.2167   24.8057 O   0  0  0  0  0  0  0  0  0  0  0  0
   12.8292  -16.3497   19.8511 O   0  0  0  0  0  0  0  0  0  0  0  0
   11.7530  -18.3911   24.7013 N   0  0  0  0  0  0  0  0  0  0  0  0
   12.1442  -18.6688   26.0736 C   0  0  1  0  0  0  0  0  0  0  0  0
   10.9666  -18.7307   26.9882 C   0  0  0  0  0  0  0  0  0  0  0  0
   11.2460  -19.0805   28.3753 C   0  0  0  0  0  0  0  0  0  0  0  0
   10.5303  -19.8067   29.1187 O   0  0  0  0  0  0  0  0  0  0  0  0
   13.0831  -19.7894   26.2067 C   0  0  0  0  0  0  0  0  0  0  0  0
   13.4637  -20.5015   25.0890 O   0  0  0  0  0  0  0  0  0  0  0  0
   12.4122  -18.5885   28.9950 O   0  0  0  0  0  0  0  0  0  0  0  0
   13.5434  -20.1108   27.3150 O   0  0  0  0  0  0  0  0  0  0  0  0
  2  1  1  0
  3  4  1  0
  3  2  1  0
  4  5  1  0
  5  7  1  0
  5  6  1  1
  7  8  2  0
  9  7  1  0
 10  9  1  0
 10 11  1  6
 11 12  1  0
 12 13  1  0
 13 14  2  0
 13 17  1  0
 15 10  1  0
 16 15  2  0
 18 15  1  0
 19 20  1  1
 19 18  1  0
 20 21  1  0
 21 22  2  0
 21 25  1  0
 23 19  1  0
 24 23  1  0
 26 23  2  0
M  END
$$$$
