MED.pdb
     RDKit          3D

 26 25  0  0  1  0  0  0  0  0999 V2000
    8.2000  -11.9788   21.9197 C   0  0  0  0  0  0  0  0  0  0  0  0
    7.1191  -12.1830   20.4721 S   0  0  0  0  0  0  0  0  0  0  0  0
    7.5417  -13.7136   19.6652 C   0  0  0  0  0  0  0  0  0  0  0  0
    8.2576  -14.7283   20.4605 C   0  0  0  0  0  0  0  0  0  0  0  0
    8.6831  -15.9933   19.8214 C   0  0  2  0  0  0  0  0  0  0  0  0
    7.4050  -16.6456   19.4064 N   0  0  0  0  0  0  0  0  0  0  0  0
    9.4221  -16.9008   20.7135 C   0  0  0  0  0  0  0  0  0  0  0  0
    8.8746  -17.7408   21.4616 O   0  0  0  0  0  0  0  0  0  0  0  0
   10.8645  -16.8829   20.7878 N   0  0  0  0  0  0  0  0  0  0  0  0
   11.5973  -17.8043   21.6570 C   0  0  1  0  0  0  0  0  0  0  0  0
   13.0495  -17.6210   21.3175 C   0  0  0  0  0  0  0  0  0  0  0  0
   14.0024  -18.3980   22.1563 C   0  0  0  0  0  0  0  0  0  0  0  0
   15.3839  -18.1398   21.6768 C   0  0  0  0  0  0  0  0  0  0  0  0
   15.9029  -18.8176   20.7517 O   0  0  0  0  0  0  0  0  0  0  0  0
   11.2655  -17.5858   23.0696 C   0  0  0  0  0  0  0  0  0  0  0  0
   11.2178  -16.4205   23.5078 O   0  0  0  0  0  0  0  0  0  0  0  0
   16.1415  -17.1312   22.2476 O   0  0  0  0  0  0  0  0  0  0  0  0
   11.0006  -18.6701   23.9367 N   0  0  0  0  0  0  0  0  0  0  0  0
   10.7197  -18.5532   25.3583 C   0  0  1  0  0  0  0  0  0  0  0  0
    9.4897  -19.3032   25.7478 C   0  0  0  0  0  0  0  0  0  0  0  0
    9.6984  -20.6140   26.3501 C   0  0  0  0  0  0  0  0  0  0  0  0
    9.3259  -20.9721   27.5013 O   0  0  0  0  0  0  0  0  0  0  0  0
   11.8858  -18.8011   26.2149 C   0  0  0  0  0  0  0  0  0  0  0  0
   11.7839  -18.6274   27.5789 O   0  0  0  0  0  0  0  0  0  0  0  0
   10.3745  -21.6138   25.6226 O   0  0  0  0  0  0  0  0  0  0  0  0
   12.9699  -19.1663   25.7305 O   0  0  0  0  0  0  0  0  0  0  0  0
  2  1  1  0
  3  4  1  0
  3  2  1  0
  4  5  1  0
  5  7  1  0
  5  6  1  1
  7  8  2  0
  9  7  1  0
 10  9  1  0
 10 11  1  1
 11 12  1  0
 12 13  1  0
 13 14  2  0
 13 17  1  0
 15 10  1  0
 16 15  2  0
 18 15  1  0
 19 20  1  1
 19 18  1  0
 20 21  1  0
 21 22  2  0
 21 25  1  0
 23 19  1  0
 24 23  1  0
 26 23  2  0
M  END
$$$$
