MED.pdb
     RDKit          3D

 26 25  0  0  1  0  0  0  0  0999 V2000
    7.7576  -12.1259   20.0472 C   0  0  0  0  0  0  0  0  0  0  0  0
    7.3225  -12.9338   21.6168 S   0  0  0  0  0  0  0  0  0  0  0  0
    7.6841  -14.6721   21.4745 C   0  0  0  0  0  0  0  0  0  0  0  0
    7.6136  -15.2752   20.1306 C   0  0  0  0  0  0  0  0  0  0  0  0
    7.8077  -16.7335   19.9712 C   0  0  2  0  0  0  0  0  0  0  0  0
    6.6835  -17.3423   20.7437 N   0  0  0  0  0  0  0  0  0  0  0  0
    9.0859  -17.2331   20.5019 C   0  0  0  0  0  0  0  0  0  0  0  0
    9.2384  -17.6536   21.6702 O   0  0  0  0  0  0  0  0  0  0  0  0
   10.2802  -17.2731   19.6904 N   0  0  0  0  0  0  0  0  0  0  0  0
   11.5391  -17.8106   20.2078 C   0  0  1  0  0  0  0  0  0  0  0  0
   12.4163  -18.0284   19.0075 C   0  0  0  0  0  0  0  0  0  0  0  0
   13.7599  -18.6000   19.2961 C   0  0  0  0  0  0  0  0  0  0  0  0
   14.5322  -18.6726   18.0298 C   0  0  0  0  0  0  0  0  0  0  0  0
   15.4040  -17.8143   17.7340 O   0  0  0  0  0  0  0  0  0  0  0  0
   12.1129  -16.9345   21.2358 C   0  0  0  0  0  0  0  0  0  0  0  0
   12.0578  -15.6998   21.0795 O   0  0  0  0  0  0  0  0  0  0  0  0
   14.3046  -19.7036   17.1341 O   0  0  0  0  0  0  0  0  0  0  0  0
   12.7240  -17.4660   22.3942 N   0  0  0  0  0  0  0  0  0  0  0  0
   13.4369  -16.6878   23.3940 C   0  0  1  0  0  0  0  0  0  0  0  0
   13.3069  -17.2785   24.7582 C   0  0  0  0  0  0  0  0  0  0  0  0
   11.9482  -17.4777   25.2470 C   0  0  0  0  0  0  0  0  0  0  0  0
   11.0162  -16.6275   25.2226 O   0  0  0  0  0  0  0  0  0  0  0  0
   14.8089  -16.3390   23.0053 C   0  0  0  0  0  0  0  0  0  0  0  0
   15.5233  -15.4284   23.7548 O   0  0  0  0  0  0  0  0  0  0  0  0
   11.5867  -18.7180   25.8100 O   0  0  0  0  0  0  0  0  0  0  0  0
   15.3415  -16.8516   22.0069 O   0  0  0  0  0  0  0  0  0  0  0  0
  2  1  1  0
  3  4  1  0
  3  2  1  0
  4  5  1  0
  5  7  1  0
  5  6  1  1
  7  8  2  0
  9  7  1  0
 10  9  1  0
 10 11  1  6
 11 12  1  0
 12 13  1  0
 13 14  2  0
 13 17  1  0
 15 10  1  0
 16 15  2  0
 18 15  1  0
 19 20  1  1
 19 18  1  0
 20 21  1  0
 21 22  2  0
 21 25  1  0
 23 19  1  0
 24 23  1  0
 26 23  2  0
M  END
$$$$
