MED.pdb
     RDKit          3D

 26 25  0  0  1  0  0  0  0  0999 V2000
    8.4087  -12.1991   27.6031 C   0  0  0  0  0  0  0  0  0  0  0  0
    6.7938  -12.1269   26.7710 S   0  0  0  0  0  0  0  0  0  0  0  0
    6.2760  -13.7905   26.4011 C   0  0  0  0  0  0  0  0  0  0  0  0
    7.2929  -14.7195   25.8741 C   0  0  0  0  0  0  0  0  0  0  0  0
    6.9634  -15.5902   24.7239 C   0  0  2  0  0  0  0  0  0  0  0  0
    5.8200  -16.4218   25.2057 N   0  0  0  0  0  0  0  0  0  0  0  0
    8.0616  -16.4746   24.3031 C   0  0  0  0  0  0  0  0  0  0  0  0
    8.3836  -17.5215   24.9077 O   0  0  0  0  0  0  0  0  0  0  0  0
    8.8616  -16.1874   23.1353 N   0  0  0  0  0  0  0  0  0  0  0  0
    9.8924  -17.1146   22.6671 C   0  0  1  0  0  0  0  0  0  0  0  0
    9.9126  -16.9838   21.1704 C   0  0  0  0  0  0  0  0  0  0  0  0
   10.8476  -17.9012   20.4637 C   0  0  0  0  0  0  0  0  0  0  0  0
   10.6674  -17.7346   18.9992 C   0  0  0  0  0  0  0  0  0  0  0  0
    9.5443  -17.8749   18.4484 O   0  0  0  0  0  0  0  0  0  0  0  0
   11.1803  -16.8586   23.3225 C   0  0  0  0  0  0  0  0  0  0  0  0
   12.2243  -16.8992   22.6439 O   0  0  0  0  0  0  0  0  0  0  0  0
   11.7498  -17.4160   18.1966 O   0  0  0  0  0  0  0  0  0  0  0  0
   11.2550  -16.5682   24.7037 N   0  0  0  0  0  0  0  0  0  0  0  0
   12.3928  -16.8644   25.5588 C   0  0  1  0  0  0  0  0  0  0  0  0
   13.5225  -15.9157   25.3332 C   0  0  0  0  0  0  0  0  0  0  0  0
   14.2675  -16.0850   24.0919 C   0  0  0  0  0  0  0  0  0  0  0  0
   14.8868  -15.1811   23.4660 O   0  0  0  0  0  0  0  0  0  0  0  0
   12.0371  -17.0696   26.9682 C   0  0  0  0  0  0  0  0  0  0  0  0
   12.4140  -18.2313   27.6083 O   0  0  0  0  0  0  0  0  0  0  0  0
   14.3356  -17.3575   23.4899 O   0  0  0  0  0  0  0  0  0  0  0  0
   11.3980  -16.2110   27.5987 O   0  0  0  0  0  0  0  0  0  0  0  0
  2  1  1  0
  3  4  1  0
  3  2  1  0
  4  5  1  0
  5  7  1  0
  5  6  1  1
  7  8  2  0
  9  7  1  0
 10  9  1  0
 10 11  1  6
 11 12  1  0
 12 13  1  0
 13 14  2  0
 13 17  1  0
 15 10  1  0
 16 15  2  0
 18 15  1  0
 19 20  1  1
 19 18  1  0
 20 21  1  0
 21 22  2  0
 21 25  1  0
 23 19  1  0
 24 23  1  0
 26 23  2  0
M  END
$$$$
