MED.pdb
     RDKit          3D

 26 25  0  0  1  0  0  0  0  0999 V2000
    7.2125  -12.6959   28.3046 C   0  0  0  0  0  0  0  0  0  0  0  0
    7.0876  -12.4819   26.5035 S   0  0  0  0  0  0  0  0  0  0  0  0
    6.9981  -14.0934   25.7499 C   0  0  0  0  0  0  0  0  0  0  0  0
    6.9178  -14.1543   24.2786 C   0  0  0  0  0  0  0  0  0  0  0  0
    6.8648  -15.4692   23.6019 C   0  0  2  0  0  0  0  0  0  0  0  0
    5.6623  -16.1365   24.1850 N   0  0  0  0  0  0  0  0  0  0  0  0
    8.0470  -16.3143   23.8331 C   0  0  0  0  0  0  0  0  0  0  0  0
    8.1070  -17.2031   24.7114 O   0  0  0  0  0  0  0  0  0  0  0  0
    9.2474  -16.1717   23.0425 N   0  0  0  0  0  0  0  0  0  0  0  0
   10.4222  -17.0123   23.2767 C   0  0  1  0  0  0  0  0  0  0  0  0
   11.3433  -16.7626   22.1162 C   0  0  0  0  0  0  0  0  0  0  0  0
   10.8831  -17.3069   20.8095 C   0  0  0  0  0  0  0  0  0  0  0  0
   11.9064  -17.0042   19.7769 C   0  0  0  0  0  0  0  0  0  0  0  0
   12.9113  -16.2890   20.0280 O   0  0  0  0  0  0  0  0  0  0  0  0
   11.0123  -16.7521   24.5949 C   0  0  0  0  0  0  0  0  0  0  0  0
   10.6239  -15.7654   25.2488 O   0  0  0  0  0  0  0  0  0  0  0  0
   11.7732  -17.5115   18.4955 O   0  0  0  0  0  0  0  0  0  0  0  0
   12.0090  -17.5983   25.1319 N   0  0  0  0  0  0  0  0  0  0  0  0
   12.1322  -17.9572   26.5353 C   0  0  1  0  0  0  0  0  0  0  0  0
   10.8350  -18.4212   27.1088 C   0  0  0  0  0  0  0  0  0  0  0  0
   10.8624  -18.8464   28.5028 C   0  0  0  0  0  0  0  0  0  0  0  0
   11.8857  -18.9260   29.2368 O   0  0  0  0  0  0  0  0  0  0  0  0
   13.2772  -18.8288   26.8254 C   0  0  0  0  0  0  0  0  0  0  0  0
   14.1218  -19.2136   25.8057 O   0  0  0  0  0  0  0  0  0  0  0  0
    9.6612  -19.2149   29.1410 O   0  0  0  0  0  0  0  0  0  0  0  0
   13.5005  -19.2295   27.9800 O   0  0  0  0  0  0  0  0  0  0  0  0
  2  1  1  0
  3  4  1  0
  3  2  1  0
  4  5  1  0
  5  7  1  0
  5  6  1  1
  7  8  2  0
  9  7  1  0
 10  9  1  0
 10 11  1  6
 11 12  1  0
 12 13  1  0
 13 14  2  0
 13 17  1  0
 15 10  1  0
 16 15  2  0
 18 15  1  0
 19 20  1  6
 19 18  1  0
 20 21  1  0
 21 22  2  0
 21 25  1  0
 23 19  1  0
 24 23  1  0
 26 23  2  0
M  END
$$$$
