MED.pdb
     RDKit          3D

 26 25  0  0  1  0  0  0  0  0999 V2000
    7.4619  -11.4802   20.4140 C   0  0  0  0  0  0  0  0  0  0  0  0
    6.8818  -13.0620   19.7309 S   0  0  0  0  0  0  0  0  0  0  0  0
    6.5795  -14.1820   21.0824 C   0  0  0  0  0  0  0  0  0  0  0  0
    7.6265  -15.1727   21.3940 C   0  0  0  0  0  0  0  0  0  0  0  0
    8.1498  -16.0472   20.3212 C   0  0  2  0  0  0  0  0  0  0  0  0
    7.0213  -16.9787   20.0207 N   0  0  0  0  0  0  0  0  0  0  0  0
    9.3345  -16.8306   20.7059 C   0  0  0  0  0  0  0  0  0  0  0  0
    9.5236  -17.2890   21.8545 O   0  0  0  0  0  0  0  0  0  0  0  0
   10.3848  -17.1308   19.7609 N   0  0  0  0  0  0  0  0  0  0  0  0
   11.5523  -17.9267   20.1419 C   0  0  1  0  0  0  0  0  0  0  0  0
   12.1614  -18.4040   18.8539 C   0  0  0  0  0  0  0  0  0  0  0  0
   13.4161  -19.1919   18.9965 C   0  0  0  0  0  0  0  0  0  0  0  0
   13.9325  -19.5201   17.6435 C   0  0  0  0  0  0  0  0  0  0  0  0
   14.1092  -18.6336   16.7675 O   0  0  0  0  0  0  0  0  0  0  0  0
   12.4617  -17.1638   21.0047 C   0  0  0  0  0  0  0  0  0  0  0  0
   12.6708  -15.9618   20.7524 O   0  0  0  0  0  0  0  0  0  0  0  0
   14.2351  -20.8302   17.3131 O   0  0  0  0  0  0  0  0  0  0  0  0
   13.1011  -17.7674   22.1114 N   0  0  0  0  0  0  0  0  0  0  0  0
   14.0414  -17.1014   22.9978 C   0  0  1  0  0  0  0  0  0  0  0  0
   13.8989  -17.5616   24.4102 C   0  0  0  0  0  0  0  0  0  0  0  0
   14.8437  -17.0016   25.3685 C   0  0  0  0  0  0  0  0  0  0  0  0
   15.7801  -16.1971   25.1075 O   0  0  0  0  0  0  0  0  0  0  0  0
   15.4203  -17.0855   22.4945 C   0  0  0  0  0  0  0  0  0  0  0  0
   16.0086  -18.2578   22.0692 O   0  0  0  0  0  0  0  0  0  0  0  0
   14.7483  -17.3584   26.7285 O   0  0  0  0  0  0  0  0  0  0  0  0
   16.0717  -16.0288   22.4451 O   0  0  0  0  0  0  0  0  0  0  0  0
  2  1  1  0
  3  4  1  0
  3  2  1  0
  4  5  1  0
  5  7  1  0
  5  6  1  1
  7  8  2  0
  9  7  1  0
 10  9  1  0
 10 11  1  6
 11 12  1  0
 12 13  1  0
 13 14  2  0
 13 17  1  0
 15 10  1  0
 16 15  2  0
 18 15  1  0
 19 20  1  1
 19 18  1  0
 20 21  1  0
 21 22  2  0
 21 25  1  0
 23 19  1  0
 24 23  1  0
 26 23  2  0
M  END
$$$$
