QMQ.pdb
     RDKit          3D

 27 26  0  0  1  0  0  0  0  0999 V2000
    8.9187  -12.7596   17.1215 N   0  0  0  0  0  0  0  0  0  0  0  0
    8.1223  -13.8909   16.8250 C   0  0  0  0  0  0  0  0  0  0  0  0
    7.4982  -13.9222   15.7444 O   0  0  0  0  0  0  0  0  0  0  0  0
    8.0617  -14.9734   17.7988 C   0  0  0  0  0  0  0  0  0  0  0  0
    8.8535  -14.7856   19.0511 C   0  0  0  0  0  0  0  0  0  0  0  0
    8.7400  -15.8569   20.0773 C   0  0  2  0  0  0  0  0  0  0  0  0
    7.5239  -16.6142   20.0197 N   0  0  0  0  0  0  0  0  0  0  0  0
    8.9927  -15.3445   21.4565 C   0  0  0  0  0  0  0  0  0  0  0  0
   10.1757  -14.9981   21.7709 O   0  0  0  0  0  0  0  0  0  0  0  0
    6.4378  -11.4856   27.6782 C   0  0  0  0  0  0  0  0  0  0  0  0
    5.9825  -12.3899   26.1879 S   0  0  0  0  0  0  0  0  0  0  0  0
    7.3782  -13.4244   25.6733 C   0  0  0  0  0  0  0  0  0  0  0  0
    7.0485  -14.0356   24.3258 C   0  0  0  0  0  0  0  0  0  0  0  0
    8.2833  -14.7673   23.7943 C   0  0  2  0  0  0  0  0  0  0  0  0
    8.0154  -15.2094   22.4581 N   0  0  0  0  0  0  0  0  0  0  0  0
    8.6149  -15.8229   24.7371 C   0  0  0  0  0  0  0  0  0  0  0  0
    7.8220  -16.7625   24.9333 O   0  0  0  0  0  0  0  0  0  0  0  0
   14.3763  -17.2660   25.3888 N   0  0  0  0  0  0  0  0  0  0  0  0
   13.6057  -18.3569   24.9269 C   0  0  0  0  0  0  0  0  0  0  0  0
   14.1449  -19.2811   24.3050 O   0  0  0  0  0  0  0  0  0  0  0  0
   12.1424  -18.3701   25.2024 C   0  0  0  0  0  0  0  0  0  0  0  0
   11.7871  -17.0937   25.9035 C   0  0  0  0  0  0  0  0  0  0  0  0
   10.3293  -16.9634   26.1921 C   0  0  2  0  0  0  0  0  0  0  0  0
    9.8376  -15.7907   25.4371 N   0  0  0  0  0  0  0  0  0  0  0  0
    9.9748  -16.8027   27.5946 C   0  0  0  0  0  0  0  0  0  0  0  0
   10.1612  -17.7358   28.4128 O   0  0  0  0  0  0  0  0  0  0  0  0
    9.4275  -15.6291   28.0701 O   0  0  0  0  0  0  0  0  0  0  0  0
  1  2  1  0
  2  3  2  0
  4  5  1  0
  4  2  1  0
  6  5  1  0
  6  7  1  1
  8  6  1  0
  9  8  2  0
 11 10  1  0
 12 11  1  0
 13 12  1  0
 14 13  1  1
 14 15  1  0
 15  8  1  0
 16 14  1  0
 16 24  1  0
 17 16  2  0
 19 21  1  0
 19 18  1  0
 20 19  2  0
 22 21  1  0
 23 22  1  1
 23 24  1  0
 23 25  1  0
 25 27  1  0
 26 25  2  0
M  END
$$$$
