QMQ.pdb
     RDKit          3D

 27 26  0  0  1  0  0  0  0  0999 V2000
    8.1097  -11.9258   18.7278 N   0  0  0  0  0  0  0  0  0  0  0  0
    7.9097  -13.2785   18.3639 C   0  0  0  0  0  0  0  0  0  0  0  0
    7.8280  -13.5713   17.1532 O   0  0  0  0  0  0  0  0  0  0  0  0
    7.8037  -14.2750   19.4220 C   0  0  0  0  0  0  0  0  0  0  0  0
    9.0881  -14.8407   19.9328 C   0  0  0  0  0  0  0  0  0  0  0  0
    8.9865  -15.8265   21.0426 C   0  0  2  0  0  0  0  0  0  0  0  0
    7.8409  -16.6861   20.9763 N   0  0  0  0  0  0  0  0  0  0  0  0
    9.0994  -15.1790   22.3830 C   0  0  0  0  0  0  0  0  0  0  0  0
   10.1448  -14.5041   22.6478 O   0  0  0  0  0  0  0  0  0  0  0  0
    6.2770  -10.5340   25.7274 C   0  0  0  0  0  0  0  0  0  0  0  0
    5.9380  -12.0205   26.6872 S   0  0  0  0  0  0  0  0  0  0  0  0
    7.2680  -13.2198   26.4112 C   0  0  0  0  0  0  0  0  0  0  0  0
    7.0840  -13.8289   25.0353 C   0  0  0  0  0  0  0  0  0  0  0  0
    8.2940  -14.7093   24.7137 C   0  0  2  0  0  0  0  0  0  0  0  0
    8.1298  -15.2528   23.3983 N   0  0  0  0  0  0  0  0  0  0  0  0
    8.4220  -15.6943   25.7752 C   0  0  0  0  0  0  0  0  0  0  0  0
    8.4929  -15.3317   26.9640 O   0  0  0  0  0  0  0  0  0  0  0  0
    6.3355  -21.3397   25.2624 N   0  0  0  0  0  0  0  0  0  0  0  0
    5.9640  -20.1105   24.6721 C   0  0  0  0  0  0  0  0  0  0  0  0
    5.0678  -20.0751   23.8194 O   0  0  0  0  0  0  0  0  0  0  0  0
    6.6687  -18.8689   25.0951 C   0  0  0  0  0  0  0  0  0  0  0  0
    7.7090  -19.2434   26.1073 C   0  0  0  0  0  0  0  0  0  0  0  0
    8.5688  -18.0975   26.5235 C   0  0  2  0  0  0  0  0  0  0  0  0
    8.4670  -17.0685   25.4661 N   0  0  0  0  0  0  0  0  0  0  0  0
    9.9734  -18.4089   26.7436 C   0  0  0  0  0  0  0  0  0  0  0  0
   10.3362  -19.0423   27.7645 O   0  0  0  0  0  0  0  0  0  0  0  0
   10.9468  -18.0234   25.8454 O   0  0  0  0  0  0  0  0  0  0  0  0
  1  2  1  0
  2  3  2  0
  4  5  1  0
  4  2  1  0
  6  5  1  0
  6  7  1  1
  8  6  1  0
  9  8  2  0
 11 10  1  0
 12 11  1  0
 13 12  1  0
 14 13  1  1
 14 15  1  0
 15  8  1  0
 16 14  1  0
 16 24  1  0
 17 16  2  0
 19 21  1  0
 19 18  1  0
 20 19  2  0
 22 21  1  0
 23 22  1  6
 23 24  1  0
 23 25  1  0
 25 27  1  0
 26 25  2  0
M  END
$$$$
