QMQ.pdb
     RDKit          3D

 27 26  0  0  1  0  0  0  0  0999 V2000
    8.8464  -12.1019   17.3921 N   0  0  0  0  0  0  0  0  0  0  0  0
    8.1360  -13.3061   17.1748 C   0  0  0  0  0  0  0  0  0  0  0  0
    7.5990  -13.4973   16.0642 O   0  0  0  0  0  0  0  0  0  0  0  0
    8.0583  -14.2737   18.2618 C   0  0  0  0  0  0  0  0  0  0  0  0
    8.7082  -13.8814   19.5481 C   0  0  0  0  0  0  0  0  0  0  0  0
    9.2345  -14.9877   20.3924 C   0  0  2  0  0  0  0  0  0  0  0  0
    8.7201  -16.2858   20.0666 N   0  0  0  0  0  0  0  0  0  0  0  0
    9.0919  -14.7001   21.8503 C   0  0  0  0  0  0  0  0  0  0  0  0
    9.4412  -13.5559   22.2830 O   0  0  0  0  0  0  0  0  0  0  0  0
    6.5729  -11.1620   25.5300 C   0  0  0  0  0  0  0  0  0  0  0  0
    6.0429  -12.7512   26.1929 S   0  0  0  0  0  0  0  0  0  0  0  0
    7.3567  -13.9708   25.9289 C   0  0  0  0  0  0  0  0  0  0  0  0
    7.4360  -14.2740   24.4458 C   0  0  0  0  0  0  0  0  0  0  0  0
    8.5156  -15.3331   24.2102 C   0  0  2  0  0  0  0  0  0  0  0  0
    8.5946  -15.6039   22.8055 N   0  0  0  0  0  0  0  0  0  0  0  0
    8.1999  -16.4828   25.0419 C   0  0  0  0  0  0  0  0  0  0  0  0
    7.2098  -17.1922   24.7841 O   0  0  0  0  0  0  0  0  0  0  0  0
   11.9159  -17.8838   22.5079 N   0  0  0  0  0  0  0  0  0  0  0  0
   12.4732  -18.7724   23.4551 C   0  0  0  0  0  0  0  0  0  0  0  0
   13.4647  -19.4527   23.1623 O   0  0  0  0  0  0  0  0  0  0  0  0
   11.8466  -18.8714   24.8022 C   0  0  0  0  0  0  0  0  0  0  0  0
   10.7547  -17.8478   24.8864 C   0  0  0  0  0  0  0  0  0  0  0  0
    9.9302  -17.9630   26.1243 C   0  0  2  0  0  0  0  0  0  0  0  0
    9.0128  -16.8033   26.1475 N   0  0  0  0  0  0  0  0  0  0  0  0
   10.6719  -18.0017   27.3761 C   0  0  0  0  0  0  0  0  0  0  0  0
   10.7379  -16.9877   28.1125 O   0  0  0  0  0  0  0  0  0  0  0  0
   11.3215  -19.1445   27.7942 O   0  0  0  0  0  0  0  0  0  0  0  0
  1  2  1  0
  2  3  2  0
  4  5  1  0
  4  2  1  0
  6  5  1  0
  6  7  1  6
  8  6  1  0
  9  8  2  0
 11 10  1  0
 12 11  1  0
 13 12  1  0
 14 13  1  6
 14 15  1  0
 15  8  1  0
 16 14  1  0
 16 24  1  0
 17 16  2  0
 19 21  1  0
 19 18  1  0
 20 19  2  0
 22 21  1  0
 23 22  1  6
 23 24  1  0
 23 25  1  0
 25 27  1  0
 26 25  2  0
M  END
$$$$
