QMQ.pdb
     RDKit          3D

 27 26  0  0  1  0  0  0  0  0999 V2000
    9.3008  -13.8132   16.8312 N   0  0  0  0  0  0  0  0  0  0  0  0
    8.1618  -13.5504   17.6283 C   0  0  0  0  0  0  0  0  0  0  0  0
    7.3822  -12.6384   17.2836 O   0  0  0  0  0  0  0  0  0  0  0  0
    7.9485  -14.3560   18.8239 C   0  0  0  0  0  0  0  0  0  0  0  0
    8.9413  -15.4423   19.0788 C   0  0  0  0  0  0  0  0  0  0  0  0
    8.6607  -16.3441   20.2285 C   0  0  2  0  0  0  0  0  0  0  0  0
    7.3539  -16.9339   20.2212 N   0  0  0  0  0  0  0  0  0  0  0  0
    8.9520  -15.6921   21.5395 C   0  0  0  0  0  0  0  0  0  0  0  0
   10.1481  -15.3407   21.7930 O   0  0  0  0  0  0  0  0  0  0  0  0
    6.8758  -11.2750   27.5785 C   0  0  0  0  0  0  0  0  0  0  0  0
    6.3833  -12.0784   26.0430 S   0  0  0  0  0  0  0  0  0  0  0  0
    7.6285  -13.3168   25.5967 C   0  0  0  0  0  0  0  0  0  0  0  0
    7.2587  -13.9012   24.2477 C   0  0  0  0  0  0  0  0  0  0  0  0
    8.3132  -14.9354   23.8462 C   0  0  2  0  0  0  0  0  0  0  0  0
    7.9985  -15.4282   22.5383 N   0  0  0  0  0  0  0  0  0  0  0  0
    8.3641  -15.9467   24.8893 C   0  0  0  0  0  0  0  0  0  0  0  0
    7.3948  -16.7048   25.0777 O   0  0  0  0  0  0  0  0  0  0  0  0
   11.1775  -19.5552   22.8885 N   0  0  0  0  0  0  0  0  0  0  0  0
   11.3179  -20.2402   24.1167 C   0  0  0  0  0  0  0  0  0  0  0  0
   11.7458  -21.4013   24.1366 O   0  0  0  0  0  0  0  0  0  0  0  0
   10.9428  -19.5401   25.3762 C   0  0  0  0  0  0  0  0  0  0  0  0
   10.4441  -18.1721   25.0201 C   0  0  0  0  0  0  0  0  0  0  0  0
    9.9619  -17.3933   26.1976 C   0  0  2  0  0  0  0  0  0  0  0  0
    9.5124  -16.0767   25.6960 N   0  0  0  0  0  0  0  0  0  0  0  0
   10.9355  -17.1852   27.2592 C   0  0  0  0  0  0  0  0  0  0  0  0
   11.4770  -16.0646   27.4204 O   0  0  0  0  0  0  0  0  0  0  0  0
   11.2934  -18.2029   28.1190 O   0  0  0  0  0  0  0  0  0  0  0  0
  1  2  1  0
  2  3  2  0
  4  5  1  0
  4  2  1  0
  6  5  1  0
  6  7  1  1
  8  6  1  0
  9  8  2  0
 11 10  1  0
 12 11  1  0
 13 12  1  0
 14 13  1  1
 14 15  1  0
 15  8  1  0
 16 14  1  0
 16 24  1  0
 17 16  2  0
 19 21  1  0
 19 18  1  0
 20 19  2  0
 22 21  1  0
 23 22  1  6
 23 24  1  0
 23 25  1  0
 25 27  1  0
 26 25  2  0
M  END
$$$$
