QMQ.pdb
     RDKit          3D

 27 26  0  0  1  0  0  0  0  0999 V2000
    8.0412  -18.0393   18.6178 N   0  0  0  0  0  0  0  0  0  0  0  0
    7.9126  -16.7575   18.0327 C   0  0  0  0  0  0  0  0  0  0  0  0
    7.4504  -16.6661   16.8766 O   0  0  0  0  0  0  0  0  0  0  0  0
    8.3299  -15.5948   18.8059 C   0  0  0  0  0  0  0  0  0  0  0  0
    7.2389  -14.7646   19.3984 C   0  0  0  0  0  0  0  0  0  0  0  0
    7.6611  -13.5831   20.1981 C   0  0  2  0  0  0  0  0  0  0  0  0
    8.5947  -12.7172   19.5391 N   0  0  0  0  0  0  0  0  0  0  0  0
    8.1464  -13.9671   21.5567 C   0  0  0  0  0  0  0  0  0  0  0  0
    9.3646  -14.3067   21.6954 O   0  0  0  0  0  0  0  0  0  0  0  0
    6.5240  -10.1360   27.1092 C   0  0  0  0  0  0  0  0  0  0  0  0
    6.0772  -11.8252   26.6699 S   0  0  0  0  0  0  0  0  0  0  0  0
    7.1851  -12.4093   25.3605 C   0  0  0  0  0  0  0  0  0  0  0  0
    6.8607  -13.8620   25.0731 C   0  0  0  0  0  0  0  0  0  0  0  0
    7.8286  -14.3885   24.0109 C   0  0  2  0  0  0  0  0  0  0  0  0
    7.3564  -13.9862   22.7194 N   0  0  0  0  0  0  0  0  0  0  0  0
    7.9576  -15.8242   24.1993 C   0  0  0  0  0  0  0  0  0  0  0  0
    7.3716  -16.6137   23.4357 O   0  0  0  0  0  0  0  0  0  0  0  0
   11.1173  -17.8008   21.1720 N   0  0  0  0  0  0  0  0  0  0  0  0
   12.1010  -17.8954   22.1823 C   0  0  0  0  0  0  0  0  0  0  0  0
   13.3023  -17.8704   21.8859 O   0  0  0  0  0  0  0  0  0  0  0  0
   11.6641  -18.0247   23.5999 C   0  0  0  0  0  0  0  0  0  0  0  0
   10.4938  -17.1127   23.8135 C   0  0  0  0  0  0  0  0  0  0  0  0
    9.7008  -17.4439   25.0330 C   0  0  2  0  0  0  0  0  0  0  0  0
    8.7479  -16.3338   25.2491 N   0  0  0  0  0  0  0  0  0  0  0  0
   10.4707  -17.6472   26.2513 C   0  0  0  0  0  0  0  0  0  0  0  0
   10.9179  -18.7827   26.5438 O   0  0  0  0  0  0  0  0  0  0  0  0
   10.7349  -16.6081   27.1192 O   0  0  0  0  0  0  0  0  0  0  0  0
  1  2  1  0
  2  3  2  0
  4  5  1  0
  4  2  1  0
  6  5  1  0
  6  7  1  6
  8  6  1  0
  9  8  2  0
 11 10  1  0
 12 11  1  0
 13 12  1  0
 14 13  1  1
 14 15  1  0
 15  8  1  0
 16 14  1  0
 16 24  1  0
 17 16  2  0
 19 21  1  0
 19 18  1  0
 20 19  2  0
 22 21  1  0
 23 22  1  6
 23 24  1  0
 23 25  1  0
 25 27  1  0
 26 25  2  0
M  END
$$$$
