PIW.pdb
     RDKit          3D

 30 32  0  0  1  0  0  0  0  0999 V2000
   27.8990  -19.9103  -16.0120 N   0  0  0  0  0  0  0  0  0  0  0  0
   29.1898  -19.8292  -16.6420 C   0  0  0  0  0  0  0  0  0  0  0  0
   29.7826  -21.2098  -16.6575 C   0  0  0  0  0  0  0  0  0  0  0  0
   28.8298  -21.9914  -15.7478 C   0  0  0  0  0  0  0  0  0  0  0  0
   27.5233  -21.2928  -16.0405 C   0  0  1  0  0  0  0  0  0  0  0  0
   26.4701  -21.6429  -15.0836 C   0  0  0  0  0  0  0  0  0  0  0  0
   25.6944  -22.5926  -15.3142 O   0  0  0  0  0  0  0  0  0  0  0  0
   25.0626  -20.9161   -9.0883 C   0  0  0  0  0  0  0  0  0  0  0  0
   24.6423  -21.2404  -10.4902 C   0  0  0  0  0  0  0  0  0  0  0  0
   25.7465  -20.9612  -11.4919 C   0  0  2  0  0  0  0  0  0  0  0  0
   26.2863  -19.5695  -11.3099 C   0  0  0  0  0  0  0  0  0  0  0  0
   25.2804  -21.2111  -12.9078 C   0  0  2  0  0  0  0  0  0  0  0  0
   26.3195  -20.8990  -13.8737 N   0  0  0  0  0  0  0  0  0  0  0  0
   24.0393  -20.4447  -13.2106 C   0  0  0  0  0  0  0  0  0  0  0  0
   23.8709  -19.2550  -12.8936 O   0  0  0  0  0  0  0  0  0  0  0  0
   22.9404  -21.0473  -13.9014 N   0  0  0  0  0  0  0  0  0  0  0  0
   21.7535  -20.3966  -14.2926 C   0  0  1  0  0  0  0  0  0  0  0  0
   21.5538  -20.1479  -15.7439 C   0  0  0  0  0  0  0  0  0  0  0  0
   20.3470  -19.3120  -15.9916 C   0  0  0  0  0  0  0  0  0  0  0  0
   20.1295  -17.9748  -15.7624 C   0  0  0  0  0  0  0  0  0  0  0  0
   18.8636  -17.6582  -16.1522 N   0  0  0  0  0  0  0  0  0  0  0  0
   18.2463  -18.7521  -16.6304 C   0  0  0  0  0  0  0  0  0  0  0  0
   16.9836  -18.9691  -17.1422 C   0  0  0  0  0  0  0  0  0  0  0  0
   16.5692  -20.2138  -17.5811 C   0  0  0  0  0  0  0  0  0  0  0  0
   17.4702  -21.2542  -17.4918 C   0  0  0  0  0  0  0  0  0  0  0  0
   18.7310  -21.0336  -16.9798 C   0  0  0  0  0  0  0  0  0  0  0  0
   19.1531  -19.7852  -16.5373 C   0  0  0  0  0  0  0  0  0  0  0  0
   20.6006  -21.1548  -13.7568 C   0  0  0  0  0  0  0  0  0  0  0  0
   20.4921  -22.5265  -13.8428 O   0  0  0  0  0  0  0  0  0  0  0  0
   19.6827  -20.5158  -13.2000 O   0  0  0  0  0  0  0  0  0  0  0  0
  1  2  1  0
  3  2  1  0
  4  3  1  0
  5  4  1  0
  5  1  1  0
  5  6  1  1
  6 13  1  0
  7  6  2  0
  9  8  1  0
 10  9  1  0
 10 11  1  6
 12 13  1  6
 12 10  1  0
 14 16  1  0
 14 12  1  0
 15 14  2  0
 17 16  1  0
 17 28  1  0
 17 18  1  6
 19 18  1  0
 20 19  2  0
 21 22  1  0
 21 20  1  0
 22 27  2  0
 23 22  1  0
 23 24  2  0
 24 25  1  0
 25 26  2  0
 27 19  1  0
 27 26  1  0
 28 30  2  0
 28 29  1  0
M  END
$$$$
