PIW.pdb
     RDKit          3D

 30 32  0  0  1  0  0  0  0  0999 V2000
   28.5175  -21.4040  -14.3641 N   0  0  0  0  0  0  0  0  0  0  0  0
   28.8726  -20.6380  -15.5289 C   0  0  0  0  0  0  0  0  0  0  0  0
   28.4091  -19.2255  -15.3104 C   0  0  0  0  0  0  0  0  0  0  0  0
   27.5396  -19.3508  -14.0557 C   0  0  0  0  0  0  0  0  0  0  0  0
   28.2614  -20.4554  -13.3211 C   0  0  1  0  0  0  0  0  0  0  0  0
   27.4797  -20.9949  -12.2052 C   0  0  0  0  0  0  0  0  0  0  0  0
   26.7625  -22.0037  -12.3630 O   0  0  0  0  0  0  0  0  0  0  0  0
   28.6040  -19.4712   -6.9500 C   0  0  0  0  0  0  0  0  0  0  0  0
   28.1787  -20.2677   -8.1466 C   0  0  0  0  0  0  0  0  0  0  0  0
   26.8022  -19.8619   -8.6377 C   0  0  2  0  0  0  0  0  0  0  0  0
   25.7648  -20.1250   -7.5812 C   0  0  0  0  0  0  0  0  0  0  0  0
   26.4651  -20.5358   -9.9478 C   0  0  2  0  0  0  0  0  0  0  0  0
   27.5302  -20.3705  -10.9217 N   0  0  0  0  0  0  0  0  0  0  0  0
   25.1741  -20.0339  -10.4964 C   0  0  0  0  0  0  0  0  0  0  0  0
   24.9364  -18.8323  -10.7059 O   0  0  0  0  0  0  0  0  0  0  0  0
   24.1047  -20.9272  -10.8228 N   0  0  0  0  0  0  0  0  0  0  0  0
   22.9217  -20.5847  -11.5069 C   0  0  1  0  0  0  0  0  0  0  0  0
   22.7218  -21.1603  -12.8622 C   0  0  0  0  0  0  0  0  0  0  0  0
   21.8571  -20.2868  -13.7022 C   0  0  0  0  0  0  0  0  0  0  0  0
   20.7473  -19.5490  -13.3680 C   0  0  0  0  0  0  0  0  0  0  0  0
   20.2910  -18.9062  -14.4785 N   0  0  0  0  0  0  0  0  0  0  0  0
   21.0722  -19.2034  -15.5311 C   0  0  0  0  0  0  0  0  0  0  0  0
   21.0455  -18.8229  -16.8569 C   0  0  0  0  0  0  0  0  0  0  0  0
   21.9804  -19.2720  -17.7724 C   0  0  0  0  0  0  0  0  0  0  0  0
   22.9604  -20.1281  -17.3155 C   0  0  0  0  0  0  0  0  0  0  0  0
   22.9839  -20.5062  -15.9901 C   0  0  0  0  0  0  0  0  0  0  0  0
   22.0473  -20.0582  -15.0655 C   0  0  0  0  0  0  0  0  0  0  0  0
   21.7645  -20.9246  -10.6489 C   0  0  0  0  0  0  0  0  0  0  0  0
   20.5568  -20.2625  -10.7111 O   0  0  0  0  0  0  0  0  0  0  0  0
   21.8932  -21.8585   -9.8290 O   0  0  0  0  0  0  0  0  0  0  0  0
  1  2  1  0
  3  2  1  0
  4  3  1  0
  5  4  1  0
  5  1  1  0
  5  6  1  1
  6 13  1  0
  7  6  2  0
  9  8  1  0
 10  9  1  0
 10 11  1  1
 12 13  1  6
 12 10  1  0
 14 16  1  0
 14 12  1  0
 15 14  2  0
 17 16  1  0
 17 28  1  0
 17 18  1  6
 19 18  1  0
 20 19  2  0
 21 22  1  0
 21 20  1  0
 22 27  2  0
 23 22  1  0
 23 24  2  0
 24 25  1  0
 25 26  2  0
 27 19  1  0
 27 26  1  0
 28 30  2  0
 28 29  1  0
M  END
$$$$
