PIW.pdb
     RDKit          3D

 30 32  0  0  1  0  0  0  0  0999 V2000
   23.8322  -17.2878  -13.9306 N   0  0  0  0  0  0  0  0  0  0  0  0
   23.0340  -16.2729  -14.5650 C   0  0  0  0  0  0  0  0  0  0  0  0
   22.4840  -16.8488  -15.8393 C   0  0  0  0  0  0  0  0  0  0  0  0
   23.2647  -18.1594  -15.9765 C   0  0  0  0  0  0  0  0  0  0  0  0
   23.4460  -18.5333  -14.5246 C   0  0  1  0  0  0  0  0  0  0  0  0
   24.4228  -19.6096  -14.3374 C   0  0  0  0  0  0  0  0  0  0  0  0
   24.2165  -20.7431  -14.8165 O   0  0  0  0  0  0  0  0  0  0  0  0
   29.5167  -18.3759  -15.1623 C   0  0  0  0  0  0  0  0  0  0  0  0
   28.1606  -18.9899  -14.9859 C   0  0  0  0  0  0  0  0  0  0  0  0
   28.0456  -19.7434  -13.6746 C   0  0  2  0  0  0  0  0  0  0  0  0
   29.1501  -20.7561  -13.5478 C   0  0  0  0  0  0  0  0  0  0  0  0
   26.6785  -20.3684  -13.5176 C   0  0  2  0  0  0  0  0  0  0  0  0
   25.6243  -19.3726  -13.6026 N   0  0  0  0  0  0  0  0  0  0  0  0
   26.5761  -21.1288  -12.2406 C   0  0  0  0  0  0  0  0  0  0  0  0
   26.9986  -22.2883  -12.0946 O   0  0  0  0  0  0  0  0  0  0  0  0
   25.9706  -20.5554  -11.0776 N   0  0  0  0  0  0  0  0  0  0  0  0
   25.8352  -21.1815   -9.8227 C   0  0  1  0  0  0  0  0  0  0  0  0
   27.0579  -21.3205   -8.9899 C   0  0  0  0  0  0  0  0  0  0  0  0
   27.2677  -20.1252   -8.1276 C   0  0  0  0  0  0  0  0  0  0  0  0
   26.8584  -18.8245   -8.2964 C   0  0  0  0  0  0  0  0  0  0  0  0
   27.2891  -18.0832   -7.2383 N   0  0  0  0  0  0  0  0  0  0  0  0
   27.9696  -18.8635   -6.3812 C   0  0  0  0  0  0  0  0  0  0  0  0
   28.5999  -18.6114   -5.1802 C   0  0  0  0  0  0  0  0  0  0  0  0
   29.2490  -19.6021   -4.4653 C   0  0  0  0  0  0  0  0  0  0  0  0
   29.2495  -20.8752   -4.9957 C   0  0  0  0  0  0  0  0  0  0  0  0
   28.6186  -21.1233   -6.1960 C   0  0  0  0  0  0  0  0  0  0  0  0
   27.9648  -20.1320   -6.9188 C   0  0  0  0  0  0  0  0  0  0  0  0
   24.7888  -20.4731   -9.0518 C   0  0  0  0  0  0  0  0  0  0  0  0
   24.3717  -20.8722   -7.7998 O   0  0  0  0  0  0  0  0  0  0  0  0
   24.2603  -19.4641   -9.5652 O   0  0  0  0  0  0  0  0  0  0  0  0
  1  2  1  0
  3  2  1  0
  4  3  1  0
  5  4  1  0
  5  1  1  0
  5  6  1  6
  6 13  1  0
  7  6  2  0
  9  8  1  0
 10  9  1  0
 10 11  1  6
 12 13  1  1
 12 10  1  0
 14 16  1  0
 14 12  1  0
 15 14  2  0
 17 16  1  0
 17 28  1  0
 17 18  1  1
 19 18  1  0
 20 19  2  0
 21 22  1  0
 21 20  1  0
 22 27  2  0
 23 22  1  0
 23 24  2  0
 24 25  1  0
 25 26  2  0
 27 19  1  0
 27 26  1  0
 28 30  2  0
 28 29  1  0
M  END
$$$$
