PIW.pdb
     RDKit          3D

 30 32  0  0  1  0  0  0  0  0999 V2000
   28.7090  -19.8715  -15.7328 N   0  0  0  0  0  0  0  0  0  0  0  0
   28.8461  -18.6587  -16.4943 C   0  0  0  0  0  0  0  0  0  0  0  0
   27.9547  -17.6210  -15.8727 C   0  0  0  0  0  0  0  0  0  0  0  0
   27.1251  -18.4445  -14.8829 C   0  0  0  0  0  0  0  0  0  0  0  0
   28.1312  -19.4949  -14.4766 C   0  0  1  0  0  0  0  0  0  0  0  0
   27.5200  -20.6082  -13.7455 C   0  0  0  0  0  0  0  0  0  0  0  0
   27.3752  -21.7211  -14.2908 O   0  0  0  0  0  0  0  0  0  0  0  0
   25.4659  -19.6105   -8.3831 C   0  0  0  0  0  0  0  0  0  0  0  0
   25.5370  -19.6974   -9.8780 C   0  0  0  0  0  0  0  0  0  0  0  0
   25.9121  -21.0899  -10.3477 C   0  0  2  0  0  0  0  0  0  0  0  0
   27.2069  -21.5287   -9.7211 C   0  0  0  0  0  0  0  0  0  0  0  0
   25.9536  -21.1686  -11.8565 C   0  0  2  0  0  0  0  0  0  0  0  0
   27.0821  -20.4311  -12.3977 N   0  0  0  0  0  0  0  0  0  0  0  0
   24.6786  -20.6862  -12.4574 C   0  0  0  0  0  0  0  0  0  0  0  0
   24.4518  -19.4940  -12.7247 O   0  0  0  0  0  0  0  0  0  0  0  0
   23.6130  -21.5888  -12.7703 N   0  0  0  0  0  0  0  0  0  0  0  0
   22.4619  -21.2795  -13.5215 C   0  0  1  0  0  0  0  0  0  0  0  0
   22.3987  -21.7825  -14.9183 C   0  0  0  0  0  0  0  0  0  0  0  0
   22.7382  -23.2301  -14.9912 C   0  0  0  0  0  0  0  0  0  0  0  0
   22.0338  -24.3309  -14.5669 C   0  0  0  0  0  0  0  0  0  0  0  0
   22.7513  -25.4530  -14.8506 N   0  0  0  0  0  0  0  0  0  0  0  0
   23.9067  -25.1167  -15.4492 C   0  0  0  0  0  0  0  0  0  0  0  0
   24.9662  -25.8590  -15.9287 C   0  0  0  0  0  0  0  0  0  0  0  0
   26.0712  -25.2720  -16.5188 C   0  0  0  0  0  0  0  0  0  0  0  0
   26.0863  -23.8964  -16.6174 C   0  0  0  0  0  0  0  0  0  0  0  0
   25.0259  -23.1580  -16.1373 C   0  0  0  0  0  0  0  0  0  0  0  0
   23.9130  -23.7422  -15.5433 C   0  0  0  0  0  0  0  0  0  0  0  0
   21.2714  -21.7429  -12.7739 C   0  0  0  0  0  0  0  0  0  0  0  0
   21.3461  -22.5481  -11.6573 O   0  0  0  0  0  0  0  0  0  0  0  0
   20.1452  -21.3841  -13.1786 O   0  0  0  0  0  0  0  0  0  0  0  0
  1  2  1  0
  3  2  1  0
  4  3  1  0
  5  4  1  0
  5  1  1  0
  5  6  1  6
  6 13  1  0
  7  6  2  0
  9  8  1  0
 10  9  1  0
 10 11  1  1
 12 13  1  6
 12 10  1  0
 14 16  1  0
 14 12  1  0
 15 14  2  0
 17 16  1  0
 17 28  1  0
 17 18  1  6
 19 18  1  0
 20 19  2  0
 21 22  1  0
 21 20  1  0
 22 27  2  0
 23 22  1  0
 23 24  2  0
 24 25  1  0
 25 26  2  0
 27 19  1  0
 27 26  1  0
 28 30  2  0
 28 29  1  0
M  END
$$$$
