PIW.pdb
     RDKit          3D

 30 32  0  0  1  0  0  0  0  0999 V2000
   27.0645  -18.6658  -15.4635 N   0  0  0  0  0  0  0  0  0  0  0  0
   28.1174  -18.1407  -16.2914 C   0  0  0  0  0  0  0  0  0  0  0  0
   29.0698  -19.2631  -16.5929 C   0  0  0  0  0  0  0  0  0  0  0  0
   28.5942  -20.3672  -15.6438 C   0  0  0  0  0  0  0  0  0  0  0  0
   27.1099  -20.0905  -15.6100 C   0  0  1  0  0  0  0  0  0  0  0  0
   26.4246  -20.8206  -14.5401 C   0  0  0  0  0  0  0  0  0  0  0  0
   26.2723  -22.0569  -14.6131 O   0  0  0  0  0  0  0  0  0  0  0  0
   27.5306  -21.7226  -10.3538 C   0  0  0  0  0  0  0  0  0  0  0  0
   27.0575  -20.3726  -10.8020 C   0  0  0  0  0  0  0  0  0  0  0  0
   25.5525  -20.3315  -10.9857 C   0  0  2  0  0  0  0  0  0  0  0  0
   24.8657  -21.1163   -9.9022 C   0  0  0  0  0  0  0  0  0  0  0  0
   25.1543  -20.7981  -12.3670 C   0  0  2  0  0  0  0  0  0  0  0  0
   25.9221  -20.1235  -13.3993 N   0  0  0  0  0  0  0  0  0  0  0  0
   23.6942  -20.6143  -12.5988 C   0  0  0  0  0  0  0  0  0  0  0  0
   22.8146  -21.1341  -11.8914 O   0  0  0  0  0  0  0  0  0  0  0  0
   23.2055  -19.8086  -13.6758 N   0  0  0  0  0  0  0  0  0  0  0  0
   21.8580  -19.4696  -13.9087 C   0  0  1  0  0  0  0  0  0  0  0  0
   21.5822  -18.1651  -14.5646 C   0  0  0  0  0  0  0  0  0  0  0  0
   22.4355  -17.9706  -15.7689 C   0  0  0  0  0  0  0  0  0  0  0  0
   22.3265  -18.5026  -17.0310 C   0  0  0  0  0  0  0  0  0  0  0  0
   23.3455  -18.0301  -17.8011 N   0  0  0  0  0  0  0  0  0  0  0  0
   24.1190  -17.2030  -17.0771 C   0  0  0  0  0  0  0  0  0  0  0  0
   25.2535  -16.4771  -17.3760 C   0  0  0  0  0  0  0  0  0  0  0  0
   25.8858  -15.6779  -16.4404 C   0  0  0  0  0  0  0  0  0  0  0  0
   25.3410  -15.6246  -15.1745 C   0  0  0  0  0  0  0  0  0  0  0  0
   24.2073  -16.3513  -14.8796 C   0  0  0  0  0  0  0  0  0  0  0  0
   23.5676  -17.1561  -15.8153 C   0  0  0  0  0  0  0  0  0  0  0  0
   21.2244  -20.5584  -14.6859 C   0  0  0  0  0  0  0  0  0  0  0  0
   19.8623  -20.6600  -14.8729 O   0  0  0  0  0  0  0  0  0  0  0  0
   21.9647  -21.4261  -15.1957 O   0  0  0  0  0  0  0  0  0  0  0  0
  1  2  1  0
  3  2  1  0
  4  3  1  0
  5  4  1  0
  5  1  1  0
  5  6  1  1
  6 13  1  0
  7  6  2  0
  9  8  1  0
 10  9  1  0
 10 11  1  1
 12 13  1  6
 12 10  1  0
 14 16  1  0
 14 12  1  0
 15 14  2  0
 17 16  1  0
 17 28  1  0
 17 18  1  6
 19 18  1  0
 20 19  2  0
 21 22  1  0
 21 20  1  0
 22 27  2  0
 23 22  1  0
 23 24  2  0
 24 25  1  0
 25 26  2  0
 27 19  1  0
 27 26  1  0
 28 30  2  0
 28 29  1  0
M  END
$$$$
