PIW.pdb
     RDKit          3D

 30 32  0  0  1  0  0  0  0  0999 V2000
   25.4210  -22.1261  -18.8064 N   0  0  0  0  0  0  0  0  0  0  0  0
   25.2473  -22.3773  -20.2122 C   0  0  0  0  0  0  0  0  0  0  0  0
   26.5964  -22.6915  -20.7944 C   0  0  0  0  0  0  0  0  0  0  0  0
   27.5462  -22.3267  -19.6495 C   0  0  0  0  0  0  0  0  0  0  0  0
   26.6948  -22.6794  -18.4530 C   0  0  1  0  0  0  0  0  0  0  0  0
   27.2424  -22.1577  -17.1979 C   0  0  0  0  0  0  0  0  0  0  0  0
   28.2813  -22.6455  -16.7084 O   0  0  0  0  0  0  0  0  0  0  0  0
   28.4978  -17.2429  -16.9608 C   0  0  0  0  0  0  0  0  0  0  0  0
   28.3253  -18.7100  -16.7053 C   0  0  0  0  0  0  0  0  0  0  0  0
   27.3824  -18.9767  -15.5476 C   0  0  2  0  0  0  0  0  0  0  0  0
   27.8714  -18.2954  -14.2993 C   0  0  0  0  0  0  0  0  0  0  0  0
   27.1698  -20.4588  -15.3419 C   0  0  2  0  0  0  0  0  0  0  0  0
   26.5914  -21.0827  -16.5194 N   0  0  0  0  0  0  0  0  0  0  0  0
   26.3243  -20.7216  -14.1438 C   0  0  0  0  0  0  0  0  0  0  0  0
   25.1035  -20.4939  -14.1000 O   0  0  0  0  0  0  0  0  0  0  0  0
   26.8810  -21.2652  -12.9427 N   0  0  0  0  0  0  0  0  0  0  0  0
   26.1725  -21.5497  -11.7585 C   0  0  1  0  0  0  0  0  0  0  0  0
   26.9655  -21.9046  -10.5531 C   0  0  0  0  0  0  0  0  0  0  0  0
   26.6183  -21.0327   -9.3973 C   0  0  0  0  0  0  0  0  0  0  0  0
   25.4174  -20.4706   -9.0370 C   0  0  0  0  0  0  0  0  0  0  0  0
   25.5906  -19.7478   -7.8960 N   0  0  0  0  0  0  0  0  0  0  0  0
   26.8728  -19.8213   -7.4994 C   0  0  0  0  0  0  0  0  0  0  0  0
   27.5567  -19.2821   -6.4294 C   0  0  0  0  0  0  0  0  0  0  0  0
   28.9070  -19.5057   -6.2285 C   0  0  0  0  0  0  0  0  0  0  0  0
   29.5656  -20.2984   -7.1451 C   0  0  0  0  0  0  0  0  0  0  0  0
   28.8789  -20.8355   -8.2129 C   0  0  0  0  0  0  0  0  0  0  0  0
   27.5222  -20.6143   -8.4200 C   0  0  0  0  0  0  0  0  0  0  0  0
   25.2885  -20.4032  -11.4500 C   0  0  0  0  0  0  0  0  0  0  0  0
   24.0059  -20.5467  -10.9652 O   0  0  0  0  0  0  0  0  0  0  0  0
   25.7309  -19.2504  -11.6399 O   0  0  0  0  0  0  0  0  0  0  0  0
  1  2  1  0
  3  2  1  0
  4  3  1  0
  5  4  1  0
  5  1  1  0
  5  6  1  1
  6 13  1  0
  7  6  2  0
  9  8  1  0
 10  9  1  0
 10 11  1  1
 12 13  1  6
 12 10  1  0
 14 16  1  0
 14 12  1  0
 15 14  2  0
 17 16  1  0
 17 28  1  0
 17 18  1  1
 19 18  1  0
 20 19  2  0
 21 22  1  0
 21 20  1  0
 22 27  2  0
 23 22  1  0
 23 24  2  0
 24 25  1  0
 25 26  2  0
 27 19  1  0
 27 26  1  0
 28 30  2  0
 28 29  1  0
M  END
$$$$
