PIW.pdb
     RDKit          3D

 30 32  0  0  1  0  0  0  0  0999 V2000
   22.0891  -18.7117  -14.3822 N   0  0  0  0  0  0  0  0  0  0  0  0
   20.7561  -18.1791  -14.2876 C   0  0  0  0  0  0  0  0  0  0  0  0
   20.4645  -17.4377  -15.5617 C   0  0  0  0  0  0  0  0  0  0  0  0
   21.8381  -17.3838  -16.2372 C   0  0  0  0  0  0  0  0  0  0  0  0
   22.4325  -18.6923  -15.7733 C   0  0  1  0  0  0  0  0  0  0  0  0
   23.8723  -18.7805  -16.0318 C   0  0  0  0  0  0  0  0  0  0  0  0
   24.2967  -19.0130  -17.1819 O   0  0  0  0  0  0  0  0  0  0  0  0
   25.8226  -15.5435  -16.3794 C   0  0  0  0  0  0  0  0  0  0  0  0
   25.8318  -16.1363  -15.0026 C   0  0  0  0  0  0  0  0  0  0  0  0
   26.8512  -17.2518  -14.8725 C   0  0  2  0  0  0  0  0  0  0  0  0
   28.0652  -16.9594  -15.7106 C   0  0  0  0  0  0  0  0  0  0  0  0
   26.2414  -18.5949  -15.2018 C   0  0  2  0  0  0  0  0  0  0  0  0
   24.8078  -18.6011  -14.9676 N   0  0  0  0  0  0  0  0  0  0  0  0
   26.9001  -19.6892  -14.4349 C   0  0  0  0  0  0  0  0  0  0  0  0
   28.0954  -20.0007  -14.5697 O   0  0  0  0  0  0  0  0  0  0  0  0
   26.1780  -20.4658  -13.4738 N   0  0  0  0  0  0  0  0  0  0  0  0
   26.7189  -21.4742  -12.6519 C   0  0  1  0  0  0  0  0  0  0  0  0
   27.6811  -21.0582  -11.5987 C   0  0  0  0  0  0  0  0  0  0  0  0
   26.9821  -20.6996  -10.3341 C   0  0  0  0  0  0  0  0  0  0  0  0
   25.6468  -20.4950  -10.0837 C   0  0  0  0  0  0  0  0  0  0  0  0
   25.4847  -20.1854   -8.7675 N   0  0  0  0  0  0  0  0  0  0  0  0
   26.6781  -20.1817   -8.1492 C   0  0  0  0  0  0  0  0  0  0  0  0
   27.0595  -19.9358   -6.8464 C   0  0  0  0  0  0  0  0  0  0  0  0
   28.3809  -19.9936   -6.4410 C   0  0  0  0  0  0  0  0  0  0  0  0
   29.3270  -20.3101   -7.3933 C   0  0  0  0  0  0  0  0  0  0  0  0
   28.9421  -20.5552   -8.6941 C   0  0  0  0  0  0  0  0  0  0  0  0
   27.6161  -20.4986   -9.1074 C   0  0  0  0  0  0  0  0  0  0  0  0
   25.6049  -22.2287  -12.0348 C   0  0  0  0  0  0  0  0  0  0  0  0
   25.7887  -23.3750  -11.2911 O   0  0  0  0  0  0  0  0  0  0  0  0
   24.4422  -21.8019  -12.1988 O   0  0  0  0  0  0  0  0  0  0  0  0
  1  2  1  0
  3  2  1  0
  4  3  1  0
  5  4  1  0
  5  1  1  0
  5  6  1  1
  6 13  1  0
  7  6  2  0
  9  8  1  0
 10  9  1  0
 10 11  1  6
 12 13  1  1
 12 10  1  0
 14 16  1  0
 14 12  1  0
 15 14  2  0
 17 16  1  0
 17 28  1  0
 17 18  1  1
 19 18  1  0
 20 19  2  0
 21 22  1  0
 21 20  1  0
 22 27  2  0
 23 22  1  0
 23 24  2  0
 24 25  1  0
 25 26  2  0
 27 19  1  0
 27 26  1  0
 28 30  2  0
 28 29  1  0
M  END
$$$$
