PIW.pdb
     RDKit          3D

 30 32  0  0  1  0  0  0  0  0999 V2000
   26.7719  -18.8864  -16.7907 N   0  0  0  0  0  0  0  0  0  0  0  0
   26.6303  -18.7140  -18.2119 C   0  0  0  0  0  0  0  0  0  0  0  0
   25.6471  -19.7378  -18.7046 C   0  0  0  0  0  0  0  0  0  0  0  0
   25.4747  -20.6478  -17.4847 C   0  0  0  0  0  0  0  0  0  0  0  0
   25.6374  -19.6500  -16.3628 C   0  0  1  0  0  0  0  0  0  0  0  0
   25.8111  -20.2928  -15.0574 C   0  0  0  0  0  0  0  0  0  0  0  0
   24.8812  -20.9483  -14.5449 O   0  0  0  0  0  0  0  0  0  0  0  0
   30.3746  -21.9577  -11.1516 C   0  0  0  0  0  0  0  0  0  0  0  0
   28.9220  -21.7730  -11.4725 C   0  0  0  0  0  0  0  0  0  0  0  0
   28.7202  -21.0372  -12.7834 C   0  0  2  0  0  0  0  0  0  0  0  0
   29.5215  -19.7648  -12.8046 C   0  0  0  0  0  0  0  0  0  0  0  0
   27.2540  -20.7920  -13.0561 C   0  0  2  0  0  0  0  0  0  0  0  0
   27.0495  -20.1757  -14.3556 N   0  0  0  0  0  0  0  0  0  0  0  0
   26.6366  -19.9635  -11.9829 C   0  0  0  0  0  0  0  0  0  0  0  0
   26.7326  -18.7258  -11.9281 O   0  0  0  0  0  0  0  0  0  0  0  0
   25.8776  -20.5580  -10.9252 N   0  0  0  0  0  0  0  0  0  0  0  0
   25.2665  -19.8694   -9.8587 C   0  0  1  0  0  0  0  0  0  0  0  0
   23.8609  -19.4249  -10.0447 C   0  0  0  0  0  0  0  0  0  0  0  0
   22.8971  -20.4890   -9.6507 C   0  0  0  0  0  0  0  0  0  0  0  0
   22.6207  -21.0252   -8.4163 C   0  0  0  0  0  0  0  0  0  0  0  0
   21.6576  -21.9784   -8.5524 N   0  0  0  0  0  0  0  0  0  0  0  0
   21.2959  -22.0808   -9.8428 C   0  0  0  0  0  0  0  0  0  0  0  0
   20.3814  -22.8768  -10.5010 C   0  0  0  0  0  0  0  0  0  0  0  0
   20.1827  -22.7973  -11.8678 C   0  0  0  0  0  0  0  0  0  0  0  0
   20.9387  -21.8821  -12.5700 C   0  0  0  0  0  0  0  0  0  0  0  0
   21.8516  -21.0885  -11.9090 C   0  0  0  0  0  0  0  0  0  0  0  0
   22.0556  -21.1638  -10.5360 C   0  0  0  0  0  0  0  0  0  0  0  0
   25.3650  -20.7035   -8.6398 C   0  0  0  0  0  0  0  0  0  0  0  0
   25.0949  -20.2276   -7.3743 O   0  0  0  0  0  0  0  0  0  0  0  0
   25.7103  -21.8972   -8.7691 O   0  0  0  0  0  0  0  0  0  0  0  0
  1  2  1  0
  3  2  1  0
  4  3  1  0
  5  4  1  0
  5  1  1  0
  5  6  1  1
  6 13  1  0
  7  6  2  0
  9  8  1  0
 10  9  1  0
 10 11  1  1
 12 13  1  6
 12 10  1  0
 14 16  1  0
 14 12  1  0
 15 14  2  0
 17 16  1  0
 17 28  1  0
 17 18  1  6
 19 18  1  0
 20 19  2  0
 21 22  1  0
 21 20  1  0
 22 27  2  0
 23 22  1  0
 23 24  2  0
 24 25  1  0
 25 26  2  0
 27 19  1  0
 27 26  1  0
 28 30  2  0
 28 29  1  0
M  END
$$$$
