PIW.pdb
     RDKit          3D

 30 32  0  0  1  0  0  0  0  0999 V2000
   28.3580  -21.2973  -15.4421 N   0  0  0  0  0  0  0  0  0  0  0  0
   28.8533  -20.4845  -16.5209 C   0  0  0  0  0  0  0  0  0  0  0  0
   28.2206  -19.1267  -16.4030 C   0  0  0  0  0  0  0  0  0  0  0  0
   27.1430  -19.3529  -15.3382 C   0  0  0  0  0  0  0  0  0  0  0  0
   27.8151  -20.3922  -14.4728 C   0  0  1  0  0  0  0  0  0  0  0  0
   26.8903  -21.0202  -13.5251 C   0  0  0  0  0  0  0  0  0  0  0  0
   26.2089  -22.0086  -13.8650 O   0  0  0  0  0  0  0  0  0  0  0  0
   27.2575  -20.0051   -8.0270 C   0  0  0  0  0  0  0  0  0  0  0  0
   27.0353  -20.6504   -9.3617 C   0  0  0  0  0  0  0  0  0  0  0  0
   25.7300  -20.2082   -9.9949 C   0  0  2  0  0  0  0  0  0  0  0  0
   24.5660  -20.5663   -9.1125 C   0  0  0  0  0  0  0  0  0  0  0  0
   25.5794  -20.7663  -11.3913 C   0  0  2  0  0  0  0  0  0  0  0  0
   26.7586  -20.5066  -12.1990 N   0  0  0  0  0  0  0  0  0  0  0  0
   24.3610  -20.2286  -12.0590 C   0  0  0  0  0  0  0  0  0  0  0  0
   24.2154  -19.0332  -12.3656 O   0  0  0  0  0  0  0  0  0  0  0  0
   23.2588  -21.0772  -12.3953 N   0  0  0  0  0  0  0  0  0  0  0  0
   22.0775  -20.6766  -13.0504 C   0  0  1  0  0  0  0  0  0  0  0  0
   21.7693  -21.3113  -14.3581 C   0  0  0  0  0  0  0  0  0  0  0  0
   22.2306  -20.4676  -15.4946 C   0  0  0  0  0  0  0  0  0  0  0  0
   23.4990  -20.2238  -15.9632 C   0  0  0  0  0  0  0  0  0  0  0  0
   23.4231  -19.3823  -17.0313 N   0  0  0  0  0  0  0  0  0  0  0  0
   22.1391  -19.0685  -17.2747 C   0  0  0  0  0  0  0  0  0  0  0  0
   21.5312  -18.2705  -18.2217 C   0  0  0  0  0  0  0  0  0  0  0  0
   20.1593  -18.0993  -18.2718 C   0  0  0  0  0  0  0  0  0  0  0  0
   19.3992  -18.7613  -17.3304 C   0  0  0  0  0  0  0  0  0  0  0  0
   20.0101  -19.5579  -16.3857 C   0  0  0  0  0  0  0  0  0  0  0  0
   21.3880  -19.7337  -16.3304 C   0  0  0  0  0  0  0  0  0  0  0  0
   20.9370  -20.8673  -12.1263 C   0  0  0  0  0  0  0  0  0  0  0  0
   21.0390  -21.5435  -10.9291 O   0  0  0  0  0  0  0  0  0  0  0  0
   19.8291  -20.3903  -12.4515 O   0  0  0  0  0  0  0  0  0  0  0  0
  1  2  1  0
  3  2  1  0
  4  3  1  0
  5  4  1  0
  5  1  1  0
  5  6  1  1
  6 13  1  0
  7  6  2  0
  9  8  1  0
 10  9  1  0
 10 11  1  1
 12 13  1  6
 12 10  1  0
 14 16  1  0
 14 12  1  0
 15 14  2  0
 17 16  1  0
 17 28  1  0
 17 18  1  6
 19 18  1  0
 20 19  2  0
 21 22  1  0
 21 20  1  0
 22 27  2  0
 23 22  1  0
 23 24  2  0
 24 25  1  0
 25 26  2  0
 27 19  1  0
 27 26  1  0
 28 30  2  0
 28 29  1  0
M  END
$$$$
