PIW.pdb
     RDKit          3D

 30 32  0  0  1  0  0  0  0  0999 V2000
   26.7064  -15.7230  -15.0783 N   0  0  0  0  0  0  0  0  0  0  0  0
   26.8604  -14.7243  -16.1022 C   0  0  0  0  0  0  0  0  0  0  0  0
   25.7194  -14.8749  -17.0683 C   0  0  0  0  0  0  0  0  0  0  0  0
   25.0893  -16.2020  -16.6348 C   0  0  0  0  0  0  0  0  0  0  0  0
   25.3444  -16.1630  -15.1468 C   0  0  1  0  0  0  0  0  0  0  0  0
   25.1036  -17.4555  -14.4995 C   0  0  0  0  0  0  0  0  0  0  0  0
   23.9597  -17.9537  -14.4850 O   0  0  0  0  0  0  0  0  0  0  0  0
   29.1174  -21.2544  -14.8206 C   0  0  0  0  0  0  0  0  0  0  0  0
   28.3064  -20.2405  -14.0712 C   0  0  0  0  0  0  0  0  0  0  0  0
   26.8177  -20.5054  -14.1898 C   0  0  2  0  0  0  0  0  0  0  0  0
   26.3973  -20.5254  -15.6336 C   0  0  0  0  0  0  0  0  0  0  0  0
   26.0165  -19.5150  -13.3766 C   0  0  2  0  0  0  0  0  0  0  0  0
   26.1780  -18.1607  -13.8766 N   0  0  0  0  0  0  0  0  0  0  0  0
   26.3777  -19.5847  -11.9330 C   0  0  0  0  0  0  0  0  0  0  0  0
   27.1695  -18.8004  -11.3833 O   0  0  0  0  0  0  0  0  0  0  0  0
   25.8207  -20.5830  -11.0721 N   0  0  0  0  0  0  0  0  0  0  0  0
   26.1677  -20.7984   -9.7236 C   0  0  1  0  0  0  0  0  0  0  0  0
   25.8982  -19.6983   -8.7618 C   0  0  0  0  0  0  0  0  0  0  0  0
   26.2482  -20.0944   -7.3701 C   0  0  0  0  0  0  0  0  0  0  0  0
   25.6003  -20.9322   -6.4947 C   0  0  0  0  0  0  0  0  0  0  0  0
   26.3037  -20.9863   -5.3298 N   0  0  0  0  0  0  0  0  0  0  0  0
   27.3948  -20.2065   -5.4188 C   0  0  0  0  0  0  0  0  0  0  0  0
   28.4156  -19.9164   -4.5373 C   0  0  0  0  0  0  0  0  0  0  0  0
   29.4540  -19.0633   -4.8657 C   0  0  0  0  0  0  0  0  0  0  0  0
   29.4417  -18.4984   -6.1239 C   0  0  0  0  0  0  0  0  0  0  0  0
   28.4200  -18.7906   -7.0020 C   0  0  0  0  0  0  0  0  0  0  0  0
   27.3741  -19.6469   -6.6777 C   0  0  0  0  0  0  0  0  0  0  0  0
   25.5052  -22.0372   -9.2574 C   0  0  0  0  0  0  0  0  0  0  0  0
   26.1610  -23.0278   -8.5578 O   0  0  0  0  0  0  0  0  0  0  0  0
   24.2917  -22.1884   -9.5130 O   0  0  0  0  0  0  0  0  0  0  0  0
  1  2  1  0
  3  2  1  0
  4  3  1  0
  5  4  1  0
  5  1  1  0
  5  6  1  6
  6 13  1  0
  7  6  2  0
  9  8  1  0
 10  9  1  0
 10 11  1  6
 12 13  1  6
 12 10  1  0
 14 16  1  0
 14 12  1  0
 15 14  2  0
 17 16  1  0
 17 28  1  0
 17 18  1  1
 19 18  1  0
 20 19  2  0
 21 22  1  0
 21 20  1  0
 22 27  2  0
 23 22  1  0
 23 24  2  0
 24 25  1  0
 25 26  2  0
 27 19  1  0
 27 26  1  0
 28 30  2  0
 28 29  1  0
M  END
$$$$
