PPL.pdb
     RDKit          3D

 23 24  0  0  1  0  0  0  0  0999 V2000
    8.4851  -15.0592   18.6439 N   0  0  0  0  0  0  0  0  0  0  0  0
    9.0209  -14.2951   17.4952 C   0  0  0  0  0  0  0  0  0  0  0  0
    7.9145  -13.2574   17.3377 C   0  0  0  0  0  0  0  0  0  0  0  0
    7.4163  -13.0394   18.7701 C   0  0  0  0  0  0  0  0  0  0  0  0
    8.2911  -13.9881   19.5728 C   0  0  1  0  0  0  0  0  0  0  0  0
    7.7555  -14.3211   20.8828 C   0  0  0  0  0  0  0  0  0  0  0  0
    7.2956  -13.3719   21.6395 O   0  0  0  0  0  0  0  0  0  0  0  0
    7.7091  -15.6316   21.3792 N   0  0  0  0  0  0  0  0  0  0  0  0
    8.4382  -16.7511   20.7353 C   0  0  0  0  0  0  0  0  0  0  0  0
    7.8462  -18.0123   21.2773 C   0  0  0  0  0  0  0  0  0  0  0  0
    6.6213  -17.5814   22.0166 C   0  0  0  0  0  0  0  0  0  0  0  0
    7.0276  -16.1870   22.4952 C   0  0  1  0  0  0  0  0  0  0  0  0
    7.9672  -16.3205   23.6677 C   0  0  0  0  0  0  0  0  0  0  0  0
    9.1587  -16.6214   23.4149 O   0  0  0  0  0  0  0  0  0  0  0  0
    7.3362  -13.3658   28.2375 C   0  0  0  0  0  0  0  0  0  0  0  0
    7.2815  -12.7935   26.8106 C   0  0  2  0  0  0  0  0  0  0  0  0
    6.2873  -11.6694   26.8053 C   0  0  0  0  0  0  0  0  0  0  0  0
    6.9540  -13.9284   25.9176 C   0  0  0  0  0  0  0  0  0  0  0  0
    7.9676  -15.0149   25.8001 C   0  0  2  0  0  0  0  0  0  0  0  0
    7.5324  -16.1168   25.0006 N   0  0  0  0  0  0  0  0  0  0  0  0
    8.5204  -15.4714   27.1000 C   0  0  0  0  0  0  0  0  0  0  0  0
    9.3660  -14.8092   27.7531 O   0  0  0  0  0  0  0  0  0  0  0  0
    8.1159  -16.6848   27.6671 O   0  0  0  0  0  0  0  0  0  0  0  0
  1  5  1  0
  1  2  1  0
  2  3  1  0
  4  3  1  0
  5  6  1  1
  5  4  1  0
  6  7  2  0
  6  8  1  0
  8  9  1  0
 10  9  1  0
 11 10  1  0
 11 12  1  0
 12  8  1  0
 13 20  1  0
 12 13  1  1
 14 13  2  0
 16 15  1  1
 17 16  1  0
 18 16  1  0
 19 20  1  0
 19 18  1  1
 21 19  1  0
 22 21  2  0
 23 21  1  0
M  END
$$$$
