PPL.pdb
     RDKit          3D

 23 24  0  0  1  0  0  0  0  0999 V2000
    5.7976  -18.4944   20.5927 N   0  0  0  0  0  0  0  0  0  0  0  0
    4.3286  -18.5340   20.4168 C   0  0  0  0  0  0  0  0  0  0  0  0
    3.8995  -17.7631   21.6607 C   0  0  0  0  0  0  0  0  0  0  0  0
    5.0354  -16.7571   21.8728 C   0  0  0  0  0  0  0  0  0  0  0  0
    5.9831  -17.0821   20.7301 C   0  0  1  0  0  0  0  0  0  0  0  0
    7.3391  -16.5970   20.9299 C   0  0  0  0  0  0  0  0  0  0  0  0
    8.3050  -17.4536   21.0654 O   0  0  0  0  0  0  0  0  0  0  0  0
    7.6631  -15.2341   20.9852 N   0  0  0  0  0  0  0  0  0  0  0  0
    6.6368  -14.1687   20.8803 C   0  0  0  0  0  0  0  0  0  0  0  0
    7.3688  -12.9005   20.5795 C   0  0  0  0  0  0  0  0  0  0  0  0
    8.7662  -13.3232   20.2619 C   0  0  0  0  0  0  0  0  0  0  0  0
    8.9125  -14.5734   21.1304 C   0  0  1  0  0  0  0  0  0  0  0  0
    9.1200  -14.1575   22.5655 C   0  0  0  0  0  0  0  0  0  0  0  0
    9.7050  -13.0660   22.7662 O   0  0  0  0  0  0  0  0  0  0  0  0
    7.9090  -12.6485   26.9551 C   0  0  0  0  0  0  0  0  0  0  0  0
    6.7052  -12.7301   26.0008 C   0  0  2  0  0  0  0  0  0  0  0  0
    5.6128  -13.4813   26.7040 C   0  0  0  0  0  0  0  0  0  0  0  0
    7.2013  -13.3588   24.7553 C   0  0  0  0  0  0  0  0  0  0  0  0
    8.2486  -14.4101   24.8954 C   0  0  2  0  0  0  0  0  0  0  0  0
    8.6770  -14.9584   23.6469 N   0  0  0  0  0  0  0  0  0  0  0  0
    7.9098  -15.4772   25.8701 C   0  0  0  0  0  0  0  0  0  0  0  0
    8.2550  -15.4340   27.0779 O   0  0  0  0  0  0  0  0  0  0  0  0
    7.1757  -16.6021   25.4784 O   0  0  0  0  0  0  0  0  0  0  0  0
  1  5  1  0
  1  2  1  0
  2  3  1  0
  4  3  1  0
  5  6  1  1
  5  4  1  0
  6  7  2  0
  6  8  1  0
  8  9  1  0
 10  9  1  0
 11 10  1  0
 11 12  1  0
 12  8  1  0
 13 20  1  0
 12 13  1  1
 14 13  2  0
 16 15  1  1
 17 16  1  0
 18 16  1  0
 19 20  1  0
 19 18  1  6
 21 19  1  0
 22 21  2  0
 23 21  1  0
M  END
$$$$
