PPL.pdb
     RDKit          3D

 23 24  0  0  1  0  0  0  0  0999 V2000
    9.4662  -18.3705   18.9165 N   0  0  0  0  0  0  0  0  0  0  0  0
    8.4441  -19.2446   18.2986 C   0  0  0  0  0  0  0  0  0  0  0  0
    7.7523  -19.7605   19.5559 C   0  0  0  0  0  0  0  0  0  0  0  0
    7.8656  -18.5896   20.5375 C   0  0  0  0  0  0  0  0  0  0  0  0
    8.6192  -17.5489   19.7260 C   0  0  1  0  0  0  0  0  0  0  0  0
    9.2517  -16.5159   20.5303 C   0  0  0  0  0  0  0  0  0  0  0  0
   10.5379  -16.3563   20.4593 O   0  0  0  0  0  0  0  0  0  0  0  0
    8.5358  -15.6715   21.3907 N   0  0  0  0  0  0  0  0  0  0  0  0
    7.0547  -15.6838   21.4649 C   0  0  0  0  0  0  0  0  0  0  0  0
    6.6526  -14.4208   22.1562 C   0  0  0  0  0  0  0  0  0  0  0  0
    7.8991  -13.5998   22.2238 C   0  0  0  0  0  0  0  0  0  0  0  0
    8.9746  -14.6833   22.3124 C   0  0  1  0  0  0  0  0  0  0  0  0
    8.9957  -15.2465   23.7116 C   0  0  0  0  0  0  0  0  0  0  0  0
    8.0793  -16.0457   24.0207 O   0  0  0  0  0  0  0  0  0  0  0  0
    8.8836  -13.5617   29.1700 C   0  0  0  0  0  0  0  0  0  0  0  0
    9.6082  -14.6823   28.4048 C   0  0  2  0  0  0  0  0  0  0  0  0
   11.0271  -14.7266   28.8916 C   0  0  0  0  0  0  0  0  0  0  0  0
    9.4455  -14.3778   26.9648 C   0  0  0  0  0  0  0  0  0  0  0  0
   10.0082  -15.3599   25.9949 C   0  0  2  0  0  0  0  0  0  0  0  0
   10.0028  -14.8941   24.6436 N   0  0  0  0  0  0  0  0  0  0  0  0
    9.4254  -16.7208   26.1032 C   0  0  0  0  0  0  0  0  0  0  0  0
    8.2028  -16.9562   25.9303 O   0  0  0  0  0  0  0  0  0  0  0  0
   10.2287  -17.8248   26.4092 O   0  0  0  0  0  0  0  0  0  0  0  0
  1  5  1  0
  1  2  1  0
  2  3  1  0
  4  3  1  0
  5  6  1  1
  5  4  1  0
  6  7  2  0
  6  8  1  0
  8  9  1  0
 10  9  1  0
 11 10  1  0
 11 12  1  0
 12  8  1  0
 13 20  1  0
 12 13  1  1
 14 13  2  0
 16 15  1  1
 17 16  1  0
 18 16  1  0
 19 20  1  0
 19 18  1  1
 21 19  1  0
 22 21  2  0
 23 21  1  0
M  END
$$$$
