PPL.pdb
     RDKit          3D

 23 24  0  0  1  0  0  0  0  0999 V2000
    6.9608  -18.9623   20.1267 N   0  0  0  0  0  0  0  0  0  0  0  0
    5.5513  -19.3717   19.9365 C   0  0  0  0  0  0  0  0  0  0  0  0
    4.9592  -18.8748   21.2511 C   0  0  0  0  0  0  0  0  0  0  0  0
    5.7926  -17.6309   21.5759 C   0  0  0  0  0  0  0  0  0  0  0  0
    6.7689  -17.5733   20.4127 C   0  0  1  0  0  0  0  0  0  0  0  0
    7.9520  -16.7692   20.6725 C   0  0  0  0  0  0  0  0  0  0  0  0
    9.1172  -17.3412   20.6825 O   0  0  0  0  0  0  0  0  0  0  0  0
    7.9003  -15.3896   20.9166 N   0  0  0  0  0  0  0  0  0  0  0  0
    6.6252  -14.6323   20.9284 C   0  0  0  0  0  0  0  0  0  0  0  0
    6.9879  -13.1863   20.8174 C   0  0  0  0  0  0  0  0  0  0  0  0
    8.4438  -13.1744   20.4819 C   0  0  0  0  0  0  0  0  0  0  0  0
    8.9290  -14.4456   21.1799 C   0  0  1  0  0  0  0  0  0  0  0  0
    9.0338  -14.1870   22.6623 C   0  0  0  0  0  0  0  0  0  0  0  0
    9.9465  -13.4162   23.0456 O   0  0  0  0  0  0  0  0  0  0  0  0
    5.4039  -12.2455   26.6755 C   0  0  0  0  0  0  0  0  0  0  0  0
    6.7621  -12.9656   26.6187 C   0  0  2  0  0  0  0  0  0  0  0  0
    7.8127  -11.9998   27.0830 C   0  0  0  0  0  0  0  0  0  0  0  0
    6.9209  -13.4489   25.2281 C   0  0  0  0  0  0  0  0  0  0  0  0
    8.0570  -14.3748   24.9563 C   0  0  2  0  0  0  0  0  0  0  0  0
    8.1447  -14.7841   23.5896 N   0  0  0  0  0  0  0  0  0  0  0  0
    8.1257  -15.5369   25.8773 C   0  0  0  0  0  0  0  0  0  0  0  0
    7.2727  -16.4602   25.8769 O   0  0  0  0  0  0  0  0  0  0  0  0
    9.1650  -15.6579   26.8061 O   0  0  0  0  0  0  0  0  0  0  0  0
  1  5  1  0
  1  2  1  0
  2  3  1  0
  4  3  1  0
  5  6  1  1
  5  4  1  0
  6  7  2  0
  6  8  1  0
  8  9  1  0
 10  9  1  0
 11 10  1  0
 11 12  1  0
 12  8  1  0
 13 20  1  0
 12 13  1  1
 14 13  2  0
 16 15  1  6
 17 16  1  0
 18 16  1  0
 19 20  1  0
 19 18  1  6
 21 19  1  0
 22 21  2  0
 23 21  1  0
M  END
$$$$
