PPL.pdb
     RDKit          3D

 23 24  0  0  1  0  0  0  0  0999 V2000
    6.9711  -19.1636   20.9935 N   0  0  0  0  0  0  0  0  0  0  0  0
    5.5651  -19.6227   21.0475 C   0  0  0  0  0  0  0  0  0  0  0  0
    5.1512  -19.0274   22.3891 C   0  0  0  0  0  0  0  0  0  0  0  0
    5.9760  -17.7397   22.4834 C   0  0  0  0  0  0  0  0  0  0  0  0
    6.7711  -17.7601   21.1884 C   0  0  1  0  0  0  0  0  0  0  0  0
    7.9487  -16.9075   21.2037 C   0  0  0  0  0  0  0  0  0  0  0  0
    9.1254  -17.4510   21.1332 O   0  0  0  0  0  0  0  0  0  0  0  0
    7.8796  -15.5100   21.2921 N   0  0  0  0  0  0  0  0  0  0  0  0
    6.5897  -14.7809   21.3556 C   0  0  0  0  0  0  0  0  0  0  0  0
    6.8927  -13.3513   21.0407 C   0  0  0  0  0  0  0  0  0  0  0  0
    8.3038  -13.3512   20.5496 C   0  0  0  0  0  0  0  0  0  0  0  0
    8.9001  -14.5223   21.3318 C   0  0  1  0  0  0  0  0  0  0  0  0
    9.1532  -14.0894   22.7544 C   0  0  0  0  0  0  0  0  0  0  0  0
    9.5325  -12.9071   22.9340 O   0  0  0  0  0  0  0  0  0  0  0  0
    5.8236  -12.3248   26.3891 C   0  0  0  0  0  0  0  0  0  0  0  0
    7.1813  -13.0260   26.5665 C   0  0  2  0  0  0  0  0  0  0  0  0
    8.1302  -12.0390   27.1810 C   0  0  0  0  0  0  0  0  0  0  0  0
    7.5714  -13.5257   25.2283 C   0  0  0  0  0  0  0  0  0  0  0  0
    8.6797  -14.5209   25.1713 C   0  0  2  0  0  0  0  0  0  0  0  0
    8.9730  -14.9726   23.8474 N   0  0  0  0  0  0  0  0  0  0  0  0
    8.5217  -15.6588   26.1114 C   0  0  0  0  0  0  0  0  0  0  0  0
    8.7937  -15.5762   27.3358 O   0  0  0  0  0  0  0  0  0  0  0  0
    8.0533  -16.8997   25.6661 O   0  0  0  0  0  0  0  0  0  0  0  0
  1  5  1  0
  1  2  1  0
  2  3  1  0
  4  3  1  0
  5  6  1  1
  5  4  1  0
  6  7  2  0
  6  8  1  0
  8  9  1  0
 10  9  1  0
 11 10  1  0
 11 12  1  0
 12  8  1  0
 13 20  1  0
 12 13  1  1
 14 13  2  0
 16 15  1  6
 17 16  1  0
 18 16  1  0
 19 20  1  0
 19 18  1  6
 21 19  1  0
 22 21  2  0
 23 21  1  0
M  END
$$$$
