PPL.pdb
     RDKit          3D

 23 24  0  0  1  0  0  0  0  0999 V2000
    7.3528  -19.2752   20.8367 N   0  0  0  0  0  0  0  0  0  0  0  0
    6.0050  -19.8861   20.8667 C   0  0  0  0  0  0  0  0  0  0  0  0
    5.5665  -19.4734   22.2678 C   0  0  0  0  0  0  0  0  0  0  0  0
    6.2530  -18.1200   22.4779 C   0  0  0  0  0  0  0  0  0  0  0  0
    7.0111  -17.9274   21.1749 C   0  0  1  0  0  0  0  0  0  0  0  0
    8.0921  -16.9586   21.2570 C   0  0  0  0  0  0  0  0  0  0  0  0
    9.3165  -17.3608   21.1019 O   0  0  0  0  0  0  0  0  0  0  0  0
    7.8791  -15.5941   21.4984 N   0  0  0  0  0  0  0  0  0  0  0  0
    6.5330  -15.0372   21.7762 C   0  0  0  0  0  0  0  0  0  0  0  0
    6.6356  -13.5584   21.5823 C   0  0  0  0  0  0  0  0  0  0  0  0
    7.9695  -13.3407   20.9453 C   0  0  0  0  0  0  0  0  0  0  0  0
    8.7810  -14.4967   21.5317 C   0  0  1  0  0  0  0  0  0  0  0  0
    9.1518  -14.1682   22.9565 C   0  0  0  0  0  0  0  0  0  0  0  0
    9.8567  -13.1474   23.1436 O   0  0  0  0  0  0  0  0  0  0  0  0
    6.5115  -12.5187   24.7705 C   0  0  0  0  0  0  0  0  0  0  0  0
    7.1350  -13.0620   26.0676 C   0  0  2  0  0  0  0  0  0  0  0  0
    6.8326  -12.0851   27.1659 C   0  0  0  0  0  0  0  0  0  0  0  0
    8.5742  -13.2670   25.7855 C   0  0  0  0  0  0  0  0  0  0  0  0
    9.0028  -14.6435   25.4068 C   0  0  2  0  0  0  0  0  0  0  0  0
    8.7270  -14.9717   24.0433 N   0  0  0  0  0  0  0  0  0  0  0  0
    8.5228  -15.7032   26.3288 C   0  0  0  0  0  0  0  0  0  0  0  0
    8.6969  -15.6566   27.5728 O   0  0  0  0  0  0  0  0  0  0  0  0
    7.8413  -16.8244   25.8430 O   0  0  0  0  0  0  0  0  0  0  0  0
  1  5  1  0
  1  2  1  0
  2  3  1  0
  4  3  1  0
  5  6  1  1
  5  4  1  0
  6  7  2  0
  6  8  1  0
  8  9  1  0
 10  9  1  0
 11 10  1  0
 11 12  1  0
 12  8  1  0
 13 20  1  0
 12 13  1  1
 14 13  2  0
 16 15  1  6
 17 16  1  0
 18 16  1  0
 19 20  1  0
 19 18  1  1
 21 19  1  0
 22 21  2  0
 23 21  1  0
M  END
$$$$
