PPL.pdb
     RDKit          3D

 23 24  0  0  1  0  0  0  0  0999 V2000
    8.9264  -14.8264   18.5236 N   0  0  0  0  0  0  0  0  0  0  0  0
    9.2147  -13.9280   17.3832 C   0  0  0  0  0  0  0  0  0  0  0  0
    7.8211  -13.3549   17.1484 C   0  0  0  0  0  0  0  0  0  0  0  0
    7.2029  -13.3209   18.5498 C   0  0  0  0  0  0  0  0  0  0  0  0
    8.3145  -13.8899   19.4159 C   0  0  1  0  0  0  0  0  0  0  0  0
    7.8643  -14.3847   20.7068 C   0  0  0  0  0  0  0  0  0  0  0  0
    6.9879  -13.7008   21.3770 O   0  0  0  0  0  0  0  0  0  0  0  0
    8.3335  -15.5779   21.2741 N   0  0  0  0  0  0  0  0  0  0  0  0
    9.5272  -16.2886   20.7552 C   0  0  0  0  0  0  0  0  0  0  0  0
    9.4801  -17.6707   21.3230 C   0  0  0  0  0  0  0  0  0  0  0  0
    8.1244  -17.7927   21.9392 C   0  0  0  0  0  0  0  0  0  0  0  0
    7.8509  -16.3496   22.3650 C   0  0  1  0  0  0  0  0  0  0  0  0
    8.6422  -16.0433   23.6122 C   0  0  0  0  0  0  0  0  0  0  0  0
    9.8670  -15.8116   23.4704 O   0  0  0  0  0  0  0  0  0  0  0  0
    5.7176  -12.3064   26.9752 C   0  0  0  0  0  0  0  0  0  0  0  0
    7.1021  -12.9767   26.9597 C   0  0  2  0  0  0  0  0  0  0  0  0
    8.1238  -11.9121   26.6862 C   0  0  0  0  0  0  0  0  0  0  0  0
    7.0320  -14.0570   25.9494 C   0  0  0  0  0  0  0  0  0  0  0  0
    8.2238  -14.9426   25.8179 C   0  0  2  0  0  0  0  0  0  0  0  0
    8.0372  -16.0162   24.8930 N   0  0  0  0  0  0  0  0  0  0  0  0
    8.7640  -15.4281   27.1125 C   0  0  0  0  0  0  0  0  0  0  0  0
    9.8878  -15.0819   27.5567 O   0  0  0  0  0  0  0  0  0  0  0  0
    8.0304  -16.3115   27.9119 O   0  0  0  0  0  0  0  0  0  0  0  0
  1  5  1  0
  1  2  1  0
  2  3  1  0
  4  3  1  0
  5  6  1  1
  5  4  1  0
  6  7  2  0
  6  8  1  0
  8  9  1  0
 10  9  1  0
 11 10  1  0
 11 12  1  0
 12  8  1  0
 13 20  1  0
 12 13  1  1
 14 13  2  0
 16 15  1  6
 17 16  1  0
 18 16  1  0
 19 20  1  0
 19 18  1  1
 21 19  1  0
 22 21  2  0
 23 21  1  0
M  END
$$$$
