PPL.pdb
     RDKit          3D

 23 24  0  0  1  0  0  0  0  0999 V2000
   11.3402  -16.7907   19.3454 N   0  0  0  0  0  0  0  0  0  0  0  0
   12.0114  -18.0384   18.9172 C   0  0  0  0  0  0  0  0  0  0  0  0
   12.2335  -18.6911   20.2774 C   0  0  0  0  0  0  0  0  0  0  0  0
   11.0321  -18.2220   21.1044 C   0  0  0  0  0  0  0  0  0  0  0  0
   10.2734  -17.3478   20.1197 C   0  0  1  0  0  0  0  0  0  0  0  0
    9.3413  -16.4238   20.7452 C   0  0  0  0  0  0  0  0  0  0  0  0
    9.5575  -15.1471   20.6545 O   0  0  0  0  0  0  0  0  0  0  0  0
    8.2055  -16.8446   21.4514 N   0  0  0  0  0  0  0  0  0  0  0  0
    7.7734  -18.2629   21.4883 C   0  0  0  0  0  0  0  0  0  0  0  0
    6.3593  -18.2646   21.9730 C   0  0  0  0  0  0  0  0  0  0  0  0
    5.9377  -16.8314   21.9496 C   0  0  0  0  0  0  0  0  0  0  0  0
    7.2620  -16.1184   22.2265 C   0  0  1  0  0  0  0  0  0  0  0  0
    7.5901  -16.2363   23.6941 C   0  0  0  0  0  0  0  0  0  0  0  0
    8.3097  -17.2026   24.0438 O   0  0  0  0  0  0  0  0  0  0  0  0
    8.1278  -12.1507   25.6114 C   0  0  0  0  0  0  0  0  0  0  0  0
    6.7861  -12.8212   25.9529 C   0  0  2  0  0  0  0  0  0  0  0  0
    5.9380  -11.8112   26.6690 C   0  0  0  0  0  0  0  0  0  0  0  0
    7.1129  -14.0363   26.7336 C   0  0  0  0  0  0  0  0  0  0  0  0
    7.6236  -15.2138   25.9756 C   0  0  2  0  0  0  0  0  0  0  0  0
    7.1109  -15.3010   24.6442 N   0  0  0  0  0  0  0  0  0  0  0  0
    7.4870  -16.5044   26.6963 C   0  0  0  0  0  0  0  0  0  0  0  0
    6.5953  -17.3476   26.4245 O   0  0  0  0  0  0  0  0  0  0  0  0
    8.3635  -16.8459   27.7320 O   0  0  0  0  0  0  0  0  0  0  0  0
  1  5  1  0
  1  2  1  0
  2  3  1  0
  4  3  1  0
  5  6  1  1
  5  4  1  0
  6  7  2  0
  6  8  1  0
  8  9  1  0
 10  9  1  0
 11 10  1  0
 11 12  1  0
 12  8  1  0
 13 20  1  0
 12 13  1  1
 14 13  2  0
 16 15  1  1
 17 16  1  0
 18 16  1  0
 19 20  1  0
 19 18  1  1
 21 19  1  0
 22 21  2  0
 23 21  1  0
M  END
$$$$
