ECV.pdb
     RDKit          3D

 23 22  0  0  1  0  0  0  0  0999 V2000
   19.4285  -12.0087  -15.4314 N   0  0  0  0  0  0  0  0  0  0  0  0
   18.8026  -11.1675  -16.3797 C   0  0  1  0  0  0  0  0  0  0  0  0
   17.5417  -11.6363  -17.0066 C   0  0  0  0  0  0  0  0  0  0  0  0
   17.4539  -13.0545  -17.4153 C   0  0  0  0  0  0  0  0  0  0  0  0
   17.4464  -14.0407  -16.3392 C   0  0  0  0  0  0  0  0  0  0  0  0
   18.4587  -14.5002  -15.7882 O   0  0  0  0  0  0  0  0  0  0  0  0
   18.5838   -9.7744  -15.8701 C   0  0  0  0  0  0  0  0  0  0  0  0
   18.1286   -8.9532  -16.7154 O   0  0  0  0  0  0  0  0  0  0  0  0
   16.1610  -14.4827  -15.9191 O   0  0  0  0  0  0  0  0  0  0  0  0
   18.8587   -9.3735  -14.5377 N   0  0  0  0  0  0  0  0  0  0  0  0
   18.6711   -8.0113  -14.1440 C   0  0  1  0  0  0  0  0  0  0  0  0
   17.6281   -7.8603  -13.0484 C   0  0  0  0  0  0  0  0  0  0  0  0
   16.1570   -8.8337  -13.3525 S   0  0  0  0  0  0  0  0  0  0  0  0
   19.9267   -7.3495  -13.7155 C   0  0  0  0  0  0  0  0  0  0  0  0
   20.6234   -7.9528  -12.8573 O   0  0  0  0  0  0  0  0  0  0  0  0
   23.0691   -7.1674  -15.1244 C   0  0  0  0  0  0  0  0  0  0  0  0
   22.7157   -5.7283  -14.8598 C   0  0  1  0  0  0  0  0  0  0  0  0
   22.3352   -5.0378  -16.1433 C   0  0  0  0  0  0  0  0  0  0  0  0
   21.6560   -5.5865  -13.7931 C   0  0  2  0  0  0  0  0  0  0  0  0
   20.3863   -6.1164  -14.1923 N   0  0  0  0  0  0  0  0  0  0  0  0
   21.5620   -4.1205  -13.4914 C   0  0  0  0  0  0  0  0  0  0  0  0
   22.5103   -3.4724  -12.7309 O   0  0  0  0  0  0  0  0  0  0  0  0
   20.5690   -3.5152  -13.9716 O   0  0  0  0  0  0  0  0  0  0  0  0
  2  1  1  1
  2  7  1  0
  3  2  1  0
  4  5  1  0
  4  3  1  0
  5  6  2  0
  7  8  2  0
  7 10  1  0
  9  5  1  0
 10 11  1  0
 11 14  1  0
 12 13  1  0
 11 12  1  1
 14 15  2  0
 14 20  1  0
 17 16  1  6
 17 18  1  0
 19 17  1  0
 19 20  1  6
 21 19  1  0
 21 22  1  0
 23 21  2  0
M  END
$$$$
