ECV.pdb
     RDKit          3D

 23 22  0  0  1  0  0  0  0  0999 V2000
   17.9608  -12.5865  -17.2369 N   0  0  0  0  0  0  0  0  0  0  0  0
   19.1026  -11.8930  -16.7744 C   0  0  1  0  0  0  0  0  0  0  0  0
   20.3304  -11.9325  -17.6073 C   0  0  0  0  0  0  0  0  0  0  0  0
   20.9240  -13.2526  -17.9084 C   0  0  0  0  0  0  0  0  0  0  0  0
   22.0774  -13.2567  -18.8031 C   0  0  0  0  0  0  0  0  0  0  0  0
   22.6035  -12.2442  -19.2902 O   0  0  0  0  0  0  0  0  0  0  0  0
   18.8163  -10.4626  -16.4277 C   0  0  0  0  0  0  0  0  0  0  0  0
   18.3031   -9.7727  -17.3533 O   0  0  0  0  0  0  0  0  0  0  0  0
   22.6088  -14.5390  -19.1154 O   0  0  0  0  0  0  0  0  0  0  0  0
   19.0908   -9.8922  -15.1584 N   0  0  0  0  0  0  0  0  0  0  0  0
   18.7761   -8.5203  -14.9040 C   0  0  1  0  0  0  0  0  0  0  0  0
   17.6222   -8.3590  -13.9276 C   0  0  0  0  0  0  0  0  0  0  0  0
   16.2386   -9.4298  -14.3062 S   0  0  0  0  0  0  0  0  0  0  0  0
   19.9371   -7.7355  -14.4196 C   0  0  0  0  0  0  0  0  0  0  0  0
   20.6692   -8.2798  -13.5516 O   0  0  0  0  0  0  0  0  0  0  0  0
   23.6239   -4.7196  -15.1571 C   0  0  0  0  0  0  0  0  0  0  0  0
   22.3966   -5.4709  -15.5988 C   0  0  1  0  0  0  0  0  0  0  0  0
   22.7860   -6.6847  -16.4011 C   0  0  0  0  0  0  0  0  0  0  0  0
   21.4876   -5.8121  -14.4419 C   0  0  2  0  0  0  0  0  0  0  0  0
   20.2721   -6.4479  -14.8544 N   0  0  0  0  0  0  0  0  0  0  0  0
   21.2111   -4.5193  -13.7340 C   0  0  0  0  0  0  0  0  0  0  0  0
   22.0825   -3.9996  -12.8022 O   0  0  0  0  0  0  0  0  0  0  0  0
   20.1390   -3.9354  -14.0385 O   0  0  0  0  0  0  0  0  0  0  0  0
  2  1  1  6
  2  7  1  0
  3  2  1  0
  4  5  1  0
  4  3  1  0
  5  6  2  0
  7  8  2  0
  7 10  1  0
  9  5  1  0
 10 11  1  0
 11 14  1  0
 12 13  1  0
 11 12  1  1
 14 15  2  0
 14 20  1  0
 17 16  1  1
 17 18  1  0
 19 17  1  0
 19 20  1  6
 21 19  1  0
 21 22  1  0
 23 21  2  0
M  END
$$$$
