ECV.pdb
     RDKit          3D

 23 22  0  0  1  0  0  0  0  0999 V2000
   23.6599  -21.0639  -17.5961 N   0  0  0  0  0  0  0  0  0  0  0  0
   24.1489  -20.0456  -16.7462 C   0  0  1  0  0  0  0  0  0  0  0  0
   23.1707  -19.1026  -16.1490 C   0  0  0  0  0  0  0  0  0  0  0  0
   22.2873  -18.3466  -17.0622 C   0  0  0  0  0  0  0  0  0  0  0  0
   22.7945  -17.0648  -17.5423 C   0  0  0  0  0  0  0  0  0  0  0  0
   22.4846  -15.9575  -17.0764 O   0  0  0  0  0  0  0  0  0  0  0  0
   25.0242  -20.5717  -15.6483 C   0  0  0  0  0  0  0  0  0  0  0  0
   24.5255  -21.5048  -14.9576 O   0  0  0  0  0  0  0  0  0  0  0  0
   23.7115  -17.1340  -18.6279 O   0  0  0  0  0  0  0  0  0  0  0  0
   26.3260  -20.0784  -15.3771 N   0  0  0  0  0  0  0  0  0  0  0  0
   27.0589  -20.5663  -14.2500 C   0  0  1  0  0  0  0  0  0  0  0  0
   28.5248  -20.1657  -14.2911 C   0  0  0  0  0  0  0  0  0  0  0  0
   28.7613  -18.4424  -14.7135 S   0  0  0  0  0  0  0  0  0  0  0  0
   26.4769  -20.1507  -12.9512 C   0  0  0  0  0  0  0  0  0  0  0  0
   26.0928  -18.9551  -12.8565 O   0  0  0  0  0  0  0  0  0  0  0  0
   23.9646  -20.6858   -8.8949 C   0  0  0  0  0  0  0  0  0  0  0  0
   24.5393  -21.2342  -10.1735 C   0  0  1  0  0  0  0  0  0  0  0  0
   23.4865  -21.2650  -11.2502 C   0  0  0  0  0  0  0  0  0  0  0  0
   25.7833  -20.4944  -10.6048 C   0  0  2  0  0  0  0  0  0  0  0  0
   26.3262  -20.9840  -11.8367 N   0  0  0  0  0  0  0  0  0  0  0  0
   26.7661  -20.6415   -9.4817 C   0  0  0  0  0  0  0  0  0  0  0  0
   26.6073  -19.9781   -8.2850 O   0  0  0  0  0  0  0  0  0  0  0  0
   27.7438  -21.4047   -9.6931 O   0  0  0  0  0  0  0  0  0  0  0  0
  2  1  1  1
  2  7  1  0
  3  2  1  0
  4  5  1  0
  4  3  1  0
  5  6  2  0
  7  8  2  0
  7 10  1  0
  9  5  1  0
 10 11  1  0
 11 14  1  0
 12 13  1  0
 11 12  1  6
 14 15  2  0
 14 20  1  0
 17 16  1  1
 17 18  1  0
 19 17  1  0
 19 20  1  6
 21 19  1  0
 21 22  1  0
 23 21  2  0
M  END
$$$$
