ECV.pdb
     RDKit          3D

 23 22  0  0  1  0  0  0  0  0999 V2000
   18.2189  -13.7131  -16.0947 N   0  0  0  0  0  0  0  0  0  0  0  0
   18.3781  -12.5742  -16.9170 C   0  0  1  0  0  0  0  0  0  0  0  0
   17.3260  -12.2847  -17.9230 C   0  0  0  0  0  0  0  0  0  0  0  0
   17.0045  -13.3335  -18.9142 C   0  0  0  0  0  0  0  0  0  0  0  0
   15.9581  -13.0142  -19.8806 C   0  0  0  0  0  0  0  0  0  0  0  0
   14.7672  -13.3456  -19.7751 O   0  0  0  0  0  0  0  0  0  0  0  0
   18.6376  -11.3213  -16.1352 C   0  0  0  0  0  0  0  0  0  0  0  0
   17.8244  -11.0899  -15.1964 O   0  0  0  0  0  0  0  0  0  0  0  0
   16.3768  -12.2649  -21.0152 O   0  0  0  0  0  0  0  0  0  0  0  0
   19.7120  -10.4356  -16.4050 N   0  0  0  0  0  0  0  0  0  0  0  0
   19.8963   -9.2647  -15.6046 C   0  0  1  0  0  0  0  0  0  0  0  0
   21.3375   -9.0878  -15.1548 C   0  0  0  0  0  0  0  0  0  0  0  0
   21.5762   -7.6251  -14.1509 S   0  0  0  0  0  0  0  0  0  0  0  0
   19.4392   -8.0229  -16.2735 C   0  0  0  0  0  0  0  0  0  0  0  0
   19.8028   -7.8528  -17.4671 O   0  0  0  0  0  0  0  0  0  0  0  0
   16.5342   -4.2428  -17.1119 C   0  0  0  0  0  0  0  0  0  0  0  0
   16.8437   -5.5745  -16.4821 C   0  0  1  0  0  0  0  0  0  0  0  0
   16.1405   -6.6808  -17.2240 C   0  0  0  0  0  0  0  0  0  0  0  0
   18.3293   -5.8171  -16.3584 C   0  0  2  0  0  0  0  0  0  0  0  0
   18.6416   -7.0386  -15.6783 N   0  0  0  0  0  0  0  0  0  0  0  0
   18.8857   -4.6314  -15.6282 C   0  0  0  0  0  0  0  0  0  0  0  0
   19.2329   -4.6947  -14.2967 O   0  0  0  0  0  0  0  0  0  0  0  0
   19.0181   -3.5754  -16.2994 O   0  0  0  0  0  0  0  0  0  0  0  0
  2  1  1  1
  2  7  1  0
  3  2  1  0
  4  5  1  0
  4  3  1  0
  5  6  2  0
  7  8  2  0
  7 10  1  0
  9  5  1  0
 10 11  1  0
 11 14  1  0
 12 13  1  0
 11 12  1  6
 14 15  2  0
 14 20  1  0
 17 16  1  6
 17 18  1  0
 19 17  1  0
 19 20  1  1
 21 19  1  0
 21 22  1  0
 23 21  2  0
M  END
$$$$
