ECV.pdb
     RDKit          3D

 23 22  0  0  1  0  0  0  0  0999 V2000
   21.5147  -13.5971  -17.7482 N   0  0  0  0  0  0  0  0  0  0  0  0
   20.6863  -12.4557  -17.6503 C   0  0  1  0  0  0  0  0  0  0  0  0
   19.2367  -12.6618  -17.4074 C   0  0  0  0  0  0  0  0  0  0  0  0
   18.4941  -13.5395  -18.3368 C   0  0  0  0  0  0  0  0  0  0  0  0
   18.7740  -13.3639  -19.7586 C   0  0  0  0  0  0  0  0  0  0  0  0
   18.3135  -12.4557  -20.4675 O   0  0  0  0  0  0  0  0  0  0  0  0
   21.1906  -11.4517  -16.6573 C   0  0  0  0  0  0  0  0  0  0  0  0
   20.3982  -11.1793  -15.7117 O   0  0  0  0  0  0  0  0  0  0  0  0
   19.6455  -14.3280  -20.3374 O   0  0  0  0  0  0  0  0  0  0  0  0
   22.4634  -10.8319  -16.7445 N   0  0  0  0  0  0  0  0  0  0  0  0
   22.9104   -9.9591  -15.7033 C   0  0  1  0  0  0  0  0  0  0  0  0
   24.4018  -10.0858  -15.4376 C   0  0  0  0  0  0  0  0  0  0  0  0
   24.8934  -11.7570  -15.0255 S   0  0  0  0  0  0  0  0  0  0  0  0
   22.5795   -8.5356  -15.9530 C   0  0  0  0  0  0  0  0  0  0  0  0
   22.3201   -8.2121  -17.1421 O   0  0  0  0  0  0  0  0  0  0  0  0
   20.0851   -4.8060  -15.8926 C   0  0  0  0  0  0  0  0  0  0  0  0
   20.5850   -6.2002  -15.6238 C   0  0  1  0  0  0  0  0  0  0  0  0
   20.2643   -7.1045  -16.7849 C   0  0  0  0  0  0  0  0  0  0  0  0
   22.0516   -6.2224  -15.2640 C   0  0  2  0  0  0  0  0  0  0  0  0
   22.5357   -7.5385  -14.9716 N   0  0  0  0  0  0  0  0  0  0  0  0
   22.2044   -5.3125  -14.0818 C   0  0  0  0  0  0  0  0  0  0  0  0
   22.3503   -3.9504  -14.2267 O   0  0  0  0  0  0  0  0  0  0  0  0
   22.1916   -5.8622  -12.9501 O   0  0  0  0  0  0  0  0  0  0  0  0
  2  1  1  1
  2  7  1  0
  3  2  1  0
  4  5  1  0
  4  3  1  0
  5  6  2  0
  7  8  2  0
  7 10  1  0
  9  5  1  0
 10 11  1  0
 11 14  1  0
 12 13  1  0
 11 12  1  6
 14 15  2  0
 14 20  1  0
 17 16  1  6
 17 18  1  0
 19 17  1  0
 19 20  1  1
 21 19  1  0
 21 22  1  0
 23 21  2  0
M  END
$$$$
