VCD.pdb
     RDKit          3D

 22 21  0  0  1  0  0  0  0  0999 V2000
    8.1381  -16.4154   20.8176 C   0  0  0  0  0  0  0  0  0  0  0  0
    6.9659  -15.4866   20.8147 C   0  0  2  0  0  0  0  0  0  0  0  0
    6.2704  -15.5262   19.4718 C   0  0  0  0  0  0  0  0  0  0  0  0
    7.3327  -14.0509   21.0892 C   0  0  2  0  0  0  0  0  0  0  0  0
    8.1878  -13.5448   20.0232 N   0  0  0  0  0  0  0  0  0  0  0  0
    7.9953  -13.8357   22.3722 C   0  0  0  0  0  0  0  0  0  0  0  0
    9.2409  -13.7581   22.4470 O   0  0  0  0  0  0  0  0  0  0  0  0
    7.2761  -13.6999   23.5961 N   0  0  0  0  0  0  0  0  0  0  0  0
    7.9250  -13.5358   24.8811 C   0  0  1  0  0  0  0  0  0  0  0  0
    6.8651  -12.9732   25.8412 C   0  0  0  0  0  0  0  0  0  0  0  0
    7.5017  -12.7183   27.4959 S   0  0  0  0  0  0  0  0  0  0  0  0
    8.4016  -14.8219   25.4686 C   0  0  0  0  0  0  0  0  0  0  0  0
    7.5159  -15.7239   25.5829 O   0  0  0  0  0  0  0  0  0  0  0  0
    9.7175  -15.0833   25.8816 N   0  0  0  0  0  0  0  0  0  0  0  0
   10.2454  -16.2687   26.4949 C   0  0  1  0  0  0  0  0  0  0  0  0
   11.6272  -16.6186   26.0659 C   0  0  0  0  0  0  0  0  0  0  0  0
   11.7877  -16.8502   24.6202 C   0  0  0  0  0  0  0  0  0  0  0  0
   10.9003  -17.3538   23.9318 O   0  0  0  0  0  0  0  0  0  0  0  0
    9.9896  -16.4148   27.9351 C   0  0  0  0  0  0  0  0  0  0  0  0
    9.7905  -15.4088   28.6436 O   0  0  0  0  0  0  0  0  0  0  0  0
   12.9970  -16.4850   24.0496 O   0  0  0  0  0  0  0  0  0  0  0  0
    9.9488  -17.6490   28.6039 O   0  0  0  0  0  0  0  0  0  0  0  0
  2  3  1  6
  2  4  1  0
  2  1  1  0
  4  5  1  6
  6  4  1  0
  7  6  2  0
  8  6  1  0
  9 12  1  0
  9  8  1  0
  9 10  1  1
 11 10  1  0
 12 14  1  0
 13 12  2  0
 14 15  1  0
 15 19  1  0
 15 16  1  1
 16 17  1  0
 17 21  1  0
 18 17  2  0
 19 20  2  0
 19 22  1  0
M  END
$$$$
