VCD.pdb
     RDKit          3D

 22 21  0  0  1  0  0  0  0  0999 V2000
    9.2173  -12.5611   18.9631 C   0  0  0  0  0  0  0  0  0  0  0  0
    8.0277  -13.4508   19.1368 C   0  0  2  0  0  0  0  0  0  0  0  0
    7.0305  -12.8129   20.0787 C   0  0  0  0  0  0  0  0  0  0  0  0
    8.3664  -14.8098   19.6932 C   0  0  2  0  0  0  0  0  0  0  0  0
    7.1835  -15.6608   19.6784 N   0  0  0  0  0  0  0  0  0  0  0  0
    8.9164  -14.7844   21.0454 C   0  0  0  0  0  0  0  0  0  0  0  0
   10.0652  -14.3420   21.2635 O   0  0  0  0  0  0  0  0  0  0  0  0
    8.1896  -15.2510   22.1801 N   0  0  0  0  0  0  0  0  0  0  0  0
    8.7614  -15.3276   23.5092 C   0  0  1  0  0  0  0  0  0  0  0  0
    7.5826  -15.3733   24.4941 C   0  0  0  0  0  0  0  0  0  0  0  0
    6.8272  -13.7678   24.7381 S   0  0  0  0  0  0  0  0  0  0  0  0
    9.5621  -16.5662   23.7352 C   0  0  0  0  0  0  0  0  0  0  0  0
    9.2604  -17.5474   22.9887 O   0  0  0  0  0  0  0  0  0  0  0  0
   10.5890  -16.7032   24.6825 N   0  0  0  0  0  0  0  0  0  0  0  0
   11.8008  -17.4662   24.5864 C   0  0  1  0  0  0  0  0  0  0  0  0
   12.7188  -17.0262   23.5003 C   0  0  0  0  0  0  0  0  0  0  0  0
   13.9580  -17.8129   23.3792 C   0  0  0  0  0  0  0  0  0  0  0  0
   14.2574  -18.6971   24.1814 O   0  0  0  0  0  0  0  0  0  0  0  0
   12.4598  -17.7878   25.8605 C   0  0  0  0  0  0  0  0  0  0  0  0
   13.4712  -18.5159   25.8790 O   0  0  0  0  0  0  0  0  0  0  0  0
   14.7982  -17.5138   22.3180 O   0  0  0  0  0  0  0  0  0  0  0  0
   12.0229  -17.3195   27.1103 O   0  0  0  0  0  0  0  0  0  0  0  0
  2  3  1  1
  2  4  1  0
  2  1  1  0
  4  5  1  1
  6  4  1  0
  7  6  2  0
  8  6  1  0
  9 12  1  0
  9  8  1  0
  9 10  1  1
 11 10  1  0
 12 14  1  0
 13 12  2  0
 14 15  1  0
 15 19  1  0
 15 16  1  6
 16 17  1  0
 17 21  1  0
 18 17  2  0
 19 20  2  0
 19 22  1  0
M  END
$$$$
