VCD.pdb
     RDKit          3D

 22 21  0  0  1  0  0  0  0  0999 V2000
    7.0713  -13.2777   18.0779 C   0  0  0  0  0  0  0  0  0  0  0  0
    7.6597  -13.3355   19.4517 C   0  0  2  0  0  0  0  0  0  0  0  0
    8.7140  -12.2629   19.6147 C   0  0  0  0  0  0  0  0  0  0  0  0
    8.3084  -14.6568   19.7754 C   0  0  2  0  0  0  0  0  0  0  0  0
    7.3202  -15.7254   19.7039 N   0  0  0  0  0  0  0  0  0  0  0  0
    8.9618  -14.7006   21.0803 C   0  0  0  0  0  0  0  0  0  0  0  0
   10.0542  -14.1233   21.2715 O   0  0  0  0  0  0  0  0  0  0  0  0
    8.4033  -15.3889   22.1973 N   0  0  0  0  0  0  0  0  0  0  0  0
    9.0510  -15.4530   23.4918 C   0  0  1  0  0  0  0  0  0  0  0  0
    7.9411  -15.6865   24.5288 C   0  0  0  0  0  0  0  0  0  0  0  0
    8.5857  -16.1569   26.1323 S   0  0  0  0  0  0  0  0  0  0  0  0
   10.0062  -16.5925   23.6166 C   0  0  0  0  0  0  0  0  0  0  0  0
    9.5375  -17.7271   23.2939 O   0  0  0  0  0  0  0  0  0  0  0  0
   11.3378  -16.4874   24.0481 N   0  0  0  0  0  0  0  0  0  0  0  0
   12.3563  -17.4985   24.0663 C   0  0  1  0  0  0  0  0  0  0  0  0
   13.5414  -17.1915   23.2194 C   0  0  0  0  0  0  0  0  0  0  0  0
   14.5409  -18.2700   23.1372 C   0  0  0  0  0  0  0  0  0  0  0  0
   14.2241  -19.4538   23.0216 O   0  0  0  0  0  0  0  0  0  0  0  0
   12.6694  -18.0707   25.3837 C   0  0  0  0  0  0  0  0  0  0  0  0
   12.4270  -17.4264   26.4228 O   0  0  0  0  0  0  0  0  0  0  0  0
   15.8762  -17.9041   23.2054 O   0  0  0  0  0  0  0  0  0  0  0  0
   13.2428  -19.3387   25.5726 O   0  0  0  0  0  0  0  0  0  0  0  0
  2  3  1  6
  2  4  1  0
  2  1  1  0
  4  5  1  1
  6  4  1  0
  7  6  2  0
  8  6  1  0
  9 12  1  0
  9  8  1  0
  9 10  1  1
 11 10  1  0
 12 14  1  0
 13 12  2  0
 14 15  1  0
 15 19  1  0
 15 16  1  1
 16 17  1  0
 17 21  1  0
 18 17  2  0
 19 20  2  0
 19 22  1  0
M  END
$$$$
