VCD.pdb
     RDKit          3D

 22 21  0  0  1  0  0  0  0  0999 V2000
    7.6938  -15.4088   20.0203 C   0  0  0  0  0  0  0  0  0  0  0  0
    6.8437  -14.1865   20.1621 C   0  0  2  0  0  0  0  0  0  0  0  0
    6.2854  -13.7786   18.8165 C   0  0  0  0  0  0  0  0  0  0  0  0
    7.5833  -12.9983   20.7211 C   0  0  2  0  0  0  0  0  0  0  0  0
    8.6714  -12.6254   19.8264 N   0  0  0  0  0  0  0  0  0  0  0  0
    8.1208  -13.2033   22.0630 C   0  0  0  0  0  0  0  0  0  0  0  0
    9.2914  -13.6091   22.2311 O   0  0  0  0  0  0  0  0  0  0  0  0
    7.3593  -12.9548   23.2428 N   0  0  0  0  0  0  0  0  0  0  0  0
    7.8363  -13.2716   24.5737 C   0  0  1  0  0  0  0  0  0  0  0  0
    6.7246  -12.8573   25.5505 C   0  0  0  0  0  0  0  0  0  0  0  0
    7.0969  -13.3015   27.2452 S   0  0  0  0  0  0  0  0  0  0  0  0
    8.0740  -14.7299   24.7824 C   0  0  0  0  0  0  0  0  0  0  0  0
    7.0806  -15.4795   24.5329 O   0  0  0  0  0  0  0  0  0  0  0  0
    9.2820  -15.2978   25.2167 N   0  0  0  0  0  0  0  0  0  0  0  0
    9.5887  -16.6800   25.4524 C   0  0  1  0  0  0  0  0  0  0  0  0
   10.3831  -17.3255   24.3715 C   0  0  0  0  0  0  0  0  0  0  0  0
   10.8304  -18.6976   24.6658 C   0  0  0  0  0  0  0  0  0  0  0  0
   10.0649  -19.6608   24.6328 O   0  0  0  0  0  0  0  0  0  0  0  0
   10.0126  -17.0198   26.8183 C   0  0  0  0  0  0  0  0  0  0  0  0
   10.2084  -18.2084   27.1385 O   0  0  0  0  0  0  0  0  0  0  0  0
   12.1650  -18.8724   24.9973 O   0  0  0  0  0  0  0  0  0  0  0  0
   10.2242  -16.0724   27.8331 O   0  0  0  0  0  0  0  0  0  0  0  0
  2  3  1  6
  2  4  1  0
  2  1  1  0
  4  5  1  6
  6  4  1  0
  7  6  2  0
  8  6  1  0
  9 12  1  0
  9  8  1  0
  9 10  1  1
 11 10  1  0
 12 14  1  0
 13 12  2  0
 14 15  1  0
 15 19  1  0
 15 16  1  6
 16 17  1  0
 17 21  1  0
 18 17  2  0
 19 20  2  0
 19 22  1  0
M  END
$$$$
