VCD.pdb
     RDKit          3D

 22 21  0  0  1  0  0  0  0  0999 V2000
    9.4364  -19.0359   19.7908 C   0  0  0  0  0  0  0  0  0  0  0  0
    8.2990  -18.1188   19.4709 C   0  0  2  0  0  0  0  0  0  0  0  0
    7.7233  -18.4537   18.1126 C   0  0  0  0  0  0  0  0  0  0  0  0
    8.6857  -16.6624   19.4489 C   0  0  2  0  0  0  0  0  0  0  0  0
    9.6930  -16.4320   18.4212 N   0  0  0  0  0  0  0  0  0  0  0  0
    9.1833  -16.1544   20.7240 C   0  0  0  0  0  0  0  0  0  0  0  0
   10.4092  -16.1186   20.9670 O   0  0  0  0  0  0  0  0  0  0  0  0
    8.3182  -15.6737   21.7507 N   0  0  0  0  0  0  0  0  0  0  0  0
    8.7850  -15.3130   23.0741 C   0  0  1  0  0  0  0  0  0  0  0  0
    7.5854  -14.6979   23.8119 C   0  0  0  0  0  0  0  0  0  0  0  0
    7.9933  -14.1820   25.4779 S   0  0  0  0  0  0  0  0  0  0  0  0
    9.2335  -16.4858   23.8802 C   0  0  0  0  0  0  0  0  0  0  0  0
    8.4206  -17.4600   23.9139 O   0  0  0  0  0  0  0  0  0  0  0  0
   10.4522  -16.5729   24.5714 N   0  0  0  0  0  0  0  0  0  0  0  0
   10.9429  -17.6441   25.3910 C   0  0  1  0  0  0  0  0  0  0  0  0
   12.3712  -17.9919   25.1564 C   0  0  0  0  0  0  0  0  0  0  0  0
   12.7204  -18.2645   23.7518 C   0  0  0  0  0  0  0  0  0  0  0  0
   12.0186  -18.9657   23.0232 O   0  0  0  0  0  0  0  0  0  0  0  0
   10.5394  -17.6081   26.8041 C   0  0  0  0  0  0  0  0  0  0  0  0
   10.8249  -18.5541   27.5638 O   0  0  0  0  0  0  0  0  0  0  0  0
   13.8925  -17.7035   23.2691 O   0  0  0  0  0  0  0  0  0  0  0  0
    9.8294  -16.5480   27.3909 O   0  0  0  0  0  0  0  0  0  0  0  0
  2  3  1  6
  2  4  1  0
  2  1  1  0
  4  5  1  6
  6  4  1  0
  7  6  2  0
  8  6  1  0
  9 12  1  0
  9  8  1  0
  9 10  1  1
 11 10  1  0
 12 14  1  0
 13 12  2  0
 14 15  1  0
 15 19  1  0
 15 16  1  1
 16 17  1  0
 17 21  1  0
 18 17  2  0
 19 20  2  0
 19 22  1  0
M  END
$$$$
