ESY.pdb
     RDKit          3D

 28 28  0  0  1  0  0  0  0  0999 V2000
   11.3004  -17.1992   20.6266 N   0  0  0  0  0  0  0  0  0  0  0  0
    9.8890  -17.0922   20.2179 C   0  0  1  0  0  0  0  0  0  0  0  0
    9.5735  -18.1407   19.2139 C   0  0  0  0  0  0  0  0  0  0  0  0
    9.0339  -17.5689   17.9403 C   0  0  0  0  0  0  0  0  0  0  0  0
   10.0284  -17.5180   16.8698 C   0  0  0  0  0  0  0  0  0  0  0  0
   10.6485  -16.4877   16.5399 O   0  0  0  0  0  0  0  0  0  0  0  0
    9.0877  -17.3148   21.4555 C   0  0  0  0  0  0  0  0  0  0  0  0
    7.9624  -17.9142   21.4024 O   0  0  0  0  0  0  0  0  0  0  0  0
   10.2887  -18.7066   16.1831 O   0  0  0  0  0  0  0  0  0  0  0  0
    8.9454  -19.6992   24.9667 O   0  0  0  0  0  0  0  0  0  0  0  0
    9.3954  -19.0664   23.8245 C   0  0  0  0  0  0  0  0  0  0  0  0
    9.0621  -17.5942   23.9113 C   0  0  2  0  0  0  0  0  0  0  0  0
    9.5067  -16.8894   22.7374 N   0  0  0  0  0  0  0  0  0  0  0  0
    9.7174  -16.9891   25.0924 C   0  0  0  0  0  0  0  0  0  0  0  0
   10.8967  -16.5539   24.9693 O   0  0  0  0  0  0  0  0  0  0  0  0
    6.4087  -11.3172   25.0778 O   0  0  0  0  0  0  0  0  0  0  0  0
    6.9985  -12.3155   25.8466 C   0  0  0  0  0  0  0  0  0  0  0  0
    6.3277  -13.5077   26.0439 C   0  0  0  0  0  0  0  0  0  0  0  0
    6.8934  -14.4982   26.7964 C   0  0  0  0  0  0  0  0  0  0  0  0
    8.1485  -14.3435   27.3830 C   0  0  0  0  0  0  0  0  0  0  0  0
    8.7412  -15.4219   28.1958 C   0  0  0  0  0  0  0  0  0  0  0  0
    9.7496  -16.2640   27.4372 C   0  0  2  0  0  0  0  0  0  0  0  0
    9.0473  -16.8940   26.3397 N   0  0  0  0  0  0  0  0  0  0  0  0
   10.3604  -17.3203   28.2663 C   0  0  0  0  0  0  0  0  0  0  0  0
   10.1334  -18.5485   28.0922 O   0  0  0  0  0  0  0  0  0  0  0  0
    8.7884  -13.1628   27.1749 C   0  0  0  0  0  0  0  0  0  0  0  0
    8.2291  -12.1483   26.4146 C   0  0  0  0  0  0  0  0  0  0  0  0
   11.2219  -16.9753   29.2836 O   0  0  0  0  0  0  0  0  0  0  0  0
  2  1  1  1
  2  7  1  0
  3  2  1  0
  4  3  1  0
  4  5  1  0
  5  6  2  0
  7  8  2  0
  9  5  1  0
 12 11  1  6
 11 10  1  0
 13  7  1  0
 13 12  1  0
 14 12  1  0
 14 15  2  0
 16 17  1  0
 17 27  2  0
 17 18  1  0
 18 19  2  0
 19 20  1  0
 20 21  1  0
 22 21  1  1
 22 24  1  0
 22 23  1  0
 23 14  1  0
 24 28  1  0
 25 24  2  0
 26 20  2  0
 27 26  1  0
M  END
$$$$
