ESY.pdb
     RDKit          3D

 28 28  0  0  1  0  0  0  0  0999 V2000
   10.9968  -19.3755   17.6402 N   0  0  0  0  0  0  0  0  0  0  0  0
   10.7895  -18.0029   18.1336 C   0  0  1  0  0  0  0  0  0  0  0  0
    9.9296  -17.2500   17.1845 C   0  0  0  0  0  0  0  0  0  0  0  0
    9.9199  -17.8573   15.8166 C   0  0  0  0  0  0  0  0  0  0  0  0
    8.9689  -17.2133   14.9118 C   0  0  0  0  0  0  0  0  0  0  0  0
    9.0893  -16.0479   14.4849 O   0  0  0  0  0  0  0  0  0  0  0  0
   10.0977  -18.1415   19.4472 C   0  0  0  0  0  0  0  0  0  0  0  0
    8.8308  -18.2835   19.5031 O   0  0  0  0  0  0  0  0  0  0  0  0
    7.8613  -17.9641   14.5097 O   0  0  0  0  0  0  0  0  0  0  0  0
   12.1037  -18.9338   22.9384 O   0  0  0  0  0  0  0  0  0  0  0  0
   10.7990  -19.3607   22.7864 C   0  0  0  0  0  0  0  0  0  0  0  0
   10.0572  -18.3794   21.9072 C   0  0  2  0  0  0  0  0  0  0  0  0
   10.7778  -18.1257   20.6870 N   0  0  0  0  0  0  0  0  0  0  0  0
    9.8753  -17.0926   22.6154 C   0  0  0  0  0  0  0  0  0  0  0  0
   10.7234  -16.1761   22.4256 O   0  0  0  0  0  0  0  0  0  0  0  0
    6.3783  -10.5492   27.3410 O   0  0  0  0  0  0  0  0  0  0  0  0
    6.5971  -11.6780   26.5578 C   0  0  0  0  0  0  0  0  0  0  0  0
    7.4557  -11.6003   25.4775 C   0  0  0  0  0  0  0  0  0  0  0  0
    7.6814  -12.7001   24.6984 C   0  0  0  0  0  0  0  0  0  0  0  0
    7.0628  -13.9212   24.9618 C   0  0  0  0  0  0  0  0  0  0  0  0
    7.3149  -15.0963   24.1072 C   0  0  0  0  0  0  0  0  0  0  0  0
    8.7291  -15.6333   24.2221 C   0  0  2  0  0  0  0  0  0  0  0  0
    8.7779  -16.8808   23.4899 N   0  0  0  0  0  0  0  0  0  0  0  0
    9.1362  -15.8954   25.6156 C   0  0  0  0  0  0  0  0  0  0  0  0
    9.5960  -15.0018   26.3773 O   0  0  0  0  0  0  0  0  0  0  0  0
    6.2230  -13.9729   26.0291 C   0  0  0  0  0  0  0  0  0  0  0  0
    5.9832  -12.8673   26.8292 C   0  0  0  0  0  0  0  0  0  0  0  0
    9.0186  -17.1665   26.1322 O   0  0  0  0  0  0  0  0  0  0  0  0
  2  1  1  6
  2  7  1  0
  3  2  1  0
  4  3  1  0
  4  5  1  0
  5  6  2  0
  7  8  2  0
  9  5  1  0
 12 11  1  1
 11 10  1  0
 13  7  1  0
 13 12  1  0
 14 12  1  0
 14 15  2  0
 16 17  1  0
 17 27  2  0
 17 18  1  0
 18 19  2  0
 19 20  1  0
 20 21  1  0
 22 21  1  1
 22 24  1  0
 22 23  1  0
 23 14  1  0
 24 28  1  0
 25 24  2  0
 26 20  2  0
 27 26  1  0
M  END
$$$$
