ESY.pdb
     RDKit          3D

 28 28  0  0  1  0  0  0  0  0999 V2000
    9.5172  -16.2735   17.0865 N   0  0  0  0  0  0  0  0  0  0  0  0
    9.4229  -17.0865   18.3115 C   0  0  1  0  0  0  0  0  0  0  0  0
   10.7638  -17.6157   18.6705 C   0  0  0  0  0  0  0  0  0  0  0  0
   11.2045  -18.7203   17.7619 C   0  0  0  0  0  0  0  0  0  0  0  0
   12.5451  -19.2150   18.0717 C   0  0  0  0  0  0  0  0  0  0  0  0
   13.5777  -18.8603   17.4694 O   0  0  0  0  0  0  0  0  0  0  0  0
    8.9376  -16.1636   19.3774 C   0  0  0  0  0  0  0  0  0  0  0  0
    9.6116  -15.1284   19.6975 O   0  0  0  0  0  0  0  0  0  0  0  0
   12.6592  -20.1426   19.1102 O   0  0  0  0  0  0  0  0  0  0  0  0
    5.4918  -16.8171   21.6124 O   0  0  0  0  0  0  0  0  0  0  0  0
    5.8405  -15.5049   21.3592 C   0  0  0  0  0  0  0  0  0  0  0  0
    7.3290  -15.4295   21.1047 C   0  0  2  0  0  0  0  0  0  0  0  0
    7.7315  -16.3654   20.0875 N   0  0  0  0  0  0  0  0  0  0  0  0
    8.0772  -15.7395   22.3435 C   0  0  0  0  0  0  0  0  0  0  0  0
    8.6900  -16.8416   22.4165 O   0  0  0  0  0  0  0  0  0  0  0  0
   11.0947  -15.2079   30.6324 O   0  0  0  0  0  0  0  0  0  0  0  0
   10.5939  -14.9352   29.3635 C   0  0  0  0  0  0  0  0  0  0  0  0
    9.6124  -13.9740   29.2117 C   0  0  0  0  0  0  0  0  0  0  0  0
    9.1100  -13.6943   27.9720 C   0  0  0  0  0  0  0  0  0  0  0  0
    9.5630  -14.3587   26.8334 C   0  0  0  0  0  0  0  0  0  0  0  0
    9.0058  -14.0469   25.5041 C   0  0  0  0  0  0  0  0  0  0  0  0
    8.7107  -15.2790   24.6698 C   0  0  2  0  0  0  0  0  0  0  0  0
    8.1133  -14.8284   23.4308 N   0  0  0  0  0  0  0  0  0  0  0  0
    7.7739  -16.2106   25.3261 C   0  0  0  0  0  0  0  0  0  0  0  0
    6.5222  -16.0603   25.2986 O   0  0  0  0  0  0  0  0  0  0  0  0
   10.5282  -15.2996   27.0078 C   0  0  0  0  0  0  0  0  0  0  0  0
   11.0483  -15.5952   28.2576 C   0  0  0  0  0  0  0  0  0  0  0  0
    8.2640  -17.3027   26.0069 O   0  0  0  0  0  0  0  0  0  0  0  0
  2  1  1  6
  2  7  1  0
  3  2  1  0
  4  3  1  0
  4  5  1  0
  5  6  2  0
  7  8  2  0
  9  5  1  0
 12 11  1  1
 11 10  1  0
 13  7  1  0
 13 12  1  0
 14 12  1  0
 14 15  2  0
 16 17  1  0
 17 27  2  0
 17 18  1  0
 18 19  2  0
 19 20  1  0
 20 21  1  0
 22 21  1  1
 22 24  1  0
 22 23  1  0
 23 14  1  0
 24 28  1  0
 25 24  2  0
 26 20  2  0
 27 26  1  0
M  END
$$$$
