ESY.pdb
     RDKit          3D

 28 28  0  0  1  0  0  0  0  0999 V2000
   10.1691  -15.8040   17.1671 N   0  0  0  0  0  0  0  0  0  0  0  0
    9.8120  -16.8230   18.1694 C   0  0  1  0  0  0  0  0  0  0  0  0
   11.0071  -17.6373   18.5092 C   0  0  0  0  0  0  0  0  0  0  0  0
   12.2782  -16.8522   18.4193 C   0  0  0  0  0  0  0  0  0  0  0  0
   13.4620  -17.6398   18.7600 C   0  0  0  0  0  0  0  0  0  0  0  0
   13.4610  -18.8789   18.8996 O   0  0  0  0  0  0  0  0  0  0  0  0
    9.3508  -16.0697   19.3708 C   0  0  0  0  0  0  0  0  0  0  0  0
    9.9598  -15.0143   19.7497 O   0  0  0  0  0  0  0  0  0  0  0  0
   14.6616  -16.9456   18.9368 O   0  0  0  0  0  0  0  0  0  0  0  0
    5.9584  -17.0839   21.5876 O   0  0  0  0  0  0  0  0  0  0  0  0
    6.2273  -15.7540   21.3297 C   0  0  0  0  0  0  0  0  0  0  0  0
    7.7192  -15.5754   21.1605 C   0  0  2  0  0  0  0  0  0  0  0  0
    8.2386  -16.4611   20.1514 N   0  0  0  0  0  0  0  0  0  0  0  0
    8.4173  -15.8615   22.4338 C   0  0  0  0  0  0  0  0  0  0  0  0
    9.1276  -16.9032   22.5097 O   0  0  0  0  0  0  0  0  0  0  0  0
   11.0985  -15.1805   30.8279 O   0  0  0  0  0  0  0  0  0  0  0  0
   10.6184  -14.9349   29.5455 C   0  0  0  0  0  0  0  0  0  0  0  0
    9.4209  -14.2638   29.3844 C   0  0  0  0  0  0  0  0  0  0  0  0
    8.9358  -14.0146   28.1314 C   0  0  0  0  0  0  0  0  0  0  0  0
    9.6214  -14.4225   26.9882 C   0  0  0  0  0  0  0  0  0  0  0  0
    9.0800  -14.1488   25.6441 C   0  0  0  0  0  0  0  0  0  0  0  0
    8.9416  -15.3916   24.7852 C   0  0  2  0  0  0  0  0  0  0  0  0
    8.2998  -14.9938   23.5505 N   0  0  0  0  0  0  0  0  0  0  0  0
    8.1223  -16.4428   25.4177 C   0  0  0  0  0  0  0  0  0  0  0  0
    8.6103  -17.3518   26.1430 O   0  0  0  0  0  0  0  0  0  0  0  0
   10.7962  -15.0805   27.1720 C   0  0  0  0  0  0  0  0  0  0  0  0
   11.3022  -15.3412   28.4353 C   0  0  0  0  0  0  0  0  0  0  0  0
    6.7593  -16.4541   25.2225 O   0  0  0  0  0  0  0  0  0  0  0  0
  2  1  1  6
  2  7  1  0
  3  2  1  0
  4  3  1  0
  4  5  1  0
  5  6  2  0
  7  8  2  0
  9  5  1  0
 12 11  1  1
 11 10  1  0
 13  7  1  0
 13 12  1  0
 14 12  1  0
 14 15  2  0
 16 17  1  0
 17 27  2  0
 17 18  1  0
 18 19  2  0
 19 20  1  0
 20 21  1  0
 22 21  1  1
 22 24  1  0
 22 23  1  0
 23 14  1  0
 24 28  1  0
 25 24  2  0
 26 20  2  0
 27 26  1  0
M  END
$$$$
