ESY.pdb
     RDKit          3D

 28 28  0  0  1  0  0  0  0  0999 V2000
   11.9699  -18.6085   17.0663 N   0  0  0  0  0  0  0  0  0  0  0  0
   12.3408  -18.0011   18.3562 C   0  0  1  0  0  0  0  0  0  0  0  0
   13.0909  -16.7401   18.1231 C   0  0  0  0  0  0  0  0  0  0  0  0
   13.4156  -16.0243   19.3968 C   0  0  0  0  0  0  0  0  0  0  0  0
   14.2353  -14.8315   19.1894 C   0  0  0  0  0  0  0  0  0  0  0  0
   15.4619  -14.7794   19.4076 O   0  0  0  0  0  0  0  0  0  0  0  0
   11.0558  -17.7077   19.0536 C   0  0  0  0  0  0  0  0  0  0  0  0
   10.1575  -16.9981   18.4898 O   0  0  0  0  0  0  0  0  0  0  0  0
   13.5886  -13.6867   18.7169 O   0  0  0  0  0  0  0  0  0  0  0  0
    9.8006  -19.8592   22.3077 O   0  0  0  0  0  0  0  0  0  0  0  0
    8.8859  -19.3226   21.4229 C   0  0  0  0  0  0  0  0  0  0  0  0
    9.4257  -18.0164   20.8858 C   0  0  2  0  0  0  0  0  0  0  0  0
   10.7520  -18.1816   20.3507 N   0  0  0  0  0  0  0  0  0  0  0  0
    9.4824  -17.0034   21.9634 C   0  0  0  0  0  0  0  0  0  0  0  0
   10.5807  -16.8200   22.5597 O   0  0  0  0  0  0  0  0  0  0  0  0
    6.8392  -11.0278   27.9185 O   0  0  0  0  0  0  0  0  0  0  0  0
    6.9570  -11.8525   26.8043 C   0  0  0  0  0  0  0  0  0  0  0  0
    7.6876  -11.4214   25.7131 C   0  0  0  0  0  0  0  0  0  0  0  0
    7.8130  -12.2196   24.6110 C   0  0  0  0  0  0  0  0  0  0  0  0
    7.2172  -13.4783   24.5493 C   0  0  0  0  0  0  0  0  0  0  0  0
    7.3595  -14.3240   23.3495 C   0  0  0  0  0  0  0  0  0  0  0  0
    8.4384  -15.3822   23.4822 C   0  0  2  0  0  0  0  0  0  0  0  0
    8.3369  -16.2493   22.3278 N   0  0  0  0  0  0  0  0  0  0  0  0
    8.2934  -16.2062   24.6971 C   0  0  0  0  0  0  0  0  0  0  0  0
    7.4724  -17.1591   24.7878 O   0  0  0  0  0  0  0  0  0  0  0  0
    6.5040  -13.8802   25.6341 C   0  0  0  0  0  0  0  0  0  0  0  0
    6.3671  -13.0834   26.7593 C   0  0  0  0  0  0  0  0  0  0  0  0
    9.0793  -15.9430   25.7968 O   0  0  0  0  0  0  0  0  0  0  0  0
  2  1  1  6
  2  7  1  0
  3  2  1  0
  4  3  1  0
  4  5  1  0
  5  6  2  0
  7  8  2  0
  9  5  1  0
 12 11  1  1
 11 10  1  0
 13  7  1  0
 13 12  1  0
 14 12  1  0
 14 15  2  0
 16 17  1  0
 17 27  2  0
 17 18  1  0
 18 19  2  0
 19 20  1  0
 20 21  1  0
 22 21  1  6
 22 24  1  0
 22 23  1  0
 23 14  1  0
 24 28  1  0
 25 24  2  0
 26 20  2  0
 27 26  1  0
M  END
$$$$
