ESY.pdb
     RDKit          3D

 28 28  0  0  1  0  0  0  0  0999 V2000
   11.0866  -18.1934   17.2740 N   0  0  0  0  0  0  0  0  0  0  0  0
   11.6588  -18.1947   18.6315 C   0  0  1  0  0  0  0  0  0  0  0  0
   12.6305  -17.0797   18.7707 C   0  0  0  0  0  0  0  0  0  0  0  0
   13.2083  -16.9936   20.1487 C   0  0  0  0  0  0  0  0  0  0  0  0
   14.1446  -15.8819   20.3076 C   0  0  0  0  0  0  0  0  0  0  0  0
   15.3179  -15.8901   19.8853 O   0  0  0  0  0  0  0  0  0  0  0  0
   10.5097  -17.9874   19.5589 C   0  0  0  0  0  0  0  0  0  0  0  0
    9.5982  -17.1374   19.2849 O   0  0  0  0  0  0  0  0  0  0  0  0
   13.6803  -14.7468   20.9769 O   0  0  0  0  0  0  0  0  0  0  0  0
    9.7683  -20.1581   23.1640 O   0  0  0  0  0  0  0  0  0  0  0  0
    8.8174  -19.9544   22.1832 C   0  0  0  0  0  0  0  0  0  0  0  0
    9.1033  -18.6456   21.4821 C   0  0  2  0  0  0  0  0  0  0  0  0
   10.3543  -18.6978   20.7717 N   0  0  0  0  0  0  0  0  0  0  0  0
    9.1732  -17.5418   22.4656 C   0  0  0  0  0  0  0  0  0  0  0  0
   10.2735  -16.9407   22.6183 O   0  0  0  0  0  0  0  0  0  0  0  0
    6.9582  -10.7644   27.5506 O   0  0  0  0  0  0  0  0  0  0  0  0
    6.9979  -11.8167   26.6415 C   0  0  0  0  0  0  0  0  0  0  0  0
    7.9706  -11.8310   25.6597 C   0  0  0  0  0  0  0  0  0  0  0  0
    8.0232  -12.8574   24.7591 C   0  0  0  0  0  0  0  0  0  0  0  0
    7.1111  -13.9109   24.7982 C   0  0  0  0  0  0  0  0  0  0  0  0
    7.1804  -15.0078   23.8150 C   0  0  0  0  0  0  0  0  0  0  0  0
    8.1947  -16.0770   24.1749 C   0  0  2  0  0  0  0  0  0  0  0  0
    8.0378  -17.1580   23.2254 N   0  0  0  0  0  0  0  0  0  0  0  0
    8.0049  -16.6198   25.5334 C   0  0  0  0  0  0  0  0  0  0  0  0
    7.1742  -17.5302   25.8003 O   0  0  0  0  0  0  0  0  0  0  0  0
    6.1641  -13.8747   25.7723 C   0  0  0  0  0  0  0  0  0  0  0  0
    6.0968  -12.8415   26.6932 C   0  0  0  0  0  0  0  0  0  0  0  0
    8.7575  -16.1262   26.5757 O   0  0  0  0  0  0  0  0  0  0  0  0
  2  1  1  6
  2  7  1  0
  3  2  1  0
  4  3  1  0
  4  5  1  0
  5  6  2  0
  7  8  2  0
  9  5  1  0
 12 11  1  1
 11 10  1  0
 13  7  1  0
 13 12  1  0
 14 12  1  0
 14 15  2  0
 16 17  1  0
 17 27  2  0
 17 18  1  0
 18 19  2  0
 19 20  1  0
 20 21  1  0
 22 21  1  6
 22 24  1  0
 22 23  1  0
 23 14  1  0
 24 28  1  0
 25 24  2  0
 26 20  2  0
 27 26  1  0
M  END
$$$$
