ESY.pdb
     RDKit          3D

 28 28  0  0  1  0  0  0  0  0999 V2000
    8.9639  -19.0626   20.6630 N   0  0  0  0  0  0  0  0  0  0  0  0
   10.1779  -18.2907   20.3457 C   0  0  1  0  0  0  0  0  0  0  0  0
   10.4503  -18.3554   18.8868 C   0  0  0  0  0  0  0  0  0  0  0  0
    9.2493  -18.0057   18.0650 C   0  0  0  0  0  0  0  0  0  0  0  0
    9.4976  -18.0865   16.6264 C   0  0  0  0  0  0  0  0  0  0  0  0
    9.6253  -17.0943   15.8820 O   0  0  0  0  0  0  0  0  0  0  0  0
    9.8842  -16.8849   20.7470 C   0  0  0  0  0  0  0  0  0  0  0  0
   10.7564  -15.9673   20.5865 O   0  0  0  0  0  0  0  0  0  0  0  0
    9.5951  -19.3627   16.0660 O   0  0  0  0  0  0  0  0  0  0  0  0
    6.2086  -15.6440   22.1316 O   0  0  0  0  0  0  0  0  0  0  0  0
    7.0472  -14.6761   21.6145 C   0  0  0  0  0  0  0  0  0  0  0  0
    8.4812  -15.1282   21.7741 C   0  0  2  0  0  0  0  0  0  0  0  0
    8.6543  -16.4822   21.3169 N   0  0  0  0  0  0  0  0  0  0  0  0
    8.8838  -15.0632   23.1969 C   0  0  0  0  0  0  0  0  0  0  0  0
    8.9684  -13.9294   23.7471 O   0  0  0  0  0  0  0  0  0  0  0  0
    6.0588  -11.0071   26.9286 O   0  0  0  0  0  0  0  0  0  0  0  0
    6.6077  -12.2716   26.7417 C   0  0  0  0  0  0  0  0  0  0  0  0
    7.9662  -12.4562   26.9169 C   0  0  0  0  0  0  0  0  0  0  0  0
    8.5208  -13.6921   26.7372 C   0  0  0  0  0  0  0  0  0  0  0  0
    7.7475  -14.7942   26.3760 C   0  0  0  0  0  0  0  0  0  0  0  0
    8.3642  -16.1196   26.1818 C   0  0  0  0  0  0  0  0  0  0  0  0
    9.6044  -16.0856   25.3088 C   0  0  2  0  0  0  0  0  0  0  0  0
    9.1707  -16.2397   23.9366 N   0  0  0  0  0  0  0  0  0  0  0  0
   10.5594  -17.1663   25.6191 C   0  0  0  0  0  0  0  0  0  0  0  0
   10.8229  -18.1026   24.8165 O   0  0  0  0  0  0  0  0  0  0  0  0
    6.4145  -14.5880   26.2093 C   0  0  0  0  0  0  0  0  0  0  0  0
    5.8363  -13.3415   26.3876 C   0  0  0  0  0  0  0  0  0  0  0  0
   11.2061  -17.1758   26.8348 O   0  0  0  0  0  0  0  0  0  0  0  0
  2  1  1  6
  2  7  1  0
  3  2  1  0
  4  3  1  0
  4  5  1  0
  5  6  2  0
  7  8  2  0
  9  5  1  0
 12 11  1  1
 11 10  1  0
 13  7  1  0
 13 12  1  0
 14 12  1  0
 14 15  2  0
 16 17  1  0
 17 27  2  0
 17 18  1  0
 18 19  2  0
 19 20  1  0
 20 21  1  0
 22 21  1  1
 22 24  1  0
 22 23  1  0
 23 14  1  0
 24 28  1  0
 25 24  2  0
 26 20  2  0
 27 26  1  0
M  END
$$$$
