FAF.pdb
     RDKit          3D

 28 29  0  0  1  0  0  0  0  0999 V2000
    5.7349  -17.9254   19.3093 N   0  0  0  0  0  0  0  0  0  0  0  0
    6.6106  -16.9096   19.8398 C   0  0  1  0  0  0  0  0  0  0  0  0
    5.8259  -15.5955   19.8507 C   0  0  0  0  0  0  0  0  0  0  0  0
    6.6216  -14.4942   20.4491 C   0  0  0  0  0  0  0  0  0  0  0  0
    7.6065  -13.8377   19.7270 C   0  0  0  0  0  0  0  0  0  0  0  0
    8.3116  -12.8233   20.3372 C   0  0  0  0  0  0  0  0  0  0  0  0
    8.0538  -12.4540   21.6463 C   0  0  0  0  0  0  0  0  0  0  0  0
    7.0780  -13.1049   22.3607 C   0  0  0  0  0  0  0  0  0  0  0  0
    6.3766  -14.1217   21.7379 C   0  0  0  0  0  0  0  0  0  0  0  0
    6.9920  -17.1925   21.2475 C   0  0  0  0  0  0  0  0  0  0  0  0
    6.0745  -17.2300   22.0975 O   0  0  0  0  0  0  0  0  0  0  0  0
    9.4518  -19.0832   23.0366 C   0  0  0  0  0  0  0  0  0  0  0  0
    8.6875  -17.7567   23.0001 C   0  0  2  0  0  0  0  0  0  0  0  0
    8.3244  -17.4157   21.6505 N   0  0  0  0  0  0  0  0  0  0  0  0
    9.5523  -16.7498   23.6345 C   0  0  0  0  0  0  0  0  0  0  0  0
   10.4980  -16.2708   22.9633 O   0  0  0  0  0  0  0  0  0  0  0  0
    9.4224  -16.2592   24.9477 N   0  0  0  0  0  0  0  0  0  0  0  0
   10.4222  -15.5281   25.6454 C   0  0  1  0  0  0  0  0  0  0  0  0
   10.4163  -14.0754   25.5897 C   0  0  0  0  0  0  0  0  0  0  0  0
    9.0468  -13.4720   25.7169 C   0  0  0  0  0  0  0  0  0  0  0  0
    8.7826  -12.3443   26.4620 C   0  0  0  0  0  0  0  0  0  0  0  0
    7.5249  -11.8019   26.5781 C   0  0  0  0  0  0  0  0  0  0  0  0
    6.4597  -12.3802   25.9384 C   0  0  0  0  0  0  0  0  0  0  0  0
    6.7145  -13.5092   25.1901 C   0  0  0  0  0  0  0  0  0  0  0  0
    7.9659  -14.0623   25.0653 C   0  0  0  0  0  0  0  0  0  0  0  0
   10.4266  -15.9547   27.0672 C   0  0  0  0  0  0  0  0  0  0  0  0
    9.4777  -16.6290   27.5667 O   0  0  0  0  0  0  0  0  0  0  0  0
   11.4606  -15.6542   27.9556 O   0  0  0  0  0  0  0  0  0  0  0  0
  2  1  1  1
  2 10  1  0
  3  2  1  0
  3  4  1  0
  4  9  1  0
  5  4  2  0
  5  6  1  0
  6  7  2  0
  7  8  1  0
  9  8  2  0
 10 14  1  0
 10 11  2  0
 13 12  1  6
 13 15  1  0
 14 13  1  0
 15 16  2  0
 17 18  1  0
 17 15  1  0
 18 19  1  1
 20 19  1  0
 21 20  2  0
 22 21  1  0
 23 24  1  0
 23 22  2  0
 24 25  2  0
 25 20  1  0
 26 18  1  0
 26 28  1  0
 27 26  2  0
M  END
$$$$
