FAF.pdb
     RDKit          3D

 28 29  0  0  1  0  0  0  0  0999 V2000
    6.8449  -17.3623   26.9877 N   0  0  0  0  0  0  0  0  0  0  0  0
    6.7664  -16.6305   25.7474 C   0  0  1  0  0  0  0  0  0  0  0  0
    7.9961  -15.7216   25.6790 C   0  0  0  0  0  0  0  0  0  0  0  0
    7.6293  -14.2975   25.8820 C   0  0  0  0  0  0  0  0  0  0  0  0
    8.5891  -13.3345   26.1543 C   0  0  0  0  0  0  0  0  0  0  0  0
    8.1868  -12.0289   26.3331 C   0  0  0  0  0  0  0  0  0  0  0  0
    6.8530  -11.6685   26.2458 C   0  0  0  0  0  0  0  0  0  0  0  0
    5.9031  -12.6230   25.9761 C   0  0  0  0  0  0  0  0  0  0  0  0
    6.3186  -13.9305   25.7985 C   0  0  0  0  0  0  0  0  0  0  0  0
    6.8356  -17.5341   24.5702 C   0  0  0  0  0  0  0  0  0  0  0  0
    7.4699  -18.6047   24.7011 O   0  0  0  0  0  0  0  0  0  0  0  0
    5.6815  -17.4261   20.9609 C   0  0  0  0  0  0  0  0  0  0  0  0
    6.6197  -17.8459   22.0962 C   0  0  2  0  0  0  0  0  0  0  0  0
    6.2238  -17.2334   23.3362 N   0  0  0  0  0  0  0  0  0  0  0  0
    7.9818  -17.4759   21.6814 C   0  0  0  0  0  0  0  0  0  0  0  0
    8.4293  -17.9584   20.6132 O   0  0  0  0  0  0  0  0  0  0  0  0
    8.8522  -16.6162   22.3779 N   0  0  0  0  0  0  0  0  0  0  0  0
   10.0929  -16.1353   21.8777 C   0  0  1  0  0  0  0  0  0  0  0  0
   10.3023  -14.7032   21.7402 C   0  0  0  0  0  0  0  0  0  0  0  0
    9.1522  -13.9843   21.0950 C   0  0  0  0  0  0  0  0  0  0  0  0
    8.0204  -13.5995   21.7789 C   0  0  0  0  0  0  0  0  0  0  0  0
    6.9696  -12.9470   21.1794 C   0  0  0  0  0  0  0  0  0  0  0  0
    7.0122  -12.6478   19.8426 C   0  0  0  0  0  0  0  0  0  0  0  0
    8.1411  -13.0288   19.1500 C   0  0  0  0  0  0  0  0  0  0  0  0
    9.1986  -13.6814   19.7358 C   0  0  0  0  0  0  0  0  0  0  0  0
   11.1945  -16.7062   22.6927 C   0  0  0  0  0  0  0  0  0  0  0  0
   10.9703  -17.4130   23.7197 O   0  0  0  0  0  0  0  0  0  0  0  0
   12.5456  -16.5155   22.3981 O   0  0  0  0  0  0  0  0  0  0  0  0
  2  1  1  1
  2 10  1  0
  3  2  1  0
  3  4  1  0
  4  9  1  0
  5  4  2  0
  5  6  1  0
  6  7  2  0
  7  8  1  0
  9  8  2  0
 10 14  1  0
 10 11  2  0
 13 12  1  6
 13 15  1  0
 14 13  1  0
 15 16  2  0
 17 18  1  0
 17 15  1  0
 18 19  1  1
 20 19  1  0
 21 20  2  0
 22 21  1  0
 23 24  1  0
 23 22  2  0
 24 25  2  0
 25 20  1  0
 26 18  1  0
 26 28  1  0
 27 26  2  0
M  END
$$$$
