FAF.pdb
     RDKit          3D

 28 29  0  0  1  0  0  0  0  0999 V2000
    7.0292  -17.9854   27.1715 N   0  0  0  0  0  0  0  0  0  0  0  0
    6.9484  -16.9939   26.1273 C   0  0  1  0  0  0  0  0  0  0  0  0
    8.1466  -16.0569   26.2984 C   0  0  0  0  0  0  0  0  0  0  0  0
    7.7176  -14.6380   26.3790 C   0  0  0  0  0  0  0  0  0  0  0  0
    8.6282  -13.6187   26.6122 C   0  0  0  0  0  0  0  0  0  0  0  0
    8.1693  -12.3211   26.6764 C   0  0  0  0  0  0  0  0  0  0  0  0
    6.8272  -12.0234   26.5133 C   0  0  0  0  0  0  0  0  0  0  0  0
    5.9260  -13.0338   26.2823 C   0  0  0  0  0  0  0  0  0  0  0  0
    6.3981  -14.3326   26.2199 C   0  0  0  0  0  0  0  0  0  0  0  0
    7.0711  -17.6044   24.7784 C   0  0  0  0  0  0  0  0  0  0  0  0
    7.8424  -18.5819   24.6555 O   0  0  0  0  0  0  0  0  0  0  0  0
    5.5557  -17.0582   21.3496 C   0  0  0  0  0  0  0  0  0  0  0  0
    6.6121  -17.5982   22.3180 C   0  0  2  0  0  0  0  0  0  0  0  0
    6.3631  -17.1302   23.6553 N   0  0  0  0  0  0  0  0  0  0  0  0
    7.9219  -17.1778   21.7963 C   0  0  0  0  0  0  0  0  0  0  0  0
    8.2474  -17.5452   20.6416 O   0  0  0  0  0  0  0  0  0  0  0  0
    8.8670  -16.3876   22.4776 N   0  0  0  0  0  0  0  0  0  0  0  0
   10.0685  -15.8847   21.9081 C   0  0  1  0  0  0  0  0  0  0  0  0
   10.2227  -14.4525   21.7118 C   0  0  0  0  0  0  0  0  0  0  0  0
    9.0883  -13.8212   20.9565 C   0  0  0  0  0  0  0  0  0  0  0  0
    9.1029  -13.6246   19.5935 C   0  0  0  0  0  0  0  0  0  0  0  0
    8.0628  -13.0405   18.9105 C   0  0  0  0  0  0  0  0  0  0  0  0
    6.9430  -12.6216   19.5806 C   0  0  0  0  0  0  0  0  0  0  0  0
    6.9192  -12.8144   20.9450 C   0  0  0  0  0  0  0  0  0  0  0  0
    7.9511  -13.3965   21.6405 C   0  0  0  0  0  0  0  0  0  0  0  0
   11.2221  -16.3892   22.6943 C   0  0  0  0  0  0  0  0  0  0  0  0
   12.4191  -16.1662   22.3449 O   0  0  0  0  0  0  0  0  0  0  0  0
   11.0849  -17.1371   23.8650 O   0  0  0  0  0  0  0  0  0  0  0  0
  2  1  1  1
  2 10  1  0
  3  2  1  0
  3  4  1  0
  4  9  1  0
  5  4  2  0
  5  6  1  0
  6  7  2  0
  7  8  1  0
  9  8  2  0
 10 14  1  0
 10 11  2  0
 13 12  1  6
 13 15  1  0
 14 13  1  0
 15 16  2  0
 17 18  1  0
 17 15  1  0
 18 19  1  1
 20 19  1  0
 21 20  2  0
 22 21  1  0
 23 24  1  0
 23 22  2  0
 24 25  2  0
 25 20  1  0
 26 18  1  0
 26 28  1  0
 27 26  2  0
M  END
$$$$
