FAF.pdb
     RDKit          3D

 28 29  0  0  1  0  0  0  0  0999 V2000
    6.0608  -18.8110   20.1659 N   0  0  0  0  0  0  0  0  0  0  0  0
    5.7416  -17.4659   20.5769 C   0  0  1  0  0  0  0  0  0  0  0  0
    5.0757  -17.5582   21.9520 C   0  0  0  0  0  0  0  0  0  0  0  0
    3.8245  -18.3553   21.8957 C   0  0  0  0  0  0  0  0  0  0  0  0
    2.9142  -18.2015   20.8613 C   0  0  0  0  0  0  0  0  0  0  0  0
    1.7706  -18.9701   20.8643 C   0  0  0  0  0  0  0  0  0  0  0  0
    1.5201  -19.8836   21.8738 C   0  0  0  0  0  0  0  0  0  0  0  0
    2.4225  -20.0353   22.8980 C   0  0  0  0  0  0  0  0  0  0  0  0
    3.5670  -19.2583   22.8846 C   0  0  0  0  0  0  0  0  0  0  0  0
    6.9635  -16.6381   20.7472 C   0  0  0  0  0  0  0  0  0  0  0  0
    8.0551  -17.2383   20.8652 O   0  0  0  0  0  0  0  0  0  0  0  0
    7.7779  -12.9374   20.8953 C   0  0  0  0  0  0  0  0  0  0  0  0
    8.1094  -14.4283   21.0082 C   0  0  2  0  0  0  0  0  0  0  0  0
    6.9362  -15.2290   20.7800 N   0  0  0  0  0  0  0  0  0  0  0  0
    8.6953  -14.6341   22.3418 C   0  0  0  0  0  0  0  0  0  0  0  0
    9.8002  -14.0962   22.5948 O   0  0  0  0  0  0  0  0  0  0  0  0
    8.1283  -15.3904   23.3851 N   0  0  0  0  0  0  0  0  0  0  0  0
    8.7230  -15.5906   24.6607 C   0  0  1  0  0  0  0  0  0  0  0  0
    7.8976  -15.5143   25.8550 C   0  0  0  0  0  0  0  0  0  0  0  0
    7.4370  -14.1227   26.1824 C   0  0  0  0  0  0  0  0  0  0  0  0
    6.1237  -13.7185   26.0899 C   0  0  0  0  0  0  0  0  0  0  0  0
    5.7113  -12.4411   26.3859 C   0  0  0  0  0  0  0  0  0  0  0  0
    6.6179  -11.4982   26.7951 C   0  0  0  0  0  0  0  0  0  0  0  0
    7.9347  -11.8936   26.8909 C   0  0  0  0  0  0  0  0  0  0  0  0
    8.3611  -13.1664   26.5984 C   0  0  0  0  0  0  0  0  0  0  0  0
    9.4449  -16.8877   24.6572 C   0  0  0  0  0  0  0  0  0  0  0  0
    9.3776  -17.6885   23.6780 O   0  0  0  0  0  0  0  0  0  0  0  0
   10.2453  -17.3236   25.7146 O   0  0  0  0  0  0  0  0  0  0  0  0
  2  1  1  1
  2 10  1  0
  3  2  1  0
  3  4  1  0
  4  9  1  0
  5  4  2  0
  5  6  1  0
  6  7  2  0
  7  8  1  0
  9  8  2  0
 10 14  1  0
 10 11  2  0
 13 12  1  1
 13 15  1  0
 14 13  1  0
 15 16  2  0
 17 18  1  0
 17 15  1  0
 18 19  1  1
 20 19  1  0
 21 20  2  0
 22 21  1  0
 23 24  1  0
 23 22  2  0
 24 25  2  0
 25 20  1  0
 26 18  1  0
 26 28  1  0
 27 26  2  0
M  END
$$$$
