FAF.pdb
     RDKit          3D

 28 29  0  0  1  0  0  0  0  0999 V2000
    4.3518  -18.2555   20.5458 N   0  0  0  0  0  0  0  0  0  0  0  0
    5.5841  -17.5227   20.7032 C   0  0  1  0  0  0  0  0  0  0  0  0
    5.2994  -16.0692   20.3172 C   0  0  0  0  0  0  0  0  0  0  0  0
    6.5287  -15.2396   20.3858 C   0  0  0  0  0  0  0  0  0  0  0  0
    7.7592  -15.7342   19.9809 C   0  0  0  0  0  0  0  0  0  0  0  0
    8.8643  -14.9160   20.0685 C   0  0  0  0  0  0  0  0  0  0  0  0
    8.7652  -13.6217   20.5495 C   0  0  0  0  0  0  0  0  0  0  0  0
    7.5460  -13.1327   20.9502 C   0  0  0  0  0  0  0  0  0  0  0  0
    6.4435  -13.9631   20.8578 C   0  0  0  0  0  0  0  0  0  0  0  0
    6.0391  -17.5092   22.1174 C   0  0  0  0  0  0  0  0  0  0  0  0
    5.2976  -16.9512   22.9568 O   0  0  0  0  0  0  0  0  0  0  0  0
    8.1146  -19.5621   24.2889 C   0  0  0  0  0  0  0  0  0  0  0  0
    7.6567  -18.1488   23.9171 C   0  0  2  0  0  0  0  0  0  0  0  0
    7.2523  -18.0913   22.5377 N   0  0  0  0  0  0  0  0  0  0  0  0
    8.7748  -17.2441   24.2266 C   0  0  0  0  0  0  0  0  0  0  0  0
    9.7522  -17.2170   23.4404 O   0  0  0  0  0  0  0  0  0  0  0  0
    8.8597  -16.3874   25.3404 N   0  0  0  0  0  0  0  0  0  0  0  0
    9.9669  -15.5466   25.6373 C   0  0  1  0  0  0  0  0  0  0  0  0
    9.8418  -14.1092   25.4596 C   0  0  0  0  0  0  0  0  0  0  0  0
    8.5578  -13.5441   25.9963 C   0  0  0  0  0  0  0  0  0  0  0  0
    8.4679  -12.8775   27.1981 C   0  0  0  0  0  0  0  0  0  0  0  0
    7.2875  -12.3686   27.6850 C   0  0  0  0  0  0  0  0  0  0  0  0
    6.1259  -12.5103   26.9716 C   0  0  0  0  0  0  0  0  0  0  0  0
    6.2061  -13.1759   25.7675 C   0  0  0  0  0  0  0  0  0  0  0  0
    7.3785  -13.6897   25.2686 C   0  0  0  0  0  0  0  0  0  0  0  0
   10.4228  -15.8220   27.0229 C   0  0  0  0  0  0  0  0  0  0  0  0
   11.5089  -15.3532   27.4757 O   0  0  0  0  0  0  0  0  0  0  0  0
    9.7029  -16.6058   27.9263 O   0  0  0  0  0  0  0  0  0  0  0  0
  2  1  1  1
  2 10  1  0
  3  2  1  0
  3  4  1  0
  4  9  1  0
  5  4  2  0
  5  6  1  0
  6  7  2  0
  7  8  1  0
  9  8  2  0
 10 14  1  0
 10 11  2  0
 13 12  1  6
 13 15  1  0
 14 13  1  0
 15 16  2  0
 17 18  1  0
 17 15  1  0
 18 19  1  1
 20 19  1  0
 21 20  2  0
 22 21  1  0
 23 24  1  0
 23 22  2  0
 24 25  2  0
 25 20  1  0
 26 18  1  0
 26 28  1  0
 27 26  2  0
M  END
$$$$
