FAF.pdb
     RDKit          3D

 28 29  0  0  1  0  0  0  0  0999 V2000
    5.7250  -17.3442   24.0428 N   0  0  0  0  0  0  0  0  0  0  0  0
    6.8188  -16.4041   24.0500 C   0  0  1  0  0  0  0  0  0  0  0  0
    7.0306  -15.9666   25.5014 C   0  0  0  0  0  0  0  0  0  0  0  0
    6.7938  -14.5106   25.6685 C   0  0  0  0  0  0  0  0  0  0  0  0
    5.8255  -14.0296   26.5366 C   0  0  0  0  0  0  0  0  0  0  0  0
    5.6526  -12.6673   26.6484 C   0  0  0  0  0  0  0  0  0  0  0  0
    6.4229  -11.7814   25.9148 C   0  0  0  0  0  0  0  0  0  0  0  0
    7.3818  -12.2588   25.0552 C   0  0  0  0  0  0  0  0  0  0  0  0
    7.5465  -13.6283   24.9511 C   0  0  0  0  0  0  0  0  0  0  0  0
    8.0880  -17.0336   23.6027 C   0  0  0  0  0  0  0  0  0  0  0  0
    8.2227  -18.2622   23.7976 O   0  0  0  0  0  0  0  0  0  0  0  0
   10.7157  -16.3926   21.1260 C   0  0  0  0  0  0  0  0  0  0  0  0
   10.3378  -16.9246   22.5114 C   0  0  2  0  0  0  0  0  0  0  0  0
    9.1244  -16.3095   22.9792 N   0  0  0  0  0  0  0  0  0  0  0  0
   11.4879  -16.6707   23.3930 C   0  0  0  0  0  0  0  0  0  0  0  0
   12.1554  -15.6238   23.2121 O   0  0  0  0  0  0  0  0  0  0  0  0
   11.9239  -17.5025   24.4417 N   0  0  0  0  0  0  0  0  0  0  0  0
   11.5658  -17.3437   25.8083 C   0  0  1  0  0  0  0  0  0  0  0  0
   10.2422  -16.8476   26.1481 C   0  0  0  0  0  0  0  0  0  0  0  0
   10.2555  -15.7321   27.1538 C   0  0  0  0  0  0  0  0  0  0  0  0
    9.8330  -14.4523   26.8706 C   0  0  0  0  0  0  0  0  0  0  0  0
    9.8541  -13.4355   27.7953 C   0  0  0  0  0  0  0  0  0  0  0  0
   10.3089  -13.6659   29.0675 C   0  0  0  0  0  0  0  0  0  0  0  0
   10.7337  -14.9439   29.3603 C   0  0  0  0  0  0  0  0  0  0  0  0
   10.7184  -15.9696   28.4465 C   0  0  0  0  0  0  0  0  0  0  0  0
   11.7952  -18.6269   26.5184 C   0  0  0  0  0  0  0  0  0  0  0  0
   11.3678  -19.7293   26.0638 O   0  0  0  0  0  0  0  0  0  0  0  0
   12.4909  -18.7228   27.7249 O   0  0  0  0  0  0  0  0  0  0  0  0
  2  1  1  1
  2 10  1  0
  3  2  1  0
  3  4  1  0
  4  9  1  0
  5  4  2  0
  5  6  1  0
  6  7  2  0
  7  8  1  0
  9  8  2  0
 10 14  1  0
 10 11  2  0
 13 12  1  6
 13 15  1  0
 14 13  1  0
 15 16  2  0
 17 18  1  0
 17 15  1  0
 18 19  1  6
 20 19  1  0
 21 20  2  0
 22 21  1  0
 23 24  1  0
 23 22  2  0
 24 25  2  0
 25 20  1  0
 26 18  1  0
 26 28  1  0
 27 26  2  0
M  END
$$$$
