FAF.pdb
     RDKit          3D

 28 29  0  0  1  0  0  0  0  0999 V2000
    5.8570  -17.5273   20.8063 N   0  0  0  0  0  0  0  0  0  0  0  0
    6.9105  -16.5556   20.9678 C   0  0  1  0  0  0  0  0  0  0  0  0
    6.2493  -15.1765   21.0298 C   0  0  0  0  0  0  0  0  0  0  0  0
    7.2617  -14.0927   21.0978 C   0  0  0  0  0  0  0  0  0  0  0  0
    7.5855  -13.4790   22.2981 C   0  0  0  0  0  0  0  0  0  0  0  0
    8.5333  -12.4789   22.2973 C   0  0  0  0  0  0  0  0  0  0  0  0
    9.1601  -12.0823   21.1284 C   0  0  0  0  0  0  0  0  0  0  0  0
    8.8387  -12.6909   19.9399 C   0  0  0  0  0  0  0  0  0  0  0  0
    7.8858  -13.6936   19.9528 C   0  0  0  0  0  0  0  0  0  0  0  0
    7.6374  -16.7403   22.2502 C   0  0  0  0  0  0  0  0  0  0  0  0
    6.9514  -16.8743   23.2881 O   0  0  0  0  0  0  0  0  0  0  0  0
   11.0972  -17.9147   23.0046 C   0  0  0  0  0  0  0  0  0  0  0  0
    9.7486  -17.3433   23.4518 C   0  0  2  0  0  0  0  0  0  0  0  0
    9.0442  -16.7692   22.3365 N   0  0  0  0  0  0  0  0  0  0  0  0
   10.0316  -16.3681   24.5164 C   0  0  0  0  0  0  0  0  0  0  0  0
   10.4690  -15.2392   24.1872 O   0  0  0  0  0  0  0  0  0  0  0  0
    9.8571  -16.5793   25.8973 N   0  0  0  0  0  0  0  0  0  0  0  0
   10.1609  -15.6292   26.9101 C   0  0  1  0  0  0  0  0  0  0  0  0
    9.1344  -15.2508   27.8674 C   0  0  0  0  0  0  0  0  0  0  0  0
    8.0016  -14.4725   27.2616 C   0  0  0  0  0  0  0  0  0  0  0  0
    6.8240  -15.0512   26.8431 C   0  0  0  0  0  0  0  0  0  0  0  0
    5.7943  -14.3324   26.2841 C   0  0  0  0  0  0  0  0  0  0  0  0
    5.9062  -12.9765   26.1191 C   0  0  0  0  0  0  0  0  0  0  0  0
    7.0811  -12.3884   26.5352 C   0  0  0  0  0  0  0  0  0  0  0  0
    8.1183  -13.0941   27.0953 C   0  0  0  0  0  0  0  0  0  0  0  0
   11.3649  -16.0829   27.6505 C   0  0  0  0  0  0  0  0  0  0  0  0
   11.9124  -15.3673   28.5408 O   0  0  0  0  0  0  0  0  0  0  0  0
   11.9815  -17.3160   27.4311 O   0  0  0  0  0  0  0  0  0  0  0  0
  2  1  1  1
  2 10  1  0
  3  2  1  0
  3  4  1  0
  4  9  1  0
  5  4  2  0
  5  6  1  0
  6  7  2  0
  7  8  1  0
  9  8  2  0
 10 14  1  0
 10 11  2  0
 13 12  1  6
 13 15  1  0
 14 13  1  0
 15 16  2  0
 17 18  1  0
 17 15  1  0
 18 19  1  1
 20 19  1  0
 21 20  2  0
 22 21  1  0
 23 24  1  0
 23 22  2  0
 24 25  2  0
 25 20  1  0
 26 18  1  0
 26 28  1  0
 27 26  2  0
M  END
$$$$
