TMS.pdb
     RDKit          3D

 22 21  0  0  1  0  0  0  0  0999 V2000
   20.4182  -10.2360  -16.3023 C   0  0  0  0  0  0  0  0  0  0  0  0
   20.3542   -8.9144  -15.5691 C   0  0  1  0  0  0  0  0  0  0  0  0
   19.2632   -8.8977  -14.7111 O   0  0  0  0  0  0  0  0  0  0  0  0
   21.6324   -8.7953  -14.7339 C   0  0  2  0  0  0  0  0  0  0  0  0
   21.4283   -7.6088  -13.9049 N   0  0  0  0  0  0  0  0  0  0  0  0
   22.8261   -8.6824  -15.5882 C   0  0  0  0  0  0  0  0  0  0  0  0
   23.0787   -7.6087  -16.2215 O   0  0  0  0  0  0  0  0  0  0  0  0
   27.9549  -13.0001  -16.5185 C   0  0  0  0  0  0  0  0  0  0  0  0
   28.3463  -11.6541  -15.3771 S   0  0  0  0  0  0  0  0  0  0  0  0
   27.1643  -10.2954  -15.7117 C   0  0  0  0  0  0  0  0  0  0  0  0
   25.8438  -10.8135  -16.1308 C   0  0  0  0  0  0  0  0  0  0  0  0
   24.9112   -9.6968  -16.5243 C   0  0  2  0  0  0  0  0  0  0  0  0
   23.6958   -9.7808  -15.7012 N   0  0  0  0  0  0  0  0  0  0  0  0
   24.5741   -9.7766  -17.9431 C   0  0  0  0  0  0  0  0  0  0  0  0
   23.7303  -10.5698  -18.3907 O   0  0  0  0  0  0  0  0  0  0  0  0
   26.3155   -7.1389  -20.7798 O   0  0  0  0  0  0  0  0  0  0  0  0
   25.0321   -7.6014  -20.9625 C   0  0  0  0  0  0  0  0  0  0  0  0
   24.8495   -8.9560  -20.2950 C   0  0  2  0  0  0  0  0  0  0  0  0
   25.2202   -8.9194  -18.9068 N   0  0  0  0  0  0  0  0  0  0  0  0
   25.5942  -10.0244  -20.9653 C   0  0  0  0  0  0  0  0  0  0  0  0
   26.5042  -10.7041  -20.3932 O   0  0  0  0  0  0  0  0  0  0  0  0
   25.3488  -10.3719  -22.2986 O   0  0  0  0  0  0  0  0  0  0  0  0
  2  1  1  1
  2  3  1  0
  4  2  1  0
  4  5  1  1
  6  4  1  0
  6  7  2  0
  8  9  1  0
  9 10  1  0
 10 11  1  0
 12 11  1  1
 12 13  1  0
 12 14  1  0
 13  6  1  0
 14 15  2  0
 14 19  1  0
 16 17  1  0
 18 17  1  6
 18 20  1  0
 19 18  1  0
 20 21  2  0
 20 22  1  0
M  END
$$$$
