TMS.pdb
     RDKit          3D

 22 21  0  0  1  0  0  0  0  0999 V2000
   18.6167   -9.8774  -18.0302 C   0  0  0  0  0  0  0  0  0  0  0  0
   18.3809  -11.1897  -17.3155 C   0  0  1  0  0  0  0  0  0  0  0  0
   17.3494  -11.8876  -17.9285 O   0  0  0  0  0  0  0  0  0  0  0  0
   19.6666  -12.0125  -17.4396 C   0  0  2  0  0  0  0  0  0  0  0  0
   19.3280  -13.3216  -16.8842 N   0  0  0  0  0  0  0  0  0  0  0  0
   20.7858  -11.3748  -16.7266 C   0  0  0  0  0  0  0  0  0  0  0  0
   20.8401  -11.3796  -15.4559 O   0  0  0  0  0  0  0  0  0  0  0  0
   27.4445  -10.4048  -14.8693 C   0  0  0  0  0  0  0  0  0  0  0  0
   26.1720  -11.1603  -15.9072 S   0  0  0  0  0  0  0  0  0  0  0  0
   25.3752   -9.8133  -16.8591 C   0  0  0  0  0  0  0  0  0  0  0  0
   24.1811  -10.2940  -17.5875 C   0  0  0  0  0  0  0  0  0  0  0  0
   22.9214  -10.0755  -16.7895 C   0  0  2  0  0  0  0  0  0  0  0  0
   21.8063  -10.7535  -17.4668 N   0  0  0  0  0  0  0  0  0  0  0  0
   22.6394   -8.6499  -16.6430 C   0  0  0  0  0  0  0  0  0  0  0  0
   22.4142   -7.9056  -17.6110 O   0  0  0  0  0  0  0  0  0  0  0  0
   21.8330   -4.9186  -13.5986 O   0  0  0  0  0  0  0  0  0  0  0  0
   22.2074   -6.2373  -13.7222 C   0  0  0  0  0  0  0  0  0  0  0  0
   22.2480   -6.6488  -15.1861 C   0  0  2  0  0  0  0  0  0  0  0  0
   22.6098   -8.0313  -15.3402 N   0  0  0  0  0  0  0  0  0  0  0  0
   23.1552   -5.8207  -15.9838 C   0  0  0  0  0  0  0  0  0  0  0  0
   22.7719   -4.8015  -16.6408 O   0  0  0  0  0  0  0  0  0  0  0  0
   24.5232   -6.1013  -16.0761 O   0  0  0  0  0  0  0  0  0  0  0  0
  2  1  1  6
  2  3  1  0
  4  2  1  0
  4  5  1  1
  6  4  1  0
  6  7  2  0
  8  9  1  0
  9 10  1  0
 10 11  1  0
 12 11  1  6
 12 13  1  0
 12 14  1  0
 13  6  1  0
 14 15  2  0
 14 19  1  0
 16 17  1  0
 18 17  1  1
 18 20  1  0
 19 18  1  0
 20 21  2  0
 20 22  1  0
M  END
$$$$
