TMS.pdb
     RDKit          3D

 22 21  0  0  1  0  0  0  0  0999 V2000
   20.1607  -12.2504  -19.1415 C   0  0  0  0  0  0  0  0  0  0  0  0
   20.0130  -13.5105  -18.3176 C   0  0  1  0  0  0  0  0  0  0  0  0
   19.6793  -14.5797  -19.1376 O   0  0  0  0  0  0  0  0  0  0  0  0
   21.3737  -13.7958  -17.6752 C   0  0  2  0  0  0  0  0  0  0  0  0
   21.2161  -15.0967  -17.0274 N   0  0  0  0  0  0  0  0  0  0  0  0
   21.7525  -12.7389  -16.7228 C   0  0  0  0  0  0  0  0  0  0  0  0
   21.0752  -12.5372  -15.6653 O   0  0  0  0  0  0  0  0  0  0  0  0
   27.9369  -13.1641  -14.7210 C   0  0  0  0  0  0  0  0  0  0  0  0
   27.2469  -11.7365  -15.5890 S   0  0  0  0  0  0  0  0  0  0  0  0
   25.4228  -11.8606  -15.4768 C   0  0  0  0  0  0  0  0  0  0  0  0
   24.7583  -10.6983  -16.1054 C   0  0  0  0  0  0  0  0  0  0  0  0
   23.2584  -10.8448  -16.0920 C   0  0  2  0  0  0  0  0  0  0  0  0
   22.8805  -11.9446  -16.9917 N   0  0  0  0  0  0  0  0  0  0  0  0
   22.6109   -9.6022  -16.5039 C   0  0  0  0  0  0  0  0  0  0  0  0
   22.5925   -9.2115  -17.6823 O   0  0  0  0  0  0  0  0  0  0  0  0
   19.1851   -8.5735  -15.2127 O   0  0  0  0  0  0  0  0  0  0  0  0
   19.9326   -7.4185  -15.1713 C   0  0  0  0  0  0  0  0  0  0  0  0
   21.2253   -7.5874  -15.9551 C   0  0  2  0  0  0  0  0  0  0  0  0
   21.9506   -8.7566  -15.5395 N   0  0  0  0  0  0  0  0  0  0  0  0
   22.1019   -6.4176  -15.8633 C   0  0  0  0  0  0  0  0  0  0  0  0
   23.2962   -6.4744  -15.4298 O   0  0  0  0  0  0  0  0  0  0  0  0
   21.6761   -5.1426  -16.2528 O   0  0  0  0  0  0  0  0  0  0  0  0
  2  1  1  6
  2  3  1  0
  4  2  1  0
  4  5  1  1
  6  4  1  0
  6  7  2  0
  8  9  1  0
  9 10  1  0
 10 11  1  0
 12 11  1  6
 12 13  1  0
 12 14  1  0
 13  6  1  0
 14 15  2  0
 14 19  1  0
 16 17  1  0
 18 17  1  1
 18 20  1  0
 19 18  1  0
 20 21  2  0
 20 22  1  0
M  END
$$$$
