TMS.pdb
     RDKit          3D

 22 21  0  0  1  0  0  0  0  0999 V2000
   19.2424  -12.6547  -18.9097 C   0  0  0  0  0  0  0  0  0  0  0  0
   19.1737  -14.0010  -18.2232 C   0  0  1  0  0  0  0  0  0  0  0  0
   18.8435  -14.9881  -19.1416 O   0  0  0  0  0  0  0  0  0  0  0  0
   20.5693  -14.3000  -17.6679 C   0  0  2  0  0  0  0  0  0  0  0  0
   20.4790  -15.6608  -17.1418 N   0  0  0  0  0  0  0  0  0  0  0  0
   20.9588  -13.3256  -16.6351 C   0  0  0  0  0  0  0  0  0  0  0  0
   20.4241  -13.3458  -15.4813 O   0  0  0  0  0  0  0  0  0  0  0  0
   26.7619  -14.2176  -14.6584 C   0  0  0  0  0  0  0  0  0  0  0  0
   26.2300  -12.6291  -15.3376 S   0  0  0  0  0  0  0  0  0  0  0  0
   24.3983  -12.6209  -15.3329 C   0  0  0  0  0  0  0  0  0  0  0  0
   23.8582  -11.3499  -15.8626 C   0  0  0  0  0  0  0  0  0  0  0  0
   22.3527  -11.3736  -15.9285 C   0  0  2  0  0  0  0  0  0  0  0  0
   21.9367  -12.3616  -16.9347 N   0  0  0  0  0  0  0  0  0  0  0  0
   21.8261  -10.0526  -16.2612 C   0  0  0  0  0  0  0  0  0  0  0  0
   21.9346   -9.5499  -17.3913 O   0  0  0  0  0  0  0  0  0  0  0  0
   19.0864   -8.0743  -13.7150 O   0  0  0  0  0  0  0  0  0  0  0  0
   19.0930   -7.9295  -15.0838 C   0  0  0  0  0  0  0  0  0  0  0  0
   20.5117   -8.0156  -15.6259 C   0  0  2  0  0  0  0  0  0  0  0  0
   21.1425   -9.2572  -15.2706 N   0  0  0  0  0  0  0  0  0  0  0  0
   21.3559   -6.9023  -15.1867 C   0  0  0  0  0  0  0  0  0  0  0  0
   22.4002   -7.0575  -14.4775 O   0  0  0  0  0  0  0  0  0  0  0  0
   21.0642   -5.5757  -15.5240 O   0  0  0  0  0  0  0  0  0  0  0  0
  2  1  1  6
  2  3  1  0
  4  2  1  0
  4  5  1  1
  6  4  1  0
  6  7  2  0
  8  9  1  0
  9 10  1  0
 10 11  1  0
 12 11  1  6
 12 13  1  0
 12 14  1  0
 13  6  1  0
 14 15  2  0
 14 19  1  0
 16 17  1  0
 18 17  1  1
 18 20  1  0
 19 18  1  0
 20 21  2  0
 20 22  1  0
M  END
$$$$
