TMS.pdb
     RDKit          3D

 22 21  0  0  1  0  0  0  0  0999 V2000
   18.3771   -8.9536  -17.7221 C   0  0  0  0  0  0  0  0  0  0  0  0
   17.9558  -10.1435  -16.8885 C   0  0  1  0  0  0  0  0  0  0  0  0
   17.0829  -10.9461  -17.6102 O   0  0  0  0  0  0  0  0  0  0  0  0
   19.2189  -10.9528  -16.5800 C   0  0  2  0  0  0  0  0  0  0  0  0
   18.7346  -12.1680  -15.9278 N   0  0  0  0  0  0  0  0  0  0  0  0
   20.1507  -10.1943  -15.7289 C   0  0  0  0  0  0  0  0  0  0  0  0
   19.8008   -9.7879  -14.5757 O   0  0  0  0  0  0  0  0  0  0  0  0
   26.9638  -10.2462  -14.7291 C   0  0  0  0  0  0  0  0  0  0  0  0
   25.8460  -11.2223  -15.7612 S   0  0  0  0  0  0  0  0  0  0  0  0
   24.1349  -10.7630  -15.2958 C   0  0  0  0  0  0  0  0  0  0  0  0
   23.7781   -9.4167  -15.7934 C   0  0  0  0  0  0  0  0  0  0  0  0
   22.3580   -9.0552  -15.4409 C   0  0  2  0  0  0  0  0  0  0  0  0
   21.4446   -9.9188  -16.2036 N   0  0  0  0  0  0  0  0  0  0  0  0
   22.0924   -7.6486  -15.7304 C   0  0  0  0  0  0  0  0  0  0  0  0
   22.0483   -7.1960  -16.8858 O   0  0  0  0  0  0  0  0  0  0  0  0
   19.9139   -3.6231  -14.5147 O   0  0  0  0  0  0  0  0  0  0  0  0
   20.1867   -4.9561  -14.3064 C   0  0  0  0  0  0  0  0  0  0  0  0
   21.5114   -5.3396  -14.9483 C   0  0  2  0  0  0  0  0  0  0  0  0
   21.8649   -6.7035  -14.6645 N   0  0  0  0  0  0  0  0  0  0  0  0
   22.6126   -4.4618  -14.5459 C   0  0  0  0  0  0  0  0  0  0  0  0
   23.2912   -4.6373  -13.4847 O   0  0  0  0  0  0  0  0  0  0  0  0
   22.9954   -3.3567  -15.3145 O   0  0  0  0  0  0  0  0  0  0  0  0
  2  1  1  6
  2  3  1  0
  4  2  1  0
  4  5  1  1
  6  4  1  0
  6  7  2  0
  8  9  1  0
  9 10  1  0
 10 11  1  0
 12 11  1  6
 12 13  1  0
 12 14  1  0
 13  6  1  0
 14 15  2  0
 14 19  1  0
 16 17  1  0
 18 17  1  1
 18 20  1  0
 19 18  1  0
 20 21  2  0
 20 22  1  0
M  END
$$$$
