GFK.pdb
     RDKit          3D

 25 25  0  0  1  0  0  0  0  0999 V2000
    9.5399  -16.7027   18.9031 N   0  0  0  0  0  0  0  0  0  0  0  0
    8.3546  -16.4060   19.6844 C   0  0  0  0  0  0  0  0  0  0  0  0
    8.7149  -15.8231   20.9999 C   0  0  0  0  0  0  0  0  0  0  0  0
    9.8650  -16.0388   21.4487 O   0  0  0  0  0  0  0  0  0  0  0  0
    7.8191  -15.0487   21.7458 N   0  0  0  0  0  0  0  0  0  0  0  0
    8.0926  -14.4976   23.0558 C   0  0  1  0  0  0  0  0  0  0  0  0
    6.9262  -13.6527   23.4653 C   0  0  0  0  0  0  0  0  0  0  0  0
    7.0634  -13.0767   24.8040 C   0  0  0  0  0  0  0  0  0  0  0  0
    6.2118  -13.4358   25.8190 C   0  0  0  0  0  0  0  0  0  0  0  0
    6.3373  -12.8976   27.0762 C   0  0  0  0  0  0  0  0  0  0  0  0
    7.3380  -11.9769   27.3296 C   0  0  0  0  0  0  0  0  0  0  0  0
    8.2084  -11.6076   26.2989 C   0  0  0  0  0  0  0  0  0  0  0  0
    8.0633  -12.1615   25.0433 C   0  0  0  0  0  0  0  0  0  0  0  0
    8.2241  -15.6136   24.0530 C   0  0  0  0  0  0  0  0  0  0  0  0
    7.3257  -16.4904   24.1163 O   0  0  0  0  0  0  0  0  0  0  0  0
    9.3220  -15.7127   24.9224 N   0  0  0  0  0  0  0  0  0  0  0  0
    9.5794  -16.9474   25.6148 C   0  0  1  0  0  0  0  0  0  0  0  0
   10.7624  -17.6896   24.9818 C   0  0  0  0  0  0  0  0  0  0  0  0
   10.9702  -18.9966   25.6708 C   0  0  0  0  0  0  0  0  0  0  0  0
   12.0753  -19.8440   25.1622 C   0  0  0  0  0  0  0  0  0  0  0  0
   12.2217  -21.1940   25.7636 C   0  0  0  0  0  0  0  0  0  0  0  0
   13.2689  -22.0067   25.1858 N   0  0  0  0  0  0  0  0  0  0  0  0
    9.8964  -16.6874   27.0374 C   0  0  0  0  0  0  0  0  0  0  0  0
   10.4245  -15.5856   27.3661 O   0  0  0  0  0  0  0  0  0  0  0  0
    9.6110  -17.6493   27.9770 O   0  0  0  0  0  0  0  0  0  0  0  0
  1  2  1  0
  2  3  1  0
  3  4  2  0
  5  3  1  0
  6  5  1  0
  6  7  1  1
  8  7  1  0
  9  8  2  0
 10  9  1  0
 11 12  1  0
 11 10  2  0
 12 13  2  0
 13  8  1  0
 14  6  1  0
 15 14  2  0
 16 14  1  0
 17 16  1  0
 17 23  1  0
 17 18  1  6
 19 20  1  0
 19 18  1  0
 20 21  1  0
 22 21  1  0
 23 24  2  0
 23 25  1  0
M  END
$$$$
