GFK.pdb
     RDKit          3D

 25 25  0  0  1  0  0  0  0  0999 V2000
    8.4541  -16.4736   18.3954 N   0  0  0  0  0  0  0  0  0  0  0  0
    7.4701  -16.4331   19.4600 C   0  0  0  0  0  0  0  0  0  0  0  0
    8.0212  -15.7781   20.6713 C   0  0  0  0  0  0  0  0  0  0  0  0
    9.2627  -15.6250   20.7494 O   0  0  0  0  0  0  0  0  0  0  0  0
    7.2057  -15.3313   21.7172 N   0  0  0  0  0  0  0  0  0  0  0  0
    7.6827  -14.6862   22.9217 C   0  0  1  0  0  0  0  0  0  0  0  0
    6.5006  -14.1593   23.6747 C   0  0  0  0  0  0  0  0  0  0  0  0
    6.8462  -13.5807   24.9742 C   0  0  0  0  0  0  0  0  0  0  0  0
    6.6128  -14.2683   26.1391 C   0  0  0  0  0  0  0  0  0  0  0  0
    6.9357  -13.7288   27.3600 C   0  0  0  0  0  0  0  0  0  0  0  0
    7.5064  -12.4704   27.4226 C   0  0  0  0  0  0  0  0  0  0  0  0
    7.7464  -11.7655   26.2387 C   0  0  0  0  0  0  0  0  0  0  0  0
    7.4137  -12.3276   25.0230 C   0  0  0  0  0  0  0  0  0  0  0  0
    8.3700  -15.6975   23.7948 C   0  0  0  0  0  0  0  0  0  0  0  0
    7.8296  -16.8167   23.9818 O   0  0  0  0  0  0  0  0  0  0  0  0
    9.6028  -15.4349   24.4133 N   0  0  0  0  0  0  0  0  0  0  0  0
   10.4117  -16.5245   24.8915 C   0  0  1  0  0  0  0  0  0  0  0  0
   11.8547  -16.3914   24.3907 C   0  0  0  0  0  0  0  0  0  0  0  0
   12.6659  -17.5512   24.8629 C   0  0  0  0  0  0  0  0  0  0  0  0
   14.1005  -17.5511   24.4886 C   0  0  0  0  0  0  0  0  0  0  0  0
   14.8869  -18.7635   24.8306 C   0  0  0  0  0  0  0  0  0  0  0  0
   16.1909  -18.5024   25.3981 N   0  0  0  0  0  0  0  0  0  0  0  0
   10.4295  -16.5459   26.3718 C   0  0  0  0  0  0  0  0  0  0  0  0
   10.2557  -15.4684   27.0119 O   0  0  0  0  0  0  0  0  0  0  0  0
   10.6348  -17.7378   27.0251 O   0  0  0  0  0  0  0  0  0  0  0  0
  1  2  1  0
  2  3  1  0
  3  4  2  0
  5  3  1  0
  6  5  1  0
  6  7  1  1
  8  7  1  0
  9  8  2  0
 10  9  1  0
 11 12  1  0
 11 10  2  0
 12 13  2  0
 13  8  1  0
 14  6  1  0
 15 14  2  0
 16 14  1  0
 17 16  1  0
 17 23  1  0
 17 18  1  6
 19 20  1  0
 19 18  1  0
 20 21  1  0
 22 21  1  0
 23 24  2  0
 23 25  1  0
M  END
$$$$
