AKY.pdb
     RDKit          3D

 27 27  0  0  1  0  0  0  0  0999 V2000
   12.8245  -19.7917   21.6061 C   0  0  0  0  0  0  0  0  0  0  0  0
   12.3832  -19.0557   20.3662 C   0  0  2  0  0  0  0  0  0  0  0  0
   13.4122  -18.9158   19.3799 N   0  0  0  0  0  0  0  0  0  0  0  0
   11.7467  -17.7487   20.7069 C   0  0  0  0  0  0  0  0  0  0  0  0
   12.4174  -16.8986   21.3384 O   0  0  0  0  0  0  0  0  0  0  0  0
   10.4088  -17.4936   20.3149 N   0  0  0  0  0  0  0  0  0  0  0  0
    9.8813  -16.0945   20.3566 C   0  0  1  0  0  0  0  0  0  0  0  0
    8.9876  -15.9596   19.1666 C   0  0  0  0  0  0  0  0  0  0  0  0
    8.5148  -14.5947   18.8322 C   0  0  0  0  0  0  0  0  0  0  0  0
    7.6657  -14.6445   17.5837 C   0  0  0  0  0  0  0  0  0  0  0  0
    8.3585  -14.0206   16.3941 C   0  0  0  0  0  0  0  0  0  0  0  0
    7.4590  -14.0285   15.2571 N   0  0  0  0  0  0  0  0  0  0  0  0
    9.1878  -15.9658   21.6556 C   0  0  0  0  0  0  0  0  0  0  0  0
    8.8040  -17.0142   22.2860 O   0  0  0  0  0  0  0  0  0  0  0  0
    5.9122  -12.6805   29.0622 O   0  0  0  0  0  0  0  0  0  0  0  0
    6.4035  -12.8197   27.7659 C   0  0  0  0  0  0  0  0  0  0  0  0
    7.7241  -13.1582   27.5796 C   0  0  0  0  0  0  0  0  0  0  0  0
    8.2603  -13.3088   26.3118 C   0  0  0  0  0  0  0  0  0  0  0  0
    7.4588  -13.1167   25.2140 C   0  0  0  0  0  0  0  0  0  0  0  0
    8.0203  -13.2565   23.8707 C   0  0  0  0  0  0  0  0  0  0  0  0
    8.2644  -14.7199   23.5827 C   0  0  2  0  0  0  0  0  0  0  0  0
    8.9213  -14.7418   22.2553 N   0  0  0  0  0  0  0  0  0  0  0  0
    7.0115  -15.5027   23.5150 C   0  0  0  0  0  0  0  0  0  0  0  0
    6.3246  -15.4638   22.4468 O   0  0  0  0  0  0  0  0  0  0  0  0
    6.1424  -12.7792   25.4033 C   0  0  0  0  0  0  0  0  0  0  0  0
    5.5963  -12.6260   26.6598 C   0  0  0  0  0  0  0  0  0  0  0  0
    6.5771  -16.2702   24.5795 O   0  0  0  0  0  0  0  0  0  0  0  0
  2  1  1  1
  3  2  1  0
  4  5  2  0
  4  2  1  0
  6  4  1  0
  7  6  1  0
  7  8  1  6
  8  9  1  0
 10  9  1  0
 11 12  1  0
 11 10  1  0
 13  7  1  0
 14 13  2  0
 15 16  1  0
 16 26  2  0
 17 18  2  0
 17 16  1  0
 18 19  1  0
 19 20  1  0
 19 25  2  0
 21 20  1  6
 21 23  1  0
 21 22  1  0
 22 13  1  0
 23 27  1  0
 24 23  2  0
 26 25  1  0
M  END
$$$$
