AKY.pdb
     RDKit          3D

 27 27  0  0  1  0  0  0  0  0999 V2000
    8.1579  -11.9826   19.6034 C   0  0  0  0  0  0  0  0  0  0  0  0
    8.1669  -13.2606   18.8031 C   0  0  2  0  0  0  0  0  0  0  0  0
    7.1625  -13.3114   17.7835 N   0  0  0  0  0  0  0  0  0  0  0  0
    8.1294  -14.4595   19.6924 C   0  0  0  0  0  0  0  0  0  0  0  0
    7.0325  -14.8059   20.1905 O   0  0  0  0  0  0  0  0  0  0  0  0
    9.3221  -15.1784   19.9558 N   0  0  0  0  0  0  0  0  0  0  0  0
    9.2813  -16.3708   20.8580 C   0  0  1  0  0  0  0  0  0  0  0  0
   10.1058  -17.4200   20.1854 C   0  0  0  0  0  0  0  0  0  0  0  0
    9.4528  -18.1985   19.1057 C   0  0  0  0  0  0  0  0  0  0  0  0
   10.4251  -19.2151   18.5551 C   0  0  0  0  0  0  0  0  0  0  0  0
    9.7874  -20.1190   17.5252 C   0  0  0  0  0  0  0  0  0  0  0  0
   10.7847  -21.0361   17.0091 N   0  0  0  0  0  0  0  0  0  0  0  0
    9.8219  -15.9113   22.1548 C   0  0  0  0  0  0  0  0  0  0  0  0
   10.8856  -15.1963   22.1908 O   0  0  0  0  0  0  0  0  0  0  0  0
   11.0645  -14.6235   30.6879 O   0  0  0  0  0  0  0  0  0  0  0  0
   10.4942  -14.8673   29.4403 C   0  0  0  0  0  0  0  0  0  0  0  0
   10.3662  -16.1650   29.0012 C   0  0  0  0  0  0  0  0  0  0  0  0
    9.8062  -16.4599   27.7695 C   0  0  0  0  0  0  0  0  0  0  0  0
    9.3679  -15.4366   26.9662 C   0  0  0  0  0  0  0  0  0  0  0  0
    8.7909  -15.7371   25.6563 C   0  0  0  0  0  0  0  0  0  0  0  0
    9.8938  -15.7784   24.6238 C   0  0  2  0  0  0  0  0  0  0  0  0
    9.2285  -16.2129   23.3737 N   0  0  0  0  0  0  0  0  0  0  0  0
   10.9576  -16.7468   24.9669 C   0  0  0  0  0  0  0  0  0  0  0  0
   12.0617  -16.3069   25.4162 O   0  0  0  0  0  0  0  0  0  0  0  0
    9.4971  -14.1438   27.4072 C   0  0  0  0  0  0  0  0  0  0  0  0
   10.0528  -13.8366   28.6308 C   0  0  0  0  0  0  0  0  0  0  0  0
   10.7768  -18.1086   24.8116 O   0  0  0  0  0  0  0  0  0  0  0  0
  2  1  1  1
  3  2  1  0
  4  5  2  0
  4  2  1  0
  6  4  1  0
  7  6  1  0
  7  8  1  6
  8  9  1  0
 10  9  1  0
 11 12  1  0
 11 10  1  0
 13  7  1  0
 14 13  2  0
 15 16  1  0
 16 26  2  0
 17 18  2  0
 17 16  1  0
 18 19  1  0
 19 20  1  0
 19 25  2  0
 21 20  1  1
 21 23  1  0
 21 22  1  0
 22 13  1  0
 23 27  1  0
 24 23  2  0
 26 25  1  0
M  END
$$$$
