AKY.pdb
     RDKit          3D

 27 27  0  0  1  0  0  0  0  0999 V2000
   10.9411  -23.1036   21.9237 C   0  0  0  0  0  0  0  0  0  0  0  0
   11.3751  -21.9694   22.8175 C   0  0  2  0  0  0  0  0  0  0  0  0
   10.3159  -21.4193   23.6092 N   0  0  0  0  0  0  0  0  0  0  0  0
   12.1078  -20.9203   22.0481 C   0  0  0  0  0  0  0  0  0  0  0  0
   13.0624  -21.2682   21.3139 O   0  0  0  0  0  0  0  0  0  0  0  0
   11.7160  -19.5628   22.1595 N   0  0  0  0  0  0  0  0  0  0  0  0
   12.4749  -18.5118   21.4132 C   0  0  1  0  0  0  0  0  0  0  0  0
   11.4739  -17.8288   20.5388 C   0  0  0  0  0  0  0  0  0  0  0  0
   11.2421  -18.4152   19.1970 C   0  0  0  0  0  0  0  0  0  0  0  0
   10.1556  -17.6421   18.4871 C   0  0  0  0  0  0  0  0  0  0  0  0
    9.8745  -18.1859   17.1052 C   0  0  0  0  0  0  0  0  0  0  0  0
    8.7868  -17.4367   16.5074 N   0  0  0  0  0  0  0  0  0  0  0  0
   13.0750  -17.6408   22.4459 C   0  0  0  0  0  0  0  0  0  0  0  0
   12.4528  -17.4258   23.5461 O   0  0  0  0  0  0  0  0  0  0  0  0
   11.4102  -18.1087   28.3905 O   0  0  0  0  0  0  0  0  0  0  0  0
   12.3540  -18.0673   27.3663 C   0  0  0  0  0  0  0  0  0  0  0  0
   13.3811  -17.1544   27.4345 C   0  0  0  0  0  0  0  0  0  0  0  0
   14.3440  -17.0736   26.4426 C   0  0  0  0  0  0  0  0  0  0  0  0
   14.2750  -17.9221   25.3657 C   0  0  0  0  0  0  0  0  0  0  0  0
   15.2775  -17.8326   24.3045 C   0  0  0  0  0  0  0  0  0  0  0  0
   15.0416  -16.5743   23.5013 C   0  0  2  0  0  0  0  0  0  0  0  0
   14.3105  -17.0250   22.2944 N   0  0  0  0  0  0  0  0  0  0  0  0
   16.3013  -15.9198   23.0870 C   0  0  0  0  0  0  0  0  0  0  0  0
   17.0178  -15.3585   23.9736 O   0  0  0  0  0  0  0  0  0  0  0  0
   13.2494  -18.8312   25.3008 C   0  0  0  0  0  0  0  0  0  0  0  0
   12.2844  -18.9219   26.2813 C   0  0  0  0  0  0  0  0  0  0  0  0
   16.7127  -15.9074   21.7672 O   0  0  0  0  0  0  0  0  0  0  0  0
  2  1  1  6
  3  2  1  0
  4  5  2  0
  4  2  1  0
  6  4  1  0
  7  6  1  0
  7  8  1  6
  8  9  1  0
 10  9  1  0
 11 12  1  0
 11 10  1  0
 13  7  1  0
 14 13  2  0
 15 16  1  0
 16 26  2  0
 17 18  2  0
 17 16  1  0
 18 19  1  0
 19 20  1  0
 19 25  2  0
 21 20  1  1
 21 23  1  0
 21 22  1  0
 22 13  1  0
 23 27  1  0
 24 23  2  0
 26 25  1  0
M  END
$$$$
