AKY.pdb
     RDKit          3D

 27 27  0  0  1  0  0  0  0  0999 V2000
    9.0448  -17.4830   17.2893 C   0  0  0  0  0  0  0  0  0  0  0  0
   10.0884  -17.1153   18.3138 C   0  0  2  0  0  0  0  0  0  0  0  0
   11.4172  -17.5087   17.9526 N   0  0  0  0  0  0  0  0  0  0  0  0
    9.7077  -17.5966   19.6750 C   0  0  0  0  0  0  0  0  0  0  0  0
    8.5987  -17.2526   20.1473 O   0  0  0  0  0  0  0  0  0  0  0  0
   10.5972  -18.4259   20.4029 N   0  0  0  0  0  0  0  0  0  0  0  0
   10.1797  -18.9679   21.7331 C   0  0  1  0  0  0  0  0  0  0  0  0
   10.8689  -20.2866   21.8712 C   0  0  0  0  0  0  0  0  0  0  0  0
   10.6704  -21.0188   23.1449 C   0  0  0  0  0  0  0  0  0  0  0  0
   11.3717  -22.3551   23.0757 C   0  0  0  0  0  0  0  0  0  0  0  0
   11.2011  -23.1585   24.3444 C   0  0  0  0  0  0  0  0  0  0  0  0
   11.9400  -24.4004   24.2284 N   0  0  0  0  0  0  0  0  0  0  0  0
   10.5970  -17.9566   22.7272 C   0  0  0  0  0  0  0  0  0  0  0  0
   11.7695  -17.4415   22.6669 O   0  0  0  0  0  0  0  0  0  0  0  0
   11.0250  -13.5283   30.2165 O   0  0  0  0  0  0  0  0  0  0  0  0
   10.5514  -14.1652   29.0714 C   0  0  0  0  0  0  0  0  0  0  0  0
   10.4998  -15.5397   29.0387 C   0  0  0  0  0  0  0  0  0  0  0  0
   10.0371  -16.2199   27.9247 C   0  0  0  0  0  0  0  0  0  0  0  0
    9.6198  -15.5095   26.8267 C   0  0  0  0  0  0  0  0  0  0  0  0
    9.1458  -16.2194   25.6390 C   0  0  0  0  0  0  0  0  0  0  0  0
   10.3317  -16.6230   24.7936 C   0  0  2  0  0  0  0  0  0  0  0  0
    9.7706  -17.5142   23.7520 N   0  0  0  0  0  0  0  0  0  0  0  0
   11.3535  -17.3641   25.5644 C   0  0  0  0  0  0  0  0  0  0  0  0
   12.4611  -16.7942   25.8150 O   0  0  0  0  0  0  0  0  0  0  0  0
    9.6727  -14.1390   26.8627 C   0  0  0  0  0  0  0  0  0  0  0  0
   10.1312  -13.4497   27.9650 C   0  0  0  0  0  0  0  0  0  0  0  0
   11.1298  -18.6517   26.0152 O   0  0  0  0  0  0  0  0  0  0  0  0
  2  1  1  6
  3  2  1  0
  4  5  2  0
  4  2  1  0
  6  4  1  0
  7  6  1  0
  7  8  1  1
  8  9  1  0
 10  9  1  0
 11 12  1  0
 11 10  1  0
 13  7  1  0
 14 13  2  0
 15 16  1  0
 16 26  2  0
 17 18  2  0
 17 16  1  0
 18 19  1  0
 19 20  1  0
 19 25  2  0
 21 20  1  1
 21 23  1  0
 21 22  1  0
 22 13  1  0
 23 27  1  0
 24 23  2  0
 26 25  1  0
M  END
$$$$
