AKY.pdb
     RDKit          3D

 27 27  0  0  1  0  0  0  0  0999 V2000
    7.3610  -13.1200   19.6112 C   0  0  0  0  0  0  0  0  0  0  0  0
    8.5287  -13.4357   18.7109 C   0  0  2  0  0  0  0  0  0  0  0  0
    8.1727  -13.5798   17.3312 N   0  0  0  0  0  0  0  0  0  0  0  0
    9.3061  -14.6052   19.2182 C   0  0  0  0  0  0  0  0  0  0  0  0
    9.5665  -14.6701   20.4427 O   0  0  0  0  0  0  0  0  0  0  0  0
    9.7323  -15.6121   18.3164 N   0  0  0  0  0  0  0  0  0  0  0  0
   10.4499  -16.8159   18.8393 C   0  0  1  0  0  0  0  0  0  0  0  0
   10.5438  -17.7664   17.6901 C   0  0  0  0  0  0  0  0  0  0  0  0
    9.3065  -18.4918   17.3147 C   0  0  0  0  0  0  0  0  0  0  0  0
    9.5710  -19.3495   16.0995 C   0  0  0  0  0  0  0  0  0  0  0  0
    8.3284  -20.0646   15.6211 C   0  0  0  0  0  0  0  0  0  0  0  0
    8.6537  -20.8636   14.4560 N   0  0  0  0  0  0  0  0  0  0  0  0
   11.7547  -16.3236   19.3294 C   0  0  0  0  0  0  0  0  0  0  0  0
   12.4877  -15.5878   18.5776 O   0  0  0  0  0  0  0  0  0  0  0  0
   10.4039  -18.3208   25.9665 O   0  0  0  0  0  0  0  0  0  0  0  0
   11.1125  -17.5461   25.0506 C   0  0  0  0  0  0  0  0  0  0  0  0
   10.4373  -16.6229   24.2857 C   0  0  0  0  0  0  0  0  0  0  0  0
   11.0957  -15.8288   23.3618 C   0  0  0  0  0  0  0  0  0  0  0  0
   12.4526  -15.9632   23.2033 C   0  0  0  0  0  0  0  0  0  0  0  0
   13.1541  -15.1412   22.2178 C   0  0  0  0  0  0  0  0  0  0  0  0
   13.5232  -15.9966   21.0278 C   0  0  2  0  0  0  0  0  0  0  0  0
   12.2489  -16.6151   20.5941 N   0  0  0  0  0  0  0  0  0  0  0  0
   14.4862  -17.0648   21.3722 C   0  0  0  0  0  0  0  0  0  0  0  0
   15.6555  -16.7355   21.7448 O   0  0  0  0  0  0  0  0  0  0  0  0
   13.1228  -16.8848   23.9676 C   0  0  0  0  0  0  0  0  0  0  0  0
   12.4794  -17.6815   24.8906 C   0  0  0  0  0  0  0  0  0  0  0  0
   14.1432  -18.4021   21.2995 O   0  0  0  0  0  0  0  0  0  0  0  0
  2  1  1  1
  3  2  1  0
  4  5  2  0
  4  2  1  0
  6  4  1  0
  7  6  1  0
  7  8  1  6
  8  9  1  0
 10  9  1  0
 11 12  1  0
 11 10  1  0
 13  7  1  0
 14 13  2  0
 15 16  1  0
 16 26  2  0
 17 18  2  0
 17 16  1  0
 18 19  1  0
 19 20  1  0
 19 25  2  0
 21 20  1  1
 21 23  1  0
 21 22  1  0
 22 13  1  0
 23 27  1  0
 24 23  2  0
 26 25  1  0
M  END
$$$$
