AKY.pdb
     RDKit          3D

 27 27  0  0  1  0  0  0  0  0999 V2000
    8.3326  -21.5144   19.3910 C   0  0  0  0  0  0  0  0  0  0  0  0
    9.3612  -20.9505   20.3385 C   0  0  2  0  0  0  0  0  0  0  0  0
    8.8234  -20.5495   21.6038 N   0  0  0  0  0  0  0  0  0  0  0  0
   10.1569  -19.8640   19.6937 C   0  0  0  0  0  0  0  0  0  0  0  0
   10.7060  -20.0931   18.5904 O   0  0  0  0  0  0  0  0  0  0  0  0
   10.2771  -18.6048   20.3332 N   0  0  0  0  0  0  0  0  0  0  0  0
   11.0320  -17.5035   19.6589 C   0  0  1  0  0  0  0  0  0  0  0  0
   10.0404  -16.4093   19.4303 C   0  0  0  0  0  0  0  0  0  0  0  0
   10.4304  -15.3351   18.4858 C   0  0  0  0  0  0  0  0  0  0  0  0
    9.2327  -14.4646   18.1861 C   0  0  0  0  0  0  0  0  0  0  0  0
    9.5684  -13.3324   17.2428 C   0  0  0  0  0  0  0  0  0  0  0  0
    8.4113  -12.4714   17.0962 N   0  0  0  0  0  0  0  0  0  0  0  0
   12.1299  -17.1461   20.5820 C   0  0  0  0  0  0  0  0  0  0  0  0
   11.8681  -16.5914   21.7079 O   0  0  0  0  0  0  0  0  0  0  0  0
   11.9258  -20.7572   25.5467 O   0  0  0  0  0  0  0  0  0  0  0  0
   12.7221  -20.1523   24.5766 C   0  0  0  0  0  0  0  0  0  0  0  0
   13.5430  -19.1080   24.9354 C   0  0  0  0  0  0  0  0  0  0  0  0
   14.3535  -18.4738   24.0088 C   0  0  0  0  0  0  0  0  0  0  0  0
   14.3398  -18.8941   22.7021 C   0  0  0  0  0  0  0  0  0  0  0  0
   15.1794  -18.2192   21.7128 C   0  0  0  0  0  0  0  0  0  0  0  0
   14.4983  -16.9458   21.2672 C   0  0  2  0  0  0  0  0  0  0  0  0
   13.4681  -17.3847   20.2974 N   0  0  0  0  0  0  0  0  0  0  0  0
   15.4259  -16.0096   20.5962 C   0  0  0  0  0  0  0  0  0  0  0  0
   15.2487  -15.7525   19.3646 O   0  0  0  0  0  0  0  0  0  0  0  0
   13.5200  -19.9357   22.3477 C   0  0  0  0  0  0  0  0  0  0  0  0
   12.7083  -20.5755   23.2600 C   0  0  0  0  0  0  0  0  0  0  0  0
   16.4715  -15.4126   21.2755 O   0  0  0  0  0  0  0  0  0  0  0  0
  2  1  1  6
  3  2  1  0
  4  5  2  0
  4  2  1  0
  6  4  1  0
  7  6  1  0
  7  8  1  1
  8  9  1  0
 10  9  1  0
 11 12  1  0
 11 10  1  0
 13  7  1  0
 14 13  2  0
 15 16  1  0
 16 26  2  0
 17 18  2  0
 17 16  1  0
 18 19  1  0
 19 20  1  0
 19 25  2  0
 21 20  1  6
 21 23  1  0
 21 22  1  0
 22 13  1  0
 23 27  1  0
 24 23  2  0
 26 25  1  0
M  END
$$$$
