AKY.pdb
     RDKit          3D

 27 27  0  0  1  0  0  0  0  0999 V2000
    8.6543  -12.1012   19.3693 C   0  0  0  0  0  0  0  0  0  0  0  0
    8.2687  -13.4076   18.7224 C   0  0  2  0  0  0  0  0  0  0  0  0
    7.1632  -13.3009   17.8182 N   0  0  0  0  0  0  0  0  0  0  0  0
    8.0628  -14.4793   19.7415 C   0  0  0  0  0  0  0  0  0  0  0  0
    6.9318  -14.6005   20.2682 O   0  0  0  0  0  0  0  0  0  0  0  0
    9.1384  -15.3328   20.0928 N   0  0  0  0  0  0  0  0  0  0  0  0
    8.9014  -16.4687   21.0368 C   0  0  1  0  0  0  0  0  0  0  0  0
    9.5567  -17.6594   20.4156 C   0  0  0  0  0  0  0  0  0  0  0  0
    9.5434  -18.9187   21.1979 C   0  0  0  0  0  0  0  0  0  0  0  0
   10.1223  -20.0384   20.3653 C   0  0  0  0  0  0  0  0  0  0  0  0
   10.0593  -21.3717   21.0743 C   0  0  0  0  0  0  0  0  0  0  0  0
   10.6586  -22.3901   20.2344 N   0  0  0  0  0  0  0  0  0  0  0  0
    9.4949  -16.0507   22.3245 C   0  0  0  0  0  0  0  0  0  0  0  0
   10.6602  -15.5167   22.3519 O   0  0  0  0  0  0  0  0  0  0  0  0
   10.6809  -14.4051   30.8077 O   0  0  0  0  0  0  0  0  0  0  0  0
   10.1119  -14.6700   29.5638 C   0  0  0  0  0  0  0  0  0  0  0  0
    9.9253  -15.9762   29.1738 C   0  0  0  0  0  0  0  0  0  0  0  0
    9.3639  -16.2919   27.9479 C   0  0  0  0  0  0  0  0  0  0  0  0
    8.9838  -15.2811   27.1005 C   0  0  0  0  0  0  0  0  0  0  0  0
    8.4060  -15.6046   25.7964 C   0  0  0  0  0  0  0  0  0  0  0  0
    9.5148  -15.7263   24.7766 C   0  0  2  0  0  0  0  0  0  0  0  0
    8.8467  -16.2023   23.5433 N   0  0  0  0  0  0  0  0  0  0  0  0
   10.5487  -16.7058   25.1751 C   0  0  0  0  0  0  0  0  0  0  0  0
   10.2885  -17.9450   25.0691 O   0  0  0  0  0  0  0  0  0  0  0  0
    9.1713  -13.9796   27.4925 C   0  0  0  0  0  0  0  0  0  0  0  0
    9.7291  -13.6518   28.7098 C   0  0  0  0  0  0  0  0  0  0  0  0
   11.7817  -16.3048   25.6546 O   0  0  0  0  0  0  0  0  0  0  0  0
  2  1  1  1
  3  2  1  0
  4  5  2  0
  4  2  1  0
  6  4  1  0
  7  6  1  0
  7  8  1  6
  8  9  1  0
 10  9  1  0
 11 12  1  0
 11 10  1  0
 13  7  1  0
 14 13  2  0
 15 16  1  0
 16 26  2  0
 17 18  2  0
 17 16  1  0
 18 19  1  0
 19 20  1  0
 19 25  2  0
 21 20  1  1
 21 23  1  0
 21 22  1  0
 22 13  1  0
 23 27  1  0
 24 23  2  0
 26 25  1  0
M  END
$$$$
