GWL.pdb
     RDKit          3D

 27 28  0  0  1  0  0  0  0  0999 V2000
    4.3357  -20.6541   22.2038 N   0  0  0  0  0  0  0  0  0  0  0  0
    5.5135  -20.3782   22.9838 C   0  0  0  0  0  0  0  0  0  0  0  0
    5.6336  -18.8960   23.1749 C   0  0  0  0  0  0  0  0  0  0  0  0
    4.7911  -18.1192   22.6529 O   0  0  0  0  0  0  0  0  0  0  0  0
    6.7235  -18.4318   23.9574 N   0  0  0  0  0  0  0  0  0  0  0  0
    6.9856  -17.0102   24.0404 C   0  0  1  0  0  0  0  0  0  0  0  0
    7.3939  -16.6503   25.4566 C   0  0  0  0  0  0  0  0  0  0  0  0
    6.8105  -15.3943   25.9312 C   0  0  0  0  0  0  0  0  0  0  0  0
    5.4892  -15.1479   26.2166 C   0  0  0  0  0  0  0  0  0  0  0  0
    5.3730  -13.8650   26.6223 N   0  0  0  0  0  0  0  0  0  0  0  0
    6.5998  -13.2775   26.6036 C   0  0  0  0  0  0  0  0  0  0  0  0
    6.9931  -11.9962   26.9284 C   0  0  0  0  0  0  0  0  0  0  0  0
    8.3130  -11.6349   26.8275 C   0  0  0  0  0  0  0  0  0  0  0  0
    9.2271  -12.5663   26.4005 C   0  0  0  0  0  0  0  0  0  0  0  0
    8.8280  -13.8339   26.0809 C   0  0  0  0  0  0  0  0  0  0  0  0
    7.5060  -14.2295   26.1716 C   0  0  0  0  0  0  0  0  0  0  0  0
    8.1741  -16.7111   23.1893 C   0  0  0  0  0  0  0  0  0  0  0  0
    9.0107  -17.6071   22.9614 O   0  0  0  0  0  0  0  0  0  0  0  0
    7.7323  -14.5631   19.2545 C   0  0  0  0  0  0  0  0  0  0  0  0
    8.0913  -13.5435   20.3331 C   0  0  2  0  0  0  0  0  0  0  0  0
    7.8657  -12.1804   19.8308 C   0  0  0  0  0  0  0  0  0  0  0  0
    9.3213  -13.8702   21.0614 C   0  0  0  0  0  0  0  0  0  0  0  0
    9.5074  -15.2183   21.6472 C   0  0  2  0  0  0  0  0  0  0  0  0
    8.4140  -15.4529   22.6161 N   0  0  0  0  0  0  0  0  0  0  0  0
   10.7609  -15.4591   22.3812 C   0  0  0  0  0  0  0  0  0  0  0  0
   11.8028  -15.7697   21.6982 O   0  0  0  0  0  0  0  0  0  0  0  0
   10.9120  -15.3744   23.7615 O   0  0  0  0  0  0  0  0  0  0  0  0
  1  2  1  0
  2  3  1  0
  3  4  2  0
  5  6  1  0
  5  3  1  0
  6 17  1  0
  7  8  1  0
  6  7  1  1
  8 16  1  0
  9 10  1  0
  9  8  2  0
 10 11  1  0
 11 16  2  0
 11 12  1  0
 12 13  2  0
 13 14  1  0
 15 14  2  0
 16 15  1  0
 17 24  1  0
 17 18  2  0
 20 19  1  6
 20 21  1  0
 22 20  1  0
 23 22  1  1
 23 25  1  0
 24 23  1  0
 25 26  2  0
 25 27  1  0
M  END
$$$$
