GWL.pdb
     RDKit          3D

 27 28  0  0  1  0  0  0  0  0999 V2000
    6.5011  -15.4283   19.9779 N   0  0  0  0  0  0  0  0  0  0  0  0
    6.5054  -16.2200   21.1800 C   0  0  0  0  0  0  0  0  0  0  0  0
    7.6098  -15.7408   22.0736 C   0  0  0  0  0  0  0  0  0  0  0  0
    8.3805  -14.8212   21.6914 O   0  0  0  0  0  0  0  0  0  0  0  0
    7.7329  -16.3675   23.3415 N   0  0  0  0  0  0  0  0  0  0  0  0
    8.7694  -15.9313   24.2536 C   0  0  1  0  0  0  0  0  0  0  0  0
    8.2343  -15.9407   25.6733 C   0  0  0  0  0  0  0  0  0  0  0  0
    7.1833  -14.9490   25.9077 C   0  0  0  0  0  0  0  0  0  0  0  0
    5.8291  -15.1731   25.9702 C   0  0  0  0  0  0  0  0  0  0  0  0
    5.2123  -13.9939   26.2006 N   0  0  0  0  0  0  0  0  0  0  0  0
    6.1476  -13.0100   26.2882 C   0  0  0  0  0  0  0  0  0  0  0  0
    6.0160  -11.6556   26.5121 C   0  0  0  0  0  0  0  0  0  0  0  0
    7.1289  -10.8543   26.5590 C   0  0  0  0  0  0  0  0  0  0  0  0
    8.3660  -11.4225   26.3802 C   0  0  0  0  0  0  0  0  0  0  0  0
    8.4867  -12.7660   26.1589 C   0  0  0  0  0  0  0  0  0  0  0  0
    7.3853  -13.6005   26.1058 C   0  0  0  0  0  0  0  0  0  0  0  0
    9.8623  -16.9467   24.2274 C   0  0  0  0  0  0  0  0  0  0  0  0
    9.5905  -18.1394   23.9858 O   0  0  0  0  0  0  0  0  0  0  0  0
   12.6246  -17.8019   21.3155 C   0  0  0  0  0  0  0  0  0  0  0  0
   13.1399  -16.6950   22.2326 C   0  0  2  0  0  0  0  0  0  0  0  0
   14.1371  -15.8794   21.5245 C   0  0  0  0  0  0  0  0  0  0  0  0
   13.3897  -17.1421   23.6067 C   0  0  0  0  0  0  0  0  0  0  0  0
   12.2776  -17.6582   24.4385 C   0  0  2  0  0  0  0  0  0  0  0  0
   11.2097  -16.6343   24.4641 N   0  0  0  0  0  0  0  0  0  0  0  0
   12.5837  -17.9630   25.8461 C   0  0  0  0  0  0  0  0  0  0  0  0
   13.4611  -18.8697   26.0840 O   0  0  0  0  0  0  0  0  0  0  0  0
   12.0000  -17.3442   26.9469 O   0  0  0  0  0  0  0  0  0  0  0  0
  1  2  1  0
  2  3  1  0
  3  4  2  0
  5  6  1  0
  5  3  1  0
  6 17  1  0
  7  8  1  0
  6  7  1  1
  8 16  1  0
  9 10  1  0
  9  8  2  0
 10 11  1  0
 11 16  2  0
 11 12  1  0
 12 13  2  0
 13 14  1  0
 15 14  2  0
 16 15  1  0
 17 24  1  0
 17 18  2  0
 20 19  1  6
 20 21  1  0
 22 20  1  0
 23 22  1  1
 23 25  1  0
 24 23  1  0
 25 26  2  0
 25 27  1  0
M  END
$$$$
