GWL.pdb
     RDKit          3D

 27 28  0  0  1  0  0  0  0  0999 V2000
   12.9466  -17.7885   19.6794 N   0  0  0  0  0  0  0  0  0  0  0  0
   12.0354  -18.3829   20.6218 C   0  0  0  0  0  0  0  0  0  0  0  0
   11.3941  -17.2952   21.4301 C   0  0  0  0  0  0  0  0  0  0  0  0
   11.7840  -16.1037   21.3118 O   0  0  0  0  0  0  0  0  0  0  0  0
   10.3498  -17.6766   22.3130 N   0  0  0  0  0  0  0  0  0  0  0  0
    9.6704  -16.6627   23.0920 C   0  0  1  0  0  0  0  0  0  0  0  0
    8.1695  -16.8421   22.9616 C   0  0  0  0  0  0  0  0  0  0  0  0
    7.5289  -15.8188   22.1335 C   0  0  0  0  0  0  0  0  0  0  0  0
    6.8170  -16.0143   20.9746 C   0  0  0  0  0  0  0  0  0  0  0  0
    6.3981  -14.8120   20.5241 N   0  0  0  0  0  0  0  0  0  0  0  0
    6.8283  -13.8413   21.3745 C   0  0  0  0  0  0  0  0  0  0  0  0
    6.6566  -12.4733   21.3454 C   0  0  0  0  0  0  0  0  0  0  0  0
    7.1952  -11.6907   22.3354 C   0  0  0  0  0  0  0  0  0  0  0  0
    7.9025  -12.2912   23.3476 C   0  0  0  0  0  0  0  0  0  0  0  0
    8.0676  -13.6479   23.3682 C   0  0  0  0  0  0  0  0  0  0  0  0
    7.5378  -14.4643   22.3858 C   0  0  0  0  0  0  0  0  0  0  0  0
    9.9821  -16.9027   24.5313 C   0  0  0  0  0  0  0  0  0  0  0  0
   10.5191  -17.9741   24.8758 O   0  0  0  0  0  0  0  0  0  0  0  0
    9.4606  -13.6710   29.8168 C   0  0  0  0  0  0  0  0  0  0  0  0
   10.2464  -14.7583   29.0873 C   0  0  2  0  0  0  0  0  0  0  0  0
   11.6545  -14.7289   29.5086 C   0  0  0  0  0  0  0  0  0  0  0  0
    9.9006  -14.8776   27.6673 C   0  0  0  0  0  0  0  0  0  0  0  0
   10.2472  -16.1056   26.9143 C   0  0  2  0  0  0  0  0  0  0  0  0
    9.7008  -15.9746   25.5455 N   0  0  0  0  0  0  0  0  0  0  0  0
    9.7279  -17.3791   27.4402 C   0  0  0  0  0  0  0  0  0  0  0  0
   10.4812  -18.0485   28.2358 O   0  0  0  0  0  0  0  0  0  0  0  0
    8.4798  -17.9193   27.1475 O   0  0  0  0  0  0  0  0  0  0  0  0
  1  2  1  0
  2  3  1  0
  3  4  2  0
  5  6  1  0
  5  3  1  0
  6 17  1  0
  7  8  1  0
  6  7  1  1
  8 16  1  0
  9 10  1  0
  9  8  2  0
 10 11  1  0
 11 16  2  0
 11 12  1  0
 12 13  2  0
 13 14  1  0
 15 14  2  0
 16 15  1  0
 17 24  1  0
 17 18  2  0
 20 19  1  6
 20 21  1  0
 22 20  1  0
 23 22  1  1
 23 25  1  0
 24 23  1  0
 25 26  2  0
 25 27  1  0
M  END
$$$$
