GWL.pdb
     RDKit          3D

 27 28  0  0  1  0  0  0  0  0999 V2000
   10.8824  -16.7365   18.8697 N   0  0  0  0  0  0  0  0  0  0  0  0
   10.2936  -17.4989   19.9392 C   0  0  0  0  0  0  0  0  0  0  0  0
    9.8770  -16.5613   21.0324 C   0  0  0  0  0  0  0  0  0  0  0  0
   10.2283  -15.3525   20.9989 O   0  0  0  0  0  0  0  0  0  0  0  0
    9.0848  -17.1012   22.0795 N   0  0  0  0  0  0  0  0  0  0  0  0
    8.6991  -16.2548   23.1892 C   0  0  1  0  0  0  0  0  0  0  0  0
    7.4590  -16.8220   23.8543 C   0  0  0  0  0  0  0  0  0  0  0  0
    6.6564  -15.8142   24.5494 C   0  0  0  0  0  0  0  0  0  0  0  0
    5.3726  -15.9540   25.0189 C   0  0  0  0  0  0  0  0  0  0  0  0
    5.0002  -14.7902   25.5939 N   0  0  0  0  0  0  0  0  0  0  0  0
    6.0241  -13.8992   25.5035 C   0  0  0  0  0  0  0  0  0  0  0  0
    6.1276  -12.5944   25.9380 C   0  0  0  0  0  0  0  0  0  0  0  0
    7.2851  -11.8884   25.7270 C   0  0  0  0  0  0  0  0  0  0  0  0
    8.3298  -12.5013   25.0803 C   0  0  0  0  0  0  0  0  0  0  0  0
    8.2182  -13.7949   24.6532 C   0  0  0  0  0  0  0  0  0  0  0  0
    7.0657  -14.5334   24.8502 C   0  0  0  0  0  0  0  0  0  0  0  0
    9.7773  -16.3257   24.2182 C   0  0  0  0  0  0  0  0  0  0  0  0
   10.6476  -17.2152   24.1393 O   0  0  0  0  0  0  0  0  0  0  0  0
   10.2259  -15.2892   30.0270 C   0  0  0  0  0  0  0  0  0  0  0  0
   11.1107  -14.9291   28.8357 C   0  0  2  0  0  0  0  0  0  0  0  0
   12.0538  -13.8665   29.2135 C   0  0  0  0  0  0  0  0  0  0  0  0
   10.3812  -14.8547   27.5659 C   0  0  0  0  0  0  0  0  0  0  0  0
   10.8640  -15.6027   26.3817 C   0  0  2  0  0  0  0  0  0  0  0  0
    9.8739  -15.4317   25.2955 N   0  0  0  0  0  0  0  0  0  0  0  0
   11.0485  -17.0549   26.5399 C   0  0  0  0  0  0  0  0  0  0  0  0
   12.2508  -17.5016   26.5979 O   0  0  0  0  0  0  0  0  0  0  0  0
   10.0219  -17.9889   26.6357 O   0  0  0  0  0  0  0  0  0  0  0  0
  1  2  1  0
  2  3  1  0
  3  4  2  0
  5  6  1  0
  5  3  1  0
  6 17  1  0
  7  8  1  0
  6  7  1  1
  8 16  1  0
  9 10  1  0
  9  8  2  0
 10 11  1  0
 11 16  2  0
 11 12  1  0
 12 13  2  0
 13 14  1  0
 15 14  2  0
 16 15  1  0
 17 24  1  0
 17 18  2  0
 20 19  1  1
 20 21  1  0
 22 20  1  0
 23 22  1  1
 23 25  1  0
 24 23  1  0
 25 26  2  0
 25 27  1  0
M  END
$$$$
