GWL.pdb
     RDKit          3D

 27 28  0  0  1  0  0  0  0  0999 V2000
    8.6702  -20.8253   21.9654 N   0  0  0  0  0  0  0  0  0  0  0  0
    8.1381  -19.8305   22.8593 C   0  0  0  0  0  0  0  0  0  0  0  0
    8.9113  -18.5578   22.6858 C   0  0  0  0  0  0  0  0  0  0  0  0
    9.8764  -18.5075   21.8785 O   0  0  0  0  0  0  0  0  0  0  0  0
    8.5031  -17.4428   23.4640 N   0  0  0  0  0  0  0  0  0  0  0  0
    9.2236  -16.1921   23.3486 C   0  0  1  0  0  0  0  0  0  0  0  0
    8.2383  -15.0390   23.3131 C   0  0  0  0  0  0  0  0  0  0  0  0
    7.5045  -14.9366   22.0505 C   0  0  0  0  0  0  0  0  0  0  0  0
    6.3411  -15.5843   21.7111 C   0  0  0  0  0  0  0  0  0  0  0  0
    5.9986  -15.2161   20.4577 N   0  0  0  0  0  0  0  0  0  0  0  0
    6.9232  -14.3396   19.9809 C   0  0  0  0  0  0  0  0  0  0  0  0
    7.0109  -13.6896   18.7678 C   0  0  0  0  0  0  0  0  0  0  0  0
    8.0567  -12.8372   18.5176 C   0  0  0  0  0  0  0  0  0  0  0  0
    9.0064  -12.6455   19.4906 C   0  0  0  0  0  0  0  0  0  0  0  0
    8.9112  -13.2941   20.6900 C   0  0  0  0  0  0  0  0  0  0  0  0
    7.8703  -14.1593   20.9732 C   0  0  0  0  0  0  0  0  0  0  0  0
   10.0208  -16.0037   24.5957 C   0  0  0  0  0  0  0  0  0  0  0  0
   10.9750  -15.2010   24.6024 O   0  0  0  0  0  0  0  0  0  0  0  0
   10.7923  -13.4559   27.8715 C   0  0  0  0  0  0  0  0  0  0  0  0
    9.4689  -14.2144   27.8000 C   0  0  2  0  0  0  0  0  0  0  0  0
    8.4339  -13.4909   28.5527 C   0  0  0  0  0  0  0  0  0  0  0  0
    9.6168  -15.6654   27.9518 C   0  0  0  0  0  0  0  0  0  0  0  0
   10.5028  -16.4258   27.0399 C   0  0  2  0  0  0  0  0  0  0  0  0
    9.7566  -16.6913   25.7901 N   0  0  0  0  0  0  0  0  0  0  0  0
   10.9824  -17.7347   27.5140 C   0  0  0  0  0  0  0  0  0  0  0  0
   11.7121  -17.7568   28.5702 O   0  0  0  0  0  0  0  0  0  0  0  0
   10.7062  -18.9575   26.9109 O   0  0  0  0  0  0  0  0  0  0  0  0
  1  2  1  0
  2  3  1  0
  3  4  2  0
  5  6  1  0
  5  3  1  0
  6 17  1  0
  7  8  1  0
  6  7  1  1
  8 16  1  0
  9 10  1  0
  9  8  2  0
 10 11  1  0
 11 16  2  0
 11 12  1  0
 12 13  2  0
 13 14  1  0
 15 14  2  0
 16 15  1  0
 17 24  1  0
 17 18  2  0
 20 19  1  1
 20 21  1  0
 22 20  1  0
 23 22  1  1
 23 25  1  0
 24 23  1  0
 25 26  2  0
 25 27  1  0
M  END
$$$$
