GWL.pdb
     RDKit          3D

 27 28  0  0  1  0  0  0  0  0999 V2000
   11.2624  -16.8642   19.3048 N   0  0  0  0  0  0  0  0  0  0  0  0
   10.4007  -17.5340   20.2432 C   0  0  0  0  0  0  0  0  0  0  0  0
   10.0546  -16.5833   21.3495 C   0  0  0  0  0  0  0  0  0  0  0  0
   10.6302  -15.4661   21.4286 O   0  0  0  0  0  0  0  0  0  0  0  0
    9.0666  -17.0047   22.2780 N   0  0  0  0  0  0  0  0  0  0  0  0
    8.8095  -16.2037   23.4564 C   0  0  1  0  0  0  0  0  0  0  0  0
    7.5312  -16.6760   24.1233 C   0  0  0  0  0  0  0  0  0  0  0  0
    6.8283  -15.6192   24.8529 C   0  0  0  0  0  0  0  0  0  0  0  0
    5.7670  -15.7682   25.7127 C   0  0  0  0  0  0  0  0  0  0  0  0
    5.4150  -14.5475   26.1707 N   0  0  0  0  0  0  0  0  0  0  0  0
    6.2330  -13.6105   25.6199 C   0  0  0  0  0  0  0  0  0  0  0  0
    6.2716  -12.2408   25.7755 C   0  0  0  0  0  0  0  0  0  0  0  0
    7.2076  -11.4975   25.1016 C   0  0  0  0  0  0  0  0  0  0  0  0
    8.0980  -12.1388   24.2762 C   0  0  0  0  0  0  0  0  0  0  0  0
    8.0523  -13.4968   24.1282 C   0  0  0  0  0  0  0  0  0  0  0  0
    7.1215  -14.2743   24.7928 C   0  0  0  0  0  0  0  0  0  0  0  0
    9.8998  -16.4690   24.4399 C   0  0  0  0  0  0  0  0  0  0  0  0
   11.0334  -16.7907   24.0321 O   0  0  0  0  0  0  0  0  0  0  0  0
   10.4239  -13.5885   27.5694 C   0  0  0  0  0  0  0  0  0  0  0  0
    9.6861  -14.7512   28.2294 C   0  0  2  0  0  0  0  0  0  0  0  0
    9.1360  -14.3266   29.5248 C   0  0  0  0  0  0  0  0  0  0  0  0
   10.3860  -16.0339   28.1067 C   0  0  0  0  0  0  0  0  0  0  0  0
   10.8476  -16.5097   26.7818 C   0  0  2  0  0  0  0  0  0  0  0  0
    9.7234  -16.3771   25.8290 N   0  0  0  0  0  0  0  0  0  0  0  0
   11.2926  -17.9106   26.6943 C   0  0  0  0  0  0  0  0  0  0  0  0
   10.4750  -18.7673   26.1983 O   0  0  0  0  0  0  0  0  0  0  0  0
   12.5343  -18.3856   27.1041 O   0  0  0  0  0  0  0  0  0  0  0  0
  1  2  1  0
  2  3  1  0
  3  4  2  0
  5  6  1  0
  5  3  1  0
  6 17  1  0
  7  8  1  0
  6  7  1  1
  8 16  1  0
  9 10  1  0
  9  8  2  0
 10 11  1  0
 11 16  2  0
 11 12  1  0
 12 13  2  0
 13 14  1  0
 15 14  2  0
 16 15  1  0
 17 24  1  0
 17 18  2  0
 20 19  1  1
 20 21  1  0
 22 20  1  0
 23 22  1  1
 23 25  1  0
 24 23  1  0
 25 26  2  0
 25 27  1  0
M  END
$$$$
