GWL.pdb
     RDKit          3D

 27 28  0  0  1  0  0  0  0  0999 V2000
   12.4258  -16.2840   19.7087 N   0  0  0  0  0  0  0  0  0  0  0  0
   11.4104  -17.0860   20.3393 C   0  0  0  0  0  0  0  0  0  0  0  0
   10.9292  -16.3803   21.5715 C   0  0  0  0  0  0  0  0  0  0  0  0
   11.5519  -15.3784   22.0121 O   0  0  0  0  0  0  0  0  0  0  0  0
    9.7622  -16.8939   22.1959 N   0  0  0  0  0  0  0  0  0  0  0  0
    9.2111  -16.2099   23.3469 C   0  0  1  0  0  0  0  0  0  0  0  0
    7.7466  -16.5747   23.5022 C   0  0  0  0  0  0  0  0  0  0  0  0
    7.0649  -15.8187   24.5542 C   0  0  0  0  0  0  0  0  0  0  0  0
    6.3547  -16.3271   25.6150 C   0  0  0  0  0  0  0  0  0  0  0  0
    5.8859  -15.2942   26.3480 N   0  0  0  0  0  0  0  0  0  0  0  0
    6.2824  -14.1248   25.7772 C   0  0  0  0  0  0  0  0  0  0  0  0
    6.0579  -12.8160   26.1493 C   0  0  0  0  0  0  0  0  0  0  0  0
    6.5723  -11.7890   25.3986 C   0  0  0  0  0  0  0  0  0  0  0  0
    7.3089  -12.0874   24.2788 C   0  0  0  0  0  0  0  0  0  0  0  0
    7.5262  -13.3877   23.9178 C   0  0  0  0  0  0  0  0  0  0  0  0
    7.0217  -14.4451   24.6526 C   0  0  0  0  0  0  0  0  0  0  0  0
    9.8904  -16.7393   24.5654 C   0  0  0  0  0  0  0  0  0  0  0  0
   10.5008  -17.8252   24.5086 O   0  0  0  0  0  0  0  0  0  0  0  0
   11.1586  -13.6190   27.2705 C   0  0  0  0  0  0  0  0  0  0  0  0
   10.0180  -14.3229   28.0023 C   0  0  2  0  0  0  0  0  0  0  0  0
    9.5786  -13.5112   29.1465 C   0  0  0  0  0  0  0  0  0  0  0  0
   10.2226  -15.7670   28.1540 C   0  0  0  0  0  0  0  0  0  0  0  0
   10.6023  -16.5948   26.9855 C   0  0  2  0  0  0  0  0  0  0  0  0
    9.8839  -16.0745   25.8011 N   0  0  0  0  0  0  0  0  0  0  0  0
   10.2863  -18.0312   27.0550 C   0  0  0  0  0  0  0  0  0  0  0  0
   11.1827  -18.8178   27.5309 O   0  0  0  0  0  0  0  0  0  0  0  0
    9.0886  -18.6105   26.6485 O   0  0  0  0  0  0  0  0  0  0  0  0
  1  2  1  0
  2  3  1  0
  3  4  2  0
  5  6  1  0
  5  3  1  0
  6 17  1  0
  7  8  1  0
  6  7  1  1
  8 16  1  0
  9 10  1  0
  9  8  2  0
 10 11  1  0
 11 16  2  0
 11 12  1  0
 12 13  2  0
 13 14  1  0
 15 14  2  0
 16 15  1  0
 17 24  1  0
 17 18  2  0
 20 19  1  1
 20 21  1  0
 22 20  1  0
 23 22  1  1
 23 25  1  0
 24 23  1  0
 25 26  2  0
 25 27  1  0
M  END
$$$$
