GWL.pdb
     RDKit          3D

 27 28  0  0  1  0  0  0  0  0999 V2000
   12.2179  -16.2903   19.3146 N   0  0  0  0  0  0  0  0  0  0  0  0
   11.6993  -17.1805   20.3198 C   0  0  0  0  0  0  0  0  0  0  0  0
   11.1106  -16.3665   21.4328 C   0  0  0  0  0  0  0  0  0  0  0  0
   11.6483  -15.2814   21.7775 O   0  0  0  0  0  0  0  0  0  0  0  0
    9.9429  -16.8769   22.0586 N   0  0  0  0  0  0  0  0  0  0  0  0
    9.3536  -16.1523   23.1650 C   0  0  1  0  0  0  0  0  0  0  0  0
    7.8616  -16.4230   23.2131 C   0  0  0  0  0  0  0  0  0  0  0  0
    7.1810  -15.7480   24.3196 C   0  0  0  0  0  0  0  0  0  0  0  0
    6.4344  -16.3312   25.3149 C   0  0  0  0  0  0  0  0  0  0  0  0
    5.9814  -15.3574   26.1338 N   0  0  0  0  0  0  0  0  0  0  0  0
    6.4239  -14.1526   25.6830 C   0  0  0  0  0  0  0  0  0  0  0  0
    6.2307  -12.8781   26.1730 C   0  0  0  0  0  0  0  0  0  0  0  0
    6.7904  -11.8019   25.5318 C   0  0  0  0  0  0  0  0  0  0  0  0
    7.5407  -12.0168   24.4021 C   0  0  0  0  0  0  0  0  0  0  0  0
    7.7269  -13.2837   23.9237 C   0  0  0  0  0  0  0  0  0  0  0  0
    7.1764  -14.3890   24.5464 C   0  0  0  0  0  0  0  0  0  0  0  0
    9.9072  -16.7157   24.4309 C   0  0  0  0  0  0  0  0  0  0  0  0
   10.5691  -17.7720   24.3983 O   0  0  0  0  0  0  0  0  0  0  0  0
   10.9735  -13.5999   27.2044 C   0  0  0  0  0  0  0  0  0  0  0  0
    9.8002  -14.3003   27.8860 C   0  0  2  0  0  0  0  0  0  0  0  0
    9.3193  -13.4910   29.0152 C   0  0  0  0  0  0  0  0  0  0  0  0
    9.9902  -15.7462   28.0392 C   0  0  0  0  0  0  0  0  0  0  0  0
   10.4511  -16.5649   26.8937 C   0  0  2  0  0  0  0  0  0  0  0  0
    9.7237  -16.1158   25.6860 N   0  0  0  0  0  0  0  0  0  0  0  0
   10.2340  -18.0185   26.9830 C   0  0  0  0  0  0  0  0  0  0  0  0
   11.0034  -18.6908   27.7606 O   0  0  0  0  0  0  0  0  0  0  0  0
    9.2565  -18.7282   26.2931 O   0  0  0  0  0  0  0  0  0  0  0  0
  1  2  1  0
  2  3  1  0
  3  4  2  0
  5  6  1  0
  5  3  1  0
  6 17  1  0
  7  8  1  0
  6  7  1  1
  8 16  1  0
  9 10  1  0
  9  8  2  0
 10 11  1  0
 11 16  2  0
 11 12  1  0
 12 13  2  0
 13 14  1  0
 15 14  2  0
 16 15  1  0
 17 24  1  0
 17 18  2  0
 20 19  1  1
 20 21  1  0
 22 20  1  0
 23 22  1  1
 23 25  1  0
 24 23  1  0
 25 26  2  0
 25 27  1  0
M  END
$$$$
