GWL.pdb
     RDKit          3D

 27 28  0  0  1  0  0  0  0  0999 V2000
   11.7602  -18.6879   19.3640 N   0  0  0  0  0  0  0  0  0  0  0  0
   10.7794  -18.8410   20.4063 C   0  0  0  0  0  0  0  0  0  0  0  0
   10.6502  -17.5437   21.1465 C   0  0  0  0  0  0  0  0  0  0  0  0
   11.5158  -16.6410   20.9994 O   0  0  0  0  0  0  0  0  0  0  0  0
    9.5254  -17.3961   22.0000 N   0  0  0  0  0  0  0  0  0  0  0  0
    9.3596  -16.1710   22.7538 C   0  0  1  0  0  0  0  0  0  0  0  0
    7.8956  -15.7726   22.7610 C   0  0  0  0  0  0  0  0  0  0  0  0
    7.6622  -14.4158   23.2585 C   0  0  0  0  0  0  0  0  0  0  0  0
    7.9486  -13.2351   22.6166 C   0  0  0  0  0  0  0  0  0  0  0  0
    7.5805  -12.2135   23.4195 N   0  0  0  0  0  0  0  0  0  0  0  0
    7.0600  -12.7156   24.5717 C   0  0  0  0  0  0  0  0  0  0  0  0
    6.5515  -12.0811   25.6854 C   0  0  0  0  0  0  0  0  0  0  0  0
    6.0751  -12.8181   26.7402 C   0  0  0  0  0  0  0  0  0  0  0  0
    6.1142  -14.1886   26.6658 C   0  0  0  0  0  0  0  0  0  0  0  0
    6.6200  -14.8089   25.5578 C   0  0  0  0  0  0  0  0  0  0  0  0
    7.1077  -14.0952   24.4784 C   0  0  0  0  0  0  0  0  0  0  0  0
    9.7075  -16.4557   24.1765 C   0  0  0  0  0  0  0  0  0  0  0  0
    9.7570  -17.6361   24.5751 O   0  0  0  0  0  0  0  0  0  0  0  0
   12.1778  -15.4711   28.9137 C   0  0  0  0  0  0  0  0  0  0  0  0
   11.0676  -14.4681   28.6085 C   0  0  2  0  0  0  0  0  0  0  0  0
   10.0691  -14.4800   29.6874 C   0  0  0  0  0  0  0  0  0  0  0  0
   10.6416  -14.4752   27.2054 C   0  0  0  0  0  0  0  0  0  0  0  0
   10.4364  -15.7579   26.4931 C   0  0  2  0  0  0  0  0  0  0  0  0
    9.9887  -15.4522   25.1163 N   0  0  0  0  0  0  0  0  0  0  0  0
    9.4326  -16.6783   27.0529 C   0  0  0  0  0  0  0  0  0  0  0  0
    8.1964  -16.4378   26.8031 O   0  0  0  0  0  0  0  0  0  0  0  0
    9.7142  -17.7957   27.8323 O   0  0  0  0  0  0  0  0  0  0  0  0
  1  2  1  0
  2  3  1  0
  3  4  2  0
  5  6  1  0
  5  3  1  0
  6 17  1  0
  7  8  1  0
  6  7  1  1
  8 16  1  0
  9 10  1  0
  9  8  2  0
 10 11  1  0
 11 16  2  0
 11 12  1  0
 12 13  2  0
 13 14  1  0
 15 14  2  0
 16 15  1  0
 17 24  1  0
 17 18  2  0
 20 19  1  1
 20 21  1  0
 22 20  1  0
 23 22  1  1
 23 25  1  0
 24 23  1  0
 25 26  2  0
 25 27  1  0
M  END
$$$$
