QPL.pdb
     RDKit          3D

 25 25  0  0  1  0  0  0  0  0999 V2000
   22.8196  -19.2552  -16.5472 N   0  0  0  0  0  0  0  0  0  0  0  0
   22.7347  -18.9219  -15.1558 C   0  0  0  0  0  0  0  0  0  0  0  0
   23.2405  -17.8223  -14.8178 O   0  0  0  0  0  0  0  0  0  0  0  0
   22.0718  -19.8709  -14.2339 C   0  0  0  0  0  0  0  0  0  0  0  0
   23.0482  -20.4480  -13.2757 C   0  0  0  0  0  0  0  0  0  0  0  0
   24.1619  -21.2491  -13.8978 C   0  0  2  0  0  0  0  0  0  0  0  0
   23.5663  -22.4275  -14.4686 N   0  0  0  0  0  0  0  0  0  0  0  0
   25.1996  -21.5576  -12.8868 C   0  0  0  0  0  0  0  0  0  0  0  0
   25.0041  -22.5620  -12.1552 O   0  0  0  0  0  0  0  0  0  0  0  0
   26.3779  -20.8094  -12.6926 N   0  0  0  0  0  0  0  0  0  0  0  0
   26.7074  -19.6405  -13.4760 C   0  0  0  0  0  0  0  0  0  0  0  0
   28.0195  -19.1157  -12.9735 C   0  0  0  0  0  0  0  0  0  0  0  0
   28.6087  -20.2236  -12.1802 C   0  0  0  0  0  0  0  0  0  0  0  0
   27.4231  -21.0509  -11.7302 C   0  0  1  0  0  0  0  0  0  0  0  0
   27.0149  -20.7274  -10.3415 C   0  0  0  0  0  0  0  0  0  0  0  0
   25.9896  -20.0254  -10.1390 O   0  0  0  0  0  0  0  0  0  0  0  0
   27.6480  -18.8084   -5.7814 C   0  0  0  0  0  0  0  0  0  0  0  0
   27.9599  -20.2857   -5.5624 C   0  0  2  0  0  0  0  0  0  0  0  0
   29.0744  -20.3952   -4.5386 C   0  0  0  0  0  0  0  0  0  0  0  0
   28.3570  -20.9483   -6.8515 C   0  0  0  0  0  0  0  0  0  0  0  0
   27.2319  -20.9462   -7.8218 C   0  0  2  0  0  0  0  0  0  0  0  0
   27.7211  -21.1677   -9.1916 N   0  0  0  0  0  0  0  0  0  0  0  0
   26.4286  -19.7286   -7.7488 C   0  0  0  0  0  0  0  0  0  0  0  0
   26.7183  -18.6012   -8.1716 O   0  0  0  0  0  0  0  0  0  0  0  0
   25.1628  -19.8268   -7.1232 O   0  0  0  0  0  0  0  0  0  0  0  0
  2  3  2  0
  2  1  1  0
  4  2  1  0
  5  4  1  0
  6  5  1  0
  6  7  1  1
  8 10  1  0
  8  6  1  0
  9  8  2  0
 10 14  1  0
 11 10  1  0
 11 12  1  0
 12 13  1  0
 14 13  1  0
 14 15  1  1
 15 16  2  0
 18 17  1  6
 18 19  1  0
 20 18  1  0
 21 20  1  1
 22 21  1  0
 22 15  1  0
 23 25  1  0
 23 21  1  0
 24 23  2  0
M  END
$$$$
