QPL.pdb
     RDKit          3D

 25 25  0  0  1  0  0  0  0  0999 V2000
   23.9351  -15.6333  -19.2501 N   0  0  0  0  0  0  0  0  0  0  0  0
   23.9232  -15.8366  -17.8314 C   0  0  0  0  0  0  0  0  0  0  0  0
   22.9934  -15.2752  -17.1992 O   0  0  0  0  0  0  0  0  0  0  0  0
   24.9795  -16.6747  -17.2217 C   0  0  0  0  0  0  0  0  0  0  0  0
   24.4840  -18.0516  -16.9703 C   0  0  0  0  0  0  0  0  0  0  0  0
   25.4924  -19.1480  -17.1940 C   0  0  2  0  0  0  0  0  0  0  0  0
   24.9912  -19.9709  -18.2621 N   0  0  0  0  0  0  0  0  0  0  0  0
   25.7177  -19.9027  -15.9396 C   0  0  0  0  0  0  0  0  0  0  0  0
   24.8226  -20.7159  -15.5933 O   0  0  0  0  0  0  0  0  0  0  0  0
   26.8551  -19.7720  -15.1180 N   0  0  0  0  0  0  0  0  0  0  0  0
   27.9455  -18.8726  -15.4189 C   0  0  0  0  0  0  0  0  0  0  0  0
   28.9560  -19.0043  -14.3182 C   0  0  0  0  0  0  0  0  0  0  0  0
   28.6109  -20.2661  -13.6161 C   0  0  0  0  0  0  0  0  0  0  0  0
   27.1355  -20.4699  -13.8886 C   0  0  1  0  0  0  0  0  0  0  0  0
   26.2930  -20.0090  -12.7583 C   0  0  0  0  0  0  0  0  0  0  0  0
   26.0924  -18.7775  -12.5898 O   0  0  0  0  0  0  0  0  0  0  0  0
   22.1156  -19.4921  -12.0165 C   0  0  0  0  0  0  0  0  0  0  0  0
   22.8298  -20.8401  -11.9906 C   0  0  2  0  0  0  0  0  0  0  0  0
   21.8034  -21.9326  -12.2250 C   0  0  0  0  0  0  0  0  0  0  0  0
   23.5368  -21.0488  -10.6810 C   0  0  0  0  0  0  0  0  0  0  0  0
   24.8772  -20.4078  -10.6894 C   0  0  2  0  0  0  0  0  0  0  0  0
   25.6793  -20.8863  -11.8263 N   0  0  0  0  0  0  0  0  0  0  0  0
   25.5972  -20.5935   -9.4323 C   0  0  0  0  0  0  0  0  0  0  0  0
   26.6552  -21.2099   -9.2470 O   0  0  0  0  0  0  0  0  0  0  0  0
   25.0352  -20.0061   -8.2738 O   0  0  0  0  0  0  0  0  0  0  0  0
  2  3  2  0
  2  1  1  0
  4  2  1  0
  5  4  1  0
  6  5  1  0
  6  7  1  6
  8 10  1  0
  8  6  1  0
  9  8  2  0
 10 14  1  0
 11 10  1  0
 11 12  1  0
 12 13  1  0
 14 13  1  0
 14 15  1  1
 15 16  2  0
 18 17  1  1
 18 19  1  0
 20 18  1  0
 21 20  1  1
 22 21  1  0
 22 15  1  0
 23 25  1  0
 23 21  1  0
 24 23  2  0
M  END
$$$$
