QPL.pdb
     RDKit          3D

 25 25  0  0  1  0  0  0  0  0999 V2000
   14.7884  -13.8389  -14.4850 N   0  0  0  0  0  0  0  0  0  0  0  0
   13.5381  -13.1538  -14.3380 C   0  0  0  0  0  0  0  0  0  0  0  0
   12.5914  -13.8260  -13.8571 O   0  0  0  0  0  0  0  0  0  0  0  0
   13.4488  -11.7354  -14.7505 C   0  0  0  0  0  0  0  0  0  0  0  0
   14.7763  -11.2224  -15.1739 C   0  0  0  0  0  0  0  0  0  0  0  0
   14.9573  -11.0588  -16.6604 C   0  0  2  0  0  0  0  0  0  0  0  0
   14.9586  -12.3783  -17.2331 N   0  0  0  0  0  0  0  0  0  0  0  0
   16.1987  -10.3032  -16.9467 C   0  0  0  0  0  0  0  0  0  0  0  0
   17.2714  -10.9591  -16.9838 O   0  0  0  0  0  0  0  0  0  0  0  0
   16.2572   -8.9143  -17.1778 N   0  0  0  0  0  0  0  0  0  0  0  0
   15.0864   -8.0671  -17.1885 C   0  0  0  0  0  0  0  0  0  0  0  0
   15.5467   -6.6644  -17.4536 C   0  0  0  0  0  0  0  0  0  0  0  0
   16.9268   -6.7968  -17.9843 C   0  0  0  0  0  0  0  0  0  0  0  0
   17.4288   -8.1149  -17.4336 C   0  0  1  0  0  0  0  0  0  0  0  0
   18.2741   -7.9280  -16.2294 C   0  0  0  0  0  0  0  0  0  0  0  0
   17.7750   -8.0875  -15.0845 O   0  0  0  0  0  0  0  0  0  0  0  0
   23.6106   -9.2157  -14.4541 C   0  0  0  0  0  0  0  0  0  0  0  0
   22.1495   -9.2527  -14.0161 C   0  0  2  0  0  0  0  0  0  0  0  0
   21.8849  -10.5831  -13.3361 C   0  0  0  0  0  0  0  0  0  0  0  0
   21.2312   -9.0657  -15.1910 C   0  0  0  0  0  0  0  0  0  0  0  0
   20.5582   -7.7422  -15.1376 C   0  0  2  0  0  0  0  0  0  0  0  0
   19.6471   -7.5714  -16.2801 N   0  0  0  0  0  0  0  0  0  0  0  0
   21.5049   -6.6328  -15.0591 C   0  0  0  0  0  0  0  0  0  0  0  0
   22.0939   -6.2064  -14.0566 O   0  0  0  0  0  0  0  0  0  0  0  0
   21.7989   -5.9487  -16.2628 O   0  0  0  0  0  0  0  0  0  0  0  0
  2  3  2  0
  2  1  1  0
  4  2  1  0
  5  4  1  0
  6  5  1  0
  6  7  1  6
  8 10  1  0
  8  6  1  0
  9  8  2  0
 10 14  1  0
 11 10  1  0
 11 12  1  0
 12 13  1  0
 14 13  1  0
 14 15  1  1
 15 16  2  0
 18 17  1  6
 18 19  1  0
 20 18  1  0
 21 20  1  6
 22 21  1  0
 22 15  1  0
 23 25  1  0
 23 21  1  0
 24 23  2  0
M  END
$$$$
