QPL.pdb
     RDKit          3D

 25 25  0  0  1  0  0  0  0  0999 V2000
   22.6102  -18.7558  -14.6996 N   0  0  0  0  0  0  0  0  0  0  0  0
   21.8346  -19.2976  -13.6229 C   0  0  0  0  0  0  0  0  0  0  0  0
   20.5876  -19.1784  -13.7239 O   0  0  0  0  0  0  0  0  0  0  0  0
   22.5370  -19.9465  -12.4936 C   0  0  0  0  0  0  0  0  0  0  0  0
   24.0093  -19.8577  -12.6643 C   0  0  0  0  0  0  0  0  0  0  0  0
   24.7065  -21.1684  -12.9193 C   0  0  2  0  0  0  0  0  0  0  0  0
   23.6834  -22.1524  -13.1521 N   0  0  0  0  0  0  0  0  0  0  0  0
   25.5895  -21.5108  -11.7804 C   0  0  0  0  0  0  0  0  0  0  0  0
   25.0912  -22.2096  -10.8608 O   0  0  0  0  0  0  0  0  0  0  0  0
   26.9353  -21.1105  -11.6602 N   0  0  0  0  0  0  0  0  0  0  0  0
   27.5910  -20.2521  -12.6202 C   0  0  0  0  0  0  0  0  0  0  0  0
   29.0000  -20.0430  -12.1503 C   0  0  0  0  0  0  0  0  0  0  0  0
   29.2406  -21.1064  -11.1426 C   0  0  0  0  0  0  0  0  0  0  0  0
   27.8656  -21.4595  -10.6162 C   0  0  1  0  0  0  0  0  0  0  0  0
   27.5717  -20.7808   -9.3307 C   0  0  0  0  0  0  0  0  0  0  0  0
   27.0185  -19.6498   -9.3333 O   0  0  0  0  0  0  0  0  0  0  0  0
   30.1457  -20.4762   -3.7801 C   0  0  0  0  0  0  0  0  0  0  0  0
   28.9070  -20.1827   -4.6211 C   0  0  2  0  0  0  0  0  0  0  0  0
   27.6765  -20.4611   -3.7782 C   0  0  0  0  0  0  0  0  0  0  0  0
   28.8947  -21.0186   -5.8700 C   0  0  0  0  0  0  0  0  0  0  0  0
   27.8538  -20.5459   -6.8189 C   0  0  2  0  0  0  0  0  0  0  0  0
   27.8800  -21.3347   -8.0606 N   0  0  0  0  0  0  0  0  0  0  0  0
   27.9638  -19.1187   -7.1090 C   0  0  0  0  0  0  0  0  0  0  0  0
   28.7518  -18.5597   -7.8839 O   0  0  0  0  0  0  0  0  0  0  0  0
   27.0715  -18.2521   -6.4337 O   0  0  0  0  0  0  0  0  0  0  0  0
  2  3  2  0
  2  1  1  0
  4  2  1  0
  5  4  1  0
  6  5  1  0
  6  7  1  1
  8 10  1  0
  8  6  1  0
  9  8  2  0
 10 14  1  0
 11 10  1  0
 11 12  1  0
 12 13  1  0
 14 13  1  0
 14 15  1  1
 15 16  2  0
 18 17  1  1
 18 19  1  0
 20 18  1  0
 21 20  1  1
 22 21  1  0
 22 15  1  0
 23 25  1  0
 23 21  1  0
 24 23  2  0
M  END
$$$$
