QPL.pdb
     RDKit          3D

 25 25  0  0  1  0  0  0  0  0999 V2000
   18.5959  -14.5215  -19.5240 N   0  0  0  0  0  0  0  0  0  0  0  0
   18.2482  -14.5666  -20.9138 C   0  0  0  0  0  0  0  0  0  0  0  0
   17.6224  -15.5874  -21.2953 O   0  0  0  0  0  0  0  0  0  0  0  0
   18.6385  -13.4351  -21.7840 C   0  0  0  0  0  0  0  0  0  0  0  0
   19.3277  -12.3781  -21.0013 C   0  0  0  0  0  0  0  0  0  0  0  0
   20.4477  -11.6732  -21.7211 C   0  0  2  0  0  0  0  0  0  0  0  0
   21.4377  -12.6676  -22.0377 N   0  0  0  0  0  0  0  0  0  0  0  0
   20.9811  -10.5714  -20.8871 C   0  0  0  0  0  0  0  0  0  0  0  0
   22.0362  -10.8020  -20.2422 O   0  0  0  0  0  0  0  0  0  0  0  0
   20.3921   -9.2966  -20.7699 N   0  0  0  0  0  0  0  0  0  0  0  0
   19.2453   -8.8838  -21.5465 C   0  0  0  0  0  0  0  0  0  0  0  0
   18.9055   -7.4809  -21.1388 C   0  0  0  0  0  0  0  0  0  0  0  0
   20.1059   -6.9767  -20.4255 C   0  0  0  0  0  0  0  0  0  0  0  0
   20.7958   -8.2188  -19.9025 C   0  0  1  0  0  0  0  0  0  0  0  0
   20.4749   -8.4741  -18.4771 C   0  0  0  0  0  0  0  0  0  0  0  0
   19.7140   -9.4288  -18.1691 O   0  0  0  0  0  0  0  0  0  0  0  0
   23.7325  -10.7826  -14.7608 C   0  0  0  0  0  0  0  0  0  0  0  0
   22.4668   -9.9307  -14.7588 C   0  0  2  0  0  0  0  0  0  0  0  0
   21.3108  -10.7882  -14.2788 C   0  0  0  0  0  0  0  0  0  0  0  0
   22.1864   -9.3813  -16.1293 C   0  0  0  0  0  0  0  0  0  0  0  0
   21.2302   -8.2461  -16.0644 C   0  0  2  0  0  0  0  0  0  0  0  0
   20.9814   -7.6936  -17.4051 N   0  0  0  0  0  0  0  0  0  0  0  0
   21.6634   -7.1980  -15.1440 C   0  0  0  0  0  0  0  0  0  0  0  0
   22.3569   -6.2037  -15.3974 O   0  0  0  0  0  0  0  0  0  0  0  0
   21.2519   -7.3133  -13.7947 O   0  0  0  0  0  0  0  0  0  0  0  0
  2  3  2  0
  2  1  1  0
  4  2  1  0
  5  4  1  0
  6  5  1  0
  6  7  1  1
  8 10  1  0
  8  6  1  0
  9  8  2  0
 10 14  1  0
 11 10  1  0
 11 12  1  0
 12 13  1  0
 14 13  1  0
 14 15  1  1
 15 16  2  0
 18 17  1  6
 18 19  1  0
 20 18  1  0
 21 20  1  6
 22 21  1  0
 22 15  1  0
 23 25  1  0
 23 21  1  0
 24 23  2  0
M  END
$$$$
