QPL.pdb
     RDKit          3D

 25 25  0  0  1  0  0  0  0  0999 V2000
   18.5432  -16.0494  -15.5891 N   0  0  0  0  0  0  0  0  0  0  0  0
   18.6818  -17.0067  -16.6467 C   0  0  0  0  0  0  0  0  0  0  0  0
   18.3146  -18.1795  -16.3840 O   0  0  0  0  0  0  0  0  0  0  0  0
   19.2329  -16.5602  -17.9455 C   0  0  0  0  0  0  0  0  0  0  0  0
   19.5741  -15.1156  -17.9077 C   0  0  0  0  0  0  0  0  0  0  0  0
   20.1070  -14.5476  -19.1971 C   0  0  2  0  0  0  0  0  0  0  0  0
   21.1000  -15.4669  -19.6848 N   0  0  0  0  0  0  0  0  0  0  0  0
   20.6408  -13.1837  -18.9758 C   0  0  0  0  0  0  0  0  0  0  0  0
   21.8838  -13.0755  -18.8160 O   0  0  0  0  0  0  0  0  0  0  0  0
   19.8577  -12.0129  -18.9331 N   0  0  0  0  0  0  0  0  0  0  0  0
   18.4481  -11.9955  -19.2513 C   0  0  0  0  0  0  0  0  0  0  0  0
   17.9649  -10.5855  -19.0833 C   0  0  0  0  0  0  0  0  0  0  0  0
   19.1915   -9.7495  -19.0583 C   0  0  0  0  0  0  0  0  0  0  0  0
   20.2861  -10.6819  -18.5839 C   0  0  1  0  0  0  0  0  0  0  0  0
   20.5599  -10.5254  -17.1347 C   0  0  0  0  0  0  0  0  0  0  0  0
   20.4217  -11.5103  -16.3626 O   0  0  0  0  0  0  0  0  0  0  0  0
   25.5693  -10.3337  -15.0778 C   0  0  0  0  0  0  0  0  0  0  0  0
   24.2003   -9.8142  -14.6489 C   0  0  2  0  0  0  0  0  0  0  0  0
   23.7274  -10.6299  -13.4601 C   0  0  0  0  0  0  0  0  0  0  0  0
   23.2135   -9.9025  -15.7790 C   0  0  0  0  0  0  0  0  0  0  0  0
   21.9281   -9.2510  -15.4178 C   0  0  2  0  0  0  0  0  0  0  0  0
   20.9792   -9.3062  -16.5409 N   0  0  0  0  0  0  0  0  0  0  0  0
   22.1046   -7.8769  -14.9553 C   0  0  0  0  0  0  0  0  0  0  0  0
   22.0929   -7.4606  -13.7890 O   0  0  0  0  0  0  0  0  0  0  0  0
   22.3160   -6.8855  -15.9431 O   0  0  0  0  0  0  0  0  0  0  0  0
  2  3  2  0
  2  1  1  0
  4  2  1  0
  5  4  1  0
  6  5  1  0
  6  7  1  1
  8 10  1  0
  8  6  1  0
  9  8  2  0
 10 14  1  0
 11 10  1  0
 11 12  1  0
 12 13  1  0
 14 13  1  0
 14 15  1  1
 15 16  2  0
 18 17  1  6
 18 19  1  0
 20 18  1  0
 21 20  1  6
 22 21  1  0
 22 15  1  0
 23 25  1  0
 23 21  1  0
 24 23  2  0
M  END
$$$$
