QPL.pdb
     RDKit          3D

 25 25  0  0  1  0  0  0  0  0999 V2000
   25.5831  -28.5430  -18.9895 N   0  0  0  0  0  0  0  0  0  0  0  0
   24.6156  -27.4934  -18.8612 C   0  0  0  0  0  0  0  0  0  0  0  0
   24.7209  -26.5406  -19.6739 O   0  0  0  0  0  0  0  0  0  0  0  0
   23.5821  -27.6006  -17.8075 C   0  0  0  0  0  0  0  0  0  0  0  0
   23.5999  -26.4067  -16.9248 C   0  0  0  0  0  0  0  0  0  0  0  0
   24.8344  -26.2545  -16.0751 C   0  0  2  0  0  0  0  0  0  0  0  0
   24.8882  -27.3954  -15.2006 N   0  0  0  0  0  0  0  0  0  0  0  0
   24.7994  -24.9668  -15.3440 C   0  0  0  0  0  0  0  0  0  0  0  0
   24.1387  -24.9348  -14.2741 O   0  0  0  0  0  0  0  0  0  0  0  0
   25.4498  -23.7888  -15.7626 N   0  0  0  0  0  0  0  0  0  0  0  0
   26.2322  -23.7087  -16.9749 C   0  0  0  0  0  0  0  0  0  0  0  0
   26.7510  -22.3057  -17.0854 C   0  0  0  0  0  0  0  0  0  0  0  0
   26.5861  -21.7175  -15.7323 C   0  0  0  0  0  0  0  0  0  0  0  0
   25.4602  -22.5086  -15.1007 C   0  0  1  0  0  0  0  0  0  0  0  0
   24.1612  -21.7992  -15.1958 C   0  0  0  0  0  0  0  0  0  0  0  0
   23.3957  -22.0248  -16.1696 O   0  0  0  0  0  0  0  0  0  0  0  0
   20.4043  -18.1471  -11.8737 C   0  0  0  0  0  0  0  0  0  0  0  0
   20.5965  -19.0780  -13.0671 C   0  0  2  0  0  0  0  0  0  0  0  0
   19.4426  -20.0627  -13.0997 C   0  0  0  0  0  0  0  0  0  0  0  0
   21.9099  -19.8030  -12.9774 C   0  0  0  0  0  0  0  0  0  0  0  0
   22.3967  -20.1953  -14.3252 C   0  0  2  0  0  0  0  0  0  0  0  0
   23.7083  -20.8560  -14.2365 N   0  0  0  0  0  0  0  0  0  0  0  0
   22.4448  -19.0701  -15.2551 C   0  0  0  0  0  0  0  0  0  0  0  0
   23.4087  -18.3350  -15.5087 O   0  0  0  0  0  0  0  0  0  0  0  0
   21.2572  -18.7661  -15.9625 O   0  0  0  0  0  0  0  0  0  0  0  0
  2  3  2  0
  2  1  1  0
  4  2  1  0
  5  4  1  0
  6  5  1  0
  6  7  1  1
  8 10  1  0
  8  6  1  0
  9  8  2  0
 10 14  1  0
 11 10  1  0
 11 12  1  0
 12 13  1  0
 14 13  1  0
 14 15  1  6
 15 16  2  0
 18 17  1  1
 18 19  1  0
 20 18  1  0
 21 20  1  1
 22 21  1  0
 22 15  1  0
 23 25  1  0
 23 21  1  0
 24 23  2  0
M  END
$$$$
