QPL.pdb
     RDKit          3D

 25 25  0  0  1  0  0  0  0  0999 V2000
   20.6450  -18.8078  -11.2606 N   0  0  0  0  0  0  0  0  0  0  0  0
   20.7860  -18.6015  -12.6719 C   0  0  0  0  0  0  0  0  0  0  0  0
   20.0882  -17.6826  -13.1698 O   0  0  0  0  0  0  0  0  0  0  0  0
   21.7220  -19.4622  -13.4289 C   0  0  0  0  0  0  0  0  0  0  0  0
   22.6131  -20.2131  -12.5087 C   0  0  0  0  0  0  0  0  0  0  0  0
   23.7001  -21.0130  -13.1778 C   0  0  2  0  0  0  0  0  0  0  0  0
   23.0592  -22.0963  -13.8740 N   0  0  0  0  0  0  0  0  0  0  0  0
   24.6892  -21.4742  -12.1763 C   0  0  0  0  0  0  0  0  0  0  0  0
   24.2871  -22.2944  -11.3116 O   0  0  0  0  0  0  0  0  0  0  0  0
   26.0354  -21.0599  -12.1286 N   0  0  0  0  0  0  0  0  0  0  0  0
   26.6331  -20.2058  -13.1294 C   0  0  0  0  0  0  0  0  0  0  0  0
   28.0619  -19.9784  -12.7337 C   0  0  0  0  0  0  0  0  0  0  0  0
   28.3638  -21.0286  -11.7286 C   0  0  0  0  0  0  0  0  0  0  0  0
   27.0207  -21.3889  -11.1296 C   0  0  1  0  0  0  0  0  0  0  0  0
   26.7855  -20.6991   -9.8379 C   0  0  0  0  0  0  0  0  0  0  0  0
   26.2313  -19.5686   -9.8249 O   0  0  0  0  0  0  0  0  0  0  0  0
   28.6242  -19.1284   -5.1949 C   0  0  0  0  0  0  0  0  0  0  0  0
   27.7758  -20.3757   -4.9657 C   0  0  2  0  0  0  0  0  0  0  0  0
   28.3780  -21.1624   -3.8166 C   0  0  0  0  0  0  0  0  0  0  0  0
   27.7113  -21.2178   -6.2088 C   0  0  0  0  0  0  0  0  0  0  0  0
   27.0756  -20.4731   -7.3262 C   0  0  2  0  0  0  0  0  0  0  0  0
   27.1527  -21.2415   -8.5786 N   0  0  0  0  0  0  0  0  0  0  0  0
   27.6375  -19.1365   -7.5026 C   0  0  0  0  0  0  0  0  0  0  0  0
   27.1693  -18.0583   -7.1129 O   0  0  0  0  0  0  0  0  0  0  0  0
   28.8650  -19.0394   -8.2005 O   0  0  0  0  0  0  0  0  0  0  0  0
  2  3  2  0
  2  1  1  0
  4  2  1  0
  5  4  1  0
  6  5  1  0
  6  7  1  1
  8 10  1  0
  8  6  1  0
  9  8  2  0
 10 14  1  0
 11 10  1  0
 11 12  1  0
 12 13  1  0
 14 13  1  0
 14 15  1  1
 15 16  2  0
 18 17  1  6
 18 19  1  0
 20 18  1  0
 21 20  1  1
 22 21  1  0
 22 15  1  0
 23 25  1  0
 23 21  1  0
 24 23  2  0
M  END
$$$$
