PKI.pdb
     RDKit          3D

 25 25  0  0  1  0  0  0  0  0999 V2000
    8.6542  -15.2913   18.8695 N   0  0  0  0  0  0  0  0  0  0  0  0
    8.5541  -14.7999   17.5046 C   0  0  0  0  0  0  0  0  0  0  0  0
    8.0947  -13.3743   17.6038 C   0  0  0  0  0  0  0  0  0  0  0  0
    7.2512  -13.4215   18.8869 C   0  0  0  0  0  0  0  0  0  0  0  0
    8.2291  -14.2281   19.7276 C   0  0  1  0  0  0  0  0  0  0  0  0
    7.7308  -14.6383   21.0262 C   0  0  0  0  0  0  0  0  0  0  0  0
    7.2993  -13.7996   21.8928 O   0  0  0  0  0  0  0  0  0  0  0  0
    7.6931  -15.9930   21.4142 N   0  0  0  0  0  0  0  0  0  0  0  0
    7.2028  -16.3924   22.7434 C   0  0  1  0  0  0  0  0  0  0  0  0
    7.4778  -17.8642   22.9297 C   0  0  0  0  0  0  0  0  0  0  0  0
    7.0434  -18.3799   24.2765 C   0  0  0  0  0  0  0  0  0  0  0  0
    7.2305  -19.8560   24.4181 C   0  0  0  0  0  0  0  0  0  0  0  0
    6.6470  -20.3880   25.7095 C   0  0  0  0  0  0  0  0  0  0  0  0
    6.7284  -21.8438   25.6740 N   0  0  0  0  0  0  0  0  0  0  0  0
    8.0445  -15.6716   23.7383 C   0  0  0  0  0  0  0  0  0  0  0  0
    9.2761  -15.5332   23.5533 O   0  0  0  0  0  0  0  0  0  0  0  0
    6.0215  -11.8241   27.6927 C   0  0  0  0  0  0  0  0  0  0  0  0
    6.5818  -13.0843   27.1484 C   0  0  0  0  0  0  0  0  0  0  0  0
    7.7311  -12.9966   26.2241 C   0  0  2  0  0  0  0  0  0  0  0  0
    7.4820  -12.0511   25.0579 C   0  0  0  0  0  0  0  0  0  0  0  0
    8.2977  -14.2975   25.7888 C   0  0  2  0  0  0  0  0  0  0  0  0
    7.4937  -15.1130   24.9322 N   0  0  0  0  0  0  0  0  0  0  0  0
    8.7045  -15.0993   26.9916 C   0  0  0  0  0  0  0  0  0  0  0  0
    8.1232  -16.3343   27.2101 O   0  0  0  0  0  0  0  0  0  0  0  0
    9.5587  -14.6905   27.8146 O   0  0  0  0  0  0  0  0  0  0  0  0
  1  2  1  0
  2  3  1  0
  4  3  1  0
  5  1  1  0
  5  4  1  0
  5  6  1  1
  7  6  2  0
  8  6  1  0
  9  8  1  0
  9 10  1  1
 10 11  1  0
 11 12  1  0
 12 13  1  0
 13 14  1  0
 15  9  1  0
 16 15  2  0
 18 17  1  0
 18 19  1  0
 19 21  1  0
 19 20  1  6
 21 22  1  1
 22 15  1  0
 23 24  1  0
 23 21  1  0
 25 23  2  0
M  END
$$$$
