PKI.pdb
     RDKit          3D

 25 25  0  0  1  0  0  0  0  0999 V2000
    7.6979  -15.1866   18.4799 N   0  0  0  0  0  0  0  0  0  0  0  0
    7.8500  -14.2963   17.3403 C   0  0  0  0  0  0  0  0  0  0  0  0
    8.4742  -13.0382   17.8704 C   0  0  0  0  0  0  0  0  0  0  0  0
    7.9173  -13.0092   19.3019 C   0  0  0  0  0  0  0  0  0  0  0  0
    8.1621  -14.4740   19.6306 C   0  0  1  0  0  0  0  0  0  0  0  0
    7.6178  -14.9188   20.8990 C   0  0  0  0  0  0  0  0  0  0  0  0
    6.5031  -14.4860   21.3580 O   0  0  0  0  0  0  0  0  0  0  0  0
    8.2887  -15.8587   21.7074 N   0  0  0  0  0  0  0  0  0  0  0  0
    7.7324  -16.2873   23.0011 C   0  0  1  0  0  0  0  0  0  0  0  0
    8.1330  -17.7222   23.2397 C   0  0  0  0  0  0  0  0  0  0  0  0
    7.3976  -18.6950   22.3559 C   0  0  0  0  0  0  0  0  0  0  0  0
    7.8554  -20.1055   22.5423 C   0  0  0  0  0  0  0  0  0  0  0  0
    7.0837  -21.0793   21.6778 C   0  0  0  0  0  0  0  0  0  0  0  0
    7.7148  -22.3883   21.8009 N   0  0  0  0  0  0  0  0  0  0  0  0
    8.4157  -15.4742   24.0449 C   0  0  0  0  0  0  0  0  0  0  0  0
    9.6390  -15.2172   23.9565 O   0  0  0  0  0  0  0  0  0  0  0  0
    5.8509  -11.6195   27.6328 C   0  0  0  0  0  0  0  0  0  0  0  0
    6.4311  -12.8683   27.0830 C   0  0  0  0  0  0  0  0  0  0  0  0
    7.7442  -12.7919   26.4099 C   0  0  2  0  0  0  0  0  0  0  0  0
    7.7404  -11.8566   25.2094 C   0  0  0  0  0  0  0  0  0  0  0  0
    8.3816  -14.0981   26.1095 C   0  0  2  0  0  0  0  0  0  0  0  0
    7.7173  -14.9573   25.1789 N   0  0  0  0  0  0  0  0  0  0  0  0
    8.6214  -14.8492   27.3877 C   0  0  0  0  0  0  0  0  0  0  0  0
    8.0747  -16.1090   27.5453 O   0  0  0  0  0  0  0  0  0  0  0  0
    9.3043  -14.3758   28.3276 O   0  0  0  0  0  0  0  0  0  0  0  0
  1  2  1  0
  2  3  1  0
  4  3  1  0
  5  1  1  0
  5  4  1  0
  5  6  1  1
  7  6  2  0
  8  6  1  0
  9  8  1  0
  9 10  1  1
 10 11  1  0
 11 12  1  0
 12 13  1  0
 13 14  1  0
 15  9  1  0
 16 15  2  0
 18 17  1  0
 18 19  1  0
 19 21  1  0
 19 20  1  6
 21 22  1  6
 22 15  1  0
 23 24  1  0
 23 21  1  0
 25 23  2  0
M  END
$$$$
