PKI.pdb
     RDKit          3D

 25 25  0  0  1  0  0  0  0  0999 V2000
    8.4897  -15.1883   19.3143 N   0  0  0  0  0  0  0  0  0  0  0  0
    8.4097  -14.5744   17.9985 C   0  0  0  0  0  0  0  0  0  0  0  0
    7.9913  -13.1506   18.2240 C   0  0  0  0  0  0  0  0  0  0  0  0
    7.1413  -13.2874   19.4963 C   0  0  0  0  0  0  0  0  0  0  0  0
    8.0919  -14.1940   20.2632 C   0  0  1  0  0  0  0  0  0  0  0  0
    7.5764  -14.7037   21.5192 C   0  0  0  0  0  0  0  0  0  0  0  0
    7.1249  -13.9352   22.4391 O   0  0  0  0  0  0  0  0  0  0  0  0
    7.5430  -16.0839   21.8039 N   0  0  0  0  0  0  0  0  0  0  0  0
    7.0299  -16.5855   23.0892 C   0  0  1  0  0  0  0  0  0  0  0  0
    7.1623  -18.0884   23.1007 C   0  0  0  0  0  0  0  0  0  0  0  0
    6.6890  -18.7127   24.3869 C   0  0  0  0  0  0  0  0  0  0  0  0
    6.8090  -20.2025   24.3850 C   0  0  0  0  0  0  0  0  0  0  0  0
    6.2444  -20.8263   25.6432 C   0  0  0  0  0  0  0  0  0  0  0  0
    7.3495  -21.4230   26.3847 N   0  0  0  0  0  0  0  0  0  0  0  0
    7.9481  -16.0681   24.1413 C   0  0  0  0  0  0  0  0  0  0  0  0
    9.1907  -16.1199   23.9877 O   0  0  0  0  0  0  0  0  0  0  0  0
    5.9169  -11.8618   26.5092 C   0  0  0  0  0  0  0  0  0  0  0  0
    7.0604  -12.6241   25.9526 C   0  0  0  0  0  0  0  0  0  0  0  0
    7.7983  -13.5342   26.8527 C   0  0  2  0  0  0  0  0  0  0  0  0
    8.8378  -12.8145   27.6998 C   0  0  0  0  0  0  0  0  0  0  0  0
    8.3371  -14.7608   26.2142 C   0  0  2  0  0  0  0  0  0  0  0  0
    7.4607  -15.4971   25.3567 N   0  0  0  0  0  0  0  0  0  0  0  0
    8.8821  -15.6815   27.2681 C   0  0  0  0  0  0  0  0  0  0  0  0
    8.2297  -16.8716   27.5303 O   0  0  0  0  0  0  0  0  0  0  0  0
    9.9153  -15.4123   27.9270 O   0  0  0  0  0  0  0  0  0  0  0  0
  1  2  1  0
  2  3  1  0
  4  3  1  0
  5  1  1  0
  5  4  1  0
  5  6  1  1
  7  6  2  0
  8  6  1  0
  9  8  1  0
  9 10  1  6
 10 11  1  0
 11 12  1  0
 12 13  1  0
 13 14  1  0
 15  9  1  0
 16 15  2  0
 18 17  1  0
 18 19  1  0
 19 21  1  0
 19 20  1  6
 21 22  1  1
 22 15  1  0
 23 24  1  0
 23 21  1  0
 25 23  2  0
M  END
$$$$
