PKI.pdb
     RDKit          3D

 25 25  0  0  1  0  0  0  0  0999 V2000
    8.4080  -15.1940   19.1400 N   0  0  0  0  0  0  0  0  0  0  0  0
    8.2869  -14.5573   17.8383 C   0  0  0  0  0  0  0  0  0  0  0  0
    8.0353  -13.1016   18.1043 C   0  0  0  0  0  0  0  0  0  0  0  0
    7.2796  -13.1688   19.4402 C   0  0  0  0  0  0  0  0  0  0  0  0
    8.1904  -14.1775   20.1232 C   0  0  1  0  0  0  0  0  0  0  0  0
    7.7270  -14.6493   21.4137 C   0  0  0  0  0  0  0  0  0  0  0  0
    7.4322  -13.8517   22.3716 O   0  0  0  0  0  0  0  0  0  0  0  0
    7.5740  -16.0227   21.6922 N   0  0  0  0  0  0  0  0  0  0  0  0
    6.9852  -16.4829   22.9603 C   0  0  1  0  0  0  0  0  0  0  0  0
    7.1021  -17.9860   23.0217 C   0  0  0  0  0  0  0  0  0  0  0  0
    6.6667  -18.5583   24.3450 C   0  0  0  0  0  0  0  0  0  0  0  0
    6.8348  -20.0416   24.4168 C   0  0  0  0  0  0  0  0  0  0  0  0
    6.4341  -20.6009   25.7650 C   0  0  0  0  0  0  0  0  0  0  0  0
    6.8160  -22.0081   25.8000 N   0  0  0  0  0  0  0  0  0  0  0  0
    7.8482  -15.9430   24.0473 C   0  0  0  0  0  0  0  0  0  0  0  0
    9.0966  -15.9608   23.9413 O   0  0  0  0  0  0  0  0  0  0  0  0
    6.1715  -11.4683   26.3478 C   0  0  0  0  0  0  0  0  0  0  0  0
    7.1191  -12.4900   25.8413 C   0  0  0  0  0  0  0  0  0  0  0  0
    7.6618  -13.4759   26.7986 C   0  0  2  0  0  0  0  0  0  0  0  0
    8.6660  -12.8690   27.7678 C   0  0  0  0  0  0  0  0  0  0  0  0
    8.1468  -14.7439   26.1991 C   0  0  2  0  0  0  0  0  0  0  0  0
    7.2994  -15.3880   25.2438 N   0  0  0  0  0  0  0  0  0  0  0  0
    8.4902  -15.7190   27.2883 C   0  0  0  0  0  0  0  0  0  0  0  0
    9.6211  -15.5073   28.0546 O   0  0  0  0  0  0  0  0  0  0  0  0
    7.7862  -16.7280   27.5341 O   0  0  0  0  0  0  0  0  0  0  0  0
  1  2  1  0
  2  3  1  0
  4  3  1  0
  5  1  1  0
  5  4  1  0
  5  6  1  1
  7  6  2  0
  8  6  1  0
  9  8  1  0
  9 10  1  6
 10 11  1  0
 11 12  1  0
 12 13  1  0
 13 14  1  0
 15  9  1  0
 16 15  2  0
 18 17  1  0
 18 19  1  0
 19 21  1  0
 19 20  1  6
 21 22  1  6
 22 15  1  0
 23 24  1  0
 23 21  1  0
 25 23  2  0
M  END
$$$$
