PKI.pdb
     RDKit          3D

 25 25  0  0  1  0  0  0  0  0999 V2000
    8.4680  -15.0356   18.8396 N   0  0  0  0  0  0  0  0  0  0  0  0
    8.4355  -14.3950   17.5346 C   0  0  0  0  0  0  0  0  0  0  0  0
    8.2494  -12.9278   17.7912 C   0  0  0  0  0  0  0  0  0  0  0  0
    7.4353  -12.9538   19.0938 C   0  0  0  0  0  0  0  0  0  0  0  0
    8.2625  -14.0079   19.8137 C   0  0  1  0  0  0  0  0  0  0  0  0
    7.7208  -14.4532   21.0831 C   0  0  0  0  0  0  0  0  0  0  0  0
    7.3112  -13.6358   21.9800 O   0  0  0  0  0  0  0  0  0  0  0  0
    7.6140  -15.8210   21.4070 N   0  0  0  0  0  0  0  0  0  0  0  0
    6.9593  -16.2617   22.6496 C   0  0  1  0  0  0  0  0  0  0  0  0
    6.8294  -17.7645   22.6120 C   0  0  0  0  0  0  0  0  0  0  0  0
    5.8611  -18.2471   21.5643 C   0  0  0  0  0  0  0  0  0  0  0  0
    5.8593  -19.7348   21.4202 C   0  0  0  0  0  0  0  0  0  0  0  0
    4.7909  -20.2182   20.4632 C   0  0  0  0  0  0  0  0  0  0  0  0
    5.0100  -21.6404   20.2254 N   0  0  0  0  0  0  0  0  0  0  0  0
    7.9000  -15.9423   23.7590 C   0  0  0  0  0  0  0  0  0  0  0  0
    9.1371  -15.9164   23.5611 O   0  0  0  0  0  0  0  0  0  0  0  0
    7.2854  -11.2185   27.4342 C   0  0  0  0  0  0  0  0  0  0  0  0
    7.9936  -12.4788   27.1048 C   0  0  0  0  0  0  0  0  0  0  0  0
    7.2682  -13.5063   26.3296 C   0  0  2  0  0  0  0  0  0  0  0  0
    5.9731  -13.9464   26.9967 C   0  0  0  0  0  0  0  0  0  0  0  0
    8.0893  -14.6547   25.8716 C   0  0  2  0  0  0  0  0  0  0  0  0
    7.4411  -15.6547   25.0809 N   0  0  0  0  0  0  0  0  0  0  0  0
    8.7448  -15.3102   27.0531 C   0  0  0  0  0  0  0  0  0  0  0  0
    8.5106  -16.6499   27.3001 O   0  0  0  0  0  0  0  0  0  0  0  0
    9.5039  -14.6858   27.8329 O   0  0  0  0  0  0  0  0  0  0  0  0
  1  2  1  0
  2  3  1  0
  4  3  1  0
  5  1  1  0
  5  4  1  0
  5  6  1  1
  7  6  2  0
  8  6  1  0
  9  8  1  0
  9 10  1  6
 10 11  1  0
 11 12  1  0
 12 13  1  0
 13 14  1  0
 15  9  1  0
 16 15  2  0
 18 17  1  0
 18 19  1  0
 19 21  1  0
 19 20  1  1
 21 22  1  1
 22 15  1  0
 23 24  1  0
 23 21  1  0
 25 23  2  0
M  END
$$$$
