PKI.pdb
     RDKit          3D

 25 25  0  0  1  0  0  0  0  0999 V2000
    8.5542  -15.0233   18.7559 N   0  0  0  0  0  0  0  0  0  0  0  0
    8.4053  -14.3508   17.4752 C   0  0  0  0  0  0  0  0  0  0  0  0
    8.0810  -12.9189   17.7878 C   0  0  0  0  0  0  0  0  0  0  0  0
    7.3259  -13.0675   19.1174 C   0  0  0  0  0  0  0  0  0  0  0  0
    8.2838  -14.0518   19.7709 C   0  0  1  0  0  0  0  0  0  0  0  0
    7.8408  -14.5883   21.0432 C   0  0  0  0  0  0  0  0  0  0  0  0
    7.4356  -13.8403   22.0008 O   0  0  0  0  0  0  0  0  0  0  0  0
    7.8314  -15.9738   21.3032 N   0  0  0  0  0  0  0  0  0  0  0  0
    7.2539  -16.5129   22.5453 C   0  0  1  0  0  0  0  0  0  0  0  0
    7.5205  -17.9974   22.5890 C   0  0  0  0  0  0  0  0  0  0  0  0
    7.0137  -18.6511   23.8476 C   0  0  0  0  0  0  0  0  0  0  0  0
    7.1757  -20.1368   23.8328 C   0  0  0  0  0  0  0  0  0  0  0  0
    6.5541  -20.7948   25.0460 C   0  0  0  0  0  0  0  0  0  0  0  0
    6.6417  -22.2398   24.8686 N   0  0  0  0  0  0  0  0  0  0  0  0
    8.0244  -15.9077   23.6668 C   0  0  0  0  0  0  0  0  0  0  0  0
    9.2653  -15.7562   23.5818 O   0  0  0  0  0  0  0  0  0  0  0  0
    7.5305  -10.8661   26.8591 C   0  0  0  0  0  0  0  0  0  0  0  0
    8.0492  -12.2532   26.7859 C   0  0  0  0  0  0  0  0  0  0  0  0
    7.3371  -13.2214   25.9267 C   0  0  2  0  0  0  0  0  0  0  0  0
    5.8759  -13.3948   26.3154 C   0  0  0  0  0  0  0  0  0  0  0  0
    8.0279  -14.5192   25.7233 C   0  0  2  0  0  0  0  0  0  0  0  0
    7.3923  -15.4783   24.8739 N   0  0  0  0  0  0  0  0  0  0  0  0
    8.3137  -15.1536   27.0541 C   0  0  0  0  0  0  0  0  0  0  0  0
    7.7671  -16.3892   27.3462 O   0  0  0  0  0  0  0  0  0  0  0  0
    9.0352  -14.6031   27.9203 O   0  0  0  0  0  0  0  0  0  0  0  0
  1  2  1  0
  2  3  1  0
  4  3  1  0
  5  1  1  0
  5  4  1  0
  5  6  1  1
  7  6  2  0
  8  6  1  0
  9  8  1  0
  9 10  1  6
 10 11  1  0
 11 12  1  0
 12 13  1  0
 13 14  1  0
 15  9  1  0
 16 15  2  0
 18 17  1  0
 18 19  1  0
 19 21  1  0
 19 20  1  1
 21 22  1  6
 22 15  1  0
 23 24  1  0
 23 21  1  0
 25 23  2  0
M  END
$$$$
