PKI.pdb
     RDKit          3D

 25 25  0  0  1  0  0  0  0  0999 V2000
    8.6806  -15.0879   19.0669 N   0  0  0  0  0  0  0  0  0  0  0  0
    8.6771  -14.4779   17.7469 C   0  0  0  0  0  0  0  0  0  0  0  0
    8.2697  -13.0471   17.9463 C   0  0  0  0  0  0  0  0  0  0  0  0
    7.3540  -13.1661   19.1741 C   0  0  0  0  0  0  0  0  0  0  0  0
    8.2503  -14.0841   19.9912 C   0  0  1  0  0  0  0  0  0  0  0  0
    7.6638  -14.5811   21.2208 C   0  0  0  0  0  0  0  0  0  0  0  0
    7.1551  -13.8038   22.1027 O   0  0  0  0  0  0  0  0  0  0  0  0
    7.6200  -15.9578   21.5204 N   0  0  0  0  0  0  0  0  0  0  0  0
    7.0515  -16.4450   22.7878 C   0  0  1  0  0  0  0  0  0  0  0  0
    7.2257  -17.9427   22.8430 C   0  0  0  0  0  0  0  0  0  0  0  0
    6.7105  -18.5500   24.1213 C   0  0  0  0  0  0  0  0  0  0  0  0
    6.9314  -20.0266   24.1900 C   0  0  0  0  0  0  0  0  0  0  0  0
    6.4485  -20.6199   25.4961 C   0  0  0  0  0  0  0  0  0  0  0  0
    5.9733  -21.9724   25.2276 N   0  0  0  0  0  0  0  0  0  0  0  0
    7.8955  -15.8768   23.8753 C   0  0  0  0  0  0  0  0  0  0  0  0
    9.1454  -15.8888   23.7875 O   0  0  0  0  0  0  0  0  0  0  0  0
    5.9852  -11.4342   26.1468 C   0  0  0  0  0  0  0  0  0  0  0  0
    6.9657  -12.4162   25.6245 C   0  0  0  0  0  0  0  0  0  0  0  0
    7.5951  -13.3513   26.5797 C   0  0  2  0  0  0  0  0  0  0  0  0
    8.5796  -12.6667   27.5168 C   0  0  0  0  0  0  0  0  0  0  0  0
    8.1489  -14.5923   25.9832 C   0  0  2  0  0  0  0  0  0  0  0  0
    7.3261  -15.3002   25.0519 N   0  0  0  0  0  0  0  0  0  0  0  0
    8.5757  -15.5310   27.0750 C   0  0  0  0  0  0  0  0  0  0  0  0
    9.8114  -15.3596   27.6704 O   0  0  0  0  0  0  0  0  0  0  0  0
    7.8498  -16.4737   27.4730 O   0  0  0  0  0  0  0  0  0  0  0  0
  1  2  1  0
  2  3  1  0
  4  3  1  0
  5  1  1  0
  5  4  1  0
  5  6  1  1
  7  6  2  0
  8  6  1  0
  9  8  1  0
  9 10  1  6
 10 11  1  0
 11 12  1  0
 12 13  1  0
 13 14  1  0
 15  9  1  0
 16 15  2  0
 18 17  1  0
 18 19  1  0
 19 21  1  0
 19 20  1  6
 21 22  1  1
 22 15  1  0
 23 24  1  0
 23 21  1  0
 25 23  2  0
M  END
$$$$
