PKI.pdb
     RDKit          3D

 25 25  0  0  1  0  0  0  0  0999 V2000
    8.7013  -15.1518   18.7981 N   0  0  0  0  0  0  0  0  0  0  0  0
    8.6317  -14.5979   17.4554 C   0  0  0  0  0  0  0  0  0  0  0  0
    8.2559  -13.1536   17.6157 C   0  0  0  0  0  0  0  0  0  0  0  0
    7.4095  -13.2059   18.8967 C   0  0  0  0  0  0  0  0  0  0  0  0
    8.3378  -14.1031   19.7011 C   0  0  1  0  0  0  0  0  0  0  0  0
    7.8149  -14.5383   20.9818 C   0  0  0  0  0  0  0  0  0  0  0  0
    7.3971  -13.7146   21.8692 O   0  0  0  0  0  0  0  0  0  0  0  0
    7.7366  -15.9025   21.3282 N   0  0  0  0  0  0  0  0  0  0  0  0
    7.1657  -16.3311   22.6155 C   0  0  1  0  0  0  0  0  0  0  0  0
    7.3634  -17.8207   22.7515 C   0  0  0  0  0  0  0  0  0  0  0  0
    6.8882  -18.3607   24.0747 C   0  0  0  0  0  0  0  0  0  0  0  0
    7.1280  -19.8288   24.2197 C   0  0  0  0  0  0  0  0  0  0  0  0
    6.6817  -20.3537   25.5674 C   0  0  0  0  0  0  0  0  0  0  0  0
    6.8921  -21.7969   25.5804 N   0  0  0  0  0  0  0  0  0  0  0  0
    7.9915  -15.6923   23.6774 C   0  0  0  0  0  0  0  0  0  0  0  0
    9.2425  -15.6980   23.6050 O   0  0  0  0  0  0  0  0  0  0  0  0
    6.2551  -11.6509   27.6369 C   0  0  0  0  0  0  0  0  0  0  0  0
    6.5188  -12.8720   26.8382 C   0  0  0  0  0  0  0  0  0  0  0  0
    7.8091  -12.9765   26.1263 C   0  0  2  0  0  0  0  0  0  0  0  0
    7.9249  -12.0004   24.9644 C   0  0  0  0  0  0  0  0  0  0  0  0
    8.2201  -14.3532   25.7538 C   0  0  2  0  0  0  0  0  0  0  0  0
    7.4031  -15.0527   24.8113 N   0  0  0  0  0  0  0  0  0  0  0  0
    8.3676  -15.1891   26.9927 C   0  0  0  0  0  0  0  0  0  0  0  0
    9.3020  -14.8282   27.9454 O   0  0  0  0  0  0  0  0  0  0  0  0
    7.6710  -16.2115   27.2008 O   0  0  0  0  0  0  0  0  0  0  0  0
  1  2  1  0
  2  3  1  0
  4  3  1  0
  5  1  1  0
  5  4  1  0
  5  6  1  1
  7  6  2  0
  8  6  1  0
  9  8  1  0
  9 10  1  1
 10 11  1  0
 11 12  1  0
 12 13  1  0
 13 14  1  0
 15  9  1  0
 16 15  2  0
 18 17  1  0
 18 19  1  0
 19 21  1  0
 19 20  1  6
 21 22  1  6
 22 15  1  0
 23 24  1  0
 23 21  1  0
 25 23  2  0
M  END
$$$$
