PKI.pdb
     RDKit          3D

 25 25  0  0  1  0  0  0  0  0999 V2000
    8.2947  -15.3951   19.3205 N   0  0  0  0  0  0  0  0  0  0  0  0
    8.2135  -14.8500   17.9748 C   0  0  0  0  0  0  0  0  0  0  0  0
    7.8778  -13.3953   18.1303 C   0  0  0  0  0  0  0  0  0  0  0  0
    7.0550  -13.4161   19.4275 C   0  0  0  0  0  0  0  0  0  0  0  0
    7.9753  -14.3305   20.2215 C   0  0  1  0  0  0  0  0  0  0  0  0
    7.4661  -14.7423   21.5154 C   0  0  0  0  0  0  0  0  0  0  0  0
    6.9917  -13.9085   22.3642 O   0  0  0  0  0  0  0  0  0  0  0  0
    7.4645  -16.0932   21.9182 N   0  0  0  0  0  0  0  0  0  0  0  0
    6.9537  -16.4948   23.2390 C   0  0  1  0  0  0  0  0  0  0  0  0
    7.0434  -17.9970   23.3475 C   0  0  0  0  0  0  0  0  0  0  0  0
    5.9239  -18.7081   22.6337 C   0  0  0  0  0  0  0  0  0  0  0  0
    6.0161  -20.1952   22.7509 C   0  0  0  0  0  0  0  0  0  0  0  0
    4.9381  -20.9022   21.9576 C   0  0  0  0  0  0  0  0  0  0  0  0
    5.1053  -22.3380   22.1514 N   0  0  0  0  0  0  0  0  0  0  0  0
    7.8995  -15.9370   24.2451 C   0  0  0  0  0  0  0  0  0  0  0  0
    9.1229  -15.8444   23.9904 O   0  0  0  0  0  0  0  0  0  0  0  0
    6.2524  -11.5741   26.8070 C   0  0  0  0  0  0  0  0  0  0  0  0
    7.0965  -12.6164   26.1750 C   0  0  0  0  0  0  0  0  0  0  0  0
    7.8256  -13.5535   27.0543 C   0  0  2  0  0  0  0  0  0  0  0  0
    8.8736  -12.8634   27.9155 C   0  0  0  0  0  0  0  0  0  0  0  0
    8.3508  -14.7718   26.3888 C   0  0  2  0  0  0  0  0  0  0  0  0
    7.4610  -15.4885   25.5286 N   0  0  0  0  0  0  0  0  0  0  0  0
    8.9023  -15.7133   27.4206 C   0  0  0  0  0  0  0  0  0  0  0  0
   10.0644  -15.3784   28.0901 O   0  0  0  0  0  0  0  0  0  0  0  0
    8.3465  -16.8021   27.7028 O   0  0  0  0  0  0  0  0  0  0  0  0
  1  2  1  0
  2  3  1  0
  4  3  1  0
  5  1  1  0
  5  4  1  0
  5  6  1  1
  7  6  2  0
  8  6  1  0
  9  8  1  0
  9 10  1  6
 10 11  1  0
 11 12  1  0
 12 13  1  0
 13 14  1  0
 15  9  1  0
 16 15  2  0
 18 17  1  0
 18 19  1  0
 19 21  1  0
 19 20  1  6
 21 22  1  1
 22 15  1  0
 23 24  1  0
 23 21  1  0
 25 23  2  0
M  END
$$$$
