SRS.pdb
     RDKit          3D

 24 23  0  0  1  0  0  0  0  0999 V2000
   26.9537  -20.5448  -16.8624 O   0  0  0  0  0  0  0  0  0  0  0  0
   25.6427  -20.9612  -16.7249 C   0  0  0  0  0  0  0  0  0  0  0  0
   25.4894  -21.8555  -15.4842 C   0  0  2  0  0  0  0  0  0  0  0  0
   25.9319  -23.1842  -15.8897 N   0  0  0  0  0  0  0  0  0  0  0  0
   24.0873  -21.8319  -15.0479 C   0  0  0  0  0  0  0  0  0  0  0  0
   23.3174  -22.7050  -15.5118 O   0  0  0  0  0  0  0  0  0  0  0  0
   18.0122  -22.1950  -10.9254 N   0  0  0  0  0  0  0  0  0  0  0  0
   19.1116  -22.1850  -10.0079 C   0  0  0  0  0  0  0  0  0  0  0  0
   19.2433  -23.1695   -9.1959 N   0  0  0  0  0  0  0  0  0  0  0  0
   20.0542  -21.1353   -9.9641 N   0  0  0  0  0  0  0  0  0  0  0  0
   19.9220  -19.9742  -10.8306 C   0  0  0  0  0  0  0  0  0  0  0  0
   20.2850  -20.3153  -12.2348 C   0  0  0  0  0  0  0  0  0  0  0  0
   21.7263  -20.4632  -12.4970 C   0  0  0  0  0  0  0  0  0  0  0  0
   22.1700  -20.8533  -13.8596 C   0  0  2  0  0  0  0  0  0  0  0  0
   23.5702  -20.8539  -14.1177 N   0  0  0  0  0  0  0  0  0  0  0  0
   21.5588  -19.8692  -14.8063 C   0  0  0  0  0  0  0  0  0  0  0  0
   21.8985  -18.6812  -14.7207 O   0  0  0  0  0  0  0  0  0  0  0  0
   19.9731  -23.2973   -8.4898 O   0  0  0  0  0  0  0  0  0  0  0  0
   18.6899  -19.1952  -18.6465 C   0  0  0  0  0  0  0  0  0  0  0  0
   19.2825  -20.1438  -17.7894 C   0  0  2  0  0  0  0  0  0  0  0  0
   19.9750  -19.3810  -16.6771 N   0  0  0  0  0  0  0  0  0  0  0  0
   20.6319  -20.2932  -15.7562 C   0  0  0  0  0  0  0  0  0  0  0  0
   19.0171  -18.5474  -15.9355 O   0  0  0  0  0  0  0  0  0  0  0  0
   18.7540  -17.2125  -16.2013 O   0  0  0  0  0  0  0  0  0  0  0  0
  1  2  1  0
  3  2  1  0
  3  5  1  0
  3  4  1  6
  5  6  2  0
  7  8  1  0
  8  9  2  0
  8 10  1  0
 10 11  1  0
 11 12  1  0
 12 13  1  0
 14 13  1  1
 15 14  1  0
 15  5  1  0
 16 17  2  0
 16 14  1  0
 18 19  1  0
 20 19  1  6
 20 22  1  0
 20 21  1  0
 21 16  1  0
 22 23  1  0
 24 22  2  0
M  END
$$$$
