SRS.pdb
     RDKit          3D

 24 23  0  0  1  0  0  0  0  0999 V2000
   16.3132  -20.1021  -14.4751 O   0  0  0  0  0  0  0  0  0  0  0  0
   17.4789  -19.6683  -13.8717 C   0  0  0  0  0  0  0  0  0  0  0  0
   18.3492  -20.8661  -13.4589 C   0  0  2  0  0  0  0  0  0  0  0  0
   17.8647  -21.2819  -12.1482 N   0  0  0  0  0  0  0  0  0  0  0  0
   19.7573  -20.4496  -13.4385 C   0  0  0  0  0  0  0  0  0  0  0  0
   20.1297  -19.6979  -12.5075 O   0  0  0  0  0  0  0  0  0  0  0  0
   24.6492  -24.6884  -14.2287 N   0  0  0  0  0  0  0  0  0  0  0  0
   25.7645  -23.9307  -14.7110 C   0  0  0  0  0  0  0  0  0  0  0  0
   26.4198  -24.3760  -15.7201 N   0  0  0  0  0  0  0  0  0  0  0  0
   26.1685  -22.7143  -14.1196 N   0  0  0  0  0  0  0  0  0  0  0  0
   25.3629  -22.0804  -13.0873 C   0  0  0  0  0  0  0  0  0  0  0  0
   24.4609  -21.0505  -13.6751 C   0  0  0  0  0  0  0  0  0  0  0  0
   23.0457  -21.4407  -13.7893 C   0  0  0  0  0  0  0  0  0  0  0  0
   22.0653  -20.4419  -14.2863 C   0  0  2  0  0  0  0  0  0  0  0  0
   20.7151  -20.8678  -14.4369 N   0  0  0  0  0  0  0  0  0  0  0  0
   22.5363  -20.0184  -15.6417 C   0  0  0  0  0  0  0  0  0  0  0  0
   22.4016  -20.8095  -16.5852 O   0  0  0  0  0  0  0  0  0  0  0  0
   27.2920  -24.0046  -16.1057 O   0  0  0  0  0  0  0  0  0  0  0  0
   24.3023  -16.3998  -18.3349 C   0  0  0  0  0  0  0  0  0  0  0  0
   24.0374  -16.8450  -17.0245 C   0  0  2  0  0  0  0  0  0  0  0  0
   23.5484  -18.2768  -17.1212 N   0  0  0  0  0  0  0  0  0  0  0  0
   23.1098  -18.7617  -15.8235 C   0  0  0  0  0  0  0  0  0  0  0  0
   24.6045  -19.1595  -17.6387 O   0  0  0  0  0  0  0  0  0  0  0  0
   24.7548  -19.5233  -18.9679 O   0  0  0  0  0  0  0  0  0  0  0  0
  1  2  1  0
  3  2  1  0
  3  5  1  0
  3  4  1  1
  5  6  2  0
  7  8  1  0
  8  9  2  0
  8 10  1  0
 10 11  1  0
 11 12  1  0
 12 13  1  0
 14 13  1  6
 15 14  1  0
 15  5  1  0
 16 17  2  0
 16 14  1  0
 18 19  1  0
 20 19  1  6
 20 22  1  0
 20 21  1  0
 21 16  1  0
 22 23  1  0
 24 22  2  0
M  END
$$$$
