YEH.pdb
     RDKit          3D

 32 33  0  0  1  0  0  0  0  0999 V2000
    8.6212  -11.8365   26.6947 O   0  0  0  0  0  0  0  0  0  0  0  0
    7.9724  -12.9560   26.2220 C   0  0  0  0  0  0  0  0  0  0  0  0
    7.7932  -14.0711   27.0279 C   0  0  0  0  0  0  0  0  0  0  0  0
    7.1419  -15.1850   26.5423 C   0  0  0  0  0  0  0  0  0  0  0  0
    6.6455  -15.2475   25.2577 C   0  0  0  0  0  0  0  0  0  0  0  0
    5.9642  -16.4731   24.7952 C   0  0  0  0  0  0  0  0  0  0  0  0
    6.5579  -17.0804   23.5581 C   0  0  2  0  0  0  0  0  0  0  0  0
    5.7358  -18.2595   23.2409 N   0  0  0  0  0  0  0  0  0  0  0  0
    7.9626  -17.4990   23.7977 C   0  0  0  0  0  0  0  0  0  0  0  0
    8.2427  -18.4817   24.5325 O   0  0  0  0  0  0  0  0  0  0  0  0
    6.8265  -14.1366   24.4611 C   0  0  0  0  0  0  0  0  0  0  0  0
    7.4805  -13.0058   24.9350 C   0  0  0  0  0  0  0  0  0  0  0  0
    9.0706  -16.8230   23.2192 N   0  0  0  0  0  0  0  0  0  0  0  0
   10.4299  -17.3609   23.2317 C   0  0  1  0  0  0  0  0  0  0  0  0
   11.2005  -16.8196   22.0561 C   0  0  0  0  0  0  0  0  0  0  0  0
   12.6081  -17.3213   22.0274 C   0  0  0  0  0  0  0  0  0  0  0  0
   13.4016  -16.8844   20.8726 C   0  0  0  0  0  0  0  0  0  0  0  0
   12.9924  -16.7464   19.7039 O   0  0  0  0  0  0  0  0  0  0  0  0
   11.1311  -16.9439   24.4922 C   0  0  0  0  0  0  0  0  0  0  0  0
   11.5854  -15.7872   24.5669 O   0  0  0  0  0  0  0  0  0  0  0  0
   14.7561  -16.5950   21.1136 O   0  0  0  0  0  0  0  0  0  0  0  0
   11.2879  -17.8183   25.5846 N   0  0  0  0  0  0  0  0  0  0  0  0
   12.2164  -17.4733   26.7067 C   0  0  1  0  0  0  0  0  0  0  0  0
   11.3970  -17.2306   27.9204 C   0  0  0  0  0  0  0  0  0  0  0  0
   10.8407  -15.8902   28.0936 C   0  0  0  0  0  0  0  0  0  0  0  0
   10.8789  -14.7470   27.3628 C   0  0  0  0  0  0  0  0  0  0  0  0
   10.1229  -13.8286   28.0143 N   0  0  0  0  0  0  0  0  0  0  0  0
    9.6191  -14.3737   29.1250 C   0  0  0  0  0  0  0  0  0  0  0  0
   10.0506  -15.6174   29.1748 N   0  0  0  0  0  0  0  0  0  0  0  0
   13.0094  -18.7316   26.8577 C   0  0  0  0  0  0  0  0  0  0  0  0
   14.0168  -18.8458   27.7955 O   0  0  0  0  0  0  0  0  0  0  0  0
   12.7769  -19.7094   26.1365 O   0  0  0  0  0  0  0  0  0  0  0  0
  2  1  1  0
  2  3  2  0
  4  3  1  0
  5  4  2  0
  6  5  1  0
  6  7  1  0
  7  8  1  1
  9  7  1  0
  9 10  2  0
 11 12  2  0
 11  5  1  0
 12  2  1  0
 13  9  1  0
 14 13  1  0
 14 15  1  6
 16 15  1  0
 16 17  1  0
 17 18  2  0
 19 14  1  0
 20 19  2  0
 21 17  1  0
 22 19  1  0
 23 24  1  1
 23 22  1  0
 25 24  1  0
 26 25  2  0
 27 28  1  0
 27 26  1  0
 28 29  2  0
 29 25  1  0
 30 23  1  0
 31 30  1  0
 32 30  2  0
M  END
$$$$
