YEH.pdb
     RDKit          3D

 32 33  0  0  1  0  0  0  0  0999 V2000
    7.0067  -12.6206   16.4177 O   0  0  0  0  0  0  0  0  0  0  0  0
    7.1746  -13.2387   17.6373 C   0  0  0  0  0  0  0  0  0  0  0  0
    7.7115  -12.5530   18.7174 C   0  0  0  0  0  0  0  0  0  0  0  0
    7.8741  -13.1836   19.9326 C   0  0  0  0  0  0  0  0  0  0  0  0
    7.5191  -14.5004   20.1334 C   0  0  0  0  0  0  0  0  0  0  0  0
    7.7259  -15.1205   21.4574 C   0  0  0  0  0  0  0  0  0  0  0  0
    9.1379  -15.0477   21.9599 C   0  0  2  0  0  0  0  0  0  0  0  0
    9.9950  -15.4991   20.8515 N   0  0  0  0  0  0  0  0  0  0  0  0
    9.3268  -15.9379   23.1337 C   0  0  0  0  0  0  0  0  0  0  0  0
    8.5140  -15.9453   24.0945 O   0  0  0  0  0  0  0  0  0  0  0  0
    6.9861  -15.1772   19.0565 C   0  0  0  0  0  0  0  0  0  0  0  0
    6.8155  -14.5564   17.8250 C   0  0  0  0  0  0  0  0  0  0  0  0
   10.4276  -16.8294   23.2472 N   0  0  0  0  0  0  0  0  0  0  0  0
   10.6615  -17.6639   24.4245 C   0  0  1  0  0  0  0  0  0  0  0  0
   11.9356  -18.4474   24.2459 C   0  0  0  0  0  0  0  0  0  0  0  0
   12.1742  -19.3978   25.3744 C   0  0  0  0  0  0  0  0  0  0  0  0
   13.4202  -20.1683   25.2870 C   0  0  0  0  0  0  0  0  0  0  0  0
   14.4988  -19.8961   25.8479 O   0  0  0  0  0  0  0  0  0  0  0  0
   10.8031  -16.7978   25.6428 C   0  0  0  0  0  0  0  0  0  0  0  0
   11.5716  -15.8196   25.5927 O   0  0  0  0  0  0  0  0  0  0  0  0
   13.3888  -21.3264   24.4904 O   0  0  0  0  0  0  0  0  0  0  0  0
   10.0960  -17.0592   26.8319 N   0  0  0  0  0  0  0  0  0  0  0  0
   10.2116  -16.1348   28.0035 C   0  0  1  0  0  0  0  0  0  0  0  0
    8.8587  -15.6015   28.3009 C   0  0  0  0  0  0  0  0  0  0  0  0
    8.3190  -14.6001   27.3832 C   0  0  0  0  0  0  0  0  0  0  0  0
    8.8591  -13.5777   26.6725 C   0  0  0  0  0  0  0  0  0  0  0  0
    7.8579  -13.0200   25.9472 N   0  0  0  0  0  0  0  0  0  0  0  0
    6.7166  -13.6704   26.1900 C   0  0  0  0  0  0  0  0  0  0  0  0
    6.9924  -14.6242   27.0558 N   0  0  0  0  0  0  0  0  0  0  0  0
   10.6572  -17.0587   29.0911 C   0  0  0  0  0  0  0  0  0  0  0  0
   10.9431  -16.5989   30.3615 O   0  0  0  0  0  0  0  0  0  0  0  0
   10.7805  -18.2701   28.8730 O   0  0  0  0  0  0  0  0  0  0  0  0
  2  1  1  0
  2  3  2  0
  4  3  1  0
  5  4  2  0
  6  5  1  0
  6  7  1  0
  7  8  1  6
  9  7  1  0
  9 10  2  0
 11 12  2  0
 11  5  1  0
 12  2  1  0
 13  9  1  0
 14 13  1  0
 14 15  1  6
 16 15  1  0
 16 17  1  0
 17 18  2  0
 19 14  1  0
 20 19  2  0
 21 17  1  0
 22 19  1  0
 23 24  1  1
 23 22  1  0
 25 24  1  0
 26 25  2  0
 27 28  1  0
 27 26  1  0
 28 29  2  0
 29 25  1  0
 30 23  1  0
 31 30  1  0
 32 30  2  0
M  END
$$$$
