YEH.pdb
     RDKit          3D

 32 33  0  0  1  0  0  0  0  0999 V2000
    7.0924  -11.8558   17.4764 O   0  0  0  0  0  0  0  0  0  0  0  0
    7.4005  -12.5565   18.6217 C   0  0  0  0  0  0  0  0  0  0  0  0
    6.4224  -13.2513   19.3186 C   0  0  0  0  0  0  0  0  0  0  0  0
    6.7444  -13.9486   20.4635 C   0  0  0  0  0  0  0  0  0  0  0  0
    8.0278  -13.9909   20.9650 C   0  0  0  0  0  0  0  0  0  0  0  0
    8.3063  -14.7497   22.2006 C   0  0  0  0  0  0  0  0  0  0  0  0
    8.7093  -16.1768   21.9715 C   0  0  2  0  0  0  0  0  0  0  0  0
    7.4678  -16.9177   21.6945 N   0  0  0  0  0  0  0  0  0  0  0  0
    9.3695  -16.7388   23.1775 C   0  0  0  0  0  0  0  0  0  0  0  0
    8.7047  -17.2412   24.1206 O   0  0  0  0  0  0  0  0  0  0  0  0
    8.9959  -13.2984   20.2685 C   0  0  0  0  0  0  0  0  0  0  0  0
    8.6883  -12.5907   19.1129 C   0  0  0  0  0  0  0  0  0  0  0  0
   10.7808  -16.7446   23.3431 N   0  0  0  0  0  0  0  0  0  0  0  0
   11.4438  -17.2853   24.5285 C   0  0  1  0  0  0  0  0  0  0  0  0
   12.9362  -17.2733   24.3249 C   0  0  0  0  0  0  0  0  0  0  0  0
   13.6660  -17.8808   25.4792 C   0  0  0  0  0  0  0  0  0  0  0  0
   15.1234  -17.9568   25.3241 C   0  0  0  0  0  0  0  0  0  0  0  0
   15.8201  -17.2815   24.5426 O   0  0  0  0  0  0  0  0  0  0  0  0
   11.1205  -16.4369   25.7245 C   0  0  0  0  0  0  0  0  0  0  0  0
   10.9976  -15.2080   25.5678 O   0  0  0  0  0  0  0  0  0  0  0  0
   15.7950  -18.8846   26.1395 O   0  0  0  0  0  0  0  0  0  0  0  0
   10.9535  -16.9886   27.0091 N   0  0  0  0  0  0  0  0  0  0  0  0
   10.1537  -16.2665   28.0479 C   0  0  1  0  0  0  0  0  0  0  0  0
    8.7469  -16.2018   27.5791 C   0  0  0  0  0  0  0  0  0  0  0  0
    8.2824  -14.9275   27.0344 C   0  0  0  0  0  0  0  0  0  0  0  0
    8.8589  -13.7143   26.8391 C   0  0  0  0  0  0  0  0  0  0  0  0
    7.9347  -12.9223   26.2408 N   0  0  0  0  0  0  0  0  0  0  0  0
    6.8056  -13.6132   26.0610 C   0  0  0  0  0  0  0  0  0  0  0  0
    7.0131  -14.8232   26.5387 N   0  0  0  0  0  0  0  0  0  0  0  0
   10.2680  -17.1807   29.2253 C   0  0  0  0  0  0  0  0  0  0  0  0
   10.2027  -16.7065   30.5207 O   0  0  0  0  0  0  0  0  0  0  0  0
   10.4255  -18.3967   29.0618 O   0  0  0  0  0  0  0  0  0  0  0  0
  2  1  1  0
  2  3  2  0
  4  3  1  0
  5  4  2  0
  6  5  1  0
  6  7  1  0
  7  8  1  1
  9  7  1  0
  9 10  2  0
 11 12  2  0
 11  5  1  0
 12  2  1  0
 13  9  1  0
 14 13  1  0
 14 15  1  6
 16 15  1  0
 16 17  1  0
 17 18  2  0
 19 14  1  0
 20 19  2  0
 21 17  1  0
 22 19  1  0
 23 24  1  6
 23 22  1  0
 25 24  1  0
 26 25  2  0
 27 28  1  0
 27 26  1  0
 28 29  2  0
 29 25  1  0
 30 23  1  0
 31 30  1  0
 32 30  2  0
M  END
$$$$
