YEH.pdb
     RDKit          3D

 32 33  0  0  1  0  0  0  0  0999 V2000
    8.9545  -12.4580   17.2164 O   0  0  0  0  0  0  0  0  0  0  0  0
    8.4997  -13.1411   18.3228 C   0  0  0  0  0  0  0  0  0  0  0  0
    8.9619  -14.4164   18.6145 C   0  0  0  0  0  0  0  0  0  0  0  0
    8.4983  -15.0890   19.7251 C   0  0  0  0  0  0  0  0  0  0  0  0
    7.5710  -14.5410   20.5854 C   0  0  0  0  0  0  0  0  0  0  0  0
    7.1087  -15.3163   21.7539 C   0  0  0  0  0  0  0  0  0  0  0  0
    7.2808  -16.8007   21.6176 C   0  0  2  0  0  0  0  0  0  0  0  0
    5.9739  -17.3993   21.9343 N   0  0  0  0  0  0  0  0  0  0  0  0
    8.3053  -17.3026   22.5686 C   0  0  0  0  0  0  0  0  0  0  0  0
    7.9963  -17.7058   23.7201 O   0  0  0  0  0  0  0  0  0  0  0  0
    7.1149  -13.2734   20.2906 C   0  0  0  0  0  0  0  0  0  0  0  0
    7.5719  -12.5817   19.1754 C   0  0  0  0  0  0  0  0  0  0  0  0
    9.6875  -17.3587   22.2434 N   0  0  0  0  0  0  0  0  0  0  0  0
   10.7075  -17.8436   23.1715 C   0  0  1  0  0  0  0  0  0  0  0  0
   12.0775  -17.5613   22.6125 C   0  0  0  0  0  0  0  0  0  0  0  0
   13.1636  -18.0937   23.4904 C   0  0  0  0  0  0  0  0  0  0  0  0
   14.5052  -18.0864   22.8953 C   0  0  0  0  0  0  0  0  0  0  0  0
   15.2571  -17.0999   22.7788 O   0  0  0  0  0  0  0  0  0  0  0  0
   10.5762  -17.1345   24.4885 C   0  0  0  0  0  0  0  0  0  0  0  0
   10.7681  -15.9050   24.5252 O   0  0  0  0  0  0  0  0  0  0  0  0
   14.9844  -19.3158   22.4098 O   0  0  0  0  0  0  0  0  0  0  0  0
   10.2444  -17.8165   25.6748 N   0  0  0  0  0  0  0  0  0  0  0  0
   10.0966  -17.0705   26.9640 C   0  0  1  0  0  0  0  0  0  0  0  0
    8.6699  -16.6879   27.1102 C   0  0  0  0  0  0  0  0  0  0  0  0
    8.2336  -15.4665   26.4365 C   0  0  0  0  0  0  0  0  0  0  0  0
    8.8599  -14.5194   25.6928 C   0  0  0  0  0  0  0  0  0  0  0  0
    7.9134  -13.6369   25.2868 N   0  0  0  0  0  0  0  0  0  0  0  0
    6.7216  -14.0140   25.7581 C   0  0  0  0  0  0  0  0  0  0  0  0
    6.9123  -15.1176   26.4518 N   0  0  0  0  0  0  0  0  0  0  0  0
   10.4622  -18.1107   27.9736 C   0  0  0  0  0  0  0  0  0  0  0  0
   10.5758  -17.8096   29.3166 O   0  0  0  0  0  0  0  0  0  0  0  0
   10.6734  -19.2780   27.6227 O   0  0  0  0  0  0  0  0  0  0  0  0
  2  1  1  0
  2  3  2  0
  4  3  1  0
  5  4  2  0
  6  5  1  0
  6  7  1  0
  7  8  1  1
  9  7  1  0
  9 10  2  0
 11 12  2  0
 11  5  1  0
 12  2  1  0
 13  9  1  0
 14 13  1  0
 14 15  1  6
 16 15  1  0
 16 17  1  0
 17 18  2  0
 19 14  1  0
 20 19  2  0
 21 17  1  0
 22 19  1  0
 23 24  1  1
 23 22  1  0
 25 24  1  0
 26 25  2  0
 27 28  1  0
 27 26  1  0
 28 29  2  0
 29 25  1  0
 30 23  1  0
 31 30  1  0
 32 30  2  0
M  END
$$$$
