YEH.pdb
     RDKit          3D

 32 33  0  0  1  0  0  0  0  0999 V2000
    7.6950  -11.9756   17.2998 O   0  0  0  0  0  0  0  0  0  0  0  0
    7.8172  -12.7173   18.4541 C   0  0  0  0  0  0  0  0  0  0  0  0
    9.0478  -13.2181   18.8541 C   0  0  0  0  0  0  0  0  0  0  0  0
    9.1561  -13.9590   20.0118 C   0  0  0  0  0  0  0  0  0  0  0  0
    8.0703  -14.2350   20.8151 C   0  0  0  0  0  0  0  0  0  0  0  0
    8.2513  -15.0412   22.0388 C   0  0  0  0  0  0  0  0  0  0  0  0
    9.6830  -15.2403   22.4413 C   0  0  2  0  0  0  0  0  0  0  0  0
   10.3649  -15.8176   21.2714 N   0  0  0  0  0  0  0  0  0  0  0  0
    9.7828  -16.1752   23.5911 C   0  0  0  0  0  0  0  0  0  0  0  0
    9.0376  -16.0640   24.5991 O   0  0  0  0  0  0  0  0  0  0  0  0
    6.8498  -13.7350   20.4127 C   0  0  0  0  0  0  0  0  0  0  0  0
    6.7233  -12.9864   19.2488 C   0  0  0  0  0  0  0  0  0  0  0  0
   10.7179  -17.2446   23.6273 N   0  0  0  0  0  0  0  0  0  0  0  0
   10.8166  -18.1818   24.7449 C   0  0  1  0  0  0  0  0  0  0  0  0
   11.8802  -19.2080   24.4540 C   0  0  0  0  0  0  0  0  0  0  0  0
   11.5801  -19.9941   23.2187 C   0  0  0  0  0  0  0  0  0  0  0  0
   12.6364  -20.9228   22.7995 C   0  0  0  0  0  0  0  0  0  0  0  0
   13.3719  -20.8041   21.8009 O   0  0  0  0  0  0  0  0  0  0  0  0
   11.1976  -17.4441   25.9960 C   0  0  0  0  0  0  0  0  0  0  0  0
   12.1709  -16.6689   25.9579 O   0  0  0  0  0  0  0  0  0  0  0  0
   12.8337  -22.0566   23.6071 O   0  0  0  0  0  0  0  0  0  0  0  0
   10.4897  -17.6037   27.2026 N   0  0  0  0  0  0  0  0  0  0  0  0
   10.9313  -16.8909   28.4425 C   0  0  1  0  0  0  0  0  0  0  0  0
    9.8624  -15.9350   28.8260 C   0  0  0  0  0  0  0  0  0  0  0  0
    9.6442  -14.7888   27.9458 C   0  0  0  0  0  0  0  0  0  0  0  0
   10.2516  -14.3273   26.8231 C   0  0  0  0  0  0  0  0  0  0  0  0
    9.5640  -13.2314   26.4162 N   0  0  0  0  0  0  0  0  0  0  0  0
    8.5495  -13.0052   27.2554 C   0  0  0  0  0  0  0  0  0  0  0  0
    8.5958  -13.9437   28.1788 N   0  0  0  0  0  0  0  0  0  0  0  0
   11.0125  -18.0059   29.4350 C   0  0  0  0  0  0  0  0  0  0  0  0
   10.7350  -19.3121   29.0827 O   0  0  0  0  0  0  0  0  0  0  0  0
   11.3342  -17.7790   30.6077 O   0  0  0  0  0  0  0  0  0  0  0  0
  2  1  1  0
  2  3  2  0
  4  3  1  0
  5  4  2  0
  6  5  1  0
  6  7  1  0
  7  8  1  6
  9  7  1  0
  9 10  2  0
 11 12  2  0
 11  5  1  0
 12  2  1  0
 13  9  1  0
 14 13  1  0
 14 15  1  6
 16 15  1  0
 16 17  1  0
 17 18  2  0
 19 14  1  0
 20 19  2  0
 21 17  1  0
 22 19  1  0
 23 24  1  1
 23 22  1  0
 25 24  1  0
 26 25  2  0
 27 28  1  0
 27 26  1  0
 28 29  2  0
 29 25  1  0
 30 23  1  0
 31 30  1  0
 32 30  2  0
M  END
$$$$
