YTA.pdb
     RDKit          3D

 25 25  0  0  1  0  0  0  0  0999 V2000
   20.8550  -22.4291   -7.1840 O   0  0  0  0  0  0  0  0  0  0  0  0
   21.8883  -21.8514   -7.9313 C   0  0  0  0  0  0  0  0  0  0  0  0
   21.7173  -21.6234   -9.2812 C   0  0  0  0  0  0  0  0  0  0  0  0
   22.7393  -21.0528  -10.0167 C   0  0  0  0  0  0  0  0  0  0  0  0
   23.9512  -20.6909   -9.4549 C   0  0  0  0  0  0  0  0  0  0  0  0
   25.0045  -20.0867  -10.2797 C   0  0  0  0  0  0  0  0  0  0  0  0
   25.5964  -21.0203  -11.3030 C   0  0  2  0  0  0  0  0  0  0  0  0
   26.3887  -22.0618  -10.7257 N   0  0  0  0  0  0  0  0  0  0  0  0
   26.3257  -20.1937  -12.2857 C   0  0  0  0  0  0  0  0  0  0  0  0
   27.3432  -19.5722  -11.8854 O   0  0  0  0  0  0  0  0  0  0  0  0
   24.1148  -20.9217   -8.1053 C   0  0  0  0  0  0  0  0  0  0  0  0
   23.0943  -21.4912   -7.3725 C   0  0  0  0  0  0  0  0  0  0  0  0
   28.4008  -21.1828  -14.7449 C   0  0  0  0  0  0  0  0  0  0  0  0
   27.5301  -20.2194  -15.5203 C   0  0  1  0  0  0  0  0  0  0  0  0
   26.5619  -20.9005  -16.2556 O   0  0  0  0  0  0  0  0  0  0  0  0
   26.7914  -19.3041  -14.5394 C   0  0  2  0  0  0  0  0  0  0  0  0
   25.9585  -20.0523  -13.6501 N   0  0  0  0  0  0  0  0  0  0  0  0
   26.0405  -18.2439  -15.2688 C   0  0  0  0  0  0  0  0  0  0  0  0
   24.8174  -18.4012  -15.5141 O   0  0  0  0  0  0  0  0  0  0  0  0
   26.8440  -14.8513  -16.6595 C   0  0  0  0  0  0  0  0  0  0  0  0
   25.9255  -16.0756  -16.5460 C   0  0  2  0  0  0  0  0  0  0  0  0
   26.6374  -17.0330  -15.7158 N   0  0  0  0  0  0  0  0  0  0  0  0
   25.5616  -16.6033  -17.8596 C   0  0  0  0  0  0  0  0  0  0  0  0
   24.5048  -16.1564  -18.6377 O   0  0  0  0  0  0  0  0  0  0  0  0
   26.2582  -17.5385  -18.3291 O   0  0  0  0  0  0  0  0  0  0  0  0
  2  1  1  0
  3  2  2  0
  4  3  1  0
  5 11  1  0
  5  4  2  0
  6  5  1  0
  7  6  1  0
  7  8  1  1
  9  7  1  0
  9 10  2  0
 11 12  2  0
 12  2  1  0
 14 13  1  1
 14 15  1  0
 16 17  1  6
 16 14  1  0
 17  9  1  0
 18 16  1  0
 19 18  2  0
 21 20  1  6
 21 22  1  0
 22 18  1  0
 23 24  1  0
 23 21  1  0
 25 23  2  0
M  END
$$$$
