YTA.pdb
     RDKit          3D

 25 25  0  0  1  0  0  0  0  0999 V2000
   23.9889  -13.2760  -23.1167 O   0  0  0  0  0  0  0  0  0  0  0  0
   23.3378  -12.3827  -22.2576 C   0  0  0  0  0  0  0  0  0  0  0  0
   23.9529  -11.9776  -21.0909 C   0  0  0  0  0  0  0  0  0  0  0  0
   23.3077  -11.0954  -20.2444 C   0  0  0  0  0  0  0  0  0  0  0  0
   22.0490  -10.5873  -20.5143 C   0  0  0  0  0  0  0  0  0  0  0  0
   21.4073   -9.6516  -19.5828 C   0  0  0  0  0  0  0  0  0  0  0  0
   20.6660  -10.3185  -18.4537 C   0  0  2  0  0  0  0  0  0  0  0  0
   19.5563  -11.1061  -18.8941 N   0  0  0  0  0  0  0  0  0  0  0  0
   20.3009   -9.2672  -17.4830 C   0  0  0  0  0  0  0  0  0  0  0  0
   19.1116   -8.8579  -17.4852 O   0  0  0  0  0  0  0  0  0  0  0  0
   21.4406  -10.9965  -21.6822 C   0  0  0  0  0  0  0  0  0  0  0  0
   22.0854  -11.8768  -22.5259 C   0  0  0  0  0  0  0  0  0  0  0  0
   20.5694   -7.1754  -13.1646 C   0  0  0  0  0  0  0  0  0  0  0  0
   21.0388   -8.2231  -14.1490 C   0  0  1  0  0  0  0  0  0  0  0  0
   20.3760   -9.4322  -13.9471 O   0  0  0  0  0  0  0  0  0  0  0  0
   20.7127   -7.7615  -15.5724 C   0  0  2  0  0  0  0  0  0  0  0  0
   21.1984   -8.6870  -16.5480 N   0  0  0  0  0  0  0  0  0  0  0  0
   21.2069   -6.3752  -15.8048 C   0  0  0  0  0  0  0  0  0  0  0  0
   22.4411   -6.1623  -15.9148 O   0  0  0  0  0  0  0  0  0  0  0  0
   19.6130   -3.0103  -16.2957 C   0  0  0  0  0  0  0  0  0  0  0  0
   20.8506   -3.9024  -16.1278 C   0  0  2  0  0  0  0  0  0  0  0  0
   20.3459   -5.2485  -15.9133 N   0  0  0  0  0  0  0  0  0  0  0  0
   21.7177   -3.4286  -15.0508 C   0  0  0  0  0  0  0  0  0  0  0  0
   22.8309   -2.6188  -15.2161 O   0  0  0  0  0  0  0  0  0  0  0  0
   21.4386   -3.7792  -13.8763 O   0  0  0  0  0  0  0  0  0  0  0  0
  2  1  1  0
  3  2  2  0
  4  3  1  0
  5 11  1  0
  5  4  2  0
  6  5  1  0
  7  6  1  0
  7  8  1  6
  9  7  1  0
  9 10  2  0
 11 12  2  0
 12  2  1  0
 14 13  1  1
 14 15  1  0
 16 17  1  6
 16 14  1  0
 17  9  1  0
 18 16  1  0
 19 18  2  0
 21 20  1  1
 21 22  1  0
 22 18  1  0
 23 24  1  0
 23 21  1  0
 25 23  2  0
M  END
$$$$
