YTA.pdb
     RDKit          3D

 25 25  0  0  1  0  0  0  0  0999 V2000
   20.5132  -18.4053  -14.7843 O   0  0  0  0  0  0  0  0  0  0  0  0
   20.8602  -17.0867  -15.1019 C   0  0  0  0  0  0  0  0  0  0  0  0
   19.8726  -16.1463  -15.3117 C   0  0  0  0  0  0  0  0  0  0  0  0
   20.2182  -14.8451  -15.6252 C   0  0  0  0  0  0  0  0  0  0  0  0
   21.5331  -14.4293  -15.7416 C   0  0  0  0  0  0  0  0  0  0  0  0
   21.8472  -13.0348  -16.0755 C   0  0  0  0  0  0  0  0  0  0  0  0
   21.4739  -12.6391  -17.4801 C   0  0  2  0  0  0  0  0  0  0  0  0
   22.1479  -13.4069  -18.4811 N   0  0  0  0  0  0  0  0  0  0  0  0
   21.6904  -11.1834  -17.6015 C   0  0  0  0  0  0  0  0  0  0  0  0
   22.8115  -10.7923  -18.0162 O   0  0  0  0  0  0  0  0  0  0  0  0
   22.5146  -15.3746  -15.5305 C   0  0  0  0  0  0  0  0  0  0  0  0
   22.1685  -16.6727  -15.2177 C   0  0  0  0  0  0  0  0  0  0  0  0
   20.3015   -8.8010  -19.8584 C   0  0  0  0  0  0  0  0  0  0  0  0
   20.0725   -8.1732  -18.5017 C   0  0  1  0  0  0  0  0  0  0  0  0
   18.7730   -8.4058  -18.0555 O   0  0  0  0  0  0  0  0  0  0  0  0
   21.0210   -8.8116  -17.4827 C   0  0  2  0  0  0  0  0  0  0  0  0
   20.7215  -10.1954  -17.2829 N   0  0  0  0  0  0  0  0  0  0  0  0
   21.0262   -8.0389  -16.2088 C   0  0  0  0  0  0  0  0  0  0  0  0
   20.2749   -8.3884  -15.2632 O   0  0  0  0  0  0  0  0  0  0  0  0
   22.8588   -5.0304  -14.9052 C   0  0  0  0  0  0  0  0  0  0  0  0
   21.7596   -6.0947  -14.7846 C   0  0  2  0  0  0  0  0  0  0  0  0
   21.8507   -6.9009  -15.9906 N   0  0  0  0  0  0  0  0  0  0  0  0
   20.4425   -5.4930  -14.5861 C   0  0  0  0  0  0  0  0  0  0  0  0
   19.8780   -5.1881  -13.3571 O   0  0  0  0  0  0  0  0  0  0  0  0
   19.7595   -5.2273  -15.6075 O   0  0  0  0  0  0  0  0  0  0  0  0
  2  1  1  0
  3  2  2  0
  4  3  1  0
  5 11  1  0
  5  4  2  0
  6  5  1  0
  7  6  1  0
  7  8  1  6
  9  7  1  0
  9 10  2  0
 11 12  2  0
 12  2  1  0
 14 13  1  6
 14 15  1  0
 16 17  1  1
 16 14  1  0
 17  9  1  0
 18 16  1  0
 19 18  2  0
 21 20  1  6
 21 22  1  0
 22 18  1  0
 23 24  1  0
 23 21  1  0
 25 23  2  0
M  END
$$$$
