YTA.pdb
     RDKit          3D

 25 25  0  0  1  0  0  0  0  0999 V2000
   21.0907  -13.5137  -19.1963 O   0  0  0  0  0  0  0  0  0  0  0  0
   20.3245  -12.3584  -19.0006 C   0  0  0  0  0  0  0  0  0  0  0  0
   20.9478  -11.1529  -18.7518 C   0  0  0  0  0  0  0  0  0  0  0  0
   20.1887  -10.0138  -18.5589 C   0  0  0  0  0  0  0  0  0  0  0  0
   18.8055  -10.0220  -18.6039 C   0  0  0  0  0  0  0  0  0  0  0  0
   18.0454   -8.7839  -18.3937 C   0  0  0  0  0  0  0  0  0  0  0  0
   17.2278   -8.7710  -17.1286 C   0  0  2  0  0  0  0  0  0  0  0  0
   16.2416   -9.8060  -17.0832 N   0  0  0  0  0  0  0  0  0  0  0  0
   16.6706   -7.4119  -16.9764 C   0  0  0  0  0  0  0  0  0  0  0  0
   15.6912   -7.0978  -17.7002 O   0  0  0  0  0  0  0  0  0  0  0  0
   18.1896  -11.2303  -18.8532 C   0  0  0  0  0  0  0  0  0  0  0  0
   18.9481  -12.3663  -19.0454 C   0  0  0  0  0  0  0  0  0  0  0  0
   14.5937   -6.0557  -14.6501 C   0  0  0  0  0  0  0  0  0  0  0  0
   15.7277   -5.0551  -14.6461 C   0  0  1  0  0  0  0  0  0  0  0  0
   16.6234   -5.3179  -13.6114 O   0  0  0  0  0  0  0  0  0  0  0  0
   16.5079   -5.1701  -15.9589 C   0  0  2  0  0  0  0  0  0  0  0  0
   17.1633   -6.4360  -16.0701 N   0  0  0  0  0  0  0  0  0  0  0  0
   17.4477   -4.0248  -16.1175 C   0  0  0  0  0  0  0  0  0  0  0  0
   18.5848   -4.0713  -15.5832 O   0  0  0  0  0  0  0  0  0  0  0  0
   17.3652   -0.7152  -17.8915 C   0  0  0  0  0  0  0  0  0  0  0  0
   18.0359   -1.7189  -16.9438 C   0  0  2  0  0  0  0  0  0  0  0  0
   17.1296   -2.8517  -16.8559 N   0  0  0  0  0  0  0  0  0  0  0  0
   18.3422   -1.1180  -15.6471 C   0  0  0  0  0  0  0  0  0  0  0  0
   19.5153   -0.4505  -15.3305 O   0  0  0  0  0  0  0  0  0  0  0  0
   17.4770   -1.2095  -14.7396 O   0  0  0  0  0  0  0  0  0  0  0  0
  2  1  1  0
  3  2  2  0
  4  3  1  0
  5 11  1  0
  5  4  2  0
  6  5  1  0
  7  6  1  0
  7  8  1  6
  9  7  1  0
  9 10  2  0
 11 12  2  0
 12  2  1  0
 14 13  1  6
 14 15  1  0
 16 17  1  1
 16 14  1  0
 17  9  1  0
 18 16  1  0
 19 18  2  0
 21 20  1  6
 21 22  1  0
 22 18  1  0
 23 24  1  0
 23 21  1  0
 25 23  2  0
M  END
$$$$
