YTA.pdb
     RDKit          3D

 25 25  0  0  1  0  0  0  0  0999 V2000
   28.8951  -19.4673   -3.4541 O   0  0  0  0  0  0  0  0  0  0  0  0
   28.5375  -19.6919   -4.7889 C   0  0  0  0  0  0  0  0  0  0  0  0
   29.2520  -20.5935   -5.5506 C   0  0  0  0  0  0  0  0  0  0  0  0
   28.8966  -20.8134   -6.8684 C   0  0  0  0  0  0  0  0  0  0  0  0
   27.8375  -20.1607   -7.4747 C   0  0  0  0  0  0  0  0  0  0  0  0
   27.5000  -20.4310   -8.8776 C   0  0  0  0  0  0  0  0  0  0  0  0
   26.0306  -20.3189   -9.1896 C   0  0  2  0  0  0  0  0  0  0  0  0
   25.2465  -21.3573   -8.5956 N   0  0  0  0  0  0  0  0  0  0  0  0
   25.8955  -20.2380  -10.6579 C   0  0  0  0  0  0  0  0  0  0  0  0
   26.6336  -19.4228  -11.2682 O   0  0  0  0  0  0  0  0  0  0  0  0
   27.1280  -19.2613   -6.7072 C   0  0  0  0  0  0  0  0  0  0  0  0
   27.4836  -19.0428   -5.3924 C   0  0  0  0  0  0  0  0  0  0  0  0
   26.7194  -22.2094  -13.4647 C   0  0  0  0  0  0  0  0  0  0  0  0
   25.2479  -21.9362  -13.6826 C   0  0  1  0  0  0  0  0  0  0  0  0
   24.4730  -23.0252  -13.2880 O   0  0  0  0  0  0  0  0  0  0  0  0
   24.8224  -20.7434  -12.8214 C   0  0  2  0  0  0  0  0  0  0  0  0
   24.9911  -21.0162  -11.4280 N   0  0  0  0  0  0  0  0  0  0  0  0
   23.4341  -20.3184  -13.1560 C   0  0  0  0  0  0  0  0  0  0  0  0
   22.4855  -20.6235  -12.3893 O   0  0  0  0  0  0  0  0  0  0  0  0
   21.8353  -18.3219  -15.9071 C   0  0  0  0  0  0  0  0  0  0  0  0
   21.7472  -19.1539  -14.6203 C   0  0  2  0  0  0  0  0  0  0  0  0
   23.1074  -19.5685  -14.3194 N   0  0  0  0  0  0  0  0  0  0  0  0
   20.8166  -20.2722  -14.7610 C   0  0  0  0  0  0  0  0  0  0  0  0
   19.4714  -20.2418  -14.4271 O   0  0  0  0  0  0  0  0  0  0  0  0
   21.2643  -21.3530  -15.2213 O   0  0  0  0  0  0  0  0  0  0  0  0
  2  1  1  0
  3  2  2  0
  4  3  1  0
  5 11  1  0
  5  4  2  0
  6  5  1  0
  7  6  1  0
  7  8  1  6
  9  7  1  0
  9 10  2  0
 11 12  2  0
 12  2  1  0
 14 13  1  1
 14 15  1  0
 16 17  1  1
 16 14  1  0
 17  9  1  0
 18 16  1  0
 19 18  2  0
 21 20  1  6
 21 22  1  0
 22 18  1  0
 23 24  1  0
 23 21  1  0
 25 23  2  0
M  END
$$$$
