YTA.pdb
     RDKit          3D

 25 25  0  0  1  0  0  0  0  0999 V2000
   17.5389  -15.7788  -16.6823 O   0  0  0  0  0  0  0  0  0  0  0  0
   18.2183  -14.5650  -16.5247 C   0  0  0  0  0  0  0  0  0  0  0  0
   18.0006  -13.5336  -17.4149 C   0  0  0  0  0  0  0  0  0  0  0  0
   18.6729  -12.3360  -17.2569 C   0  0  0  0  0  0  0  0  0  0  0  0
   19.5724  -12.1150  -16.2285 C   0  0  0  0  0  0  0  0  0  0  0  0
   20.2597  -10.8239  -16.1040 C   0  0  0  0  0  0  0  0  0  0  0  0
   21.3307  -10.5946  -17.1381 C   0  0  2  0  0  0  0  0  0  0  0  0
   22.4212  -11.5145  -17.0352 N   0  0  0  0  0  0  0  0  0  0  0  0
   21.7374   -9.1779  -17.0465 C   0  0  0  0  0  0  0  0  0  0  0  0
   22.8129   -8.9165  -16.4491 O   0  0  0  0  0  0  0  0  0  0  0  0
   19.7846  -13.1502  -15.3427 C   0  0  0  0  0  0  0  0  0  0  0  0
   19.1132  -14.3447  -15.5015 C   0  0  0  0  0  0  0  0  0  0  0  0
   21.7251   -4.5200  -18.5081 C   0  0  0  0  0  0  0  0  0  0  0  0
   21.2192   -5.9301  -18.7156 C   0  0  1  0  0  0  0  0  0  0  0  0
   21.8860   -6.5509  -19.7702 O   0  0  0  0  0  0  0  0  0  0  0  0
   21.4966   -6.7569  -17.4567 C   0  0  2  0  0  0  0  0  0  0  0  0
   20.9992   -8.0913  -17.5857 N   0  0  0  0  0  0  0  0  0  0  0  0
   20.9720   -6.0668  -16.2448 C   0  0  0  0  0  0  0  0  0  0  0  0
   19.7308   -5.9621  -16.0738 O   0  0  0  0  0  0  0  0  0  0  0  0
   22.4798   -4.5102  -13.1802 C   0  0  0  0  0  0  0  0  0  0  0  0
   21.2784   -4.7955  -14.0917 C   0  0  2  0  0  0  0  0  0  0  0  0
   21.8108   -5.5053  -15.2430 N   0  0  0  0  0  0  0  0  0  0  0  0
   20.5631   -3.5706  -14.4442 C   0  0  0  0  0  0  0  0  0  0  0  0
   19.4825   -3.0465  -13.7516 O   0  0  0  0  0  0  0  0  0  0  0  0
   20.9529   -2.9347  -15.4562 O   0  0  0  0  0  0  0  0  0  0  0  0
  2  1  1  0
  3  2  2  0
  4  3  1  0
  5 11  1  0
  5  4  2  0
  6  5  1  0
  7  6  1  0
  7  8  1  1
  9  7  1  0
  9 10  2  0
 11 12  2  0
 12  2  1  0
 14 13  1  1
 14 15  1  0
 16 17  1  6
 16 14  1  0
 17  9  1  0
 18 16  1  0
 19 18  2  0
 21 20  1  1
 21 22  1  0
 22 18  1  0
 23 24  1  0
 23 21  1  0
 25 23  2  0
M  END
$$$$
