YTA.pdb
     RDKit          3D

 25 25  0  0  1  0  0  0  0  0999 V2000
   19.9780  -19.0398  -13.8382 O   0  0  0  0  0  0  0  0  0  0  0  0
   20.2839  -17.7517  -14.2933 C   0  0  0  0  0  0  0  0  0  0  0  0
   19.3501  -16.7422  -14.1816 C   0  0  0  0  0  0  0  0  0  0  0  0
   19.6548  -15.4712  -14.6318 C   0  0  0  0  0  0  0  0  0  0  0  0
   20.8757  -15.1537  -15.2010 C   0  0  0  0  0  0  0  0  0  0  0  0
   21.1504  -13.7874  -15.6623 C   0  0  0  0  0  0  0  0  0  0  0  0
   20.5507  -13.4588  -17.0044 C   0  0  2  0  0  0  0  0  0  0  0  0
   21.0071  -14.3185  -18.0525 N   0  0  0  0  0  0  0  0  0  0  0  0
   20.7989  -12.0258  -17.2605 C   0  0  0  0  0  0  0  0  0  0  0  0
   21.8838  -11.7107  -17.8132 O   0  0  0  0  0  0  0  0  0  0  0  0
   21.8041  -16.1676  -15.3091 C   0  0  0  0  0  0  0  0  0  0  0  0
   21.4988  -17.4354  -14.8595 C   0  0  0  0  0  0  0  0  0  0  0  0
   19.2432   -9.9540  -19.6328 C   0  0  0  0  0  0  0  0  0  0  0  0
   19.1255   -9.1496  -18.3576 C   0  0  1  0  0  0  0  0  0  0  0  0
   17.8741   -9.3239  -17.7696 O   0  0  0  0  0  0  0  0  0  0  0  0
   20.1698   -9.6418  -17.3512 C   0  0  2  0  0  0  0  0  0  0  0  0
   19.8985  -10.9798  -16.9263 N   0  0  0  0  0  0  0  0  0  0  0  0
   20.2909   -8.6934  -16.2085 C   0  0  0  0  0  0  0  0  0  0  0  0
   19.6426   -8.9025  -15.1518 O   0  0  0  0  0  0  0  0  0  0  0  0
   22.2473   -5.5635  -15.5163 C   0  0  0  0  0  0  0  0  0  0  0  0
   21.1658   -6.5859  -15.1413 C   0  0  2  0  0  0  0  0  0  0  0  0
   21.1169   -7.5361  -16.2400 N   0  0  0  0  0  0  0  0  0  0  0  0
   19.8816   -5.9419  -14.8725 C   0  0  0  0  0  0  0  0  0  0  0  0
   19.4532   -5.4958  -13.6317 O   0  0  0  0  0  0  0  0  0  0  0  0
   19.0956   -5.7753  -15.8394 O   0  0  0  0  0  0  0  0  0  0  0  0
  2  1  1  0
  3  2  2  0
  4  3  1  0
  5 11  1  0
  5  4  2  0
  6  5  1  0
  7  6  1  0
  7  8  1  6
  9  7  1  0
  9 10  2  0
 11 12  2  0
 12  2  1  0
 14 13  1  6
 14 15  1  0
 16 17  1  1
 16 14  1  0
 17  9  1  0
 18 16  1  0
 19 18  2  0
 21 20  1  6
 21 22  1  0
 22 18  1  0
 23 24  1  0
 23 21  1  0
 25 23  2  0
M  END
$$$$
