YTA.pdb
     RDKit          3D

 25 25  0  0  1  0  0  0  0  0999 V2000
   38.5106  -36.0783   -9.7249 O   0  0  0  0  0  0  0  0  0  0  0  0
   37.8171  -35.2240  -10.5905 C   0  0  0  0  0  0  0  0  0  0  0  0
   37.8759  -35.4293  -11.9536 C   0  0  0  0  0  0  0  0  0  0  0  0
   37.1902  -34.5843  -12.8060 C   0  0  0  0  0  0  0  0  0  0  0  0
   36.4314  -33.5200  -12.3511 C   0  0  0  0  0  0  0  0  0  0  0  0
   35.7207  -32.6524  -13.2982 C   0  0  0  0  0  0  0  0  0  0  0  0
   36.6158  -31.7126  -14.0628 C   0  0  2  0  0  0  0  0  0  0  0  0
   37.1474  -30.6577  -13.2562 N   0  0  0  0  0  0  0  0  0  0  0  0
   35.8576  -31.2381  -15.2378 C   0  0  0  0  0  0  0  0  0  0  0  0
   35.5229  -30.0261  -15.2664 O   0  0  0  0  0  0  0  0  0  0  0  0
   36.3773  -33.3211  -10.9876 C   0  0  0  0  0  0  0  0  0  0  0  0
   37.0620  -34.1650  -10.1381 C   0  0  0  0  0  0  0  0  0  0  0  0
   35.3427  -29.9163  -19.4244 C   0  0  0  0  0  0  0  0  0  0  0  0
   35.9154  -30.4409  -18.1266 C   0  0  1  0  0  0  0  0  0  0  0  0
   36.0716  -29.4143  -17.1973 O   0  0  0  0  0  0  0  0  0  0  0  0
   34.9430  -31.4561  -17.5189 C   0  0  2  0  0  0  0  0  0  0  0  0
   35.4807  -32.0545  -16.3369 N   0  0  0  0  0  0  0  0  0  0  0  0
   34.5311  -32.4665  -18.5336 C   0  0  0  0  0  0  0  0  0  0  0  0
   35.3958  -33.2133  -19.0582 O   0  0  0  0  0  0  0  0  0  0  0  0
   31.2867  -33.4952  -20.1242 C   0  0  0  0  0  0  0  0  0  0  0  0
   32.8059  -33.6306  -19.9529 C   0  0  2  0  0  0  0  0  0  0  0  0
   33.1846  -32.6432  -18.9558 N   0  0  0  0  0  0  0  0  0  0  0  0
   33.5105  -33.4727  -21.2237 C   0  0  0  0  0  0  0  0  0  0  0  0
   33.9545  -32.2692  -21.7494 O   0  0  0  0  0  0  0  0  0  0  0  0
   33.7361  -34.5073  -21.9014 O   0  0  0  0  0  0  0  0  0  0  0  0
  2  1  1  0
  3  2  2  0
  4  3  1  0
  5 11  1  0
  5  4  2  0
  6  5  1  0
  7  6  1  0
  7  8  1  1
  9  7  1  0
  9 10  2  0
 11 12  2  0
 12  2  1  0
 14 13  1  6
 14 15  1  0
 16 17  1  1
 16 14  1  0
 17  9  1  0
 18 16  1  0
 19 18  2  0
 21 20  1  6
 21 22  1  0
 22 18  1  0
 23 24  1  0
 23 21  1  0
 25 23  2  0
M  END
$$$$
