YTA.pdb
     RDKit          3D

 25 25  0  0  1  0  0  0  0  0999 V2000
   32.9241  -31.5424  -24.6568 O   0  0  0  0  0  0  0  0  0  0  0  0
   32.2357  -31.4933  -23.4387 C   0  0  0  0  0  0  0  0  0  0  0  0
   31.8217  -32.6624  -22.8342 C   0  0  0  0  0  0  0  0  0  0  0  0
   31.1422  -32.6109  -21.6315 C   0  0  0  0  0  0  0  0  0  0  0  0
   30.8503  -31.4201  -20.9894 C   0  0  0  0  0  0  0  0  0  0  0  0
   30.1269  -31.4197  -19.7121 C   0  0  0  0  0  0  0  0  0  0  0  0
   30.7540  -30.5549  -18.6500 C   0  0  2  0  0  0  0  0  0  0  0  0
   31.7858  -31.2204  -17.9164 N   0  0  0  0  0  0  0  0  0  0  0  0
   29.6624  -30.0350  -17.8021 C   0  0  0  0  0  0  0  0  0  0  0  0
   29.4758  -30.5863  -16.6872 O   0  0  0  0  0  0  0  0  0  0  0  0
   31.2673  -30.2559  -21.5994 C   0  0  0  0  0  0  0  0  0  0  0  0
   31.9452  -30.3086  -22.7996 C   0  0  0  0  0  0  0  0  0  0  0  0
   27.5348  -26.3012  -18.4072 C   0  0  0  0  0  0  0  0  0  0  0  0
   27.9508  -26.9254  -17.0939 C   0  0  1  0  0  0  0  0  0  0  0  0
   27.0929  -26.5435  -16.0643 O   0  0  0  0  0  0  0  0  0  0  0  0
   27.8665  -28.4502  -17.2100 C   0  0  2  0  0  0  0  0  0  0  0  0
   28.8096  -28.9567  -18.1578 N   0  0  0  0  0  0  0  0  0  0  0  0
   26.4714  -28.8815  -17.5063 C   0  0  0  0  0  0  0  0  0  0  0  0
   26.0400  -28.8332  -18.6862 O   0  0  0  0  0  0  0  0  0  0  0  0
   23.5538  -30.0763  -15.4650 C   0  0  0  0  0  0  0  0  0  0  0  0
   24.1950  -29.7046  -16.8090 C   0  0  2  0  0  0  0  0  0  0  0  0
   25.5745  -29.3575  -16.5106 N   0  0  0  0  0  0  0  0  0  0  0  0
   23.4597  -28.6360  -17.4827 C   0  0  0  0  0  0  0  0  0  0  0  0
   23.6001  -27.2811  -17.2248 O   0  0  0  0  0  0  0  0  0  0  0  0
   22.6308  -28.9635  -18.3693 O   0  0  0  0  0  0  0  0  0  0  0  0
  2  1  1  0
  3  2  2  0
  4  3  1  0
  5 11  1  0
  5  4  2  0
  6  5  1  0
  7  6  1  0
  7  8  1  1
  9  7  1  0
  9 10  2  0
 11 12  2  0
 12  2  1  0
 14 13  1  6
 14 15  1  0
 16 17  1  6
 16 14  1  0
 17  9  1  0
 18 16  1  0
 19 18  2  0
 21 20  1  1
 21 22  1  0
 22 18  1  0
 23 24  1  0
 23 21  1  0
 25 23  2  0
M  END
$$$$
