YTA.pdb
     RDKit          3D

 25 25  0  0  1  0  0  0  0  0999 V2000
   16.2755  -15.6927  -16.5178 O   0  0  0  0  0  0  0  0  0  0  0  0
   17.1230  -14.5907  -16.3523 C   0  0  0  0  0  0  0  0  0  0  0  0
   17.1228  -13.5756  -17.2867 C   0  0  0  0  0  0  0  0  0  0  0  0
   17.9607  -12.4887  -17.1207 C   0  0  0  0  0  0  0  0  0  0  0  0
   18.8179  -12.3650  -16.0412 C   0  0  0  0  0  0  0  0  0  0  0  0
   19.6872  -11.1894  -15.9105 C   0  0  0  0  0  0  0  0  0  0  0  0
   20.8455  -11.1704  -16.8734 C   0  0  2  0  0  0  0  0  0  0  0  0
   21.7535  -12.2595  -16.6859 N   0  0  0  0  0  0  0  0  0  0  0  0
   21.4821   -9.8417  -16.7727 C   0  0  0  0  0  0  0  0  0  0  0  0
   22.5144   -9.7411  -16.0613 O   0  0  0  0  0  0  0  0  0  0  0  0
   18.8125  -13.3833  -15.1115 C   0  0  0  0  0  0  0  0  0  0  0  0
   17.9760  -14.4673  -15.2782 C   0  0  0  0  0  0  0  0  0  0  0  0
   22.6179   -5.4480  -18.4995 C   0  0  0  0  0  0  0  0  0  0  0  0
   21.8802   -6.7562  -18.6772 C   0  0  1  0  0  0  0  0  0  0  0  0
   22.5865   -7.6197  -19.5124 O   0  0  0  0  0  0  0  0  0  0  0  0
   21.7474   -7.4502  -17.3184 C   0  0  2  0  0  0  0  0  0  0  0  0
   21.0102   -8.6708  -17.4229 N   0  0  0  0  0  0  0  0  0  0  0  0
   21.1734   -6.5216  -16.3044 C   0  0  0  0  0  0  0  0  0  0  0  0
   19.9586   -6.2033  -16.3657 O   0  0  0  0  0  0  0  0  0  0  0  0
   22.4762   -4.7281  -13.2721 C   0  0  0  0  0  0  0  0  0  0  0  0
   21.3631   -5.0265  -14.2858 C   0  0  2  0  0  0  0  0  0  0  0  0
   21.9348   -5.9588  -15.2432 N   0  0  0  0  0  0  0  0  0  0  0  0
   20.8490   -3.8043  -14.9009 C   0  0  0  0  0  0  0  0  0  0  0  0
   21.4386   -3.1311  -15.9598 O   0  0  0  0  0  0  0  0  0  0  0  0
   19.7863   -3.3175  -14.4382 O   0  0  0  0  0  0  0  0  0  0  0  0
  2  1  1  0
  3  2  2  0
  4  3  1  0
  5 11  1  0
  5  4  2  0
  6  5  1  0
  7  6  1  0
  7  8  1  1
  9  7  1  0
  9 10  2  0
 11 12  2  0
 12  2  1  0
 14 13  1  1
 14 15  1  0
 16 17  1  6
 16 14  1  0
 17  9  1  0
 18 16  1  0
 19 18  2  0
 21 20  1  1
 21 22  1  0
 22 18  1  0
 23 24  1  0
 23 21  1  0
 25 23  2  0
M  END
$$$$
