YTA.pdb
     RDKit          3D

 25 25  0  0  1  0  0  0  0  0999 V2000
   27.6095  -15.8137  -18.7428 O   0  0  0  0  0  0  0  0  0  0  0  0
   26.8079  -14.6694  -18.6532 C   0  0  0  0  0  0  0  0  0  0  0  0
   26.3054  -14.2750  -17.4303 C   0  0  0  0  0  0  0  0  0  0  0  0
   25.5141  -13.1447  -17.3447 C   0  0  0  0  0  0  0  0  0  0  0  0
   25.1939  -12.3724  -18.4476 C   0  0  0  0  0  0  0  0  0  0  0  0
   24.3503  -11.1798  -18.3031 C   0  0  0  0  0  0  0  0  0  0  0  0
   22.8724  -11.4704  -18.2805 C   0  0  2  0  0  0  0  0  0  0  0  0
   22.4098  -12.1357  -19.4591 N   0  0  0  0  0  0  0  0  0  0  0  0
   22.1760  -10.1978  -18.0042 C   0  0  0  0  0  0  0  0  0  0  0  0
   21.9152   -9.4505  -18.9816 O   0  0  0  0  0  0  0  0  0  0  0  0
   25.6998  -12.7727  -19.6664 C   0  0  0  0  0  0  0  0  0  0  0  0
   26.4892  -13.9007  -19.7504 C   0  0  0  0  0  0  0  0  0  0  0  0
   19.5621   -9.5382  -14.8425 C   0  0  0  0  0  0  0  0  0  0  0  0
   19.5906   -8.8098  -16.1676 C   0  0  1  0  0  0  0  0  0  0  0  0
   18.9565   -7.5725  -16.0722 O   0  0  0  0  0  0  0  0  0  0  0  0
   21.0449   -8.5424  -16.5662 C   0  0  2  0  0  0  0  0  0  0  0  0
   21.7806   -9.7597  -16.7126 N   0  0  0  0  0  0  0  0  0  0  0  0
   21.6894   -7.5971  -15.6117 C   0  0  0  0  0  0  0  0  0  0  0  0
   22.2046   -8.0343  -14.5515 O   0  0  0  0  0  0  0  0  0  0  0  0
   22.3721   -3.9042  -15.5573 C   0  0  0  0  0  0  0  0  0  0  0  0
   22.4435   -5.2965  -14.9155 C   0  0  2  0  0  0  0  0  0  0  0  0
   21.7602   -6.1939  -15.8322 N   0  0  0  0  0  0  0  0  0  0  0  0
   21.8776   -5.3014  -13.5679 C   0  0  0  0  0  0  0  0  0  0  0  0
   22.5859   -5.0602  -12.4007 O   0  0  0  0  0  0  0  0  0  0  0  0
   20.6497   -5.5431  -13.4485 O   0  0  0  0  0  0  0  0  0  0  0  0
  2  1  1  0
  3  2  2  0
  4  3  1  0
  5 11  1  0
  5  4  2  0
  6  5  1  0
  7  6  1  0
  7  8  1  6
  9  7  1  0
  9 10  2  0
 11 12  2  0
 12  2  1  0
 14 13  1  1
 14 15  1  0
 16 17  1  1
 16 14  1  0
 17  9  1  0
 18 16  1  0
 19 18  2  0
 21 20  1  6
 21 22  1  0
 22 18  1  0
 23 24  1  0
 23 21  1  0
 25 23  2  0
M  END
$$$$
