YTA.pdb
     RDKit          3D

 25 25  0  0  1  0  0  0  0  0999 V2000
   27.5658  -19.6267   -5.8050 O   0  0  0  0  0  0  0  0  0  0  0  0
   27.1097  -20.0824   -7.0477 C   0  0  0  0  0  0  0  0  0  0  0  0
   27.9563  -20.0739   -8.1371 C   0  0  0  0  0  0  0  0  0  0  0  0
   27.5033  -20.5245   -9.3630 C   0  0  0  0  0  0  0  0  0  0  0  0
   26.2158  -20.9938   -9.5565 C   0  0  0  0  0  0  0  0  0  0  0  0
   25.7841  -21.4627  -10.8789 C   0  0  0  0  0  0  0  0  0  0  0  0
   24.9979  -20.4467  -11.6656 C   0  0  2  0  0  0  0  0  0  0  0  0
   23.6083  -20.4233  -11.3278 N   0  0  0  0  0  0  0  0  0  0  0  0
   25.2575  -20.6993  -13.0972 C   0  0  0  0  0  0  0  0  0  0  0  0
   24.3277  -21.2007  -13.7798 O   0  0  0  0  0  0  0  0  0  0  0  0
   25.3755  -20.9995   -8.4632 C   0  0  0  0  0  0  0  0  0  0  0  0
   25.8287  -20.5496   -7.2405 C   0  0  0  0  0  0  0  0  0  0  0  0
   28.2878  -18.6126  -15.1225 C   0  0  0  0  0  0  0  0  0  0  0  0
   26.9302  -18.9726  -15.6834 C   0  0  1  0  0  0  0  0  0  0  0  0
   26.9628  -19.0289  -17.0755 O   0  0  0  0  0  0  0  0  0  0  0  0
   26.5299  -20.3641  -15.1844 C   0  0  2  0  0  0  0  0  0  0  0  0
   26.4829  -20.4153  -13.7562 N   0  0  0  0  0  0  0  0  0  0  0  0
   27.4191  -21.4097  -15.7642 C   0  0  0  0  0  0  0  0  0  0  0  0
   28.5230  -21.6635  -15.2187 O   0  0  0  0  0  0  0  0  0  0  0  0
   27.0216  -24.1492  -18.2403 C   0  0  0  0  0  0  0  0  0  0  0  0
   27.9410  -23.2164  -17.4403 C   0  0  2  0  0  0  0  0  0  0  0  0
   27.0869  -22.1584  -16.9268 N   0  0  0  0  0  0  0  0  0  0  0  0
   29.0518  -22.7235  -18.2525 C   0  0  0  0  0  0  0  0  0  0  0  0
   29.1668  -21.4371  -18.7563 O   0  0  0  0  0  0  0  0  0  0  0  0
   29.9826  -23.5249  -18.5207 O   0  0  0  0  0  0  0  0  0  0  0  0
  2  1  1  0
  3  2  2  0
  4  3  1  0
  5 11  1  0
  5  4  2  0
  6  5  1  0
  7  6  1  0
  7  8  1  6
  9  7  1  0
  9 10  2  0
 11 12  2  0
 12  2  1  0
 14 13  1  1
 14 15  1  0
 16 17  1  1
 16 14  1  0
 17  9  1  0
 18 16  1  0
 19 18  2  0
 21 20  1  6
 21 22  1  0
 22 18  1  0
 23 24  1  0
 23 21  1  0
 25 23  2  0
M  END
$$$$
