YTA.pdb
     RDKit          3D

 25 25  0  0  1  0  0  0  0  0999 V2000
   27.9092   -0.0789  -16.2677 O   0  0  0  0  0  0  0  0  0  0  0  0
   26.9066   -1.0558  -16.2483 C   0  0  0  0  0  0  0  0  0  0  0  0
   27.2411   -2.3819  -16.0658 C   0  0  0  0  0  0  0  0  0  0  0  0
   26.2492   -3.3445  -16.0471 C   0  0  0  0  0  0  0  0  0  0  0  0
   24.9088   -3.0383  -16.2055 C   0  0  0  0  0  0  0  0  0  0  0  0
   23.8935   -4.0982  -16.1764 C   0  0  0  0  0  0  0  0  0  0  0  0
   23.9267   -5.0152  -17.3710 C   0  0  2  0  0  0  0  0  0  0  0  0
   23.8487   -4.3202  -18.6186 N   0  0  0  0  0  0  0  0  0  0  0  0
   22.8634   -6.0228  -17.1843 C   0  0  0  0  0  0  0  0  0  0  0  0
   21.7974   -5.8743  -17.8350 O   0  0  0  0  0  0  0  0  0  0  0  0
   24.5821   -1.7110  -16.3873 C   0  0  0  0  0  0  0  0  0  0  0  0
   25.5729   -0.7514  -16.4058 C   0  0  0  0  0  0  0  0  0  0  0  0
   21.2573  -10.4780  -15.9599 C   0  0  0  0  0  0  0  0  0  0  0  0
   22.4246   -9.5225  -16.0690 C   0  0  1  0  0  0  0  0  0  0  0  0
   23.2169   -9.8247  -17.1748 O   0  0  0  0  0  0  0  0  0  0  0  0
   21.8956   -8.0990  -16.2678 C   0  0  2  0  0  0  0  0  0  0  0  0
   22.9609   -7.1468  -16.3220 N   0  0  0  0  0  0  0  0  0  0  0  0
   20.8811   -7.7623  -15.2297 C   0  0  0  0  0  0  0  0  0  0  0  0
   21.2171   -7.7185  -14.0190 O   0  0  0  0  0  0  0  0  0  0  0  0
   17.2120   -6.9551  -15.2349 C   0  0  0  0  0  0  0  0  0  0  0  0
   18.5388   -7.1905  -14.5001 C   0  0  2  0  0  0  0  0  0  0  0  0
   19.5206   -7.4794  -15.5322 N   0  0  0  0  0  0  0  0  0  0  0  0
   18.4223   -8.2472  -13.4970 C   0  0  0  0  0  0  0  0  0  0  0  0
   18.5914   -9.6021  -13.7374 O   0  0  0  0  0  0  0  0  0  0  0  0
   18.1465   -7.9086  -12.3182 O   0  0  0  0  0  0  0  0  0  0  0  0
  2  1  1  0
  3  2  2  0
  4  3  1  0
  5 11  1  0
  5  4  2  0
  6  5  1  0
  7  6  1  0
  7  8  1  6
  9  7  1  0
  9 10  2  0
 11 12  2  0
 12  2  1  0
 14 13  1  6
 14 15  1  0
 16 17  1  1
 16 14  1  0
 17  9  1  0
 18 16  1  0
 19 18  2  0
 21 20  1  6
 21 22  1  0
 22 18  1  0
 23 24  1  0
 23 21  1  0
 25 23  2  0
M  END
$$$$
