KAQ.pdb
     RDKit          3D

 24 23  0  0  1  0  0  0  0  0999 V2000
    7.5599  -18.0565   17.8256 N   0  0  0  0  0  0  0  0  0  0  0  0
    8.7637  -17.2997   17.6333 C   0  0  1  0  0  0  0  0  0  0  0  0
    8.8972  -16.9970   16.1548 C   0  0  0  0  0  0  0  0  0  0  0  0
    9.1809  -18.3031   15.4289 C   0  0  0  0  0  0  0  0  0  0  0  0
   10.6583  -18.5967   15.3357 C   0  0  0  0  0  0  0  0  0  0  0  0
   10.7963  -19.7724   14.3769 C   0  0  0  0  0  0  0  0  0  0  0  0
   12.1719  -20.1092   14.0997 N   0  0  0  0  0  0  0  0  0  0  0  0
    8.8767  -16.1294   18.5007 C   0  0  0  0  0  0  0  0  0  0  0  0
   10.0123  -15.5566   18.6419 O   0  0  0  0  0  0  0  0  0  0  0  0
    6.6955  -13.9273   20.7162 C   0  0  0  0  0  0  0  0  0  0  0  0
    8.0122  -14.5734   20.2933 C   0  0  2  0  0  0  0  0  0  0  0  0
    7.8177  -15.5293   19.2389 N   0  0  0  0  0  0  0  0  0  0  0  0
    8.5752  -15.1905   21.5227 C   0  0  0  0  0  0  0  0  0  0  0  0
    7.8004  -15.3496   22.4975 O   0  0  0  0  0  0  0  0  0  0  0  0
   10.5959  -20.8838   21.8711 N   0  0  0  0  0  0  0  0  0  0  0  0
   11.4650  -20.1744   22.8008 C   0  0  0  0  0  0  0  0  0  0  0  0
   12.4575  -20.8286   23.1681 O   0  0  0  0  0  0  0  0  0  0  0  0
   11.1439  -18.8242   23.2288 C   0  0  0  0  0  0  0  0  0  0  0  0
   10.6239  -17.8302   22.2657 C   0  0  0  0  0  0  0  0  0  0  0  0
   10.4200  -16.4439   22.7402 C   0  0  2  0  0  0  0  0  0  0  0  0
    9.9238  -15.5956   21.6334 N   0  0  0  0  0  0  0  0  0  0  0  0
   11.6384  -15.8143   23.2270 C   0  0  0  0  0  0  0  0  0  0  0  0
   12.3649  -14.9173   22.4053 O   0  0  0  0  0  0  0  0  0  0  0  0
   12.1155  -16.0333   24.3895 O   0  0  0  0  0  0  0  0  0  0  0  0
  2  1  1  6
  3  2  1  0
  4  3  1  0
  5  4  1  0
  6  7  1  0
  6  5  1  0
  8  2  1  0
  8  9  2  0
 11 10  1  1
 12 11  1  0
 12  8  1  0
 13 14  2  0
 13 11  1  0
 15 16  1  0
 16 17  2  0
 18 16  1  0
 18 19  1  0
 20 19  1  6
 20 22  1  0
 20 21  1  0
 21 13  1  0
 22 23  1  0
 24 22  2  0
M  END
$$$$
