KAQ.pdb
     RDKit          3D

 24 23  0  0  1  0  0  0  0  0999 V2000
    6.6463  -16.9197   20.2572 N   0  0  0  0  0  0  0  0  0  0  0  0
    7.6290  -16.1813   20.9976 C   0  0  1  0  0  0  0  0  0  0  0  0
    7.3888  -14.7052   20.7550 C   0  0  0  0  0  0  0  0  0  0  0  0
    8.0525  -14.3286   19.4393 C   0  0  0  0  0  0  0  0  0  0  0  0
    7.8953  -12.8623   19.1183 C   0  0  0  0  0  0  0  0  0  0  0  0
    8.6286  -12.6363   17.8024 C   0  0  0  0  0  0  0  0  0  0  0  0
    8.1270  -13.4658   16.7333 N   0  0  0  0  0  0  0  0  0  0  0  0
    7.7165  -16.5539   22.4076 C   0  0  0  0  0  0  0  0  0  0  0  0
    6.6988  -16.3933   23.1665 O   0  0  0  0  0  0  0  0  0  0  0  0
    9.7473  -18.7005   24.6892 C   0  0  0  0  0  0  0  0  0  0  0  0
    8.8972  -17.4552   24.4511 C   0  0  2  0  0  0  0  0  0  0  0  0
    8.8583  -17.0994   23.0599 N   0  0  0  0  0  0  0  0  0  0  0  0
    9.4959  -16.3873   25.2939 C   0  0  0  0  0  0  0  0  0  0  0  0
   10.5500  -15.8458   24.8797 O   0  0  0  0  0  0  0  0  0  0  0  0
    6.3927  -11.7544   27.7468 N   0  0  0  0  0  0  0  0  0  0  0  0
    6.9323  -12.1161   26.4427 C   0  0  0  0  0  0  0  0  0  0  0  0
    6.4439  -11.4745   25.4952 O   0  0  0  0  0  0  0  0  0  0  0  0
    7.9468  -13.1486   26.3232 C   0  0  0  0  0  0  0  0  0  0  0  0
    8.5031  -13.8036   27.5264 C   0  0  0  0  0  0  0  0  0  0  0  0
    9.5077  -14.8722   27.3337 C   0  0  2  0  0  0  0  0  0  0  0  0
    8.9346  -15.9681   26.5204 N   0  0  0  0  0  0  0  0  0  0  0  0
    9.9562  -15.4756   28.5797 C   0  0  0  0  0  0  0  0  0  0  0  0
   10.8002  -14.7603   29.4650 O   0  0  0  0  0  0  0  0  0  0  0  0
    9.6303  -16.6565   28.9352 O   0  0  0  0  0  0  0  0  0  0  0  0
  2  1  1  1
  3  2  1  0
  4  3  1  0
  5  4  1  0
  6  7  1  0
  6  5  1  0
  8  2  1  0
  8  9  2  0
 11 10  1  6
 12 11  1  0
 12  8  1  0
 13 14  2  0
 13 11  1  0
 15 16  1  0
 16 17  2  0
 18 16  1  0
 18 19  1  0
 20 19  1  1
 20 22  1  0
 20 21  1  0
 21 13  1  0
 22 23  1  0
 24 22  2  0
M  END
$$$$
