KAQ.pdb
     RDKit          3D

 24 23  0  0  1  0  0  0  0  0999 V2000
    7.4083  -18.8101   21.3640 N   0  0  0  0  0  0  0  0  0  0  0  0
    8.4370  -18.1921   20.5773 C   0  0  1  0  0  0  0  0  0  0  0  0
    8.0731  -18.3560   19.1158 C   0  0  0  0  0  0  0  0  0  0  0  0
    8.5297  -19.7358   18.6672 C   0  0  0  0  0  0  0  0  0  0  0  0
    8.2537  -19.9821   17.2040 C   0  0  0  0  0  0  0  0  0  0  0  0
    8.7182  -21.4048   16.9196 C   0  0  0  0  0  0  0  0  0  0  0  0
    8.5795  -21.7709   15.5306 N   0  0  0  0  0  0  0  0  0  0  0  0
    8.7446  -16.8193   20.9715 C   0  0  0  0  0  0  0  0  0  0  0  0
    9.7854  -16.2453   20.4973 O   0  0  0  0  0  0  0  0  0  0  0  0
    7.1292  -13.9257   22.8235 C   0  0  0  0  0  0  0  0  0  0  0  0
    8.3209  -14.6638   22.2190 C   0  0  2  0  0  0  0  0  0  0  0  0
    7.9820  -16.0138   21.8638 N   0  0  0  0  0  0  0  0  0  0  0  0
    9.3993  -14.5987   23.2397 C   0  0  0  0  0  0  0  0  0  0  0  0
    9.8651  -13.4667   23.5183 O   0  0  0  0  0  0  0  0  0  0  0  0
    9.9789  -15.1567   29.0673 N   0  0  0  0  0  0  0  0  0  0  0  0
    9.6310  -14.1544   28.0687 C   0  0  0  0  0  0  0  0  0  0  0  0
    9.0951  -13.1345   28.5381 O   0  0  0  0  0  0  0  0  0  0  0  0
    9.9062  -14.3866   26.6617 C   0  0  0  0  0  0  0  0  0  0  0  0
   10.5910  -15.6201   26.2195 C   0  0  0  0  0  0  0  0  0  0  0  0
   11.0648  -15.6880   24.8197 C   0  0  2  0  0  0  0  0  0  0  0  0
    9.9107  -15.7410   23.8945 N   0  0  0  0  0  0  0  0  0  0  0  0
   11.8719  -16.8659   24.5389 C   0  0  0  0  0  0  0  0  0  0  0  0
   13.1686  -17.0010   25.0940 O   0  0  0  0  0  0  0  0  0  0  0  0
   11.4725  -17.8179   23.7898 O   0  0  0  0  0  0  0  0  0  0  0  0
  2  1  1  1
  3  2  1  0
  4  3  1  0
  5  4  1  0
  6  7  1  0
  6  5  1  0
  8  2  1  0
  8  9  2  0
 11 10  1  1
 12 11  1  0
 12  8  1  0
 13 14  2  0
 13 11  1  0
 15 16  1  0
 16 17  2  0
 18 16  1  0
 18 19  1  0
 20 19  1  1
 20 22  1  0
 20 21  1  0
 21 13  1  0
 22 23  1  0
 24 22  2  0
M  END
$$$$
