KAQ.pdb
     RDKit          3D

 24 23  0  0  1  0  0  0  0  0999 V2000
    7.5021  -18.9929   19.6290 N   0  0  0  0  0  0  0  0  0  0  0  0
    7.1421  -18.0513   20.6501 C   0  0  1  0  0  0  0  0  0  0  0  0
    7.2190  -18.7572   21.9884 C   0  0  0  0  0  0  0  0  0  0  0  0
    6.2928  -19.9627   21.9405 C   0  0  0  0  0  0  0  0  0  0  0  0
    5.6253  -20.2245   23.2685 C   0  0  0  0  0  0  0  0  0  0  0  0
    4.6767  -21.3948   23.0418 C   0  0  0  0  0  0  0  0  0  0  0  0
    3.9988  -21.8065   24.2474 N   0  0  0  0  0  0  0  0  0  0  0  0
    7.8830  -16.7935   20.5887 C   0  0  0  0  0  0  0  0  0  0  0  0
    9.1614  -16.8168   20.5374 O   0  0  0  0  0  0  0  0  0  0  0  0
    7.2257  -13.0439   20.4118 C   0  0  0  0  0  0  0  0  0  0  0  0
    8.0815  -14.2771   20.6894 C   0  0  2  0  0  0  0  0  0  0  0  0
    7.3161  -15.4877   20.5794 N   0  0  0  0  0  0  0  0  0  0  0  0
    8.6444  -14.0828   22.0513 C   0  0  0  0  0  0  0  0  0  0  0  0
    9.4266  -13.1158   22.2217 O   0  0  0  0  0  0  0  0  0  0  0  0
    5.4324  -13.3824   27.0324 N   0  0  0  0  0  0  0  0  0  0  0  0
    6.4975  -12.4587   26.6647 C   0  0  0  0  0  0  0  0  0  0  0  0
    6.3480  -11.3073   27.1118 O   0  0  0  0  0  0  0  0  0  0  0  0
    7.6081  -12.9019   25.8405 C   0  0  0  0  0  0  0  0  0  0  0  0
    7.7051  -14.3090   25.3970 C   0  0  0  0  0  0  0  0  0  0  0  0
    8.8311  -14.6828   24.5133 C   0  0  2  0  0  0  0  0  0  0  0  0
    8.3388  -14.9298   23.1395 N   0  0  0  0  0  0  0  0  0  0  0  0
    9.5147  -15.8980   24.9303 C   0  0  0  0  0  0  0  0  0  0  0  0
    9.5375  -17.0379   24.0891 O   0  0  0  0  0  0  0  0  0  0  0  0
   10.1117  -16.0078   26.0522 O   0  0  0  0  0  0  0  0  0  0  0  0
  2  1  1  6
  3  2  1  0
  4  3  1  0
  5  4  1  0
  6  7  1  0
  6  5  1  0
  8  2  1  0
  8  9  2  0
 11 10  1  1
 12 11  1  0
 12  8  1  0
 13 14  2  0
 13 11  1  0
 15 16  1  0
 16 17  2  0
 18 16  1  0
 18 19  1  0
 20 19  1  1
 20 22  1  0
 20 21  1  0
 21 13  1  0
 22 23  1  0
 24 22  2  0
M  END
$$$$
