KAQ.pdb
     RDKit          3D

 24 23  0  0  1  0  0  0  0  0999 V2000
    8.1971  -17.0320   17.0404 N   0  0  0  0  0  0  0  0  0  0  0  0
    7.9228  -17.4823   18.3749 C   0  0  1  0  0  0  0  0  0  0  0  0
    8.2557  -18.9584   18.4504 C   0  0  0  0  0  0  0  0  0  0  0  0
    7.2048  -19.7208   17.6581 C   0  0  0  0  0  0  0  0  0  0  0  0
    7.4097  -21.2146   17.7255 C   0  0  0  0  0  0  0  0  0  0  0  0
    6.3158  -21.8309   16.8629 C   0  0  0  0  0  0  0  0  0  0  0  0
    6.4059  -23.2693   16.7893 N   0  0  0  0  0  0  0  0  0  0  0  0
    8.5454  -16.6700   19.4175 C   0  0  0  0  0  0  0  0  0  0  0  0
    9.8206  -16.5751   19.4657 O   0  0  0  0  0  0  0  0  0  0  0  0
    7.5126  -14.5383   22.4107 C   0  0  0  0  0  0  0  0  0  0  0  0
    8.5176  -15.1827   21.4594 C   0  0  2  0  0  0  0  0  0  0  0  0
    7.8612  -15.9403   20.4305 N   0  0  0  0  0  0  0  0  0  0  0  0
    9.3996  -16.0244   22.3095 C   0  0  0  0  0  0  0  0  0  0  0  0
    9.0275  -17.2004   22.5433 O   0  0  0  0  0  0  0  0  0  0  0  0
   15.7848  -15.5275   22.5899 N   0  0  0  0  0  0  0  0  0  0  0  0
   15.4413  -16.4310   23.6801 C   0  0  0  0  0  0  0  0  0  0  0  0
   16.4252  -16.9179   24.2655 O   0  0  0  0  0  0  0  0  0  0  0  0
   14.0520  -16.7042   24.0035 C   0  0  0  0  0  0  0  0  0  0  0  0
   12.9591  -16.0405   23.2612 C   0  0  0  0  0  0  0  0  0  0  0  0
   11.5683  -16.4419   23.5662 C   0  0  2  0  0  0  0  0  0  0  0  0
   10.6168  -15.5592   22.8547 N   0  0  0  0  0  0  0  0  0  0  0  0
   11.2368  -16.3497   24.9801 C   0  0  0  0  0  0  0  0  0  0  0  0
   11.6219  -17.3744   25.8798 O   0  0  0  0  0  0  0  0  0  0  0  0
   10.5900  -15.3697   25.4784 O   0  0  0  0  0  0  0  0  0  0  0  0
  2  1  1  6
  3  2  1  0
  4  3  1  0
  5  4  1  0
  6  7  1  0
  6  5  1  0
  8  2  1  0
  8  9  2  0
 11 10  1  1
 12 11  1  0
 12  8  1  0
 13 14  2  0
 13 11  1  0
 15 16  1  0
 16 17  2  0
 18 16  1  0
 18 19  1  0
 20 19  1  1
 20 22  1  0
 20 21  1  0
 21 13  1  0
 22 23  1  0
 24 22  2  0
M  END
$$$$
