KAQ.pdb
     RDKit          3D

 24 23  0  0  1  0  0  0  0  0999 V2000
    7.7783  -16.9017   17.1493 N   0  0  0  0  0  0  0  0  0  0  0  0
    8.0990  -17.5766   18.3742 C   0  0  1  0  0  0  0  0  0  0  0  0
    9.0030  -18.7465   18.0434 C   0  0  0  0  0  0  0  0  0  0  0  0
    8.2188  -19.7188   17.1756 C   0  0  0  0  0  0  0  0  0  0  0  0
    9.0468  -20.9097   16.7587 C   0  0  0  0  0  0  0  0  0  0  0  0
    8.1635  -21.7356   15.8322 C   0  0  0  0  0  0  0  0  0  0  0  0
    8.8343  -22.9042   15.3154 N   0  0  0  0  0  0  0  0  0  0  0  0
    8.6110  -16.6971   19.4226 C   0  0  0  0  0  0  0  0  0  0  0  0
    9.7788  -16.9029   19.9036 O   0  0  0  0  0  0  0  0  0  0  0  0
    7.4160  -13.7603   21.5457 C   0  0  0  0  0  0  0  0  0  0  0  0
    8.4284  -14.8079   21.0899 C   0  0  2  0  0  0  0  0  0  0  0  0
    7.9250  -15.5882   19.9939 N   0  0  0  0  0  0  0  0  0  0  0  0
    8.7235  -15.6361   22.2883 C   0  0  0  0  0  0  0  0  0  0  0  0
    7.9131  -16.5515   22.5732 O   0  0  0  0  0  0  0  0  0  0  0  0
   11.4430  -19.8306   22.1442 N   0  0  0  0  0  0  0  0  0  0  0  0
   12.0289  -19.0063   23.1930 C   0  0  0  0  0  0  0  0  0  0  0  0
   12.4996  -19.6544   24.1450 O   0  0  0  0  0  0  0  0  0  0  0  0
   12.0280  -17.5582   23.0819 C   0  0  0  0  0  0  0  0  0  0  0  0
   11.5942  -16.7141   24.2156 C   0  0  0  0  0  0  0  0  0  0  0  0
   10.1767  -16.2938   24.2663 C   0  0  2  0  0  0  0  0  0  0  0  0
    9.8593  -15.4347   23.1035 N   0  0  0  0  0  0  0  0  0  0  0  0
    9.8452  -15.5193   25.4529 C   0  0  0  0  0  0  0  0  0  0  0  0
    9.8362  -16.1279   26.7324 O   0  0  0  0  0  0  0  0  0  0  0  0
    9.5438  -14.2806   25.4108 O   0  0  0  0  0  0  0  0  0  0  0  0
  2  1  1  6
  3  2  1  0
  4  3  1  0
  5  4  1  0
  6  7  1  0
  6  5  1  0
  8  2  1  0
  8  9  2  0
 11 10  1  1
 12 11  1  0
 12  8  1  0
 13 14  2  0
 13 11  1  0
 15 16  1  0
 16 17  2  0
 18 16  1  0
 18 19  1  0
 20 19  1  1
 20 22  1  0
 20 21  1  0
 21 13  1  0
 22 23  1  0
 24 22  2  0
M  END
$$$$
