VNF.pdb
     RDKit          3D

 27 27  0  0  1  0  0  0  0  0999 V2000
    6.8587  -12.9604   19.1354 C   0  0  0  0  0  0  0  0  0  0  0  0
    7.9982  -13.7857   19.6336 C   0  0  1  0  0  0  0  0  0  0  0  0
    8.8971  -12.9513   20.5231 C   0  0  0  0  0  0  0  0  0  0  0  0
    7.5796  -15.0148   20.4116 C   0  0  2  0  0  0  0  0  0  0  0  0
    6.7122  -14.5095   21.4896 N   0  0  0  0  0  0  0  0  0  0  0  0
    8.7153  -15.6940   21.0396 C   0  0  0  0  0  0  0  0  0  0  0  0
    9.1551  -16.7263   20.4308 O   0  0  0  0  0  0  0  0  0  0  0  0
   12.6573  -16.4762   20.8798 N   0  0  0  0  0  0  0  0  0  0  0  0
   12.3229  -15.2596   21.5473 C   0  0  0  0  0  0  0  0  0  0  0  0
   12.6918  -14.1903   21.0081 O   0  0  0  0  0  0  0  0  0  0  0  0
   11.5846  -15.2035   22.8058 C   0  0  0  0  0  0  0  0  0  0  0  0
   10.3498  -16.0247   22.9047 C   0  0  2  0  0  0  0  0  0  0  0  0
    9.2914  -15.2376   22.2437 N   0  0  0  0  0  0  0  0  0  0  0  0
    9.8690  -16.3152   24.2680 C   0  0  0  0  0  0  0  0  0  0  0  0
   10.7036  -16.6457   25.1830 O   0  0  0  0  0  0  0  0  0  0  0  0
    8.5185  -16.2640   24.7030 N   0  0  0  0  0  0  0  0  0  0  0  0
    8.1346  -16.6904   26.0548 C   0  0  1  0  0  0  0  0  0  0  0  0
    6.8719  -16.0262   26.4774 C   0  0  0  0  0  0  0  0  0  0  0  0
    6.9895  -14.5607   26.3590 C   0  0  0  0  0  0  0  0  0  0  0  0
    7.8440  -13.7980   27.1570 C   0  0  0  0  0  0  0  0  0  0  0  0
    7.9360  -12.4422   27.0211 C   0  0  0  0  0  0  0  0  0  0  0  0
    7.1791  -11.7603   26.0781 C   0  0  0  0  0  0  0  0  0  0  0  0
    6.3271  -12.4805   25.2761 C   0  0  0  0  0  0  0  0  0  0  0  0
    6.2426  -13.8433   25.4212 C   0  0  0  0  0  0  0  0  0  0  0  0
    8.0360  -18.1397   26.1522 C   0  0  0  0  0  0  0  0  0  0  0  0
    7.8616  -18.7802   27.2196 O   0  0  0  0  0  0  0  0  0  0  0  0
    8.1387  -18.9206   24.9803 O   0  0  0  0  0  0  0  0  0  0  0  0
  2  4  1  0
  2  1  1  1
  3  2  1  0
  4  6  1  0
  4  5  1  1
  6  7  2  0
  9  8  1  0
 10  9  2  0
 11  9  1  0
 12 11  1  1
 12 14  1  0
 13 12  1  0
 13  6  1  0
 14 15  2  0
 16 17  1  0
 16 14  1  0
 17 25  1  0
 17 18  1  6
 19 24  2  0
 19 18  1  0
 20 19  1  0
 21 22  1  0
 21 20  2  0
 22 23  2  0
 23 24  1  0
 25 26  2  0
 25 27  1  0
M  END
$$$$
