VNF.pdb
     RDKit          3D

 27 27  0  0  1  0  0  0  0  0999 V2000
    9.0029  -12.7269   20.9084 C   0  0  0  0  0  0  0  0  0  0  0  0
    7.9848  -13.3929   20.0437 C   0  0  1  0  0  0  0  0  0  0  0  0
    7.7718  -12.5908   18.7762 C   0  0  0  0  0  0  0  0  0  0  0  0
    8.3399  -14.8099   19.6473 C   0  0  2  0  0  0  0  0  0  0  0  0
    7.1951  -15.2837   18.8504 N   0  0  0  0  0  0  0  0  0  0  0  0
    8.4716  -15.6989   20.8039 C   0  0  0  0  0  0  0  0  0  0  0  0
    7.3884  -15.9815   21.4175 O   0  0  0  0  0  0  0  0  0  0  0  0
   10.8405  -19.3590   19.6757 N   0  0  0  0  0  0  0  0  0  0  0  0
   10.2189  -19.1621   20.9455 C   0  0  0  0  0  0  0  0  0  0  0  0
    9.1938  -19.8390   21.1927 O   0  0  0  0  0  0  0  0  0  0  0  0
   10.7125  -18.2260   21.9517 C   0  0  0  0  0  0  0  0  0  0  0  0
    9.7957  -17.1332   22.3689 C   0  0  2  0  0  0  0  0  0  0  0  0
    9.7181  -16.2142   21.2173 N   0  0  0  0  0  0  0  0  0  0  0  0
   10.2294  -16.3253   23.5236 C   0  0  0  0  0  0  0  0  0  0  0  0
   11.3149  -15.6469   23.4572 O   0  0  0  0  0  0  0  0  0  0  0  0
    9.5433  -16.2062   24.7609 N   0  0  0  0  0  0  0  0  0  0  0  0
   10.1581  -15.5359   25.9139 C   0  0  1  0  0  0  0  0  0  0  0  0
   10.0441  -14.0578   25.7855 C   0  0  0  0  0  0  0  0  0  0  0  0
    8.6925  -13.6049   26.1643 C   0  0  0  0  0  0  0  0  0  0  0  0
    8.4408  -12.8130   27.2859 C   0  0  0  0  0  0  0  0  0  0  0  0
    7.1785  -12.4039   27.6092 C   0  0  0  0  0  0  0  0  0  0  0  0
    6.0852  -12.7603   26.8317 C   0  0  0  0  0  0  0  0  0  0  0  0
    6.2972  -13.5399   25.7204 C   0  0  0  0  0  0  0  0  0  0  0  0
    7.5705  -13.9455   25.4046 C   0  0  0  0  0  0  0  0  0  0  0  0
    9.5970  -16.0091   27.1712 C   0  0  0  0  0  0  0  0  0  0  0  0
    8.6394  -16.8168   27.2746 O   0  0  0  0  0  0  0  0  0  0  0  0
   10.1432  -15.5492   28.3894 O   0  0  0  0  0  0  0  0  0  0  0  0
  2  4  1  0
  2  1  1  6
  3  2  1  0
  4  6  1  0
  4  5  1  6
  6  7  2  0
  9  8  1  0
 10  9  2  0
 11  9  1  0
 12 11  1  6
 12 14  1  0
 13 12  1  0
 13  6  1  0
 14 15  2  0
 16 17  1  0
 16 14  1  0
 17 25  1  0
 17 18  1  6
 19 24  2  0
 19 18  1  0
 20 19  1  0
 21 22  1  0
 21 20  2  0
 22 23  2  0
 23 24  1  0
 25 26  2  0
 25 27  1  0
M  END
$$$$
