VNF.pdb
     RDKit          3D

 27 27  0  0  1  0  0  0  0  0999 V2000
    8.4987  -12.6782   21.6088 C   0  0  0  0  0  0  0  0  0  0  0  0
    7.6730  -13.4765   20.6554 C   0  0  1  0  0  0  0  0  0  0  0  0
    7.2465  -12.6136   19.4854 C   0  0  0  0  0  0  0  0  0  0  0  0
    8.3724  -14.7005   20.1044 C   0  0  2  0  0  0  0  0  0  0  0  0
    7.3869  -15.3369   19.2134 N   0  0  0  0  0  0  0  0  0  0  0  0
    8.7139  -15.6686   21.1492 C   0  0  0  0  0  0  0  0  0  0  0  0
    7.7657  -16.4308   21.5360 O   0  0  0  0  0  0  0  0  0  0  0  0
   11.7098  -19.2985   20.9756 N   0  0  0  0  0  0  0  0  0  0  0  0
   12.0486  -17.9248   21.1655 C   0  0  0  0  0  0  0  0  0  0  0  0
   12.6240  -17.3404   20.2181 O   0  0  0  0  0  0  0  0  0  0  0  0
   11.7614  -17.1822   22.3895 C   0  0  0  0  0  0  0  0  0  0  0  0
   10.3413  -16.8313   22.6523 C   0  0  2  0  0  0  0  0  0  0  0  0
   10.0109  -15.7567   21.6969 N   0  0  0  0  0  0  0  0  0  0  0  0
   10.0386  -16.3069   23.9967 C   0  0  0  0  0  0  0  0  0  0  0  0
   10.8076  -15.4300   24.5285 O   0  0  0  0  0  0  0  0  0  0  0  0
    8.9341  -16.6805   24.8068 N   0  0  0  0  0  0  0  0  0  0  0  0
    8.8808  -16.3339   26.2328 C   0  0  1  0  0  0  0  0  0  0  0  0
    7.5173  -15.8745   26.6121 C   0  0  0  0  0  0  0  0  0  0  0  0
    7.3235  -14.4594   26.2439 C   0  0  0  0  0  0  0  0  0  0  0  0
    7.7759  -13.3987   27.0306 C   0  0  0  0  0  0  0  0  0  0  0  0
    7.5867  -12.0974   26.6614 C   0  0  0  0  0  0  0  0  0  0  0  0
    6.9324  -11.7720   25.4812 C   0  0  0  0  0  0  0  0  0  0  0  0
    6.4736  -12.7920   24.6831 C   0  0  0  0  0  0  0  0  0  0  0  0
    6.6693  -14.0966   25.0639 C   0  0  0  0  0  0  0  0  0  0  0  0
    9.3260  -17.4386   27.0702 C   0  0  0  0  0  0  0  0  0  0  0  0
    9.4631  -17.3871   28.3186 O   0  0  0  0  0  0  0  0  0  0  0  0
    9.6367  -18.6792   26.4716 O   0  0  0  0  0  0  0  0  0  0  0  0
  2  4  1  0
  2  1  1  1
  3  2  1  0
  4  6  1  0
  4  5  1  6
  6  7  2  0
  9  8  1  0
 10  9  2  0
 11  9  1  0
 12 11  1  1
 12 14  1  0
 13 12  1  0
 13  6  1  0
 14 15  2  0
 16 17  1  0
 16 14  1  0
 17 25  1  0
 17 18  1  1
 19 24  2  0
 19 18  1  0
 20 19  1  0
 21 22  1  0
 21 20  2  0
 22 23  2  0
 23 24  1  0
 25 26  2  0
 25 27  1  0
M  END
$$$$
