VNF.pdb
     RDKit          3D

 27 27  0  0  1  0  0  0  0  0999 V2000
    6.9508  -12.8151   19.1192 C   0  0  0  0  0  0  0  0  0  0  0  0
    8.0270  -13.6784   19.6888 C   0  0  1  0  0  0  0  0  0  0  0  0
    8.6677  -12.9958   20.8799 C   0  0  0  0  0  0  0  0  0  0  0  0
    7.5546  -15.0467   20.1311 C   0  0  2  0  0  0  0  0  0  0  0  0
    6.5378  -14.7860   21.1646 N   0  0  0  0  0  0  0  0  0  0  0  0
    8.6226  -15.8349   20.7505 C   0  0  0  0  0  0  0  0  0  0  0  0
    9.3441  -16.5224   19.9528 O   0  0  0  0  0  0  0  0  0  0  0  0
   12.7300  -17.8708   21.6316 N   0  0  0  0  0  0  0  0  0  0  0  0
   12.0330  -16.6886   21.2388 C   0  0  0  0  0  0  0  0  0  0  0  0
   12.1506  -16.3239   20.0458 O   0  0  0  0  0  0  0  0  0  0  0  0
   11.2046  -15.8987   22.1454 C   0  0  0  0  0  0  0  0  0  0  0  0
    9.9988  -16.5586   22.7106 C   0  0  2  0  0  0  0  0  0  0  0  0
    8.8441  -15.8361   22.1437 N   0  0  0  0  0  0  0  0  0  0  0  0
    9.8526  -16.5012   24.1768 C   0  0  0  0  0  0  0  0  0  0  0  0
   10.4317  -15.5701   24.8407 O   0  0  0  0  0  0  0  0  0  0  0  0
    9.1023  -17.4047   24.9746 N   0  0  0  0  0  0  0  0  0  0  0  0
    8.0689  -16.9277   25.9025 C   0  0  1  0  0  0  0  0  0  0  0  0
    7.1442  -15.9829   25.2197 C   0  0  0  0  0  0  0  0  0  0  0  0
    7.2442  -14.6362   25.8129 C   0  0  0  0  0  0  0  0  0  0  0  0
    8.4490  -13.9399   25.9233 C   0  0  0  0  0  0  0  0  0  0  0  0
    8.5105  -12.6910   26.4727 C   0  0  0  0  0  0  0  0  0  0  0  0
    7.3707  -12.0569   26.9478 C   0  0  0  0  0  0  0  0  0  0  0  0
    6.1678  -12.7142   26.8551 C   0  0  0  0  0  0  0  0  0  0  0  0
    6.1175  -13.9695   26.3008 C   0  0  0  0  0  0  0  0  0  0  0  0
    7.3477  -18.0334   26.5164 C   0  0  0  0  0  0  0  0  0  0  0  0
    6.6768  -17.9563   27.5766 O   0  0  0  0  0  0  0  0  0  0  0  0
    7.3796  -19.3054   25.9042 O   0  0  0  0  0  0  0  0  0  0  0  0
  2  4  1  0
  2  1  1  1
  3  2  1  0
  4  6  1  0
  4  5  1  1
  6  7  2  0
  9  8  1  0
 10  9  2  0
 11  9  1  0
 12 11  1  1
 12 14  1  0
 13 12  1  0
 13  6  1  0
 14 15  2  0
 16 17  1  0
 16 14  1  0
 17 25  1  0
 17 18  1  6
 19 24  2  0
 19 18  1  0
 20 19  1  0
 21 22  1  0
 21 20  2  0
 22 23  2  0
 23 24  1  0
 25 26  2  0
 25 27  1  0
M  END
$$$$
