VNF.pdb
     RDKit          3D

 27 27  0  0  1  0  0  0  0  0999 V2000
    9.2286  -13.0885   17.8676 C   0  0  0  0  0  0  0  0  0  0  0  0
    8.8131  -13.6729   19.1767 C   0  0  1  0  0  0  0  0  0  0  0  0
    7.7322  -12.8203   19.8091 C   0  0  0  0  0  0  0  0  0  0  0  0
    8.2963  -15.0927   19.0853 C   0  0  2  0  0  0  0  0  0  0  0  0
    7.2599  -15.0572   18.0391 N   0  0  0  0  0  0  0  0  0  0  0  0
    7.6571  -15.5371   20.3260 C   0  0  0  0  0  0  0  0  0  0  0  0
    6.5846  -14.9261   20.6518 O   0  0  0  0  0  0  0  0  0  0  0  0
    7.1739  -20.3994   23.8153 N   0  0  0  0  0  0  0  0  0  0  0  0
    6.7486  -19.0848   23.4569 C   0  0  0  0  0  0  0  0  0  0  0  0
    5.9497  -18.5098   24.2323 O   0  0  0  0  0  0  0  0  0  0  0  0
    7.1926  -18.3911   22.2511 C   0  0  0  0  0  0  0  0  0  0  0  0
    7.5412  -16.9527   22.3857 C   0  0  2  0  0  0  0  0  0  0  0  0
    8.1908  -16.5774   21.1154 N   0  0  0  0  0  0  0  0  0  0  0  0
    8.4906  -16.6111   23.4609 C   0  0  0  0  0  0  0  0  0  0  0  0
    9.7451  -16.8145   23.2940 O   0  0  0  0  0  0  0  0  0  0  0  0
    8.1544  -16.0512   24.7216 N   0  0  0  0  0  0  0  0  0  0  0  0
    9.1781  -15.8028   25.7447 C   0  0  1  0  0  0  0  0  0  0  0  0
    9.5048  -14.3532   25.8212 C   0  0  0  0  0  0  0  0  0  0  0  0
    8.3125  -13.5698   26.1959 C   0  0  0  0  0  0  0  0  0  0  0  0
    8.1380  -13.0062   27.4610 C   0  0  0  0  0  0  0  0  0  0  0  0
    7.0252  -12.2807   27.7780 C   0  0  0  0  0  0  0  0  0  0  0  0
    6.0140  -12.0713   26.8503 C   0  0  0  0  0  0  0  0  0  0  0  0
    6.1535  -12.6125   25.5951 C   0  0  0  0  0  0  0  0  0  0  0  0
    7.2765  -13.3402   25.2871 C   0  0  0  0  0  0  0  0  0  0  0  0
    8.7795  -16.3312   27.0415 C   0  0  0  0  0  0  0  0  0  0  0  0
    9.4791  -16.2846   28.0848 O   0  0  0  0  0  0  0  0  0  0  0  0
    7.5179  -16.9502   27.1784 O   0  0  0  0  0  0  0  0  0  0  0  0
  2  4  1  0
  2  1  1  6
  3  2  1  0
  4  6  1  0
  4  5  1  6
  6  7  2  0
  9  8  1  0
 10  9  2  0
 11  9  1  0
 12 11  1  6
 12 14  1  0
 13 12  1  0
 13  6  1  0
 14 15  2  0
 16 17  1  0
 16 14  1  0
 17 25  1  0
 17 18  1  1
 19 24  2  0
 19 18  1  0
 20 19  1  0
 21 22  1  0
 21 20  2  0
 22 23  2  0
 23 24  1  0
 25 26  2  0
 25 27  1  0
M  END
$$$$
