VNF.pdb
     RDKit          3D

 27 27  0  0  1  0  0  0  0  0999 V2000
    7.0034  -18.7214   25.6228 C   0  0  0  0  0  0  0  0  0  0  0  0
    6.8026  -19.7477   24.5577 C   0  0  1  0  0  0  0  0  0  0  0  0
    5.9281  -20.8717   25.0744 C   0  0  0  0  0  0  0  0  0  0  0  0
    6.1743  -19.2102   23.2898 C   0  0  2  0  0  0  0  0  0  0  0  0
    5.9925  -20.3873   22.4229 N   0  0  0  0  0  0  0  0  0  0  0  0
    7.0508  -18.2726   22.5842 C   0  0  0  0  0  0  0  0  0  0  0  0
    8.0918  -18.7783   22.0454 O   0  0  0  0  0  0  0  0  0  0  0  0
    7.6010  -12.4348   20.9469 N   0  0  0  0  0  0  0  0  0  0  0  0
    7.7160  -13.8189   20.6171 C   0  0  0  0  0  0  0  0  0  0  0  0
    8.5075  -14.1242   19.6949 O   0  0  0  0  0  0  0  0  0  0  0  0
    6.9683  -14.8764   21.2916 C   0  0  0  0  0  0  0  0  0  0  0  0
    7.7563  -15.9633   21.9290 C   0  0  2  0  0  0  0  0  0  0  0  0
    6.7650  -16.8935   22.5021 N   0  0  0  0  0  0  0  0  0  0  0  0
    8.6443  -15.5606   23.0351 C   0  0  0  0  0  0  0  0  0  0  0  0
    9.7103  -14.8931   22.7880 O   0  0  0  0  0  0  0  0  0  0  0  0
    8.4387  -15.8405   24.4118 N   0  0  0  0  0  0  0  0  0  0  0  0
    9.3874  -15.3817   25.4345 C   0  0  1  0  0  0  0  0  0  0  0  0
    8.6697  -14.9712   26.6717 C   0  0  0  0  0  0  0  0  0  0  0  0
    7.7863  -13.8207   26.4037 C   0  0  0  0  0  0  0  0  0  0  0  0
    8.2575  -12.5136   26.2690 C   0  0  0  0  0  0  0  0  0  0  0  0
    7.4161  -11.4682   26.0155 C   0  0  0  0  0  0  0  0  0  0  0  0
    6.0482  -11.6617   25.8803 C   0  0  0  0  0  0  0  0  0  0  0  0
    5.5505  -12.9360   26.0075 C   0  0  0  0  0  0  0  0  0  0  0  0
    6.4055  -13.9798   26.2623 C   0  0  0  0  0  0  0  0  0  0  0  0
   10.4031  -16.3869   25.7132 C   0  0  0  0  0  0  0  0  0  0  0  0
   11.3714  -16.2344   26.5001 O   0  0  0  0  0  0  0  0  0  0  0  0
   10.3294  -17.6420   25.0704 O   0  0  0  0  0  0  0  0  0  0  0  0
  2  4  1  0
  2  1  1  1
  3  2  1  0
  4  6  1  0
  4  5  1  6
  6  7  2  0
  9  8  1  0
 10  9  2  0
 11  9  1  0
 12 11  1  1
 12 14  1  0
 13 12  1  0
 13  6  1  0
 14 15  2  0
 16 17  1  0
 16 14  1  0
 17 25  1  0
 17 18  1  1
 19 24  2  0
 19 18  1  0
 20 19  1  0
 21 22  1  0
 21 20  2  0
 22 23  2  0
 23 24  1  0
 25 26  2  0
 25 27  1  0
M  END
$$$$
