VNF.pdb
     RDKit          3D

 27 27  0  0  1  0  0  0  0  0999 V2000
    7.5794  -12.7656   19.9123 C   0  0  0  0  0  0  0  0  0  0  0  0
    8.1857  -13.7240   20.8829 C   0  0  1  0  0  0  0  0  0  0  0  0
    7.5319  -13.5744   22.2414 C   0  0  0  0  0  0  0  0  0  0  0  0
    8.0788  -15.1760   20.4689 C   0  0  2  0  0  0  0  0  0  0  0  0
    6.6340  -15.4330   20.3405 N   0  0  0  0  0  0  0  0  0  0  0  0
    8.6014  -16.0890   21.4881 C   0  0  0  0  0  0  0  0  0  0  0  0
    7.7319  -16.7784   22.1193 O   0  0  0  0  0  0  0  0  0  0  0  0
   11.8882  -17.8044   19.4028 N   0  0  0  0  0  0  0  0  0  0  0  0
   11.8078  -18.4235   20.6865 C   0  0  0  0  0  0  0  0  0  0  0  0
   11.7294  -19.6738   20.7155 O   0  0  0  0  0  0  0  0  0  0  0  0
   11.8127  -17.6820   21.9444 C   0  0  0  0  0  0  0  0  0  0  0  0
   10.4925  -17.3460   22.5385 C   0  0  2  0  0  0  0  0  0  0  0  0
    9.9813  -16.2031   21.7581 N   0  0  0  0  0  0  0  0  0  0  0  0
   10.5036  -16.9203   23.9502 C   0  0  0  0  0  0  0  0  0  0  0  0
   11.0410  -17.6708   24.8396 O   0  0  0  0  0  0  0  0  0  0  0  0
    9.9619  -15.7107   24.4593 N   0  0  0  0  0  0  0  0  0  0  0  0
   10.1370  -15.3277   25.8661 C   0  0  1  0  0  0  0  0  0  0  0  0
   10.0437  -13.8512   26.0251 C   0  0  0  0  0  0  0  0  0  0  0  0
    8.6338  -13.4224   26.0884 C   0  0  0  0  0  0  0  0  0  0  0  0
    8.1880  -12.3899   26.9154 C   0  0  0  0  0  0  0  0  0  0  0  0
    6.8764  -12.0107   26.9492 C   0  0  0  0  0  0  0  0  0  0  0  0
    5.9247  -12.6395   26.1580 C   0  0  0  0  0  0  0  0  0  0  0  0
    6.3294  -13.6605   25.3324 C   0  0  0  0  0  0  0  0  0  0  0  0
    7.6506  -14.0335   25.3063 C   0  0  0  0  0  0  0  0  0  0  0  0
    9.1933  -16.0203   26.7319 C   0  0  0  0  0  0  0  0  0  0  0  0
    9.1725  -15.9395   27.9861 O   0  0  0  0  0  0  0  0  0  0  0  0
    8.2109  -16.8556   26.1566 O   0  0  0  0  0  0  0  0  0  0  0  0
  2  4  1  0
  2  1  1  6
  3  2  1  0
  4  6  1  0
  4  5  1  1
  6  7  2  0
  9  8  1  0
 10  9  2  0
 11  9  1  0
 12 11  1  6
 12 14  1  0
 13 12  1  0
 13  6  1  0
 14 15  2  0
 16 17  1  0
 16 14  1  0
 17 25  1  0
 17 18  1  6
 19 24  2  0
 19 18  1  0
 20 19  1  0
 21 22  1  0
 21 20  2  0
 22 23  2  0
 23 24  1  0
 25 26  2  0
 25 27  1  0
M  END
$$$$
