DWS.pdb
     RDKit          3D

 29 30  0  0  1  0  0  0  0  0999 V2000
   28.3510  -22.0478  -15.3177 N   0  0  0  0  0  0  0  0  0  0  0  0
   27.5712  -20.9259  -14.8575 C   0  0  1  0  0  0  0  0  0  0  0  0
   26.8723  -20.3039  -16.0452 C   0  0  0  0  0  0  0  0  0  0  0  0
   27.8365  -19.6998  -16.9817 C   0  0  0  0  0  0  0  0  0  0  0  0
   28.0557  -20.1488  -18.1523 O   0  0  0  0  0  0  0  0  0  0  0  0
   26.6190  -21.3778  -13.8265 C   0  0  0  0  0  0  0  0  0  0  0  0
   26.0437  -22.4760  -13.9433 O   0  0  0  0  0  0  0  0  0  0  0  0
   28.5649  -18.5870  -16.6167 O   0  0  0  0  0  0  0  0  0  0  0  0
   26.3559  -20.5662  -12.7018 N   0  0  0  0  0  0  0  0  0  0  0  0
   25.3406  -20.8331  -11.7285 C   0  0  1  0  0  0  0  0  0  0  0  0
   25.6041  -20.2395  -10.3628 C   0  0  0  0  0  0  0  0  0  0  0  0
   26.8871  -20.6996   -9.7936 C   0  0  0  0  0  0  0  0  0  0  0  0
   27.7957  -21.5319  -10.4510 C   0  0  0  0  0  0  0  0  0  0  0  0
   28.8559  -21.7211   -9.6455 N   0  0  0  0  0  0  0  0  0  0  0  0
   28.6932  -21.0589   -8.4946 C   0  0  0  0  0  0  0  0  0  0  0  0
   29.4577  -20.9279   -7.3629 C   0  0  0  0  0  0  0  0  0  0  0  0
   29.0032  -20.1590   -6.3096 C   0  0  0  0  0  0  0  0  0  0  0  0
   27.7890  -19.5129   -6.3651 C   0  0  0  0  0  0  0  0  0  0  0  0
   27.0266  -19.6501   -7.5071 C   0  0  0  0  0  0  0  0  0  0  0  0
   27.4752  -20.4172   -8.5657 C   0  0  0  0  0  0  0  0  0  0  0  0
   23.9854  -20.4572  -12.2009 C   0  0  0  0  0  0  0  0  0  0  0  0
   23.7184  -19.2700  -12.5335 O   0  0  0  0  0  0  0  0  0  0  0  0
   21.4257  -23.3709  -13.4314 O   0  0  0  0  0  0  0  0  0  0  0  0
   21.2329  -22.0672  -13.9032 C   0  0  0  0  0  0  0  0  0  0  0  0
   21.6360  -21.1422  -12.7480 C   0  0  2  0  0  0  0  0  0  0  0  0
   22.9651  -21.4336  -12.2860 N   0  0  0  0  0  0  0  0  0  0  0  0
   20.6179  -21.1959  -11.6888 C   0  0  0  0  0  0  0  0  0  0  0  0
   19.2996  -20.8794  -11.9828 O   0  0  0  0  0  0  0  0  0  0  0  0
   20.9617  -21.5272  -10.5381 O   0  0  0  0  0  0  0  0  0  0  0  0
  2  1  1  6
  2  6  1  0
  3  2  1  0
  3  4  1  0
  4  8  1  0
  4  5  2  0
  6  7  2  0
  9 10  1  0
  9  6  1  0
 10 11  1  1
 12 11  1  0
 13 12  2  0
 14 13  1  0
 15 14  1  0
 15 20  2  0
 16 17  2  0
 16 15  1  0
 17 18  1  0
 18 19  2  0
 20 19  1  0
 20 12  1  0
 21 10  1  0
 21 22  2  0
 23 24  1  0
 25 24  1  6
 25 26  1  0
 25 27  1  0
 26 21  1  0
 27 29  2  0
 27 28  1  0
M  END
$$$$
