DWS.pdb
     RDKit          3D

 29 30  0  0  1  0  0  0  0  0999 V2000
   27.1113  -23.4509  -16.6551 N   0  0  0  0  0  0  0  0  0  0  0  0
   25.7696  -23.1319  -17.0754 C   0  0  1  0  0  0  0  0  0  0  0  0
   25.0789  -24.4090  -17.4969 C   0  0  0  0  0  0  0  0  0  0  0  0
   25.6435  -24.9378  -18.7513 C   0  0  0  0  0  0  0  0  0  0  0  0
   26.4395  -24.2810  -19.4962 O   0  0  0  0  0  0  0  0  0  0  0  0
   25.0584  -22.4518  -15.9775 C   0  0  0  0  0  0  0  0  0  0  0  0
   25.1338  -22.8916  -14.8150 O   0  0  0  0  0  0  0  0  0  0  0  0
   25.3223  -26.2074  -19.1840 O   0  0  0  0  0  0  0  0  0  0  0  0
   24.2884  -21.2982  -16.2405 N   0  0  0  0  0  0  0  0  0  0  0  0
   23.6723  -20.4872  -15.2345 C   0  0  1  0  0  0  0  0  0  0  0  0
   24.2096  -19.0763  -15.1451 C   0  0  0  0  0  0  0  0  0  0  0  0
   25.6653  -19.0493  -14.8968 C   0  0  0  0  0  0  0  0  0  0  0  0
   26.2711  -19.3789  -13.6823 C   0  0  0  0  0  0  0  0  0  0  0  0
   27.6031  -19.2655  -13.8291 N   0  0  0  0  0  0  0  0  0  0  0  0
   27.9055  -18.8790  -15.0736 C   0  0  0  0  0  0  0  0  0  0  0  0
   29.0861  -18.6188  -15.7222 C   0  0  0  0  0  0  0  0  0  0  0  0
   29.0724  -18.2197  -17.0444 C   0  0  0  0  0  0  0  0  0  0  0  0
   27.8919  -18.0740  -17.7371 C   0  0  0  0  0  0  0  0  0  0  0  0
   26.7092  -18.3378  -17.0770 C   0  0  0  0  0  0  0  0  0  0  0  0
   26.7149  -18.7384  -15.7541 C   0  0  0  0  0  0  0  0  0  0  0  0
   22.1929  -20.4692  -15.3438 C   0  0  0  0  0  0  0  0  0  0  0  0
   21.6231  -20.0708  -16.3964 O   0  0  0  0  0  0  0  0  0  0  0  0
   19.9052  -21.4249  -12.0155 O   0  0  0  0  0  0  0  0  0  0  0  0
   19.3809  -21.8621  -13.2375 C   0  0  0  0  0  0  0  0  0  0  0  0
   19.9575  -20.9179  -14.2999 C   0  0  2  0  0  0  0  0  0  0  0  0
   21.3938  -20.9029  -14.2599 N   0  0  0  0  0  0  0  0  0  0  0  0
   19.3493  -19.5863  -14.1653 C   0  0  0  0  0  0  0  0  0  0  0  0
   20.1481  -18.4891  -13.8785 O   0  0  0  0  0  0  0  0  0  0  0  0
   18.1178  -19.4682  -14.3126 O   0  0  0  0  0  0  0  0  0  0  0  0
  2  1  1  1
  2  6  1  0
  3  2  1  0
  3  4  1  0
  4  8  1  0
  4  5  2  0
  6  7  2  0
  9 10  1  0
  9  6  1  0
 10 11  1  6
 12 11  1  0
 13 12  2  0
 14 13  1  0
 15 14  1  0
 15 20  2  0
 16 17  2  0
 16 15  1  0
 17 18  1  0
 18 19  2  0
 20 19  1  0
 20 12  1  0
 21 10  1  0
 21 22  2  0
 23 24  1  0
 25 24  1  1
 25 26  1  0
 25 27  1  0
 26 21  1  0
 27 29  2  0
 27 28  1  0
M  END
$$$$
