DWS.pdb
     RDKit          3D

 29 30  0  0  1  0  0  0  0  0999 V2000
   27.6692  -22.7362  -15.2004 N   0  0  0  0  0  0  0  0  0  0  0  0
   27.3642  -21.4387  -14.6511 C   0  0  1  0  0  0  0  0  0  0  0  0
   26.3894  -20.7411  -15.5725 C   0  0  0  0  0  0  0  0  0  0  0  0
   27.0129  -20.4120  -16.8666 C   0  0  0  0  0  0  0  0  0  0  0  0
   28.1578  -19.8671  -16.9774 O   0  0  0  0  0  0  0  0  0  0  0  0
   26.8252  -21.5954  -13.2878 C   0  0  0  0  0  0  0  0  0  0  0  0
   26.0081  -22.5011  -13.0375 O   0  0  0  0  0  0  0  0  0  0  0  0
   26.3606  -20.6900  -18.0496 O   0  0  0  0  0  0  0  0  0  0  0  0
   27.2340  -20.7183  -12.2600 N   0  0  0  0  0  0  0  0  0  0  0  0
   26.6170  -20.6357  -10.9708 C   0  0  1  0  0  0  0  0  0  0  0  0
   27.3346  -19.7420   -9.9841 C   0  0  0  0  0  0  0  0  0  0  0  0
   26.7287  -19.7989   -8.6382 C   0  0  0  0  0  0  0  0  0  0  0  0
   25.3603  -19.6988   -8.3774 C   0  0  0  0  0  0  0  0  0  0  0  0
   25.1725  -19.8163   -7.0509 N   0  0  0  0  0  0  0  0  0  0  0  0
   26.3428  -19.9877   -6.4260 C   0  0  0  0  0  0  0  0  0  0  0  0
   26.6975  -20.1490   -5.1105 C   0  0  0  0  0  0  0  0  0  0  0  0
   28.0271  -20.3005   -4.7690 C   0  0  0  0  0  0  0  0  0  0  0  0
   29.0180  -20.2936   -5.7244 C   0  0  0  0  0  0  0  0  0  0  0  0
   28.6523  -20.1309   -7.0450 C   0  0  0  0  0  0  0  0  0  0  0  0
   27.3237  -19.9796   -7.3946 C   0  0  0  0  0  0  0  0  0  0  0  0
   25.1815  -20.2692  -11.0484 C   0  0  0  0  0  0  0  0  0  0  0  0
   24.8172  -19.1670  -11.5420 O   0  0  0  0  0  0  0  0  0  0  0  0
   21.9633  -20.7279  -12.8840 O   0  0  0  0  0  0  0  0  0  0  0  0
   22.1943  -21.6839  -11.8880 C   0  0  0  0  0  0  0  0  0  0  0  0
   22.7833  -20.9135  -10.6997 C   0  0  2  0  0  0  0  0  0  0  0  0
   24.1929  -21.1589  -10.5661 N   0  0  0  0  0  0  0  0  0  0  0  0
   22.0143  -21.2116   -9.4827 C   0  0  0  0  0  0  0  0  0  0  0  0
   20.6410  -21.0161   -9.4696 O   0  0  0  0  0  0  0  0  0  0  0  0
   22.6160  -21.6374   -8.4784 O   0  0  0  0  0  0  0  0  0  0  0  0
  2  1  1  6
  2  6  1  0
  3  2  1  0
  3  4  1  0
  4  8  1  0
  4  5  2  0
  6  7  2  0
  9 10  1  0
  9  6  1  0
 10 11  1  1
 12 11  1  0
 13 12  2  0
 14 13  1  0
 15 14  1  0
 15 20  2  0
 16 17  2  0
 16 15  1  0
 17 18  1  0
 18 19  2  0
 20 19  1  0
 20 12  1  0
 21 10  1  0
 21 22  2  0
 23 24  1  0
 25 24  1  6
 25 26  1  0
 25 27  1  0
 26 21  1  0
 27 29  2  0
 27 28  1  0
M  END
$$$$
