DWS.pdb
     RDKit          3D

 29 30  0  0  1  0  0  0  0  0999 V2000
   30.0869  -23.1589  -19.5658 N   0  0  0  0  0  0  0  0  0  0  0  0
   31.4086  -22.9684  -20.1092 C   0  0  1  0  0  0  0  0  0  0  0  0
   31.6523  -21.4859  -20.2784 C   0  0  0  0  0  0  0  0  0  0  0  0
   30.8492  -20.9307  -21.3823 C   0  0  0  0  0  0  0  0  0  0  0  0
   30.1446  -21.6433  -22.1670 O   0  0  0  0  0  0  0  0  0  0  0  0
   32.4022  -23.5968  -19.2194 C   0  0  0  0  0  0  0  0  0  0  0  0
   33.5310  -23.0891  -19.0833 O   0  0  0  0  0  0  0  0  0  0  0  0
   30.8271  -19.5721  -21.6185 O   0  0  0  0  0  0  0  0  0  0  0  0
   32.0770  -24.7778  -18.5177 N   0  0  0  0  0  0  0  0  0  0  0  0
   32.9479  -25.4378  -17.5929 C   0  0  1  0  0  0  0  0  0  0  0  0
   32.4120  -25.5367  -16.1821 C   0  0  0  0  0  0  0  0  0  0  0  0
   30.9556  -25.7817  -16.1554 C   0  0  0  0  0  0  0  0  0  0  0  0
   30.3630  -27.0323  -15.9670 C   0  0  0  0  0  0  0  0  0  0  0  0
   29.0276  -26.8737  -15.9766 N   0  0  0  0  0  0  0  0  0  0  0  0
   28.7105  -25.5873  -16.1613 C   0  0  0  0  0  0  0  0  0  0  0  0
   27.5205  -24.9106  -16.2531 C   0  0  0  0  0  0  0  0  0  0  0  0
   27.5186  -23.5448  -16.4585 C   0  0  0  0  0  0  0  0  0  0  0  0
   28.6927  -22.8358  -16.5753 C   0  0  0  0  0  0  0  0  0  0  0  0
   29.8849  -23.5243  -16.4816 C   0  0  0  0  0  0  0  0  0  0  0  0
   29.8948  -24.8910  -16.2753 C   0  0  0  0  0  0  0  0  0  0  0  0
   33.3835  -26.7722  -18.0732 C   0  0  0  0  0  0  0  0  0  0  0  0
   32.5587  -27.5842  -18.5748 O   0  0  0  0  0  0  0  0  0  0  0  0
   37.2336  -28.0437  -17.2738 O   0  0  0  0  0  0  0  0  0  0  0  0
   36.7635  -28.4266  -18.5354 C   0  0  0  0  0  0  0  0  0  0  0  0
   35.2334  -28.4276  -18.4272 C   0  0  2  0  0  0  0  0  0  0  0  0
   34.7418  -27.1553  -17.9749 N   0  0  0  0  0  0  0  0  0  0  0  0
   34.7938  -29.5591  -17.5978 C   0  0  0  0  0  0  0  0  0  0  0  0
   35.2120  -30.8449  -17.9079 O   0  0  0  0  0  0  0  0  0  0  0  0
   34.0478  -29.3392  -16.6245 O   0  0  0  0  0  0  0  0  0  0  0  0
  2  1  1  1
  2  6  1  0
  3  2  1  0
  3  4  1  0
  4  8  1  0
  4  5  2  0
  6  7  2  0
  9 10  1  0
  9  6  1  0
 10 11  1  1
 12 11  1  0
 13 12  2  0
 14 13  1  0
 15 14  1  0
 15 20  2  0
 16 17  2  0
 16 15  1  0
 17 18  1  0
 18 19  2  0
 20 19  1  0
 20 12  1  0
 21 10  1  0
 21 22  2  0
 23 24  1  0
 25 24  1  1
 25 26  1  0
 25 27  1  0
 26 21  1  0
 27 29  2  0
 27 28  1  0
M  END
$$$$
