DWS.pdb
     RDKit          3D

 29 30  0  0  1  0  0  0  0  0999 V2000
   22.1669  -22.3420  -12.5092 N   0  0  0  0  0  0  0  0  0  0  0  0
   22.1767  -20.9076  -12.6531 C   0  0  1  0  0  0  0  0  0  0  0  0
   21.3224  -20.3065  -11.5601 C   0  0  0  0  0  0  0  0  0  0  0  0
   19.9368  -20.8041  -11.6248 C   0  0  0  0  0  0  0  0  0  0  0  0
   19.4327  -21.3491  -12.6586 O   0  0  0  0  0  0  0  0  0  0  0  0
   23.5664  -20.4174  -12.6050 C   0  0  0  0  0  0  0  0  0  0  0  0
   23.8000  -19.1943  -12.6168 O   0  0  0  0  0  0  0  0  0  0  0  0
   19.1018  -20.6964  -10.5323 O   0  0  0  0  0  0  0  0  0  0  0  0
   24.6385  -21.3339  -12.5453 N   0  0  0  0  0  0  0  0  0  0  0  0
   26.0219  -20.9670  -12.5716 C   0  0  1  0  0  0  0  0  0  0  0  0
   26.8768  -21.6539  -11.5302 C   0  0  0  0  0  0  0  0  0  0  0  0
   26.6899  -21.0734  -10.1849 C   0  0  0  0  0  0  0  0  0  0  0  0
   25.4939  -20.5278   -9.7134 C   0  0  0  0  0  0  0  0  0  0  0  0
   25.6851  -20.1198   -8.4463 N   0  0  0  0  0  0  0  0  0  0  0  0
   26.9417  -20.3671   -8.0598 C   0  0  0  0  0  0  0  0  0  0  0  0
   27.6334  -20.1467   -6.8956 C   0  0  0  0  0  0  0  0  0  0  0  0
   28.9605  -20.5176   -6.8020 C   0  0  0  0  0  0  0  0  0  0  0  0
   29.6158  -21.1092   -7.8581 C   0  0  0  0  0  0  0  0  0  0  0  0
   28.9124  -21.3272   -9.0251 C   0  0  0  0  0  0  0  0  0  0  0  0
   27.5838  -20.9595   -9.1260 C   0  0  0  0  0  0  0  0  0  0  0  0
   26.6268  -21.1204  -13.9175 C   0  0  0  0  0  0  0  0  0  0  0  0
   26.6473  -22.2403  -14.4977 O   0  0  0  0  0  0  0  0  0  0  0  0
   28.8903  -18.0991  -15.5264 O   0  0  0  0  0  0  0  0  0  0  0  0
   27.9869  -18.6363  -16.4508 C   0  0  0  0  0  0  0  0  0  0  0  0
   27.6508  -20.0417  -15.9364 C   0  0  2  0  0  0  0  0  0  0  0  0
   27.1935  -20.0030  -14.5747 N   0  0  0  0  0  0  0  0  0  0  0  0
   28.7975  -20.9370  -16.1488 C   0  0  0  0  0  0  0  0  0  0  0  0
   29.2692  -21.1601  -17.4341 O   0  0  0  0  0  0  0  0  0  0  0  0
   29.3275  -21.4824  -15.1620 O   0  0  0  0  0  0  0  0  0  0  0  0
  2  1  1  1
  2  6  1  0
  3  2  1  0
  3  4  1  0
  4  8  1  0
  4  5  2  0
  6  7  2  0
  9 10  1  0
  9  6  1  0
 10 11  1  1
 12 11  1  0
 13 12  2  0
 14 13  1  0
 15 14  1  0
 15 20  2  0
 16 17  2  0
 16 15  1  0
 17 18  1  0
 18 19  2  0
 20 19  1  0
 20 12  1  0
 21 10  1  0
 21 22  2  0
 23 24  1  0
 25 24  1  1
 25 26  1  0
 25 27  1  0
 26 21  1  0
 27 29  2  0
 27 28  1  0
M  END
$$$$
