DWS.pdb
     RDKit          3D

 29 30  0  0  1  0  0  0  0  0999 V2000
   28.0295  -21.3729  -15.1730 N   0  0  0  0  0  0  0  0  0  0  0  0
   27.2055  -20.3464  -14.5849 C   0  0  1  0  0  0  0  0  0  0  0  0
   26.5592  -19.5503  -15.6959 C   0  0  0  0  0  0  0  0  0  0  0  0
   27.5202  -18.6284  -16.3271 C   0  0  0  0  0  0  0  0  0  0  0  0
   28.4332  -19.0053  -17.1298 O   0  0  0  0  0  0  0  0  0  0  0  0
   26.2085  -20.9662  -13.6929 C   0  0  0  0  0  0  0  0  0  0  0  0
   25.6105  -22.0003  -14.0444 O   0  0  0  0  0  0  0  0  0  0  0  0
   27.4684  -17.2752  -16.0657 O   0  0  0  0  0  0  0  0  0  0  0  0
   25.9279  -20.3888  -12.4356 N   0  0  0  0  0  0  0  0  0  0  0  0
   24.9516  -20.8861  -11.5142 C   0  0  1  0  0  0  0  0  0  0  0  0
   25.1672  -20.4644  -10.0779 C   0  0  0  0  0  0  0  0  0  0  0  0
   26.5373  -20.7581   -9.6108 C   0  0  0  0  0  0  0  0  0  0  0  0
   27.4567  -21.5561  -10.2951 C   0  0  0  0  0  0  0  0  0  0  0  0
   28.6020  -21.5816   -9.5906 N   0  0  0  0  0  0  0  0  0  0  0  0
   28.4850  -20.8442   -8.4806 C   0  0  0  0  0  0  0  0  0  0  0  0
   29.3369  -20.5518   -7.4456 C   0  0  0  0  0  0  0  0  0  0  0  0
   28.9110  -19.7430   -6.4103 C   0  0  0  0  0  0  0  0  0  0  0  0
   27.6395  -19.2162   -6.3884 C   0  0  0  0  0  0  0  0  0  0  0  0
   26.7894  -19.5154   -7.4334 C   0  0  0  0  0  0  0  0  0  0  0  0
   27.2087  -20.3234   -8.4735 C   0  0  0  0  0  0  0  0  0  0  0  0
   23.5623  -20.5830  -11.9372 C   0  0  0  0  0  0  0  0  0  0  0  0
   23.1057  -19.4086  -11.8778 O   0  0  0  0  0  0  0  0  0  0  0  0
   21.0801  -23.6821  -13.2079 O   0  0  0  0  0  0  0  0  0  0  0  0
   20.9713  -22.4732  -13.9052 C   0  0  0  0  0  0  0  0  0  0  0  0
   21.3956  -21.3815  -12.9149 C   0  0  2  0  0  0  0  0  0  0  0  0
   22.7233  -21.6158  -12.4177 N   0  0  0  0  0  0  0  0  0  0  0  0
   20.3837  -21.2489  -11.8567 C   0  0  0  0  0  0  0  0  0  0  0  0
   19.0765  -20.9248  -12.1893 O   0  0  0  0  0  0  0  0  0  0  0  0
   20.7228  -21.4315  -10.6719 O   0  0  0  0  0  0  0  0  0  0  0  0
  2  1  1  6
  2  6  1  0
  3  2  1  0
  3  4  1  0
  4  8  1  0
  4  5  2  0
  6  7  2  0
  9 10  1  0
  9  6  1  0
 10 11  1  1
 12 11  1  0
 13 12  2  0
 14 13  1  0
 15 14  1  0
 15 20  2  0
 16 17  2  0
 16 15  1  0
 17 18  1  0
 18 19  2  0
 20 19  1  0
 20 12  1  0
 21 10  1  0
 21 22  2  0
 23 24  1  0
 25 24  1  6
 25 26  1  0
 25 27  1  0
 26 21  1  0
 27 29  2  0
 27 28  1  0
M  END
$$$$
