DWS.pdb
     RDKit          3D

 29 30  0  0  1  0  0  0  0  0999 V2000
   16.1903  -10.9735  -10.2256 N   0  0  0  0  0  0  0  0  0  0  0  0
   15.5852   -9.7453  -10.6772 C   0  0  1  0  0  0  0  0  0  0  0  0
   14.1465   -9.7164  -10.2132 C   0  0  0  0  0  0  0  0  0  0  0  0
   13.3497  -10.7716  -10.8638 C   0  0  0  0  0  0  0  0  0  0  0  0
   13.5884  -11.2130  -12.0334 O   0  0  0  0  0  0  0  0  0  0  0  0
   16.3574   -8.5985  -10.1649 C   0  0  0  0  0  0  0  0  0  0  0  0
   16.5482   -8.4682   -8.9413 O   0  0  0  0  0  0  0  0  0  0  0  0
   12.2776  -11.3432  -10.2109 O   0  0  0  0  0  0  0  0  0  0  0  0
   16.8839   -7.6429  -11.0607 N   0  0  0  0  0  0  0  0  0  0  0  0
   17.6038   -6.4704  -10.6654 C   0  0  1  0  0  0  0  0  0  0  0  0
   18.8306   -6.1726  -11.4981 C   0  0  0  0  0  0  0  0  0  0  0  0
   19.8943   -7.1786  -11.3024 C   0  0  0  0  0  0  0  0  0  0  0  0
   20.4456   -7.5227  -10.0663 C   0  0  0  0  0  0  0  0  0  0  0  0
   21.3646   -8.4842  -10.2655 N   0  0  0  0  0  0  0  0  0  0  0  0
   21.4473   -8.7903  -11.5651 C   0  0  0  0  0  0  0  0  0  0  0  0
   22.2115   -9.6769  -12.2809 C   0  0  0  0  0  0  0  0  0  0  0  0
   22.0686   -9.7593  -13.6521 C   0  0  0  0  0  0  0  0  0  0  0  0
   21.1694   -8.9660  -14.3281 C   0  0  0  0  0  0  0  0  0  0  0  0
   20.4049   -8.0771  -13.6004 C   0  0  0  0  0  0  0  0  0  0  0  0
   20.5417   -7.9896  -12.2278 C   0  0  0  0  0  0  0  0  0  0  0  0
   16.7357   -5.2704  -10.5795 C   0  0  0  0  0  0  0  0  0  0  0  0
   16.1558   -4.8124  -11.6019 O   0  0  0  0  0  0  0  0  0  0  0  0
   14.4035   -2.2193   -7.6650 O   0  0  0  0  0  0  0  0  0  0  0  0
   15.3357   -3.2632   -7.6891 C   0  0  0  0  0  0  0  0  0  0  0  0
   15.6618   -3.4964   -9.1696 C   0  0  2  0  0  0  0  0  0  0  0  0
   16.5441   -4.6179   -9.3389 N   0  0  0  0  0  0  0  0  0  0  0  0
   16.1659   -2.2528   -9.7702 C   0  0  0  0  0  0  0  0  0  0  0  0
   15.2763   -1.2521  -10.1326 O   0  0  0  0  0  0  0  0  0  0  0  0
   17.3926   -2.1210   -9.9435 O   0  0  0  0  0  0  0  0  0  0  0  0
  2  1  1  1
  2  6  1  0
  3  2  1  0
  3  4  1  0
  4  8  1  0
  4  5  2  0
  6  7  2  0
  9 10  1  0
  9  6  1  0
 10 11  1  6
 12 11  1  0
 13 12  2  0
 14 13  1  0
 15 14  1  0
 15 20  2  0
 16 17  2  0
 16 15  1  0
 17 18  1  0
 18 19  2  0
 20 19  1  0
 20 12  1  0
 21 10  1  0
 21 22  2  0
 23 24  1  0
 25 24  1  1
 25 26  1  0
 25 27  1  0
 26 21  1  0
 27 29  2  0
 27 28  1  0
M  END
$$$$
