DWS.pdb
     RDKit          3D

 29 30  0  0  1  0  0  0  0  0999 V2000
   23.2116  -22.3372  -13.2468 N   0  0  0  0  0  0  0  0  0  0  0  0
   23.0803  -20.9248  -12.9892 C   0  0  1  0  0  0  0  0  0  0  0  0
   21.9919  -20.7207  -11.9598 C   0  0  0  0  0  0  0  0  0  0  0  0
   20.6852  -21.1850  -12.4586 C   0  0  0  0  0  0  0  0  0  0  0  0
   20.3233  -22.4053  -12.4527 O   0  0  0  0  0  0  0  0  0  0  0  0
   24.3766  -20.3832  -12.5420 C   0  0  0  0  0  0  0  0  0  0  0  0
   24.4951  -19.1694  -12.2902 O   0  0  0  0  0  0  0  0  0  0  0  0
   19.7707  -20.2875  -12.9688 O   0  0  0  0  0  0  0  0  0  0  0  0
   25.4895  -21.2396  -12.3974 N   0  0  0  0  0  0  0  0  0  0  0  0
   26.8041  -20.8068  -12.0314 C   0  0  1  0  0  0  0  0  0  0  0  0
   27.3879  -21.5117  -10.8274 C   0  0  0  0  0  0  0  0  0  0  0  0
   26.8938  -20.9448   -9.5562 C   0  0  0  0  0  0  0  0  0  0  0  0
   25.6030  -20.4513   -9.3541 C   0  0  0  0  0  0  0  0  0  0  0  0
   25.5017  -20.0407   -8.0775 N   0  0  0  0  0  0  0  0  0  0  0  0
   26.6557  -20.2372   -7.4299 C   0  0  0  0  0  0  0  0  0  0  0  0
   27.0727  -19.9930   -6.1458 C   0  0  0  0  0  0  0  0  0  0  0  0
   28.3632  -20.3089   -5.7687 C   0  0  0  0  0  0  0  0  0  0  0  0
   29.2532  -20.8685   -6.6573 C   0  0  0  0  0  0  0  0  0  0  0  0
   28.8253  -21.1108   -7.9467 C   0  0  0  0  0  0  0  0  0  0  0  0
   27.5350  -20.7982   -8.3312 C   0  0  0  0  0  0  0  0  0  0  0  0
   27.7566  -20.8536  -13.1678 C   0  0  0  0  0  0  0  0  0  0  0  0
   28.6257  -21.7640  -13.2512 O   0  0  0  0  0  0  0  0  0  0  0  0
   26.8430  -20.9904  -16.8007 O   0  0  0  0  0  0  0  0  0  0  0  0
   28.0664  -21.2550  -16.1740 C   0  0  0  0  0  0  0  0  0  0  0  0
   28.4323  -19.9726  -15.4162 C   0  0  2  0  0  0  0  0  0  0  0  0
   27.7023  -19.8695  -14.1828 N   0  0  0  0  0  0  0  0  0  0  0  0
   28.2673  -18.8086  -16.2990 C   0  0  0  0  0  0  0  0  0  0  0  0
   29.0228  -18.7096  -17.4582 O   0  0  0  0  0  0  0  0  0  0  0  0
   27.4453  -17.9262  -15.9860 O   0  0  0  0  0  0  0  0  0  0  0  0
  2  1  1  1
  2  6  1  0
  3  2  1  0
  3  4  1  0
  4  8  1  0
  4  5  2  0
  6  7  2  0
  9 10  1  0
  9  6  1  0
 10 11  1  1
 12 11  1  0
 13 12  2  0
 14 13  1  0
 15 14  1  0
 15 20  2  0
 16 17  2  0
 16 15  1  0
 17 18  1  0
 18 19  2  0
 20 19  1  0
 20 12  1  0
 21 10  1  0
 21 22  2  0
 23 24  1  0
 25 24  1  6
 25 26  1  0
 25 27  1  0
 26 21  1  0
 27 29  2  0
 27 28  1  0
M  END
$$$$
