GTW.pdb
     RDKit          3D

 26 27  0  0  1  0  0  0  0  0999 V2000
    8.3233  -12.3011   18.1458 N   0  0  0  0  0  0  0  0  0  0  0  0
    9.0025  -13.5371   18.4722 C   0  0  0  0  0  0  0  0  0  0  0  0
    8.5000  -14.0456   19.7823 C   0  0  0  0  0  0  0  0  0  0  0  0
    7.9441  -13.2684   20.6080 O   0  0  0  0  0  0  0  0  0  0  0  0
    6.7489  -17.5528   19.9361 C   0  0  0  0  0  0  0  0  0  0  0  0
    7.8414  -17.4550   20.9684 C   0  0  1  0  0  0  0  0  0  0  0  0
    8.9765  -18.1716   20.6432 O   0  0  0  0  0  0  0  0  0  0  0  0
    8.1296  -15.9879   21.2651 C   0  0  2  0  0  0  0  0  0  0  0  0
    8.6723  -15.4240   20.0551 N   0  0  0  0  0  0  0  0  0  0  0  0
    9.1527  -15.9542   22.3466 C   0  0  0  0  0  0  0  0  0  0  0  0
   10.3808  -15.8961   22.0368 O   0  0  0  0  0  0  0  0  0  0  0  0
    8.8107  -15.9844   23.7023 N   0  0  0  0  0  0  0  0  0  0  0  0
    9.8606  -16.0524   24.7431 C   0  0  1  0  0  0  0  0  0  0  0  0
    9.5764  -14.9097   25.6530 C   0  0  0  0  0  0  0  0  0  0  0  0
    8.1738  -14.5803   25.9016 C   0  0  0  0  0  0  0  0  0  0  0  0
    7.1332  -15.4950   25.9363 C   0  0  0  0  0  0  0  0  0  0  0  0
    5.9886  -14.8317   26.1578 N   0  0  0  0  0  0  0  0  0  0  0  0
    6.2437  -13.5212   26.2694 C   0  0  0  0  0  0  0  0  0  0  0  0
    5.4001  -12.4356   26.5121 C   0  0  0  0  0  0  0  0  0  0  0  0
    5.9826  -11.1969   26.5876 C   0  0  0  0  0  0  0  0  0  0  0  0
    7.3353  -11.0099   26.4342 C   0  0  0  0  0  0  0  0  0  0  0  0
    8.1624  -12.0758   26.1953 C   0  0  0  0  0  0  0  0  0  0  0  0
    7.5979  -13.3425   26.1135 C   0  0  0  0  0  0  0  0  0  0  0  0
    9.8872  -17.3889   25.3132 C   0  0  0  0  0  0  0  0  0  0  0  0
   10.9100  -17.8184   26.1408 O   0  0  0  0  0  0  0  0  0  0  0  0
    8.9684  -18.2098   25.0642 O   0  0  0  0  0  0  0  0  0  0  0  0
  2  1  1  0
  3  9  1  0
  3  2  1  0
  4  3  2  0
  6  5  1  6
  6  8  1  0
  7  6  1  0
  8 10  1  0
  8  9  1  6
 10 12  1  0
 11 10  2  0
 12 13  1  0
 13 14  1  1
 14 15  1  0
 15 23  1  0
 15 16  2  0
 16 17  1  0
 17 18  1  0
 18 19  2  0
 20 19  1  0
 21 20  2  0
 22 23  2  0
 22 21  1  0
 23 18  1  0
 24 25  1  0
 24 13  1  0
 26 24  2  0
M  END
$$$$
