GTW.pdb
     RDKit          3D

 26 27  0  0  1  0  0  0  0  0999 V2000
    7.4758  -12.5722   18.0773 N   0  0  0  0  0  0  0  0  0  0  0  0
    8.6298  -13.0662   18.7984 C   0  0  0  0  0  0  0  0  0  0  0  0
    8.1825  -14.0348   19.8419 C   0  0  0  0  0  0  0  0  0  0  0  0
    6.9912  -14.0304   20.2611 O   0  0  0  0  0  0  0  0  0  0  0  0
    8.2980  -17.5808   19.4648 C   0  0  0  0  0  0  0  0  0  0  0  0
    9.1499  -17.3022   20.6753 C   0  0  1  0  0  0  0  0  0  0  0  0
   10.5062  -17.3980   20.4322 O   0  0  0  0  0  0  0  0  0  0  0  0
    8.7481  -15.9626   21.2815 C   0  0  2  0  0  0  0  0  0  0  0  0
    9.1433  -14.9497   20.3357 N   0  0  0  0  0  0  0  0  0  0  0  0
    9.5187  -15.8072   22.5463 C   0  0  0  0  0  0  0  0  0  0  0  0
   10.5818  -15.1165   22.5437 O   0  0  0  0  0  0  0  0  0  0  0  0
    9.1134  -16.3978   23.7475 N   0  0  0  0  0  0  0  0  0  0  0  0
    9.8660  -16.1546   24.9983 C   0  0  1  0  0  0  0  0  0  0  0  0
    8.8430  -16.1959   26.0783 C   0  0  0  0  0  0  0  0  0  0  0  0
    7.6875  -15.3101   25.9448 C   0  0  0  0  0  0  0  0  0  0  0  0
    6.3995  -15.7192   25.6377 C   0  0  0  0  0  0  0  0  0  0  0  0
    5.6121  -14.6356   25.5685 N   0  0  0  0  0  0  0  0  0  0  0  0
    6.3371  -13.5372   25.8192 C   0  0  0  0  0  0  0  0  0  0  0  0
    5.9780  -12.1895   25.8775 C   0  0  0  0  0  0  0  0  0  0  0  0
    6.9688  -11.2917   26.1808 C   0  0  0  0  0  0  0  0  0  0  0  0
    8.2648  -11.6803   26.4204 C   0  0  0  0  0  0  0  0  0  0  0  0
    8.6166  -13.0033   26.3623 C   0  0  0  0  0  0  0  0  0  0  0  0
    7.6319  -13.9342   26.0564 C   0  0  0  0  0  0  0  0  0  0  0  0
   10.9805  -17.0839   25.0777 C   0  0  0  0  0  0  0  0  0  0  0  0
   12.0582  -16.8740   25.9202 O   0  0  0  0  0  0  0  0  0  0  0  0
   11.0009  -18.1215   24.3686 O   0  0  0  0  0  0  0  0  0  0  0  0
  2  1  1  0
  3  9  1  0
  3  2  1  0
  4  3  2  0
  6  5  1  6
  6  8  1  0
  7  6  1  0
  8 10  1  0
  8  9  1  6
 10 12  1  0
 11 10  2  0
 12 13  1  0
 13 14  1  1
 14 15  1  0
 15 23  1  0
 15 16  2  0
 16 17  1  0
 17 18  1  0
 18 19  2  0
 20 19  1  0
 21 20  2  0
 22 23  2  0
 22 21  1  0
 23 18  1  0
 24 25  1  0
 24 13  1  0
 26 24  2  0
M  END
$$$$
