GTW.pdb
     RDKit          3D

 26 27  0  0  1  0  0  0  0  0999 V2000
    7.9666  -12.1787   18.6107 N   0  0  0  0  0  0  0  0  0  0  0  0
    8.8204  -13.3124   18.8958 C   0  0  0  0  0  0  0  0  0  0  0  0
    8.3713  -13.9627   20.1618 C   0  0  0  0  0  0  0  0  0  0  0  0
    7.5427  -13.3913   20.9244 O   0  0  0  0  0  0  0  0  0  0  0  0
    7.3912  -18.1942   22.1026 C   0  0  0  0  0  0  0  0  0  0  0  0
    8.1444  -17.4054   21.0638 C   0  0  1  0  0  0  0  0  0  0  0  0
    7.5578  -17.4338   19.8136 O   0  0  0  0  0  0  0  0  0  0  0  0
    8.3834  -15.9898   21.5759 C   0  0  2  0  0  0  0  0  0  0  0  0
    8.9100  -15.2360   20.4664 N   0  0  0  0  0  0  0  0  0  0  0  0
    9.4023  -16.0833   22.6578 C   0  0  0  0  0  0  0  0  0  0  0  0
   10.6330  -16.0655   22.3538 O   0  0  0  0  0  0  0  0  0  0  0  0
    9.0534  -16.1909   24.0079 N   0  0  0  0  0  0  0  0  0  0  0  0
   10.0985  -16.2434   25.0544 C   0  0  1  0  0  0  0  0  0  0  0  0
    9.4690  -15.6371   26.2589 C   0  0  0  0  0  0  0  0  0  0  0  0
    8.1181  -15.0975   26.1126 C   0  0  0  0  0  0  0  0  0  0  0  0
    6.9716  -15.8546   25.9308 C   0  0  0  0  0  0  0  0  0  0  0  0
    5.9263  -15.0235   25.8052 N   0  0  0  0  0  0  0  0  0  0  0  0
    6.3475  -13.7551   25.8988 C   0  0  0  0  0  0  0  0  0  0  0  0
    5.6509  -12.5465   25.8460 C   0  0  0  0  0  0  0  0  0  0  0  0
    6.3829  -11.3969   25.9947 C   0  0  0  0  0  0  0  0  0  0  0  0
    7.7432  -11.4112   26.1880 C   0  0  0  0  0  0  0  0  0  0  0  0
    8.4263  -12.5979   26.2389 C   0  0  0  0  0  0  0  0  0  0  0  0
    7.7088  -13.7781   26.0906 C   0  0  0  0  0  0  0  0  0  0  0  0
   10.6064  -17.6010   25.1596 C   0  0  0  0  0  0  0  0  0  0  0  0
    9.9422  -18.6825   24.6079 O   0  0  0  0  0  0  0  0  0  0  0  0
   11.6802  -17.8376   25.7686 O   0  0  0  0  0  0  0  0  0  0  0  0
  2  1  1  0
  3  9  1  0
  3  2  1  0
  4  3  2  0
  6  5  1  1
  6  8  1  0
  7  6  1  0
  8 10  1  0
  8  9  1  6
 10 12  1  0
 11 10  2  0
 12 13  1  0
 13 14  1  1
 14 15  1  0
 15 23  1  0
 15 16  2  0
 16 17  1  0
 17 18  1  0
 18 19  2  0
 20 19  1  0
 21 20  2  0
 22 23  2  0
 22 21  1  0
 23 18  1  0
 24 25  1  0
 24 13  1  0
 26 24  2  0
M  END
$$$$
