GTW.pdb
     RDKit          3D

 26 27  0  0  1  0  0  0  0  0999 V2000
   12.2930  -17.4062   17.8483 N   0  0  0  0  0  0  0  0  0  0  0  0
   11.2872  -17.9135   18.7575 C   0  0  0  0  0  0  0  0  0  0  0  0
   10.8471  -16.8166   19.6688 C   0  0  0  0  0  0  0  0  0  0  0  0
   11.5640  -15.7913   19.8409 O   0  0  0  0  0  0  0  0  0  0  0  0
    7.2684  -15.2064   20.0053 C   0  0  0  0  0  0  0  0  0  0  0  0
    7.6740  -15.9432   21.2549 C   0  0  1  0  0  0  0  0  0  0  0  0
    7.0633  -17.1741   21.3951 O   0  0  0  0  0  0  0  0  0  0  0  0
    9.1945  -16.0227   21.3264 C   0  0  2  0  0  0  0  0  0  0  0  0
    9.6027  -16.9751   20.3249 N   0  0  0  0  0  0  0  0  0  0  0  0
    9.5417  -16.5294   22.6829 C   0  0  0  0  0  0  0  0  0  0  0  0
   10.0695  -17.6762   22.8001 O   0  0  0  0  0  0  0  0  0  0  0  0
    9.3070  -15.7848   23.8432 N   0  0  0  0  0  0  0  0  0  0  0  0
    9.7123  -16.3057   25.1679 C   0  0  1  0  0  0  0  0  0  0  0  0
    9.4337  -15.1967   26.1202 C   0  0  0  0  0  0  0  0  0  0  0  0
    8.0510  -14.7341   26.2285 C   0  0  0  0  0  0  0  0  0  0  0  0
    6.9281  -15.5306   26.0684 C   0  0  0  0  0  0  0  0  0  0  0  0
    5.8368  -14.7631   26.2066 N   0  0  0  0  0  0  0  0  0  0  0  0
    6.2055  -13.4984   26.4510 C   0  0  0  0  0  0  0  0  0  0  0  0
    5.4509  -12.3463   26.6788 C   0  0  0  0  0  0  0  0  0  0  0  0
    6.1401  -11.1860   26.9202 C   0  0  0  0  0  0  0  0  0  0  0  0
    7.5131  -11.1373   26.9413 C   0  0  0  0  0  0  0  0  0  0  0  0
    8.2531  -12.2685   26.7169 C   0  0  0  0  0  0  0  0  0  0  0  0
    7.5796  -13.4580   26.4692 C   0  0  0  0  0  0  0  0  0  0  0  0
    9.0634  -17.5850   25.4009 C   0  0  0  0  0  0  0  0  0  0  0  0
    9.5179  -18.4808   26.3529 O   0  0  0  0  0  0  0  0  0  0  0  0
    8.0553  -17.9233   24.7306 O   0  0  0  0  0  0  0  0  0  0  0  0
  2  1  1  0
  3  9  1  0
  3  2  1  0
  4  3  2  0
  6  5  1  6
  6  8  1  0
  7  6  1  0
  8 10  1  0
  8  9  1  6
 10 12  1  0
 11 10  2  0
 12 13  1  0
 13 14  1  1
 14 15  1  0
 15 23  1  0
 15 16  2  0
 16 17  1  0
 17 18  1  0
 18 19  2  0
 20 19  1  0
 21 20  2  0
 22 23  2  0
 22 21  1  0
 23 18  1  0
 24 25  1  0
 24 13  1  0
 26 24  2  0
M  END
$$$$
