GTW.pdb
     RDKit          3D

 26 27  0  0  1  0  0  0  0  0999 V2000
    7.2341  -13.0632   17.7700 N   0  0  0  0  0  0  0  0  0  0  0  0
    8.3509  -13.2934   18.6618 C   0  0  0  0  0  0  0  0  0  0  0  0
    7.9615  -14.3016   19.6908 C   0  0  0  0  0  0  0  0  0  0  0  0
    6.7471  -14.5803   19.8968 O   0  0  0  0  0  0  0  0  0  0  0  0
    8.5979  -17.5991   19.4794 C   0  0  0  0  0  0  0  0  0  0  0  0
    9.2942  -17.2581   20.7707 C   0  0  1  0  0  0  0  0  0  0  0  0
   10.6701  -17.2051   20.6611 O   0  0  0  0  0  0  0  0  0  0  0  0
    8.6947  -15.9815   21.3490 C   0  0  2  0  0  0  0  0  0  0  0  0
    9.0035  -14.9255   20.4182 N   0  0  0  0  0  0  0  0  0  0  0  0
    9.3753  -15.7298   22.6493 C   0  0  0  0  0  0  0  0  0  0  0  0
   10.2798  -14.8437   22.7145 O   0  0  0  0  0  0  0  0  0  0  0  0
    9.0541  -16.4376   23.8120 N   0  0  0  0  0  0  0  0  0  0  0  0
    9.7593  -16.1588   25.0829 C   0  0  1  0  0  0  0  0  0  0  0  0
    8.7160  -16.2789   26.1373 C   0  0  0  0  0  0  0  0  0  0  0  0
    7.5885  -15.3501   26.0770 C   0  0  0  0  0  0  0  0  0  0  0  0
    6.2983  -15.6847   25.6974 C   0  0  0  0  0  0  0  0  0  0  0  0
    5.5422  -14.5774   25.7314 N   0  0  0  0  0  0  0  0  0  0  0  0
    6.2897  -13.5352   26.1189 C   0  0  0  0  0  0  0  0  0  0  0  0
    5.9654  -12.1922   26.3185 C   0  0  0  0  0  0  0  0  0  0  0  0
    6.9718  -11.3630   26.7420 C   0  0  0  0  0  0  0  0  0  0  0  0
    8.2504  -11.8137   26.9661 C   0  0  0  0  0  0  0  0  0  0  0  0
    8.5680  -13.1320   26.7692 C   0  0  0  0  0  0  0  0  0  0  0  0
    7.5669  -13.9939   26.3396 C   0  0  0  0  0  0  0  0  0  0  0  0
   10.9306  -17.0136   25.1808 C   0  0  0  0  0  0  0  0  0  0  0  0
   11.1950  -18.0120   24.2597 O   0  0  0  0  0  0  0  0  0  0  0  0
   11.7500  -16.8716   26.1233 O   0  0  0  0  0  0  0  0  0  0  0  0
  2  1  1  0
  3  9  1  0
  3  2  1  0
  4  3  2  0
  6  5  1  6
  6  8  1  0
  7  6  1  0
  8 10  1  0
  8  9  1  6
 10 12  1  0
 11 10  2  0
 12 13  1  0
 13 14  1  1
 14 15  1  0
 15 23  1  0
 15 16  2  0
 16 17  1  0
 17 18  1  0
 18 19  2  0
 20 19  1  0
 21 20  2  0
 22 23  2  0
 22 21  1  0
 23 18  1  0
 24 25  1  0
 24 13  1  0
 26 24  2  0
M  END
$$$$
