GTW.pdb
     RDKit          3D

 26 27  0  0  1  0  0  0  0  0999 V2000
    7.5588  -12.8149   17.8991 N   0  0  0  0  0  0  0  0  0  0  0  0
    8.5604  -13.0313   18.9216 C   0  0  0  0  0  0  0  0  0  0  0  0
    8.1160  -14.1350   19.8225 C   0  0  0  0  0  0  0  0  0  0  0  0
    6.8967  -14.4537   19.9027 O   0  0  0  0  0  0  0  0  0  0  0  0
    8.4448  -17.4067   19.4720 C   0  0  0  0  0  0  0  0  0  0  0  0
    9.2512  -17.1703   20.7220 C   0  0  1  0  0  0  0  0  0  0  0  0
   10.6156  -17.1586   20.5072 O   0  0  0  0  0  0  0  0  0  0  0  0
    8.7488  -15.9117   21.4198 C   0  0  2  0  0  0  0  0  0  0  0  0
    9.1122  -14.8020   20.5753 N   0  0  0  0  0  0  0  0  0  0  0  0
    9.4666  -15.8181   22.7212 C   0  0  0  0  0  0  0  0  0  0  0  0
   10.4763  -15.0575   22.8191 O   0  0  0  0  0  0  0  0  0  0  0  0
    9.0685  -16.5418   23.8498 N   0  0  0  0  0  0  0  0  0  0  0  0
    9.7522  -16.3493   25.1482 C   0  0  1  0  0  0  0  0  0  0  0  0
    8.6619  -16.3424   26.1609 C   0  0  0  0  0  0  0  0  0  0  0  0
    7.5829  -15.3724   25.9814 C   0  0  0  0  0  0  0  0  0  0  0  0
    6.2899  -15.6804   25.5887 C   0  0  0  0  0  0  0  0  0  0  0  0
    5.5875  -14.5412   25.5001 N   0  0  0  0  0  0  0  0  0  0  0  0
    6.3726  -13.5038   25.8203 C   0  0  0  0  0  0  0  0  0  0  0  0
    6.1077  -12.1350   25.8907 C   0  0  0  0  0  0  0  0  0  0  0  0
    7.1398  -11.3181   26.2741 C   0  0  0  0  0  0  0  0  0  0  0  0
    8.3878  -11.8048   26.5801 C   0  0  0  0  0  0  0  0  0  0  0  0
    8.6472  -13.1484   26.5101 C   0  0  0  0  0  0  0  0  0  0  0  0
    7.6189  -13.9987   26.1236 C   0  0  0  0  0  0  0  0  0  0  0  0
   10.8075  -17.3387   25.2876 C   0  0  0  0  0  0  0  0  0  0  0  0
   11.8061  -17.2239   26.2389 O   0  0  0  0  0  0  0  0  0  0  0  0
   10.8474  -18.3431   24.5330 O   0  0  0  0  0  0  0  0  0  0  0  0
  2  1  1  0
  3  9  1  0
  3  2  1  0
  4  3  2  0
  6  5  1  6
  6  8  1  0
  7  6  1  0
  8 10  1  0
  8  9  1  6
 10 12  1  0
 11 10  2  0
 12 13  1  0
 13 14  1  1
 14 15  1  0
 15 23  1  0
 15 16  2  0
 16 17  1  0
 17 18  1  0
 18 19  2  0
 20 19  1  0
 21 20  2  0
 22 23  2  0
 22 21  1  0
 23 18  1  0
 24 25  1  0
 24 13  1  0
 26 24  2  0
M  END
$$$$
