NFY.pdb
     RDKit          3D

 32 33  0  0  1  0  0  0  0  0999 V2000
   27.4261  -28.0627  -16.8805 N   0  0  0  0  0  0  0  0  0  0  0  0
   26.9154  -26.7833  -17.1768 C   0  0  0  0  0  0  0  0  0  0  0  0
   25.9716  -26.6381  -17.9773 O   0  0  0  0  0  0  0  0  0  0  0  0
   27.5059  -25.5952  -16.5302 C   0  0  0  0  0  0  0  0  0  0  0  0
   28.1470  -24.7568  -17.6021 C   0  0  2  0  0  0  0  0  0  0  0  0
   29.3626  -25.3205  -18.1022 N   0  0  0  0  0  0  0  0  0  0  0  0
   28.4163  -23.4190  -17.0142 C   0  0  0  0  0  0  0  0  0  0  0  0
   29.5598  -23.1130  -16.5698 O   0  0  0  0  0  0  0  0  0  0  0  0
   27.3812  -22.4742  -16.9504 N   0  0  0  0  0  0  0  0  0  0  0  0
   27.5122  -21.1449  -16.3305 C   0  0  1  0  0  0  0  0  0  0  0  0
   26.8382  -20.2266  -17.2866 C   0  0  0  0  0  0  0  0  0  0  0  0
   26.6377  -18.8481  -16.8923 C   0  0  0  0  0  0  0  0  0  0  0  0
   27.5438  -17.8195  -17.0430 C   0  0  0  0  0  0  0  0  0  0  0  0
   27.2757  -16.5254  -16.6589 C   0  0  0  0  0  0  0  0  0  0  0  0
   26.0528  -16.2057  -16.0926 C   0  0  0  0  0  0  0  0  0  0  0  0
   25.1388  -17.2174  -15.9350 C   0  0  0  0  0  0  0  0  0  0  0  0
   25.4137  -18.5120  -16.3221 C   0  0  0  0  0  0  0  0  0  0  0  0
   26.8725  -21.2501  -14.9980 C   0  0  0  0  0  0  0  0  0  0  0  0
   25.8302  -21.9686  -14.8043 O   0  0  0  0  0  0  0  0  0  0  0  0
   25.0997  -20.5575   -6.3851 O   0  0  0  0  0  0  0  0  0  0  0  0
   25.6454  -20.3916   -7.6288 C   0  0  0  0  0  0  0  0  0  0  0  0
   25.2344  -19.3970   -8.4873 C   0  0  0  0  0  0  0  0  0  0  0  0
   25.8560  -19.3276   -9.7118 C   0  0  0  0  0  0  0  0  0  0  0  0
   26.8535  -20.1823  -10.1290 C   0  0  0  0  0  0  0  0  0  0  0  0
   27.4972  -20.0847  -11.4563 C   0  0  0  0  0  0  0  0  0  0  0  0
   26.6880  -20.7215  -12.5313 C   0  0  2  0  0  0  0  0  0  0  0  0
   27.3451  -20.5806  -13.8337 N   0  0  0  0  0  0  0  0  0  0  0  0
   25.2934  -20.2958  -12.6337 C   0  0  0  0  0  0  0  0  0  0  0  0
   24.3583  -21.0442  -12.1839 O   0  0  0  0  0  0  0  0  0  0  0  0
   27.2553  -21.1752   -9.2561 C   0  0  0  0  0  0  0  0  0  0  0  0
   26.6501  -21.2671   -8.0246 C   0  0  0  0  0  0  0  0  0  0  0  0
   24.8604  -19.1110  -13.1924 O   0  0  0  0  0  0  0  0  0  0  0  0
  1  2  1  0
  2  3  2  0
  4  5  1  0
  4  2  1  0
  5  6  1  1
  7  9  1  0
  7  5  1  0
  8  7  2  0
 10  9  1  0
 10 11  1  6
 11 12  1  0
 12 17  1  0
 12 13  2  0
 13 14  1  0
 14 15  2  0
 16 15  1  0
 17 16  2  0
 18 27  1  0
 18 10  1  0
 19 18  2  0
 20 21  1  0
 21 31  2  0
 22 21  1  0
 22 23  2  0
 23 24  1  0
 24 30  2  0
 24 25  1  0
 26 25  1  1
 26 28  1  0
 26 27  1  0
 28 32  1  0
 29 28  2  0
 31 30  1  0
M  END
$$$$
