NFY.pdb
     RDKit          3D

 32 33  0  0  1  0  0  0  0  0999 V2000
   27.6442   -7.2771  -21.5384 N   0  0  0  0  0  0  0  0  0  0  0  0
   27.3487   -8.1484  -20.4711 C   0  0  0  0  0  0  0  0  0  0  0  0
   27.2231   -9.3739  -20.6584 O   0  0  0  0  0  0  0  0  0  0  0  0
   27.1852   -7.6035  -19.1093 C   0  0  0  0  0  0  0  0  0  0  0  0
   27.3956   -6.1156  -19.1790 C   0  0  2  0  0  0  0  0  0  0  0  0
   28.7734   -5.7403  -19.0995 N   0  0  0  0  0  0  0  0  0  0  0  0
   26.6424   -5.5098  -18.0504 C   0  0  0  0  0  0  0  0  0  0  0  0
   27.0965   -5.5278  -16.8706 O   0  0  0  0  0  0  0  0  0  0  0  0
   25.4011   -4.9045  -18.2976 N   0  0  0  0  0  0  0  0  0  0  0  0
   24.6348   -4.1493  -17.2922 C   0  0  1  0  0  0  0  0  0  0  0  0
   24.3819   -2.8332  -17.9369 C   0  0  0  0  0  0  0  0  0  0  0  0
   25.3918   -1.8028  -17.8181 C   0  0  0  0  0  0  0  0  0  0  0  0
   26.0101   -1.4010  -16.6526 C   0  0  0  0  0  0  0  0  0  0  0  0
   26.9777   -0.4230  -16.6190 C   0  0  0  0  0  0  0  0  0  0  0  0
   27.3727    0.2070  -17.7876 C   0  0  0  0  0  0  0  0  0  0  0  0
   26.7677   -0.1804  -18.9571 C   0  0  0  0  0  0  0  0  0  0  0  0
   25.7988   -1.1612  -18.9838 C   0  0  0  0  0  0  0  0  0  0  0  0
   23.4251   -4.9567  -17.0085 C   0  0  0  0  0  0  0  0  0  0  0  0
   22.6214   -5.3181  -17.9378 O   0  0  0  0  0  0  0  0  0  0  0  0
   17.6861  -10.6603  -13.6692 O   0  0  0  0  0  0  0  0  0  0  0  0
   18.7825   -9.8998  -13.9718 C   0  0  0  0  0  0  0  0  0  0  0  0
   19.4452  -10.0075  -15.1737 C   0  0  0  0  0  0  0  0  0  0  0  0
   20.5347   -9.1910  -15.3657 C   0  0  0  0  0  0  0  0  0  0  0  0
   20.9999   -8.2818  -14.4402 C   0  0  0  0  0  0  0  0  0  0  0  0
   22.1798   -7.4226  -14.6753 C   0  0  0  0  0  0  0  0  0  0  0  0
   21.8527   -6.2096  -15.4737 C   0  0  2  0  0  0  0  0  0  0  0  0
   23.0508   -5.3987  -15.7079 N   0  0  0  0  0  0  0  0  0  0  0  0
   20.7772   -5.3636  -14.9595 C   0  0  0  0  0  0  0  0  0  0  0  0
   21.0380   -4.4269  -14.1281 O   0  0  0  0  0  0  0  0  0  0  0  0
   20.3241   -8.1852  -13.2388 C   0  0  0  0  0  0  0  0  0  0  0  0
   19.2307   -8.9903  -13.0209 C   0  0  0  0  0  0  0  0  0  0  0  0
   19.4440   -5.4765  -15.2959 O   0  0  0  0  0  0  0  0  0  0  0  0
  1  2  1  0
  2  3  2  0
  4  5  1  0
  4  2  1  0
  5  6  1  1
  7  9  1  0
  7  5  1  0
  8  7  2  0
 10  9  1  0
 10 11  1  6
 11 12  1  0
 12 17  1  0
 12 13  2  0
 13 14  1  0
 14 15  2  0
 16 15  1  0
 17 16  2  0
 18 27  1  0
 18 10  1  0
 19 18  2  0
 20 21  1  0
 21 31  2  0
 22 21  1  0
 22 23  2  0
 23 24  1  0
 24 30  2  0
 24 25  1  0
 26 25  1  1
 26 28  1  0
 26 27  1  0
 28 32  1  0
 29 28  2  0
 31 30  1  0
M  END
$$$$
