NFY.pdb
     RDKit          3D

 32 33  0  0  1  0  0  0  0  0999 V2000
   28.7348  -18.8737  -17.5254 N   0  0  0  0  0  0  0  0  0  0  0  0
   28.1548  -20.1030  -17.8968 C   0  0  0  0  0  0  0  0  0  0  0  0
   28.4603  -20.6594  -18.9691 O   0  0  0  0  0  0  0  0  0  0  0  0
   27.1701  -20.7436  -17.0034 C   0  0  0  0  0  0  0  0  0  0  0  0
   27.9129  -21.2949  -15.8172 C   0  0  2  0  0  0  0  0  0  0  0  0
   28.6680  -22.4697  -16.1256 N   0  0  0  0  0  0  0  0  0  0  0  0
   26.9050  -21.6042  -14.7700 C   0  0  0  0  0  0  0  0  0  0  0  0
   26.4196  -22.7650  -14.6454 O   0  0  0  0  0  0  0  0  0  0  0  0
   26.4823  -20.5879  -13.9000 N   0  0  0  0  0  0  0  0  0  0  0  0
   25.5502  -20.7940  -12.7790 C   0  0  1  0  0  0  0  0  0  0  0  0
   26.0362  -19.8666  -11.7229 C   0  0  0  0  0  0  0  0  0  0  0  0
   26.9720  -20.3716  -10.7405 C   0  0  0  0  0  0  0  0  0  0  0  0
   28.2629  -20.7896  -10.9871 C   0  0  0  0  0  0  0  0  0  0  0  0
   29.1035  -21.2429   -9.9961 C   0  0  0  0  0  0  0  0  0  0  0  0
   28.6677  -21.2954   -8.6825 C   0  0  0  0  0  0  0  0  0  0  0  0
   27.3853  -20.8832   -8.4189 C   0  0  0  0  0  0  0  0  0  0  0  0
   26.5481  -20.4299   -9.4164 C   0  0  0  0  0  0  0  0  0  0  0  0
   24.1994  -20.4947  -13.3097 C   0  0  0  0  0  0  0  0  0  0  0  0
   23.9713  -19.4619  -14.0317 O   0  0  0  0  0  0  0  0  0  0  0  0
   20.9932  -27.1699  -15.1026 O   0  0  0  0  0  0  0  0  0  0  0  0
   21.2286  -25.8220  -15.1025 C   0  0  0  0  0  0  0  0  0  0  0  0
   22.4987  -25.2957  -15.1731 C   0  0  0  0  0  0  0  0  0  0  0  0
   22.6121  -23.9254  -15.1656 C   0  0  0  0  0  0  0  0  0  0  0  0
   21.5456  -23.0555  -15.0922 C   0  0  0  0  0  0  0  0  0  0  0  0
   21.7024  -21.5855  -15.0793 C   0  0  0  0  0  0  0  0  0  0  0  0
   21.7581  -21.0295  -13.6995 C   0  0  2  0  0  0  0  0  0  0  0  0
   23.0545  -21.3079  -13.0753 N   0  0  0  0  0  0  0  0  0  0  0  0
   20.6799  -21.4253  -12.7953 C   0  0  0  0  0  0  0  0  0  0  0  0
   20.9345  -22.1422  -11.7667 O   0  0  0  0  0  0  0  0  0  0  0  0
   20.2771  -23.5990  -15.0221 C   0  0  0  0  0  0  0  0  0  0  0  0
   20.1352  -24.9668  -15.0280 C   0  0  0  0  0  0  0  0  0  0  0  0
   19.3505  -21.0879  -12.9439 O   0  0  0  0  0  0  0  0  0  0  0  0
  1  2  1  0
  2  3  2  0
  4  5  1  0
  4  2  1  0
  5  6  1  6
  7  9  1  0
  7  5  1  0
  8  7  2  0
 10  9  1  0
 10 11  1  1
 11 12  1  0
 12 17  1  0
 12 13  2  0
 13 14  1  0
 14 15  2  0
 16 15  1  0
 17 16  2  0
 18 27  1  0
 18 10  1  0
 19 18  2  0
 20 21  1  0
 21 31  2  0
 22 21  1  0
 22 23  2  0
 23 24  1  0
 24 30  2  0
 24 25  1  0
 26 25  1  6
 26 28  1  0
 26 27  1  0
 28 32  1  0
 29 28  2  0
 31 30  1  0
M  END
$$$$
