NFY.pdb
     RDKit          3D

 32 33  0  0  1  0  0  0  0  0999 V2000
   27.6848  -20.6307  -19.6169 N   0  0  0  0  0  0  0  0  0  0  0  0
   28.1531  -20.2123  -18.3555 C   0  0  0  0  0  0  0  0  0  0  0  0
   29.1290  -19.4439  -18.2552 O   0  0  0  0  0  0  0  0  0  0  0  0
   27.4790  -20.6901  -17.1327 C   0  0  0  0  0  0  0  0  0  0  0  0
   28.4976  -21.4169  -16.2977 C   0  0  2  0  0  0  0  0  0  0  0  0
   28.9814  -22.6111  -16.9183 N   0  0  0  0  0  0  0  0  0  0  0  0
   27.8506  -21.7488  -15.0019 C   0  0  0  0  0  0  0  0  0  0  0  0
   27.0041  -22.6833  -14.9087 O   0  0  0  0  0  0  0  0  0  0  0  0
   28.1852  -21.0108  -13.8566 N   0  0  0  0  0  0  0  0  0  0  0  0
   27.6054  -21.2451  -12.5235 C   0  0  1  0  0  0  0  0  0  0  0  0
   28.5236  -20.5345  -11.5943 C   0  0  0  0  0  0  0  0  0  0  0  0
   28.1413  -20.4188  -10.2028 C   0  0  0  0  0  0  0  0  0  0  0  0
   27.1507  -19.6035   -9.6971 C   0  0  0  0  0  0  0  0  0  0  0  0
   26.8300  -19.5592   -8.3594 C   0  0  0  0  0  0  0  0  0  0  0  0
   27.5112  -20.3543   -7.4527 C   0  0  0  0  0  0  0  0  0  0  0  0
   28.5005  -21.1721   -7.9388 C   0  0  0  0  0  0  0  0  0  0  0  0
   28.8168  -21.2119   -9.2804 C   0  0  0  0  0  0  0  0  0  0  0  0
   26.2243  -20.7107  -12.5784 C   0  0  0  0  0  0  0  0  0  0  0  0
   25.9556  -19.5906  -13.1379 O   0  0  0  0  0  0  0  0  0  0  0  0
   17.7140  -19.4881  -13.5997 O   0  0  0  0  0  0  0  0  0  0  0  0
   18.9669  -20.0215  -13.4655 C   0  0  0  0  0  0  0  0  0  0  0  0
   19.2142  -21.1385  -12.6997 C   0  0  0  0  0  0  0  0  0  0  0  0
   20.5137  -21.5837  -12.6396 C   0  0  0  0  0  0  0  0  0  0  0  0
   21.5725  -20.9880  -13.2905 C   0  0  0  0  0  0  0  0  0  0  0  0
   22.9607  -21.4884  -13.1994 C   0  0  0  0  0  0  0  0  0  0  0  0
   23.7390  -20.8194  -12.1211 C   0  0  2  0  0  0  0  0  0  0  0  0
   25.0915  -21.3763  -12.0298 N   0  0  0  0  0  0  0  0  0  0  0  0
   23.1245  -20.7960  -10.7950 C   0  0  0  0  0  0  0  0  0  0  0  0
   23.5232  -21.6049   -9.8876 O   0  0  0  0  0  0  0  0  0  0  0  0
   21.3083  -19.8680  -14.0553 C   0  0  0  0  0  0  0  0  0  0  0  0
   20.0170  -19.4015  -14.1329 C   0  0  0  0  0  0  0  0  0  0  0  0
   22.1093  -19.9487  -10.4016 O   0  0  0  0  0  0  0  0  0  0  0  0
  1  2  1  0
  2  3  2  0
  4  5  1  0
  4  2  1  0
  5  6  1  6
  7  9  1  0
  7  5  1  0
  8  7  2  0
 10  9  1  0
 10 11  1  1
 11 12  1  0
 12 17  1  0
 12 13  2  0
 13 14  1  0
 14 15  2  0
 16 15  1  0
 17 16  2  0
 18 27  1  0
 18 10  1  0
 19 18  2  0
 20 21  1  0
 21 31  2  0
 22 21  1  0
 22 23  2  0
 23 24  1  0
 24 30  2  0
 24 25  1  0
 26 25  1  6
 26 28  1  0
 26 27  1  0
 28 32  1  0
 29 28  2  0
 31 30  1  0
M  END
$$$$
