NFY.pdb
     RDKit          3D

 32 33  0  0  1  0  0  0  0  0999 V2000
   11.4471  -14.7159    6.8331 N   0  0  0  0  0  0  0  0  0  0  0  0
   11.1726  -15.9358    6.1834 C   0  0  0  0  0  0  0  0  0  0  0  0
   10.2822  -16.7003    6.6022 O   0  0  0  0  0  0  0  0  0  0  0  0
   11.9502  -16.3159    4.9880 C   0  0  0  0  0  0  0  0  0  0  0  0
   12.8755  -15.1768    4.6576 C   0  0  2  0  0  0  0  0  0  0  0  0
   12.3347  -14.2803    3.6832 N   0  0  0  0  0  0  0  0  0  0  0  0
   14.1407  -15.7686    4.1507 C   0  0  0  0  0  0  0  0  0  0  0  0
   14.2488  -16.1677    2.9558 O   0  0  0  0  0  0  0  0  0  0  0  0
   15.2397  -15.8873    5.0146 N   0  0  0  0  0  0  0  0  0  0  0  0
   16.5666  -16.3746    4.6023 C   0  0  1  0  0  0  0  0  0  0  0  0
   17.5217  -15.4971    5.3299 C   0  0  0  0  0  0  0  0  0  0  0  0
   18.0154  -14.3123    4.6604 C   0  0  0  0  0  0  0  0  0  0  0  0
   18.3660  -13.1235    5.2651 C   0  0  0  0  0  0  0  0  0  0  0  0
   18.8462  -12.0414    4.5633 C   0  0  0  0  0  0  0  0  0  0  0  0
   18.9967  -12.1136    3.1883 C   0  0  0  0  0  0  0  0  0  0  0  0
   18.6524  -13.2896    2.5698 C   0  0  0  0  0  0  0  0  0  0  0  0
   18.1720  -14.3702    3.2790 C   0  0  0  0  0  0  0  0  0  0  0  0
   16.6117  -17.8070    4.9792 C   0  0  0  0  0  0  0  0  0  0  0  0
   16.1339  -18.2281    6.0902 O   0  0  0  0  0  0  0  0  0  0  0  0
   17.8863  -26.5457    4.9045 O   0  0  0  0  0  0  0  0  0  0  0  0
   17.7596  -25.2307    4.5484 C   0  0  0  0  0  0  0  0  0  0  0  0
   16.5407  -24.6596    4.2594 C   0  0  0  0  0  0  0  0  0  0  0  0
   16.5367  -23.3288    3.9136 C   0  0  0  0  0  0  0  0  0  0  0  0
   17.6643  -22.5397    3.8385 C   0  0  0  0  0  0  0  0  0  0  0  0
   17.6263  -21.1121    3.4563 C   0  0  0  0  0  0  0  0  0  0  0  0
   17.2242  -20.2293    4.5854 C   0  0  2  0  0  0  0  0  0  0  0  0
   17.1750  -18.8273    4.1614 N   0  0  0  0  0  0  0  0  0  0  0  0
   18.0090  -20.3462    5.8131 C   0  0  0  0  0  0  0  0  0  0  0  0
   19.0062  -19.5705    6.0147 O   0  0  0  0  0  0  0  0  0  0  0  0
   18.8801  -23.1273    4.1315 C   0  0  0  0  0  0  0  0  0  0  0  0
   18.9125  -24.4570    4.4806 C   0  0  0  0  0  0  0  0  0  0  0  0
   17.7727  -21.2512    6.8273 O   0  0  0  0  0  0  0  0  0  0  0  0
  1  2  1  0
  2  3  2  0
  4  5  1  0
  4  2  1  0
  5  6  1  6
  7  9  1  0
  7  5  1  0
  8  7  2  0
 10  9  1  0
 10 11  1  1
 11 12  1  0
 12 17  1  0
 12 13  2  0
 13 14  1  0
 14 15  2  0
 16 15  1  0
 17 16  2  0
 18 27  1  0
 18 10  1  0
 19 18  2  0
 20 21  1  0
 21 31  2  0
 22 21  1  0
 22 23  2  0
 23 24  1  0
 24 30  2  0
 24 25  1  0
 26 25  1  6
 26 28  1  0
 26 27  1  0
 28 32  1  0
 29 28  2  0
 31 30  1  0
M  END
$$$$
