NFY.pdb
     RDKit          3D

 32 33  0  0  1  0  0  0  0  0999 V2000
   30.8114   -9.0091  -17.6237 N   0  0  0  0  0  0  0  0  0  0  0  0
   29.7634   -8.1577  -18.0264 C   0  0  0  0  0  0  0  0  0  0  0  0
   29.9810   -6.9671  -18.3232 O   0  0  0  0  0  0  0  0  0  0  0  0
   28.3856   -8.6817  -18.0988 C   0  0  0  0  0  0  0  0  0  0  0  0
   28.4183  -10.1260  -17.6792 C   0  0  2  0  0  0  0  0  0  0  0  0
   29.0148  -10.9806  -18.6587 N   0  0  0  0  0  0  0  0  0  0  0  0
   27.0145  -10.5458  -17.4320 C   0  0  0  0  0  0  0  0  0  0  0  0
   26.2446  -10.8627  -18.3835 O   0  0  0  0  0  0  0  0  0  0  0  0
   26.5317  -10.5923  -16.1156 N   0  0  0  0  0  0  0  0  0  0  0  0
   25.1633  -10.9954  -15.7507 C   0  0  1  0  0  0  0  0  0  0  0  0
   25.3549  -12.0904  -14.7628 C   0  0  0  0  0  0  0  0  0  0  0  0
   25.8501  -13.3658  -15.2361 C   0  0  0  0  0  0  0  0  0  0  0  0
   25.1239  -14.3154  -15.9237 C   0  0  0  0  0  0  0  0  0  0  0  0
   25.6687  -15.5020  -16.3588 C   0  0  0  0  0  0  0  0  0  0  0  0
   27.0013  -15.7886  -16.1131 C   0  0  0  0  0  0  0  0  0  0  0  0
   27.7392  -14.8546  -15.4298 C   0  0  0  0  0  0  0  0  0  0  0  0
   27.1873  -13.6675  -14.9966 C   0  0  0  0  0  0  0  0  0  0  0  0
   24.5047   -9.7771  -15.2234 C   0  0  0  0  0  0  0  0  0  0  0  0
   25.0821   -9.0109  -14.3751 O   0  0  0  0  0  0  0  0  0  0  0  0
   20.9765   -1.9402  -14.9202 O   0  0  0  0  0  0  0  0  0  0  0  0
   21.5951   -3.1569  -15.0156 C   0  0  0  0  0  0  0  0  0  0  0  0
   22.0875   -3.8217  -13.9152 C   0  0  0  0  0  0  0  0  0  0  0  0
   22.6895   -5.0384  -14.1338 C   0  0  0  0  0  0  0  0  0  0  0  0
   22.8295   -5.6275  -15.3719 C   0  0  0  0  0  0  0  0  0  0  0  0
   23.4888   -6.9352  -15.5737 C   0  0  0  0  0  0  0  0  0  0  0  0
   22.6330   -8.0773  -15.1505 C   0  0  2  0  0  0  0  0  0  0  0  0
   23.1999   -9.3512  -15.6018 N   0  0  0  0  0  0  0  0  0  0  0  0
   21.2217   -8.0054  -15.5242 C   0  0  0  0  0  0  0  0  0  0  0  0
   20.3900   -7.3834  -14.7771 O   0  0  0  0  0  0  0  0  0  0  0  0
   22.3301   -4.9480  -16.4666 C   0  0  0  0  0  0  0  0  0  0  0  0
   21.7229   -3.7290  -16.2762 C   0  0  0  0  0  0  0  0  0  0  0  0
   20.6671   -8.5663  -16.6561 O   0  0  0  0  0  0  0  0  0  0  0  0
  1  2  1  0
  2  3  2  0
  4  5  1  0
  4  2  1  0
  5  6  1  6
  7  9  1  0
  7  5  1  0
  8  7  2  0
 10  9  1  0
 10 11  1  1
 11 12  1  0
 12 17  1  0
 12 13  2  0
 13 14  1  0
 14 15  2  0
 16 15  1  0
 17 16  2  0
 18 27  1  0
 18 10  1  0
 19 18  2  0
 20 21  1  0
 21 31  2  0
 22 21  1  0
 22 23  2  0
 23 24  1  0
 24 30  2  0
 24 25  1  0
 26 25  1  6
 26 28  1  0
 26 27  1  0
 28 32  1  0
 29 28  2  0
 31 30  1  0
M  END
$$$$
