NFY.pdb
     RDKit          3D

 32 33  0  0  1  0  0  0  0  0999 V2000
   28.1899  -19.1503  -16.4135 N   0  0  0  0  0  0  0  0  0  0  0  0
   29.1148  -20.2084  -16.3102 C   0  0  0  0  0  0  0  0  0  0  0  0
   29.8776  -20.4891  -17.2546 O   0  0  0  0  0  0  0  0  0  0  0  0
   29.1830  -20.9977  -15.0650 C   0  0  0  0  0  0  0  0  0  0  0  0
   28.1272  -20.4759  -14.1291 C   0  0  2  0  0  0  0  0  0  0  0  0
   28.1868  -19.0580  -13.9519 N   0  0  0  0  0  0  0  0  0  0  0  0
   28.3209  -21.1557  -12.8220 C   0  0  0  0  0  0  0  0  0  0  0  0
   28.5555  -22.3962  -12.7532 O   0  0  0  0  0  0  0  0  0  0  0  0
   28.2425  -20.4066  -11.6384 N   0  0  0  0  0  0  0  0  0  0  0  0
   28.0745  -20.9933  -10.2983 C   0  0  1  0  0  0  0  0  0  0  0  0
   28.5763  -19.9430   -9.3728 C   0  0  0  0  0  0  0  0  0  0  0  0
   28.2446  -20.0479   -7.9675 C   0  0  0  0  0  0  0  0  0  0  0  0
   28.9361  -20.7747   -7.0211 C   0  0  0  0  0  0  0  0  0  0  0  0
   28.5703  -20.8134   -5.6950 C   0  0  0  0  0  0  0  0  0  0  0  0
   27.4648  -20.1040   -5.2559 C   0  0  0  0  0  0  0  0  0  0  0  0
   26.7646  -19.3750   -6.1844 C   0  0  0  0  0  0  0  0  0  0  0  0
   27.1365  -19.3403   -7.5118 C   0  0  0  0  0  0  0  0  0  0  0  0
   26.6333  -21.3130  -10.1693 C   0  0  0  0  0  0  0  0  0  0  0  0
   26.2295  -22.4191   -9.6659 O   0  0  0  0  0  0  0  0  0  0  0  0
   17.8851  -21.4270  -11.0511 O   0  0  0  0  0  0  0  0  0  0  0  0
   19.1864  -21.0212  -10.9327 C   0  0  0  0  0  0  0  0  0  0  0  0
   19.8690  -20.4233  -11.9680 C   0  0  0  0  0  0  0  0  0  0  0  0
   21.1733  -20.0575  -11.7321 C   0  0  0  0  0  0  0  0  0  0  0  0
   21.8328  -20.2501  -10.5373 C   0  0  0  0  0  0  0  0  0  0  0  0
   23.2393  -19.8511  -10.3183 C   0  0  0  0  0  0  0  0  0  0  0  0
   24.2038  -20.9032  -10.7414 C   0  0  2  0  0  0  0  0  0  0  0  0
   25.5854  -20.4414  -10.5808 N   0  0  0  0  0  0  0  0  0  0  0  0
   24.0197  -21.4516  -12.0838 C   0  0  0  0  0  0  0  0  0  0  0  0
   24.6401  -20.9388  -13.0782 O   0  0  0  0  0  0  0  0  0  0  0  0
   21.1343  -20.8513   -9.5078 C   0  0  0  0  0  0  0  0  0  0  0  0
   19.8281  -21.2270   -9.7168 C   0  0  0  0  0  0  0  0  0  0  0  0
   23.2063  -22.5188  -12.4044 O   0  0  0  0  0  0  0  0  0  0  0  0
  1  2  1  0
  2  3  2  0
  4  5  1  0
  4  2  1  0
  5  6  1  1
  7  9  1  0
  7  5  1  0
  8  7  2  0
 10  9  1  0
 10 11  1  1
 11 12  1  0
 12 17  1  0
 12 13  2  0
 13 14  1  0
 14 15  2  0
 16 15  1  0
 17 16  2  0
 18 27  1  0
 18 10  1  0
 19 18  2  0
 20 21  1  0
 21 31  2  0
 22 21  1  0
 22 23  2  0
 23 24  1  0
 24 30  2  0
 24 25  1  0
 26 25  1  6
 26 28  1  0
 26 27  1  0
 28 32  1  0
 29 28  2  0
 31 30  1  0
M  END
$$$$
