NFY.pdb
     RDKit          3D

 32 33  0  0  1  0  0  0  0  0999 V2000
   29.4479  -24.0976  -18.5585 N   0  0  0  0  0  0  0  0  0  0  0  0
   29.5976  -24.2744  -17.1686 C   0  0  0  0  0  0  0  0  0  0  0  0
   29.9854  -25.3608  -16.6974 O   0  0  0  0  0  0  0  0  0  0  0  0
   29.2911  -23.1568  -16.2547 C   0  0  0  0  0  0  0  0  0  0  0  0
   28.7691  -22.0138  -17.0817 C   0  0  2  0  0  0  0  0  0  0  0  0
   29.8076  -21.2528  -17.7045 N   0  0  0  0  0  0  0  0  0  0  0  0
   27.9772  -21.1402  -16.1774 C   0  0  0  0  0  0  0  0  0  0  0  0
   28.5333  -20.4458  -15.2790 O   0  0  0  0  0  0  0  0  0  0  0  0
   26.5830  -21.0832  -16.3225 N   0  0  0  0  0  0  0  0  0  0  0  0
   25.7278  -20.0607  -15.6969 C   0  0  1  0  0  0  0  0  0  0  0  0
   25.6900  -18.9558  -16.6916 C   0  0  0  0  0  0  0  0  0  0  0  0
   26.6888  -17.9119  -16.5994 C   0  0  0  0  0  0  0  0  0  0  0  0
   26.8007  -16.9809  -15.5882 C   0  0  0  0  0  0  0  0  0  0  0  0
   27.7907  -16.0253  -15.5587 C   0  0  0  0  0  0  0  0  0  0  0  0
   28.7327  -15.9661  -16.5723 C   0  0  0  0  0  0  0  0  0  0  0  0
   28.6364  -16.8852  -17.5871 C   0  0  0  0  0  0  0  0  0  0  0  0
   27.6421  -17.8404  -17.6106 C   0  0  0  0  0  0  0  0  0  0  0  0
   24.4267  -20.7198  -15.4351 C   0  0  0  0  0  0  0  0  0  0  0  0
   23.8495  -21.4480  -16.3163 O   0  0  0  0  0  0  0  0  0  0  0  0
   17.1207  -23.8117  -11.6164 O   0  0  0  0  0  0  0  0  0  0  0  0
   18.2755  -23.1154  -11.8477 C   0  0  0  0  0  0  0  0  0  0  0  0
   18.2963  -21.7451  -11.9781 C   0  0  0  0  0  0  0  0  0  0  0  0
   19.5164  -21.1544  -12.2088 C   0  0  0  0  0  0  0  0  0  0  0  0
   20.7066  -21.8409  -12.3168 C   0  0  0  0  0  0  0  0  0  0  0  0
   22.0018  -21.1756  -12.5724 C   0  0  0  0  0  0  0  0  0  0  0  0
   22.4152  -21.2602  -14.0000 C   0  0  2  0  0  0  0  0  0  0  0  0
   23.7124  -20.6109  -14.2083 N   0  0  0  0  0  0  0  0  0  0  0  0
   21.4536  -20.7689  -14.9852 C   0  0  0  0  0  0  0  0  0  0  0  0
   20.6539  -21.5826  -15.5640 O   0  0  0  0  0  0  0  0  0  0  0  0
   20.6695  -23.2157  -12.1834 C   0  0  0  0  0  0  0  0  0  0  0  0
   19.4622  -23.8321  -11.9520 C   0  0  0  0  0  0  0  0  0  0  0  0
   21.3123  -19.4527  -15.3738 O   0  0  0  0  0  0  0  0  0  0  0  0
  1  2  1  0
  2  3  2  0
  4  5  1  0
  4  2  1  0
  5  6  1  1
  7  9  1  0
  7  5  1  0
  8  7  2  0
 10  9  1  0
 10 11  1  6
 11 12  1  0
 12 17  1  0
 12 13  2  0
 13 14  1  0
 14 15  2  0
 16 15  1  0
 17 16  2  0
 18 27  1  0
 18 10  1  0
 19 18  2  0
 20 21  1  0
 21 31  2  0
 22 21  1  0
 22 23  2  0
 23 24  1  0
 24 30  2  0
 24 25  1  0
 26 25  1  1
 26 28  1  0
 26 27  1  0
 28 32  1  0
 29 28  2  0
 31 30  1  0
M  END
$$$$
