NFY.pdb
     RDKit          3D

 32 33  0  0  1  0  0  0  0  0999 V2000
   28.7332  -21.6480  -18.8548 N   0  0  0  0  0  0  0  0  0  0  0  0
   29.1938  -22.6644  -17.9944 C   0  0  0  0  0  0  0  0  0  0  0  0
   30.2365  -23.2975  -18.2486 O   0  0  0  0  0  0  0  0  0  0  0  0
   28.4311  -22.9858  -16.7724 C   0  0  0  0  0  0  0  0  0  0  0  0
   27.7580  -21.7249  -16.3032 C   0  0  2  0  0  0  0  0  0  0  0  0
   28.6622  -20.6255  -16.1641 N   0  0  0  0  0  0  0  0  0  0  0  0
   27.1236  -22.0244  -14.9933 C   0  0  0  0  0  0  0  0  0  0  0  0
   26.3062  -22.9798  -14.8605 O   0  0  0  0  0  0  0  0  0  0  0  0
   27.4372  -21.2314  -13.8793 N   0  0  0  0  0  0  0  0  0  0  0  0
   26.8140  -21.3840  -12.5540 C   0  0  1  0  0  0  0  0  0  0  0  0
   27.8171  -20.8229  -11.6104 C   0  0  0  0  0  0  0  0  0  0  0  0
   27.4339  -20.6403  -10.2263 C   0  0  0  0  0  0  0  0  0  0  0  0
   26.2996  -19.9990   -9.7747 C   0  0  0  0  0  0  0  0  0  0  0  0
   25.9910  -19.8788   -8.4389 C   0  0  0  0  0  0  0  0  0  0  0  0
   26.8337  -20.4129   -7.4782 C   0  0  0  0  0  0  0  0  0  0  0  0
   27.9676  -21.0547   -7.9099 C   0  0  0  0  0  0  0  0  0  0  0  0
   28.2708  -21.1718   -9.2499 C   0  0  0  0  0  0  0  0  0  0  0  0
   25.5284  -20.6499  -12.6195 C   0  0  0  0  0  0  0  0  0  0  0  0
   25.4367  -19.4967  -13.1686 O   0  0  0  0  0  0  0  0  0  0  0  0
   17.7845  -18.1600  -15.1108 O   0  0  0  0  0  0  0  0  0  0  0  0
   18.9690  -18.7707  -14.8006 C   0  0  0  0  0  0  0  0  0  0  0  0
   19.0561  -20.1191  -14.5369 C   0  0  0  0  0  0  0  0  0  0  0  0
   20.3004  -20.6214  -14.2369 C   0  0  0  0  0  0  0  0  0  0  0  0
   21.4531  -19.8678  -14.1841 C   0  0  0  0  0  0  0  0  0  0  0  0
   22.7758  -20.4381  -13.8513 C   0  0  0  0  0  0  0  0  0  0  0  0
   23.0139  -20.5093  -12.3836 C   0  0  2  0  0  0  0  0  0  0  0  0
   24.3019  -21.1453  -12.0928 N   0  0  0  0  0  0  0  0  0  0  0  0
   21.9626  -21.1359  -11.5843 C   0  0  0  0  0  0  0  0  0  0  0  0
   21.2099  -20.4198  -10.8377 O   0  0  0  0  0  0  0  0  0  0  0  0
   21.3495  -18.5160  -14.4513 C   0  0  0  0  0  0  0  0  0  0  0  0
   20.1167  -17.9876  -14.7544 C   0  0  0  0  0  0  0  0  0  0  0  0
   21.6844  -22.4868  -11.5512 O   0  0  0  0  0  0  0  0  0  0  0  0
  1  2  1  0
  2  3  2  0
  4  5  1  0
  4  2  1  0
  5  6  1  1
  7  9  1  0
  7  5  1  0
  8  7  2  0
 10  9  1  0
 10 11  1  1
 11 12  1  0
 12 17  1  0
 12 13  2  0
 13 14  1  0
 14 15  2  0
 16 15  1  0
 17 16  2  0
 18 27  1  0
 18 10  1  0
 19 18  2  0
 20 21  1  0
 21 31  2  0
 22 21  1  0
 22 23  2  0
 23 24  1  0
 24 30  2  0
 24 25  1  0
 26 25  1  6
 26 28  1  0
 26 27  1  0
 28 32  1  0
 29 28  2  0
 31 30  1  0
M  END
$$$$
