RDS.pdb
     RDKit          3D

 26 25  0  0  1  0  0  0  0  0999 V2000
    9.7063  -12.9791   20.3974 N   0  0  0  0  0  0  0  0  0  0  0  0
    8.6184  -12.6717   19.5229 C   0  0  0  0  0  0  0  0  0  0  0  0
    8.7711  -11.7566   18.6021 N   0  0  0  0  0  0  0  0  0  0  0  0
    7.3904  -13.3688   19.6744 N   0  0  0  0  0  0  0  0  0  0  0  0
    7.2076  -14.3468   20.6932 C   0  0  0  0  0  0  0  0  0  0  0  0
    7.8124  -15.6812   20.3842 C   0  0  0  0  0  0  0  0  0  0  0  0
    9.1979  -15.8797   20.8823 C   0  0  0  0  0  0  0  0  0  0  0  0
    9.8298  -17.1626   20.4058 C   0  0  2  0  0  0  0  0  0  0  0  0
    8.8394  -18.1594   20.0601 N   0  0  0  0  0  0  0  0  0  0  0  0
   10.7127  -17.7706   21.4244 C   0  0  0  0  0  0  0  0  0  0  0  0
   10.2174  -18.6739   22.1439 O   0  0  0  0  0  0  0  0  0  0  0  0
    7.9560  -11.5039   18.0088 N   0  0  0  0  0  0  0  0  0  0  0  0
   12.0659  -17.3990   21.6333 C   0  0  2  0  0  0  0  0  0  0  0  0
   12.8537  -17.9729   22.6767 C   0  0  0  0  0  0  0  0  0  0  0  0
   14.3162  -17.6347   22.5816 C   0  0  0  0  0  0  0  0  0  0  0  0
   14.9929  -18.2457   21.4364 O   0  0  0  0  0  0  0  0  0  0  0  0
   14.5125  -19.2558   20.8687 C   0  0  0  0  0  0  0  0  0  0  0  0
   12.3772  -17.5739   24.0341 O   0  0  0  0  0  0  0  0  0  0  0  0
   12.8130  -16.4941   24.5026 O   0  0  0  0  0  0  0  0  0  0  0  0
   16.1798  -17.7240   20.9516 O   0  0  0  0  0  0  0  0  0  0  0  0
    8.9008  -17.9008   25.2780 C   0  0  0  0  0  0  0  0  0  0  0  0
    9.6412  -18.3856   26.3579 C   0  0  2  0  0  0  0  0  0  0  0  0
   11.0958  -18.0353   26.1597 N   0  0  0  0  0  0  0  0  0  0  0  0
   11.4722  -18.3445   24.8040 C   0  0  0  0  0  0  0  0  0  0  0  0
   11.8894  -18.7754   27.1578 O   0  0  0  0  0  0  0  0  0  0  0  0
   11.7310  -18.4624   28.4944 O   0  0  0  0  0  0  0  0  0  0  0  0
  2  1  1  0
  3  2  2  0
  4  2  1  0
  5  4  1  0
  6  5  1  0
  6  7  1  0
  8  7  1  0
  8  9  1  1
 10  8  1  0
 10 12  1  0
 11 10  2  0
 12 13  1  0
 13 14  1  6
 15 16  2  0
 15 14  1  0
 17 18  2  0
 17 13  1  0
 19 15  1  0
 21 20  1  0
 22 21  1  6
 22 23  1  0
 23 17  1  0
 24 22  1  0
 24 25  1  0
 26 24  2  0
M  END
$$$$
