RDS.pdb
     RDKit          3D

 26 25  0  0  1  0  0  0  0  0999 V2000
    6.6148  -12.4534   17.9921 N   0  0  0  0  0  0  0  0  0  0  0  0
    7.5714  -13.1755   17.2136 C   0  0  0  0  0  0  0  0  0  0  0  0
    7.3109  -13.4457   15.9615 N   0  0  0  0  0  0  0  0  0  0  0  0
    8.7886  -13.5862   17.8195 N   0  0  0  0  0  0  0  0  0  0  0  0
    9.2644  -12.9867   19.0204 C   0  0  0  0  0  0  0  0  0  0  0  0
    9.5186  -13.9538   20.1348 C   0  0  0  0  0  0  0  0  0  0  0  0
   10.0495  -15.2770   19.7170 C   0  0  0  0  0  0  0  0  0  0  0  0
   10.2453  -16.2353   20.8639 C   0  0  2  0  0  0  0  0  0  0  0  0
    9.7143  -15.7125   22.1044 N   0  0  0  0  0  0  0  0  0  0  0  0
   11.6710  -16.5454   21.1046 C   0  0  0  0  0  0  0  0  0  0  0  0
   12.0787  -17.6773   20.7416 O   0  0  0  0  0  0  0  0  0  0  0  0
    8.0186  -13.9644   15.4045 N   0  0  0  0  0  0  0  0  0  0  0  0
   12.5913  -15.6531   21.7124 C   0  0  1  0  0  0  0  0  0  0  0  0
   13.9511  -16.0177   21.9506 C   0  0  0  0  0  0  0  0  0  0  0  0
   14.9234  -14.8917   21.7289 C   0  0  0  0  0  0  0  0  0  0  0  0
   15.1316  -14.5569   20.3192 O   0  0  0  0  0  0  0  0  0  0  0  0
   15.2279  -13.3624   19.9487 C   0  0  0  0  0  0  0  0  0  0  0  0
   14.1651  -16.5444   23.3311 O   0  0  0  0  0  0  0  0  0  0  0  0
   15.0150  -15.9587   24.0451 O   0  0  0  0  0  0  0  0  0  0  0  0
   15.2276  -15.5503   19.3600 O   0  0  0  0  0  0  0  0  0  0  0  0
   12.2096  -18.5274   27.1463 C   0  0  0  0  0  0  0  0  0  0  0  0
   12.1408  -18.1869   25.7940 C   0  0  2  0  0  0  0  0  0  0  0  0
   13.5396  -18.0756   25.2382 N   0  0  0  0  0  0  0  0  0  0  0  0
   13.4655  -17.6553   23.8623 C   0  0  0  0  0  0  0  0  0  0  0  0
   14.2077  -19.3794   25.4039 O   0  0  0  0  0  0  0  0  0  0  0  0
   14.5309  -20.1064   24.2740 O   0  0  0  0  0  0  0  0  0  0  0  0
  2  1  1  0
  3  2  2  0
  4  2  1  0
  5  4  1  0
  6  5  1  0
  6  7  1  0
  8  7  1  0
  8  9  1  1
 10  8  1  0
 10 12  1  0
 11 10  2  0
 12 13  1  0
 13 14  1  6
 15 16  2  0
 15 14  1  0
 17 18  2  0
 17 13  1  0
 19 15  1  0
 21 20  1  0
 22 21  1  1
 22 23  1  0
 23 17  1  0
 24 22  1  0
 24 25  1  0
 26 24  2  0
M  END
$$$$
