RDS.pdb
     RDKit          3D

 26 25  0  0  1  0  0  0  0  0999 V2000
    7.2855  -13.6800   17.7131 N   0  0  0  0  0  0  0  0  0  0  0  0
    7.7672  -12.7480   18.6837 C   0  0  0  0  0  0  0  0  0  0  0  0
    6.9253  -11.9439   19.2779 N   0  0  0  0  0  0  0  0  0  0  0  0
    9.1554  -12.7149   18.9822 N   0  0  0  0  0  0  0  0  0  0  0  0
    9.7935  -13.7762   19.6853 C   0  0  0  0  0  0  0  0  0  0  0  0
    9.0918  -15.0949   19.5828 C   0  0  0  0  0  0  0  0  0  0  0  0
    9.7720  -16.2291   20.2597 C   0  0  0  0  0  0  0  0  0  0  0  0
   11.0640  -16.6360   19.5984 C   0  0  2  0  0  0  0  0  0  0  0  0
   10.8794  -17.7388   18.6797 N   0  0  0  0  0  0  0  0  0  0  0  0
   12.0906  -17.0588   20.5751 C   0  0  0  0  0  0  0  0  0  0  0  0
   12.0356  -18.2457   20.9842 O   0  0  0  0  0  0  0  0  0  0  0  0
    7.2968  -11.2232   19.9281 N   0  0  0  0  0  0  0  0  0  0  0  0
   13.1184  -16.2152   21.0698 C   0  0  2  0  0  0  0  0  0  0  0  0
   14.0412  -16.6547   22.0668 C   0  0  0  0  0  0  0  0  0  0  0  0
   15.1948  -15.7125   22.2758 C   0  0  0  0  0  0  0  0  0  0  0  0
   16.2225  -16.2254   23.1833 O   0  0  0  0  0  0  0  0  0  0  0  0
   16.5144  -17.4452   23.2016 C   0  0  0  0  0  0  0  0  0  0  0  0
   13.3856  -16.8786   23.3893 O   0  0  0  0  0  0  0  0  0  0  0  0
   12.4879  -16.0706   23.7307 O   0  0  0  0  0  0  0  0  0  0  0  0
   16.8977  -15.3770   24.0437 O   0  0  0  0  0  0  0  0  0  0  0  0
   11.8571  -17.1988   27.2747 C   0  0  0  0  0  0  0  0  0  0  0  0
   12.4597  -16.9427   26.0415 C   0  0  2  0  0  0  0  0  0  0  0  0
   13.0401  -18.2250   25.4967 N   0  0  0  0  0  0  0  0  0  0  0  0
   13.7244  -17.9422   24.2610 C   0  0  0  0  0  0  0  0  0  0  0  0
   11.9431  -19.1966   25.3348 O   0  0  0  0  0  0  0  0  0  0  0  0
   11.3194  -19.6859   26.4667 O   0  0  0  0  0  0  0  0  0  0  0  0
  2  1  1  0
  3  2  2  0
  4  2  1  0
  5  4  1  0
  6  5  1  0
  6  7  1  0
  8  7  1  0
  8  9  1  6
 10  8  1  0
 10 12  1  0
 11 10  2  0
 12 13  1  0
 13 14  1  6
 15 16  2  0
 15 14  1  0
 17 18  2  0
 17 13  1  0
 19 15  1  0
 21 20  1  0
 22 21  1  1
 22 23  1  0
 23 17  1  0
 24 22  1  0
 24 25  1  0
 26 24  2  0
M  END
$$$$
