RDS.pdb
     RDKit          3D

 26 25  0  0  1  0  0  0  0  0999 V2000
    6.4761  -13.1420   19.2080 N   0  0  0  0  0  0  0  0  0  0  0  0
    7.8301  -12.6946   19.3046 C   0  0  0  0  0  0  0  0  0  0  0  0
    8.1758  -11.5632   18.7490 N   0  0  0  0  0  0  0  0  0  0  0  0
    8.7743  -13.4924   20.0041 N   0  0  0  0  0  0  0  0  0  0  0  0
    9.8833  -14.0909   19.3409 C   0  0  0  0  0  0  0  0  0  0  0  0
    9.9563  -15.5798   19.4805 C   0  0  0  0  0  0  0  0  0  0  0  0
   11.0602  -16.2333   18.7309 C   0  0  0  0  0  0  0  0  0  0  0  0
   11.1496  -17.7193   18.9670 C   0  0  2  0  0  0  0  0  0  0  0  0
    9.8868  -18.3838   18.7266 N   0  0  0  0  0  0  0  0  0  0  0  0
   11.5508  -18.0488   20.3517 C   0  0  0  0  0  0  0  0  0  0  0  0
   10.6420  -18.4175   21.1374 O   0  0  0  0  0  0  0  0  0  0  0  0
    9.1804  -11.2966   18.7414 N   0  0  0  0  0  0  0  0  0  0  0  0
   12.8816  -17.9740   20.8373 C   0  0  2  0  0  0  0  0  0  0  0  0
   13.2256  -18.3800   22.1623 C   0  0  0  0  0  0  0  0  0  0  0  0
   14.7032  -18.5715   22.3682 C   0  0  0  0  0  0  0  0  0  0  0  0
   15.2692  -19.6839   21.6033 O   0  0  0  0  0  0  0  0  0  0  0  0
   16.3814  -19.5735   21.0338 C   0  0  0  0  0  0  0  0  0  0  0  0
   12.7385  -17.4191   23.1959 O   0  0  0  0  0  0  0  0  0  0  0  0
   13.2446  -16.2707   23.1980 O   0  0  0  0  0  0  0  0  0  0  0  0
   14.5912  -20.8853   21.4896 O   0  0  0  0  0  0  0  0  0  0  0  0
    9.1235  -17.3964   24.6657 C   0  0  0  0  0  0  0  0  0  0  0  0
    9.9773  -16.3333   24.9664 C   0  0  1  0  0  0  0  0  0  0  0  0
   11.3613  -16.8699   25.2391 N   0  0  0  0  0  0  0  0  0  0  0  0
   11.7490  -17.7388   24.1575 C   0  0  0  0  0  0  0  0  0  0  0  0
   11.3425  -17.5540   26.5450 O   0  0  0  0  0  0  0  0  0  0  0  0
   11.0731  -16.8107   27.6784 O   0  0  0  0  0  0  0  0  0  0  0  0
  2  1  1  0
  3  2  2  0
  4  2  1  0
  5  4  1  0
  6  5  1  0
  6  7  1  0
  8  7  1  0
  8  9  1  1
 10  8  1  0
 10 12  1  0
 11 10  2  0
 12 13  1  0
 13 14  1  6
 15 16  2  0
 15 14  1  0
 17 18  2  0
 17 13  1  0
 19 15  1  0
 21 20  1  0
 22 21  1  6
 22 23  1  0
 23 17  1  0
 24 22  1  0
 24 25  1  0
 26 24  2  0
M  END
$$$$
