RDS.pdb
     RDKit          3D

 26 25  0  0  1  0  0  0  0  0999 V2000
    6.4335  -12.6144   17.7676 N   0  0  0  0  0  0  0  0  0  0  0  0
    7.7236  -13.1897   17.5497 C   0  0  0  0  0  0  0  0  0  0  0  0
    7.8378  -14.2445   16.7863 N   0  0  0  0  0  0  0  0  0  0  0  0
    8.8576  -12.6012   18.1702 N   0  0  0  0  0  0  0  0  0  0  0  0
    9.2308  -12.9260   19.5055 C   0  0  0  0  0  0  0  0  0  0  0  0
    9.2174  -14.3917   19.8115 C   0  0  0  0  0  0  0  0  0  0  0  0
   10.5387  -14.9803   20.1509 C   0  0  0  0  0  0  0  0  0  0  0  0
   10.4570  -16.1005   21.1562 C   0  0  2  0  0  0  0  0  0  0  0  0
    9.5958  -15.7677   22.2705 N   0  0  0  0  0  0  0  0  0  0  0  0
   11.7775  -16.4484   21.7237 C   0  0  0  0  0  0  0  0  0  0  0  0
   12.6295  -16.9294   20.9352 O   0  0  0  0  0  0  0  0  0  0  0  0
    8.7892  -14.5919   16.5530 N   0  0  0  0  0  0  0  0  0  0  0  0
   12.1330  -16.2733   23.0859 C   0  0  1  0  0  0  0  0  0  0  0  0
   13.4130  -16.6589   23.5875 C   0  0  0  0  0  0  0  0  0  0  0  0
   14.3387  -15.4983   23.8297 C   0  0  0  0  0  0  0  0  0  0  0  0
   15.5372  -15.5104   22.9894 O   0  0  0  0  0  0  0  0  0  0  0  0
   15.4482  -15.4399   21.7401 C   0  0  0  0  0  0  0  0  0  0  0  0
   13.3149  -17.4406   24.8557 O   0  0  0  0  0  0  0  0  0  0  0  0
   12.4338  -17.0931   25.6792 O   0  0  0  0  0  0  0  0  0  0  0  0
   16.7985  -15.5997   23.5525 O   0  0  0  0  0  0  0  0  0  0  0  0
   12.2202  -21.0781   26.8761 C   0  0  0  0  0  0  0  0  0  0  0  0
   12.5009  -20.1114   25.9085 C   0  0  1  0  0  0  0  0  0  0  0  0
   13.8631  -19.5201   26.1780 N   0  0  0  0  0  0  0  0  0  0  0  0
   14.1559  -18.5369   25.1666 C   0  0  0  0  0  0  0  0  0  0  0  0
   14.8455  -20.6189   26.2104 O   0  0  0  0  0  0  0  0  0  0  0  0
   14.8030  -21.5146   27.2618 O   0  0  0  0  0  0  0  0  0  0  0  0
  2  1  1  0
  3  2  2  0
  4  2  1  0
  5  4  1  0
  6  5  1  0
  6  7  1  0
  8  7  1  0
  8  9  1  1
 10  8  1  0
 10 12  1  0
 11 10  2  0
 12 13  1  0
 13 14  1  6
 15 16  2  0
 15 14  1  0
 17 18  2  0
 17 13  1  0
 19 15  1  0
 21 20  1  0
 22 21  1  1
 22 23  1  0
 23 17  1  0
 24 22  1  0
 24 25  1  0
 26 24  2  0
M  END
$$$$
