RDS.pdb
     RDKit          3D

 26 25  0  0  1  0  0  0  0  0999 V2000
    9.6258  -13.4853   17.4609 N   0  0  0  0  0  0  0  0  0  0  0  0
    8.8072  -13.0021   18.5282 C   0  0  0  0  0  0  0  0  0  0  0  0
    9.3407  -12.2636   19.4655 N   0  0  0  0  0  0  0  0  0  0  0  0
    7.4271  -13.3366   18.5479 N   0  0  0  0  0  0  0  0  0  0  0  0
    6.8072  -13.8813   19.7085 C   0  0  0  0  0  0  0  0  0  0  0  0
    7.1277  -15.3218   19.9616 C   0  0  0  0  0  0  0  0  0  0  0  0
    7.4466  -15.6618   21.3723 C   0  0  0  0  0  0  0  0  0  0  0  0
    8.8695  -15.3487   21.7589 C   0  0  2  0  0  0  0  0  0  0  0  0
    9.8180  -15.8460   20.7858 N   0  0  0  0  0  0  0  0  0  0  0  0
    9.2439  -15.9377   23.0626 C   0  0  0  0  0  0  0  0  0  0  0  0
    8.4563  -15.7471   24.0230 O   0  0  0  0  0  0  0  0  0  0  0  0
    8.7472  -11.9649   20.2647 N   0  0  0  0  0  0  0  0  0  0  0  0
   10.4227  -16.6941   23.2887 C   0  0  1  0  0  0  0  0  0  0  0  0
   10.7605  -17.1968   24.5816 C   0  0  0  0  0  0  0  0  0  0  0  0
   11.9640  -18.0991   24.5806 C   0  0  0  0  0  0  0  0  0  0  0  0
   12.1260  -18.8730   25.8125 O   0  0  0  0  0  0  0  0  0  0  0  0
   11.3833  -18.6698   26.8027 C   0  0  0  0  0  0  0  0  0  0  0  0
   11.0058  -16.1051   25.5700 O   0  0  0  0  0  0  0  0  0  0  0  0
   12.0848  -15.4717   25.4719 O   0  0  0  0  0  0  0  0  0  0  0  0
   13.1028  -19.8483   25.9152 O   0  0  0  0  0  0  0  0  0  0  0  0
    8.0031  -14.3632   27.6240 C   0  0  0  0  0  0  0  0  0  0  0  0
    9.2381  -13.7184   27.5332 C   0  0  1  0  0  0  0  0  0  0  0  0
   10.3409  -14.7472   27.5917 N   0  0  0  0  0  0  0  0  0  0  0  0
   10.0927  -15.7577   26.5955 C   0  0  0  0  0  0  0  0  0  0  0  0
   10.3919  -15.2924   28.9606 O   0  0  0  0  0  0  0  0  0  0  0  0
   10.6385  -14.4272   30.0094 O   0  0  0  0  0  0  0  0  0  0  0  0
  2  1  1  0
  3  2  2  0
  4  2  1  0
  5  4  1  0
  6  5  1  0
  6  7  1  0
  8  7  1  0
  8  9  1  6
 10  8  1  0
 10 12  1  0
 11 10  2  0
 12 13  1  0
 13 14  1  6
 15 16  2  0
 15 14  1  0
 17 18  2  0
 17 13  1  0
 19 15  1  0
 21 20  1  0
 22 21  1  6
 22 23  1  0
 23 17  1  0
 24 22  1  0
 24 25  1  0
 26 24  2  0
M  END
$$$$
