RDS.pdb
     RDKit          3D

 26 25  0  0  1  0  0  0  0  0999 V2000
    6.5830  -13.0499   17.6060 N   0  0  0  0  0  0  0  0  0  0  0  0
    7.8300  -13.7098   17.8344 C   0  0  0  0  0  0  0  0  0  0  0  0
    8.4686  -14.2464   16.8280 N   0  0  0  0  0  0  0  0  0  0  0  0
    8.3500  -13.7693   19.1547 N   0  0  0  0  0  0  0  0  0  0  0  0
    7.5780  -13.3634   20.2804 C   0  0  0  0  0  0  0  0  0  0  0  0
    7.0921  -14.4922   21.1357 C   0  0  0  0  0  0  0  0  0  0  0  0
    8.1337  -15.1549   21.9622 C   0  0  0  0  0  0  0  0  0  0  0  0
    8.8632  -16.2579   21.2387 C   0  0  2  0  0  0  0  0  0  0  0  0
    8.0063  -17.3942   20.9767 N   0  0  0  0  0  0  0  0  0  0  0  0
   10.0244  -16.7634   22.0021 C   0  0  0  0  0  0  0  0  0  0  0  0
    9.8639  -17.8302   22.6466 O   0  0  0  0  0  0  0  0  0  0  0  0
    9.3420  -14.7773   17.0163 N   0  0  0  0  0  0  0  0  0  0  0  0
   11.2900  -16.1240   22.0484 C   0  0  1  0  0  0  0  0  0  0  0  0
   12.3957  -16.6888   22.7534 C   0  0  0  0  0  0  0  0  0  0  0  0
   13.6939  -15.9683   22.5128 C   0  0  0  0  0  0  0  0  0  0  0  0
   14.8540  -16.6152   23.1279 O   0  0  0  0  0  0  0  0  0  0  0  0
   15.0925  -16.4802   24.3520 C   0  0  0  0  0  0  0  0  0  0  0  0
   12.1645  -16.7391   24.2275 O   0  0  0  0  0  0  0  0  0  0  0  0
   11.4869  -15.8128   24.7356 O   0  0  0  0  0  0  0  0  0  0  0  0
   15.7166  -17.3920   22.3739 O   0  0  0  0  0  0  0  0  0  0  0  0
   10.0113  -19.4318   26.8810 C   0  0  0  0  0  0  0  0  0  0  0  0
   10.6656  -18.8901   25.7729 C   0  0  1  0  0  0  0  0  0  0  0  0
   11.9732  -18.2812   26.2171 N   0  0  0  0  0  0  0  0  0  0  0  0
   12.6662  -17.7659   25.0641 C   0  0  0  0  0  0  0  0  0  0  0  0
   12.7434  -19.3134   26.9346 O   0  0  0  0  0  0  0  0  0  0  0  0
   13.9562  -19.7187   26.4107 O   0  0  0  0  0  0  0  0  0  0  0  0
  2  1  1  0
  3  2  2  0
  4  2  1  0
  5  4  1  0
  6  5  1  0
  6  7  1  0
  8  7  1  0
  8  9  1  1
 10  8  1  0
 10 12  1  0
 11 10  2  0
 12 13  1  0
 13 14  1  6
 15 16  2  0
 15 14  1  0
 17 18  2  0
 17 13  1  0
 19 15  1  0
 21 20  1  0
 22 21  1  1
 22 23  1  0
 23 17  1  0
 24 22  1  0
 24 25  1  0
 26 24  2  0
M  END
$$$$
