CHC.pdb
     RDKit          3D

 23 23  0  0  1  0  0  0  0  0999 V2000
   28.6573  -15.4603  -18.7885 N   0  0  0  0  0  0  0  0  0  0  0  0
   28.2172  -14.4555  -17.8486 C   0  0  1  0  0  0  0  0  0  0  0  0
   29.1026  -13.2539  -18.0143 C   0  0  0  0  0  0  0  0  0  0  0  0
   30.8328  -13.7192  -17.7244 S   0  0  0  0  0  0  0  0  0  0  0  0
   26.7837  -14.1666  -18.0253 C   0  0  0  0  0  0  0  0  0  0  0  0
   26.3160  -14.3188  -19.1788 O   0  0  0  0  0  0  0  0  0  0  0  0
   25.9301  -13.7364  -16.9833 N   0  0  0  0  0  0  0  0  0  0  0  0
   24.5483  -13.4617  -17.0003 C   0  0  1  0  0  0  0  0  0  0  0  0
   23.7010  -14.0533  -15.9007 C   0  0  0  0  0  0  0  0  0  0  0  0
   23.5330  -15.5243  -16.0189 C   0  0  0  0  0  0  0  0  0  0  0  0
   24.0792  -16.2625  -17.0810 C   0  0  0  0  0  0  0  0  0  0  0  0
   23.7562  -17.5329  -16.8971 N   0  0  0  0  0  0  0  0  0  0  0  0
   23.0278  -17.6429  -15.7654 C   0  0  0  0  0  0  0  0  0  0  0  0
   22.9090  -16.4126  -15.2562 N   0  0  0  0  0  0  0  0  0  0  0  0
   24.1597  -12.0854  -17.3118 C   0  0  0  0  0  0  0  0  0  0  0  0
   24.5895  -11.0901  -16.6239 O   0  0  0  0  0  0  0  0  0  0  0  0
   23.2943  -11.7722  -18.3833 N   0  0  0  0  0  0  0  0  0  0  0  0
   23.0614  -10.3721  -18.7019 C   0  0  1  0  0  0  0  0  0  0  0  0
   22.8141  -10.2047  -20.1922 C   0  0  0  0  0  0  0  0  0  0  0  0
   24.3726  -10.4568  -21.0460 S   0  0  0  0  0  0  0  0  0  0  0  0
   21.8343   -9.9410  -18.0128 C   0  0  0  0  0  0  0  0  0  0  0  0
   21.1310  -10.7418  -17.3565 O   0  0  0  0  0  0  0  0  0  0  0  0
   21.4316   -8.6219  -18.0804 O   0  0  0  0  0  0  0  0  0  0  0  0
  2  3  1  0
  2  1  1  6
  3  4  1  0
  5  6  2  0
  5  2  1  0
  7  5  1  0
  8  7  1  0
  8  9  1  1
 10  9  1  0
 11 10  2  0
 12 11  1  0
 13 14  2  0
 13 12  1  0
 14 10  1  0
 15  8  1  0
 15 17  1  0
 16 15  2  0
 18 17  1  0
 18 21  1  0
 18 19  1  6
 20 19  1  0
 21 23  1  0
 22 21  2  0
M  END
$$$$
