CHC.pdb
     RDKit          3D

 23 23  0  0  1  0  0  0  0  0999 V2000
   28.0740  -19.1016  -16.5277 N   0  0  0  0  0  0  0  0  0  0  0  0
   27.2023  -18.4393  -15.5853 C   0  0  1  0  0  0  0  0  0  0  0  0
   26.5294  -17.3045  -16.3028 C   0  0  0  0  0  0  0  0  0  0  0  0
   27.7438  -16.0106  -16.6840 S   0  0  0  0  0  0  0  0  0  0  0  0
   26.2638  -19.3985  -14.9780 C   0  0  0  0  0  0  0  0  0  0  0  0
   25.9000  -20.3615  -15.6940 O   0  0  0  0  0  0  0  0  0  0  0  0
   25.7651  -19.2890  -13.6593 N   0  0  0  0  0  0  0  0  0  0  0  0
   24.9513  -20.1726  -12.9230 C   0  0  1  0  0  0  0  0  0  0  0  0
   25.4093  -20.5608  -11.5387 C   0  0  0  0  0  0  0  0  0  0  0  0
   26.8695  -20.8204  -11.4570 C   0  0  0  0  0  0  0  0  0  0  0  0
   27.5808  -21.4562  -12.4870 C   0  0  0  0  0  0  0  0  0  0  0  0
   28.8481  -21.5351  -12.1127 N   0  0  0  0  0  0  0  0  0  0  0  0
   28.9816  -20.9788  -10.8896 C   0  0  0  0  0  0  0  0  0  0  0  0
   27.7691  -20.5555  -10.5185 N   0  0  0  0  0  0  0  0  0  0  0  0
   23.5090  -19.9294  -12.9754 C   0  0  0  0  0  0  0  0  0  0  0  0
   23.0189  -18.7476  -12.8666 O   0  0  0  0  0  0  0  0  0  0  0  0
   22.5756  -20.9751  -13.1494 N   0  0  0  0  0  0  0  0  0  0  0  0
   21.2743  -20.6577  -13.7168 C   0  0  1  0  0  0  0  0  0  0  0  0
   21.4104  -20.3223  -15.1929 C   0  0  0  0  0  0  0  0  0  0  0  0
   19.7756  -19.9449  -15.8303 S   0  0  0  0  0  0  0  0  0  0  0  0
   20.4273  -21.8580  -13.6263 C   0  0  0  0  0  0  0  0  0  0  0  0
   19.2488  -21.8030  -13.2084 O   0  0  0  0  0  0  0  0  0  0  0  0
   20.9283  -23.0869  -14.0080 O   0  0  0  0  0  0  0  0  0  0  0  0
  2  3  1  0
  2  1  1  6
  3  4  1  0
  5  6  2  0
  5  2  1  0
  7  5  1  0
  8  7  1  0
  8  9  1  1
 10  9  1  0
 11 10  2  0
 12 11  1  0
 13 14  2  0
 13 12  1  0
 14 10  1  0
 15  8  1  0
 15 17  1  0
 16 15  2  0
 18 17  1  0
 18 21  1  0
 18 19  1  6
 20 19  1  0
 21 23  1  0
 22 21  2  0
M  END
$$$$
