CHC.pdb
     RDKit          3D

 23 23  0  0  1  0  0  0  0  0999 V2000
   27.0338  -34.9059   -8.4299 N   0  0  0  0  0  0  0  0  0  0  0  0
   27.1742  -33.9015   -7.4012 C   0  0  1  0  0  0  0  0  0  0  0  0
   25.9118  -33.0884   -7.3793 C   0  0  0  0  0  0  0  0  0  0  0  0
   26.0450  -31.7127   -8.5556 S   0  0  0  0  0  0  0  0  0  0  0  0
   27.5043  -34.5218   -6.1066 C   0  0  0  0  0  0  0  0  0  0  0  0
   26.7458  -35.4387   -5.7112 O   0  0  0  0  0  0  0  0  0  0  0  0
   28.6078  -34.1431   -5.3076 N   0  0  0  0  0  0  0  0  0  0  0  0
   29.0233  -34.6256   -4.0507 C   0  0  1  0  0  0  0  0  0  0  0  0
   30.4495  -34.3626   -3.6339 C   0  0  0  0  0  0  0  0  0  0  0  0
   31.4325  -35.2294   -4.3330 C   0  0  0  0  0  0  0  0  0  0  0  0
   31.0434  -36.2843   -5.1738 C   0  0  0  0  0  0  0  0  0  0  0  0
   32.1431  -36.8554   -5.6394 N   0  0  0  0  0  0  0  0  0  0  0  0
   33.2196  -36.2146   -5.1354 C   0  0  0  0  0  0  0  0  0  0  0  0
   32.7591  -35.2364   -4.3491 N   0  0  0  0  0  0  0  0  0  0  0  0
   28.0860  -34.4486   -2.9406 C   0  0  0  0  0  0  0  0  0  0  0  0
   27.6228  -33.2933   -2.6255 O   0  0  0  0  0  0  0  0  0  0  0  0
   27.6366  -35.5331   -2.1552 N   0  0  0  0  0  0  0  0  0  0  0  0
   26.6880  -35.2695   -1.0844 C   0  0  1  0  0  0  0  0  0  0  0  0
   25.3667  -35.9653   -1.3675 C   0  0  0  0  0  0  0  0  0  0  0  0
   24.3175  -35.7746    0.0762 S   0  0  0  0  0  0  0  0  0  0  0  0
   27.2217  -35.8521    0.1574 C   0  0  0  0  0  0  0  0  0  0  0  0
   28.2771  -36.5248    0.1692 O   0  0  0  0  0  0  0  0  0  0  0  0
   26.5546  -35.6625    1.3515 O   0  0  0  0  0  0  0  0  0  0  0  0
  2  3  1  0
  2  1  1  6
  3  4  1  0
  5  6  2  0
  5  2  1  0
  7  5  1  0
  8  7  1  0
  8  9  1  1
 10  9  1  0
 11 10  2  0
 12 11  1  0
 13 14  2  0
 13 12  1  0
 14 10  1  0
 15  8  1  0
 15 17  1  0
 16 15  2  0
 18 17  1  0
 18 21  1  0
 18 19  1  6
 20 19  1  0
 21 23  1  0
 22 21  2  0
M  END
$$$$
