CHC.pdb
     RDKit          3D

 23 23  0  0  1  0  0  0  0  0999 V2000
   20.7696  -17.5961  -15.5021 N   0  0  0  0  0  0  0  0  0  0  0  0
   20.4804  -16.3236  -16.1214 C   0  0  1  0  0  0  0  0  0  0  0  0
   19.0482  -15.9840  -15.8237 C   0  0  0  0  0  0  0  0  0  0  0  0
   17.9504  -17.1822  -16.6319 S   0  0  0  0  0  0  0  0  0  0  0  0
   21.4392  -15.2968  -15.6787 C   0  0  0  0  0  0  0  0  0  0  0  0
   21.3648  -14.9355  -14.4802 O   0  0  0  0  0  0  0  0  0  0  0  0
   22.4156  -14.7129  -16.5185 N   0  0  0  0  0  0  0  0  0  0  0  0
   23.3402  -13.6837  -16.2522 C   0  0  1  0  0  0  0  0  0  0  0  0
   24.6793  -13.7460  -16.9449 C   0  0  0  0  0  0  0  0  0  0  0  0
   25.6418  -12.7287  -16.4500 C   0  0  0  0  0  0  0  0  0  0  0  0
   26.0449  -11.6313  -17.2273 C   0  0  0  0  0  0  0  0  0  0  0  0
   26.8974  -10.9189  -16.5077 N   0  0  0  0  0  0  0  0  0  0  0  0
   27.0593  -11.5096  -15.3043 C   0  0  0  0  0  0  0  0  0  0  0  0
   26.2879  -12.6014  -15.2982 N   0  0  0  0  0  0  0  0  0  0  0  0
   22.8071  -12.3213  -16.2107 C   0  0  0  0  0  0  0  0  0  0  0  0
   21.9792  -11.8928  -17.0937 O   0  0  0  0  0  0  0  0  0  0  0  0
   23.1688  -11.4023  -15.2010 N   0  0  0  0  0  0  0  0  0  0  0  0
   22.5505  -10.0856  -15.2059 C   0  0  1  0  0  0  0  0  0  0  0  0
   22.6326   -9.4594  -13.8234 C   0  0  0  0  0  0  0  0  0  0  0  0
   21.9248   -7.8127  -13.9160 S   0  0  0  0  0  0  0  0  0  0  0  0
   23.3186   -9.2196  -16.1149 C   0  0  0  0  0  0  0  0  0  0  0  0
   24.4940   -9.4917  -16.4479 O   0  0  0  0  0  0  0  0  0  0  0  0
   22.7445   -8.0717  -16.6245 O   0  0  0  0  0  0  0  0  0  0  0  0
  2  3  1  0
  2  1  1  1
  3  4  1  0
  5  6  2  0
  5  2  1  0
  7  5  1  0
  8  7  1  0
  8  9  1  6
 10  9  1  0
 11 10  2  0
 12 11  1  0
 13 14  2  0
 13 12  1  0
 14 10  1  0
 15  8  1  0
 15 17  1  0
 16 15  2  0
 18 17  1  0
 18 21  1  0
 18 19  1  1
 20 19  1  0
 21 23  1  0
 22 21  2  0
M  END
$$$$
