CHC.pdb
     RDKit          3D

 23 23  0  0  1  0  0  0  0  0999 V2000
   14.2643  -11.3297    4.6806 N   0  0  0  0  0  0  0  0  0  0  0  0
   14.8307  -11.4727    6.0018 C   0  0  1  0  0  0  0  0  0  0  0  0
   13.6998  -11.4538    6.9897 C   0  0  0  0  0  0  0  0  0  0  0  0
   13.1305   -9.7490    7.2414 S   0  0  0  0  0  0  0  0  0  0  0  0
   15.6705  -12.6801    6.0826 C   0  0  0  0  0  0  0  0  0  0  0  0
   15.5606  -13.5069    5.1463 O   0  0  0  0  0  0  0  0  0  0  0  0
   16.5726  -12.9459    7.1386 N   0  0  0  0  0  0  0  0  0  0  0  0
   17.4538  -14.0292    7.3253 C   0  0  1  0  0  0  0  0  0  0  0  0
   18.7091  -13.7835    8.1260 C   0  0  0  0  0  0  0  0  0  0  0  0
   19.6115  -12.7800    7.5057 C   0  0  0  0  0  0  0  0  0  0  0  0
   19.3204  -12.1600    6.2801 C   0  0  0  0  0  0  0  0  0  0  0  0
   20.3102  -11.3253    6.0053 N   0  0  0  0  0  0  0  0  0  0  0  0
   21.2228  -11.3818    6.9990 C   0  0  0  0  0  0  0  0  0  0  0  0
   20.7736  -12.2695    7.8919 N   0  0  0  0  0  0  0  0  0  0  0  0
   16.8433  -15.3204    7.6452 C   0  0  0  0  0  0  0  0  0  0  0  0
   15.9312  -15.4325    8.5419 O   0  0  0  0  0  0  0  0  0  0  0  0
   17.2183  -16.5132    6.9884 N   0  0  0  0  0  0  0  0  0  0  0  0
   16.4953  -17.7359    7.3018 C   0  0  1  0  0  0  0  0  0  0  0  0
   15.9047  -18.3380    6.0374 C   0  0  0  0  0  0  0  0  0  0  0  0
   17.1195  -18.1786    4.7259 S   0  0  0  0  0  0  0  0  0  0  0  0
   17.4562  -18.7153    7.8346 C   0  0  0  0  0  0  0  0  0  0  0  0
   18.6858  -18.4835    7.8638 O   0  0  0  0  0  0  0  0  0  0  0  0
   17.0085  -19.9282    8.3198 O   0  0  0  0  0  0  0  0  0  0  0  0
  2  3  1  0
  2  1  1  6
  3  4  1  0
  5  6  2  0
  5  2  1  0
  7  5  1  0
  8  7  1  0
  8  9  1  1
 10  9  1  0
 11 10  2  0
 12 11  1  0
 13 14  2  0
 13 12  1  0
 14 10  1  0
 15  8  1  0
 15 17  1  0
 16 15  2  0
 18 17  1  0
 18 21  1  0
 18 19  1  6
 20 19  1  0
 21 23  1  0
 22 21  2  0
M  END
$$$$
