CHC.pdb
     RDKit          3D

 23 23  0  0  1  0  0  0  0  0999 V2000
   29.6950  -20.8887  -12.1957 N   0  0  0  0  0  0  0  0  0  0  0  0
   28.4022  -21.3293  -11.7255 C   0  0  1  0  0  0  0  0  0  0  0  0
   28.3660  -21.1365  -10.2366 C   0  0  0  0  0  0  0  0  0  0  0  0
   29.7255  -22.0573   -9.4632 S   0  0  0  0  0  0  0  0  0  0  0  0
   27.3201  -20.6323  -12.4416 C   0  0  0  0  0  0  0  0  0  0  0  0
   27.3555  -19.3789  -12.4346 O   0  0  0  0  0  0  0  0  0  0  0  0
   26.2689  -21.2915  -13.1200 N   0  0  0  0  0  0  0  0  0  0  0  0
   25.1762  -20.7583  -13.8318 C   0  0  1  0  0  0  0  0  0  0  0  0
   25.2253  -20.8138  -15.3389 C   0  0  0  0  0  0  0  0  0  0  0  0
   26.3980  -20.1053  -15.9125 C   0  0  0  0  0  0  0  0  0  0  0  0
   26.4084  -18.7183  -16.1298 C   0  0  0  0  0  0  0  0  0  0  0  0
   27.5860  -18.3994  -16.6435 N   0  0  0  0  0  0  0  0  0  0  0  0
   28.3311  -19.5190  -16.7655 C   0  0  0  0  0  0  0  0  0  0  0  0
   27.5869  -20.5344  -16.3157 N   0  0  0  0  0  0  0  0  0  0  0  0
   23.8436  -21.0726  -13.3146 C   0  0  0  0  0  0  0  0  0  0  0  0
   23.5420  -22.2480  -12.8948 O   0  0  0  0  0  0  0  0  0  0  0  0
   22.8161  -20.1060  -13.2456 N   0  0  0  0  0  0  0  0  0  0  0  0
   21.5441  -20.4852  -12.6504 C   0  0  1  0  0  0  0  0  0  0  0  0
   21.1566  -19.4985  -11.5613 C   0  0  0  0  0  0  0  0  0  0  0  0
   19.5657  -19.9989  -10.8981 S   0  0  0  0  0  0  0  0  0  0  0  0
   20.5064  -20.4042  -13.6911 C   0  0  0  0  0  0  0  0  0  0  0  0
   20.7013  -19.8014  -14.7706 O   0  0  0  0  0  0  0  0  0  0  0  0
   19.2784  -21.0029  -13.4898 O   0  0  0  0  0  0  0  0  0  0  0  0
  2  3  1  0
  2  1  1  6
  3  4  1  0
  5  6  2  0
  5  2  1  0
  7  5  1  0
  8  7  1  0
  8  9  1  6
 10  9  1  0
 11 10  2  0
 12 11  1  0
 13 14  2  0
 13 12  1  0
 14 10  1  0
 15  8  1  0
 15 17  1  0
 16 15  2  0
 18 17  1  0
 18 21  1  0
 18 19  1  1
 20 19  1  0
 21 23  1  0
 22 21  2  0
M  END
$$$$
