CHC.pdb
     RDKit          3D

 23 23  0  0  1  0  0  0  0  0999 V2000
   25.1107  -11.1753  -17.4978 N   0  0  0  0  0  0  0  0  0  0  0  0
   24.8942  -10.7111  -16.1471 C   0  0  1  0  0  0  0  0  0  0  0  0
   26.1883  -10.1360  -15.6472 C   0  0  0  0  0  0  0  0  0  0  0  0
   27.4469  -11.4404  -15.5548 S   0  0  0  0  0  0  0  0  0  0  0  0
   23.7644   -9.7676  -16.0935 C   0  0  0  0  0  0  0  0  0  0  0  0
   23.6566   -8.9624  -17.0487 O   0  0  0  0  0  0  0  0  0  0  0  0
   22.8185   -9.7266  -15.0432 N   0  0  0  0  0  0  0  0  0  0  0  0
   21.7211   -8.8651  -14.8464 C   0  0  1  0  0  0  0  0  0  0  0  0
   20.5351   -9.4015  -14.0831 C   0  0  0  0  0  0  0  0  0  0  0  0
   19.8283  -10.4970  -14.7947 C   0  0  0  0  0  0  0  0  0  0  0  0
   20.2028  -10.9273  -16.0775 C   0  0  0  0  0  0  0  0  0  0  0  0
   19.3862  -11.9083  -16.4282 N   0  0  0  0  0  0  0  0  0  0  0  0
   18.5051  -12.1266  -15.4284 C   0  0  0  0  0  0  0  0  0  0  0  0
   18.7967  -11.2587  -14.4543 N   0  0  0  0  0  0  0  0  0  0  0  0
   22.0330   -7.4841  -14.4754 C   0  0  0  0  0  0  0  0  0  0  0  0
   22.9558   -7.2045  -13.6275 O   0  0  0  0  0  0  0  0  0  0  0  0
   21.3418   -6.3825  -15.0267 N   0  0  0  0  0  0  0  0  0  0  0  0
   21.8013   -5.0410  -14.7025 C   0  0  1  0  0  0  0  0  0  0  0  0
   22.8767   -4.6009  -15.6822 C   0  0  0  0  0  0  0  0  0  0  0  0
   23.3088   -2.8999  -15.3064 S   0  0  0  0  0  0  0  0  0  0  0  0
   20.6690   -4.1147  -14.8644 C   0  0  0  0  0  0  0  0  0  0  0  0
   19.7626   -4.3221  -15.7023 O   0  0  0  0  0  0  0  0  0  0  0  0
   20.5866   -2.9811  -14.0802 O   0  0  0  0  0  0  0  0  0  0  0  0
  2  3  1  0
  2  1  1  6
  3  4  1  0
  5  6  2  0
  5  2  1  0
  7  5  1  0
  8  7  1  0
  8  9  1  1
 10  9  1  0
 11 10  2  0
 12 11  1  0
 13 14  2  0
 13 12  1  0
 14 10  1  0
 15  8  1  0
 15 17  1  0
 16 15  2  0
 18 17  1  0
 18 21  1  0
 18 19  1  6
 20 19  1  0
 21 23  1  0
 22 21  2  0
M  END
$$$$
