KWA.pdb
     RDKit          3D

 29 30  0  0  1  0  0  0  0  0999 V2000
    7.7014  -16.2611   21.2513 N   0  0  0  0  0  0  0  0  0  0  0  0
    8.5257  -15.0784   21.1538 C   0  0  1  0  0  0  0  0  0  0  0  0
    7.8343  -13.8547   20.6969 C   0  0  0  0  0  0  0  0  0  0  0  0
    7.3587  -13.7908   19.2995 C   0  0  0  0  0  0  0  0  0  0  0  0
    8.4738  -13.8127   18.2904 C   0  0  0  0  0  0  0  0  0  0  0  0
    7.8442  -13.7982   16.8949 C   0  0  0  0  0  0  0  0  0  0  0  0
    8.9509  -13.9637   15.9618 N   0  0  0  0  0  0  0  0  0  0  0  0
    9.2559  -14.9165   22.4332 C   0  0  0  0  0  0  0  0  0  0  0  0
   10.0616  -13.9551   22.5562 O   0  0  0  0  0  0  0  0  0  0  0  0
    9.0248  -15.8483   23.4842 N   0  0  0  0  0  0  0  0  0  0  0  0
    9.7523  -15.8060   24.7012 C   0  0  1  0  0  0  0  0  0  0  0  0
    8.9260  -15.9852   25.9396 C   0  0  0  0  0  0  0  0  0  0  0  0
    7.6526  -15.2846   25.9499 C   0  0  0  0  0  0  0  0  0  0  0  0
    6.3954  -15.7710   25.6540 C   0  0  0  0  0  0  0  0  0  0  0  0
    5.5038  -14.7729   25.7930 N   0  0  0  0  0  0  0  0  0  0  0  0
    6.1715  -13.6536   26.1738 C   0  0  0  0  0  0  0  0  0  0  0  0
    5.7378  -12.3728   26.4478 C   0  0  0  0  0  0  0  0  0  0  0  0
    6.5914  -11.3549   26.8271 C   0  0  0  0  0  0  0  0  0  0  0  0
    7.9373  -11.6525   26.9313 C   0  0  0  0  0  0  0  0  0  0  0  0
    8.3660  -12.9342   26.6563 C   0  0  0  0  0  0  0  0  0  0  0  0
    7.5142  -13.9518   26.2774 C   0  0  0  0  0  0  0  0  0  0  0  0
   10.7908  -16.8604   24.7357 C   0  0  0  0  0  0  0  0  0  0  0  0
   11.1652  -17.4090   25.8098 O   0  0  0  0  0  0  0  0  0  0  0  0
   12.4670  -19.0143   22.2388 C   0  0  0  0  0  0  0  0  0  0  0  0
   12.4429  -18.2574   23.5544 C   0  0  2  0  0  0  0  0  0  0  0  0
   11.3845  -17.2659   23.5075 N   0  0  0  0  0  0  0  0  0  0  0  0
   13.7168  -17.5903   23.8508 C   0  0  0  0  0  0  0  0  0  0  0  0
   13.7974  -16.2209   23.9050 O   0  0  0  0  0  0  0  0  0  0  0  0
   14.7777  -18.2496   24.0658 O   0  0  0  0  0  0  0  0  0  0  0  0
  2  1  1  1
  2  3  1  0
  3  4  1  0
  4  5  1  0
  5  6  1  0
  7  6  1  0
  8  9  2  0
  8  2  1  0
 10  8  1  0
 11 22  1  0
 11 10  1  0
 11 12  1  1
 13 12  1  0
 13 21  1  0
 14 15  1  0
 14 13  2  0
 15 16  1  0
 16 17  1  0
 16 21  2  0
 17 18  2  0
 18 19  1  0
 20 19  2  0
 21 20  1  0
 22 23  2  0
 25 24  1  6
 26 25  1  0
 26 22  1  0
 27 25  1  0
 28 27  1  0
 29 27  2  0
M  END
$$$$
