KWA.pdb
     RDKit          3D

 29 30  0  0  1  0  0  0  0  0999 V2000
    7.4760  -16.7571   21.3038 N   0  0  0  0  0  0  0  0  0  0  0  0
    8.5181  -15.7590   21.2279 C   0  0  1  0  0  0  0  0  0  0  0  0
    8.1664  -14.5238   20.4968 C   0  0  0  0  0  0  0  0  0  0  0  0
    7.7315  -14.6346   19.0891 C   0  0  0  0  0  0  0  0  0  0  0  0
    8.6279  -13.9004   18.1302 C   0  0  0  0  0  0  0  0  0  0  0  0
    7.7526  -12.9646   17.2923 C   0  0  0  0  0  0  0  0  0  0  0  0
    7.8811  -13.4307   15.9178 N   0  0  0  0  0  0  0  0  0  0  0  0
    9.0334  -15.5232   22.5973 C   0  0  0  0  0  0  0  0  0  0  0  0
    9.5408  -14.4026   22.8715 O   0  0  0  0  0  0  0  0  0  0  0  0
    8.9385  -16.5663   23.5613 N   0  0  0  0  0  0  0  0  0  0  0  0
    9.4812  -16.4378   24.8655 C   0  0  1  0  0  0  0  0  0  0  0  0
    8.4683  -16.3646   25.9687 C   0  0  0  0  0  0  0  0  0  0  0  0
    7.4379  -15.3523   25.8070 C   0  0  0  0  0  0  0  0  0  0  0  0
    6.1205  -15.5120   25.4280 C   0  0  0  0  0  0  0  0  0  0  0  0
    5.5283  -14.3039   25.4093 N   0  0  0  0  0  0  0  0  0  0  0  0
    6.4473  -13.3721   25.7709 C   0  0  0  0  0  0  0  0  0  0  0  0
    6.3619  -12.0020   25.9098 C   0  0  0  0  0  0  0  0  0  0  0  0
    7.4316  -11.2171   26.2950 C   0  0  0  0  0  0  0  0  0  0  0  0
    8.6335  -11.8514   26.5484 C   0  0  0  0  0  0  0  0  0  0  0  0
    8.7139  -13.2210   26.4082 C   0  0  0  0  0  0  0  0  0  0  0  0
    7.6460  -14.0061   26.0235 C   0  0  0  0  0  0  0  0  0  0  0  0
   10.3670  -17.5795   25.1866 C   0  0  0  0  0  0  0  0  0  0  0  0
    9.9924  -18.7806   25.0773 O   0  0  0  0  0  0  0  0  0  0  0  0
   13.9908  -18.0388   25.7006 C   0  0  0  0  0  0  0  0  0  0  0  0
   12.5473  -18.4282   25.9630 C   0  0  2  0  0  0  0  0  0  0  0  0
   11.6898  -17.3048   25.6343 N   0  0  0  0  0  0  0  0  0  0  0  0
   12.3093  -18.8261   27.3561 C   0  0  0  0  0  0  0  0  0  0  0  0
   12.9329  -19.9269   27.8892 O   0  0  0  0  0  0  0  0  0  0  0  0
   11.5269  -18.1728   28.1092 O   0  0  0  0  0  0  0  0  0  0  0  0
  2  1  1  1
  2  3  1  0
  3  4  1  0
  4  5  1  0
  5  6  1  0
  7  6  1  0
  8  9  2  0
  8  2  1  0
 10  8  1  0
 11 22  1  0
 11 10  1  0
 11 12  1  1
 13 12  1  0
 13 21  1  0
 14 15  1  0
 14 13  2  0
 15 16  1  0
 16 17  1  0
 16 21  2  0
 17 18  2  0
 18 19  1  0
 20 19  2  0
 21 20  1  0
 22 23  2  0
 25 24  1  1
 26 25  1  0
 26 22  1  0
 27 25  1  0
 28 27  1  0
 29 27  2  0
M  END
$$$$
