KWA.pdb
     RDKit          3D

 29 30  0  0  1  0  0  0  0  0999 V2000
    7.2973  -16.3902   20.9227 N   0  0  0  0  0  0  0  0  0  0  0  0
    8.3386  -15.4139   20.6985 C   0  0  1  0  0  0  0  0  0  0  0  0
    7.9237  -14.1928   19.9769 C   0  0  0  0  0  0  0  0  0  0  0  0
    7.3335  -14.3334   18.6297 C   0  0  0  0  0  0  0  0  0  0  0  0
    7.8603  -13.3289   17.6420 C   0  0  0  0  0  0  0  0  0  0  0  0
    7.2178  -13.6244   16.2840 C   0  0  0  0  0  0  0  0  0  0  0  0
    7.8157  -12.6782   15.3512 N   0  0  0  0  0  0  0  0  0  0  0  0
    9.0121  -15.1505   21.9921 C   0  0  0  0  0  0  0  0  0  0  0  0
    9.6749  -14.0870   22.1271 O   0  0  0  0  0  0  0  0  0  0  0  0
    8.8893  -16.1032   23.0426 N   0  0  0  0  0  0  0  0  0  0  0  0
    9.6838  -16.0369   24.2158 C   0  0  1  0  0  0  0  0  0  0  0  0
    8.9361  -16.2404   25.4995 C   0  0  0  0  0  0  0  0  0  0  0  0
    7.7254  -15.4506   25.6513 C   0  0  0  0  0  0  0  0  0  0  0  0
    6.4117  -15.8424   25.4931 C   0  0  0  0  0  0  0  0  0  0  0  0
    5.6150  -14.7848   25.7321 N   0  0  0  0  0  0  0  0  0  0  0  0
    6.3995  -13.7205   26.0413 C   0  0  0  0  0  0  0  0  0  0  0  0
    6.0920  -12.4150   26.3655 C   0  0  0  0  0  0  0  0  0  0  0  0
    7.0532  -11.4652   26.6526 C   0  0  0  0  0  0  0  0  0  0  0  0
    8.3774  -11.8596   26.6079 C   0  0  0  0  0  0  0  0  0  0  0  0
    8.6797  -13.1654   26.2834 C   0  0  0  0  0  0  0  0  0  0  0  0
    7.7203  -14.1152   25.9965 C   0  0  0  0  0  0  0  0  0  0  0  0
   10.7550  -17.0582   24.1897 C   0  0  0  0  0  0  0  0  0  0  0  0
   10.5131  -18.2924   24.0753 O   0  0  0  0  0  0  0  0  0  0  0  0
   14.4326  -16.9399   23.7260 C   0  0  0  0  0  0  0  0  0  0  0  0
   13.1550  -17.6208   24.1826 C   0  0  2  0  0  0  0  0  0  0  0  0
   12.1063  -16.6246   24.2976 N   0  0  0  0  0  0  0  0  0  0  0  0
   13.3071  -18.3128   25.4686 C   0  0  0  0  0  0  0  0  0  0  0  0
   12.6335  -17.8799   26.5838 O   0  0  0  0  0  0  0  0  0  0  0  0
   14.0586  -19.3256   25.5932 O   0  0  0  0  0  0  0  0  0  0  0  0
  2  1  1  1
  2  3  1  0
  3  4  1  0
  4  5  1  0
  5  6  1  0
  7  6  1  0
  8  9  2  0
  8  2  1  0
 10  8  1  0
 11 22  1  0
 11 10  1  0
 11 12  1  1
 13 12  1  0
 13 21  1  0
 14 15  1  0
 14 13  2  0
 15 16  1  0
 16 17  1  0
 16 21  2  0
 17 18  2  0
 18 19  1  0
 20 19  2  0
 21 20  1  0
 22 23  2  0
 25 24  1  1
 26 25  1  0
 26 22  1  0
 27 25  1  0
 28 27  1  0
 29 27  2  0
M  END
$$$$
