KWA.pdb
     RDKit          3D

 29 30  0  0  1  0  0  0  0  0999 V2000
    7.5709  -16.7214   21.3441 N   0  0  0  0  0  0  0  0  0  0  0  0
    8.6043  -15.7177   21.2323 C   0  0  1  0  0  0  0  0  0  0  0  0
    8.1716  -14.4146   20.6858 C   0  0  0  0  0  0  0  0  0  0  0  0
    7.5883  -14.3752   19.3289 C   0  0  0  0  0  0  0  0  0  0  0  0
    8.1335  -13.2601   18.4795 C   0  0  0  0  0  0  0  0  0  0  0  0
    7.5640  -13.4238   17.0677 C   0  0  0  0  0  0  0  0  0  0  0  0
    8.1524  -12.3496   16.2786 N   0  0  0  0  0  0  0  0  0  0  0  0
    9.3006  -15.6232   22.5371 C   0  0  0  0  0  0  0  0  0  0  0  0
   10.2044  -14.7570   22.6827 O   0  0  0  0  0  0  0  0  0  0  0  0
    8.9275  -16.5101   23.5861 N   0  0  0  0  0  0  0  0  0  0  0  0
    9.5519  -16.4752   24.8593 C   0  0  1  0  0  0  0  0  0  0  0  0
    8.6107  -16.4137   26.0249 C   0  0  0  0  0  0  0  0  0  0  0  0
    7.5277  -15.4516   25.9056 C   0  0  0  0  0  0  0  0  0  0  0  0
    6.2118  -15.6701   25.5521 C   0  0  0  0  0  0  0  0  0  0  0  0
    5.5599  -14.4932   25.5702 N   0  0  0  0  0  0  0  0  0  0  0  0
    6.4393  -13.5233   25.9302 C   0  0  0  0  0  0  0  0  0  0  0  0
    6.2890  -12.1621   26.0979 C   0  0  0  0  0  0  0  0  0  0  0  0
    7.3266  -11.3317   26.4753 C   0  0  0  0  0  0  0  0  0  0  0  0
    8.5641  -11.9095   26.6900 C   0  0  0  0  0  0  0  0  0  0  0  0
    8.7094  -13.2705   26.5211 C   0  0  0  0  0  0  0  0  0  0  0  0
    7.6734  -14.1009   26.1441 C   0  0  0  0  0  0  0  0  0  0  0  0
   10.3983  -17.6716   25.0683 C   0  0  0  0  0  0  0  0  0  0  0  0
    9.9669  -18.8461   24.8972 O   0  0  0  0  0  0  0  0  0  0  0  0
   14.0200  -18.3025   25.4046 C   0  0  0  0  0  0  0  0  0  0  0  0
   12.5712  -18.6596   25.6837 C   0  0  2  0  0  0  0  0  0  0  0  0
   11.7484  -17.4825   25.4770 N   0  0  0  0  0  0  0  0  0  0  0  0
   12.3613  -19.1624   27.0471 C   0  0  0  0  0  0  0  0  0  0  0  0
   11.5374  -18.4987   27.9220 O   0  0  0  0  0  0  0  0  0  0  0  0
   12.9281  -20.2179   27.4605 O   0  0  0  0  0  0  0  0  0  0  0  0
  2  1  1  1
  2  3  1  0
  3  4  1  0
  4  5  1  0
  5  6  1  0
  7  6  1  0
  8  9  2  0
  8  2  1  0
 10  8  1  0
 11 22  1  0
 11 10  1  0
 11 12  1  1
 13 12  1  0
 13 21  1  0
 14 15  1  0
 14 13  2  0
 15 16  1  0
 16 17  1  0
 16 21  2  0
 17 18  2  0
 18 19  1  0
 20 19  2  0
 21 20  1  0
 22 23  2  0
 25 24  1  1
 26 25  1  0
 26 22  1  0
 27 25  1  0
 28 27  1  0
 29 27  2  0
M  END
$$$$
