KWA.pdb
     RDKit          3D

 29 30  0  0  1  0  0  0  0  0999 V2000
    7.9111  -16.5512   21.3817 N   0  0  0  0  0  0  0  0  0  0  0  0
    8.8492  -15.4548   21.3057 C   0  0  1  0  0  0  0  0  0  0  0  0
    8.3230  -14.2046   20.7193 C   0  0  0  0  0  0  0  0  0  0  0  0
    7.6010  -14.2761   19.4322 C   0  0  0  0  0  0  0  0  0  0  0  0
    8.2263  -13.4364   18.3523 C   0  0  0  0  0  0  0  0  0  0  0  0
    7.3207  -13.5064   17.1197 C   0  0  0  0  0  0  0  0  0  0  0  0
    7.9413  -12.6410   16.1253 N   0  0  0  0  0  0  0  0  0  0  0  0
    9.4670  -15.2811   22.6416 C   0  0  0  0  0  0  0  0  0  0  0  0
   10.2565  -14.3161   22.8255 O   0  0  0  0  0  0  0  0  0  0  0  0
    9.1497  -16.2060   23.6761 N   0  0  0  0  0  0  0  0  0  0  0  0
    9.7294  -16.1187   24.9677 C   0  0  1  0  0  0  0  0  0  0  0  0
    8.7628  -16.2526   26.1062 C   0  0  0  0  0  0  0  0  0  0  0  0
    7.6146  -15.3624   26.0611 C   0  0  0  0  0  0  0  0  0  0  0  0
    6.2893  -15.6713   25.8313 C   0  0  0  0  0  0  0  0  0  0  0  0
    5.5680  -14.5365   25.8795 N   0  0  0  0  0  0  0  0  0  0  0  0
    6.4121  -13.5045   26.1369 C   0  0  0  0  0  0  0  0  0  0  0  0
    6.1907  -12.1507   26.2852 C   0  0  0  0  0  0  0  0  0  0  0  0
    7.2025  -11.2478   26.5491 C   0  0  0  0  0  0  0  0  0  0  0  0
    8.4882  -11.7422   26.6664 C   0  0  0  0  0  0  0  0  0  0  0  0
    8.7044  -13.0961   26.5173 C   0  0  0  0  0  0  0  0  0  0  0  0
    7.6944  -13.9990   26.2537 C   0  0  0  0  0  0  0  0  0  0  0  0
   10.7525  -17.1707   25.1624 C   0  0  0  0  0  0  0  0  0  0  0  0
   11.2977  -17.3882   26.2806 O   0  0  0  0  0  0  0  0  0  0  0  0
   12.1668  -19.8959   23.0285 C   0  0  0  0  0  0  0  0  0  0  0  0
   12.1549  -18.9726   24.2332 C   0  0  2  0  0  0  0  0  0  0  0  0
   11.1300  -17.9633   24.0422 N   0  0  0  0  0  0  0  0  0  0  0  0
   13.4470  -18.3125   24.4574 C   0  0  0  0  0  0  0  0  0  0  0  0
   14.5678  -19.0454   24.7599 O   0  0  0  0  0  0  0  0  0  0  0  0
   13.5722  -17.0537   24.3799 O   0  0  0  0  0  0  0  0  0  0  0  0
  2  1  1  1
  2  3  1  0
  3  4  1  0
  4  5  1  0
  5  6  1  0
  7  6  1  0
  8  9  2  0
  8  2  1  0
 10  8  1  0
 11 22  1  0
 11 10  1  0
 11 12  1  1
 13 12  1  0
 13 21  1  0
 14 15  1  0
 14 13  2  0
 15 16  1  0
 16 17  1  0
 16 21  2  0
 17 18  2  0
 18 19  1  0
 20 19  2  0
 21 20  1  0
 22 23  2  0
 25 24  1  6
 26 25  1  0
 26 22  1  0
 27 25  1  0
 28 27  1  0
 29 27  2  0
M  END
$$$$
