KWA.pdb
     RDKit          3D

 29 30  0  0  1  0  0  0  0  0999 V2000
    7.7097  -16.6864   21.4851 N   0  0  0  0  0  0  0  0  0  0  0  0
    8.7359  -15.6947   21.2585 C   0  0  1  0  0  0  0  0  0  0  0  0
    8.2893  -14.4569   20.5859 C   0  0  0  0  0  0  0  0  0  0  0  0
    7.6393  -14.5655   19.2635 C   0  0  0  0  0  0  0  0  0  0  0  0
    8.2147  -13.6264   18.2392 C   0  0  0  0  0  0  0  0  0  0  0  0
    7.5176  -13.9034   16.9045 C   0  0  0  0  0  0  0  0  0  0  0  0
    8.0369  -12.9087   15.9751 N   0  0  0  0  0  0  0  0  0  0  0  0
    9.4460  -15.4629   22.5385 C   0  0  0  0  0  0  0  0  0  0  0  0
   10.3079  -14.5453   22.5983 O   0  0  0  0  0  0  0  0  0  0  0  0
    9.1330  -16.2804   23.6611 N   0  0  0  0  0  0  0  0  0  0  0  0
    9.8129  -16.1512   24.8993 C   0  0  1  0  0  0  0  0  0  0  0  0
    8.9335  -16.1988   26.1128 C   0  0  0  0  0  0  0  0  0  0  0  0
    7.7243  -15.3953   26.0421 C   0  0  0  0  0  0  0  0  0  0  0  0
    6.4273  -15.8035   25.8057 C   0  0  0  0  0  0  0  0  0  0  0  0
    5.6252  -14.7234   25.8279 N   0  0  0  0  0  0  0  0  0  0  0  0
    6.3895  -13.6287   26.0751 C   0  0  0  0  0  0  0  0  0  0  0  0
    6.0691  -12.2923   26.1981 C   0  0  0  0  0  0  0  0  0  0  0  0
    7.0100  -11.3140   26.4556 C   0  0  0  0  0  0  0  0  0  0  0  0
    8.3268  -11.7117   26.5928 C   0  0  0  0  0  0  0  0  0  0  0  0
    8.6422  -13.0485   26.4691 C   0  0  0  0  0  0  0  0  0  0  0  0
    7.7030  -14.0267   26.2120 C   0  0  0  0  0  0  0  0  0  0  0  0
   10.8166  -17.2261   25.0683 C   0  0  0  0  0  0  0  0  0  0  0  0
   11.4895  -17.3657   26.1279 O   0  0  0  0  0  0  0  0  0  0  0  0
   11.7847  -20.2833   23.1932 C   0  0  0  0  0  0  0  0  0  0  0  0
   12.0795  -19.1209   24.1239 C   0  0  2  0  0  0  0  0  0  0  0  0
   11.0249  -18.1330   23.9914 N   0  0  0  0  0  0  0  0  0  0  0  0
   13.3740  -18.4853   23.8485 C   0  0  0  0  0  0  0  0  0  0  0  0
   14.5346  -18.9982   24.3726 O   0  0  0  0  0  0  0  0  0  0  0  0
   13.4648  -17.4500   23.1232 O   0  0  0  0  0  0  0  0  0  0  0  0
  2  1  1  1
  2  3  1  0
  3  4  1  0
  4  5  1  0
  5  6  1  0
  7  6  1  0
  8  9  2  0
  8  2  1  0
 10  8  1  0
 11 22  1  0
 11 10  1  0
 11 12  1  1
 13 12  1  0
 13 21  1  0
 14 15  1  0
 14 13  2  0
 15 16  1  0
 16 17  1  0
 16 21  2  0
 17 18  2  0
 18 19  1  0
 20 19  2  0
 21 20  1  0
 22 23  2  0
 25 24  1  6
 26 25  1  0
 26 22  1  0
 27 25  1  0
 28 27  1  0
 29 27  2  0
M  END
$$$$
