KWA.pdb
     RDKit          3D

 29 30  0  0  1  0  0  0  0  0999 V2000
    7.5026  -16.4424   21.4865 N   0  0  0  0  0  0  0  0  0  0  0  0
    8.4604  -15.3906   21.2336 C   0  0  1  0  0  0  0  0  0  0  0  0
    7.8929  -14.1122   20.7565 C   0  0  0  0  0  0  0  0  0  0  0  0
    7.1336  -14.1046   19.4890 C   0  0  0  0  0  0  0  0  0  0  0  0
    7.6838  -13.1426   18.4721 C   0  0  0  0  0  0  0  0  0  0  0  0
    7.9325  -13.9202   17.1769 C   0  0  0  0  0  0  0  0  0  0  0  0
    8.5253  -12.9639   16.2511 N   0  0  0  0  0  0  0  0  0  0  0  0
    9.3272  -15.2571   22.4282 C   0  0  0  0  0  0  0  0  0  0  0  0
   10.2554  -14.4046   22.4139 O   0  0  0  0  0  0  0  0  0  0  0  0
    9.0853  -16.0923   23.5553 N   0  0  0  0  0  0  0  0  0  0  0  0
    9.8005  -15.9421   24.7709 C   0  0  1  0  0  0  0  0  0  0  0  0
    8.9620  -16.0128   26.0120 C   0  0  0  0  0  0  0  0  0  0  0  0
    7.6967  -15.2997   25.9547 C   0  0  0  0  0  0  0  0  0  0  0  0
    6.4268  -15.8054   25.7647 C   0  0  0  0  0  0  0  0  0  0  0  0
    5.5499  -14.7851   25.7821 N   0  0  0  0  0  0  0  0  0  0  0  0
    6.2396  -13.6324   25.9804 C   0  0  0  0  0  0  0  0  0  0  0  0
    5.8272  -12.3194   26.0788 C   0  0  0  0  0  0  0  0  0  0  0  0
    6.7016  -11.2700   26.2854 C   0  0  0  0  0  0  0  0  0  0  0  0
    8.0467  -11.5689   26.3961 C   0  0  0  0  0  0  0  0  0  0  0  0
    8.4541  -12.8828   26.2972 C   0  0  0  0  0  0  0  0  0  0  0  0
    7.5815  -13.9319   26.0908 C   0  0  0  0  0  0  0  0  0  0  0  0
   10.8391  -16.9879   24.9083 C   0  0  0  0  0  0  0  0  0  0  0  0
   11.4755  -17.1751   25.9830 O   0  0  0  0  0  0  0  0  0  0  0  0
   11.9875  -19.8858   22.8966 C   0  0  0  0  0  0  0  0  0  0  0  0
   12.2162  -18.7604   23.8892 C   0  0  2  0  0  0  0  0  0  0  0  0
   11.1251  -17.8098   23.7822 N   0  0  0  0  0  0  0  0  0  0  0  0
   13.4891  -18.0610   23.6735 C   0  0  0  0  0  0  0  0  0  0  0  0
   13.5167  -16.8088   23.1115 O   0  0  0  0  0  0  0  0  0  0  0  0
   14.5974  -18.5841   23.9964 O   0  0  0  0  0  0  0  0  0  0  0  0
  2  1  1  1
  2  3  1  0
  3  4  1  0
  4  5  1  0
  5  6  1  0
  7  6  1  0
  8  9  2  0
  8  2  1  0
 10  8  1  0
 11 22  1  0
 11 10  1  0
 11 12  1  1
 13 12  1  0
 13 21  1  0
 14 15  1  0
 14 13  2  0
 15 16  1  0
 16 17  1  0
 16 21  2  0
 17 18  2  0
 18 19  1  0
 20 19  2  0
 21 20  1  0
 22 23  2  0
 25 24  1  6
 26 25  1  0
 26 22  1  0
 27 25  1  0
 28 27  1  0
 29 27  2  0
M  END
$$$$
