KWA.pdb
     RDKit          3D

 29 30  0  0  1  0  0  0  0  0999 V2000
    7.2207  -16.1323   18.6341 N   0  0  0  0  0  0  0  0  0  0  0  0
    8.0128  -17.0171   19.4572 C   0  0  1  0  0  0  0  0  0  0  0  0
    9.1521  -17.6698   18.7790 C   0  0  0  0  0  0  0  0  0  0  0  0
    8.9854  -18.1058   17.3772 C   0  0  0  0  0  0  0  0  0  0  0  0
   10.1241  -18.9525   16.8784 C   0  0  0  0  0  0  0  0  0  0  0  0
    9.8067  -19.3650   15.4386 C   0  0  0  0  0  0  0  0  0  0  0  0
   10.9427  -20.1641   14.9983 N   0  0  0  0  0  0  0  0  0  0  0  0
    8.3835  -16.2900   20.6943 C   0  0  0  0  0  0  0  0  0  0  0  0
    9.1953  -15.3293   20.6149 O   0  0  0  0  0  0  0  0  0  0  0  0
    7.8113  -16.6959   21.9329 N   0  0  0  0  0  0  0  0  0  0  0  0
    8.1763  -16.0933   23.1641 C   0  0  1  0  0  0  0  0  0  0  0  0
    7.0873  -16.0462   24.1937 C   0  0  0  0  0  0  0  0  0  0  0  0
    7.4096  -15.3255   25.4140 C   0  0  0  0  0  0  0  0  0  0  0  0
    7.8986  -15.8190   26.6065 C   0  0  0  0  0  0  0  0  0  0  0  0
    8.0507  -14.7952   27.4662 N   0  0  0  0  0  0  0  0  0  0  0  0
    7.6661  -13.6524   26.8419 C   0  0  0  0  0  0  0  0  0  0  0  0
    7.6246  -12.3409   27.2685 C   0  0  0  0  0  0  0  0  0  0  0  0
    7.1927  -11.3025   26.4662 C   0  0  0  0  0  0  0  0  0  0  0  0
    6.7877  -11.6113   25.1810 C   0  0  0  0  0  0  0  0  0  0  0  0
    6.8311  -12.9236   24.7592 C   0  0  0  0  0  0  0  0  0  0  0  0
    7.2624  -13.9618   25.5598 C   0  0  0  0  0  0  0  0  0  0  0  0
    9.3115  -16.8087   23.7891 C   0  0  0  0  0  0  0  0  0  0  0  0
    9.2627  -18.0370   24.0789 O   0  0  0  0  0  0  0  0  0  0  0  0
   12.8700  -15.9157   24.5109 C   0  0  0  0  0  0  0  0  0  0  0  0
   11.6423  -16.8048   24.5918 C   0  0  2  0  0  0  0  0  0  0  0  0
   10.4998  -16.0778   24.0705 N   0  0  0  0  0  0  0  0  0  0  0  0
   11.3493  -17.2477   25.9606 C   0  0  0  0  0  0  0  0  0  0  0  0
   11.0660  -16.3374   26.9486 O   0  0  0  0  0  0  0  0  0  0  0  0
   11.3472  -18.4753   26.2755 O   0  0  0  0  0  0  0  0  0  0  0  0
  2  1  1  6
  2  3  1  0
  3  4  1  0
  4  5  1  0
  5  6  1  0
  7  6  1  0
  8  9  2  0
  8  2  1  0
 10  8  1  0
 11 22  1  0
 11 10  1  0
 11 12  1  1
 13 12  1  0
 13 21  1  0
 14 15  1  0
 14 13  2  0
 15 16  1  0
 16 17  1  0
 16 21  2  0
 17 18  2  0
 18 19  1  0
 20 19  2  0
 21 20  1  0
 22 23  2  0
 25 24  1  1
 26 25  1  0
 26 22  1  0
 27 25  1  0
 28 27  1  0
 29 27  2  0
M  END
$$$$
