KWA.pdb
     RDKit          3D

 29 30  0  0  1  0  0  0  0  0999 V2000
    6.9243  -15.9868   20.5935 N   0  0  0  0  0  0  0  0  0  0  0  0
    8.3494  -15.7521   20.5515 C   0  0  1  0  0  0  0  0  0  0  0  0
    8.8121  -14.8228   19.4997 C   0  0  0  0  0  0  0  0  0  0  0  0
    7.9832  -14.6564   18.2881 C   0  0  0  0  0  0  0  0  0  0  0  0
    8.6199  -13.7757   17.2483 C   0  0  0  0  0  0  0  0  0  0  0  0
    7.7568  -13.8410   15.9855 C   0  0  0  0  0  0  0  0  0  0  0  0
    8.4491  -13.0296   14.9928 N   0  0  0  0  0  0  0  0  0  0  0  0
    8.7991  -15.3903   21.9165 C   0  0  0  0  0  0  0  0  0  0  0  0
    9.1745  -14.2081   22.1396 O   0  0  0  0  0  0  0  0  0  0  0  0
    8.7920  -16.3860   22.9338 N   0  0  0  0  0  0  0  0  0  0  0  0
    9.5456  -16.2479   24.1275 C   0  0  1  0  0  0  0  0  0  0  0  0
    8.7601  -16.4086   25.3946 C   0  0  0  0  0  0  0  0  0  0  0  0
    7.6503  -15.4855   25.5651 C   0  0  0  0  0  0  0  0  0  0  0  0
    6.3039  -15.7035   25.3547 C   0  0  0  0  0  0  0  0  0  0  0  0
    5.6350  -14.5707   25.6372 N   0  0  0  0  0  0  0  0  0  0  0  0
    6.5334  -13.6297   26.0257 C   0  0  0  0  0  0  0  0  0  0  0  0
    6.3774  -12.3163   26.4187 C   0  0  0  0  0  0  0  0  0  0  0  0
    7.4380  -11.5092   26.7825 C   0  0  0  0  0  0  0  0  0  0  0  0
    8.7052  -12.0603   26.7446 C   0  0  0  0  0  0  0  0  0  0  0  0
    8.8561  -13.3735   26.3512 C   0  0  0  0  0  0  0  0  0  0  0  0
    7.7973  -14.1807   25.9876 C   0  0  0  0  0  0  0  0  0  0  0  0
   10.6380  -17.2452   24.1838 C   0  0  0  0  0  0  0  0  0  0  0  0
   10.4642  -18.4596   23.8836 O   0  0  0  0  0  0  0  0  0  0  0  0
   13.3255  -18.0268   23.0387 C   0  0  0  0  0  0  0  0  0  0  0  0
   13.0287  -17.7552   24.5023 C   0  0  2  0  0  0  0  0  0  0  0  0
   11.9304  -16.8111   24.5923 N   0  0  0  0  0  0  0  0  0  0  0  0
   14.1870  -17.2192   25.2282 C   0  0  0  0  0  0  0  0  0  0  0  0
   15.3204  -17.9747   25.3993 O   0  0  0  0  0  0  0  0  0  0  0  0
   14.1813  -16.0502   25.7177 O   0  0  0  0  0  0  0  0  0  0  0  0
  2  1  1  1
  2  3  1  0
  3  4  1  0
  4  5  1  0
  5  6  1  0
  7  6  1  0
  8  9  2  0
  8  2  1  0
 10  8  1  0
 11 22  1  0
 11 10  1  0
 11 12  1  1
 13 12  1  0
 13 21  1  0
 14 15  1  0
 14 13  2  0
 15 16  1  0
 16 17  1  0
 16 21  2  0
 17 18  2  0
 18 19  1  0
 20 19  2  0
 21 20  1  0
 22 23  2  0
 25 24  1  6
 26 25  1  0
 26 22  1  0
 27 25  1  0
 28 27  1  0
 29 27  2  0
M  END
$$$$
