KWA.pdb
     RDKit          3D

 29 30  0  0  1  0  0  0  0  0999 V2000
    8.0978  -16.7328   21.4153 N   0  0  0  0  0  0  0  0  0  0  0  0
    9.1069  -15.7000   21.3625 C   0  0  1  0  0  0  0  0  0  0  0  0
    8.7103  -14.4553   20.6716 C   0  0  0  0  0  0  0  0  0  0  0  0
    8.1673  -14.5494   19.3007 C   0  0  0  0  0  0  0  0  0  0  0  0
    7.8459  -13.2106   18.6953 C   0  0  0  0  0  0  0  0  0  0  0  0
    7.2587  -13.4542   17.3025 C   0  0  0  0  0  0  0  0  0  0  0  0
    8.3534  -13.9851   16.5008 N   0  0  0  0  0  0  0  0  0  0  0  0
    9.6254  -15.4891   22.7348 C   0  0  0  0  0  0  0  0  0  0  0  0
   10.4387  -14.5484   22.9396 O   0  0  0  0  0  0  0  0  0  0  0  0
    9.1889  -16.3521   23.7794 N   0  0  0  0  0  0  0  0  0  0  0  0
    9.6953  -16.2508   25.1004 C   0  0  1  0  0  0  0  0  0  0  0  0
    8.6609  -16.3296   26.1831 C   0  0  0  0  0  0  0  0  0  0  0  0
    7.5044  -15.4667   26.0086 C   0  0  0  0  0  0  0  0  0  0  0  0
    6.2209  -15.8062   25.6317 C   0  0  0  0  0  0  0  0  0  0  0  0
    5.4722  -14.6887   25.5977 N   0  0  0  0  0  0  0  0  0  0  0  0
    6.2575  -13.6376   25.9473 C   0  0  0  0  0  0  0  0  0  0  0  0
    5.9891  -12.2897   26.0686 C   0  0  0  0  0  0  0  0  0  0  0  0
    6.9433  -11.3637   26.4437 C   0  0  0  0  0  0  0  0  0  0  0  0
    8.2190  -11.8279   26.7049 C   0  0  0  0  0  0  0  0  0  0  0  0
    8.4824  -13.1761   26.5823 C   0  0  0  0  0  0  0  0  0  0  0  0
    7.5299  -14.1020   26.2078 C   0  0  0  0  0  0  0  0  0  0  0  0
   10.6733  -17.3269   25.3779 C   0  0  0  0  0  0  0  0  0  0  0  0
   11.1355  -17.5422   26.5333 O   0  0  0  0  0  0  0  0  0  0  0  0
   12.1123  -20.1612   23.4255 C   0  0  0  0  0  0  0  0  0  0  0  0
   12.1117  -19.1549   24.5620 C   0  0  2  0  0  0  0  0  0  0  0  0
   11.1035  -18.1458   24.2963 N   0  0  0  0  0  0  0  0  0  0  0  0
   13.4136  -18.5009   24.7439 C   0  0  0  0  0  0  0  0  0  0  0  0
   13.6518  -17.2525   24.2247 O   0  0  0  0  0  0  0  0  0  0  0  0
   14.3550  -19.0608   25.3815 O   0  0  0  0  0  0  0  0  0  0  0  0
  2  1  1  1
  2  3  1  0
  3  4  1  0
  4  5  1  0
  5  6  1  0
  7  6  1  0
  8  9  2  0
  8  2  1  0
 10  8  1  0
 11 22  1  0
 11 10  1  0
 11 12  1  1
 13 12  1  0
 13 21  1  0
 14 15  1  0
 14 13  2  0
 15 16  1  0
 16 17  1  0
 16 21  2  0
 17 18  2  0
 18 19  1  0
 20 19  2  0
 21 20  1  0
 22 23  2  0
 25 24  1  6
 26 25  1  0
 26 22  1  0
 27 25  1  0
 28 27  1  0
 29 27  2  0
M  END
$$$$
