DWE.pdb
     RDKit          3D

 32 33  0  0  1  0  0  0  0  0999 V2000
    8.8809  -17.4551   18.9116 N   0  0  0  0  0  0  0  0  0  0  0  0
   10.1153  -16.8161   19.3096 C   0  0  1  0  0  0  0  0  0  0  0  0
   10.6488  -16.0107   18.1621 C   0  0  0  0  0  0  0  0  0  0  0  0
   10.5414  -16.6703   16.8563 C   0  0  0  0  0  0  0  0  0  0  0  0
   11.1087  -17.7829   16.7182 O   0  0  0  0  0  0  0  0  0  0  0  0
    9.9711  -16.0551   20.5626 C   0  0  0  0  0  0  0  0  0  0  0  0
   10.9048  -15.3070   20.9657 O   0  0  0  0  0  0  0  0  0  0  0  0
    9.8402  -16.0869   15.8136 O   0  0  0  0  0  0  0  0  0  0  0  0
    8.7731  -16.1658   21.3194 N   0  0  0  0  0  0  0  0  0  0  0  0
    8.6469  -15.7543   22.6900 C   0  0  1  0  0  0  0  0  0  0  0  0
    7.2443  -15.3599   22.9808 C   0  0  0  0  0  0  0  0  0  0  0  0
    7.0064  -14.9703   24.3880 C   0  0  0  0  0  0  0  0  0  0  0  0
    6.5910  -15.8316   25.4187 C   0  0  0  0  0  0  0  0  0  0  0  0
    6.5121  -15.1368   26.5624 N   0  0  0  0  0  0  0  0  0  0  0  0
    6.8506  -13.8497   26.3644 C   0  0  0  0  0  0  0  0  0  0  0  0
    6.9083  -12.7777   27.2309 C   0  0  0  0  0  0  0  0  0  0  0  0
    7.2851  -11.5541   26.7309 C   0  0  0  0  0  0  0  0  0  0  0  0
    7.5959  -11.4037   25.4018 C   0  0  0  0  0  0  0  0  0  0  0  0
    7.5253  -12.5110   24.5606 C   0  0  0  0  0  0  0  0  0  0  0  0
    7.1568  -13.7515   25.0093 C   0  0  0  0  0  0  0  0  0  0  0  0
    9.1716  -16.7527   23.6543 C   0  0  0  0  0  0  0  0  0  0  0  0
    8.7036  -17.8995   23.7043 O   0  0  0  0  0  0  0  0  0  0  0  0
   10.2270  -16.3203   24.5035 N   0  0  0  0  0  0  0  0  0  0  0  0
   10.8804  -17.2704   25.3683 C   0  0  1  0  0  0  0  0  0  0  0  0
   12.3350  -17.5107   24.9691 C   0  0  0  0  0  0  0  0  0  0  0  0
   13.1099  -16.2205   24.9838 C   0  0  0  0  0  0  0  0  0  0  0  0
   14.4109  -16.4067   24.3333 C   0  0  0  0  0  0  0  0  0  0  0  0
   14.4098  -16.5560   23.0654 O   0  0  0  0  0  0  0  0  0  0  0  0
   10.8584  -16.7691   26.7907 C   0  0  0  0  0  0  0  0  0  0  0  0
   11.2882  -17.5784   27.8331 O   0  0  0  0  0  0  0  0  0  0  0  0
   15.6317  -16.4348   24.9669 O   0  0  0  0  0  0  0  0  0  0  0  0
   10.4562  -15.6166   27.0817 O   0  0  0  0  0  0  0  0  0  0  0  0
  2  1  1  6
  2  3  1  0
  4  3  1  0
  4  8  1  0
  5  4  2  0
  6  7  2  0
  6  2  1  0
  9  6  1  0
 10  9  1  0
 10 11  1  1
 11 12  1  0
 12 13  2  0
 12 20  1  0
 13 14  1  0
 14 15  1  0
 15 16  2  0
 16 17  1  0
 18 17  2  0
 19 18  1  0
 20 19  2  0
 20 15  1  0
 21 10  1  0
 22 21  2  0
 23 21  1  0
 24 25  1  6
 24 23  1  0
 26 27  1  0
 26 25  1  0
 27 28  2  0
 29 24  1  0
 30 29  1  0
 31 27  1  0
 32 29  2  0
M  END
$$$$
