DWE.pdb
     RDKit          3D

 32 33  0  0  1  0  0  0  0  0999 V2000
    9.9470  -17.6928   19.3077 N   0  0  0  0  0  0  0  0  0  0  0  0
   11.1028  -17.1481   19.9843 C   0  0  1  0  0  0  0  0  0  0  0  0
   11.8642  -16.2701   19.0359 C   0  0  0  0  0  0  0  0  0  0  0  0
   12.1923  -16.9030   17.7539 C   0  0  0  0  0  0  0  0  0  0  0  0
   13.3107  -16.6404   17.2449 O   0  0  0  0  0  0  0  0  0  0  0  0
   10.7486  -16.4944   21.2559 C   0  0  0  0  0  0  0  0  0  0  0  0
   11.6362  -15.9231   21.9485 O   0  0  0  0  0  0  0  0  0  0  0  0
   11.3009  -17.7588   17.1275 O   0  0  0  0  0  0  0  0  0  0  0  0
    9.3993  -16.5089   21.7028 N   0  0  0  0  0  0  0  0  0  0  0  0
    8.9822  -16.0969   23.0143 C   0  0  1  0  0  0  0  0  0  0  0  0
    7.5289  -15.7883   23.0177 C   0  0  0  0  0  0  0  0  0  0  0  0
    7.0112  -15.3352   24.3275 C   0  0  0  0  0  0  0  0  0  0  0  0
    6.3910  -16.1501   25.2908 C   0  0  0  0  0  0  0  0  0  0  0  0
    6.0839  -15.4036   26.3611 N   0  0  0  0  0  0  0  0  0  0  0  0
    6.4613  -14.1254   26.1767 C   0  0  0  0  0  0  0  0  0  0  0  0
    6.3462  -13.0141   26.9863 C   0  0  0  0  0  0  0  0  0  0  0  0
    6.8223  -11.8131   26.5173 C   0  0  0  0  0  0  0  0  0  0  0  0
    7.3977  -11.7226   25.2738 C   0  0  0  0  0  0  0  0  0  0  0  0
    7.4950  -12.8680   24.4880 C   0  0  0  0  0  0  0  0  0  0  0  0
    7.0374  -14.0883   24.9092 C   0  0  0  0  0  0  0  0  0  0  0  0
    9.3658  -17.0544   24.0810 C   0  0  0  0  0  0  0  0  0  0  0  0
    8.9498  -18.2221   24.0707 O   0  0  0  0  0  0  0  0  0  0  0  0
   10.2258  -16.5584   25.0990 N   0  0  0  0  0  0  0  0  0  0  0  0
   10.6561  -17.4362   26.1583 C   0  0  1  0  0  0  0  0  0  0  0  0
   12.1413  -17.7784   26.0582 C   0  0  0  0  0  0  0  0  0  0  0  0
   12.4447  -18.4483   24.7450 C   0  0  0  0  0  0  0  0  0  0  0  0
   13.8662  -18.8021   24.6764 C   0  0  0  0  0  0  0  0  0  0  0  0
   14.6100  -18.4049   25.6351 O   0  0  0  0  0  0  0  0  0  0  0  0
   10.4117  -16.7839   27.4961 C   0  0  0  0  0  0  0  0  0  0  0  0
    9.9600  -15.4738   27.5730 O   0  0  0  0  0  0  0  0  0  0  0  0
   14.4694  -19.5232   23.6721 O   0  0  0  0  0  0  0  0  0  0  0  0
   10.6047  -17.3931   28.5762 O   0  0  0  0  0  0  0  0  0  0  0  0
  2  1  1  6
  2  3  1  0
  4  3  1  0
  4  8  1  0
  5  4  2  0
  6  7  2  0
  6  2  1  0
  9  6  1  0
 10  9  1  0
 10 11  1  6
 11 12  1  0
 12 13  2  0
 12 20  1  0
 13 14  1  0
 14 15  1  0
 15 16  2  0
 16 17  1  0
 18 17  2  0
 19 18  1  0
 20 19  2  0
 20 15  1  0
 21 10  1  0
 22 21  2  0
 23 21  1  0
 24 25  1  6
 24 23  1  0
 26 27  1  0
 26 25  1  0
 27 28  2  0
 29 24  1  0
 30 29  1  0
 31 27  1  0
 32 29  2  0
M  END
$$$$
