DWE.pdb
     RDKit          3D

 32 33  0  0  1  0  0  0  0  0999 V2000
    7.7008  -17.5451   21.1323 N   0  0  0  0  0  0  0  0  0  0  0  0
    8.8570  -16.6770   21.1142 C   0  0  1  0  0  0  0  0  0  0  0  0
    8.5955  -15.5227   20.1927 C   0  0  0  0  0  0  0  0  0  0  0  0
    9.0724  -15.7222   18.8199 C   0  0  0  0  0  0  0  0  0  0  0  0
    9.6339  -16.8139   18.5521 O   0  0  0  0  0  0  0  0  0  0  0  0
    9.2791  -16.2813   22.4688 C   0  0  0  0  0  0  0  0  0  0  0  0
   10.1281  -15.3608   22.6290 O   0  0  0  0  0  0  0  0  0  0  0  0
    8.9095  -14.7421   17.8545 O   0  0  0  0  0  0  0  0  0  0  0  0
    8.7256  -16.9415   23.5994 N   0  0  0  0  0  0  0  0  0  0  0  0
    9.2158  -16.7864   24.9409 C   0  0  1  0  0  0  0  0  0  0  0  0
    8.0815  -16.7236   25.8982 C   0  0  0  0  0  0  0  0  0  0  0  0
    7.1898  -15.5595   25.7019 C   0  0  0  0  0  0  0  0  0  0  0  0
    5.8589  -15.6122   25.2517 C   0  0  0  0  0  0  0  0  0  0  0  0
    5.3569  -14.3695   25.2281 N   0  0  0  0  0  0  0  0  0  0  0  0
    6.2750  -13.4751   25.6372 C   0  0  0  0  0  0  0  0  0  0  0  0
    6.2172  -12.1028   25.7679 C   0  0  0  0  0  0  0  0  0  0  0  0
    7.3389  -11.4414   26.2076 C   0  0  0  0  0  0  0  0  0  0  0  0
    8.4880  -12.1302   26.5086 C   0  0  0  0  0  0  0  0  0  0  0  0
    8.5049  -13.5150   26.3634 C   0  0  0  0  0  0  0  0  0  0  0  0
    7.4141  -14.2210   25.9303 C   0  0  0  0  0  0  0  0  0  0  0  0
   10.2270  -17.8047   25.3186 C   0  0  0  0  0  0  0  0  0  0  0  0
    9.8945  -18.9722   25.5697 O   0  0  0  0  0  0  0  0  0  0  0  0
   11.5785  -17.3662   25.3739 N   0  0  0  0  0  0  0  0  0  0  0  0
   12.5903  -18.2420   25.9096 C   0  0  1  0  0  0  0  0  0  0  0  0
   14.0029  -17.7359   25.6247 C   0  0  0  0  0  0  0  0  0  0  0  0
   14.1567  -17.3806   24.1702 C   0  0  0  0  0  0  0  0  0  0  0  0
   15.5113  -16.8807   23.9142 C   0  0  0  0  0  0  0  0  0  0  0  0
   15.6586  -15.6145   23.8420 O   0  0  0  0  0  0  0  0  0  0  0  0
   12.4252  -18.3630   27.4039 C   0  0  0  0  0  0  0  0  0  0  0  0
   13.2619  -19.1866   28.1441 O   0  0  0  0  0  0  0  0  0  0  0  0
   16.6367  -17.6535   23.7450 O   0  0  0  0  0  0  0  0  0  0  0  0
   11.5369  -17.7319   28.0265 O   0  0  0  0  0  0  0  0  0  0  0  0
  2  1  1  1
  2  3  1  0
  4  3  1  0
  4  8  1  0
  5  4  2  0
  6  7  2  0
  6  2  1  0
  9  6  1  0
 10  9  1  0
 10 11  1  1
 11 12  1  0
 12 13  2  0
 12 20  1  0
 13 14  1  0
 14 15  1  0
 15 16  2  0
 16 17  1  0
 18 17  2  0
 19 18  1  0
 20 19  2  0
 20 15  1  0
 21 10  1  0
 22 21  2  0
 23 21  1  0
 24 25  1  1
 24 23  1  0
 26 27  1  0
 26 25  1  0
 27 28  2  0
 29 24  1  0
 30 29  1  0
 31 27  1  0
 32 29  2  0
M  END
$$$$
