DWE.pdb
     RDKit          3D

 32 33  0  0  1  0  0  0  0  0999 V2000
   10.0851  -18.1765   20.0818 N   0  0  0  0  0  0  0  0  0  0  0  0
   11.1190  -17.1835   20.2705 C   0  0  1  0  0  0  0  0  0  0  0  0
   11.4408  -16.5463   18.9512 C   0  0  0  0  0  0  0  0  0  0  0  0
   11.9103  -17.4823   17.9239 C   0  0  0  0  0  0  0  0  0  0  0  0
   11.1362  -17.7307   16.9659 O   0  0  0  0  0  0  0  0  0  0  0  0
   10.7830  -16.2234   21.3358 C   0  0  0  0  0  0  0  0  0  0  0  0
   11.5700  -15.2756   21.6119 O   0  0  0  0  0  0  0  0  0  0  0  0
   13.1617  -18.0707   18.0078 O   0  0  0  0  0  0  0  0  0  0  0  0
    9.5654  -16.3676   22.0549 N   0  0  0  0  0  0  0  0  0  0  0  0
    9.1370  -15.4770   23.0975 C   0  0  1  0  0  0  0  0  0  0  0  0
    7.6672  -15.5791   23.2885 C   0  0  0  0  0  0  0  0  0  0  0  0
    7.1656  -14.8845   24.4947 C   0  0  0  0  0  0  0  0  0  0  0  0
    6.5540  -15.5000   25.6009 C   0  0  0  0  0  0  0  0  0  0  0  0
    6.2612  -14.5635   26.5144 N   0  0  0  0  0  0  0  0  0  0  0  0
    6.6402  -13.3449   26.0882 C   0  0  0  0  0  0  0  0  0  0  0  0
    6.5375  -12.1003   26.6747 C   0  0  0  0  0  0  0  0  0  0  0  0
    7.0118  -11.0117   25.9826 C   0  0  0  0  0  0  0  0  0  0  0  0
    7.5734  -11.1603   24.7384 C   0  0  0  0  0  0  0  0  0  0  0  0
    7.6584  -12.4338   24.1818 C   0  0  0  0  0  0  0  0  0  0  0  0
    7.2020  -13.5504   24.8304 C   0  0  0  0  0  0  0  0  0  0  0  0
    9.8913  -15.6484   24.3639 C   0  0  0  0  0  0  0  0  0  0  0  0
    9.7833  -14.8286   25.2875 O   0  0  0  0  0  0  0  0  0  0  0  0
   10.7318  -16.7920   24.4515 N   0  0  0  0  0  0  0  0  0  0  0  0
   11.5466  -16.9893   25.6240 C   0  0  1  0  0  0  0  0  0  0  0  0
   10.7074  -17.2092   26.8811 C   0  0  0  0  0  0  0  0  0  0  0  0
   10.0524  -18.5640   26.8523 C   0  0  0  0  0  0  0  0  0  0  0  0
   10.0418  -19.1472   28.1977 C   0  0  0  0  0  0  0  0  0  0  0  0
    9.9184  -18.3400   29.1792 O   0  0  0  0  0  0  0  0  0  0  0  0
   12.4359  -18.1927   25.4343 C   0  0  0  0  0  0  0  0  0  0  0  0
   12.2590  -19.0394   24.3489 O   0  0  0  0  0  0  0  0  0  0  0  0
   10.1525  -20.4854   28.4966 O   0  0  0  0  0  0  0  0  0  0  0  0
   13.3573  -18.4702   26.2398 O   0  0  0  0  0  0  0  0  0  0  0  0
  2  1  1  6
  2  3  1  0
  4  3  1  0
  4  8  1  0
  5  4  2  0
  6  7  2  0
  6  2  1  0
  9  6  1  0
 10  9  1  0
 10 11  1  1
 11 12  1  0
 12 13  2  0
 12 20  1  0
 13 14  1  0
 14 15  1  0
 15 16  2  0
 16 17  1  0
 18 17  2  0
 19 18  1  0
 20 19  2  0
 20 15  1  0
 21 10  1  0
 22 21  2  0
 23 21  1  0
 24 25  1  1
 24 23  1  0
 26 27  1  0
 26 25  1  0
 27 28  2  0
 29 24  1  0
 30 29  1  0
 31 27  1  0
 32 29  2  0
M  END
$$$$
