DWE.pdb
     RDKit          3D

 32 33  0  0  1  0  0  0  0  0999 V2000
    8.9045  -16.8782   20.3071 N   0  0  0  0  0  0  0  0  0  0  0  0
   10.2725  -16.9534   20.7690 C   0  0  1  0  0  0  0  0  0  0  0  0
   11.1608  -16.2192   19.8088 C   0  0  0  0  0  0  0  0  0  0  0  0
   11.6198  -17.0232   18.6710 C   0  0  0  0  0  0  0  0  0  0  0  0
   11.0483  -18.1238   18.4683 O   0  0  0  0  0  0  0  0  0  0  0  0
   10.4132  -16.5200   22.1698 C   0  0  0  0  0  0  0  0  0  0  0  0
   11.4140  -15.8396   22.5296 O   0  0  0  0  0  0  0  0  0  0  0  0
   12.6461  -16.5846   17.8503 O   0  0  0  0  0  0  0  0  0  0  0  0
    9.4151  -16.8712   23.1188 N   0  0  0  0  0  0  0  0  0  0  0  0
    9.4591  -16.5013   24.5063 C   0  0  1  0  0  0  0  0  0  0  0  0
    8.0814  -16.3528   25.0422 C   0  0  0  0  0  0  0  0  0  0  0  0
    7.4411  -15.0609   24.7113 C   0  0  0  0  0  0  0  0  0  0  0  0
    6.8054  -14.7476   23.4970 C   0  0  0  0  0  0  0  0  0  0  0  0
    6.3154  -13.5019   23.5698 N   0  0  0  0  0  0  0  0  0  0  0  0
    6.5846  -12.9516   24.7678 C   0  0  0  0  0  0  0  0  0  0  0  0
    6.2907  -11.7077   25.2872 C   0  0  0  0  0  0  0  0  0  0  0  0
    6.7120  -11.4171   26.5628 C   0  0  0  0  0  0  0  0  0  0  0  0
    7.4082  -12.3425   27.3007 C   0  0  0  0  0  0  0  0  0  0  0  0
    7.6841  -13.5867   26.7397 C   0  0  0  0  0  0  0  0  0  0  0  0
    7.2857  -13.9259   25.4740 C   0  0  0  0  0  0  0  0  0  0  0  0
   10.2984  -17.4066   25.3298 C   0  0  0  0  0  0  0  0  0  0  0  0
    9.9238  -18.5578   25.5966 O   0  0  0  0  0  0  0  0  0  0  0  0
   11.5382  -16.8811   25.7864 N   0  0  0  0  0  0  0  0  0  0  0  0
   12.5242  -17.7690   26.3496 C   0  0  1  0  0  0  0  0  0  0  0  0
   13.9481  -17.2550   26.1471 C   0  0  0  0  0  0  0  0  0  0  0  0
   14.9458  -18.1956   26.7678 C   0  0  0  0  0  0  0  0  0  0  0  0
   16.3070  -17.6857   26.5744 C   0  0  0  0  0  0  0  0  0  0  0  0
   16.6089  -17.2655   25.4072 O   0  0  0  0  0  0  0  0  0  0  0  0
   12.2860  -17.9270   27.8306 C   0  0  0  0  0  0  0  0  0  0  0  0
   11.4101  -17.0842   28.5005 O   0  0  0  0  0  0  0  0  0  0  0  0
   17.2870  -17.6197   27.5376 O   0  0  0  0  0  0  0  0  0  0  0  0
   12.8630  -18.8147   28.5042 O   0  0  0  0  0  0  0  0  0  0  0  0
  2  1  1  6
  2  3  1  0
  4  3  1  0
  4  8  1  0
  5  4  2  0
  6  7  2  0
  6  2  1  0
  9  6  1  0
 10  9  1  0
 10 11  1  1
 11 12  1  0
 12 13  2  0
 12 20  1  0
 13 14  1  0
 14 15  1  0
 15 16  2  0
 16 17  1  0
 18 17  2  0
 19 18  1  0
 20 19  2  0
 20 15  1  0
 21 10  1  0
 22 21  2  0
 23 21  1  0
 24 25  1  1
 24 23  1  0
 26 27  1  0
 26 25  1  0
 27 28  2  0
 29 24  1  0
 30 29  1  0
 31 27  1  0
 32 29  2  0
M  END
$$$$
