DWE.pdb
     RDKit          3D

 32 33  0  0  1  0  0  0  0  0999 V2000
    9.0115  -17.0093   18.9980 N   0  0  0  0  0  0  0  0  0  0  0  0
    8.9664  -17.9248   20.1162 C   0  0  1  0  0  0  0  0  0  0  0  0
    9.7103  -19.1780   19.7609 C   0  0  0  0  0  0  0  0  0  0  0  0
    9.2291  -19.8455   18.5465 C   0  0  0  0  0  0  0  0  0  0  0  0
    8.0196  -19.6959   18.2409 O   0  0  0  0  0  0  0  0  0  0  0  0
    9.4131  -17.2957   21.3709 C   0  0  0  0  0  0  0  0  0  0  0  0
   10.5306  -17.5992   21.8742 O   0  0  0  0  0  0  0  0  0  0  0  0
   10.0780  -20.6129   17.7656 O   0  0  0  0  0  0  0  0  0  0  0  0
    8.5794  -16.3423   22.0160 N   0  0  0  0  0  0  0  0  0  0  0  0
    8.9144  -15.6843   23.2483 C   0  0  1  0  0  0  0  0  0  0  0  0
    7.9677  -14.5695   23.5092 C   0  0  0  0  0  0  0  0  0  0  0  0
    8.2297  -13.8372   24.7677 C   0  0  0  0  0  0  0  0  0  0  0  0
    9.4913  -13.4185   25.2258 C   0  0  0  0  0  0  0  0  0  0  0  0
    9.3383  -12.7584   26.3825 N   0  0  0  0  0  0  0  0  0  0  0  0
    8.0410  -12.7066   26.7355 C   0  0  0  0  0  0  0  0  0  0  0  0
    7.4150  -12.1484   27.8309 C   0  0  0  0  0  0  0  0  0  0  0  0
    6.0492  -12.2643   27.9312 C   0  0  0  0  0  0  0  0  0  0  0  0
    5.3268  -12.9199   26.9648 C   0  0  0  0  0  0  0  0  0  0  0  0
    5.9968  -13.4691   25.8747 C   0  0  0  0  0  0  0  0  0  0  0  0
    7.3555  -13.3800   25.7273 C   0  0  0  0  0  0  0  0  0  0  0  0
    9.0327  -16.6148   24.3983 C   0  0  0  0  0  0  0  0  0  0  0  0
    8.0845  -17.3397   24.7333 O   0  0  0  0  0  0  0  0  0  0  0  0
   10.2800  -16.6237   25.0810 N   0  0  0  0  0  0  0  0  0  0  0  0
   10.5250  -17.6089   26.1043 C   0  0  1  0  0  0  0  0  0  0  0  0
   11.9398  -18.1796   26.0305 C   0  0  0  0  0  0  0  0  0  0  0  0
   12.2006  -18.7796   24.6750 C   0  0  0  0  0  0  0  0  0  0  0  0
   13.5799  -19.2715   24.5986 C   0  0  0  0  0  0  0  0  0  0  0  0
   14.4862  -18.5420   25.1245 O   0  0  0  0  0  0  0  0  0  0  0  0
   10.3364  -16.9908   27.4671 C   0  0  0  0  0  0  0  0  0  0  0  0
   10.0467  -15.6398   27.5977 O   0  0  0  0  0  0  0  0  0  0  0  0
   13.9844  -20.4480   24.0115 O   0  0  0  0  0  0  0  0  0  0  0  0
   10.4328  -17.6657   28.5207 O   0  0  0  0  0  0  0  0  0  0  0  0
  2  1  1  6
  2  3  1  0
  4  3  1  0
  4  8  1  0
  5  4  2  0
  6  7  2  0
  6  2  1  0
  9  6  1  0
 10  9  1  0
 10 11  1  1
 11 12  1  0
 12 13  2  0
 12 20  1  0
 13 14  1  0
 14 15  1  0
 15 16  2  0
 16 17  1  0
 18 17  2  0
 19 18  1  0
 20 19  2  0
 20 15  1  0
 21 10  1  0
 22 21  2  0
 23 21  1  0
 24 25  1  1
 24 23  1  0
 26 27  1  0
 26 25  1  0
 27 28  2  0
 29 24  1  0
 30 29  1  0
 31 27  1  0
 32 29  2  0
M  END
$$$$
