DWE.pdb
     RDKit          3D

 32 33  0  0  1  0  0  0  0  0999 V2000
    8.2340  -15.3155   20.0536 N   0  0  0  0  0  0  0  0  0  0  0  0
    8.6343  -16.5500   20.6909 C   0  0  1  0  0  0  0  0  0  0  0  0
    9.5810  -17.2878   19.7912 C   0  0  0  0  0  0  0  0  0  0  0  0
    9.0680  -17.5298   18.4384 C   0  0  0  0  0  0  0  0  0  0  0  0
    9.9000  -17.8296   17.5458 O   0  0  0  0  0  0  0  0  0  0  0  0
    9.1466  -16.3335   22.0548 C   0  0  0  0  0  0  0  0  0  0  0  0
   10.1432  -15.5833   22.2503 O   0  0  0  0  0  0  0  0  0  0  0  0
    7.7153  -17.4310   18.1558 O   0  0  0  0  0  0  0  0  0  0  0  0
    8.5135  -16.9739   23.1545 N   0  0  0  0  0  0  0  0  0  0  0  0
    8.9796  -16.8906   24.5108 C   0  0  1  0  0  0  0  0  0  0  0  0
    7.8282  -16.8747   25.4495 C   0  0  0  0  0  0  0  0  0  0  0  0
    7.0766  -15.6004   25.4614 C   0  0  0  0  0  0  0  0  0  0  0  0
    5.7150  -15.4481   25.1463 C   0  0  0  0  0  0  0  0  0  0  0  0
    5.3737  -14.1605   25.2972 N   0  0  0  0  0  0  0  0  0  0  0  0
    6.4302  -13.4296   25.6971 C   0  0  0  0  0  0  0  0  0  0  0  0
    6.5579  -12.0828   25.9683 C   0  0  0  0  0  0  0  0  0  0  0  0
    7.7889  -11.6090   26.3546 C   0  0  0  0  0  0  0  0  0  0  0  0
    8.8641  -12.4556   26.4672 C   0  0  0  0  0  0  0  0  0  0  0  0
    8.6930  -13.8083   26.1846 C   0  0  0  0  0  0  0  0  0  0  0  0
    7.4875  -14.3305   25.7972 C   0  0  0  0  0  0  0  0  0  0  0  0
    9.9818  -17.9300   24.8529 C   0  0  0  0  0  0  0  0  0  0  0  0
    9.9627  -19.0410   24.3032 O   0  0  0  0  0  0  0  0  0  0  0  0
   10.9496  -17.5793   25.8338 N   0  0  0  0  0  0  0  0  0  0  0  0
   11.9666  -18.5314   26.2037 C   0  0  1  0  0  0  0  0  0  0  0  0
   13.1386  -18.5354   25.2243 C   0  0  0  0  0  0  0  0  0  0  0  0
   14.1374  -17.4694   25.5867 C   0  0  0  0  0  0  0  0  0  0  0  0
   14.7847  -16.9529   24.3765 C   0  0  0  0  0  0  0  0  0  0  0  0
   14.4629  -17.4990   23.2682 O   0  0  0  0  0  0  0  0  0  0  0  0
   12.5001  -18.2050   27.5762 C   0  0  0  0  0  0  0  0  0  0  0  0
   11.9996  -17.1266   28.2922 O   0  0  0  0  0  0  0  0  0  0  0  0
   15.7068  -15.9333   24.3287 O   0  0  0  0  0  0  0  0  0  0  0  0
   13.4048  -18.8871   28.1157 O   0  0  0  0  0  0  0  0  0  0  0  0
  2  1  1  6
  2  3  1  0
  4  3  1  0
  4  8  1  0
  5  4  2  0
  6  7  2  0
  6  2  1  0
  9  6  1  0
 10  9  1  0
 10 11  1  1
 11 12  1  0
 12 13  2  0
 12 20  1  0
 13 14  1  0
 14 15  1  0
 15 16  2  0
 16 17  1  0
 18 17  2  0
 19 18  1  0
 20 19  2  0
 20 15  1  0
 21 10  1  0
 22 21  2  0
 23 21  1  0
 24 25  1  6
 24 23  1  0
 26 27  1  0
 26 25  1  0
 27 28  2  0
 29 24  1  0
 30 29  1  0
 31 27  1  0
 32 29  2  0
M  END
$$$$
