RCE.pdb
     RDKit          3D

 27 26  0  0  1  0  0  0  0  0999 V2000
   16.3430  -24.4492   -8.1015 N   0  0  0  0  0  0  0  0  0  0  0  0
   17.2293  -24.5637   -7.0006 C   0  0  0  0  0  0  0  0  0  0  0  0
   16.7999  -24.6951   -5.8066 N   0  0  0  0  0  0  0  0  0  0  0  0
   18.6450  -24.5336   -7.2230 N   0  0  0  0  0  0  0  0  0  0  0  0
   19.2158  -24.3619   -8.5383 C   0  0  0  0  0  0  0  0  0  0  0  0
   19.4457  -22.8462   -8.7025 C   0  0  0  0  0  0  0  0  0  0  0  0
   20.7707  -22.6032   -9.3452 C   0  0  0  0  0  0  0  0  0  0  0  0
   20.9979  -21.1371   -9.5813 C   0  0  2  0  0  0  0  0  0  0  0  0
   19.7342  -20.5635  -10.1178 N   0  0  0  0  0  0  0  0  0  0  0  0
   22.0822  -20.8826  -10.5713 C   0  0  0  0  0  0  0  0  0  0  0  0
   21.7218  -20.5453  -11.7244 O   0  0  0  0  0  0  0  0  0  0  0  0
   17.4392  -24.7303   -4.9869 N   0  0  0  0  0  0  0  0  0  0  0  0
   23.4620  -20.9989  -10.2698 C   0  0  2  0  0  0  0  0  0  0  0  0
   24.5712  -20.7897  -11.1464 C   0  0  0  0  0  0  0  0  0  0  0  0
   25.8887  -20.7585  -10.4690 S   0  0  0  0  0  0  0  0  0  0  0  0
   25.8695  -19.9944   -8.8269 C   0  0  0  0  0  0  0  0  0  0  0  0
   24.4997  -21.4212  -12.4700 O   0  0  0  0  0  0  0  0  0  0  0  0
   24.2062  -22.6445  -12.6720 N   0  0  0  0  0  0  0  0  0  0  0  0
   24.7546  -20.6982  -13.6973 C   0  0  1  0  0  0  0  0  0  0  0  0
   23.8823  -20.6823  -14.8118 C   0  0  0  0  0  0  0  0  0  0  0  0
   22.4265  -20.5843  -14.5984 C   0  0  0  0  0  0  0  0  0  0  0  0
   21.6488  -21.8453  -14.9172 C   0  0  0  0  0  0  0  0  0  0  0  0
   20.2006  -21.6147  -15.0078 O   0  0  0  0  0  0  0  0  0  0  0  0
   19.7593  -20.4466  -14.8312 C   0  0  0  0  0  0  0  0  0  0  0  0
   24.3596  -19.8140  -15.9499 O   0  0  0  0  0  0  0  0  0  0  0  0
   24.7764  -20.3545  -17.1522 O   0  0  0  0  0  0  0  0  0  0  0  0
   19.3682  -22.6978  -15.2846 O   0  0  0  0  0  0  0  0  0  0  0  0
  2  1  1  0
  2  4  1  0
  3  2  2  0
  5  6  1  0
  5  4  1  0
  7  8  1  0
  7  6  1  0
  8  9  1  6
 10  8  1  0
 10 11  2  0
 12 10  1  0
 13 16  1  0
 13 12  1  0
 13 14  1  1
 15 14  1  0
 16 18  1  0
 17 16  2  0
 18 19  1  0
 19 24  1  0
 19 20  1  6
 21 20  1  0
 22 26  1  0
 22 21  1  0
 23 22  2  0
 24 27  2  0
 24 25  1  0
M  END
$$$$
