RCE.pdb
     RDKit          3D

 27 26  0  0  1  0  0  0  0  0999 V2000
   26.1416  -33.6100  -17.2660 N   0  0  0  0  0  0  0  0  0  0  0  0
   27.1744  -33.1251  -18.1079 C   0  0  0  0  0  0  0  0  0  0  0  0
   28.2831  -33.7439  -18.2314 N   0  0  0  0  0  0  0  0  0  0  0  0
   26.9787  -31.9111  -18.8445 N   0  0  0  0  0  0  0  0  0  0  0  0
   25.7887  -31.1055  -18.7017 C   0  0  0  0  0  0  0  0  0  0  0  0
   25.9792  -29.9026  -19.6470 C   0  0  0  0  0  0  0  0  0  0  0  0
   25.2548  -28.7152  -19.1057 C   0  0  0  0  0  0  0  0  0  0  0  0
   25.5621  -28.5100  -17.6496 C   0  0  2  0  0  0  0  0  0  0  0  0
   24.3223  -28.8002  -16.8798 N   0  0  0  0  0  0  0  0  0  0  0  0
   25.9807  -27.1119  -17.3489 C   0  0  0  0  0  0  0  0  0  0  0  0
   25.0867  -26.3344  -16.9370 O   0  0  0  0  0  0  0  0  0  0  0  0
   29.0399  -33.4079  -18.8608 N   0  0  0  0  0  0  0  0  0  0  0  0
   27.3088  -26.6414  -17.5014 C   0  0  2  0  0  0  0  0  0  0  0  0
   27.8069  -25.3260  -17.2481 C   0  0  0  0  0  0  0  0  0  0  0  0
   29.1816  -25.2882  -16.6964 S   0  0  0  0  0  0  0  0  0  0  0  0
   29.4821  -26.4632  -15.3512 C   0  0  0  0  0  0  0  0  0  0  0  0
   27.4257  -24.2766  -18.2018 O   0  0  0  0  0  0  0  0  0  0  0  0
   27.1491  -24.4811  -19.4286 N   0  0  0  0  0  0  0  0  0  0  0  0
   27.3192  -22.8821  -17.8303 C   0  0  1  0  0  0  0  0  0  0  0  0
   26.5931  -21.9128  -18.5628 C   0  0  0  0  0  0  0  0  0  0  0  0
   25.2343  -22.2266  -19.0423 C   0  0  0  0  0  0  0  0  0  0  0  0
   24.1203  -21.8761  -18.0766 C   0  0  0  0  0  0  0  0  0  0  0  0
   22.7984  -21.8460  -18.7174 O   0  0  0  0  0  0  0  0  0  0  0  0
   22.4931  -20.8540  -19.4337 C   0  0  0  0  0  0  0  0  0  0  0  0
   26.7001  -20.5159  -18.0023 O   0  0  0  0  0  0  0  0  0  0  0  0
   27.2552  -20.2709  -16.7600 O   0  0  0  0  0  0  0  0  0  0  0  0
   21.9305  -22.9162  -18.5078 O   0  0  0  0  0  0  0  0  0  0  0  0
  2  1  1  0
  2  4  1  0
  3  2  2  0
  5  6  1  0
  5  4  1  0
  7  8  1  0
  7  6  1  0
  8  9  1  1
 10  8  1  0
 10 11  2  0
 12 10  1  0
 13 16  1  0
 13 12  1  0
 13 14  1  1
 15 14  1  0
 16 18  1  0
 17 16  2  0
 18 19  1  0
 19 24  1  0
 19 20  1  6
 21 20  1  0
 22 26  1  0
 22 21  1  0
 23 22  2  0
 24 27  2  0
 24 25  1  0
M  END
$$$$
