RCE.pdb
     RDKit          3D

 27 26  0  0  1  0  0  0  0  0999 V2000
   19.6040  -27.4785   -9.9047 N   0  0  0  0  0  0  0  0  0  0  0  0
   19.2699  -26.3262  -10.6606 C   0  0  0  0  0  0  0  0  0  0  0  0
   19.3644  -26.3098  -11.9326 N   0  0  0  0  0  0  0  0  0  0  0  0
   18.8124  -25.1451   -9.9896 N   0  0  0  0  0  0  0  0  0  0  0  0
   18.7180  -25.0628   -8.5510 C   0  0  0  0  0  0  0  0  0  0  0  0
   17.4200  -25.8033   -8.1716 C   0  0  0  0  0  0  0  0  0  0  0  0
   17.2336  -25.7696   -6.6911 C   0  0  0  0  0  0  0  0  0  0  0  0
   16.0621  -24.9091   -6.3116 C   0  0  2  0  0  0  0  0  0  0  0  0
   16.1264  -23.6693   -7.1317 N   0  0  0  0  0  0  0  0  0  0  0  0
   16.0864  -24.5185   -4.8738 C   0  0  0  0  0  0  0  0  0  0  0  0
   16.9522  -23.6763   -4.5354 O   0  0  0  0  0  0  0  0  0  0  0  0
   19.1591  -25.4586  -12.4942 N   0  0  0  0  0  0  0  0  0  0  0  0
   15.1951  -25.0417   -3.9042 C   0  0  1  0  0  0  0  0  0  0  0  0
   15.4159  -25.1892   -2.5000 C   0  0  0  0  0  0  0  0  0  0  0  0
   14.4742  -24.4244   -1.6491 S   0  0  0  0  0  0  0  0  0  0  0  0
   14.8329  -24.5036    0.1245 C   0  0  0  0  0  0  0  0  0  0  0  0
   15.8373  -26.5148   -2.0298 O   0  0  0  0  0  0  0  0  0  0  0  0
   15.1385  -27.5748   -2.1357 N   0  0  0  0  0  0  0  0  0  0  0  0
   17.1157  -26.7500   -1.3938 C   0  0  1  0  0  0  0  0  0  0  0  0
   17.5507  -28.0088   -0.9146 C   0  0  0  0  0  0  0  0  0  0  0  0
   18.5140  -28.7979   -1.7047 C   0  0  0  0  0  0  0  0  0  0  0  0
   19.5382  -29.5585   -0.8868 C   0  0  0  0  0  0  0  0  0  0  0  0
   20.4985  -30.2964   -1.7187 O   0  0  0  0  0  0  0  0  0  0  0  0
   21.1928  -29.6581   -2.5561 C   0  0  0  0  0  0  0  0  0  0  0  0
   17.8616  -28.0271    0.5619 O   0  0  0  0  0  0  0  0  0  0  0  0
   17.7258  -29.1754    1.3198 O   0  0  0  0  0  0  0  0  0  0  0  0
   20.6049  -31.6759   -1.5514 O   0  0  0  0  0  0  0  0  0  0  0  0
  2  1  1  0
  2  4  1  0
  3  2  2  0
  5  6  1  0
  5  4  1  0
  7  8  1  0
  7  6  1  0
  8  9  1  6
 10  8  1  0
 10 11  2  0
 12 10  1  0
 13 16  1  0
 13 12  1  0
 13 14  1  1
 15 14  1  0
 16 18  1  0
 17 16  2  0
 18 19  1  0
 19 24  1  0
 19 20  1  1
 21 20  1  0
 22 26  1  0
 22 21  1  0
 23 22  2  0
 24 27  2  0
 24 25  1  0
M  END
$$$$
