RCE.pdb
     RDKit          3D

 27 26  0  0  1  0  0  0  0  0999 V2000
   18.6920  -11.8348  -14.9252 N   0  0  0  0  0  0  0  0  0  0  0  0
   17.6545  -12.7904  -15.0701 C   0  0  0  0  0  0  0  0  0  0  0  0
   17.8239  -14.0150  -14.7555 N   0  0  0  0  0  0  0  0  0  0  0  0
   16.3790  -12.3816  -15.5806 N   0  0  0  0  0  0  0  0  0  0  0  0
   15.9269  -11.0115  -15.5197 C   0  0  0  0  0  0  0  0  0  0  0  0
   15.6605  -10.7224  -14.0288 C   0  0  0  0  0  0  0  0  0  0  0  0
   15.1279   -9.3371  -13.8704 C   0  0  0  0  0  0  0  0  0  0  0  0
   16.0914   -8.4694  -13.1117 C   0  0  2  0  0  0  0  0  0  0  0  0
   17.0984   -9.3604  -12.4746 N   0  0  0  0  0  0  0  0  0  0  0  0
   15.4221   -7.6808  -12.0390 C   0  0  0  0  0  0  0  0  0  0  0  0
   14.4708   -6.9444  -12.3940 O   0  0  0  0  0  0  0  0  0  0  0  0
   17.0399  -14.6984  -14.7405 N   0  0  0  0  0  0  0  0  0  0  0  0
   15.8034   -7.7314  -10.6750 C   0  0  2  0  0  0  0  0  0  0  0  0
   15.2449   -7.0005   -9.5813 C   0  0  0  0  0  0  0  0  0  0  0  0
   15.0924   -7.7866   -8.3346 S   0  0  0  0  0  0  0  0  0  0  0  0
   14.0308   -9.2455   -8.4934 C   0  0  0  0  0  0  0  0  0  0  0  0
   15.6374   -5.5912   -9.4552 O   0  0  0  0  0  0  0  0  0  0  0  0
   16.8191   -5.1512   -9.6372 N   0  0  0  0  0  0  0  0  0  0  0  0
   14.6987   -4.5448   -9.1115 C   0  0  1  0  0  0  0  0  0  0  0  0
   14.9946   -3.1612   -9.1495 C   0  0  0  0  0  0  0  0  0  0  0  0
   15.2444   -2.5032  -10.4454 C   0  0  0  0  0  0  0  0  0  0  0  0
   15.5634   -1.0242  -10.3588 C   0  0  0  0  0  0  0  0  0  0  0  0
   15.6753   -0.3866  -11.6777 O   0  0  0  0  0  0  0  0  0  0  0  0
   16.8214   -0.0962  -12.1167 C   0  0  0  0  0  0  0  0  0  0  0  0
   14.1341   -2.3262   -8.2334 O   0  0  0  0  0  0  0  0  0  0  0  0
   14.5134   -1.0578   -7.8348 O   0  0  0  0  0  0  0  0  0  0  0  0
   14.5087   -0.1254  -12.3941 O   0  0  0  0  0  0  0  0  0  0  0  0
  2  1  1  0
  2  4  1  0
  3  2  2  0
  5  6  1  0
  5  4  1  0
  7  8  1  0
  7  6  1  0
  8  9  1  1
 10  8  1  0
 10 11  2  0
 12 10  1  0
 13 16  1  0
 13 12  1  0
 13 14  1  6
 15 14  1  0
 16 18  1  0
 17 16  2  0
 18 19  1  0
 19 24  1  0
 19 20  1  1
 21 20  1  0
 22 26  1  0
 22 21  1  0
 23 22  2  0
 24 27  2  0
 24 25  1  0
M  END
$$$$
