RCE.pdb
     RDKit          3D

 27 26  0  0  1  0  0  0  0  0999 V2000
   18.2961  -25.5997   -9.1014 N   0  0  0  0  0  0  0  0  0  0  0  0
   18.3927  -26.4172  -10.2560 C   0  0  0  0  0  0  0  0  0  0  0  0
   17.9470  -27.6123  -10.2689 N   0  0  0  0  0  0  0  0  0  0  0  0
   19.0035  -25.8980  -11.4443 N   0  0  0  0  0  0  0  0  0  0  0  0
   19.6479  -24.6062  -11.4792 C   0  0  0  0  0  0  0  0  0  0  0  0
   18.7933  -23.7351  -12.4215 C   0  0  0  0  0  0  0  0  0  0  0  0
   19.6748  -22.8079  -13.1902 C   0  0  0  0  0  0  0  0  0  0  0  0
   20.3586  -21.8293  -12.2783 C   0  0  2  0  0  0  0  0  0  0  0  0
   19.3330  -21.2842  -11.3482 N   0  0  0  0  0  0  0  0  0  0  0  0
   20.9664  -20.6896  -13.0214 C   0  0  0  0  0  0  0  0  0  0  0  0
   20.5833  -19.5400  -12.6974 O   0  0  0  0  0  0  0  0  0  0  0  0
   18.0385  -28.2306  -11.1003 N   0  0  0  0  0  0  0  0  0  0  0  0
   21.9332  -20.8480  -14.0453 C   0  0  2  0  0  0  0  0  0  0  0  0
   22.5816  -19.8251  -14.8041 C   0  0  0  0  0  0  0  0  0  0  0  0
   24.0603  -19.9199  -14.8203 S   0  0  0  0  0  0  0  0  0  0  0  0
   24.8913  -18.5356  -15.6411 C   0  0  0  0  0  0  0  0  0  0  0  0
   21.9128  -19.3870  -16.0356 O   0  0  0  0  0  0  0  0  0  0  0  0
   21.5211  -20.1687  -16.9623 N   0  0  0  0  0  0  0  0  0  0  0  0
   21.6228  -17.9976  -16.3173 C   0  0  1  0  0  0  0  0  0  0  0  0
   21.0019  -17.5347  -17.5021 C   0  0  0  0  0  0  0  0  0  0  0  0
   20.0346  -16.4236  -17.4336 C   0  0  0  0  0  0  0  0  0  0  0  0
   19.3367  -16.1041  -18.7402 C   0  0  0  0  0  0  0  0  0  0  0  0
   18.3775  -14.9978  -18.6188 O   0  0  0  0  0  0  0  0  0  0  0  0
   17.2937  -15.0604  -19.2606 C   0  0  0  0  0  0  0  0  0  0  0  0
   21.9407  -17.4124  -18.6771 O   0  0  0  0  0  0  0  0  0  0  0  0
   21.5946  -17.8686  -19.9355 O   0  0  0  0  0  0  0  0  0  0  0  0
   18.7031  -13.9189  -17.7988 O   0  0  0  0  0  0  0  0  0  0  0  0
  2  1  1  0
  2  4  1  0
  3  2  2  0
  5  6  1  0
  5  4  1  0
  7  8  1  0
  7  6  1  0
  8  9  1  1
 10  8  1  0
 10 11  2  0
 12 10  1  0
 13 16  1  0
 13 12  1  0
 13 14  1  1
 15 14  1  0
 16 18  1  0
 17 16  2  0
 18 19  1  0
 19 24  1  0
 19 20  1  6
 21 20  1  0
 22 26  1  0
 22 21  1  0
 23 22  2  0
 24 27  2  0
 24 25  1  0
M  END
$$$$
