RCE.pdb
     RDKit          3D

 27 26  0  0  1  0  0  0  0  0999 V2000
   11.1713  -14.0676  -11.8580 N   0  0  0  0  0  0  0  0  0  0  0  0
   11.0908  -13.7369  -10.4815 C   0  0  0  0  0  0  0  0  0  0  0  0
   10.2815  -14.3332   -9.6962 N   0  0  0  0  0  0  0  0  0  0  0  0
   11.9358  -12.7095   -9.9476 N   0  0  0  0  0  0  0  0  0  0  0  0
   12.5566  -11.7093  -10.7839 C   0  0  0  0  0  0  0  0  0  0  0  0
   13.3548  -10.7991   -9.8292 C   0  0  0  0  0  0  0  0  0  0  0  0
   13.9333   -9.6528  -10.5901 C   0  0  0  0  0  0  0  0  0  0  0  0
   15.3682   -9.9114  -10.9524 C   0  0  2  0  0  0  0  0  0  0  0  0
   15.8001  -11.1439  -10.2395 N   0  0  0  0  0  0  0  0  0  0  0  0
   16.2674   -8.7964  -10.5419 C   0  0  0  0  0  0  0  0  0  0  0  0
   16.7504   -8.8611   -9.3861 O   0  0  0  0  0  0  0  0  0  0  0  0
   10.1991  -14.0845   -8.6896 N   0  0  0  0  0  0  0  0  0  0  0  0
   16.5918   -7.7016  -11.3812 C   0  0  1  0  0  0  0  0  0  0  0  0
   17.3039   -6.5121  -11.0339 C   0  0  0  0  0  0  0  0  0  0  0  0
   18.5967   -6.3454  -11.7386 S   0  0  0  0  0  0  0  0  0  0  0  0
   19.2137   -7.8486  -12.5387 C   0  0  0  0  0  0  0  0  0  0  0  0
   16.5025   -5.3072  -10.7851 O   0  0  0  0  0  0  0  0  0  0  0  0
   15.5426   -4.9126  -11.5242 N   0  0  0  0  0  0  0  0  0  0  0  0
   16.7266   -4.4384   -9.6498 C   0  0  1  0  0  0  0  0  0  0  0  0
   15.9506   -3.2921   -9.3547 C   0  0  0  0  0  0  0  0  0  0  0  0
   15.7200   -2.9081   -7.9497 C   0  0  0  0  0  0  0  0  0  0  0  0
   14.8255   -1.7001   -7.7572 C   0  0  0  0  0  0  0  0  0  0  0  0
   14.6679   -1.3262   -6.3451 O   0  0  0  0  0  0  0  0  0  0  0  0
   15.2975   -0.3246   -5.9081 C   0  0  0  0  0  0  0  0  0  0  0  0
   16.2528   -2.1053  -10.2364 O   0  0  0  0  0  0  0  0  0  0  0  0
   15.2600   -1.2399  -10.6570 O   0  0  0  0  0  0  0  0  0  0  0  0
   13.8284   -2.0947   -5.5407 O   0  0  0  0  0  0  0  0  0  0  0  0
  2  1  1  0
  2  4  1  0
  3  2  2  0
  5  6  1  0
  5  4  1  0
  7  8  1  0
  7  6  1  0
  8  9  1  1
 10  8  1  0
 10 11  2  0
 12 10  1  0
 13 16  1  0
 13 12  1  0
 13 14  1  1
 15 14  1  0
 16 18  1  0
 17 16  2  0
 18 19  1  0
 19 24  1  0
 19 20  1  6
 21 20  1  0
 22 26  1  0
 22 21  1  0
 23 22  2  0
 24 27  2  0
 24 25  1  0
M  END
$$$$
