RCE.pdb
     RDKit          3D

 27 26  0  0  1  0  0  0  0  0999 V2000
   11.5565  -12.0294  -12.8996 N   0  0  0  0  0  0  0  0  0  0  0  0
   12.3812  -13.1178  -12.5175 C   0  0  0  0  0  0  0  0  0  0  0  0
   11.9629  -14.0302  -11.7303 N   0  0  0  0  0  0  0  0  0  0  0  0
   13.7195  -13.2061  -13.0233 N   0  0  0  0  0  0  0  0  0  0  0  0
   14.2344  -12.2841  -14.0082 C   0  0  0  0  0  0  0  0  0  0  0  0
   15.7123  -12.6714  -14.2149 C   0  0  0  0  0  0  0  0  0  0  0  0
   16.3220  -11.7974  -15.2600 C   0  0  0  0  0  0  0  0  0  0  0  0
   17.8011  -12.0358  -15.3708 C   0  0  2  0  0  0  0  0  0  0  0  0
   18.1501  -13.1516  -14.4505 N   0  0  0  0  0  0  0  0  0  0  0  0
   18.6000  -10.8408  -14.9781 C   0  0  0  0  0  0  0  0  0  0  0  0
   18.4730  -10.4447  -13.7948 O   0  0  0  0  0  0  0  0  0  0  0  0
   12.5516  -14.8442  -11.4604 N   0  0  0  0  0  0  0  0  0  0  0  0
   19.4736  -10.1575  -15.8603 C   0  0  1  0  0  0  0  0  0  0  0  0
   20.2734   -9.0058  -15.5840 C   0  0  0  0  0  0  0  0  0  0  0  0
   21.7256   -9.2029  -15.8027 S   0  0  0  0  0  0  0  0  0  0  0  0
   22.3876  -10.7371  -15.1037 C   0  0  0  0  0  0  0  0  0  0  0  0
   19.7015   -7.7002  -15.9366 O   0  0  0  0  0  0  0  0  0  0  0  0
   18.7509   -7.5284  -16.7673 N   0  0  0  0  0  0  0  0  0  0  0  0
   20.1683   -6.4588  -15.3576 C   0  0  1  0  0  0  0  0  0  0  0  0
   19.5208   -5.2101  -15.5148 C   0  0  0  0  0  0  0  0  0  0  0  0
   18.0585   -5.1195  -15.3472 C   0  0  0  0  0  0  0  0  0  0  0  0
   17.4712   -3.7458  -15.6017 C   0  0  0  0  0  0  0  0  0  0  0  0
   16.0060   -3.7232  -15.4949 O   0  0  0  0  0  0  0  0  0  0  0  0
   15.4824   -3.5189  -14.3659 C   0  0  0  0  0  0  0  0  0  0  0  0
   20.2494   -4.0576  -14.8683 O   0  0  0  0  0  0  0  0  0  0  0  0
   19.9155   -2.7431  -15.1370 O   0  0  0  0  0  0  0  0  0  0  0  0
   15.2494   -3.9299  -16.6470 O   0  0  0  0  0  0  0  0  0  0  0  0
  2  1  1  0
  2  4  1  0
  3  2  2  0
  5  6  1  0
  5  4  1  0
  7  8  1  0
  7  6  1  0
  8  9  1  1
 10  8  1  0
 10 11  2  0
 12 10  1  0
 13 16  1  0
 13 12  1  0
 13 14  1  1
 15 14  1  0
 16 18  1  0
 17 16  2  0
 18 19  1  0
 19 24  1  0
 19 20  1  6
 21 20  1  0
 22 26  1  0
 22 21  1  0
 23 22  2  0
 24 27  2  0
 24 25  1  0
M  END
$$$$
