RCE.pdb
     RDKit          3D

 27 26  0  0  1  0  0  0  0  0999 V2000
   30.1634  -21.6821  -15.2890 N   0  0  0  0  0  0  0  0  0  0  0  0
   30.7150  -22.1769  -14.0801 C   0  0  0  0  0  0  0  0  0  0  0  0
   31.3720  -23.2697  -14.0422 N   0  0  0  0  0  0  0  0  0  0  0  0
   30.5375  -21.4387  -12.8642 N   0  0  0  0  0  0  0  0  0  0  0  0
   29.7545  -20.2268  -12.8049 C   0  0  0  0  0  0  0  0  0  0  0  0
   28.2854  -20.6805  -12.6905 C   0  0  0  0  0  0  0  0  0  0  0  0
   27.4126  -19.7717  -13.4906 C   0  0  0  0  0  0  0  0  0  0  0  0
   26.4343  -20.5525  -14.3215 C   0  0  2  0  0  0  0  0  0  0  0  0
   27.2039  -21.2640  -15.3776 N   0  0  0  0  0  0  0  0  0  0  0  0
   25.4291  -19.6770  -14.9875 C   0  0  0  0  0  0  0  0  0  0  0  0
   25.8584  -18.9074  -15.8801 O   0  0  0  0  0  0  0  0  0  0  0  0
   31.8759  -23.5859  -13.1890 N   0  0  0  0  0  0  0  0  0  0  0  0
   24.0491  -19.6822  -14.6651 C   0  0  2  0  0  0  0  0  0  0  0  0
   22.9568  -19.2551  -15.4818 C   0  0  0  0  0  0  0  0  0  0  0  0
   23.1006  -19.5879  -16.9185 S   0  0  0  0  0  0  0  0  0  0  0  0
   22.0062  -18.6528  -18.0178 C   0  0  0  0  0  0  0  0  0  0  0  0
   21.6144  -19.3405  -14.8929 O   0  0  0  0  0  0  0  0  0  0  0  0
   21.0205  -20.4298  -14.6033 N   0  0  0  0  0  0  0  0  0  0  0  0
   20.8241  -18.1713  -14.5726 C   0  0  2  0  0  0  0  0  0  0  0  0
   19.4880  -18.2124  -14.1073 C   0  0  0  0  0  0  0  0  0  0  0  0
   18.6595  -16.9934  -14.1573 C   0  0  0  0  0  0  0  0  0  0  0  0
   17.3440  -17.0853  -13.4106 C   0  0  0  0  0  0  0  0  0  0  0  0
   16.5061  -15.8906  -13.5821 O   0  0  0  0  0  0  0  0  0  0  0  0
   16.9686  -14.9123  -14.2298 C   0  0  0  0  0  0  0  0  0  0  0  0
   18.7294  -19.4450  -14.5337 O   0  0  0  0  0  0  0  0  0  0  0  0
   18.1064  -20.2699  -13.6155 O   0  0  0  0  0  0  0  0  0  0  0  0
   15.2306  -15.8835  -13.0205 O   0  0  0  0  0  0  0  0  0  0  0  0
  2  1  1  0
  2  4  1  0
  3  2  2  0
  5  6  1  0
  5  4  1  0
  7  8  1  0
  7  6  1  0
  8  9  1  6
 10  8  1  0
 10 11  2  0
 12 10  1  0
 13 16  1  0
 13 12  1  0
 13 14  1  1
 15 14  1  0
 16 18  1  0
 17 16  2  0
 18 19  1  0
 19 24  1  0
 19 20  1  6
 21 20  1  0
 22 26  1  0
 22 21  1  0
 23 22  2  0
 24 27  2  0
 24 25  1  0
M  END
$$$$
