HVG.pdb
     RDKit          3D

 22 22  0  0  1  0  0  0  0  0999 V2000
   24.0239  -14.7829  -17.6212 N   0  0  0  0  0  0  0  0  0  0  0  0
   23.6267  -13.4125  -17.7676 C   0  0  1  0  0  0  0  0  0  0  0  0
   22.1386  -13.2893  -17.9864 C   0  0  0  0  0  0  0  0  0  0  0  0
   21.8087  -13.9910  -19.2534 C   0  0  0  0  0  0  0  0  0  0  0  0
   22.7247  -14.6442  -20.0785 C   0  0  0  0  0  0  0  0  0  0  0  0
   22.0828  -15.1654  -21.1348 N   0  0  0  0  0  0  0  0  0  0  0  0
   20.7914  -14.8587  -20.9969 C   0  0  0  0  0  0  0  0  0  0  0  0
   20.6166  -14.1450  -19.8560 N   0  0  0  0  0  0  0  0  0  0  0  0
   24.1030  -12.6351  -16.6151 C   0  0  0  0  0  0  0  0  0  0  0  0
   23.9325  -13.0989  -15.4648 O   0  0  0  0  0  0  0  0  0  0  0  0
   26.9700   -9.6251  -16.8516 C   0  0  0  0  0  0  0  0  0  0  0  0
   26.6364  -10.4654  -15.6044 C   0  0  2  0  0  0  0  0  0  0  0  0
   27.4433  -11.6981  -15.7252 C   0  0  0  0  0  0  0  0  0  0  0  0
   25.1414  -10.6439  -15.5275 C   0  0  2  0  0  0  0  0  0  0  0  0
   24.7483  -11.3819  -16.7414 N   0  0  0  0  0  0  0  0  0  0  0  0
   24.3769   -9.3886  -15.4313 C   0  0  0  0  0  0  0  0  0  0  0  0
   24.5956   -8.6157  -14.4365 O   0  0  0  0  0  0  0  0  0  0  0  0
   23.4012   -8.9432  -16.3559 N   0  0  0  0  0  0  0  0  0  0  0  0
   22.8411   -7.6080  -16.2087 C   0  0  0  0  0  0  0  0  0  0  0  0
   21.6607   -7.5891  -15.3295 C   0  0  0  0  0  0  0  0  0  0  0  0
   21.2762   -8.6677  -14.8103 O   0  0  0  0  0  0  0  0  0  0  0  0
   20.9362   -6.4497  -15.0318 O   0  0  0  0  0  0  0  0  0  0  0  0
  2  1  1  1
  2  3  1  0
  3  4  1  0
  4  5  2  0
  4  8  1  0
  5  6  1  0
  6  7  1  0
  8  7  2  0
  9  2  1  0
  9 15  1  0
 10  9  2  0
 12 11  1  6
 12 14  1  0
 13 12  1  0
 14 15  1  6
 14 16  1  0
 16 18  1  0
 17 16  2  0
 18 19  1  0
 20 22  1  0
 20 19  1  0
 21 20  2  0
M  END
$$$$
