HVG.pdb
     RDKit          3D

 22 22  0  0  1  0  0  0  0  0999 V2000
   23.3677   -6.3986  -17.1013 N   0  0  0  0  0  0  0  0  0  0  0  0
   22.6001   -7.0475  -16.0781 C   0  0  1  0  0  0  0  0  0  0  0  0
   21.2891   -6.3395  -15.8388 C   0  0  0  0  0  0  0  0  0  0  0  0
   21.5952   -5.0031  -15.2669 C   0  0  0  0  0  0  0  0  0  0  0  0
   21.9902   -4.7573  -13.9516 C   0  0  0  0  0  0  0  0  0  0  0  0
   22.1819   -3.4407  -13.7808 N   0  0  0  0  0  0  0  0  0  0  0  0
   21.9190   -2.8533  -14.9497 C   0  0  0  0  0  0  0  0  0  0  0  0
   21.5617   -3.7959  -15.8581 N   0  0  0  0  0  0  0  0  0  0  0  0
   22.4315   -8.4681  -16.4142 C   0  0  0  0  0  0  0  0  0  0  0  0
   22.1815   -8.7799  -17.6007 O   0  0  0  0  0  0  0  0  0  0  0  0
   24.8275  -11.1339  -16.0890 C   0  0  0  0  0  0  0  0  0  0  0  0
   23.5695  -11.6575  -15.3705 C   0  0  2  0  0  0  0  0  0  0  0  0
   23.5716  -13.1214  -15.5761 C   0  0  0  0  0  0  0  0  0  0  0  0
   22.3692  -10.9064  -15.8883 C   0  0  2  0  0  0  0  0  0  0  0  0
   22.5382   -9.5065  -15.4587 N   0  0  0  0  0  0  0  0  0  0  0  0
   21.0720  -11.4238  -15.4205 C   0  0  0  0  0  0  0  0  0  0  0  0
   20.7159  -11.1800  -14.2170 O   0  0  0  0  0  0  0  0  0  0  0  0
   20.1585  -12.1819  -16.1926 N   0  0  0  0  0  0  0  0  0  0  0  0
   18.9052  -12.6112  -15.5902 C   0  0  0  0  0  0  0  0  0  0  0  0
   18.0703  -13.3844  -16.5238 C   0  0  0  0  0  0  0  0  0  0  0  0
   18.4512  -13.5072  -17.7158 O   0  0  0  0  0  0  0  0  0  0  0  0
   16.8792  -13.9933  -16.1739 O   0  0  0  0  0  0  0  0  0  0  0  0
  2  1  1  6
  2  3  1  0
  3  4  1  0
  4  5  2  0
  4  8  1  0
  5  6  1  0
  6  7  1  0
  8  7  2  0
  9  2  1  0
  9 15  1  0
 10  9  2  0
 12 11  1  6
 12 14  1  0
 13 12  1  0
 14 15  1  1
 14 16  1  0
 16 18  1  0
 17 16  2  0
 18 19  1  0
 20 22  1  0
 20 19  1  0
 21 20  2  0
M  END
$$$$
