HVG.pdb
     RDKit          3D

 22 22  0  0  1  0  0  0  0  0999 V2000
   20.1962  -12.4381  -16.1611 N   0  0  0  0  0  0  0  0  0  0  0  0
   19.6312  -11.1205  -16.1180 C   0  0  1  0  0  0  0  0  0  0  0  0
   18.4749  -11.0469  -15.1512 C   0  0  0  0  0  0  0  0  0  0  0  0
   17.3878  -11.9098  -15.6806 C   0  0  0  0  0  0  0  0  0  0  0  0
   17.0679  -12.0721  -17.0289 C   0  0  0  0  0  0  0  0  0  0  0  0
   16.0358  -12.9210  -17.1447 N   0  0  0  0  0  0  0  0  0  0  0  0
   15.6986  -13.2961  -15.9092 C   0  0  0  0  0  0  0  0  0  0  0  0
   16.5155  -12.6859  -15.0138 N   0  0  0  0  0  0  0  0  0  0  0  0
   20.6866  -10.1407  -15.8253 C   0  0  0  0  0  0  0  0  0  0  0  0
   21.3909  -10.3026  -14.8029 O   0  0  0  0  0  0  0  0  0  0  0  0
   23.6527   -9.4422  -17.5181 C   0  0  0  0  0  0  0  0  0  0  0  0
   22.9942   -8.0539  -17.4081 C   0  0  2  0  0  0  0  0  0  0  0  0
   24.1096   -7.0893  -17.3056 C   0  0  0  0  0  0  0  0  0  0  0  0
   22.0134   -8.0734  -16.2633 C   0  0  2  0  0  0  0  0  0  0  0  0
   20.9477   -9.0174  -16.6456 N   0  0  0  0  0  0  0  0  0  0  0  0
   21.4299   -6.7623  -15.9319 C   0  0  0  0  0  0  0  0  0  0  0  0
   20.6908   -6.1859  -16.8015 O   0  0  0  0  0  0  0  0  0  0  0  0
   21.6109   -6.0620  -14.7145 N   0  0  0  0  0  0  0  0  0  0  0  0
   21.0705   -4.7172  -14.5819 C   0  0  0  0  0  0  0  0  0  0  0  0
   19.7308   -4.7090  -13.9723 C   0  0  0  0  0  0  0  0  0  0  0  0
   19.1851   -5.8077  -13.6970 O   0  0  0  0  0  0  0  0  0  0  0  0
   19.0221   -3.5589  -13.6778 O   0  0  0  0  0  0  0  0  0  0  0  0
  2  1  1  1
  2  3  1  0
  3  4  1  0
  4  5  2  0
  4  8  1  0
  5  6  1  0
  6  7  1  0
  8  7  2  0
  9  2  1  0
  9 15  1  0
 10  9  2  0
 12 11  1  1
 12 14  1  0
 13 12  1  0
 14 15  1  6
 14 16  1  0
 16 18  1  0
 17 16  2  0
 18 19  1  0
 20 22  1  0
 20 19  1  0
 21 20  2  0
M  END
$$$$
