HVG.pdb
     RDKit          3D

 22 22  0  0  1  0  0  0  0  0999 V2000
   22.2438  -35.2012  -11.5850 N   0  0  0  0  0  0  0  0  0  0  0  0
   22.0908  -34.5550  -10.3137 C   0  0  1  0  0  0  0  0  0  0  0  0
   20.7977  -34.9521   -9.6446 C   0  0  0  0  0  0  0  0  0  0  0  0
   19.6811  -34.4440  -10.4824 C   0  0  0  0  0  0  0  0  0  0  0  0
   19.2079  -33.1316  -10.4901 C   0  0  0  0  0  0  0  0  0  0  0  0
   18.1947  -33.0266  -11.3629 N   0  0  0  0  0  0  0  0  0  0  0  0
   18.0183  -34.2340  -11.9030 C   0  0  0  0  0  0  0  0  0  0  0  0
   18.9177  -35.1010  -11.3731 N   0  0  0  0  0  0  0  0  0  0  0  0
   23.2721  -34.8196   -9.4807 C   0  0  0  0  0  0  0  0  0  0  0  0
   23.8255  -35.9398   -9.5601 O   0  0  0  0  0  0  0  0  0  0  0  0
   26.2052  -33.0079   -9.8019 C   0  0  0  0  0  0  0  0  0  0  0  0
   26.0330  -33.0342   -8.2713 C   0  0  2  0  0  0  0  0  0  0  0  0
   27.4008  -33.1127   -7.7162 C   0  0  0  0  0  0  0  0  0  0  0  0
   25.0940  -34.1569   -7.9098 C   0  0  2  0  0  0  0  0  0  0  0  0
   23.8182  -33.8663   -8.5886 N   0  0  0  0  0  0  0  0  0  0  0  0
   24.8681  -34.3275   -6.4643 C   0  0  0  0  0  0  0  0  0  0  0  0
   24.2214  -33.4207   -5.8366 O   0  0  0  0  0  0  0  0  0  0  0  0
   25.3066  -35.4248   -5.6840 N   0  0  0  0  0  0  0  0  0  0  0  0
   25.0844  -35.4070   -4.2458 C   0  0  0  0  0  0  0  0  0  0  0  0
   26.1897  -34.7653   -3.5157 C   0  0  0  0  0  0  0  0  0  0  0  0
   27.1517  -34.2899   -4.1710 O   0  0  0  0  0  0  0  0  0  0  0  0
   26.2423  -34.6482   -2.1390 O   0  0  0  0  0  0  0  0  0  0  0  0
  2  1  1  6
  2  3  1  0
  3  4  1  0
  4  5  2  0
  4  8  1  0
  5  6  1  0
  6  7  1  0
  8  7  2  0
  9  2  1  0
  9 15  1  0
 10  9  2  0
 12 11  1  6
 12 14  1  0
 13 12  1  0
 14 15  1  6
 14 16  1  0
 16 18  1  0
 17 16  2  0
 18 19  1  0
 20 22  1  0
 20 19  1  0
 21 20  2  0
M  END
$$$$
