HVG.pdb
     RDKit          3D

 22 22  0  0  1  0  0  0  0  0999 V2000
   15.4576  -21.5073    4.7725 N   0  0  0  0  0  0  0  0  0  0  0  0
   16.6667  -20.8083    4.4461 C   0  0  1  0  0  0  0  0  0  0  0  0
   16.4023  -19.6558    3.5085 C   0  0  0  0  0  0  0  0  0  0  0  0
   16.0161  -20.2243    2.1915 C   0  0  0  0  0  0  0  0  0  0  0  0
   16.8736  -20.8899    1.3150 C   0  0  0  0  0  0  0  0  0  0  0  0
   16.1919  -21.2680    0.2234 N   0  0  0  0  0  0  0  0  0  0  0  0
   14.9324  -20.8595    0.3889 C   0  0  0  0  0  0  0  0  0  0  0  0
   14.8174  -20.2244    1.5826 N   0  0  0  0  0  0  0  0  0  0  0  0
   17.3477  -20.3974    5.6818 C   0  0  0  0  0  0  0  0  0  0  0  0
   16.6535  -20.0604    6.6676 O   0  0  0  0  0  0  0  0  0  0  0  0
   19.3354  -22.3644    7.8357 C   0  0  0  0  0  0  0  0  0  0  0  0
   20.2316  -21.1529    7.5161 C   0  0  2  0  0  0  0  0  0  0  0  0
   21.0756  -20.9529    8.7131 C   0  0  0  0  0  0  0  0  0  0  0  0
   19.3540  -19.9962    7.1100 C   0  0  2  0  0  0  0  0  0  0  0  0
   18.7564  -20.3634    5.8136 N   0  0  0  0  0  0  0  0  0  0  0  0
   20.0535  -18.7052    6.9947 C   0  0  0  0  0  0  0  0  0  0  0  0
   20.6598  -18.4352    5.9019 O   0  0  0  0  0  0  0  0  0  0  0  0
   20.1203  -17.7096    7.9995 N   0  0  0  0  0  0  0  0  0  0  0  0
   20.8749  -16.4919    7.7433 C   0  0  0  0  0  0  0  0  0  0  0  0
   20.0352  -15.2855    7.8199 C   0  0  0  0  0  0  0  0  0  0  0  0
   18.7885  -15.4213    7.9100 O   0  0  0  0  0  0  0  0  0  0  0  0
   20.5314  -13.9951    7.7992 O   0  0  0  0  0  0  0  0  0  0  0  0
  2  1  1  1
  2  3  1  0
  3  4  1  0
  4  5  2  0
  4  8  1  0
  5  6  1  0
  6  7  1  0
  8  7  2  0
  9  2  1  0
  9 15  1  0
 10  9  2  0
 12 11  1  1
 12 14  1  0
 13 12  1  0
 14 15  1  6
 14 16  1  0
 16 18  1  0
 17 16  2  0
 18 19  1  0
 20 22  1  0
 20 19  1  0
 21 20  2  0
M  END
$$$$
