HVG.pdb
     RDKit          3D

 22 22  0  0  1  0  0  0  0  0999 V2000
   39.2995   -9.5747   -9.3333 N   0  0  0  0  0  0  0  0  0  0  0  0
   39.6367   -9.2689   -7.9732 C   0  0  1  0  0  0  0  0  0  0  0  0
   38.5297   -9.6653   -7.0273 C   0  0  0  0  0  0  0  0  0  0  0  0
   37.4726   -8.6248   -7.1077 C   0  0  0  0  0  0  0  0  0  0  0  0
   37.5125   -7.4924   -7.9217 C   0  0  0  0  0  0  0  0  0  0  0  0
   36.3951   -6.7725   -7.7416 N   0  0  0  0  0  0  0  0  0  0  0  0
   35.6554   -7.4195   -6.8388 C   0  0  0  0  0  0  0  0  0  0  0  0
   36.3033   -8.5461   -6.4486 N   0  0  0  0  0  0  0  0  0  0  0  0
   40.9277   -9.8841   -7.6349 C   0  0  0  0  0  0  0  0  0  0  0  0
   41.0770  -11.1124   -7.8255 O   0  0  0  0  0  0  0  0  0  0  0  0
   44.0315   -9.5892   -9.0677 C   0  0  0  0  0  0  0  0  0  0  0  0
   44.3487   -9.2843   -7.5914 C   0  0  2  0  0  0  0  0  0  0  0  0
   45.7136   -9.8027   -7.3602 C   0  0  0  0  0  0  0  0  0  0  0  0
   43.2538   -9.8638   -6.7321 C   0  0  2  0  0  0  0  0  0  0  0  0
   42.0161   -9.1535   -7.1015 N   0  0  0  0  0  0  0  0  0  0  0  0
   43.4859   -9.7507   -5.2821 C   0  0  0  0  0  0  0  0  0  0  0  0
   43.4238   -8.5932   -4.7426 O   0  0  0  0  0  0  0  0  0  0  0  0
   43.7767  -10.8247   -4.4062 N   0  0  0  0  0  0  0  0  0  0  0  0
   43.9258  -10.5597   -2.9830 C   0  0  0  0  0  0  0  0  0  0  0  0
   45.1606   -9.8194   -2.6770 C   0  0  0  0  0  0  0  0  0  0  0  0
   46.0503   -9.7358   -3.5615 O   0  0  0  0  0  0  0  0  0  0  0  0
   45.4119   -9.2013   -1.4659 O   0  0  0  0  0  0  0  0  0  0  0  0
  2  1  1  6
  2  3  1  0
  3  4  1  0
  4  5  2  0
  4  8  1  0
  5  6  1  0
  6  7  1  0
  8  7  2  0
  9  2  1  0
  9 15  1  0
 10  9  2  0
 12 11  1  6
 12 14  1  0
 13 12  1  0
 14 15  1  1
 14 16  1  0
 16 18  1  0
 17 16  2  0
 18 19  1  0
 20 22  1  0
 20 19  1  0
 21 20  2  0
M  END
$$$$
