HVG.pdb
     RDKit          3D

 22 22  0  0  1  0  0  0  0  0999 V2000
   19.7471  -11.8923  -17.5267 N   0  0  0  0  0  0  0  0  0  0  0  0
   20.6934  -10.8146  -17.5089 C   0  0  1  0  0  0  0  0  0  0  0  0
   21.1997  -10.5014  -18.8956 C   0  0  0  0  0  0  0  0  0  0  0  0
   22.0074  -11.6607  -19.3540 C   0  0  0  0  0  0  0  0  0  0  0  0
   23.3902  -11.7874  -19.2184 C   0  0  0  0  0  0  0  0  0  0  0  0
   23.7856  -12.9576  -19.7414 N   0  0  0  0  0  0  0  0  0  0  0  0
   22.6921  -13.5689  -20.2011 C   0  0  0  0  0  0  0  0  0  0  0  0
   21.6073  -12.7872  -19.9695 N   0  0  0  0  0  0  0  0  0  0  0  0
   20.1009   -9.6490  -16.8382 C   0  0  0  0  0  0  0  0  0  0  0  0
   18.9303   -9.3163  -17.1324 O   0  0  0  0  0  0  0  0  0  0  0  0
   20.4291   -8.6899  -12.9948 C   0  0  0  0  0  0  0  0  0  0  0  0
   19.3910   -8.2481  -14.0438 C   0  0  2  0  0  0  0  0  0  0  0  0
   18.5159   -9.4200  -14.2587 C   0  0  0  0  0  0  0  0  0  0  0  0
   20.1204   -7.7216  -15.2537 C   0  0  2  0  0  0  0  0  0  0  0  0
   20.7910   -8.8800  -15.8711 N   0  0  0  0  0  0  0  0  0  0  0  0
   21.1046   -6.6643  -14.9657 C   0  0  0  0  0  0  0  0  0  0  0  0
   22.1663   -6.9768  -14.3254 O   0  0  0  0  0  0  0  0  0  0  0  0
   20.9875   -5.3034  -15.3391 N   0  0  0  0  0  0  0  0  0  0  0  0
   22.0905   -4.3945  -15.0647 C   0  0  0  0  0  0  0  0  0  0  0  0
   21.7821   -3.4506  -13.9782 C   0  0  0  0  0  0  0  0  0  0  0  0
   20.7661   -3.6582  -13.2672 O   0  0  0  0  0  0  0  0  0  0  0  0
   22.5447   -2.3358  -13.6824 O   0  0  0  0  0  0  0  0  0  0  0  0
  2  1  1  6
  2  3  1  0
  3  4  1  0
  4  5  2  0
  4  8  1  0
  5  6  1  0
  6  7  1  0
  8  7  2  0
  9  2  1  0
  9 15  1  0
 10  9  2  0
 12 11  1  1
 12 14  1  0
 13 12  1  0
 14 15  1  1
 14 16  1  0
 16 18  1  0
 17 16  2  0
 18 19  1  0
 20 22  1  0
 20 19  1  0
 21 20  2  0
M  END
$$$$
