HVG.pdb
     RDKit          3D

 22 22  0  0  1  0  0  0  0  0999 V2000
   18.6216  -11.7239  -15.8884 N   0  0  0  0  0  0  0  0  0  0  0  0
   18.5558  -10.2937  -15.9746 C   0  0  1  0  0  0  0  0  0  0  0  0
   17.2995   -9.7591  -15.3317 C   0  0  0  0  0  0  0  0  0  0  0  0
   16.1662  -10.0450  -16.2485 C   0  0  0  0  0  0  0  0  0  0  0  0
   16.2697  -10.6658  -17.4936 C   0  0  0  0  0  0  0  0  0  0  0  0
   15.0519  -10.7631  -18.0475 N   0  0  0  0  0  0  0  0  0  0  0  0
   14.1875  -10.2217  -17.1871 C   0  0  0  0  0  0  0  0  0  0  0  0
   14.8568   -9.7829  -16.0912 N   0  0  0  0  0  0  0  0  0  0  0  0
   19.7810   -9.7088  -15.4123 C   0  0  0  0  0  0  0  0  0  0  0  0
   20.1862  -10.1157  -14.2998 O   0  0  0  0  0  0  0  0  0  0  0  0
   23.1205   -9.8659  -16.5694 C   0  0  0  0  0  0  0  0  0  0  0  0
   22.8678   -8.3556  -16.4011 C   0  0  2  0  0  0  0  0  0  0  0  0
   24.1732   -7.7708  -16.0278 C   0  0  0  0  0  0  0  0  0  0  0  0
   21.7380   -8.1607  -15.4221 C   0  0  2  0  0  0  0  0  0  0  0  0
   20.5297   -8.7032  -16.0690 N   0  0  0  0  0  0  0  0  0  0  0  0
   21.5089   -6.7628  -15.0186 C   0  0  0  0  0  0  0  0  0  0  0  0
   21.0646   -5.9408  -15.8913 O   0  0  0  0  0  0  0  0  0  0  0  0
   21.7369   -6.2283  -13.7273 N   0  0  0  0  0  0  0  0  0  0  0  0
   21.4897   -4.8137  -13.4908 C   0  0  0  0  0  0  0  0  0  0  0  0
   22.4457   -3.9508  -14.2035 C   0  0  0  0  0  0  0  0  0  0  0  0
   22.0716   -2.8077  -14.5699 O   0  0  0  0  0  0  0  0  0  0  0  0
   23.7452   -4.3172  -14.5013 O   0  0  0  0  0  0  0  0  0  0  0  0
  2  1  1  1
  2  3  1  0
  3  4  1  0
  4  5  2  0
  4  8  1  0
  5  6  1  0
  6  7  1  0
  8  7  2  0
  9  2  1  0
  9 15  1  0
 10  9  2  0
 12 11  1  1
 12 14  1  0
 13 12  1  0
 14 15  1  6
 14 16  1  0
 16 18  1  0
 17 16  2  0
 18 19  1  0
 20 22  1  0
 20 19  1  0
 21 20  2  0
M  END
$$$$
