PNI.pdb
     RDKit          3D

 24 24  0  0  1  0  0  0  0  0999 V2000
    8.9130  -14.7464   18.4948 N   0  0  0  0  0  0  0  0  0  0  0  0
    8.7687  -14.0675   17.1906 C   0  0  0  0  0  0  0  0  0  0  0  0
    7.4082  -13.4105   17.4104 C   0  0  0  0  0  0  0  0  0  0  0  0
    7.6178  -12.7872   18.7940 C   0  0  0  0  0  0  0  0  0  0  0  0
    8.6171  -13.6850   19.4352 C   0  0  1  0  0  0  0  0  0  0  0  0
    8.2235  -14.1715   20.7773 C   0  0  0  0  0  0  0  0  0  0  0  0
    7.7722  -13.3235   21.5882 O   0  0  0  0  0  0  0  0  0  0  0  0
    9.8968  -18.2181   21.3863 N   0  0  0  0  0  0  0  0  0  0  0  0
    9.1162  -18.1786   22.5598 C   0  0  0  0  0  0  0  0  0  0  0  0
    9.5489  -18.7307   23.5925 O   0  0  0  0  0  0  0  0  0  0  0  0
    7.8176  -17.4960   22.5585 C   0  0  0  0  0  0  0  0  0  0  0  0
    7.8825  -16.0009   22.3896 C   0  0  2  0  0  0  0  0  0  0  0  0
    8.3496  -15.5384   21.1373 N   0  0  0  0  0  0  0  0  0  0  0  0
    8.5499  -15.4224   23.5708 C   0  0  0  0  0  0  0  0  0  0  0  0
    9.7826  -15.1833   23.4756 O   0  0  0  0  0  0  0  0  0  0  0  0
    5.9911  -12.2142   27.5801 C   0  0  0  0  0  0  0  0  0  0  0  0
    6.4935  -13.4942   26.8970 C   0  0  0  0  0  0  0  0  0  0  0  0
    7.9081  -13.2376   26.4275 C   0  0  2  0  0  0  0  0  0  0  0  0
    7.8981  -12.1596   25.3307 C   0  0  0  0  0  0  0  0  0  0  0  0
    8.6087  -14.4202   25.8928 C   0  0  2  0  0  0  0  0  0  0  0  0
    7.9344  -15.1136   24.8079 N   0  0  0  0  0  0  0  0  0  0  0  0
    8.8052  -15.3982   27.0325 C   0  0  0  0  0  0  0  0  0  0  0  0
    8.2532  -16.5112   26.9709 O   0  0  0  0  0  0  0  0  0  0  0  0
    9.5812  -15.0671   28.1225 O   0  0  0  0  0  0  0  0  0  0  0  0
  1  2  1  0
  2  3  1  0
  4  3  1  0
  5  4  1  0
  5  1  1  0
  6  7  2  0
  5  6  1  1
  9 10  2  0
  9  8  1  0
 11  9  1  0
 12 11  1  6
 12 13  1  0
 13  6  1  0
 14 12  1  0
 15 14  2  0
 17 16  1  0
 18 17  1  0
 18 20  1  0
 18 19  1  6
 20 21  1  6
 21 14  1  0
 22 20  1  0
 22 24  1  0
 23 22  2  0
M  END
$$$$
