PNI.pdb
     RDKit          3D

 24 24  0  0  1  0  0  0  0  0999 V2000
    8.0610  -14.8860   17.8740 N   0  0  0  0  0  0  0  0  0  0  0  0
    8.0982  -13.6350   17.0889 C   0  0  0  0  0  0  0  0  0  0  0  0
    7.5958  -12.6658   18.1562 C   0  0  0  0  0  0  0  0  0  0  0  0
    8.4737  -13.0756   19.3428 C   0  0  0  0  0  0  0  0  0  0  0  0
    8.7574  -14.5146   19.0887 C   0  0  1  0  0  0  0  0  0  0  0  0
    8.4662  -15.4030   20.2371 C   0  0  0  0  0  0  0  0  0  0  0  0
    7.8680  -16.4816   19.9941 O   0  0  0  0  0  0  0  0  0  0  0  0
   10.8722  -18.4712   23.6853 N   0  0  0  0  0  0  0  0  0  0  0  0
   10.4672  -17.6639   22.6027 C   0  0  0  0  0  0  0  0  0  0  0  0
   11.3365  -17.1992   21.8366 O   0  0  0  0  0  0  0  0  0  0  0  0
    9.0440  -17.3804   22.3866 C   0  0  0  0  0  0  0  0  0  0  0  0
    8.6333  -15.9522   22.6314 C   0  0  2  0  0  0  0  0  0  0  0  0
    8.8449  -15.0541   21.5596 N   0  0  0  0  0  0  0  0  0  0  0  0
    9.1727  -15.5245   23.9359 C   0  0  0  0  0  0  0  0  0  0  0  0
   10.3631  -15.1144   23.9598 O   0  0  0  0  0  0  0  0  0  0  0  0
    5.8755  -12.2667   26.4078 C   0  0  0  0  0  0  0  0  0  0  0  0
    7.0559  -12.9858   25.7392 C   0  0  0  0  0  0  0  0  0  0  0  0
    7.7446  -13.8175   26.7981 C   0  0  2  0  0  0  0  0  0  0  0  0
    8.3437  -12.8915   27.8699 C   0  0  0  0  0  0  0  0  0  0  0  0
    8.8246  -14.6884   26.2980 C   0  0  2  0  0  0  0  0  0  0  0  0
    8.4775  -15.5359   25.1693 N   0  0  0  0  0  0  0  0  0  0  0  0
    9.2708  -15.5774   27.4402 C   0  0  0  0  0  0  0  0  0  0  0  0
    8.8194  -16.7342   27.5127 O   0  0  0  0  0  0  0  0  0  0  0  0
   10.1615  -15.1187   28.3868 O   0  0  0  0  0  0  0  0  0  0  0  0
  1  2  1  0
  2  3  1  0
  4  3  1  0
  5  4  1  0
  5  1  1  0
  6  7  2  0
  5  6  1  1
  9 10  2  0
  9  8  1  0
 11  9  1  0
 12 11  1  6
 12 13  1  0
 13  6  1  0
 14 12  1  0
 15 14  2  0
 17 16  1  0
 18 17  1  0
 18 20  1  0
 18 19  1  1
 20 21  1  6
 21 14  1  0
 22 20  1  0
 22 24  1  0
 23 22  2  0
M  END
$$$$
