PNI.pdb
     RDKit          3D

 24 24  0  0  1  0  0  0  0  0999 V2000
    8.9732  -14.7948   18.8192 N   0  0  0  0  0  0  0  0  0  0  0  0
    8.6816  -14.1145   17.5405 C   0  0  0  0  0  0  0  0  0  0  0  0
    7.2059  -13.7961   17.7681 C   0  0  0  0  0  0  0  0  0  0  0  0
    7.2621  -13.1981   19.1774 C   0  0  0  0  0  0  0  0  0  0  0  0
    8.4384  -13.8684   19.7961 C   0  0  1  0  0  0  0  0  0  0  0  0
    8.1620  -14.4862   21.1132 C   0  0  0  0  0  0  0  0  0  0  0  0
    7.5844  -13.7747   21.9737 O   0  0  0  0  0  0  0  0  0  0  0  0
    8.6393  -19.5218   24.5894 N   0  0  0  0  0  0  0  0  0  0  0  0
    7.8558  -18.5582   23.9219 C   0  0  0  0  0  0  0  0  0  0  0  0
    6.7418  -18.2519   24.3947 O   0  0  0  0  0  0  0  0  0  0  0  0
    8.3505  -17.9295   22.6921 C   0  0  0  0  0  0  0  0  0  0  0  0
    8.1532  -16.4385   22.6135 C   0  0  2  0  0  0  0  0  0  0  0  0
    8.5333  -15.8263   21.3965 N   0  0  0  0  0  0  0  0  0  0  0  0
    8.7081  -15.8254   23.8348 C   0  0  0  0  0  0  0  0  0  0  0  0
    9.9481  -15.6065   23.8563 O   0  0  0  0  0  0  0  0  0  0  0  0
    5.8478  -11.9724   26.2598 C   0  0  0  0  0  0  0  0  0  0  0  0
    7.0421  -12.6821   25.6059 C   0  0  0  0  0  0  0  0  0  0  0  0
    7.6243  -13.6337   26.6269 C   0  0  2  0  0  0  0  0  0  0  0  0
    8.4097  -12.8375   27.6826 C   0  0  0  0  0  0  0  0  0  0  0  0
    8.5250  -14.6624   26.0739 C   0  0  2  0  0  0  0  0  0  0  0  0
    7.9766  -15.4624   24.9914 N   0  0  0  0  0  0  0  0  0  0  0  0
    8.9149  -15.5937   27.2028 C   0  0  0  0  0  0  0  0  0  0  0  0
    8.2114  -16.5950   27.4257 O   0  0  0  0  0  0  0  0  0  0  0  0
   10.0291  -15.3420   27.9742 O   0  0  0  0  0  0  0  0  0  0  0  0
  1  2  1  0
  2  3  1  0
  4  3  1  0
  5  4  1  0
  5  1  1  0
  6  7  2  0
  5  6  1  1
  9 10  2  0
  9  8  1  0
 11  9  1  0
 12 11  1  6
 12 13  1  0
 13  6  1  0
 14 12  1  0
 15 14  2  0
 17 16  1  0
 18 17  1  0
 18 20  1  0
 18 19  1  1
 20 21  1  6
 21 14  1  0
 22 20  1  0
 22 24  1  0
 23 22  2  0
M  END
$$$$
