PNI.pdb
     RDKit          3D

 24 24  0  0  1  0  0  0  0  0999 V2000
    7.0902  -14.3499   18.9505 N   0  0  0  0  0  0  0  0  0  0  0  0
    7.5458  -13.3756   17.9376 C   0  0  0  0  0  0  0  0  0  0  0  0
    8.7264  -12.7741   18.6960 C   0  0  0  0  0  0  0  0  0  0  0  0
    9.4272  -14.0474   19.1800 C   0  0  0  0  0  0  0  0  0  0  0  0
    8.3182  -15.0327   19.3033 C   0  0  1  0  0  0  0  0  0  0  0  0
    8.2609  -15.7218   20.6128 C   0  0  0  0  0  0  0  0  0  0  0  0
    9.2215  -16.4765   20.9094 O   0  0  0  0  0  0  0  0  0  0  0  0
    6.8011  -17.6943   25.1171 N   0  0  0  0  0  0  0  0  0  0  0  0
    7.2522  -18.3929   23.9785 C   0  0  0  0  0  0  0  0  0  0  0  0
    7.4863  -19.6155   24.0728 O   0  0  0  0  0  0  0  0  0  0  0  0
    7.4398  -17.6862   22.7066 C   0  0  0  0  0  0  0  0  0  0  0  0
    7.1276  -16.2133   22.7427 C   0  0  2  0  0  0  0  0  0  0  0  0
    7.1675  -15.5406   21.4992 N   0  0  0  0  0  0  0  0  0  0  0  0
    7.9110  -15.5927   23.8273 C   0  0  0  0  0  0  0  0  0  0  0  0
    9.1648  -15.6025   23.7097 O   0  0  0  0  0  0  0  0  0  0  0  0
    5.5736  -11.8744   27.5818 C   0  0  0  0  0  0  0  0  0  0  0  0
    6.1460  -13.2132   27.0941 C   0  0  0  0  0  0  0  0  0  0  0  0
    7.4342  -12.9194   26.3583 C   0  0  2  0  0  0  0  0  0  0  0  0
    7.1420  -12.0090   25.1537 C   0  0  0  0  0  0  0  0  0  0  0  0
    8.1509  -14.1092   25.8624 C   0  0  2  0  0  0  0  0  0  0  0  0
    7.3851  -14.9887   24.9949 N   0  0  0  0  0  0  0  0  0  0  0  0
    8.6102  -14.9089   27.0639 C   0  0  0  0  0  0  0  0  0  0  0  0
    8.1343  -16.0433   27.2480 O   0  0  0  0  0  0  0  0  0  0  0  0
    9.5393  -14.3944   27.9425 O   0  0  0  0  0  0  0  0  0  0  0  0
  1  2  1  0
  2  3  1  0
  4  3  1  0
  5  4  1  0
  5  1  1  0
  6  7  2  0
  5  6  1  1
  9 10  2  0
  9  8  1  0
 11  9  1  0
 12 11  1  6
 12 13  1  0
 13  6  1  0
 14 12  1  0
 15 14  2  0
 17 16  1  0
 18 17  1  0
 18 20  1  0
 18 19  1  6
 20 21  1  6
 21 14  1  0
 22 20  1  0
 22 24  1  0
 23 22  2  0
M  END
$$$$
