PNI.pdb
     RDKit          3D

 24 24  0  0  1  0  0  0  0  0999 V2000
    8.6111  -15.1606   18.9809 N   0  0  0  0  0  0  0  0  0  0  0  0
    8.5024  -14.4134   17.7110 C   0  0  0  0  0  0  0  0  0  0  0  0
    7.2487  -13.5979   18.0180 C   0  0  0  0  0  0  0  0  0  0  0  0
    7.5941  -13.0666   19.4127 C   0  0  0  0  0  0  0  0  0  0  0  0
    8.4942  -14.1115   19.9730 C   0  0  1  0  0  0  0  0  0  0  0  0
    8.0963  -14.6009   21.3128 C   0  0  0  0  0  0  0  0  0  0  0  0
    7.8867  -13.7381   22.2027 O   0  0  0  0  0  0  0  0  0  0  0  0
    7.0631  -19.4861   24.8307 N   0  0  0  0  0  0  0  0  0  0  0  0
    6.5473  -18.3420   24.1880 C   0  0  0  0  0  0  0  0  0  0  0  0
    5.6133  -17.7143   24.7286 O   0  0  0  0  0  0  0  0  0  0  0  0
    7.1064  -17.9025   22.9048 C   0  0  0  0  0  0  0  0  0  0  0  0
    7.4063  -16.4296   22.8102 C   0  0  2  0  0  0  0  0  0  0  0  0
    7.9570  -15.9867   21.5851 N   0  0  0  0  0  0  0  0  0  0  0  0
    8.1396  -16.0199   24.0225 C   0  0  0  0  0  0  0  0  0  0  0  0
    9.3943  -16.1261   23.9994 O   0  0  0  0  0  0  0  0  0  0  0  0
    6.1795  -11.5556   26.2820 C   0  0  0  0  0  0  0  0  0  0  0  0
    7.0966  -12.5886   25.6115 C   0  0  0  0  0  0  0  0  0  0  0  0
    7.5929  -13.5274   26.6883 C   0  0  2  0  0  0  0  0  0  0  0  0
    8.5540  -12.7746   27.6236 C   0  0  0  0  0  0  0  0  0  0  0  0
    8.2923  -14.7271   26.1916 C   0  0  2  0  0  0  0  0  0  0  0  0
    7.5640  -15.5210   25.2160 N   0  0  0  0  0  0  0  0  0  0  0  0
    8.6057  -15.6085   27.3828 C   0  0  0  0  0  0  0  0  0  0  0  0
    9.4043  -15.1952   28.2423 O   0  0  0  0  0  0  0  0  0  0  0  0
    8.0196  -16.8486   27.5184 O   0  0  0  0  0  0  0  0  0  0  0  0
  1  2  1  0
  2  3  1  0
  4  3  1  0
  5  4  1  0
  5  1  1  0
  6  7  2  0
  5  6  1  1
  9 10  2  0
  9  8  1  0
 11  9  1  0
 12 11  1  6
 12 13  1  0
 13  6  1  0
 14 12  1  0
 15 14  2  0
 17 16  1  0
 18 17  1  0
 18 20  1  0
 18 19  1  1
 20 21  1  6
 21 14  1  0
 22 20  1  0
 22 24  1  0
 23 22  2  0
M  END
$$$$
