PNI.pdb
     RDKit          3D

 24 24  0  0  1  0  0  0  0  0999 V2000
    8.9055  -14.8374   18.6712 N   0  0  0  0  0  0  0  0  0  0  0  0
    8.8394  -14.0921   17.3973 C   0  0  0  0  0  0  0  0  0  0  0  0
    7.4769  -13.4272   17.5777 C   0  0  0  0  0  0  0  0  0  0  0  0
    7.6194  -12.8770   19.0002 C   0  0  0  0  0  0  0  0  0  0  0  0
    8.5721  -13.8201   19.6472 C   0  0  1  0  0  0  0  0  0  0  0  0
    8.1012  -14.3673   20.9402 C   0  0  0  0  0  0  0  0  0  0  0  0
    7.7398  -13.5428   21.8176 O   0  0  0  0  0  0  0  0  0  0  0  0
    9.0673  -19.5171   23.3848 N   0  0  0  0  0  0  0  0  0  0  0  0
    8.7720  -18.5052   22.4484 C   0  0  0  0  0  0  0  0  0  0  0  0
    9.5997  -18.2545   21.5481 O   0  0  0  0  0  0  0  0  0  0  0  0
    7.5089  -17.7643   22.5377 C   0  0  0  0  0  0  0  0  0  0  0  0
    7.6386  -16.2672   22.4364 C   0  0  2  0  0  0  0  0  0  0  0  0
    8.0588  -15.7649   21.1829 N   0  0  0  0  0  0  0  0  0  0  0  0
    8.3975  -15.7807   23.6037 C   0  0  0  0  0  0  0  0  0  0  0  0
    9.6292  -15.5728   23.4432 O   0  0  0  0  0  0  0  0  0  0  0  0
    6.1715  -11.8606   26.4060 C   0  0  0  0  0  0  0  0  0  0  0  0
    7.1955  -12.6880   25.6158 C   0  0  0  0  0  0  0  0  0  0  0  0
    7.7970  -13.6999   26.5651 C   0  0  2  0  0  0  0  0  0  0  0  0
    8.7231  -12.9827   27.5616 C   0  0  0  0  0  0  0  0  0  0  0  0
    8.5741  -14.7731   25.9174 C   0  0  2  0  0  0  0  0  0  0  0  0
    7.8713  -15.5286   24.8937 N   0  0  0  0  0  0  0  0  0  0  0  0
    9.0226  -15.7373   26.9959 C   0  0  0  0  0  0  0  0  0  0  0  0
    8.3522  -16.7650   27.1995 O   0  0  0  0  0  0  0  0  0  0  0  0
   10.1535  -15.4864   27.7428 O   0  0  0  0  0  0  0  0  0  0  0  0
  1  2  1  0
  2  3  1  0
  4  3  1  0
  5  4  1  0
  5  1  1  0
  6  7  2  0
  5  6  1  1
  9 10  2  0
  9  8  1  0
 11  9  1  0
 12 11  1  6
 12 13  1  0
 13  6  1  0
 14 12  1  0
 15 14  2  0
 17 16  1  0
 18 17  1  0
 18 20  1  0
 18 19  1  1
 20 21  1  6
 21 14  1  0
 22 20  1  0
 22 24  1  0
 23 22  2  0
M  END
$$$$
