PNI.pdb
     RDKit          3D

 24 24  0  0  1  0  0  0  0  0999 V2000
    8.6344  -15.0926   18.8796 N   0  0  0  0  0  0  0  0  0  0  0  0
    8.6433  -14.3030   17.6309 C   0  0  0  0  0  0  0  0  0  0  0  0
    7.4351  -13.4099   17.9020 C   0  0  0  0  0  0  0  0  0  0  0  0
    7.7442  -12.9452   19.3286 C   0  0  0  0  0  0  0  0  0  0  0  0
    8.5395  -14.0671   19.8983 C   0  0  1  0  0  0  0  0  0  0  0  0
    8.0402  -14.5658   21.2002 C   0  0  0  0  0  0  0  0  0  0  0  0
    7.8874  -13.7227   22.1201 O   0  0  0  0  0  0  0  0  0  0  0  0
    6.1302  -17.3770   25.0401 N   0  0  0  0  0  0  0  0  0  0  0  0
    6.4325  -18.3179   24.0345 C   0  0  0  0  0  0  0  0  0  0  0  0
    6.1715  -19.5221   24.2351 O   0  0  0  0  0  0  0  0  0  0  0  0
    7.0432  -17.8795   22.7746 C   0  0  0  0  0  0  0  0  0  0  0  0
    7.2558  -16.3936   22.6515 C   0  0  2  0  0  0  0  0  0  0  0  0
    7.7456  -15.9388   21.4050 N   0  0  0  0  0  0  0  0  0  0  0  0
    7.9985  -15.9248   23.8364 C   0  0  0  0  0  0  0  0  0  0  0  0
    9.2526  -16.0368   23.8109 O   0  0  0  0  0  0  0  0  0  0  0  0
    5.7334  -11.8126   26.7812 C   0  0  0  0  0  0  0  0  0  0  0  0
    6.6900  -12.5942   25.8692 C   0  0  0  0  0  0  0  0  0  0  0  0
    7.4389  -13.5846   26.7327 C   0  0  2  0  0  0  0  0  0  0  0  0
    8.4299  -12.8321   27.6365 C   0  0  0  0  0  0  0  0  0  0  0  0
    8.1941  -14.6098   25.9887 C   0  0  2  0  0  0  0  0  0  0  0  0
    7.4324  -15.3629   25.0062 N   0  0  0  0  0  0  0  0  0  0  0  0
    8.7676  -15.5857   26.9951 C   0  0  0  0  0  0  0  0  0  0  0  0
    8.1470  -16.6370   27.2333 O   0  0  0  0  0  0  0  0  0  0  0  0
    9.9565  -15.3196   27.6397 O   0  0  0  0  0  0  0  0  0  0  0  0
  1  2  1  0
  2  3  1  0
  4  3  1  0
  5  4  1  0
  5  1  1  0
  6  7  2  0
  5  6  1  1
  9 10  2  0
  9  8  1  0
 11  9  1  0
 12 11  1  6
 12 13  1  0
 13  6  1  0
 14 12  1  0
 15 14  2  0
 17 16  1  0
 18 17  1  0
 18 20  1  0
 18 19  1  6
 20 21  1  6
 21 14  1  0
 22 20  1  0
 22 24  1  0
 23 22  2  0
M  END
$$$$
