AIW.pdb
     RDKit          3D

 28 29  0  0  1  0  0  0  0  0999 V2000
   29.4301  -21.1546  -14.8863 C   0  0  0  0  0  0  0  0  0  0  0  0
   28.4967  -20.5477  -15.9118 C   0  0  2  0  0  0  0  0  0  0  0  0
   29.1718  -19.6931  -16.8401 N   0  0  0  0  0  0  0  0  0  0  0  0
   27.4252  -19.8290  -15.1592 C   0  0  0  0  0  0  0  0  0  0  0  0
   27.6912  -18.7504  -14.5680 O   0  0  0  0  0  0  0  0  0  0  0  0
   23.5001  -17.7569  -17.4441 C   0  0  0  0  0  0  0  0  0  0  0  0
   24.4925  -18.1044  -16.3810 C   0  0  0  0  0  0  0  0  0  0  0  0
   23.9959  -19.1689  -15.4160 C   0  0  2  0  0  0  0  0  0  0  0  0
   22.7386  -18.7182  -14.7365 C   0  0  0  0  0  0  0  0  0  0  0  0
   25.0620  -19.4896  -14.4159 C   0  0  2  0  0  0  0  0  0  0  0  0
   26.1046  -20.3107  -15.0778 N   0  0  0  0  0  0  0  0  0  0  0  0
   24.6110  -20.3298  -13.2901 C   0  0  0  0  0  0  0  0  0  0  0  0
   24.3342  -21.5587  -13.4888 O   0  0  0  0  0  0  0  0  0  0  0  0
   24.4409  -19.9353  -11.9530 N   0  0  0  0  0  0  0  0  0  0  0  0
   23.9862  -20.8197  -10.9489 C   0  0  1  0  0  0  0  0  0  0  0  0
   24.4174  -20.5716   -9.5661 C   0  0  0  0  0  0  0  0  0  0  0  0
   25.8770  -20.7761   -9.4284 C   0  0  0  0  0  0  0  0  0  0  0  0
   26.6750  -21.5381  -10.2615 C   0  0  0  0  0  0  0  0  0  0  0  0
   27.9441  -21.5435   -9.8772 N   0  0  0  0  0  0  0  0  0  0  0  0
   28.0113  -20.7775   -8.7711 C   0  0  0  0  0  0  0  0  0  0  0  0
   29.0562  -20.4341   -7.9605 C   0  0  0  0  0  0  0  0  0  0  0  0
   28.8294  -19.6134   -6.8664 C   0  0  0  0  0  0  0  0  0  0  0  0
   27.5677  -19.1377   -6.5820 C   0  0  0  0  0  0  0  0  0  0  0  0
   26.4900  -19.4795   -7.4006 C   0  0  0  0  0  0  0  0  0  0  0  0
   26.7373  -20.2854   -8.4674 C   0  0  0  0  0  0  0  0  0  0  0  0
   22.5086  -20.8823  -11.0152 C   0  0  0  0  0  0  0  0  0  0  0  0
   21.7216  -21.8246  -10.3702 O   0  0  0  0  0  0  0  0  0  0  0  0
   21.8923  -20.0339  -11.6988 O   0  0  0  0  0  0  0  0  0  0  0  0
  2  1  1  1
  3  2  1  0
  4 11  1  0
  4  2  1  0
  5  4  2  0
  6  7  1  0
  7  8  1  0
  8  9  1  1
 10 11  1  6
 10  8  1  0
 12 10  1  0
 13 12  2  0
 14 12  1  0
 15 16  1  1
 15 14  1  0
 17 16  1  0
 18 17  2  0
 19 18  1  0
 20 19  1  0
 20 25  2  0
 21 20  1  0
 22 21  2  0
 22 23  1  0
 23 24  2  0
 24 25  1  0
 25 17  1  0
 26 15  1  0
 27 26  1  0
 28 26  2  0
M  END
$$$$
