AIW.pdb
     RDKit          3D

 28 29  0  0  1  0  0  0  0  0999 V2000
   22.4594  -18.5621  -13.3263 C   0  0  0  0  0  0  0  0  0  0  0  0
   23.4655  -18.1499  -14.3794 C   0  0  2  0  0  0  0  0  0  0  0  0
   22.8789  -17.9881  -15.6746 N   0  0  0  0  0  0  0  0  0  0  0  0
   24.5506  -19.1763  -14.3754 C   0  0  0  0  0  0  0  0  0  0  0  0
   24.4239  -20.2240  -15.0609 O   0  0  0  0  0  0  0  0  0  0  0  0
   29.3772  -17.6258  -15.2491 C   0  0  0  0  0  0  0  0  0  0  0  0
   28.1099  -18.4000  -15.0750 C   0  0  0  0  0  0  0  0  0  0  0  0
   28.1249  -19.3184  -13.8637 C   0  0  2  0  0  0  0  0  0  0  0  0
   29.2612  -20.2912  -13.9545 C   0  0  0  0  0  0  0  0  0  0  0  0
   26.8146  -20.0319  -13.7469 C   0  0  2  0  0  0  0  0  0  0  0  0
   25.7329  -19.0246  -13.6258 N   0  0  0  0  0  0  0  0  0  0  0  0
   26.6721  -20.8528  -12.5293 C   0  0  0  0  0  0  0  0  0  0  0  0
   26.9378  -22.0993  -12.5719 O   0  0  0  0  0  0  0  0  0  0  0  0
   26.2642  -20.4189  -11.2574 N   0  0  0  0  0  0  0  0  0  0  0  0
   25.9473  -21.3147  -10.2114 C   0  0  1  0  0  0  0  0  0  0  0  0
   26.9836  -21.5958   -9.2080 C   0  0  0  0  0  0  0  0  0  0  0  0
   27.1353  -20.4538   -8.2784 C   0  0  0  0  0  0  0  0  0  0  0  0
   26.6299  -19.1803   -8.4632 C   0  0  0  0  0  0  0  0  0  0  0  0
   26.9398  -18.3654   -7.4641 N   0  0  0  0  0  0  0  0  0  0  0  0
   27.6637  -19.0910   -6.5900 C   0  0  0  0  0  0  0  0  0  0  0  0
   28.2412  -18.7693   -5.3941 C   0  0  0  0  0  0  0  0  0  0  0  0
   28.9438  -19.7377   -4.6938 C   0  0  0  0  0  0  0  0  0  0  0  0
   29.0700  -21.0199   -5.1830 C   0  0  0  0  0  0  0  0  0  0  0  0
   28.4857  -21.3640   -6.4031 C   0  0  0  0  0  0  0  0  0  0  0  0
   27.8019  -20.3973   -7.0713 C   0  0  0  0  0  0  0  0  0  0  0  0
   24.7137  -20.8386   -9.5457 C   0  0  0  0  0  0  0  0  0  0  0  0
   24.0800  -21.4785   -8.4910 O   0  0  0  0  0  0  0  0  0  0  0  0
   24.1759  -19.7804   -9.9429 O   0  0  0  0  0  0  0  0  0  0  0  0
  2  1  1  1
  3  2  1  0
  4 11  1  0
  4  2  1  0
  5  4  2  0
  6  7  1  0
  7  8  1  0
  8  9  1  6
 10 11  1  1
 10  8  1  0
 12 10  1  0
 13 12  2  0
 14 12  1  0
 15 16  1  1
 15 14  1  0
 17 16  1  0
 18 17  2  0
 19 18  1  0
 20 19  1  0
 20 25  2  0
 21 20  1  0
 22 21  2  0
 22 23  1  0
 23 24  2  0
 24 25  1  0
 25 17  1  0
 26 15  1  0
 27 26  1  0
 28 26  2  0
M  END
$$$$
