AIW.pdb
     RDKit          3D

 28 29  0  0  1  0  0  0  0  0999 V2000
   22.3432  -18.5376  -12.5380 C   0  0  0  0  0  0  0  0  0  0  0  0
   23.0652  -18.5000  -13.8679 C   0  0  2  0  0  0  0  0  0  0  0  0
   22.1748  -18.5795  -14.9854 N   0  0  0  0  0  0  0  0  0  0  0  0
   24.0604  -19.6137  -13.8587 C   0  0  0  0  0  0  0  0  0  0  0  0
   23.6643  -20.8076  -13.8959 O   0  0  0  0  0  0  0  0  0  0  0  0
   29.9837  -20.7116  -15.2563 C   0  0  0  0  0  0  0  0  0  0  0  0
   28.6093  -21.1485  -14.8616 C   0  0  0  0  0  0  0  0  0  0  0  0
   27.6952  -19.9952  -14.4802 C   0  0  2  0  0  0  0  0  0  0  0  0
   28.3493  -19.1228  -13.4522 C   0  0  0  0  0  0  0  0  0  0  0  0
   26.3863  -20.5233  -13.9827 C   0  0  2  0  0  0  0  0  0  0  0  0
   25.4492  -19.3870  -13.8094 N   0  0  0  0  0  0  0  0  0  0  0  0
   26.4455  -21.1410  -12.6442 C   0  0  0  0  0  0  0  0  0  0  0  0
   26.9416  -22.3078  -12.5072 O   0  0  0  0  0  0  0  0  0  0  0  0
   26.0077  -20.5819  -11.4326 N   0  0  0  0  0  0  0  0  0  0  0  0
   26.1159  -21.2593  -10.1970 C   0  0  1  0  0  0  0  0  0  0  0  0
   27.4076  -21.2139   -9.4977 C   0  0  0  0  0  0  0  0  0  0  0  0
   27.3238  -20.3487   -8.2995 C   0  0  0  0  0  0  0  0  0  0  0  0
   26.5214  -19.2322   -8.1554 C   0  0  0  0  0  0  0  0  0  0  0  0
   26.6722  -18.6526   -6.9723 N   0  0  0  0  0  0  0  0  0  0  0  0
   27.5867  -19.3816   -6.3038 C   0  0  0  0  0  0  0  0  0  0  0  0
   28.1236  -19.2494   -5.0543 C   0  0  0  0  0  0  0  0  0  0  0  0
   29.0677  -20.1658   -4.6173 C   0  0  0  0  0  0  0  0  0  0  0  0
   29.4742  -21.2084   -5.4216 C   0  0  0  0  0  0  0  0  0  0  0  0
   28.9350  -21.3570   -6.7005 C   0  0  0  0  0  0  0  0  0  0  0  0
   28.0110  -20.4460   -7.1066 C   0  0  0  0  0  0  0  0  0  0  0  0
   25.0389  -20.7766   -9.3033 C   0  0  0  0  0  0  0  0  0  0  0  0
   24.6091  -21.4217   -8.1534 O   0  0  0  0  0  0  0  0  0  0  0  0
   24.4504  -19.7070   -9.5800 O   0  0  0  0  0  0  0  0  0  0  0  0
  2  1  1  1
  3  2  1  0
  4 11  1  0
  4  2  1  0
  5  4  2  0
  6  7  1  0
  7  8  1  0
  8  9  1  1
 10 11  1  1
 10  8  1  0
 12 10  1  0
 13 12  2  0
 14 12  1  0
 15 16  1  1
 15 14  1  0
 17 16  1  0
 18 17  2  0
 19 18  1  0
 20 19  1  0
 20 25  2  0
 21 20  1  0
 22 21  2  0
 22 23  1  0
 23 24  2  0
 24 25  1  0
 25 17  1  0
 26 15  1  0
 27 26  1  0
 28 26  2  0
M  END
$$$$
