AIW.pdb
     RDKit          3D

 28 29  0  0  1  0  0  0  0  0999 V2000
   24.2159  -19.0383  -20.7787 C   0  0  0  0  0  0  0  0  0  0  0  0
   25.6520  -18.8544  -20.3370 C   0  0  2  0  0  0  0  0  0  0  0  0
   26.5420  -19.8036  -20.9327 N   0  0  0  0  0  0  0  0  0  0  0  0
   25.6651  -18.9273  -18.8452 C   0  0  0  0  0  0  0  0  0  0  0  0
   25.9514  -20.0114  -18.2739 O   0  0  0  0  0  0  0  0  0  0  0  0
   27.3917  -14.7744  -15.9772 C   0  0  0  0  0  0  0  0  0  0  0  0
   27.0904  -16.1932  -16.3406 C   0  0  0  0  0  0  0  0  0  0  0  0
   25.6909  -16.6341  -15.9434 C   0  0  2  0  0  0  0  0  0  0  0  0
   25.5579  -16.6836  -14.4516 C   0  0  0  0  0  0  0  0  0  0  0  0
   25.3811  -17.9644  -16.5550 C   0  0  2  0  0  0  0  0  0  0  0  0
   25.3662  -17.8183  -18.0308 N   0  0  0  0  0  0  0  0  0  0  0  0
   24.0380  -18.4855  -16.2370 C   0  0  0  0  0  0  0  0  0  0  0  0
   23.0043  -17.8224  -16.5805 O   0  0  0  0  0  0  0  0  0  0  0  0
   23.7292  -19.6839  -15.5730 N   0  0  0  0  0  0  0  0  0  0  0  0
   22.4009  -20.0998  -15.3284 C   0  0  1  0  0  0  0  0  0  0  0  0
   22.0106  -21.4484  -15.7630 C   0  0  0  0  0  0  0  0  0  0  0  0
   22.9235  -22.4658  -15.1948 C   0  0  0  0  0  0  0  0  0  0  0  0
   22.8335  -23.0282  -13.9350 C   0  0  0  0  0  0  0  0  0  0  0  0
   23.8029  -23.9028  -13.7033 N   0  0  0  0  0  0  0  0  0  0  0  0
   24.5610  -23.9363  -14.8163 C   0  0  0  0  0  0  0  0  0  0  0  0
   25.6811  -24.6502  -15.1369 C   0  0  0  0  0  0  0  0  0  0  0  0
   26.2649  -24.4798  -16.3828 C   0  0  0  0  0  0  0  0  0  0  0  0
   25.7349  -23.6025  -17.3040 C   0  0  0  0  0  0  0  0  0  0  0  0
   24.5910  -22.8661  -16.9914 C   0  0  0  0  0  0  0  0  0  0  0  0
   24.0366  -23.0504  -15.7637 C   0  0  0  0  0  0  0  0  0  0  0  0
   22.1160  -19.9303  -13.8857 C   0  0  0  0  0  0  0  0  0  0  0  0
   23.0718  -19.7074  -12.9059 O   0  0  0  0  0  0  0  0  0  0  0  0
   20.9308  -19.9886  -13.4870 O   0  0  0  0  0  0  0  0  0  0  0  0
  2  1  1  6
  3  2  1  0
  4 11  1  0
  4  2  1  0
  5  4  2  0
  6  7  1  0
  7  8  1  0
  8  9  1  1
 10 11  1  6
 10  8  1  0
 12 10  1  0
 13 12  2  0
 14 12  1  0
 15 16  1  1
 15 14  1  0
 17 16  1  0
 18 17  2  0
 19 18  1  0
 20 19  1  0
 20 25  2  0
 21 20  1  0
 22 21  2  0
 22 23  1  0
 23 24  2  0
 24 25  1  0
 25 17  1  0
 26 15  1  0
 27 26  1  0
 28 26  2  0
M  END
$$$$
