AIW.pdb
     RDKit          3D

 28 29  0  0  1  0  0  0  0  0999 V2000
   24.8084  -15.3016  -14.0836 C   0  0  0  0  0  0  0  0  0  0  0  0
   25.6253  -16.2817  -14.8979 C   0  0  2  0  0  0  0  0  0  0  0  0
   25.2218  -16.3355  -16.2699 N   0  0  0  0  0  0  0  0  0  0  0  0
   25.5154  -17.6105  -14.2247 C   0  0  0  0  0  0  0  0  0  0  0  0
   24.4087  -18.2087  -14.1970 O   0  0  0  0  0  0  0  0  0  0  0  0
   28.4142  -21.1226  -16.2132 C   0  0  0  0  0  0  0  0  0  0  0  0
   27.3492  -20.4260  -15.4280 C   0  0  0  0  0  0  0  0  0  0  0  0
   27.6076  -20.4233  -13.9300 C   0  0  2  0  0  0  0  0  0  0  0  0
   27.7123  -21.8253  -13.4112 C   0  0  0  0  0  0  0  0  0  0  0  0
   26.5238  -19.6691  -13.2257 C   0  0  2  0  0  0  0  0  0  0  0  0
   26.6137  -18.2387  -13.6068 N   0  0  0  0  0  0  0  0  0  0  0  0
   26.6468  -19.6524  -11.7555 C   0  0  0  0  0  0  0  0  0  0  0  0
   27.5673  -18.9623  -11.2053 O   0  0  0  0  0  0  0  0  0  0  0  0
   25.8369  -20.3299  -10.8295 N   0  0  0  0  0  0  0  0  0  0  0  0
   26.1158  -20.3505   -9.4442 C   0  0  1  0  0  0  0  0  0  0  0  0
   25.8631  -19.1255   -8.6727 C   0  0  0  0  0  0  0  0  0  0  0  0
   26.9921  -18.8406   -7.7586 C   0  0  0  0  0  0  0  0  0  0  0  0
   27.9478  -17.8558   -7.9267 C   0  0  0  0  0  0  0  0  0  0  0  0
   28.8433  -17.8506   -6.9488 N   0  0  0  0  0  0  0  0  0  0  0  0
   28.4943  -18.8420   -6.1061 C   0  0  0  0  0  0  0  0  0  0  0  0
   29.0518  -19.2890   -4.9416 C   0  0  0  0  0  0  0  0  0  0  0  0
   28.4678  -20.3519   -4.2699 C   0  0  0  0  0  0  0  0  0  0  0  0
   27.3339  -20.9658   -4.7567 C   0  0  0  0  0  0  0  0  0  0  0  0
   26.7525  -20.5206   -5.9450 C   0  0  0  0  0  0  0  0  0  0  0  0
   27.3434  -19.4769   -6.5855 C   0  0  0  0  0  0  0  0  0  0  0  0
   25.3900  -21.4896   -8.8381 C   0  0  0  0  0  0  0  0  0  0  0  0
   25.7450  -22.1220   -7.6561 O   0  0  0  0  0  0  0  0  0  0  0  0
   24.3738  -21.9406   -9.4132 O   0  0  0  0  0  0  0  0  0  0  0  0
  2  1  1  1
  3  2  1  0
  4 11  1  0
  4  2  1  0
  5  4  2  0
  6  7  1  0
  7  8  1  0
  8  9  1  1
 10 11  1  6
 10  8  1  0
 12 10  1  0
 13 12  2  0
 14 12  1  0
 15 16  1  1
 15 14  1  0
 17 16  1  0
 18 17  2  0
 19 18  1  0
 20 19  1  0
 20 25  2  0
 21 20  1  0
 22 21  2  0
 22 23  1  0
 23 24  2  0
 24 25  1  0
 25 17  1  0
 26 15  1  0
 27 26  1  0
 28 26  2  0
M  END
$$$$
