AIW.pdb
     RDKit          3D

 28 29  0  0  1  0  0  0  0  0999 V2000
   25.4378  -23.7728  -15.9519 C   0  0  0  0  0  0  0  0  0  0  0  0
   26.7517  -23.0981  -16.2832 C   0  0  2  0  0  0  0  0  0  0  0  0
   27.6588  -23.9600  -16.9777 N   0  0  0  0  0  0  0  0  0  0  0  0
   27.3231  -22.5950  -14.9982 C   0  0  0  0  0  0  0  0  0  0  0  0
   28.1423  -23.3033  -14.3574 O   0  0  0  0  0  0  0  0  0  0  0  0
   30.1592  -19.4774  -11.9758 C   0  0  0  0  0  0  0  0  0  0  0  0
   28.7567  -18.9772  -12.1126 C   0  0  0  0  0  0  0  0  0  0  0  0
   28.0626  -19.4634  -13.3746 C   0  0  2  0  0  0  0  0  0  0  0  0
   26.9033  -18.5761  -13.7131 C   0  0  0  0  0  0  0  0  0  0  0  0
   27.6204  -20.8825  -13.2005 C   0  0  2  0  0  0  0  0  0  0  0  0
   26.9818  -21.3401  -14.4583 N   0  0  0  0  0  0  0  0  0  0  0  0
   26.5721  -21.0752  -12.1804 C   0  0  0  0  0  0  0  0  0  0  0  0
   25.3604  -21.2408  -12.5417 O   0  0  0  0  0  0  0  0  0  0  0  0
   26.7415  -21.1069  -10.7866 N   0  0  0  0  0  0  0  0  0  0  0  0
   25.6695  -21.3298   -9.8930 C   0  0  1  0  0  0  0  0  0  0  0  0
   25.9929  -21.6316   -8.4916 C   0  0  0  0  0  0  0  0  0  0  0  0
   26.7083  -20.4978   -7.8638 C   0  0  0  0  0  0  0  0  0  0  0  0
   26.6872  -19.1836   -8.2923 C   0  0  0  0  0  0  0  0  0  0  0  0
   27.4376  -18.3947   -7.5354 N   0  0  0  0  0  0  0  0  0  0  0  0
   27.9754  -19.1796   -6.5817 C   0  0  0  0  0  0  0  0  0  0  0  0
   28.8204  -18.9059   -5.5434 C   0  0  0  0  0  0  0  0  0  0  0  0
   29.2200  -19.9319   -4.7009 C   0  0  0  0  0  0  0  0  0  0  0  0
   28.7796  -21.2236   -4.8926 C   0  0  0  0  0  0  0  0  0  0  0  0
   27.9161  -21.5191   -5.9488 C   0  0  0  0  0  0  0  0  0  0  0  0
   27.5383  -20.4964   -6.7612 C   0  0  0  0  0  0  0  0  0  0  0  0
   24.7536  -20.1688   -9.9628 C   0  0  0  0  0  0  0  0  0  0  0  0
   25.0657  -18.9408  -10.5267 O   0  0  0  0  0  0  0  0  0  0  0  0
   23.6017  -20.2711   -9.4836 O   0  0  0  0  0  0  0  0  0  0  0  0
  2  1  1  1
  3  2  1  0
  4 11  1  0
  4  2  1  0
  5  4  2  0
  6  7  1  0
  7  8  1  0
  8  9  1  1
 10 11  1  6
 10  8  1  0
 12 10  1  0
 13 12  2  0
 14 12  1  0
 15 16  1  1
 15 14  1  0
 17 16  1  0
 18 17  2  0
 19 18  1  0
 20 19  1  0
 20 25  2  0
 21 20  1  0
 22 21  2  0
 22 23  1  0
 23 24  2  0
 24 25  1  0
 25 17  1  0
 26 15  1  0
 27 26  1  0
 28 26  2  0
M  END
$$$$
