AIW.pdb
     RDKit          3D

 28 29  0  0  1  0  0  0  0  0999 V2000
   29.6808  -18.1246  -15.5793 C   0  0  0  0  0  0  0  0  0  0  0  0
   28.4022  -18.6639  -16.1838 C   0  0  2  0  0  0  0  0  0  0  0  0
   27.9935  -17.9444  -17.3514 N   0  0  0  0  0  0  0  0  0  0  0  0
   27.3634  -18.6355  -15.1109 C   0  0  0  0  0  0  0  0  0  0  0  0
   26.9278  -17.5325  -14.6901 O   0  0  0  0  0  0  0  0  0  0  0  0
   24.2206  -19.2955  -16.4702 C   0  0  0  0  0  0  0  0  0  0  0  0
   23.7202  -19.4131  -15.0661 C   0  0  0  0  0  0  0  0  0  0  0  0
   24.5104  -20.4020  -14.2243 C   0  0  2  0  0  0  0  0  0  0  0  0
   23.6340  -21.0210  -13.1780 C   0  0  0  0  0  0  0  0  0  0  0  0
   25.6879  -19.7183  -13.6033 C   0  0  2  0  0  0  0  0  0  0  0  0
   26.8374  -19.8083  -14.5359 N   0  0  0  0  0  0  0  0  0  0  0  0
   26.1831  -20.3553  -12.3680 C   0  0  0  0  0  0  0  0  0  0  0  0
   26.8944  -21.4111  -12.4418 O   0  0  0  0  0  0  0  0  0  0  0  0
   25.9668  -19.9269  -11.0482 N   0  0  0  0  0  0  0  0  0  0  0  0
   26.4129  -20.6605   -9.9256 C   0  0  1  0  0  0  0  0  0  0  0  0
   27.5444  -20.1230   -9.1572 C   0  0  0  0  0  0  0  0  0  0  0  0
   27.3187  -20.2943   -7.7042 C   0  0  0  0  0  0  0  0  0  0  0  0
   26.2567  -20.9569   -7.1174 C   0  0  0  0  0  0  0  0  0  0  0  0
   26.3181  -20.9337   -5.7930 N   0  0  0  0  0  0  0  0  0  0  0  0
   27.4332  -20.2482   -5.4744 C   0  0  0  0  0  0  0  0  0  0  0  0
   27.9890  -19.9174   -4.2709 C   0  0  0  0  0  0  0  0  0  0  0  0
   29.1679  -19.1886   -4.2415 C   0  0  0  0  0  0  0  0  0  0  0  0
   29.7894  -18.7917   -5.4058 C   0  0  0  0  0  0  0  0  0  0  0  0
   29.2340  -19.1219   -6.6431 C   0  0  0  0  0  0  0  0  0  0  0  0
   28.0777  -19.8371   -6.6462 C   0  0  0  0  0  0  0  0  0  0  0  0
   25.2574  -20.8932   -9.0299 C   0  0  0  0  0  0  0  0  0  0  0  0
   25.2023  -21.8579   -8.0351 O   0  0  0  0  0  0  0  0  0  0  0  0
   24.2353  -20.1815   -9.1556 O   0  0  0  0  0  0  0  0  0  0  0  0
  2  1  1  1
  3  2  1  0
  4 11  1  0
  4  2  1  0
  5  4  2  0
  6  7  1  0
  7  8  1  0
  8  9  1  1
 10 11  1  6
 10  8  1  0
 12 10  1  0
 13 12  2  0
 14 12  1  0
 15 16  1  1
 15 14  1  0
 17 16  1  0
 18 17  2  0
 19 18  1  0
 20 19  1  0
 20 25  2  0
 21 20  1  0
 22 21  2  0
 22 23  1  0
 23 24  2  0
 24 25  1  0
 25 17  1  0
 26 15  1  0
 27 26  1  0
 28 26  2  0
M  END
$$$$
