AIW.pdb
     RDKit          3D

 28 29  0  0  1  0  0  0  0  0999 V2000
   29.2342  -21.4981  -14.9907 C   0  0  0  0  0  0  0  0  0  0  0  0
   27.9557  -20.9020  -15.5397 C   0  0  2  0  0  0  0  0  0  0  0  0
   28.1916  -19.9204  -16.5541 N   0  0  0  0  0  0  0  0  0  0  0  0
   27.1981  -20.3440  -14.3797 C   0  0  0  0  0  0  0  0  0  0  0  0
   27.4113  -19.1626  -14.0025 O   0  0  0  0  0  0  0  0  0  0  0  0
   22.2880  -19.5989  -14.6312 C   0  0  0  0  0  0  0  0  0  0  0  0
   23.7034  -19.5540  -14.1513 C   0  0  0  0  0  0  0  0  0  0  0  0
   23.9829  -20.5118  -13.0044 C   0  0  2  0  0  0  0  0  0  0  0  0
   23.0962  -20.2066  -11.8356 C   0  0  0  0  0  0  0  0  0  0  0  0
   25.4267  -20.4383  -12.6173 C   0  0  2  0  0  0  0  0  0  0  0  0
   26.2368  -21.0923  -13.6734 N   0  0  0  0  0  0  0  0  0  0  0  0
   25.7700  -21.1866  -11.3930 C   0  0  0  0  0  0  0  0  0  0  0  0
   26.0851  -22.4197  -11.4724 O   0  0  0  0  0  0  0  0  0  0  0  0
   25.8022  -20.6925  -10.0788 N   0  0  0  0  0  0  0  0  0  0  0  0
   26.1236  -21.5035   -8.9669 C   0  0  1  0  0  0  0  0  0  0  0  0
   27.4899  -21.4268   -8.4309 C   0  0  0  0  0  0  0  0  0  0  0  0
   27.6302  -20.2686   -7.5197 C   0  0  0  0  0  0  0  0  0  0  0  0
   27.0280  -19.0337   -7.6733 C   0  0  0  0  0  0  0  0  0  0  0  0
   27.3529  -18.1905   -6.7028 N   0  0  0  0  0  0  0  0  0  0  0  0
   28.1849  -18.8578   -5.8799 C   0  0  0  0  0  0  0  0  0  0  0  0
   28.8235  -18.4870   -4.7302 C   0  0  0  0  0  0  0  0  0  0  0  0
   29.6382  -19.3996   -4.0781 C   0  0  0  0  0  0  0  0  0  0  0  0
   29.8154  -20.6749   -4.5693 C   0  0  0  0  0  0  0  0  0  0  0  0
   29.1699  -21.0688   -5.7426 C   0  0  0  0  0  0  0  0  0  0  0  0
   28.3762  -20.1564   -6.3641 C   0  0  0  0  0  0  0  0  0  0  0  0
   25.1420  -21.2337   -7.8921 C   0  0  0  0  0  0  0  0  0  0  0  0
   24.1918  -20.2239   -7.9163 O   0  0  0  0  0  0  0  0  0  0  0  0
   25.1448  -21.9544   -6.8686 O   0  0  0  0  0  0  0  0  0  0  0  0
  2  1  1  1
  3  2  1  0
  4 11  1  0
  4  2  1  0
  5  4  2  0
  6  7  1  0
  7  8  1  0
  8  9  1  1
 10 11  1  6
 10  8  1  0
 12 10  1  0
 13 12  2  0
 14 12  1  0
 15 16  1  1
 15 14  1  0
 17 16  1  0
 18 17  2  0
 19 18  1  0
 20 19  1  0
 20 25  2  0
 21 20  1  0
 22 21  2  0
 22 23  1  0
 23 24  2  0
 24 25  1  0
 25 17  1  0
 26 15  1  0
 27 26  1  0
 28 26  2  0
M  END
$$$$
