AIW.pdb
     RDKit          3D

 28 29  0  0  1  0  0  0  0  0999 V2000
   25.7424  -16.0561  -14.4869 C   0  0  0  0  0  0  0  0  0  0  0  0
   26.8645  -16.5940  -15.3487 C   0  0  2  0  0  0  0  0  0  0  0  0
   27.0678  -15.8256  -16.5388 N   0  0  0  0  0  0  0  0  0  0  0  0
   26.5435  -18.0219  -15.6466 C   0  0  0  0  0  0  0  0  0  0  0  0
   25.6063  -18.3008  -16.4387 O   0  0  0  0  0  0  0  0  0  0  0  0
   30.2416  -21.2240  -17.2973 C   0  0  0  0  0  0  0  0  0  0  0  0
   28.8761  -20.6726  -17.0382 C   0  0  0  0  0  0  0  0  0  0  0  0
   28.2483  -21.1927  -15.7551 C   0  0  2  0  0  0  0  0  0  0  0  0
   28.0419  -22.6750  -15.8332 C   0  0  0  0  0  0  0  0  0  0  0  0
   26.9568  -20.4833  -15.4938 C   0  0  2  0  0  0  0  0  0  0  0  0
   27.2539  -19.0931  -15.0717 N   0  0  0  0  0  0  0  0  0  0  0  0
   26.1729  -21.0344  -14.3719 C   0  0  0  0  0  0  0  0  0  0  0  0
   25.3095  -21.9469  -14.5912 O   0  0  0  0  0  0  0  0  0  0  0  0
   26.2591  -20.6703  -13.0183 N   0  0  0  0  0  0  0  0  0  0  0  0
   25.5625  -21.3568  -11.9981 C   0  0  1  0  0  0  0  0  0  0  0  0
   26.3353  -21.8541  -10.8512 C   0  0  0  0  0  0  0  0  0  0  0  0
   26.3798  -20.8420   -9.7719 C   0  0  0  0  0  0  0  0  0  0  0  0
   25.3851  -19.9313   -9.4676 C   0  0  0  0  0  0  0  0  0  0  0  0
   25.7173  -19.1418   -8.4554 N   0  0  0  0  0  0  0  0  0  0  0  0
   26.9509  -19.5183   -8.0663 C   0  0  0  0  0  0  0  0  0  0  0  0
   27.7777  -19.0579   -7.0807 C   0  0  0  0  0  0  0  0  0  0  0  0
   29.0202  -19.6464   -6.9029 C   0  0  0  0  0  0  0  0  0  0  0  0
   29.4363  -20.6882   -7.7033 C   0  0  0  0  0  0  0  0  0  0  0  0
   28.6031  -21.1698   -8.7144 C   0  0  0  0  0  0  0  0  0  0  0  0
   27.3895  -20.5766   -8.8694 C   0  0  0  0  0  0  0  0  0  0  0  0
   24.4547  -20.4951  -11.5270 C   0  0  0  0  0  0  0  0  0  0  0  0
   23.3415  -20.9392  -10.8294 O   0  0  0  0  0  0  0  0  0  0  0  0
   24.4958  -19.2662  -11.7617 O   0  0  0  0  0  0  0  0  0  0  0  0
  2  1  1  6
  3  2  1  0
  4 11  1  0
  4  2  1  0
  5  4  2  0
  6  7  1  0
  7  8  1  0
  8  9  1  6
 10 11  1  1
 10  8  1  0
 12 10  1  0
 13 12  2  0
 14 12  1  0
 15 16  1  1
 15 14  1  0
 17 16  1  0
 18 17  2  0
 19 18  1  0
 20 19  1  0
 20 25  2  0
 21 20  1  0
 22 21  2  0
 22 23  1  0
 23 24  2  0
 24 25  1  0
 25 17  1  0
 26 15  1  0
 27 26  1  0
 28 26  2  0
M  END
$$$$
