AIW.pdb
     RDKit          3D

 28 29  0  0  1  0  0  0  0  0999 V2000
   26.2936  -15.3794  -13.5041 C   0  0  0  0  0  0  0  0  0  0  0  0
   26.9871  -16.4398  -14.3321 C   0  0  2  0  0  0  0  0  0  0  0  0
   26.8602  -16.2161  -15.7399 N   0  0  0  0  0  0  0  0  0  0  0  0
   26.4233  -17.7592  -13.9172 C   0  0  0  0  0  0  0  0  0  0  0  0
   25.3016  -18.1261  -14.3541 O   0  0  0  0  0  0  0  0  0  0  0  0
   28.6039  -21.7645  -15.5891 C   0  0  0  0  0  0  0  0  0  0  0  0
   27.6944  -20.7811  -14.9245 C   0  0  0  0  0  0  0  0  0  0  0  0
   27.5972  -20.9702  -13.4192 C   0  0  2  0  0  0  0  0  0  0  0  0
   27.2343  -22.3862  -13.0888 C   0  0  0  0  0  0  0  0  0  0  0  0
   26.5999  -20.0123  -12.8471 C   0  0  2  0  0  0  0  0  0  0  0  0
   27.1007  -18.6302  -13.0424 N   0  0  0  0  0  0  0  0  0  0  0  0
   26.4170  -20.1199  -11.3870 C   0  0  0  0  0  0  0  0  0  0  0  0
   27.4314  -20.2892  -10.6330 O   0  0  0  0  0  0  0  0  0  0  0  0
   25.2071  -20.0524  -10.6772 N   0  0  0  0  0  0  0  0  0  0  0  0
   25.0241  -20.6742   -9.4213 C   0  0  1  0  0  0  0  0  0  0  0  0
   24.9040  -19.8120   -8.2372 C   0  0  0  0  0  0  0  0  0  0  0  0
   26.2346  -19.3289   -7.8045 C   0  0  0  0  0  0  0  0  0  0  0  0
   26.9161  -18.2442   -8.3244 C   0  0  0  0  0  0  0  0  0  0  0  0
   28.0941  -18.0634   -7.7430 N   0  0  0  0  0  0  0  0  0  0  0  0
   28.2163  -19.0349   -6.8177 C   0  0  0  0  0  0  0  0  0  0  0  0
   29.2139  -19.3325   -5.9327 C   0  0  0  0  0  0  0  0  0  0  0  0
   29.0678  -20.4154   -5.0795 C   0  0  0  0  0  0  0  0  0  0  0  0
   27.9333  -21.1974   -5.1085 C   0  0  0  0  0  0  0  0  0  0  0  0
   26.9054  -20.9061   -6.0069 C   0  0  0  0  0  0  0  0  0  0  0  0
   27.0718  -19.8394   -6.8333 C   0  0  0  0  0  0  0  0  0  0  0  0
   23.8536  -21.5759   -9.5121 C   0  0  0  0  0  0  0  0  0  0  0  0
   23.3668  -22.3563   -8.4741 O   0  0  0  0  0  0  0  0  0  0  0  0
   23.2343  -21.6639  -10.5964 O   0  0  0  0  0  0  0  0  0  0  0  0
  2  1  1  1
  3  2  1  0
  4 11  1  0
  4  2  1  0
  5  4  2  0
  6  7  1  0
  7  8  1  0
  8  9  1  6
 10 11  1  1
 10  8  1  0
 12 10  1  0
 13 12  2  0
 14 12  1  0
 15 16  1  1
 15 14  1  0
 17 16  1  0
 18 17  2  0
 19 18  1  0
 20 19  1  0
 20 25  2  0
 21 20  1  0
 22 21  2  0
 22 23  1  0
 23 24  2  0
 24 25  1  0
 25 17  1  0
 26 15  1  0
 27 26  1  0
 28 26  2  0
M  END
$$$$
