TPT.pdb
     RDKit          3D

 22 22  0  0  1  0  0  0  0  0999 V2000
   19.3733  -12.3832  -19.0548 C   0  0  0  0  0  0  0  0  0  0  0  0
   19.6533  -11.2467  -18.1184 C   0  0  1  0  0  0  0  0  0  0  0  0
   18.6619  -10.2645  -18.2601 O   0  0  0  0  0  0  0  0  0  0  0  0
   19.5465  -11.6900  -16.6499 C   0  0  2  0  0  0  0  0  0  0  0  0
   18.1588  -12.0904  -16.3936 N   0  0  0  0  0  0  0  0  0  0  0  0
   19.8949  -10.5060  -15.8427 C   0  0  0  0  0  0  0  0  0  0  0  0
   19.1421   -9.5059  -15.9217 O   0  0  0  0  0  0  0  0  0  0  0  0
   21.0192  -10.4475  -14.9971 N   0  0  0  0  0  0  0  0  0  0  0  0
   21.8445  -11.5905  -14.6617 C   0  0  0  0  0  0  0  0  0  0  0  0
   23.2290  -10.9843  -14.9311 C   0  0  0  0  0  0  0  0  0  0  0  0
   23.0586   -9.7043  -14.0957 C   0  0  0  0  0  0  0  0  0  0  0  0
   21.5897   -9.3215  -14.3113 C   0  0  1  0  0  0  0  0  0  0  0  0
   21.6115   -8.0684  -15.0739 C   0  0  0  0  0  0  0  0  0  0  0  0
   21.8942   -7.8991  -16.2621 O   0  0  0  0  0  0  0  0  0  0  0  0
   18.9209   -5.7243  -15.6012 C   0  0  0  0  0  0  0  0  0  0  0  0
   19.9551   -4.9482  -14.7973 C   0  0  1  0  0  0  0  0  0  0  0  0
   19.5204   -4.9396  -13.4873 O   0  0  0  0  0  0  0  0  0  0  0  0
   21.3412   -5.5669  -14.9235 C   0  0  2  0  0  0  0  0  0  0  0  0
   21.2562   -6.8832  -14.3373 N   0  0  0  0  0  0  0  0  0  0  0  0
   22.3800   -4.7330  -14.3336 C   0  0  0  0  0  0  0  0  0  0  0  0
   22.7755   -3.5558  -14.9401 O   0  0  0  0  0  0  0  0  0  0  0  0
   22.9375   -5.0642  -13.2641 O   0  0  0  0  0  0  0  0  0  0  0  0
  2  3  1  0
  2  1  1  6
  4  5  1  1
  4  2  1  0
  6  4  1  0
  7  6  2  0
  8  6  1  0
  9 10  1  0
  9  8  1  0
 10 11  1  0
 12 11  1  0
 12  8  1  0
 12 13  1  6
 13 19  1  0
 13 14  2  0
 16 15  1  6
 16 17  1  0
 16 18  1  0
 18 20  1  0
 18 19  1  1
 20 22  2  0
 20 21  1  0
M  END
$$$$
