TPT.pdb
     RDKit          3D

 22 22  0  0  1  0  0  0  0  0999 V2000
   17.5740   -7.1562  -16.0370 C   0  0  0  0  0  0  0  0  0  0  0  0
   17.7534   -8.6444  -16.0356 C   0  0  1  0  0  0  0  0  0  0  0  0
   17.8263   -9.1113  -17.3563 O   0  0  0  0  0  0  0  0  0  0  0  0
   19.1001   -9.0468  -15.4119 C   0  0  2  0  0  0  0  0  0  0  0  0
   19.2861  -10.4872  -15.6174 N   0  0  0  0  0  0  0  0  0  0  0  0
   18.9866   -8.7455  -13.9728 C   0  0  0  0  0  0  0  0  0  0  0  0
   17.9462   -9.1195  -13.3804 O   0  0  0  0  0  0  0  0  0  0  0  0
   19.9802   -8.0666  -13.2419 N   0  0  0  0  0  0  0  0  0  0  0  0
   21.3367   -7.8629  -13.7093 C   0  0  0  0  0  0  0  0  0  0  0  0
   21.4741   -6.3606  -13.4249 C   0  0  0  0  0  0  0  0  0  0  0  0
   21.0069   -6.3855  -11.9599 C   0  0  0  0  0  0  0  0  0  0  0  0
   19.9008   -7.4471  -11.9483 C   0  0  1  0  0  0  0  0  0  0  0  0
   18.6547   -6.7223  -11.6759 C   0  0  0  0  0  0  0  0  0  0  0  0
   18.1518   -5.7954  -12.3149 O   0  0  0  0  0  0  0  0  0  0  0  0
   15.3017   -8.1774  -11.3110 C   0  0  0  0  0  0  0  0  0  0  0  0
   15.6543   -7.5782   -9.9565 C   0  0  1  0  0  0  0  0  0  0  0  0
   16.0868   -8.6180   -9.1585 O   0  0  0  0  0  0  0  0  0  0  0  0
   16.7141   -6.4917  -10.0840 C   0  0  2  0  0  0  0  0  0  0  0  0
   17.9255   -7.1505  -10.5103 N   0  0  0  0  0  0  0  0  0  0  0  0
   16.8716   -5.7196   -8.8586 C   0  0  0  0  0  0  0  0  0  0  0  0
   17.9842   -5.8818   -8.0549 O   0  0  0  0  0  0  0  0  0  0  0  0
   16.0025   -4.8920   -8.5063 O   0  0  0  0  0  0  0  0  0  0  0  0
  2  3  1  0
  2  1  1  6
  4  5  1  1
  4  2  1  0
  6  4  1  0
  7  6  2  0
  8  6  1  0
  9 10  1  0
  9  8  1  0
 10 11  1  0
 12 11  1  0
 12  8  1  0
 12 13  1  6
 13 19  1  0
 13 14  2  0
 16 15  1  6
 16 17  1  0
 16 18  1  0
 18 20  1  0
 18 19  1  1
 20 22  2  0
 20 21  1  0
M  END
$$$$
