TPT.pdb
     RDKit          3D

 22 22  0  0  1  0  0  0  0  0999 V2000
   17.3464   -8.9731  -18.0691 C   0  0  0  0  0  0  0  0  0  0  0  0
   17.4032  -10.3196  -17.4128 C   0  0  1  0  0  0  0  0  0  0  0  0
   16.5018  -11.1895  -18.0439 O   0  0  0  0  0  0  0  0  0  0  0  0
   18.7768  -10.9823  -17.6093 C   0  0  2  0  0  0  0  0  0  0  0  0
   18.7012  -12.3521  -17.0902 N   0  0  0  0  0  0  0  0  0  0  0  0
   19.7289  -10.1853  -16.8136 C   0  0  0  0  0  0  0  0  0  0  0  0
   19.4223   -9.9295  -15.6247 O   0  0  0  0  0  0  0  0  0  0  0  0
   20.9515   -9.7051  -17.3205 N   0  0  0  0  0  0  0  0  0  0  0  0
   21.5570  -10.1651  -18.5542 C   0  0  0  0  0  0  0  0  0  0  0  0
   21.8730   -8.8073  -19.1969 C   0  0  0  0  0  0  0  0  0  0  0  0
   22.6049   -8.1787  -17.9992 C   0  0  0  0  0  0  0  0  0  0  0  0
   21.8355   -8.7082  -16.7833 C   0  0  1  0  0  0  0  0  0  0  0  0
   21.1758   -7.5405  -16.1888 C   0  0  0  0  0  0  0  0  0  0  0  0
   20.1762   -6.9391  -16.5879 O   0  0  0  0  0  0  0  0  0  0  0  0
   21.4285   -7.4854  -12.2570 C   0  0  0  0  0  0  0  0  0  0  0  0
   20.4876   -6.5776  -13.0372 C   0  0  1  0  0  0  0  0  0  0  0  0
   20.0305   -5.6203  -12.1543 O   0  0  0  0  0  0  0  0  0  0  0  0
   21.1845   -5.9471  -14.2358 C   0  0  2  0  0  0  0  0  0  0  0  0
   21.7754   -7.0319  -14.9823 N   0  0  0  0  0  0  0  0  0  0  0  0
   22.1408   -4.9188  -13.8476 C   0  0  0  0  0  0  0  0  0  0  0  0
   21.7287   -3.6233  -13.5985 O   0  0  0  0  0  0  0  0  0  0  0  0
   23.3571   -5.1859  -13.7311 O   0  0  0  0  0  0  0  0  0  0  0  0
  2  3  1  0
  2  1  1  6
  4  5  1  1
  4  2  1  0
  6  4  1  0
  7  6  2  0
  8  6  1  0
  9 10  1  0
  9  8  1  0
 10 11  1  0
 12 11  1  0
 12  8  1  0
 12 13  1  6
 13 19  1  0
 13 14  2  0
 16 15  1  1
 16 17  1  0
 16 18  1  0
 18 20  1  0
 18 19  1  1
 20 22  2  0
 20 21  1  0
M  END
$$$$
