TPT.pdb
     RDKit          3D

 22 22  0  0  1  0  0  0  0  0999 V2000
   43.6343  -12.3705  -11.4866 C   0  0  0  0  0  0  0  0  0  0  0  0
   43.1137  -11.6327  -10.2902 C   0  0  1  0  0  0  0  0  0  0  0  0
   42.1316  -10.7157  -10.6930 O   0  0  0  0  0  0  0  0  0  0  0  0
   42.3821  -12.5776   -9.3225 C   0  0  2  0  0  0  0  0  0  0  0  0
   41.6660  -11.7585   -8.3387 N   0  0  0  0  0  0  0  0  0  0  0  0
   43.4330  -13.3719   -8.6595 C   0  0  0  0  0  0  0  0  0  0  0  0
   44.3546  -12.7491   -8.0800 O   0  0  0  0  0  0  0  0  0  0  0  0
   43.4487  -14.7797   -8.6463 N   0  0  0  0  0  0  0  0  0  0  0  0
   42.3474  -15.6092   -9.0925 C   0  0  0  0  0  0  0  0  0  0  0  0
   43.1184  -16.5782   -9.9999 C   0  0  0  0  0  0  0  0  0  0  0  0
   44.2118  -16.9754   -8.9939 C   0  0  0  0  0  0  0  0  0  0  0  0
   44.4867  -15.6784   -8.2237 C   0  0  1  0  0  0  0  0  0  0  0  0
   45.8498  -15.2780   -8.5897 C   0  0  0  0  0  0  0  0  0  0  0  0
   46.2519  -14.8174   -9.6604 O   0  0  0  0  0  0  0  0  0  0  0  0
   47.8024  -12.8679   -6.8412 C   0  0  0  0  0  0  0  0  0  0  0  0
   48.6505  -14.1292   -6.7515 C   0  0  1  0  0  0  0  0  0  0  0  0
   48.4999  -14.6233   -5.4715 O   0  0  0  0  0  0  0  0  0  0  0  0
   48.2402  -15.1551   -7.7999 C   0  0  2  0  0  0  0  0  0  0  0  0
   46.8463  -15.4457   -7.5637 N   0  0  0  0  0  0  0  0  0  0  0  0
   49.0916  -16.3372   -7.7866 C   0  0  0  0  0  0  0  0  0  0  0  0
   50.3874  -16.2848   -8.2645 O   0  0  0  0  0  0  0  0  0  0  0  0
   48.6684  -17.4270   -7.3420 O   0  0  0  0  0  0  0  0  0  0  0  0
  2  3  1  0
  2  1  1  6
  4  5  1  1
  4  2  1  0
  6  4  1  0
  7  6  2  0
  8  6  1  0
  9 10  1  0
  9  8  1  0
 10 11  1  0
 12 11  1  0
 12  8  1  0
 12 13  1  6
 13 19  1  0
 13 14  2  0
 16 15  1  1
 16 17  1  0
 16 18  1  0
 18 20  1  0
 18 19  1  1
 20 22  2  0
 20 21  1  0
M  END
$$$$
