TPT.pdb
     RDKit          3D

 22 22  0  0  1  0  0  0  0  0999 V2000
   21.8963  -12.9872  -19.2581 C   0  0  0  0  0  0  0  0  0  0  0  0
   21.2117  -14.1482  -18.6021 C   0  0  1  0  0  0  0  0  0  0  0  0
   21.3927  -15.3021  -19.3790 O   0  0  0  0  0  0  0  0  0  0  0  0
   21.8591  -14.4909  -17.2501 C   0  0  2  0  0  0  0  0  0  0  0  0
   21.2566  -15.7343  -16.7576 N   0  0  0  0  0  0  0  0  0  0  0  0
   21.5314  -13.3710  -16.3483 C   0  0  0  0  0  0  0  0  0  0  0  0
   20.4076  -12.8295  -16.4777 O   0  0  0  0  0  0  0  0  0  0  0  0
   22.4108  -12.8883  -15.3602 N   0  0  0  0  0  0  0  0  0  0  0  0
   23.6011  -13.5876  -14.9195 C   0  0  0  0  0  0  0  0  0  0  0  0
   24.6109  -12.4341  -15.0009 C   0  0  0  0  0  0  0  0  0  0  0  0
   23.8073  -11.4006  -14.1939 C   0  0  0  0  0  0  0  0  0  0  0  0
   22.3542  -11.6690  -14.6029 C   0  0  1  0  0  0  0  0  0  0  0  0
   21.9255  -10.4839  -15.3540 C   0  0  0  0  0  0  0  0  0  0  0  0
   22.2336  -10.1501  -16.5002 O   0  0  0  0  0  0  0  0  0  0  0  0
   18.4714   -6.9656  -15.4284 C   0  0  0  0  0  0  0  0  0  0  0  0
   19.0926   -8.2307  -14.8525 C   0  0  1  0  0  0  0  0  0  0  0  0
   18.3351   -9.2916  -15.3062 O   0  0  0  0  0  0  0  0  0  0  0  0
   20.5538   -8.3714  -15.2588 C   0  0  2  0  0  0  0  0  0  0  0  0
   21.0281   -9.5964  -14.6606 N   0  0  0  0  0  0  0  0  0  0  0  0
   21.3473   -7.2033  -14.9004 C   0  0  0  0  0  0  0  0  0  0  0  0
   21.6987   -6.2643  -15.8517 O   0  0  0  0  0  0  0  0  0  0  0  0
   21.7286   -7.0241  -13.7228 O   0  0  0  0  0  0  0  0  0  0  0  0
  2  3  1  0
  2  1  1  6
  4  5  1  1
  4  2  1  0
  6  4  1  0
  7  6  2  0
  8  6  1  0
  9 10  1  0
  9  8  1  0
 10 11  1  0
 12 11  1  0
 12  8  1  0
 12 13  1  6
 13 19  1  0
 13 14  2  0
 16 15  1  6
 16 17  1  0
 16 18  1  0
 18 20  1  0
 18 19  1  1
 20 22  2  0
 20 21  1  0
M  END
$$$$
