TPT.pdb
     RDKit          3D

 22 22  0  0  1  0  0  0  0  0999 V2000
   27.6346  -22.4090  -15.8659 C   0  0  0  0  0  0  0  0  0  0  0  0
   26.3019  -22.1037  -15.2515 C   0  0  1  0  0  0  0  0  0  0  0  0
   25.3096  -22.1279  -16.2427 O   0  0  0  0  0  0  0  0  0  0  0  0
   25.8780  -23.1980  -14.2579 C   0  0  2  0  0  0  0  0  0  0  0  0
   25.6291  -24.4298  -15.0143 N   0  0  0  0  0  0  0  0  0  0  0  0
   24.6300  -22.7187  -13.6352 C   0  0  0  0  0  0  0  0  0  0  0  0
   23.5640  -22.8680  -14.2790 O   0  0  0  0  0  0  0  0  0  0  0  0
   24.5804  -22.1097  -12.3668 N   0  0  0  0  0  0  0  0  0  0  0  0
   25.6793  -22.1087  -11.4220 C   0  0  0  0  0  0  0  0  0  0  0  0
   25.6958  -20.6163  -11.0624 C   0  0  0  0  0  0  0  0  0  0  0  0
   24.2022  -20.4697  -10.7263 C   0  0  0  0  0  0  0  0  0  0  0  0
   23.5088  -21.3856  -11.7416 C   0  0  1  0  0  0  0  0  0  0  0  0
   22.7514  -20.4965  -12.6293 C   0  0  0  0  0  0  0  0  0  0  0  0
   23.1266  -19.4557  -13.1735 O   0  0  0  0  0  0  0  0  0  0  0  0
   19.9417  -22.4857  -14.7945 C   0  0  0  0  0  0  0  0  0  0  0  0
   20.5670  -21.1348  -15.1140 C   0  0  1  0  0  0  0  0  0  0  0  0
   19.8305  -20.5857  -16.1440 O   0  0  0  0  0  0  0  0  0  0  0  0
   20.5874  -20.2248  -13.8927 C   0  0  2  0  0  0  0  0  0  0  0  0
   21.3934  -20.8925  -12.8989 N   0  0  0  0  0  0  0  0  0  0  0  0
   19.2491  -19.8875  -13.4262 C   0  0  0  0  0  0  0  0  0  0  0  0
   18.4096  -19.0967  -14.1878 O   0  0  0  0  0  0  0  0  0  0  0  0
   18.8296  -20.3066  -12.3250 O   0  0  0  0  0  0  0  0  0  0  0  0
  2  3  1  0
  2  1  1  6
  4  5  1  6
  4  2  1  0
  6  4  1  0
  7  6  2  0
  8  6  1  0
  9 10  1  0
  9  8  1  0
 10 11  1  0
 12 11  1  0
 12  8  1  0
 12 13  1  6
 13 19  1  0
 13 14  2  0
 16 15  1  1
 16 17  1  0
 16 18  1  0
 18 20  1  0
 18 19  1  1
 20 22  2  0
 20 21  1  0
M  END
$$$$
