TPT.pdb
     RDKit          3D

 22 22  0  0  1  0  0  0  0  0999 V2000
   22.1079   -9.8238  -19.7106 C   0  0  0  0  0  0  0  0  0  0  0  0
   20.9118  -10.6856  -19.4392 C   0  0  1  0  0  0  0  0  0  0  0  0
   20.7816  -11.6441  -20.4551 O   0  0  0  0  0  0  0  0  0  0  0  0
   21.0944  -11.5109  -18.1546 C   0  0  2  0  0  0  0  0  0  0  0  0
   19.9891  -12.4712  -18.0681 N   0  0  0  0  0  0  0  0  0  0  0  0
   21.0238  -10.5474  -17.0403 C   0  0  0  0  0  0  0  0  0  0  0  0
   20.2275   -9.5850  -17.1530 O   0  0  0  0  0  0  0  0  0  0  0  0
   21.7988  -10.6573  -15.8700 N   0  0  0  0  0  0  0  0  0  0  0  0
   22.5456  -11.8421  -15.4978 C   0  0  0  0  0  0  0  0  0  0  0  0
   23.8950  -11.1902  -15.1644 C   0  0  0  0  0  0  0  0  0  0  0  0
   23.3684  -10.1051  -14.2101 C   0  0  0  0  0  0  0  0  0  0  0  0
   22.0299   -9.6909  -14.8326 C   0  0  1  0  0  0  0  0  0  0  0  0
   22.2137   -8.3098  -15.2921 C   0  0  0  0  0  0  0  0  0  0  0  0
   22.8672   -7.9032  -16.2554 O   0  0  0  0  0  0  0  0  0  0  0  0
   19.6401   -6.0418  -16.3555 C   0  0  0  0  0  0  0  0  0  0  0  0
   20.2262   -5.4092  -15.1008 C   0  0  1  0  0  0  0  0  0  0  0  0
   19.3799   -5.7283  -14.0582 O   0  0  0  0  0  0  0  0  0  0  0  0
   21.6455   -5.8963  -14.8393 C   0  0  2  0  0  0  0  0  0  0  0  0
   21.5431   -7.2992  -14.5159 N   0  0  0  0  0  0  0  0  0  0  0  0
   22.3251   -5.1114  -13.8172 C   0  0  0  0  0  0  0  0  0  0  0  0
   22.8213   -3.8531  -14.1009 O   0  0  0  0  0  0  0  0  0  0  0  0
   22.4747   -5.5594  -12.6590 O   0  0  0  0  0  0  0  0  0  0  0  0
  2  3  1  0
  2  1  1  6
  4  5  1  1
  4  2  1  0
  6  4  1  0
  7  6  2  0
  8  6  1  0
  9 10  1  0
  9  8  1  0
 10 11  1  0
 12 11  1  0
 12  8  1  0
 12 13  1  6
 13 19  1  0
 13 14  2  0
 16 15  1  6
 16 17  1  0
 16 18  1  0
 18 20  1  0
 18 19  1  1
 20 22  2  0
 20 21  1  0
M  END
$$$$
