TPT.pdb
     RDKit          3D

 22 22  0  0  1  0  0  0  0  0999 V2000
   27.3726  -36.6253   -5.8234 C   0  0  0  0  0  0  0  0  0  0  0  0
   27.2326  -35.9105   -4.5134 C   0  0  1  0  0  0  0  0  0  0  0  0
   27.7527  -36.7082   -3.4835 O   0  0  0  0  0  0  0  0  0  0  0  0
   28.0871  -34.6326   -4.4771 C   0  0  2  0  0  0  0  0  0  0  0  0
   29.4995  -35.0267   -4.5137 N   0  0  0  0  0  0  0  0  0  0  0  0
   27.7733  -33.9712   -3.1969 C   0  0  0  0  0  0  0  0  0  0  0  0
   28.4240  -34.3246   -2.1846 O   0  0  0  0  0  0  0  0  0  0  0  0
   26.7896  -32.9731   -3.0604 N   0  0  0  0  0  0  0  0  0  0  0  0
   26.0425  -32.4112   -4.1677 C   0  0  0  0  0  0  0  0  0  0  0  0
   24.6240  -32.5212   -3.5911 C   0  0  0  0  0  0  0  0  0  0  0  0
   24.8994  -31.8440   -2.2380 C   0  0  0  0  0  0  0  0  0  0  0  0
   26.3125  -32.3158   -1.8755 C   0  0  1  0  0  0  0  0  0  0  0  0
   26.1558  -33.1791   -0.6997 C   0  0  0  0  0  0  0  0  0  0  0  0
   25.8953  -34.3837   -0.6626 O   0  0  0  0  0  0  0  0  0  0  0  0
   26.8368  -33.0539    4.2507 C   0  0  0  0  0  0  0  0  0  0  0  0
   26.7847  -32.3508    2.9013 C   0  0  1  0  0  0  0  0  0  0  0  0
   28.0734  -31.9545    2.6057 O   0  0  0  0  0  0  0  0  0  0  0  0
   26.2157  -33.2589    1.8188 C   0  0  2  0  0  0  0  0  0  0  0  0
   26.3292  -32.5339    0.5759 N   0  0  0  0  0  0  0  0  0  0  0  0
   24.8583  -33.6972    2.1152 C   0  0  0  0  0  0  0  0  0  0  0  0
   24.6153  -34.9554    2.6330 O   0  0  0  0  0  0  0  0  0  0  0  0
   23.8818  -32.9438    1.9076 O   0  0  0  0  0  0  0  0  0  0  0  0
  2  3  1  0
  2  1  1  6
  4  5  1  1
  4  2  1  0
  6  4  1  0
  7  6  2  0
  8  6  1  0
  9 10  1  0
  9  8  1  0
 10 11  1  0
 12 11  1  0
 12  8  1  0
 12 13  1  1
 13 19  1  0
 13 14  2  0
 16 15  1  1
 16 17  1  0
 16 18  1  0
 18 20  1  0
 18 19  1  6
 20 22  2  0
 20 21  1  0
M  END
$$$$
