TPT.pdb
     RDKit          3D

 22 22  0  0  1  0  0  0  0  0999 V2000
   12.2598  -12.5581  -14.5043 C   0  0  0  0  0  0  0  0  0  0  0  0
   13.0645  -11.5987  -13.6803 C   0  0  1  0  0  0  0  0  0  0  0  0
   12.2341  -10.9778  -12.7355 O   0  0  0  0  0  0  0  0  0  0  0  0
   14.1219  -12.3318  -12.8383 C   0  0  2  0  0  0  0  0  0  0  0  0
   13.4283  -13.2764  -11.9560 N   0  0  0  0  0  0  0  0  0  0  0  0
   14.7992  -11.2912  -12.0426 C   0  0  0  0  0  0  0  0  0  0  0  0
   14.2130  -10.8691  -11.0172 O   0  0  0  0  0  0  0  0  0  0  0  0
   16.0584  -10.7568  -12.3761 N   0  0  0  0  0  0  0  0  0  0  0  0
   16.9215  -11.2934  -13.4093 C   0  0  0  0  0  0  0  0  0  0  0  0
   17.2559   -9.9929  -14.1533 C   0  0  0  0  0  0  0  0  0  0  0  0
   17.6964   -9.1661  -12.9336 C   0  0  0  0  0  0  0  0  0  0  0  0
   16.7480   -9.6259  -11.8202 C   0  0  1  0  0  0  0  0  0  0  0  0
   15.9035   -8.4667  -11.5111 C   0  0  0  0  0  0  0  0  0  0  0  0
   14.9086   -8.0604  -12.1156 O   0  0  0  0  0  0  0  0  0  0  0  0
   14.9819   -7.7589   -7.7619 C   0  0  0  0  0  0  0  0  0  0  0  0
   15.6385   -6.5356   -8.3868 C   0  0  1  0  0  0  0  0  0  0  0  0
   16.9540   -6.5295   -7.9693 O   0  0  0  0  0  0  0  0  0  0  0  0
   15.5332   -6.5588   -9.9062 C   0  0  2  0  0  0  0  0  0  0  0  0
   16.2883   -7.7058  -10.3507 N   0  0  0  0  0  0  0  0  0  0  0  0
   15.9639   -5.3070  -10.5143 C   0  0  0  0  0  0  0  0  0  0  0  0
   17.1331   -5.2392  -11.2483 O   0  0  0  0  0  0  0  0  0  0  0  0
   15.2847   -4.2647  -10.3856 O   0  0  0  0  0  0  0  0  0  0  0  0
  2  3  1  0
  2  1  1  1
  4  5  1  1
  4  2  1  0
  6  4  1  0
  7  6  2  0
  8  6  1  0
  9 10  1  0
  9  8  1  0
 10 11  1  0
 12 11  1  0
 12  8  1  0
 12 13  1  6
 13 19  1  0
 13 14  2  0
 16 15  1  1
 16 17  1  0
 16 18  1  0
 18 20  1  0
 18 19  1  6
 20 22  2  0
 20 21  1  0
M  END
$$$$
