TPT.pdb
     RDKit          3D

 22 22  0  0  1  0  0  0  0  0999 V2000
   40.2074   -8.2923  -11.3076 C   0  0  0  0  0  0  0  0  0  0  0  0
   39.9164   -6.9964  -10.6127 C   0  0  1  0  0  0  0  0  0  0  0  0
   39.2757   -6.1194  -11.5005 O   0  0  0  0  0  0  0  0  0  0  0  0
   38.9077   -7.1874   -9.4679 C   0  0  2  0  0  0  0  0  0  0  0  0
   38.4356   -5.8630   -9.0498 N   0  0  0  0  0  0  0  0  0  0  0  0
   39.6549   -7.8336   -8.3729 C   0  0  0  0  0  0  0  0  0  0  0  0
   40.6985   -7.2682   -7.9678 O   0  0  0  0  0  0  0  0  0  0  0  0
   39.2551   -9.0407   -7.7683 N   0  0  0  0  0  0  0  0  0  0  0  0
   37.9519   -9.6480   -7.9491 C   0  0  0  0  0  0  0  0  0  0  0  0
   38.3897  -11.0839   -8.2701 C   0  0  0  0  0  0  0  0  0  0  0  0
   39.3320  -11.2839   -7.0712 C   0  0  0  0  0  0  0  0  0  0  0  0
   39.9882   -9.9100   -6.8905 C   0  0  1  0  0  0  0  0  0  0  0  0
   41.4032  -10.0957   -7.2303 C   0  0  0  0  0  0  0  0  0  0  0  0
   41.9033  -10.3183   -8.3351 O   0  0  0  0  0  0  0  0  0  0  0  0
   43.9757   -7.6724   -6.5561 C   0  0  0  0  0  0  0  0  0  0  0  0
   44.4010   -8.9037   -5.7680 C   0  0  1  0  0  0  0  0  0  0  0  0
   44.0517   -8.6778   -4.4519 O   0  0  0  0  0  0  0  0  0  0  0  0
   43.7491  -10.1686   -6.3113 C   0  0  2  0  0  0  0  0  0  0  0  0
   42.3266  -10.0059   -6.1290 N   0  0  0  0  0  0  0  0  0  0  0  0
   44.2802  -11.3780   -5.6967 C   0  0  0  0  0  0  0  0  0  0  0  0
   45.5003  -11.8965   -6.0876 O   0  0  0  0  0  0  0  0  0  0  0  0
   43.6433  -11.9745   -4.8007 O   0  0  0  0  0  0  0  0  0  0  0  0
  2  3  1  0
  2  1  1  6
  4  5  1  1
  4  2  1  0
  6  4  1  0
  7  6  2  0
  8  6  1  0
  9 10  1  0
  9  8  1  0
 10 11  1  0
 12 11  1  0
 12  8  1  0
 12 13  1  6
 13 19  1  0
 13 14  2  0
 16 15  1  6
 16 17  1  0
 16 18  1  0
 18 20  1  0
 18 19  1  1
 20 22  2  0
 20 21  1  0
M  END
$$$$
