ANV.pdb
     RDKit          3D

 21 20  0  0  1  0  0  0  0  0999 V2000
   15.3758  -11.2722  -14.3780 C   0  0  0  0  0  0  0  0  0  0  0  0
   16.3420  -10.1077  -14.2230 C   0  0  2  0  0  0  0  0  0  0  0  0
   17.6200  -10.5726  -13.7655 N   0  0  0  0  0  0  0  0  0  0  0  0
   15.7356   -9.1747  -13.2213 C   0  0  0  0  0  0  0  0  0  0  0  0
   14.6205   -8.6402  -13.4034 O   0  0  0  0  0  0  0  0  0  0  0  0
   16.1774   -6.8531   -7.7714 N   0  0  0  0  0  0  0  0  0  0  0  0
   15.3649   -7.5243   -8.7458 C   0  0  0  0  0  0  0  0  0  0  0  0
   14.1556   -7.2614   -8.7414 O   0  0  0  0  0  0  0  0  0  0  0  0
   15.9721   -8.4710   -9.6872 C   0  0  0  0  0  0  0  0  0  0  0  0
   15.9849   -7.9194  -11.0865 C   0  0  2  0  0  0  0  0  0  0  0  0
   16.4518   -8.8915  -12.0308 N   0  0  0  0  0  0  0  0  0  0  0  0
   16.8138   -6.6720  -11.1563 C   0  0  0  0  0  0  0  0  0  0  0  0
   18.0644   -6.6845  -11.0942 O   0  0  0  0  0  0  0  0  0  0  0  0
   16.8823   -4.1516  -13.8411 C   0  0  0  0  0  0  0  0  0  0  0  0
   16.3618   -3.4582  -12.6209 C   0  0  1  0  0  0  0  0  0  0  0  0
   14.8752   -3.2362  -12.6365 C   0  0  0  0  0  0  0  0  0  0  0  0
   16.8009   -4.1495  -11.3285 C   0  0  2  0  0  0  0  0  0  0  0  0
   16.1409   -5.4444  -11.2975 N   0  0  0  0  0  0  0  0  0  0  0  0
   16.4044   -3.3410  -10.1516 C   0  0  0  0  0  0  0  0  0  0  0  0
   15.3817   -3.6174   -9.4805 O   0  0  0  0  0  0  0  0  0  0  0  0
   17.1802   -2.2554   -9.7836 O   0  0  0  0  0  0  0  0  0  0  0  0
  2  1  1  1
  2  3  1  0
  4  2  1  0
  4 11  1  0
  5  4  2  0
  7  8  2  0
  7  6  1  0
 10  9  1  1
  9  7  1  0
 10 11  1  0
 10 12  1  0
 12 18  1  0
 12 13  2  0
 15 14  1  6
 15 17  1  0
 16 15  1  0
 17 19  1  0
 17 18  1  1
 19 21  1  0
 20 19  2  0
M  END
$$$$
