ANV.pdb
     RDKit          3D

 21 20  0  0  1  0  0  0  0  0999 V2000
   17.7896  -14.3596  -18.3003 C   0  0  0  0  0  0  0  0  0  0  0  0
   17.5263  -12.8618  -18.2703 C   0  0  2  0  0  0  0  0  0  0  0  0
   17.3697  -12.3523  -19.6024 N   0  0  0  0  0  0  0  0  0  0  0  0
   18.7085  -12.2294  -17.6040 C   0  0  0  0  0  0  0  0  0  0  0  0
   19.0240  -12.4934  -16.4237 O   0  0  0  0  0  0  0  0  0  0  0  0
   22.9128   -9.5470  -16.7194 N   0  0  0  0  0  0  0  0  0  0  0  0
   22.8192   -9.6455  -18.1482 C   0  0  0  0  0  0  0  0  0  0  0  0
   23.7578   -9.1748  -18.8033 O   0  0  0  0  0  0  0  0  0  0  0  0
   21.6520  -10.2802  -18.7694 C   0  0  0  0  0  0  0  0  0  0  0  0
   20.6064  -10.6251  -17.7446 C   0  0  2  0  0  0  0  0  0  0  0  0
   19.4916  -11.3031  -18.3382 N   0  0  0  0  0  0  0  0  0  0  0  0
   20.1525   -9.3954  -17.0168 C   0  0  0  0  0  0  0  0  0  0  0  0
   19.5387   -8.4612  -17.5811 O   0  0  0  0  0  0  0  0  0  0  0  0
   20.7887   -9.6148  -12.8542 C   0  0  0  0  0  0  0  0  0  0  0  0
   19.6507   -8.8298  -13.4279 C   0  0  1  0  0  0  0  0  0  0  0  0
   19.0952   -7.7932  -12.4916 C   0  0  0  0  0  0  0  0  0  0  0  0
   19.9953   -8.2155  -14.7861 C   0  0  2  0  0  0  0  0  0  0  0  0
   20.4369   -9.3045  -15.6418 N   0  0  0  0  0  0  0  0  0  0  0  0
   21.0718   -7.2080  -14.6375 C   0  0  0  0  0  0  0  0  0  0  0  0
   22.2681   -7.4840  -14.8934 O   0  0  0  0  0  0  0  0  0  0  0  0
   20.7507   -5.9326  -14.2063 O   0  0  0  0  0  0  0  0  0  0  0  0
  2  1  1  6
  2  3  1  0
  4  2  1  0
  4 11  1  0
  5  4  2  0
  7  8  2  0
  7  6  1  0
 10  9  1  6
  9  7  1  0
 10 11  1  0
 10 12  1  0
 12 18  1  0
 12 13  2  0
 15 14  1  1
 15 17  1  0
 16 15  1  0
 17 19  1  0
 17 18  1  6
 19 21  1  0
 20 19  2  0
M  END
$$$$
