ANV.pdb
     RDKit          3D

 21 20  0  0  1  0  0  0  0  0999 V2000
   43.7858   -7.1371   -9.0091 C   0  0  0  0  0  0  0  0  0  0  0  0
   42.3775   -7.7092   -9.0638 C   0  0  2  0  0  0  0  0  0  0  0  0
   41.5370   -7.0689   -8.0930 N   0  0  0  0  0  0  0  0  0  0  0  0
   42.4948   -9.1726   -8.7700 C   0  0  0  0  0  0  0  0  0  0  0  0
   42.1350   -9.6603   -7.6769 O   0  0  0  0  0  0  0  0  0  0  0  0
   42.6290  -14.6519  -11.2527 N   0  0  0  0  0  0  0  0  0  0  0  0
   42.5073  -13.6866  -10.1975 C   0  0  0  0  0  0  0  0  0  0  0  0
   42.4826  -14.1243   -9.0401 O   0  0  0  0  0  0  0  0  0  0  0  0
   42.4188  -12.2568  -10.5118 C   0  0  0  0  0  0  0  0  0  0  0  0
   43.2091  -11.4314   -9.5337 C   0  0  2  0  0  0  0  0  0  0  0  0
   43.0313  -10.0280   -9.7655 N   0  0  0  0  0  0  0  0  0  0  0  0
   44.6622  -11.7971   -9.5850 C   0  0  0  0  0  0  0  0  0  0  0  0
   45.4147  -11.4552  -10.5256 O   0  0  0  0  0  0  0  0  0  0  0  0
   46.5557  -12.1279   -6.0631 C   0  0  0  0  0  0  0  0  0  0  0  0
   46.8397  -13.2967   -6.9539 C   0  0  1  0  0  0  0  0  0  0  0  0
   46.1433  -14.5617   -6.5363 C   0  0  0  0  0  0  0  0  0  0  0  0
   46.5720  -12.9825   -8.4272 C   0  0  2  0  0  0  0  0  0  0  0  0
   45.1852  -12.5569   -8.5225 N   0  0  0  0  0  0  0  0  0  0  0  0
   46.7997  -14.1867   -9.2603 C   0  0  0  0  0  0  0  0  0  0  0  0
   45.8583  -14.9523   -9.5775 O   0  0  0  0  0  0  0  0  0  0  0  0
   48.0805  -14.4741   -9.6991 O   0  0  0  0  0  0  0  0  0  0  0  0
  2  1  1  1
  2  3  1  0
  4  2  1  0
  4 11  1  0
  5  4  2  0
  7  8  2  0
  7  6  1  0
 10  9  1  6
  9  7  1  0
 10 11  1  0
 10 12  1  0
 12 18  1  0
 12 13  2  0
 15 14  1  1
 15 17  1  0
 16 15  1  0
 17 19  1  0
 17 18  1  1
 19 21  1  0
 20 19  2  0
M  END
$$$$
