ANV.pdb
     RDKit          3D

 21 20  0  0  1  0  0  0  0  0999 V2000
   17.0239  -14.7151  -15.9677 C   0  0  0  0  0  0  0  0  0  0  0  0
   16.4462  -13.4453  -16.5741 C   0  0  2  0  0  0  0  0  0  0  0  0
   16.2628  -13.6023  -17.9884 N   0  0  0  0  0  0  0  0  0  0  0  0
   17.4257  -12.3486  -16.2923 C   0  0  0  0  0  0  0  0  0  0  0  0
   17.7930  -12.0702  -15.1305 O   0  0  0  0  0  0  0  0  0  0  0  0
   20.7032  -12.1586  -15.9486 N   0  0  0  0  0  0  0  0  0  0  0  0
   21.0571  -11.6451  -17.2413 C   0  0  0  0  0  0  0  0  0  0  0  0
   22.1466  -12.0041  -17.7059 O   0  0  0  0  0  0  0  0  0  0  0  0
   20.1469  -10.7397  -17.9502 C   0  0  0  0  0  0  0  0  0  0  0  0
   18.8738  -10.5279  -17.1776 C   0  0  2  0  0  0  0  0  0  0  0  0
   17.9503  -11.6054  -17.3799 N   0  0  0  0  0  0  0  0  0  0  0  0
   18.2457   -9.2161  -17.5415 C   0  0  0  0  0  0  0  0  0  0  0  0
   17.8999   -8.9309  -18.7107 O   0  0  0  0  0  0  0  0  0  0  0  0
   15.1499   -7.8004  -16.4105 C   0  0  0  0  0  0  0  0  0  0  0  0
   16.2041   -6.8695  -15.8982 C   0  0  1  0  0  0  0  0  0  0  0  0
   16.4857   -7.0207  -14.4293 C   0  0  0  0  0  0  0  0  0  0  0  0
   17.4948   -6.9472  -16.7162 C   0  0  2  0  0  0  0  0  0  0  0  0
   18.0438   -8.2778  -16.5126 N   0  0  0  0  0  0  0  0  0  0  0  0
   18.4572   -5.9173  -16.2589 C   0  0  0  0  0  0  0  0  0  0  0  0
   18.3436   -4.7160  -16.6004 O   0  0  0  0  0  0  0  0  0  0  0  0
   19.5061   -6.2889  -15.4358 O   0  0  0  0  0  0  0  0  0  0  0  0
  2  1  1  6
  2  3  1  0
  4  2  1  0
  4 11  1  0
  5  4  2  0
  7  8  2  0
  7  6  1  0
 10  9  1  6
  9  7  1  0
 10 11  1  0
 10 12  1  0
 12 18  1  0
 12 13  2  0
 15 14  1  6
 15 17  1  0
 16 15  1  0
 17 19  1  0
 17 18  1  1
 19 21  1  0
 20 19  2  0
M  END
$$$$
