ANV.pdb
     RDKit          3D

 21 20  0  0  1  0  0  0  0  0999 V2000
   22.0244  -13.1998  -18.0712 C   0  0  0  0  0  0  0  0  0  0  0  0
   21.8440  -11.7334  -18.4330 C   0  0  2  0  0  0  0  0  0  0  0  0
   22.5332  -11.4287  -19.6540 N   0  0  0  0  0  0  0  0  0  0  0  0
   22.4112  -10.9367  -17.2994 C   0  0  0  0  0  0  0  0  0  0  0  0
   21.9058  -10.9573  -16.1565 O   0  0  0  0  0  0  0  0  0  0  0  0
   26.7989  -10.6533  -14.8392 N   0  0  0  0  0  0  0  0  0  0  0  0
   26.1103  -10.5343  -16.0929 C   0  0  0  0  0  0  0  0  0  0  0  0
   26.0013  -11.5642  -16.7704 O   0  0  0  0  0  0  0  0  0  0  0  0
   25.5736   -9.2379  -16.5200 C   0  0  0  0  0  0  0  0  0  0  0  0
   24.0695   -9.2458  -16.5336 C   0  0  2  0  0  0  0  0  0  0  0  0
   23.5572  -10.1354  -17.5340 N   0  0  0  0  0  0  0  0  0  0  0  0
   23.5346   -7.8594  -16.7331 C   0  0  0  0  0  0  0  0  0  0  0  0
   23.8575   -7.1416  -17.7070 O   0  0  0  0  0  0  0  0  0  0  0  0
   20.3566   -6.8662  -17.5639 C   0  0  0  0  0  0  0  0  0  0  0  0
   20.5324   -6.2844  -16.1960 C   0  0  1  0  0  0  0  0  0  0  0  0
   19.8382   -7.0610  -15.1122 C   0  0  0  0  0  0  0  0  0  0  0  0
   22.0042   -6.0515  -15.8488 C   0  0  2  0  0  0  0  0  0  0  0  0
   22.6326   -7.3603  -15.7755 N   0  0  0  0  0  0  0  0  0  0  0  0
   22.1219   -5.3500  -14.5487 C   0  0  0  0  0  0  0  0  0  0  0  0
   22.3802   -5.9705  -13.4899 O   0  0  0  0  0  0  0  0  0  0  0  0
   21.9429   -3.9784  -14.5009 O   0  0  0  0  0  0  0  0  0  0  0  0
  2  1  1  1
  2  3  1  0
  4  2  1  0
  4 11  1  0
  5  4  2  0
  7  8  2  0
  7  6  1  0
 10  9  1  6
  9  7  1  0
 10 11  1  0
 10 12  1  0
 12 18  1  0
 12 13  2  0
 15 14  1  6
 15 17  1  0
 16 15  1  0
 17 19  1  0
 17 18  1  1
 19 21  1  0
 20 19  2  0
M  END
$$$$
