ANV.pdb
     RDKit          3D

 21 20  0  0  1  0  0  0  0  0999 V2000
   18.0648  -11.5229  -18.4361 C   0  0  0  0  0  0  0  0  0  0  0  0
   19.2700  -11.1996  -17.5663 C   0  0  2  0  0  0  0  0  0  0  0  0
   19.3598  -12.1206  -16.4697 N   0  0  0  0  0  0  0  0  0  0  0  0
   19.0758   -9.8033  -17.0621 C   0  0  0  0  0  0  0  0  0  0  0  0
   19.0283   -8.8208  -17.8331 O   0  0  0  0  0  0  0  0  0  0  0  0
   15.1674   -8.7365  -14.6731 N   0  0  0  0  0  0  0  0  0  0  0  0
   16.3375   -7.9328  -14.8854 C   0  0  0  0  0  0  0  0  0  0  0  0
   16.2316   -6.9914  -15.6819 O   0  0  0  0  0  0  0  0  0  0  0  0
   17.5832   -8.2408  -14.1753 C   0  0  0  0  0  0  0  0  0  0  0  0
   18.7546   -8.2826  -15.1180 C   0  0  2  0  0  0  0  0  0  0  0  0
   18.9420   -9.5937  -15.6662 N   0  0  0  0  0  0  0  0  0  0  0  0
   20.0023   -7.8111  -14.4332 C   0  0  0  0  0  0  0  0  0  0  0  0
   20.5284   -8.4304  -13.4806 O   0  0  0  0  0  0  0  0  0  0  0  0
   23.1884   -7.1570  -16.2029 C   0  0  0  0  0  0  0  0  0  0  0  0
   22.7611   -5.8638  -15.5822 C   0  0  1  0  0  0  0  0  0  0  0  0
   22.1628   -4.8901  -16.5587 C   0  0  0  0  0  0  0  0  0  0  0  0
   21.8383   -6.0736  -14.3799 C   0  0  2  0  0  0  0  0  0  0  0  0
   20.5933   -6.6202  -14.8940 N   0  0  0  0  0  0  0  0  0  0  0  0
   21.5897   -4.7856  -13.6905 C   0  0  0  0  0  0  0  0  0  0  0  0
   22.4608   -4.2526  -12.9626 O   0  0  0  0  0  0  0  0  0  0  0  0
   20.3681   -4.1556  -13.8530 O   0  0  0  0  0  0  0  0  0  0  0  0
  2  1  1  6
  2  3  1  0
  4  2  1  0
  4 11  1  0
  5  4  2  0
  7  8  2  0
  7  6  1  0
 10  9  1  1
  9  7  1  0
 10 11  1  0
 10 12  1  0
 12 18  1  0
 12 13  2  0
 15 14  1  6
 15 17  1  0
 16 15  1  0
 17 19  1  0
 17 18  1  6
 19 21  1  0
 20 19  2  0
M  END
$$$$
