ANV.pdb
     RDKit          3D

 21 20  0  0  1  0  0  0  0  0999 V2000
   19.8007  -20.9927  -12.6476 C   0  0  0  0  0  0  0  0  0  0  0  0
   20.5160  -20.8804  -13.9853 C   0  0  2  0  0  0  0  0  0  0  0  0
   20.7095  -22.1798  -14.5623 N   0  0  0  0  0  0  0  0  0  0  0  0
   21.8353  -20.2262  -13.7152 C   0  0  0  0  0  0  0  0  0  0  0  0
   21.9186  -19.0778  -13.2292 O   0  0  0  0  0  0  0  0  0  0  0  0
   26.7783  -19.2476  -13.3573 N   0  0  0  0  0  0  0  0  0  0  0  0
   26.6270  -20.6576  -13.1363 C   0  0  0  0  0  0  0  0  0  0  0  0
   27.6183  -21.2665  -12.7139 O   0  0  0  0  0  0  0  0  0  0  0  0
   25.3440  -21.3139  -13.4087 C   0  0  0  0  0  0  0  0  0  0  0  0
   24.3161  -20.3273  -13.8911 C   0  0  2  0  0  0  0  0  0  0  0  0
   23.0245  -20.9350  -14.0218 N   0  0  0  0  0  0  0  0  0  0  0  0
   24.7442  -19.7082  -15.1878 C   0  0  0  0  0  0  0  0  0  0  0  0
   24.6560  -20.3041  -16.2855 O   0  0  0  0  0  0  0  0  0  0  0  0
   24.6115  -15.5318  -15.3614 C   0  0  0  0  0  0  0  0  0  0  0  0
   25.8594  -16.1908  -15.8605 C   0  0  1  0  0  0  0  0  0  0  0  0
   27.0067  -16.1312  -14.8911 C   0  0  0  0  0  0  0  0  0  0  0  0
   25.6105  -17.6255  -16.3301 C   0  0  2  0  0  0  0  0  0  0  0  0
   25.2646  -18.4015  -15.1505 N   0  0  0  0  0  0  0  0  0  0  0  0
   26.8281  -18.1765  -16.9703 C   0  0  0  0  0  0  0  0  0  0  0  0
   27.6084  -18.9372  -16.3496 O   0  0  0  0  0  0  0  0  0  0  0  0
   27.1117  -17.8445  -18.2837 O   0  0  0  0  0  0  0  0  0  0  0  0
  2  1  1  1
  2  3  1  0
  4  2  1  0
  4 11  1  0
  5  4  2  0
  7  8  2  0
  7  6  1  0
 10  9  1  6
  9  7  1  0
 10 11  1  0
 10 12  1  0
 12 18  1  0
 12 13  2  0
 15 14  1  1
 15 17  1  0
 16 15  1  0
 17 19  1  0
 17 18  1  1
 19 21  1  0
 20 19  2  0
M  END
$$$$
