ANV.pdb
     RDKit          3D

 21 20  0  0  1  0  0  0  0  0999 V2000
   14.3946  -10.1521  -16.6821 C   0  0  0  0  0  0  0  0  0  0  0  0
   14.9395   -8.8047  -16.2334 C   0  0  2  0  0  0  0  0  0  0  0  0
   16.2009   -8.5378  -16.8631 N   0  0  0  0  0  0  0  0  0  0  0  0
   15.1022   -8.8788  -14.7469 C   0  0  0  0  0  0  0  0  0  0  0  0
   14.1491   -9.1599  -13.9889 O   0  0  0  0  0  0  0  0  0  0  0  0
   18.7509  -11.3246  -14.0123 N   0  0  0  0  0  0  0  0  0  0  0  0
   17.9189  -10.8629  -12.9378 C   0  0  0  0  0  0  0  0  0  0  0  0
   17.1941  -11.7041  -12.3913 O   0  0  0  0  0  0  0  0  0  0  0  0
   17.9512   -9.4537  -12.5325 C   0  0  0  0  0  0  0  0  0  0  0  0
   16.6294   -8.7814  -12.7838 C   0  0  2  0  0  0  0  0  0  0  0  0
   16.3788   -8.6214  -14.1860 N   0  0  0  0  0  0  0  0  0  0  0  0
   16.5655   -7.4592  -12.0797 C   0  0  0  0  0  0  0  0  0  0  0  0
   17.1197   -6.4276  -12.5229 O   0  0  0  0  0  0  0  0  0  0  0  0
   13.1800   -6.3185  -10.3545 C   0  0  0  0  0  0  0  0  0  0  0  0
   14.3210   -6.2949   -9.3860 C   0  0  1  0  0  0  0  0  0  0  0  0
   14.3123   -7.4380   -8.4098 C   0  0  0  0  0  0  0  0  0  0  0  0
   15.6760   -6.1814  -10.0876 C   0  0  2  0  0  0  0  0  0  0  0  0
   15.8483   -7.3938  -10.8710 N   0  0  0  0  0  0  0  0  0  0  0  0
   16.7638   -6.0542   -9.0894 C   0  0  0  0  0  0  0  0  0  0  0  0
   17.5282   -7.0131   -8.8267 O   0  0  0  0  0  0  0  0  0  0  0  0
   16.9411   -4.8496   -8.4311 O   0  0  0  0  0  0  0  0  0  0  0  0
  2  1  1  6
  2  3  1  0
  4  2  1  0
  4 11  1  0
  5  4  2  0
  7  8  2  0
  7  6  1  0
 10  9  1  6
  9  7  1  0
 10 11  1  0
 10 12  1  0
 12 18  1  0
 12 13  2  0
 15 14  1  6
 15 17  1  0
 16 15  1  0
 17 19  1  0
 17 18  1  1
 19 21  1  0
 20 19  2  0
M  END
$$$$
