ANV.pdb
     RDKit          3D

 21 20  0  0  1  0  0  0  0  0999 V2000
   15.4275  -10.6217  -16.8759 C   0  0  0  0  0  0  0  0  0  0  0  0
   16.8707  -10.5358  -16.4031 C   0  0  2  0  0  0  0  0  0  0  0  0
   16.9547  -10.7988  -14.9951 N   0  0  0  0  0  0  0  0  0  0  0  0
   17.3413   -9.1469  -16.7048 C   0  0  0  0  0  0  0  0  0  0  0  0
   17.1697   -8.6173  -17.8238 O   0  0  0  0  0  0  0  0  0  0  0  0
   15.2718   -5.8889  -14.8546 N   0  0  0  0  0  0  0  0  0  0  0  0
   16.6971   -5.7487  -14.9496 C   0  0  0  0  0  0  0  0  0  0  0  0
   17.2832   -5.3119  -13.9510 O   0  0  0  0  0  0  0  0  0  0  0  0
   17.3939   -6.1154  -16.1869 C   0  0  0  0  0  0  0  0  0  0  0  0
   18.5062   -7.0921  -15.9199 C   0  0  2  0  0  0  0  0  0  0  0  0
   18.0015   -8.4133  -15.6868 N   0  0  0  0  0  0  0  0  0  0  0  0
   19.3468   -6.6345  -14.7657 C   0  0  0  0  0  0  0  0  0  0  0  0
   18.9884   -6.7632  -13.5728 O   0  0  0  0  0  0  0  0  0  0  0  0
   23.0393   -7.7050  -14.6509 C   0  0  0  0  0  0  0  0  0  0  0  0
   22.9385   -6.2119  -14.6194 C   0  0  1  0  0  0  0  0  0  0  0  0
   23.2356   -5.5554  -15.9386 C   0  0  0  0  0  0  0  0  0  0  0  0
   21.5994   -5.7320  -14.0558 C   0  0  2  0  0  0  0  0  0  0  0  0
   20.5878   -6.0375  -15.0541 N   0  0  0  0  0  0  0  0  0  0  0  0
   21.6428   -4.2738  -13.7960 C   0  0  0  0  0  0  0  0  0  0  0  0
   21.1036   -3.4524  -14.5754 O   0  0  0  0  0  0  0  0  0  0  0  0
   22.2932   -3.8063  -12.6672 O   0  0  0  0  0  0  0  0  0  0  0  0
  2  1  1  1
  2  3  1  0
  4  2  1  0
  4 11  1  0
  5  4  2  0
  7  8  2  0
  7  6  1  0
 10  9  1  1
  9  7  1  0
 10 11  1  0
 10 12  1  0
 12 18  1  0
 12 13  2  0
 15 14  1  6
 15 17  1  0
 16 15  1  0
 17 19  1  0
 17 18  1  6
 19 21  1  0
 20 19  2  0
M  END
$$$$
