ANV.pdb
     RDKit          3D

 21 20  0  0  1  0  0  0  0  0999 V2000
   21.4278  -14.5573  -20.5593 C   0  0  0  0  0  0  0  0  0  0  0  0
   20.6417  -13.8761  -19.4495 C   0  0  2  0  0  0  0  0  0  0  0  0
   19.3616  -13.4441  -19.9326 N   0  0  0  0  0  0  0  0  0  0  0  0
   21.4558  -12.7016  -19.0029 C   0  0  0  0  0  0  0  0  0  0  0  0
   22.5934  -12.8353  -18.5027 O   0  0  0  0  0  0  0  0  0  0  0  0
   22.1626   -6.7112  -19.7143 N   0  0  0  0  0  0  0  0  0  0  0  0
   22.5044   -8.0354  -19.2789 C   0  0  0  0  0  0  0  0  0  0  0  0
   23.4653   -8.1387  -18.5057 O   0  0  0  0  0  0  0  0  0  0  0  0
   21.7302   -9.1894  -19.7478 C   0  0  0  0  0  0  0  0  0  0  0  0
   21.6087  -10.2387  -18.6769 C   0  0  2  0  0  0  0  0  0  0  0  0
   20.9158  -11.3993  -19.1540 N   0  0  0  0  0  0  0  0  0  0  0  0
   20.9315   -9.6792  -17.4619 C   0  0  0  0  0  0  0  0  0  0  0  0
   19.7028   -9.4415  -17.4194 O   0  0  0  0  0  0  0  0  0  0  0  0
   21.3745  -11.2892  -14.0637 C   0  0  0  0  0  0  0  0  0  0  0  0
   21.8447   -9.8706  -13.9803 C   0  0  1  0  0  0  0  0  0  0  0  0
   23.3409   -9.7256  -13.9874 C   0  0  0  0  0  0  0  0  0  0  0  0
   21.2012   -8.9819  -15.0466 C   0  0  2  0  0  0  0  0  0  0  0  0
   21.7259   -9.4164  -16.3308 N   0  0  0  0  0  0  0  0  0  0  0  0
   21.5414   -7.5598  -14.8057 C   0  0  0  0  0  0  0  0  0  0  0  0
   22.4108   -6.9686  -15.4895 O   0  0  0  0  0  0  0  0  0  0  0  0
   20.8851   -6.8671  -13.8031 O   0  0  0  0  0  0  0  0  0  0  0  0
  2  1  1  6
  2  3  1  0
  4  2  1  0
  4 11  1  0
  5  4  2  0
  7  8  2  0
  7  6  1  0
 10  9  1  6
  9  7  1  0
 10 11  1  0
 10 12  1  0
 12 18  1  0
 12 13  2  0
 15 14  1  6
 15 17  1  0
 16 15  1  0
 17 19  1  0
 17 18  1  6
 19 21  1  0
 20 19  2  0
M  END
$$$$
