ANV.pdb
     RDKit          3D

 21 20  0  0  1  0  0  0  0  0999 V2000
   21.9787  -12.3603  -18.1921 C   0  0  0  0  0  0  0  0  0  0  0  0
   20.7524  -12.4802  -17.3002 C   0  0  2  0  0  0  0  0  0  0  0  0
   19.7017  -13.1803  -17.9819 N   0  0  0  0  0  0  0  0  0  0  0  0
   20.3220  -11.0850  -16.9689 C   0  0  0  0  0  0  0  0  0  0  0  0
   20.1484  -10.2176  -17.8518 O   0  0  0  0  0  0  0  0  0  0  0  0
   16.2971   -9.3391  -15.4224 N   0  0  0  0  0  0  0  0  0  0  0  0
   17.3191  -10.1555  -14.8315 C   0  0  0  0  0  0  0  0  0  0  0  0
   17.1394  -11.3798  -14.8554 O   0  0  0  0  0  0  0  0  0  0  0  0
   18.5072   -9.5350  -14.2362 C   0  0  0  0  0  0  0  0  0  0  0  0
   19.6326   -9.4430  -15.2299 C   0  0  2  0  0  0  0  0  0  0  0  0
   20.1059  -10.7415  -15.6103 N   0  0  0  0  0  0  0  0  0  0  0  0
   20.7532   -8.6091  -14.6850 C   0  0  0  0  0  0  0  0  0  0  0  0
   21.5433   -9.0253  -13.8073 O   0  0  0  0  0  0  0  0  0  0  0  0
   23.2238   -6.7551  -16.9383 C   0  0  0  0  0  0  0  0  0  0  0  0
   22.5157   -5.7607  -16.0721 C   0  0  1  0  0  0  0  0  0  0  0  0
   21.4499   -4.9806  -16.7899 C   0  0  0  0  0  0  0  0  0  0  0  0
   21.9660   -6.3932  -14.7919 C   0  0  2  0  0  0  0  0  0  0  0  0
   20.9083   -7.3062  -15.1930 N   0  0  0  0  0  0  0  0  0  0  0  0
   21.4289   -5.3471  -13.8901 C   0  0  0  0  0  0  0  0  0  0  0  0
   20.1968   -5.1345  -13.7929 O   0  0  0  0  0  0  0  0  0  0  0  0
   22.3067   -4.5864  -13.1373 O   0  0  0  0  0  0  0  0  0  0  0  0
  2  1  1  6
  2  3  1  0
  4  2  1  0
  4 11  1  0
  5  4  2  0
  7  8  2  0
  7  6  1  0
 10  9  1  1
  9  7  1  0
 10 11  1  0
 10 12  1  0
 12 18  1  0
 12 13  2  0
 15 14  1  6
 15 17  1  0
 16 15  1  0
 17 19  1  0
 17 18  1  6
 19 21  1  0
 20 19  2  0
M  END
$$$$
