ANV.pdb
     RDKit          3D

 21 20  0  0  1  0  0  0  0  0999 V2000
   16.2890  -11.2046  -16.9717 C   0  0  0  0  0  0  0  0  0  0  0  0
   17.4275  -11.0322  -15.9778 C   0  0  2  0  0  0  0  0  0  0  0  0
   17.0829  -11.6153  -14.7129 N   0  0  0  0  0  0  0  0  0  0  0  0
   17.6523   -9.5593  -15.8309 C   0  0  0  0  0  0  0  0  0  0  0  0
   17.9789   -8.8388  -16.7986 O   0  0  0  0  0  0  0  0  0  0  0  0
   15.7130   -6.6261  -15.9850 N   0  0  0  0  0  0  0  0  0  0  0  0
   15.5131   -6.4693  -14.5724 C   0  0  0  0  0  0  0  0  0  0  0  0
   14.4578   -5.9313  -14.2138 O   0  0  0  0  0  0  0  0  0  0  0  0
   16.5321   -6.9361  -13.6265 C   0  0  0  0  0  0  0  0  0  0  0  0
   17.6961   -7.5650  -14.3421 C   0  0  2  0  0  0  0  0  0  0  0  0
   17.4885   -8.9676  -14.5528 N   0  0  0  0  0  0  0  0  0  0  0  0
   18.9715   -7.3249  -13.5914 C   0  0  0  0  0  0  0  0  0  0  0  0
   19.1336   -7.6755  -12.4003 O   0  0  0  0  0  0  0  0  0  0  0  0
   22.2976   -8.5897  -14.5956 C   0  0  0  0  0  0  0  0  0  0  0  0
   22.3493   -7.0948  -14.6507 C   0  0  1  0  0  0  0  0  0  0  0  0
   22.2275   -6.5339  -16.0400 C   0  0  0  0  0  0  0  0  0  0  0  0
   21.3386   -6.4435  -13.7043 C   0  0  2  0  0  0  0  0  0  0  0  0
   20.0200   -6.6768  -14.2700 N   0  0  0  0  0  0  0  0  0  0  0  0
   21.6011   -4.9894  -13.5920 C   0  0  0  0  0  0  0  0  0  0  0  0
   22.5972   -4.5489  -12.9703 O   0  0  0  0  0  0  0  0  0  0  0  0
   20.7273   -4.0958  -14.1867 O   0  0  0  0  0  0  0  0  0  0  0  0
  2  1  1  6
  2  3  1  0
  4  2  1  0
  4 11  1  0
  5  4  2  0
  7  8  2  0
  7  6  1  0
 10  9  1  1
  9  7  1  0
 10 11  1  0
 10 12  1  0
 12 18  1  0
 12 13  2  0
 15 14  1  6
 15 17  1  0
 16 15  1  0
 17 19  1  0
 17 18  1  6
 19 21  1  0
 20 19  2  0
M  END
$$$$
