ANV.pdb
     RDKit          3D

 21 20  0  0  1  0  0  0  0  0999 V2000
   19.3646  -14.9294  -19.2622 C   0  0  0  0  0  0  0  0  0  0  0  0
   18.7068  -14.0916  -18.1763 C   0  0  2  0  0  0  0  0  0  0  0  0
   17.3940  -13.6811  -18.5844 N   0  0  0  0  0  0  0  0  0  0  0  0
   19.5849  -12.8981  -17.9613 C   0  0  0  0  0  0  0  0  0  0  0  0
   20.7432  -13.0012  -17.5033 O   0  0  0  0  0  0  0  0  0  0  0  0
   21.5532   -8.1560  -19.9712 N   0  0  0  0  0  0  0  0  0  0  0  0
   20.3425   -8.2314  -19.2040 C   0  0  0  0  0  0  0  0  0  0  0  0
   20.0622   -7.2496  -18.5046 O   0  0  0  0  0  0  0  0  0  0  0  0
   19.5008   -9.4307  -19.2695 C   0  0  0  0  0  0  0  0  0  0  0  0
   19.9149  -10.4469  -18.2407 C   0  0  2  0  0  0  0  0  0  0  0  0
   19.0829  -11.6131  -18.2888 N   0  0  0  0  0  0  0  0  0  0  0  0
   19.9045   -9.8447  -16.8677 C   0  0  0  0  0  0  0  0  0  0  0  0
   18.8550   -9.6922  -16.2020 O   0  0  0  0  0  0  0  0  0  0  0  0
   22.0721  -11.1850  -14.0941 C   0  0  0  0  0  0  0  0  0  0  0  0
   22.4492   -9.7576  -14.3404 C   0  0  1  0  0  0  0  0  0  0  0  0
   23.7162   -9.5923  -15.1321 C   0  0  0  0  0  0  0  0  0  0  0  0
   21.3047   -8.9534  -14.9604 C   0  0  2  0  0  0  0  0  0  0  0  0
   21.1356   -9.4395  -16.3199 N   0  0  0  0  0  0  0  0  0  0  0  0
   21.6349   -7.5088  -14.9672 C   0  0  0  0  0  0  0  0  0  0  0  0
   21.5937   -6.8217  -13.9188 O   0  0  0  0  0  0  0  0  0  0  0  0
   21.9973   -6.9028  -16.1576 O   0  0  0  0  0  0  0  0  0  0  0  0
  2  1  1  6
  2  3  1  0
  4  2  1  0
  4 11  1  0
  5  4  2  0
  7  8  2  0
  7  6  1  0
 10  9  1  6
  9  7  1  0
 10 11  1  0
 10 12  1  0
 12 18  1  0
 12 13  2  0
 15 14  1  6
 15 17  1  0
 16 15  1  0
 17 19  1  0
 17 18  1  6
 19 21  1  0
 20 19  2  0
M  END
$$$$
