ANV.pdb
     RDKit          3D

 21 20  0  0  1  0  0  0  0  0999 V2000
   19.7979   -3.8089  -15.9476 C   0  0  0  0  0  0  0  0  0  0  0  0
   20.3536   -4.7577  -16.9986 C   0  0  2  0  0  0  0  0  0  0  0  0
   19.3473   -5.0759  -17.9706 N   0  0  0  0  0  0  0  0  0  0  0  0
   20.7916   -5.9934  -16.2755 C   0  0  0  0  0  0  0  0  0  0  0  0
   20.1061   -6.5069  -15.3652 O   0  0  0  0  0  0  0  0  0  0  0  0
   20.9567  -11.1477  -17.9570 N   0  0  0  0  0  0  0  0  0  0  0  0
   21.2461  -10.2272  -16.8945 C   0  0  0  0  0  0  0  0  0  0  0  0
   21.6360  -10.7131  -15.8251 O   0  0  0  0  0  0  0  0  0  0  0  0
   21.0766   -8.7851  -17.1008 C   0  0  0  0  0  0  0  0  0  0  0  0
   22.2291   -8.0103  -16.5229 C   0  0  2  0  0  0  0  0  0  0  0  0
   22.0227   -6.5965  -16.6377 N   0  0  0  0  0  0  0  0  0  0  0  0
   23.5176   -8.4125  -17.1755 C   0  0  0  0  0  0  0  0  0  0  0  0
   23.7655   -8.1883  -18.3822 O   0  0  0  0  0  0  0  0  0  0  0  0
   25.8433  -11.0313  -14.8869 C   0  0  0  0  0  0  0  0  0  0  0  0
   26.5730   -9.9596  -15.6349 C   0  0  1  0  0  0  0  0  0  0  0  0
   27.9813  -10.3307  -16.0076 C   0  0  0  0  0  0  0  0  0  0  0  0
   25.7923   -9.4691  -16.8559 C   0  0  2  0  0  0  0  0  0  0  0  0
   24.4773   -9.0687  -16.3829 N   0  0  0  0  0  0  0  0  0  0  0  0
   25.6709  -10.5530  -17.8591 C   0  0  0  0  0  0  0  0  0  0  0  0
   26.5027  -10.6823  -18.7888 O   0  0  0  0  0  0  0  0  0  0  0  0
   24.6156  -11.4440  -17.7688 O   0  0  0  0  0  0  0  0  0  0  0  0
  2  1  1  1
  2  3  1  0
  4  2  1  0
  4 11  1  0
  5  4  2  0
  7  8  2  0
  7  6  1  0
 10  9  1  6
  9  7  1  0
 10 11  1  0
 10 12  1  0
 12 18  1  0
 12 13  2  0
 15 14  1  6
 15 17  1  0
 16 15  1  0
 17 19  1  0
 17 18  1  1
 19 21  1  0
 20 19  2  0
M  END
$$$$
