GSL.pdb
     RDKit          3D

 19 18  0  0  1  0  0  0  0  0999 V2000
    8.2440  -12.9490   17.1700 N   0  0  0  0  0  0  0  0  0  0  0  0
    9.0524  -13.5779   18.1844 C   0  0  0  0  0  0  0  0  0  0  0  0
    8.1835  -14.0824   19.2800 C   0  0  0  0  0  0  0  0  0  0  0  0
    6.9659  -13.8561   19.2560 O   0  0  0  0  0  0  0  0  0  0  0  0
    8.9930  -17.4688   22.1412 O   0  0  0  0  0  0  0  0  0  0  0  0
    8.0386  -17.0184   21.2190 C   0  0  0  0  0  0  0  0  0  0  0  0
    7.9735  -15.5279   21.3480 C   0  0  2  0  0  0  0  0  0  0  0  0
    8.7376  -14.8242   20.3584 N   0  0  0  0  0  0  0  0  0  0  0  0
    8.3082  -15.0409   22.7148 C   0  0  0  0  0  0  0  0  0  0  0  0
    9.5064  -14.8948   23.0187 O   0  0  0  0  0  0  0  0  0  0  0  0
    5.6944  -12.1883   27.6309 C   0  0  0  0  0  0  0  0  0  0  0  0
    6.8469  -12.8379   26.9257 C   0  0  2  0  0  0  0  0  0  0  0  0
    8.0527  -11.8800   26.8685 C   0  0  0  0  0  0  0  0  0  0  0  0
    6.5610  -13.3653   25.5654 C   0  0  0  0  0  0  0  0  0  0  0  0
    7.5779  -14.2886   24.9745 C   0  0  2  0  0  0  0  0  0  0  0  0
    7.2707  -14.7472   23.6590 N   0  0  0  0  0  0  0  0  0  0  0  0
    7.9362  -15.3975   25.8951 C   0  0  0  0  0  0  0  0  0  0  0  0
    7.2414  -16.4458   25.8967 O   0  0  0  0  0  0  0  0  0  0  0  0
    9.0085  -15.3357   26.7616 O   0  0  0  0  0  0  0  0  0  0  0  0
  2  3  1  0
  2  1  1  0
  3  4  2  0
  5  6  1  0
  7  6  1  1
  7  9  1  0
  8  7  1  0
  8  3  1  0
  9 10  2  0
 12 11  1  6
 13 12  1  0
 14 12  1  0
 15 14  1  1
 15 17  1  0
 16  9  1  0
 16 15  1  0
 17 18  2  0
 17 19  1  0
M  END
$$$$
