GSL.pdb
     RDKit          3D

 19 18  0  0  1  0  0  0  0  0999 V2000
    7.9429  -12.5548   18.2607 N   0  0  0  0  0  0  0  0  0  0  0  0
    8.8808  -13.5362   18.7456 C   0  0  0  0  0  0  0  0  0  0  0  0
    8.2870  -14.2793   19.8880 C   0  0  0  0  0  0  0  0  0  0  0  0
    7.2010  -13.9179   20.3616 O   0  0  0  0  0  0  0  0  0  0  0  0
    8.4590  -18.1374   22.7912 O   0  0  0  0  0  0  0  0  0  0  0  0
    9.0125  -17.5471   21.6470 C   0  0  0  0  0  0  0  0  0  0  0  0
    8.5079  -16.1382   21.5926 C   0  0  2  0  0  0  0  0  0  0  0  0
    8.9549  -15.4039   20.4439 N   0  0  0  0  0  0  0  0  0  0  0  0
    8.7702  -15.3712   22.8416 C   0  0  0  0  0  0  0  0  0  0  0  0
    9.9106  -14.9092   23.0290 O   0  0  0  0  0  0  0  0  0  0  0  0
    5.8366  -12.1689   27.3105 C   0  0  0  0  0  0  0  0  0  0  0  0
    7.0558  -12.7986   26.7067 C   0  0  2  0  0  0  0  0  0  0  0  0
    8.1235  -11.7282   26.4085 C   0  0  0  0  0  0  0  0  0  0  0  0
    6.8248  -13.6272   25.4940 C   0  0  0  0  0  0  0  0  0  0  0  0
    7.9734  -14.4574   25.0178 C   0  0  2  0  0  0  0  0  0  0  0  0
    7.7294  -15.1702   23.8064 N   0  0  0  0  0  0  0  0  0  0  0  0
    8.5244  -15.3264   26.0889 C   0  0  0  0  0  0  0  0  0  0  0  0
    8.0475  -16.4784   26.2538 O   0  0  0  0  0  0  0  0  0  0  0  0
    9.5479  -14.9287   26.9247 O   0  0  0  0  0  0  0  0  0  0  0  0
  2  3  1  0
  2  1  1  0
  3  4  2  0
  5  6  1  0
  7  6  1  1
  7  9  1  0
  8  7  1  0
  8  3  1  0
  9 10  2  0
 12 11  1  6
 13 12  1  0
 14 12  1  0
 15 14  1  1
 15 17  1  0
 16  9  1  0
 16 15  1  0
 17 18  2  0
 17 19  1  0
M  END
$$$$
