GSL.pdb
     RDKit          3D

 19 18  0  0  1  0  0  0  0  0999 V2000
    8.0769  -12.8832   17.7165 N   0  0  0  0  0  0  0  0  0  0  0  0
    8.9942  -13.3935   18.7045 C   0  0  0  0  0  0  0  0  0  0  0  0
    8.2431  -14.1198   19.7620 C   0  0  0  0  0  0  0  0  0  0  0  0
    7.0051  -14.1464   19.7319 O   0  0  0  0  0  0  0  0  0  0  0  0
    9.8895  -17.3002   21.7248 O   0  0  0  0  0  0  0  0  0  0  0  0
    8.5111  -17.0611   21.6411 C   0  0  0  0  0  0  0  0  0  0  0  0
    8.3096  -15.5884   21.8232 C   0  0  2  0  0  0  0  0  0  0  0  0
    8.9334  -14.7861   20.8105 N   0  0  0  0  0  0  0  0  0  0  0  0
    8.6859  -15.1071   23.1811 C   0  0  0  0  0  0  0  0  0  0  0  0
    9.8813  -14.8480   23.4116 O   0  0  0  0  0  0  0  0  0  0  0  0
    5.7059  -11.9356   27.0477 C   0  0  0  0  0  0  0  0  0  0  0  0
    6.9983  -12.5752   26.6375 C   0  0  2  0  0  0  0  0  0  0  0  0
    7.6044  -11.8374   25.4280 C   0  0  0  0  0  0  0  0  0  0  0  0
    6.9395  -14.0340   26.3565 C   0  0  0  0  0  0  0  0  0  0  0  0
    8.0517  -14.6066   25.5376 C   0  0  2  0  0  0  0  0  0  0  0  0
    7.6906  -14.9461   24.1999 N   0  0  0  0  0  0  0  0  0  0  0  0
    8.7555  -15.7125   26.2357 C   0  0  0  0  0  0  0  0  0  0  0  0
    8.4431  -16.9027   25.9758 O   0  0  0  0  0  0  0  0  0  0  0  0
    9.7493  -15.4979   27.1688 O   0  0  0  0  0  0  0  0  0  0  0  0
  2  3  1  0
  2  1  1  0
  3  4  2  0
  5  6  1  0
  7  6  1  6
  7  9  1  0
  8  7  1  0
  8  3  1  0
  9 10  2  0
 12 11  1  6
 13 12  1  0
 14 12  1  0
 15 14  1  1
 15 17  1  0
 16  9  1  0
 16 15  1  0
 17 18  2  0
 17 19  1  0
M  END
$$$$
