GSL.pdb
     RDKit          3D

 19 18  0  0  1  0  0  0  0  0999 V2000
    8.0868  -12.7489   17.8947 N   0  0  0  0  0  0  0  0  0  0  0  0
    8.9571  -13.6679   18.5847 C   0  0  0  0  0  0  0  0  0  0  0  0
    8.2447  -14.2601   19.7473 C   0  0  0  0  0  0  0  0  0  0  0  0
    7.2077  -13.7310   20.1704 O   0  0  0  0  0  0  0  0  0  0  0  0
    9.8455  -17.6206   21.9032 O   0  0  0  0  0  0  0  0  0  0  0  0
    8.4682  -17.5051   21.6711 C   0  0  0  0  0  0  0  0  0  0  0  0
    8.1663  -16.0440   21.5422 C   0  0  2  0  0  0  0  0  0  0  0  0
    8.7430  -15.4310   20.3802 N   0  0  0  0  0  0  0  0  0  0  0  0
    8.4980  -15.2649   22.7669 C   0  0  0  0  0  0  0  0  0  0  0  0
    9.5972  -14.6836   22.8242 O   0  0  0  0  0  0  0  0  0  0  0  0
    5.7921  -12.2364   27.4547 C   0  0  0  0  0  0  0  0  0  0  0  0
    6.9990  -12.8030   26.7692 C   0  0  2  0  0  0  0  0  0  0  0  0
    8.0018  -11.6829   26.4306 C   0  0  0  0  0  0  0  0  0  0  0  0
    6.7321  -13.6200   25.5560 C   0  0  0  0  0  0  0  0  0  0  0  0
    7.8700  -14.4351   25.0303 C   0  0  2  0  0  0  0  0  0  0  0  0
    7.5693  -15.1871   23.8559 N   0  0  0  0  0  0  0  0  0  0  0  0
    8.5092  -15.2601   26.0869 C   0  0  0  0  0  0  0  0  0  0  0  0
    9.2679  -14.7085   26.9245 O   0  0  0  0  0  0  0  0  0  0  0  0
    8.3102  -16.6212   26.1983 O   0  0  0  0  0  0  0  0  0  0  0  0
  2  3  1  0
  2  1  1  0
  3  4  2  0
  5  6  1  0
  7  6  1  1
  7  9  1  0
  8  7  1  0
  8  3  1  0
  9 10  2  0
 12 11  1  6
 13 12  1  0
 14 12  1  0
 15 14  1  1
 15 17  1  0
 16  9  1  0
 16 15  1  0
 17 18  2  0
 17 19  1  0
M  END
$$$$
