GSL.pdb
     RDKit          3D

 19 18  0  0  1  0  0  0  0  0999 V2000
    7.9578  -13.4208   16.1051 N   0  0  0  0  0  0  0  0  0  0  0  0
    7.2914  -14.2052   17.1143 C   0  0  0  0  0  0  0  0  0  0  0  0
    8.0599  -14.1488   18.3855 C   0  0  0  0  0  0  0  0  0  0  0  0
    9.2311  -13.7454   18.3811 O   0  0  0  0  0  0  0  0  0  0  0  0
    6.5714  -15.9533   21.8713 O   0  0  0  0  0  0  0  0  0  0  0  0
    7.1633  -14.6949   22.0458 C   0  0  0  0  0  0  0  0  0  0  0  0
    8.0979  -14.4866   20.8944 C   0  0  2  0  0  0  0  0  0  0  0  0
    7.4627  -14.5543   19.6097 N   0  0  0  0  0  0  0  0  0  0  0  0
    9.2918  -15.3753   20.9380 C   0  0  0  0  0  0  0  0  0  0  0  0
    9.2971  -16.4015   20.2337 O   0  0  0  0  0  0  0  0  0  0  0  0
   12.7245  -15.9982   18.7942 C   0  0  0  0  0  0  0  0  0  0  0  0
   12.7291  -14.8556   19.7649 C   0  0  2  0  0  0  0  0  0  0  0  0
   13.8641  -13.8687   19.4298 C   0  0  0  0  0  0  0  0  0  0  0  0
   12.7960  -15.2267   21.2030 C   0  0  0  0  0  0  0  0  0  0  0  0
   11.5802  -15.8701   21.7889 C   0  0  2  0  0  0  0  0  0  0  0  0
   10.4104  -15.0537   21.7744 N   0  0  0  0  0  0  0  0  0  0  0  0
   11.8437  -16.4641   23.1244 C   0  0  0  0  0  0  0  0  0  0  0  0
   11.1531  -16.0967   24.1091 O   0  0  0  0  0  0  0  0  0  0  0  0
   12.8220  -17.4124   23.3434 O   0  0  0  0  0  0  0  0  0  0  0  0
  2  3  1  0
  2  1  1  0
  3  4  2  0
  5  6  1  0
  7  6  1  1
  7  9  1  0
  8  7  1  0
  8  3  1  0
  9 10  2  0
 12 11  1  6
 13 12  1  0
 14 12  1  0
 15 14  1  1
 15 17  1  0
 16  9  1  0
 16 15  1  0
 17 18  2  0
 17 19  1  0
M  END
$$$$
