GSL.pdb
     RDKit          3D

 19 18  0  0  1  0  0  0  0  0999 V2000
    8.1445  -13.0059   17.5776 N   0  0  0  0  0  0  0  0  0  0  0  0
    8.8953  -13.9901   18.3161 C   0  0  0  0  0  0  0  0  0  0  0  0
    8.1653  -14.3522   19.5594 C   0  0  0  0  0  0  0  0  0  0  0  0
    7.2426  -13.6321   19.9652 O   0  0  0  0  0  0  0  0  0  0  0  0
    9.1722  -17.8895   21.6889 O   0  0  0  0  0  0  0  0  0  0  0  0
    7.8286  -17.5164   21.5484 C   0  0  0  0  0  0  0  0  0  0  0  0
    7.7984  -16.0243   21.4247 C   0  0  2  0  0  0  0  0  0  0  0  0
    8.5163  -15.5200   20.2895 N   0  0  0  0  0  0  0  0  0  0  0  0
    8.2211  -15.3227   22.6681 C   0  0  0  0  0  0  0  0  0  0  0  0
    9.4198  -15.0150   22.8008 O   0  0  0  0  0  0  0  0  0  0  0  0
    5.8103  -11.9720   27.3577 C   0  0  0  0  0  0  0  0  0  0  0  0
    6.9553  -12.5910   26.6139 C   0  0  2  0  0  0  0  0  0  0  0  0
    7.9921  -11.5173   26.2305 C   0  0  0  0  0  0  0  0  0  0  0  0
    6.5930  -13.3890   25.4129 C   0  0  0  0  0  0  0  0  0  0  0  0
    7.6481  -14.2949   24.8638 C   0  0  2  0  0  0  0  0  0  0  0  0
    7.2657  -15.0091   23.6896 N   0  0  0  0  0  0  0  0  0  0  0  0
    8.2298  -15.1802   25.9048 C   0  0  0  0  0  0  0  0  0  0  0  0
    7.6872  -16.2894   26.1436 O   0  0  0  0  0  0  0  0  0  0  0  0
    9.3517  -14.8431   26.6342 O   0  0  0  0  0  0  0  0  0  0  0  0
  2  3  1  0
  2  1  1  0
  3  4  2  0
  5  6  1  0
  7  6  1  1
  7  9  1  0
  8  7  1  0
  8  3  1  0
  9 10  2  0
 12 11  1  6
 13 12  1  0
 14 12  1  0
 15 14  1  1
 15 17  1  0
 16  9  1  0
 16 15  1  0
 17 18  2  0
 17 19  1  0
M  END
$$$$
