GSL.pdb
     RDKit          3D

 19 18  0  0  1  0  0  0  0  0999 V2000
    8.0129  -12.4219   18.5101 N   0  0  0  0  0  0  0  0  0  0  0  0
    8.7282  -13.5862   18.9690 C   0  0  0  0  0  0  0  0  0  0  0  0
    8.1924  -14.0201   20.2860 C   0  0  0  0  0  0  0  0  0  0  0  0
    7.4414  -13.2697   20.9243 O   0  0  0  0  0  0  0  0  0  0  0  0
    9.2582  -17.7980   21.9299 O   0  0  0  0  0  0  0  0  0  0  0  0
    7.9230  -17.3744   21.9755 C   0  0  0  0  0  0  0  0  0  0  0  0
    7.9381  -15.8770   21.9882 C   0  0  2  0  0  0  0  0  0  0  0  0
    8.5343  -15.2912   20.8220 N   0  0  0  0  0  0  0  0  0  0  0  0
    8.5348  -15.3056   23.2269 C   0  0  0  0  0  0  0  0  0  0  0  0
    9.7391  -14.9914   23.2185 O   0  0  0  0  0  0  0  0  0  0  0  0
    7.4756  -11.6336   25.2257 C   0  0  0  0  0  0  0  0  0  0  0  0
    6.6181  -12.7115   25.8178 C   0  0  2  0  0  0  0  0  0  0  0  0
    5.6055  -12.1095   26.8112 C   0  0  0  0  0  0  0  0  0  0  0  0
    7.3444  -13.8369   26.4630 C   0  0  0  0  0  0  0  0  0  0  0  0
    8.3021  -14.5995   25.6046 C   0  0  2  0  0  0  0  0  0  0  0  0
    7.7369  -15.1221   24.4035 N   0  0  0  0  0  0  0  0  0  0  0  0
    9.0560  -15.6236   26.3718 C   0  0  0  0  0  0  0  0  0  0  0  0
    9.7308  -15.2704   27.3726 O   0  0  0  0  0  0  0  0  0  0  0  0
    9.0539  -16.9626   26.0380 O   0  0  0  0  0  0  0  0  0  0  0  0
  2  3  1  0
  2  1  1  0
  3  4  2  0
  5  6  1  0
  7  6  1  6
  7  9  1  0
  8  7  1  0
  8  3  1  0
  9 10  2  0
 12 11  1  1
 13 12  1  0
 14 12  1  0
 15 14  1  1
 15 17  1  0
 16  9  1  0
 16 15  1  0
 17 18  2  0
 17 19  1  0
M  END
$$$$
