GSL.pdb
     RDKit          3D

 19 18  0  0  1  0  0  0  0  0999 V2000
    9.8603  -17.0144   18.6167 N   0  0  0  0  0  0  0  0  0  0  0  0
   10.4274  -17.2999   19.9108 C   0  0  0  0  0  0  0  0  0  0  0  0
    9.4144  -17.0533   20.9705 C   0  0  0  0  0  0  0  0  0  0  0  0
    8.3452  -16.4969   20.6846 O   0  0  0  0  0  0  0  0  0  0  0  0
    9.6865  -19.1653   24.4620 O   0  0  0  0  0  0  0  0  0  0  0  0
    8.4453  -18.6265   24.0968 C   0  0  0  0  0  0  0  0  0  0  0  0
    8.7189  -17.3358   23.3884 C   0  0  2  0  0  0  0  0  0  0  0  0
    9.6611  -17.4508   22.3125 N   0  0  0  0  0  0  0  0  0  0  0  0
    9.1041  -16.2304   24.3086 C   0  0  0  0  0  0  0  0  0  0  0  0
   10.3133  -15.9824   24.4691 O   0  0  0  0  0  0  0  0  0  0  0  0
    5.8391  -11.8124   26.5537 C   0  0  0  0  0  0  0  0  0  0  0  0
    7.1600  -12.4627   26.2709 C   0  0  2  0  0  0  0  0  0  0  0  0
    7.5192  -12.3258   24.7785 C   0  0  0  0  0  0  0  0  0  0  0  0
    7.2857  -13.8841   26.6881 C   0  0  0  0  0  0  0  0  0  0  0  0
    8.4332  -14.6538   26.1170 C   0  0  2  0  0  0  0  0  0  0  0  0
    8.1017  -15.4690   24.9942 N   0  0  0  0  0  0  0  0  0  0  0  0
    9.1881  -15.3974   27.1576 C   0  0  0  0  0  0  0  0  0  0  0  0
    8.9153  -16.6064   27.3709 O   0  0  0  0  0  0  0  0  0  0  0  0
   10.1884  -14.8211   27.9138 O   0  0  0  0  0  0  0  0  0  0  0  0
  2  3  1  0
  2  1  1  0
  3  4  2  0
  5  6  1  0
  7  6  1  1
  7  9  1  0
  8  7  1  0
  8  3  1  0
  9 10  2  0
 12 11  1  6
 13 12  1  0
 14 12  1  0
 15 14  1  1
 15 17  1  0
 16  9  1  0
 16 15  1  0
 17 18  2  0
 17 19  1  0
M  END
$$$$
