MTD.pdb
     RDKit          3D

 24 23  0  0  1  0  0  0  0  0999 V2000
   15.3561  -17.6778  -15.9522 C   0  0  0  0  0  0  0  0  0  0  0  0
   16.5189  -16.4108  -16.5561 S   0  0  0  0  0  0  0  0  0  0  0  0
   16.4489  -14.9629  -15.4706 C   0  0  0  0  0  0  0  0  0  0  0  0
   17.4947  -13.9343  -15.8742 C   0  0  0  0  0  0  0  0  0  0  0  0
   17.3571  -12.6674  -15.0712 C   0  0  2  0  0  0  0  0  0  0  0  0
   15.9984  -12.1981  -15.0268 N   0  0  0  0  0  0  0  0  0  0  0  0
   18.2743  -11.6304  -15.6441 C   0  0  0  0  0  0  0  0  0  0  0  0
   19.4905  -11.8688  -15.8528 O   0  0  0  0  0  0  0  0  0  0  0  0
   17.8365   -9.8637  -18.9584 C   0  0  0  0  0  0  0  0  0  0  0  0
   18.0150   -8.8451  -17.8923 C   0  0  1  0  0  0  0  0  0  0  0  0
   16.7012   -8.5097  -17.4618 O   0  0  0  0  0  0  0  0  0  0  0  0
   18.7000   -9.3297  -16.6316 C   0  0  2  0  0  0  0  0  0  0  0  0
   17.8122  -10.3284  -15.9784 N   0  0  0  0  0  0  0  0  0  0  0  0
   19.0340   -8.2643  -15.6767 C   0  0  0  0  0  0  0  0  0  0  0  0
   18.2956   -8.1192  -14.6517 O   0  0  0  0  0  0  0  0  0  0  0  0
   20.1144   -7.3986  -15.8210 N   0  0  0  0  0  0  0  0  0  0  0  0
   20.3936   -6.2983  -14.8996 C   0  0  1  0  0  0  0  0  0  0  0  0
   21.8701   -6.3050  -14.6021 C   0  0  0  0  0  0  0  0  0  0  0  0
   22.3121   -5.1981  -13.7488 C   0  0  0  0  0  0  0  0  0  0  0  0
   21.6197   -4.8491  -12.7678 O   0  0  0  0  0  0  0  0  0  0  0  0
   20.0641   -5.0009  -15.5664 C   0  0  0  0  0  0  0  0  0  0  0  0
   20.0606   -4.9447  -16.8210 O   0  0  0  0  0  0  0  0  0  0  0  0
   23.5104   -4.5466  -14.0499 O   0  0  0  0  0  0  0  0  0  0  0  0
   19.7697   -3.8879  -14.8143 O   0  0  0  0  0  0  0  0  0  0  0  0
  2  1  1  0
  2  3  1  0
  4  3  1  0
  4  5  1  0
  5  6  1  6
  7  5  1  0
  7  8  2  0
 10  9  1  6
 10 12  1  0
 11 10  1  0
 12 13  1  1
 12 14  1  0
 13  7  1  0
 14 16  1  0
 15 14  2  0
 16 17  1  0
 17 21  1  0
 17 18  1  6
 19 18  1  0
 20 19  2  0
 21 22  2  0
 21 24  1  0
 23 19  1  0
M  END
$$$$
