MTD.pdb
     RDKit          3D

 24 23  0  0  1  0  0  0  0  0999 V2000
   30.4858  -20.1419  -20.2029 C   0  0  0  0  0  0  0  0  0  0  0  0
   30.8080  -21.7728  -19.4556 S   0  0  0  0  0  0  0  0  0  0  0  0
   29.7611  -21.9824  -17.9929 C   0  0  0  0  0  0  0  0  0  0  0  0
   28.9690  -20.7147  -17.7096 C   0  0  0  0  0  0  0  0  0  0  0  0
   28.1534  -20.8470  -16.4503 C   0  0  2  0  0  0  0  0  0  0  0  0
   27.6422  -22.1794  -16.2725 N   0  0  0  0  0  0  0  0  0  0  0  0
   27.0466  -19.8376  -16.4835 C   0  0  0  0  0  0  0  0  0  0  0  0
   27.2558  -18.6400  -16.8022 O   0  0  0  0  0  0  0  0  0  0  0  0
   25.7894  -18.2551  -18.3122 C   0  0  0  0  0  0  0  0  0  0  0  0
   24.5220  -18.7710  -17.7346 C   0  0  1  0  0  0  0  0  0  0  0  0
   24.2401  -19.9709  -18.4451 O   0  0  0  0  0  0  0  0  0  0  0  0
   24.5932  -19.2114  -16.2875 C   0  0  2  0  0  0  0  0  0  0  0  0
   25.7082  -20.1869  -16.1560 N   0  0  0  0  0  0  0  0  0  0  0  0
   23.3517  -19.8060  -15.7741 C   0  0  0  0  0  0  0  0  0  0  0  0
   23.3334  -21.0552  -15.5379 O   0  0  0  0  0  0  0  0  0  0  0  0
   22.1867  -19.0856  -15.5263 N   0  0  0  0  0  0  0  0  0  0  0  0
   20.9629  -19.6890  -15.0009 C   0  0  1  0  0  0  0  0  0  0  0  0
   20.5480  -18.9101  -13.7804 C   0  0  0  0  0  0  0  0  0  0  0  0
   19.3076  -19.3865  -13.1615 C   0  0  0  0  0  0  0  0  0  0  0  0
   18.2061  -18.9238  -13.5307 O   0  0  0  0  0  0  0  0  0  0  0  0
   19.8748  -19.5638  -16.0191 C   0  0  0  0  0  0  0  0  0  0  0  0
   19.9907  -18.7094  -16.9322 O   0  0  0  0  0  0  0  0  0  0  0  0
   19.3789  -20.3582  -12.1606 O   0  0  0  0  0  0  0  0  0  0  0  0
   18.7652  -20.3734  -15.9538 O   0  0  0  0  0  0  0  0  0  0  0  0
  2  1  1  0
  2  3  1  0
  4  3  1  0
  4  5  1  0
  5  6  1  6
  7  5  1  0
  7  8  2  0
 10  9  1  6
 10 12  1  0
 11 10  1  0
 12 13  1  6
 12 14  1  0
 13  7  1  0
 14 16  1  0
 15 14  2  0
 16 17  1  0
 17 21  1  0
 17 18  1  1
 19 18  1  0
 20 19  2  0
 21 22  2  0
 21 24  1  0
 23 19  1  0
M  END
$$$$
