MTD.pdb
     RDKit          3D

 24 23  0  0  1  0  0  0  0  0999 V2000
   10.9122  -11.3827  -15.8765 C   0  0  0  0  0  0  0  0  0  0  0  0
   12.5568  -10.7891  -15.3616 S   0  0  0  0  0  0  0  0  0  0  0  0
   13.8262  -11.9265  -15.9733 C   0  0  0  0  0  0  0  0  0  0  0  0
   15.1875  -11.5820  -15.3877 C   0  0  0  0  0  0  0  0  0  0  0  0
   16.2620  -12.4909  -15.9245 C   0  0  2  0  0  0  0  0  0  0  0  0
   16.0493  -13.8629  -15.5494 N   0  0  0  0  0  0  0  0  0  0  0  0
   17.5945  -11.9958  -15.4510 C   0  0  0  0  0  0  0  0  0  0  0  0
   18.0811  -12.3617  -14.3515 O   0  0  0  0  0  0  0  0  0  0  0  0
   20.6881  -12.6578  -17.1206 C   0  0  0  0  0  0  0  0  0  0  0  0
   20.7107  -11.1941  -16.8694 C   0  0  1  0  0  0  0  0  0  0  0  0
   20.2442  -10.5939  -18.0719 O   0  0  0  0  0  0  0  0  0  0  0  0
   19.7457  -10.6958  -15.8141 C   0  0  2  0  0  0  0  0  0  0  0  0
   18.3708  -11.0891  -16.2229 N   0  0  0  0  0  0  0  0  0  0  0  0
   19.7980   -9.2459  -15.5826 C   0  0  0  0  0  0  0  0  0  0  0  0
   18.7947   -8.5436  -15.9246 O   0  0  0  0  0  0  0  0  0  0  0  0
   20.8809   -8.5867  -15.0080 N   0  0  0  0  0  0  0  0  0  0  0  0
   20.9542   -7.1339  -14.8613 C   0  0  1  0  0  0  0  0  0  0  0  0
   21.6576   -6.8329  -13.5639 C   0  0  0  0  0  0  0  0  0  0  0  0
   21.8605   -5.4031  -13.3127 C   0  0  0  0  0  0  0  0  0  0  0  0
   20.8774   -4.6328  -13.2513 O   0  0  0  0  0  0  0  0  0  0  0  0
   21.7771   -6.5667  -15.9738 C   0  0  0  0  0  0  0  0  0  0  0  0
   21.8428   -5.3197  -16.1079 O   0  0  0  0  0  0  0  0  0  0  0  0
   23.1611   -4.9220  -13.1449 O   0  0  0  0  0  0  0  0  0  0  0  0
   22.4505   -7.4006  -16.8353 O   0  0  0  0  0  0  0  0  0  0  0  0
  2  1  1  0
  2  3  1  0
  4  3  1  0
  4  5  1  0
  5  6  1  1
  7  5  1  0
  7  8  2  0
 10  9  1  6
 10 12  1  0
 11 10  1  0
 12 13  1  6
 12 14  1  0
 13  7  1  0
 14 16  1  0
 15 14  2  0
 16 17  1  0
 17 21  1  0
 17 18  1  1
 19 18  1  0
 20 19  2  0
 21 22  2  0
 21 24  1  0
 23 19  1  0
M  END
$$$$
