MTD.pdb
     RDKit          3D

 24 23  0  0  1  0  0  0  0  0999 V2000
   29.0933  -18.7308   -5.7568 C   0  0  0  0  0  0  0  0  0  0  0  0
   27.6997  -19.8800   -5.5130 S   0  0  0  0  0  0  0  0  0  0  0  0
   27.6219  -21.0358   -6.9049 C   0  0  0  0  0  0  0  0  0  0  0  0
   26.8962  -20.4100   -8.0867 C   0  0  0  0  0  0  0  0  0  0  0  0
   26.9312  -21.3118   -9.2925 C   0  0  2  0  0  0  0  0  0  0  0  0
   28.2713  -21.7013   -9.6399 N   0  0  0  0  0  0  0  0  0  0  0  0
   26.2511  -20.6189  -10.4338 C   0  0  0  0  0  0  0  0  0  0  0  0
   26.8371  -19.7406  -11.1155 O   0  0  0  0  0  0  0  0  0  0  0  0
   26.6188  -20.5007  -13.1009 C   0  0  0  0  0  0  0  0  0  0  0  0
   25.1778  -20.8425  -13.2128 C   0  0  1  0  0  0  0  0  0  0  0  0
   25.1182  -22.2631  -13.1646 O   0  0  0  0  0  0  0  0  0  0  0  0
   24.3081  -20.4008  -12.0545 C   0  0  2  0  0  0  0  0  0  0  0  0
   24.9113  -20.9223  -10.7989 N   0  0  0  0  0  0  0  0  0  0  0  0
   22.9078  -20.8353  -12.1491 C   0  0  0  0  0  0  0  0  0  0  0  0
   22.2667  -21.0447  -11.0711 O   0  0  0  0  0  0  0  0  0  0  0  0
   22.2321  -21.0323  -13.3500 N   0  0  0  0  0  0  0  0  0  0  0  0
   20.7802  -21.1774  -13.4429 C   0  0  1  0  0  0  0  0  0  0  0  0
   20.1520  -19.9243  -12.8916 C   0  0  0  0  0  0  0  0  0  0  0  0
   18.7943  -20.1156  -12.3733 C   0  0  0  0  0  0  0  0  0  0  0  0
   18.4939  -21.1752  -11.7811 O   0  0  0  0  0  0  0  0  0  0  0  0
   20.3874  -21.2952  -14.8810 C   0  0  0  0  0  0  0  0  0  0  0  0
   21.0581  -20.6818  -15.7477 O   0  0  0  0  0  0  0  0  0  0  0  0
   17.8510  -19.1010  -12.5521 O   0  0  0  0  0  0  0  0  0  0  0  0
   19.3074  -22.0643  -15.2459 O   0  0  0  0  0  0  0  0  0  0  0  0
  2  1  1  0
  2  3  1  0
  4  3  1  0
  4  5  1  0
  5  6  1  6
  7  5  1  0
  7  8  2  0
 10  9  1  1
 10 12  1  0
 11 10  1  0
 12 13  1  1
 12 14  1  0
 13  7  1  0
 14 16  1  0
 15 14  2  0
 16 17  1  0
 17 21  1  0
 17 18  1  6
 19 18  1  0
 20 19  2  0
 21 22  2  0
 21 24  1  0
 23 19  1  0
M  END
$$$$
