MTD.pdb
     RDKit          3D

 24 23  0  0  1  0  0  0  0  0999 V2000
   28.5966  -11.1846  -16.0592 C   0  0  0  0  0  0  0  0  0  0  0  0
   28.2641  -12.9749  -15.9791 S   0  0  0  0  0  0  0  0  0  0  0  0
   26.5534  -13.2465  -15.4508 C   0  0  0  0  0  0  0  0  0  0  0  0
   25.6346  -12.1790  -16.0261 C   0  0  0  0  0  0  0  0  0  0  0  0
   24.2045  -12.4031  -15.6097 C   0  0  2  0  0  0  0  0  0  0  0  0
   23.7555  -13.7366  -15.9069 N   0  0  0  0  0  0  0  0  0  0  0  0
   23.3409  -11.3754  -16.2754 C   0  0  0  0  0  0  0  0  0  0  0  0
   22.7395  -11.6170  -17.3522 O   0  0  0  0  0  0  0  0  0  0  0  0
   20.8652  -11.1234  -17.1217 C   0  0  0  0  0  0  0  0  0  0  0  0
   20.8438   -9.8229  -16.4045 C   0  0  1  0  0  0  0  0  0  0  0  0
   20.5017  -10.1351  -15.0594 O   0  0  0  0  0  0  0  0  0  0  0  0
   22.1786   -9.1174  -16.2877 C   0  0  2  0  0  0  0  0  0  0  0  0
   23.1613  -10.0792  -15.7205 N   0  0  0  0  0  0  0  0  0  0  0  0
   22.1491   -7.8983  -15.4683 C   0  0  0  0  0  0  0  0  0  0  0  0
   22.4303   -7.9951  -14.2320 O   0  0  0  0  0  0  0  0  0  0  0  0
   21.8328   -6.6354  -15.9608 N   0  0  0  0  0  0  0  0  0  0  0  0
   21.8261   -5.4278  -15.1367 C   0  0  1  0  0  0  0  0  0  0  0  0
   22.4629   -4.3188  -15.9325 C   0  0  0  0  0  0  0  0  0  0  0  0
   22.4589   -3.0193  -15.2544 C   0  0  0  0  0  0  0  0  0  0  0  0
   21.9930   -2.9180  -14.0984 O   0  0  0  0  0  0  0  0  0  0  0  0
   20.4122   -5.0349  -14.8489 C   0  0  0  0  0  0  0  0  0  0  0  0
   19.4915   -5.5107  -15.5584 O   0  0  0  0  0  0  0  0  0  0  0  0
   22.9807   -1.9065  -15.9181 O   0  0  0  0  0  0  0  0  0  0  0  0
   20.1275   -4.1655  -13.8222 O   0  0  0  0  0  0  0  0  0  0  0  0
  2  1  1  0
  2  3  1  0
  4  3  1  0
  4  5  1  0
  5  6  1  6
  7  5  1  0
  7  8  2  0
 10  9  1  6
 10 12  1  0
 11 10  1  0
 12 13  1  1
 12 14  1  0
 13  7  1  0
 14 16  1  0
 15 14  2  0
 16 17  1  0
 17 21  1  0
 17 18  1  6
 19 18  1  0
 20 19  2  0
 21 22  2  0
 21 24  1  0
 23 19  1  0
M  END
$$$$
