MTD.pdb
     RDKit          3D

 24 23  0  0  1  0  0  0  0  0999 V2000
   28.1854  -12.7045  -15.7601 C   0  0  0  0  0  0  0  0  0  0  0  0
   27.4723  -14.0147  -14.7127 S   0  0  0  0  0  0  0  0  0  0  0  0
   25.7174  -14.2161  -15.1117 C   0  0  0  0  0  0  0  0  0  0  0  0
   25.0834  -12.8754  -15.4510 C   0  0  0  0  0  0  0  0  0  0  0  0
   23.6242  -13.0287  -15.7915 C   0  0  2  0  0  0  0  0  0  0  0  0
   23.3803  -14.1694  -16.6325 N   0  0  0  0  0  0  0  0  0  0  0  0
   23.1427  -11.7637  -16.4342 C   0  0  0  0  0  0  0  0  0  0  0  0
   23.1006  -11.6336  -17.6835 O   0  0  0  0  0  0  0  0  0  0  0  0
   20.8926  -11.2183  -17.8111 C   0  0  0  0  0  0  0  0  0  0  0  0
   20.7122  -10.0539  -16.9069 C   0  0  1  0  0  0  0  0  0  0  0  0
   19.9593  -10.5418  -15.8029 O   0  0  0  0  0  0  0  0  0  0  0  0
   21.9777   -9.5127  -16.2756 C   0  0  2  0  0  0  0  0  0  0  0  0
   22.7110  -10.6516  -15.6613 N   0  0  0  0  0  0  0  0  0  0  0  0
   21.7521   -8.4675  -15.2679 C   0  0  0  0  0  0  0  0  0  0  0  0
   22.4184   -8.5184  -14.1861 O   0  0  0  0  0  0  0  0  0  0  0  0
   20.8517   -7.4173  -15.4220 N   0  0  0  0  0  0  0  0  0  0  0  0
   20.8430   -6.2316  -14.5669 C   0  0  1  0  0  0  0  0  0  0  0  0
   22.1513   -5.5105  -14.7594 C   0  0  0  0  0  0  0  0  0  0  0  0
   22.2674   -4.2686  -13.9893 C   0  0  0  0  0  0  0  0  0  0  0  0
   22.1181   -3.1642  -14.5564 O   0  0  0  0  0  0  0  0  0  0  0  0
   19.7440   -5.3163  -15.0037 C   0  0  0  0  0  0  0  0  0  0  0  0
   19.4114   -5.2988  -16.2147 O   0  0  0  0  0  0  0  0  0  0  0  0
   22.5456   -4.3419  -12.6224 O   0  0  0  0  0  0  0  0  0  0  0  0
   19.1092   -4.5071  -14.0910 O   0  0  0  0  0  0  0  0  0  0  0  0
  2  1  1  0
  2  3  1  0
  4  3  1  0
  4  5  1  0
  5  6  1  6
  7  5  1  0
  7  8  2  0
 10  9  1  6
 10 12  1  0
 11 10  1  0
 12 13  1  1
 12 14  1  0
 13  7  1  0
 14 16  1  0
 15 14  2  0
 16 17  1  0
 17 21  1  0
 17 18  1  6
 19 18  1  0
 20 19  2  0
 21 22  2  0
 21 24  1  0
 23 19  1  0
M  END
$$$$
