MTD.pdb
     RDKit          3D

 24 23  0  0  1  0  0  0  0  0999 V2000
   28.3803  -14.1463  -14.9641 C   0  0  0  0  0  0  0  0  0  0  0  0
   27.0830  -12.9136  -15.3095 S   0  0  0  0  0  0  0  0  0  0  0  0
   26.8624  -12.7571  -17.1001 C   0  0  0  0  0  0  0  0  0  0  0  0
   25.8080  -11.7095  -17.4248 C   0  0  0  0  0  0  0  0  0  0  0  0
   24.5019  -12.0144  -16.7394 C   0  0  2  0  0  0  0  0  0  0  0  0
   23.9636  -13.2868  -17.1389 N   0  0  0  0  0  0  0  0  0  0  0  0
   23.5381  -10.9019  -17.0196 C   0  0  0  0  0  0  0  0  0  0  0  0
   23.4300  -10.3960  -18.1650 O   0  0  0  0  0  0  0  0  0  0  0  0
   19.8989  -11.0103  -16.8230 C   0  0  0  0  0  0  0  0  0  0  0  0
   20.3255   -9.8557  -15.9918 C   0  0  1  0  0  0  0  0  0  0  0  0
   20.4431  -10.3623  -14.6676 O   0  0  0  0  0  0  0  0  0  0  0  0
   21.7024   -9.3034  -16.2953 C   0  0  2  0  0  0  0  0  0  0  0  0
   22.7010  -10.3663  -16.0033 N   0  0  0  0  0  0  0  0  0  0  0  0
   22.0436   -8.0846  -15.5491 C   0  0  0  0  0  0  0  0  0  0  0  0
   22.7916   -8.1925  -14.5266 O   0  0  0  0  0  0  0  0  0  0  0  0
   21.5996   -6.8107  -15.8919 N   0  0  0  0  0  0  0  0  0  0  0  0
   21.9881   -5.6007  -15.1692 C   0  0  1  0  0  0  0  0  0  0  0  0
   21.7826   -4.4248  -16.0877 C   0  0  0  0  0  0  0  0  0  0  0  0
   22.2318   -3.1459  -15.5299 C   0  0  0  0  0  0  0  0  0  0  0  0
   22.7856   -3.1119  -14.4092 O   0  0  0  0  0  0  0  0  0  0  0  0
   21.0907   -5.4232  -13.9861 C   0  0  0  0  0  0  0  0  0  0  0  0
   19.9150   -5.8613  -14.0425 O   0  0  0  0  0  0  0  0  0  0  0  0
   22.0313   -1.9766  -16.2672 O   0  0  0  0  0  0  0  0  0  0  0  0
   21.5489   -4.7894  -12.8550 O   0  0  0  0  0  0  0  0  0  0  0  0
  2  1  1  0
  2  3  1  0
  4  3  1  0
  4  5  1  0
  5  6  1  6
  7  5  1  0
  7  8  2  0
 10  9  1  6
 10 12  1  0
 11 10  1  0
 12 13  1  1
 12 14  1  0
 13  7  1  0
 14 16  1  0
 15 14  2  0
 16 17  1  0
 17 21  1  0
 17 18  1  6
 19 18  1  0
 20 19  2  0
 21 22  2  0
 21 24  1  0
 23 19  1  0
M  END
$$$$
