MTD.pdb
     RDKit          3D

 24 23  0  0  1  0  0  0  0  0999 V2000
   29.9004  -19.6302   -6.0735 C   0  0  0  0  0  0  0  0  0  0  0  0
   28.5625  -19.6025   -4.8361 S   0  0  0  0  0  0  0  0  0  0  0  0
   26.9756  -19.8940   -5.6584 C   0  0  0  0  0  0  0  0  0  0  0  0
   27.1333  -19.8412   -7.1707 C   0  0  0  0  0  0  0  0  0  0  0  0
   25.8089  -20.0132   -7.8671 C   0  0  2  0  0  0  0  0  0  0  0  0
   25.1069  -21.1845   -7.4159 N   0  0  0  0  0  0  0  0  0  0  0  0
   26.0426  -20.0531   -9.3466 C   0  0  0  0  0  0  0  0  0  0  0  0
   26.6680  -19.1387   -9.9401 O   0  0  0  0  0  0  0  0  0  0  0  0
   26.3107  -22.2276  -13.7020 C   0  0  0  0  0  0  0  0  0  0  0  0
   26.1225  -22.2524  -12.2289 C   0  0  1  0  0  0  0  0  0  0  0  0
   27.4338  -22.2644  -11.6774 O   0  0  0  0  0  0  0  0  0  0  0  0
   25.4852  -21.0166  -11.6292 C   0  0  2  0  0  0  0  0  0  0  0  0
   25.5681  -21.1267  -10.1482 N   0  0  0  0  0  0  0  0  0  0  0  0
   24.0892  -20.7994  -12.0324 C   0  0  0  0  0  0  0  0  0  0  0  0
   23.2910  -20.2814  -11.1889 O   0  0  0  0  0  0  0  0  0  0  0  0
   23.5804  -21.1243  -13.2866 N   0  0  0  0  0  0  0  0  0  0  0  0
   22.2672  -20.6900  -13.7604 C   0  0  1  0  0  0  0  0  0  0  0  0
   22.2356  -19.1845  -13.7262 C   0  0  0  0  0  0  0  0  0  0  0  0
   20.9607  -18.6043  -14.1582 C   0  0  0  0  0  0  0  0  0  0  0  0
   19.8821  -19.1108  -13.7791 O   0  0  0  0  0  0  0  0  0  0  0  0
   22.0875  -21.1223  -15.1806 C   0  0  0  0  0  0  0  0  0  0  0  0
   20.9360  -21.1037  -15.6817 O   0  0  0  0  0  0  0  0  0  0  0  0
   20.9736  -17.4852  -14.9939 O   0  0  0  0  0  0  0  0  0  0  0  0
   23.1687  -21.5336  -15.9242 O   0  0  0  0  0  0  0  0  0  0  0  0
  2  1  1  0
  2  3  1  0
  4  3  1  0
  4  5  1  0
  5  6  1  1
  7  5  1  0
  7  8  2  0
 10  9  1  6
 10 12  1  0
 11 10  1  0
 12 13  1  1
 12 14  1  0
 13  7  1  0
 14 16  1  0
 15 14  2  0
 16 17  1  0
 17 21  1  0
 17 18  1  6
 19 18  1  0
 20 19  2  0
 21 22  2  0
 21 24  1  0
 23 19  1  0
M  END
$$$$
