MTD.pdb
     RDKit          3D

 24 23  0  0  1  0  0  0  0  0999 V2000
   28.7395  -20.0367   -4.8387 C   0  0  0  0  0  0  0  0  0  0  0  0
   28.2851  -19.4911   -6.5174 S   0  0  0  0  0  0  0  0  0  0  0  0
   26.6952  -20.2248   -6.9792 C   0  0  0  0  0  0  0  0  0  0  0  0
   26.2070  -19.6642   -8.3066 C   0  0  0  0  0  0  0  0  0  0  0  0
   25.9787  -20.7599   -9.3145 C   0  0  2  0  0  0  0  0  0  0  0  0
   27.1142  -21.6345   -9.4317 N   0  0  0  0  0  0  0  0  0  0  0  0
   25.6300  -20.1386  -10.6327 C   0  0  0  0  0  0  0  0  0  0  0  0
   24.7472  -19.2493  -10.7295 O   0  0  0  0  0  0  0  0  0  0  0  0
   28.3312  -19.1423  -13.3621 C   0  0  0  0  0  0  0  0  0  0  0  0
   27.1809  -19.8438  -13.9870 C   0  0  1  0  0  0  0  0  0  0  0  0
   27.5877  -21.2007  -14.1183 O   0  0  0  0  0  0  0  0  0  0  0  0
   25.9241  -19.9190  -13.1456 C   0  0  2  0  0  0  0  0  0  0  0  0
   26.2810  -20.5259  -11.8355 N   0  0  0  0  0  0  0  0  0  0  0  0
   24.8281  -20.6792  -13.7616 C   0  0  0  0  0  0  0  0  0  0  0  0
   24.7678  -21.9313  -13.5485 O   0  0  0  0  0  0  0  0  0  0  0  0
   23.8438  -20.1140  -14.5673 N   0  0  0  0  0  0  0  0  0  0  0  0
   22.4630  -20.5928  -14.6079 C   0  0  1  0  0  0  0  0  0  0  0  0
   21.8694  -20.4159  -13.2350 C   0  0  0  0  0  0  0  0  0  0  0  0
   20.4828  -20.8770  -13.1202 C   0  0  0  0  0  0  0  0  0  0  0  0
   19.5407  -20.0636  -13.2405 O   0  0  0  0  0  0  0  0  0  0  0  0
   21.6768  -19.7508  -15.5615 C   0  0  0  0  0  0  0  0  0  0  0  0
   20.4901  -20.0703  -15.8202 O   0  0  0  0  0  0  0  0  0  0  0  0
   20.2362  -22.2300  -12.8760 O   0  0  0  0  0  0  0  0  0  0  0  0
   22.2476  -18.6440  -16.1449 O   0  0  0  0  0  0  0  0  0  0  0  0
  2  1  1  0
  2  3  1  0
  4  3  1  0
  4  5  1  0
  5  6  1  6
  7  5  1  0
  7  8  2  0
 10  9  1  1
 10 12  1  0
 11 10  1  0
 12 13  1  1
 12 14  1  0
 13  7  1  0
 14 16  1  0
 15 14  2  0
 16 17  1  0
 17 21  1  0
 17 18  1  1
 19 18  1  0
 20 19  2  0
 21 22  2  0
 21 24  1  0
 23 19  1  0
M  END
$$$$
