HKK.pdb
     RDKit          3D

 29 29  0  0  1  0  0  0  0  0999 V2000
   26.4343  -21.8055  -14.9080 N   0  0  0  0  0  0  0  0  0  0  0  0
   25.1491  -22.3945  -15.2171 C   0  0  1  0  0  0  0  0  0  0  0  0
   25.1523  -23.8580  -14.8868 C   0  0  0  0  0  0  0  0  0  0  0  0
   26.0669  -24.6038  -15.7704 C   0  0  0  0  0  0  0  0  0  0  0  0
   26.7160  -24.0067  -16.8548 C   0  0  0  0  0  0  0  0  0  0  0  0
   27.4674  -24.9660  -17.4398 N   0  0  0  0  0  0  0  0  0  0  0  0
   27.2845  -26.1016  -16.7414 C   0  0  0  0  0  0  0  0  0  0  0  0
   26.4335  -25.8876  -15.7245 N   0  0  0  0  0  0  0  0  0  0  0  0
   24.1064  -21.7522  -14.3367 C   0  0  0  0  0  0  0  0  0  0  0  0
   24.4440  -21.3922  -13.1929 O   0  0  0  0  0  0  0  0  0  0  0  0
   22.7942  -21.5563  -14.7698 N   0  0  0  0  0  0  0  0  0  0  0  0
   21.8271  -20.8310  -14.0548 C   0  0  1  0  0  0  0  0  0  0  0  0
   21.2781  -19.5852  -14.6628 C   0  0  0  0  0  0  0  0  0  0  0  0
   20.3479  -18.8443  -13.7571 C   0  0  0  0  0  0  0  0  0  0  0  0
   19.6444  -17.6954  -14.4998 C   0  0  0  0  0  0  0  0  0  0  0  0
   18.6917  -17.0386  -13.5096 C   0  0  0  0  0  0  0  0  0  0  0  0
   18.1084  -15.8824  -14.1274 N   0  0  0  0  0  0  0  0  0  0  0  0
   20.7204  -21.7264  -13.6269 C   0  0  0  0  0  0  0  0  0  0  0  0
   20.2924  -22.5700  -14.4817 O   0  0  0  0  0  0  0  0  0  0  0  0
   20.1629  -21.6594  -12.3489 N   0  0  0  0  0  0  0  0  0  0  0  0
   19.1647  -22.7147  -11.9709 C   0  0  1  0  0  0  0  0  0  0  0  0
   19.4746  -23.0680  -10.5686 C   0  0  0  0  0  0  0  0  0  0  0  0
   18.6943  -24.0316   -9.7983 C   0  0  0  0  0  0  0  0  0  0  0  0
   19.1102  -24.4331   -8.4295 C   0  0  0  0  0  0  0  0  0  0  0  0
   18.1999  -25.4764   -7.8186 C   0  0  0  0  0  0  0  0  0  0  0  0
   18.6583  -25.8841   -6.5047 N   0  0  0  0  0  0  0  0  0  0  0  0
   17.8857  -22.0239  -12.2455 C   0  0  0  0  0  0  0  0  0  0  0  0
   17.5820  -20.7022  -11.9988 O   0  0  0  0  0  0  0  0  0  0  0  0
   16.9224  -22.6837  -12.7622 O   0  0  0  0  0  0  0  0  0  0  0  0
  2  3  1  0
  2  1  1  1
  3  4  1  0
  4  5  2  0
  4  8  1  0
  5  6  1  0
  6  7  1  0
  8  7  2  0
  9  2  1  0
  9 11  1  0
 10  9  2  0
 12 11  1  0
 13 14  1  0
 12 13  1  6
 15 14  1  0
 16 15  1  0
 16 17  1  0
 18 12  1  0
 18 19  2  0
 20 18  1  0
 21 20  1  0
 21 27  1  0
 21 22  1  1
 23 22  1  0
 24 23  1  0
 25 24  1  0
 26 25  1  0
 27 28  1  0
 29 27  2  0
M  END
$$$$
