HKK.pdb
     RDKit          3D

 29 29  0  0  1  0  0  0  0  0999 V2000
   21.8934  -18.1096  -17.8136 N   0  0  0  0  0  0  0  0  0  0  0  0
   21.1365  -17.3879  -18.8139 C   0  0  1  0  0  0  0  0  0  0  0  0
   19.6941  -17.7991  -18.7747 C   0  0  0  0  0  0  0  0  0  0  0  0
   19.5298  -19.2115  -19.1640 C   0  0  0  0  0  0  0  0  0  0  0  0
   20.1535  -19.7573  -20.2895 C   0  0  0  0  0  0  0  0  0  0  0  0
   19.7907  -21.0580  -20.3478 N   0  0  0  0  0  0  0  0  0  0  0  0
   18.9791  -21.2963  -19.3012 C   0  0  0  0  0  0  0  0  0  0  0  0
   18.8166  -20.1768  -18.5772 N   0  0  0  0  0  0  0  0  0  0  0  0
   21.1794  -15.9187  -18.4756 C   0  0  0  0  0  0  0  0  0  0  0  0
   21.2150  -15.5934  -17.2736 O   0  0  0  0  0  0  0  0  0  0  0  0
   21.1799  -14.9337  -19.4643 N   0  0  0  0  0  0  0  0  0  0  0  0
   21.2461  -13.5550  -19.2048 C   0  0  1  0  0  0  0  0  0  0  0  0
   21.9707  -12.6825  -20.1728 C   0  0  0  0  0  0  0  0  0  0  0  0
   22.0294  -11.2499  -19.7497 C   0  0  0  0  0  0  0  0  0  0  0  0
   22.7408  -10.3860  -20.8051 C   0  0  0  0  0  0  0  0  0  0  0  0
   22.7939   -8.9651  -20.2595 C   0  0  0  0  0  0  0  0  0  0  0  0
   23.5338   -8.1458  -21.1760 N   0  0  0  0  0  0  0  0  0  0  0  0
   19.8880  -13.0126  -18.9389 C   0  0  0  0  0  0  0  0  0  0  0  0
   18.9665  -13.3244  -19.7630 O   0  0  0  0  0  0  0  0  0  0  0  0
   19.6165  -12.1962  -17.8396 N   0  0  0  0  0  0  0  0  0  0  0  0
   18.2248  -11.6496  -17.7078 C   0  0  1  0  0  0  0  0  0  0  0  0
   17.5859  -12.4482  -16.6395 C   0  0  0  0  0  0  0  0  0  0  0  0
   16.2781  -12.1257  -16.0770 C   0  0  0  0  0  0  0  0  0  0  0  0
   15.7025  -12.9303  -14.9683 C   0  0  0  0  0  0  0  0  0  0  0  0
   14.3344  -12.4475  -14.5376 C   0  0  0  0  0  0  0  0  0  0  0  0
   13.8904  -13.1079  -13.3254 N   0  0  0  0  0  0  0  0  0  0  0  0
   18.4927  -10.2199  -17.4387 C   0  0  0  0  0  0  0  0  0  0  0  0
   17.5652   -9.2107  -17.2934 O   0  0  0  0  0  0  0  0  0  0  0  0
   19.7018   -9.8254  -17.3265 O   0  0  0  0  0  0  0  0  0  0  0  0
  2  3  1  0
  2  1  1  1
  3  4  1  0
  4  5  2  0
  4  8  1  0
  5  6  1  0
  6  7  1  0
  8  7  2  0
  9  2  1  0
  9 11  1  0
 10  9  2  0
 12 11  1  0
 13 14  1  0
 12 13  1  6
 15 14  1  0
 16 15  1  0
 16 17  1  0
 18 12  1  0
 18 19  2  0
 20 18  1  0
 21 20  1  0
 21 27  1  0
 21 22  1  1
 23 22  1  0
 24 23  1  0
 25 24  1  0
 26 25  1  0
 27 28  1  0
 29 27  2  0
M  END
$$$$
