HKK.pdb
     RDKit          3D

 29 29  0  0  1  0  0  0  0  0999 V2000
   24.6635  -14.2836  -18.2201 N   0  0  0  0  0  0  0  0  0  0  0  0
   24.3799  -13.8322  -16.8747 C   0  0  1  0  0  0  0  0  0  0  0  0
   25.6244  -13.2966  -16.2302 C   0  0  0  0  0  0  0  0  0  0  0  0
   26.6185  -14.3643  -16.0176 C   0  0  0  0  0  0  0  0  0  0  0  0
   26.6040  -15.1895  -14.8895 C   0  0  0  0  0  0  0  0  0  0  0  0
   27.6421  -16.0458  -15.0157 N   0  0  0  0  0  0  0  0  0  0  0  0
   28.2646  -15.7553  -16.1728 C   0  0  0  0  0  0  0  0  0  0  0  0
   27.6465  -14.7331  -16.7869 N   0  0  0  0  0  0  0  0  0  0  0  0
   23.4027  -12.6859  -16.9528 C   0  0  0  0  0  0  0  0  0  0  0  0
   23.4982  -11.8968  -17.9120 O   0  0  0  0  0  0  0  0  0  0  0  0
   22.4112  -12.4947  -15.9894 N   0  0  0  0  0  0  0  0  0  0  0  0
   21.3358  -11.6024  -16.1300 C   0  0  1  0  0  0  0  0  0  0  0  0
   20.0234  -11.9682  -15.5241 C   0  0  0  0  0  0  0  0  0  0  0  0
   19.4332  -13.2157  -16.0986 C   0  0  0  0  0  0  0  0  0  0  0  0
   18.0054  -13.4487  -15.5756 C   0  0  0  0  0  0  0  0  0  0  0  0
   17.4734  -14.6976  -16.2660 C   0  0  0  0  0  0  0  0  0  0  0  0
   16.1579  -14.9770  -15.7658 N   0  0  0  0  0  0  0  0  0  0  0  0
   21.7374  -10.2365  -15.7029 C   0  0  0  0  0  0  0  0  0  0  0  0
   22.5240  -10.1483  -14.7034 O   0  0  0  0  0  0  0  0  0  0  0  0
   21.2824   -9.0901  -16.3568 N   0  0  0  0  0  0  0  0  0  0  0  0
   21.8441   -7.7701  -15.9152 C   0  0  1  0  0  0  0  0  0  0  0  0
   21.6035   -6.8415  -17.0408 C   0  0  0  0  0  0  0  0  0  0  0  0
   22.0216   -5.4431  -17.0238 C   0  0  0  0  0  0  0  0  0  0  0  0
   21.9110   -4.5967  -18.2401 C   0  0  0  0  0  0  0  0  0  0  0  0
   22.4549   -3.1990  -18.0375 C   0  0  0  0  0  0  0  0  0  0  0  0
   22.5233   -2.4647  -19.2859 N   0  0  0  0  0  0  0  0  0  0  0  0
   21.1031   -7.5398  -14.6558 C   0  0  0  0  0  0  0  0  0  0  0  0
   21.5537   -6.8816  -13.5316 O   0  0  0  0  0  0  0  0  0  0  0  0
   19.9120   -7.9864  -14.5458 O   0  0  0  0  0  0  0  0  0  0  0  0
  2  3  1  0
  2  1  1  6
  3  4  1  0
  4  5  2  0
  4  8  1  0
  5  6  1  0
  6  7  1  0
  8  7  2  0
  9  2  1  0
  9 11  1  0
 10  9  2  0
 12 11  1  0
 13 14  1  0
 12 13  1  1
 15 14  1  0
 16 15  1  0
 16 17  1  0
 18 12  1  0
 18 19  2  0
 20 18  1  0
 21 20  1  0
 21 27  1  0
 21 22  1  6
 23 22  1  0
 24 23  1  0
 25 24  1  0
 26 25  1  0
 27 28  1  0
 29 27  2  0
M  END
$$$$
