HKK.pdb
     RDKit          3D

 29 29  0  0  1  0  0  0  0  0999 V2000
   19.1121   -9.5808  -13.1710 N   0  0  0  0  0  0  0  0  0  0  0  0
   19.0306   -9.3782  -11.7404 C   0  0  1  0  0  0  0  0  0  0  0  0
   20.2027   -8.5748  -11.2591 C   0  0  0  0  0  0  0  0  0  0  0  0
   20.5002   -7.4600  -12.1768 C   0  0  0  0  0  0  0  0  0  0  0  0
   21.3773   -7.5909  -13.2572 C   0  0  0  0  0  0  0  0  0  0  0  0
   21.4165   -6.3914  -13.8790 N   0  0  0  0  0  0  0  0  0  0  0  0
   20.5972   -5.5627  -13.2061 C   0  0  0  0  0  0  0  0  0  0  0  0
   20.0368   -6.2071  -12.1694 N   0  0  0  0  0  0  0  0  0  0  0  0
   17.7950   -8.5656  -11.4440 C   0  0  0  0  0  0  0  0  0  0  0  0
   17.3966   -7.7646  -12.3110 O   0  0  0  0  0  0  0  0  0  0  0  0
   17.1013   -8.6904  -10.2395 N   0  0  0  0  0  0  0  0  0  0  0  0
   15.8541   -8.0981   -9.9819 C   0  0  1  0  0  0  0  0  0  0  0  0
   14.8967   -8.8139   -9.0907 C   0  0  0  0  0  0  0  0  0  0  0  0
   13.5182   -8.2363   -9.1171 C   0  0  0  0  0  0  0  0  0  0  0  0
   12.5645   -9.0289   -8.2067 C   0  0  0  0  0  0  0  0  0  0  0  0
   11.2074   -8.3408   -8.2720 C   0  0  0  0  0  0  0  0  0  0  0  0
   10.2481   -9.1437   -7.5692 N   0  0  0  0  0  0  0  0  0  0  0  0
   16.0320   -6.6948   -9.5256 C   0  0  0  0  0  0  0  0  0  0  0  0
   16.9194   -6.4815   -8.6353 O   0  0  0  0  0  0  0  0  0  0  0  0
   15.2691   -5.6445  -10.0391 N   0  0  0  0  0  0  0  0  0  0  0  0
   15.5431   -4.2657   -9.5132 C   0  0  1  0  0  0  0  0  0  0  0  0
   15.3843   -3.3614  -10.6726 C   0  0  0  0  0  0  0  0  0  0  0  0
   15.4102   -1.9064  -10.5582 C   0  0  0  0  0  0  0  0  0  0  0  0
   15.1583   -1.0414  -11.7398 C   0  0  0  0  0  0  0  0  0  0  0  0
   15.1332    0.4324  -11.3972 C   0  0  0  0  0  0  0  0  0  0  0  0
   16.4130    1.0639  -11.6538 N   0  0  0  0  0  0  0  0  0  0  0  0
   14.5561   -4.1661   -8.4158 C   0  0  0  0  0  0  0  0  0  0  0  0
   14.6445   -3.3859   -7.2830 O   0  0  0  0  0  0  0  0  0  0  0  0
   13.4897   -4.8658   -8.4747 O   0  0  0  0  0  0  0  0  0  0  0  0
  2  3  1  0
  2  1  1  6
  3  4  1  0
  4  5  2  0
  4  8  1  0
  5  6  1  0
  6  7  1  0
  8  7  2  0
  9  2  1  0
  9 11  1  0
 10  9  2  0
 12 11  1  0
 13 14  1  0
 12 13  1  1
 15 14  1  0
 16 15  1  0
 16 17  1  0
 18 12  1  0
 18 19  2  0
 20 18  1  0
 21 20  1  0
 21 27  1  0
 21 22  1  6
 23 22  1  0
 24 23  1  0
 25 24  1  0
 26 25  1  0
 27 28  1  0
 29 27  2  0
M  END
$$$$
