HKK.pdb
     RDKit          3D

 29 29  0  0  1  0  0  0  0  0999 V2000
   25.8001  -34.9410   -7.8451 N   0  0  0  0  0  0  0  0  0  0  0  0
   26.4456  -33.9377   -7.0259 C   0  0  1  0  0  0  0  0  0  0  0  0
   25.4205  -33.1213   -6.2954 C   0  0  0  0  0  0  0  0  0  0  0  0
   24.8228  -32.1009   -7.1759 C   0  0  0  0  0  0  0  0  0  0  0  0
   24.7197  -32.2707   -8.5594 C   0  0  0  0  0  0  0  0  0  0  0  0
   24.1299  -31.1575   -9.0491 N   0  0  0  0  0  0  0  0  0  0  0  0
   23.8831  -30.3420   -8.0074 C   0  0  0  0  0  0  0  0  0  0  0  0
   24.3024  -30.9104   -6.8651 N   0  0  0  0  0  0  0  0  0  0  0  0
   27.2717  -34.6386   -5.9767 C   0  0  0  0  0  0  0  0  0  0  0  0
   26.7851  -35.6401   -5.4180 O   0  0  0  0  0  0  0  0  0  0  0  0
   28.5477  -34.1960   -5.6251 N   0  0  0  0  0  0  0  0  0  0  0  0
   29.3426  -34.7889   -4.6305 C   0  0  1  0  0  0  0  0  0  0  0  0
   30.8055  -34.5005   -4.6227 C   0  0  0  0  0  0  0  0  0  0  0  0
   31.6329  -35.6213   -5.1649 C   0  0  0  0  0  0  0  0  0  0  0  0
   33.1207  -35.2354   -5.2283 C   0  0  0  0  0  0  0  0  0  0  0  0
   33.8603  -36.4048   -5.8645 C   0  0  0  0  0  0  0  0  0  0  0  0
   35.2668  -36.1208   -5.8572 N   0  0  0  0  0  0  0  0  0  0  0  0
   28.7610  -34.5388   -3.2858 C   0  0  0  0  0  0  0  0  0  0  0  0
   28.4218  -33.3404   -3.0134 O   0  0  0  0  0  0  0  0  0  0  0  0
   28.5870  -35.5603   -2.3502 N   0  0  0  0  0  0  0  0  0  0  0  0
   27.9046  -35.2108   -1.0599 C   0  0  1  0  0  0  0  0  0  0  0  0
   26.6612  -36.0113   -1.0407 C   0  0  0  0  0  0  0  0  0  0  0  0
   25.5488  -35.7345   -0.1370 C   0  0  0  0  0  0  0  0  0  0  0  0
   24.3278  -36.5812   -0.1449 C   0  0  0  0  0  0  0  0  0  0  0  0
   23.2509  -36.0720    0.7887 C   0  0  0  0  0  0  0  0  0  0  0  0
   22.0249  -36.8355    0.6592 N   0  0  0  0  0  0  0  0  0  0  0  0
   28.9554  -35.5382   -0.0714 C   0  0  0  0  0  0  0  0  0  0  0  0
   29.0280  -35.1169    1.2390 O   0  0  0  0  0  0  0  0  0  0  0  0
   29.9285  -36.2857   -0.4245 O   0  0  0  0  0  0  0  0  0  0  0  0
  2  3  1  0
  2  1  1  6
  3  4  1  0
  4  5  2  0
  4  8  1  0
  5  6  1  0
  6  7  1  0
  8  7  2  0
  9  2  1  0
  9 11  1  0
 10  9  2  0
 12 11  1  0
 13 14  1  0
 12 13  1  1
 15 14  1  0
 16 15  1  0
 16 17  1  0
 18 12  1  0
 18 19  2  0
 20 18  1  0
 21 20  1  0
 21 27  1  0
 21 22  1  1
 23 22  1  0
 24 23  1  0
 25 24  1  0
 26 25  1  0
 27 28  1  0
 29 27  2  0
M  END
$$$$
