HKK.pdb
     RDKit          3D

 29 29  0  0  1  0  0  0  0  0999 V2000
   23.1668  -22.2613  -13.0176 N   0  0  0  0  0  0  0  0  0  0  0  0
   22.9594  -20.8344  -13.1408 C   0  0  1  0  0  0  0  0  0  0  0  0
   22.4755  -20.2628  -11.8407 C   0  0  0  0  0  0  0  0  0  0  0  0
   21.2427  -20.9325  -11.3877 C   0  0  0  0  0  0  0  0  0  0  0  0
   20.0277  -20.8077  -12.0672 C   0  0  0  0  0  0  0  0  0  0  0  0
   19.1198  -21.5427  -11.3871 N   0  0  0  0  0  0  0  0  0  0  0  0
   19.7545  -22.0934  -10.3359 C   0  0  0  0  0  0  0  0  0  0  0  0
   21.0464  -21.7259  -10.3309 N   0  0  0  0  0  0  0  0  0  0  0  0
   24.2878  -20.1834  -13.4346 C   0  0  0  0  0  0  0  0  0  0  0  0
   24.3463  -18.9390  -13.4290 O   0  0  0  0  0  0  0  0  0  0  0  0
   25.4326  -20.9334  -13.7077 N   0  0  0  0  0  0  0  0  0  0  0  0
   26.6506  -20.3849  -14.1415 C   0  0  1  0  0  0  0  0  0  0  0  0
   27.9200  -21.0222  -13.6877 C   0  0  0  0  0  0  0  0  0  0  0  0
   28.0755  -21.0392  -12.2011 C   0  0  0  0  0  0  0  0  0  0  0  0
   29.4655  -21.5563  -11.7922 C   0  0  0  0  0  0  0  0  0  0  0  0
   29.5369  -21.4956  -10.2722 C   0  0  0  0  0  0  0  0  0  0  0  0
   30.7931  -22.0430   -9.8466 N   0  0  0  0  0  0  0  0  0  0  0  0
   26.6514  -20.2307  -15.6198 C   0  0  0  0  0  0  0  0  0  0  0  0
   25.8459  -20.9653  -16.2809 O   0  0  0  0  0  0  0  0  0  0  0  0
   27.4910  -19.3257  -16.2717 N   0  0  0  0  0  0  0  0  0  0  0  0
   27.1401  -18.9438  -17.6802 C   0  0  1  0  0  0  0  0  0  0  0  0
   25.9197  -18.1154  -17.5729 C   0  0  0  0  0  0  0  0  0  0  0  0
   25.2348  -17.5512  -18.7319 C   0  0  0  0  0  0  0  0  0  0  0  0
   23.9941  -16.7493  -18.5720 C   0  0  0  0  0  0  0  0  0  0  0  0
   23.4205  -16.2807  -19.8917 C   0  0  0  0  0  0  0  0  0  0  0  0
   22.1954  -15.5275  -19.7060 N   0  0  0  0  0  0  0  0  0  0  0  0
   28.3873  -18.2864  -18.1279 C   0  0  0  0  0  0  0  0  0  0  0  0
   28.7618  -18.0030  -19.4238 O   0  0  0  0  0  0  0  0  0  0  0  0
   29.2480  -17.9283  -17.2554 O   0  0  0  0  0  0  0  0  0  0  0  0
  2  3  1  0
  2  1  1  1
  3  4  1  0
  4  5  2  0
  4  8  1  0
  5  6  1  0
  6  7  1  0
  8  7  2  0
  9  2  1  0
  9 11  1  0
 10  9  2  0
 12 11  1  0
 13 14  1  0
 12 13  1  6
 15 14  1  0
 16 15  1  0
 16 17  1  0
 18 12  1  0
 18 19  2  0
 20 18  1  0
 21 20  1  0
 21 27  1  0
 21 22  1  1
 23 22  1  0
 24 23  1  0
 25 24  1  0
 26 25  1  0
 27 28  1  0
 29 27  2  0
M  END
$$$$
