HKK.pdb
     RDKit          3D

 29 29  0  0  1  0  0  0  0  0999 V2000
   27.0367  -32.3345   -8.9252 N   0  0  0  0  0  0  0  0  0  0  0  0
   25.9361  -32.8987   -8.1739 C   0  0  1  0  0  0  0  0  0  0  0  0
   25.2289  -33.9424   -8.9875 C   0  0  0  0  0  0  0  0  0  0  0  0
   24.4493  -33.3316  -10.0796 C   0  0  0  0  0  0  0  0  0  0  0  0
   23.5257  -32.3058   -9.8599 C   0  0  0  0  0  0  0  0  0  0  0  0
   22.9994  -31.9864  -11.0632 N   0  0  0  0  0  0  0  0  0  0  0  0
   23.5779  -32.7843  -11.9795 C   0  0  0  0  0  0  0  0  0  0  0  0
   24.4610  -33.6049  -11.3872 N   0  0  0  0  0  0  0  0  0  0  0  0
   26.4963  -33.5986   -6.9610 C   0  0  0  0  0  0  0  0  0  0  0  0
   25.7765  -34.4323   -6.3790 O   0  0  0  0  0  0  0  0  0  0  0  0
   27.7820  -33.3359   -6.4858 N   0  0  0  0  0  0  0  0  0  0  0  0
   28.3725  -34.0002   -5.3983 C   0  0  1  0  0  0  0  0  0  0  0  0
   29.8540  -33.9334   -5.2428 C   0  0  0  0  0  0  0  0  0  0  0  0
   30.5955  -34.6635   -6.3160 C   0  0  0  0  0  0  0  0  0  0  0  0
   32.1144  -34.6119   -6.0776 C   0  0  0  0  0  0  0  0  0  0  0  0
   32.7791  -35.2732   -7.2777 C   0  0  0  0  0  0  0  0  0  0  0  0
   34.1979  -35.0806   -7.1841 N   0  0  0  0  0  0  0  0  0  0  0  0
   27.7033  -33.6118   -4.1293 C   0  0  0  0  0  0  0  0  0  0  0  0
   27.4219  -32.3779   -3.9750 O   0  0  0  0  0  0  0  0  0  0  0  0
   27.3895  -34.5448   -3.1394 N   0  0  0  0  0  0  0  0  0  0  0  0
   26.5943  -34.0650   -1.9603 C   0  0  1  0  0  0  0  0  0  0  0  0
   25.2217  -34.5715   -2.1765 C   0  0  0  0  0  0  0  0  0  0  0  0
   24.1420  -34.3848   -1.2120 C   0  0  0  0  0  0  0  0  0  0  0  0
   22.7827  -34.9262   -1.4710 C   0  0  0  0  0  0  0  0  0  0  0  0
   21.7710  -34.5037   -0.4279 C   0  0  0  0  0  0  0  0  0  0  0  0
   20.4368  -34.9665   -0.7573 N   0  0  0  0  0  0  0  0  0  0  0  0
   27.3704  -34.6251   -0.8324 C   0  0  0  0  0  0  0  0  0  0  0  0
   27.3319  -34.2256    0.4863 O   0  0  0  0  0  0  0  0  0  0  0  0
   28.1854  -35.5826   -1.0546 O   0  0  0  0  0  0  0  0  0  0  0  0
  2  3  1  0
  2  1  1  6
  3  4  1  0
  4  5  2  0
  4  8  1  0
  5  6  1  0
  6  7  1  0
  8  7  2  0
  9  2  1  0
  9 11  1  0
 10  9  2  0
 12 11  1  0
 13 14  1  0
 12 13  1  1
 15 14  1  0
 16 15  1  0
 16 17  1  0
 18 12  1  0
 18 19  2  0
 20 18  1  0
 21 20  1  0
 21 27  1  0
 21 22  1  6
 23 22  1  0
 24 23  1  0
 25 24  1  0
 26 25  1  0
 27 28  1  0
 29 27  2  0
M  END
$$$$
