HKK.pdb
     RDKit          3D

 29 29  0  0  1  0  0  0  0  0999 V2000
   20.8114  -20.5665  -11.6034 N   0  0  0  0  0  0  0  0  0  0  0  0
   20.7670  -20.9389  -13.0011 C   0  0  1  0  0  0  0  0  0  0  0  0
   19.5465  -20.3630  -13.6566 C   0  0  0  0  0  0  0  0  0  0  0  0
   18.3205  -21.0345  -13.1882 C   0  0  0  0  0  0  0  0  0  0  0  0
   17.4129  -20.4203  -12.3207 C   0  0  0  0  0  0  0  0  0  0  0  0
   16.4174  -21.3077  -12.1008 N   0  0  0  0  0  0  0  0  0  0  0  0
   16.7053  -22.4177  -12.8050 C   0  0  0  0  0  0  0  0  0  0  0  0
   17.8620  -22.2576  -13.4687 N   0  0  0  0  0  0  0  0  0  0  0  0
   21.9608  -20.3313  -13.6942 C   0  0  0  0  0  0  0  0  0  0  0  0
   22.2709  -19.1585  -13.4105 O   0  0  0  0  0  0  0  0  0  0  0  0
   22.7118  -21.0434  -14.6305 N   0  0  0  0  0  0  0  0  0  0  0  0
   23.8976  -20.5701  -15.2158 C   0  0  1  0  0  0  0  0  0  0  0  0
   25.0049  -21.5376  -15.4628 C   0  0  0  0  0  0  0  0  0  0  0  0
   26.2081  -20.9123  -16.0921 C   0  0  0  0  0  0  0  0  0  0  0  0
   27.2692  -21.9709  -16.4385 C   0  0  0  0  0  0  0  0  0  0  0  0
   28.4760  -21.2294  -16.9982 C   0  0  0  0  0  0  0  0  0  0  0  0
   29.5399  -22.1693  -17.2064 N   0  0  0  0  0  0  0  0  0  0  0  0
   23.5944  -19.8069  -16.4547 C   0  0  0  0  0  0  0  0  0  0  0  0
   22.7218  -20.3009  -17.2423 O   0  0  0  0  0  0  0  0  0  0  0  0
   24.2282  -18.6006  -16.7577 N   0  0  0  0  0  0  0  0  0  0  0  0
   23.8486  -17.9201  -18.0406 C   0  0  1  0  0  0  0  0  0  0  0  0
   23.9904  -16.4718  -17.7770 C   0  0  0  0  0  0  0  0  0  0  0  0
   23.5842  -15.4444  -18.7310 C   0  0  0  0  0  0  0  0  0  0  0  0
   23.8407  -14.0058  -18.4616 C   0  0  0  0  0  0  0  0  0  0  0  0
   23.2387  -13.0933  -19.5082 C   0  0  0  0  0  0  0  0  0  0  0  0
   23.6505  -11.7159  -19.3186 N   0  0  0  0  0  0  0  0  0  0  0  0
   24.7879  -18.5461  -18.9966 C   0  0  0  0  0  0  0  0  0  0  0  0
   24.5854  -18.7654  -20.3423 O   0  0  0  0  0  0  0  0  0  0  0  0
   25.9234  -18.9512  -18.5762 O   0  0  0  0  0  0  0  0  0  0  0  0
  2  3  1  0
  2  1  1  1
  3  4  1  0
  4  5  2  0
  4  8  1  0
  5  6  1  0
  6  7  1  0
  8  7  2  0
  9  2  1  0
  9 11  1  0
 10  9  2  0
 12 11  1  0
 13 14  1  0
 12 13  1  6
 15 14  1  0
 16 15  1  0
 16 17  1  0
 18 12  1  0
 18 19  2  0
 20 18  1  0
 21 20  1  0
 21 27  1  0
 21 22  1  1
 23 22  1  0
 24 23  1  0
 25 24  1  0
 26 25  1  0
 27 28  1  0
 29 27  2  0
M  END
$$$$
