HKK.pdb
     RDKit          3D

 29 29  0  0  1  0  0  0  0  0999 V2000
   20.7165  -12.2135  -18.1946 N   0  0  0  0  0  0  0  0  0  0  0  0
   20.2006  -12.0703  -16.8501 C   0  0  1  0  0  0  0  0  0  0  0  0
   20.1725  -13.4007  -16.1570 C   0  0  0  0  0  0  0  0  0  0  0  0
   19.3077  -14.3577  -16.8710 C   0  0  0  0  0  0  0  0  0  0  0  0
   17.9837  -14.5990  -16.4937 C   0  0  0  0  0  0  0  0  0  0  0  0
   17.4920  -15.5198  -17.3524 N   0  0  0  0  0  0  0  0  0  0  0  0
   18.4752  -15.8276  -18.2181 C   0  0  0  0  0  0  0  0  0  0  0  0
   19.5824  -15.1238  -17.9304 N   0  0  0  0  0  0  0  0  0  0  0  0
   21.1453  -11.1923  -16.0682 C   0  0  0  0  0  0  0  0  0  0  0  0
   20.8942  -10.9834  -14.8660 O   0  0  0  0  0  0  0  0  0  0  0  0
   22.2752  -10.6193  -16.6537 N   0  0  0  0  0  0  0  0  0  0  0  0
   23.1414   -9.7317  -15.9946 C   0  0  1  0  0  0  0  0  0  0  0  0
   24.5525   -9.6323  -16.4662 C   0  0  0  0  0  0  0  0  0  0  0  0
   25.3269  -10.8985  -16.2880 C   0  0  0  0  0  0  0  0  0  0  0  0
   26.8308  -10.6685  -16.5155 C   0  0  0  0  0  0  0  0  0  0  0  0
   27.5330  -11.9919  -16.2415 C   0  0  0  0  0  0  0  0  0  0  0  0
   28.9514  -11.7793  -16.2829 N   0  0  0  0  0  0  0  0  0  0  0  0
   22.5303   -8.3794  -15.9096 C   0  0  0  0  0  0  0  0  0  0  0  0
   22.1803   -7.8302  -17.0057 O   0  0  0  0  0  0  0  0  0  0  0  0
   22.3407   -7.7254  -14.6910 N   0  0  0  0  0  0  0  0  0  0  0  0
   21.7520   -6.3452  -14.7281 C   0  0  1  0  0  0  0  0  0  0  0  0
   20.3322   -6.5307  -15.0982 C   0  0  0  0  0  0  0  0  0  0  0  0
   19.3312   -5.4759  -14.9719 C   0  0  0  0  0  0  0  0  0  0  0  0
   17.9018   -5.7364  -15.2831 C   0  0  0  0  0  0  0  0  0  0  0  0
   17.0229   -4.5213  -15.0795 C   0  0  0  0  0  0  0  0  0  0  0  0
   15.6483   -4.7850  -15.4586 N   0  0  0  0  0  0  0  0  0  0  0  0
   22.0553   -5.8575  -13.3649 C   0  0  0  0  0  0  0  0  0  0  0  0
   22.4682   -6.6064  -12.2839 O   0  0  0  0  0  0  0  0  0  0  0  0
   21.9295   -4.6130  -13.1086 O   0  0  0  0  0  0  0  0  0  0  0  0
  2  3  1  0
  2  1  1  6
  3  4  1  0
  4  5  2  0
  4  8  1  0
  5  6  1  0
  6  7  1  0
  8  7  2  0
  9  2  1  0
  9 11  1  0
 10  9  2  0
 12 11  1  0
 13 14  1  0
 12 13  1  6
 15 14  1  0
 16 15  1  0
 16 17  1  0
 18 12  1  0
 18 19  2  0
 20 18  1  0
 21 20  1  0
 21 27  1  0
 21 22  1  1
 23 22  1  0
 24 23  1  0
 25 24  1  0
 26 25  1  0
 27 28  1  0
 29 27  2  0
M  END
$$$$
