HKK.pdb
     RDKit          3D

 29 29  0  0  1  0  0  0  0  0999 V2000
   25.2378  -14.7238  -18.5891 N   0  0  0  0  0  0  0  0  0  0  0  0
   24.8104  -13.5761  -17.8181 C   0  0  1  0  0  0  0  0  0  0  0  0
   25.8517  -12.4970  -17.8668 C   0  0  0  0  0  0  0  0  0  0  0  0
   27.0626  -12.8882  -17.1223 C   0  0  0  0  0  0  0  0  0  0  0  0
   27.1217  -14.0449  -16.3399 C   0  0  0  0  0  0  0  0  0  0  0  0
   28.3627  -14.0956  -15.8067 N   0  0  0  0  0  0  0  0  0  0  0  0
   29.0333  -13.0145  -16.2454 C   0  0  0  0  0  0  0  0  0  0  0  0
   28.2476  -12.2761  -17.0463 N   0  0  0  0  0  0  0  0  0  0  0  0
   23.5668  -13.0097  -18.4563 C   0  0  0  0  0  0  0  0  0  0  0  0
   23.5375  -12.9081  -19.6975 O   0  0  0  0  0  0  0  0  0  0  0  0
   22.4676  -12.6042  -17.6980 N   0  0  0  0  0  0  0  0  0  0  0  0
   21.2666  -12.1222  -18.2439 C   0  0  1  0  0  0  0  0  0  0  0  0
   19.9798  -12.5616  -17.6322 C   0  0  0  0  0  0  0  0  0  0  0  0
   18.7754  -12.0485  -18.3538 C   0  0  0  0  0  0  0  0  0  0  0  0
   17.4777  -12.5659  -17.7100 C   0  0  0  0  0  0  0  0  0  0  0  0
   16.3197  -12.0217  -18.5361 C   0  0  0  0  0  0  0  0  0  0  0  0
   15.0867  -12.3832  -17.8973 N   0  0  0  0  0  0  0  0  0  0  0  0
   21.3057  -10.6404  -18.3532 C   0  0  0  0  0  0  0  0  0  0  0  0
   21.8505  -10.0014  -17.3937 O   0  0  0  0  0  0  0  0  0  0  0  0
   20.7738   -9.9624  -19.4514 N   0  0  0  0  0  0  0  0  0  0  0  0
   20.8853   -8.4657  -19.4637 C   0  0  1  0  0  0  0  0  0  0  0  0
   20.9966   -8.0891  -20.8896 C   0  0  0  0  0  0  0  0  0  0  0  0
   21.1633   -6.7105  -21.3393 C   0  0  0  0  0  0  0  0  0  0  0  0
   21.3745   -6.3945  -22.7758 C   0  0  0  0  0  0  0  0  0  0  0  0
   21.5751   -4.9165  -23.0313 C   0  0  0  0  0  0  0  0  0  0  0  0
   21.9495   -4.6569  -24.4079 N   0  0  0  0  0  0  0  0  0  0  0  0
   19.6591   -8.0717  -18.7362 C   0  0  0  0  0  0  0  0  0  0  0  0
   18.4214   -8.6750  -18.7999 O   0  0  0  0  0  0  0  0  0  0  0  0
   19.6982   -7.0628  -17.9546 O   0  0  0  0  0  0  0  0  0  0  0  0
  2  3  1  0
  2  1  1  6
  3  4  1  0
  4  5  2  0
  4  8  1  0
  5  6  1  0
  6  7  1  0
  8  7  2  0
  9  2  1  0
  9 11  1  0
 10  9  2  0
 12 11  1  0
 13 14  1  0
 12 13  1  1
 15 14  1  0
 16 15  1  0
 16 17  1  0
 18 12  1  0
 18 19  2  0
 20 18  1  0
 21 20  1  0
 21 27  1  0
 21 22  1  6
 23 22  1  0
 24 23  1  0
 25 24  1  0
 26 25  1  0
 27 28  1  0
 29 27  2  0
M  END
$$$$
