NEH.pdb
     RDKit          3D

 28 28  0  0  1  0  0  0  0  0999 V2000
    8.4031  -12.2681   18.6904 N   0  0  0  0  0  0  0  0  0  0  0  0
    7.8655  -13.5625   18.6650 C   0  0  0  0  0  0  0  0  0  0  0  0
    7.1829  -13.9102   17.6700 O   0  0  0  0  0  0  0  0  0  0  0  0
    8.0489  -14.5525   19.7378 C   0  0  0  0  0  0  0  0  0  0  0  0
    9.3176  -15.3868   19.5072 C   0  0  2  0  0  0  0  0  0  0  0  0
    9.1200  -16.3171   18.4149 N   0  0  0  0  0  0  0  0  0  0  0  0
    9.5164  -16.1641   20.7461 C   0  0  0  0  0  0  0  0  0  0  0  0
    8.5503  -16.7926   21.2281 O   0  0  0  0  0  0  0  0  0  0  0  0
   10.7977  -16.1685   21.3437 N   0  0  0  0  0  0  0  0  0  0  0  0
   11.0491  -17.0475   22.4507 C   0  0  1  0  0  0  0  0  0  0  0  0
   12.4952  -17.4834   22.5256 C   0  0  0  0  0  0  0  0  0  0  0  0
   12.8726  -18.4011   21.3913 C   0  0  0  0  0  0  0  0  0  0  0  0
   14.3232  -18.7014   21.5105 C   0  0  0  0  0  0  0  0  0  0  0  0
   14.7851  -19.4852   22.3872 O   0  0  0  0  0  0  0  0  0  0  0  0
   10.5850  -16.4114   23.6875 C   0  0  0  0  0  0  0  0  0  0  0  0
   10.2699  -15.2071   23.7029 O   0  0  0  0  0  0  0  0  0  0  0  0
   15.2648  -18.1265   20.6496 O   0  0  0  0  0  0  0  0  0  0  0  0
   10.4944  -17.1708   24.8722 N   0  0  0  0  0  0  0  0  0  0  0  0
    9.5659  -16.7132   25.9061 C   0  0  1  0  0  0  0  0  0  0  0  0
    8.1919  -16.7816   25.2891 C   0  0  0  0  0  0  0  0  0  0  0  0
    7.6621  -15.4186   25.0863 C   0  0  0  0  0  0  0  0  0  0  0  0
    8.2486  -14.2253   25.3678 C   0  0  0  0  0  0  0  0  0  0  0  0
    7.3900  -13.2302   25.0239 N   0  0  0  0  0  0  0  0  0  0  0  0
    6.2886  -13.7929   24.5371 C   0  0  0  0  0  0  0  0  0  0  0  0
    6.4427  -15.1119   24.5705 N   0  0  0  0  0  0  0  0  0  0  0  0
    9.7188  -17.5857   27.0777 C   0  0  0  0  0  0  0  0  0  0  0  0
    9.8023  -18.8254   26.9328 O   0  0  0  0  0  0  0  0  0  0  0  0
    9.7711  -17.0432   28.3441 O   0  0  0  0  0  0  0  0  0  0  0  0
  2  3  2  0
  2  1  1  0
  4  2  1  0
  5  7  1  0
  5  4  1  0
  5  6  1  6
  7  8  2  0
  9  7  1  0
  9 10  1  0
 10 11  1  1
 12 11  1  0
 13 17  1  0
 13 12  1  0
 14 13  2  0
 15 18  1  0
 15 10  1  0
 16 15  2  0
 19 26  1  0
 19 20  1  6
 19 18  1  0
 21 22  2  0
 21 20  1  0
 23 22  1  0
 24 25  2  0
 24 23  1  0
 25 21  1  0
 26 28  1  0
 27 26  2  0
M  END
$$$$
