NEH.pdb
     RDKit          3D

 28 28  0  0  1  0  0  0  0  0999 V2000
    7.8967  -12.3644   16.9691 N   0  0  0  0  0  0  0  0  0  0  0  0
    7.6568  -13.5542   17.6705 C   0  0  0  0  0  0  0  0  0  0  0  0
    6.8731  -14.3987   17.1709 O   0  0  0  0  0  0  0  0  0  0  0  0
    8.2681  -13.8841   18.9675 C   0  0  0  0  0  0  0  0  0  0  0  0
    9.3485  -14.9641   18.8090 C   0  0  2  0  0  0  0  0  0  0  0  0
    8.7487  -16.2296   18.4394 N   0  0  0  0  0  0  0  0  0  0  0  0
    9.9620  -15.1156   20.1429 C   0  0  0  0  0  0  0  0  0  0  0  0
   10.5627  -14.1431   20.6470 O   0  0  0  0  0  0  0  0  0  0  0  0
    9.8465  -16.3604   20.8032 N   0  0  0  0  0  0  0  0  0  0  0  0
   10.4648  -16.5297   22.0878 C   0  0  1  0  0  0  0  0  0  0  0  0
    9.8442  -17.6557   22.8840 C   0  0  0  0  0  0  0  0  0  0  0  0
   10.5565  -17.8882   24.1917 C   0  0  0  0  0  0  0  0  0  0  0  0
    9.9553  -19.0870   24.8320 C   0  0  0  0  0  0  0  0  0  0  0  0
    9.0389  -19.7626   24.2840 O   0  0  0  0  0  0  0  0  0  0  0  0
   11.9110  -16.6925   21.9101 C   0  0  0  0  0  0  0  0  0  0  0  0
   12.3641  -17.5982   21.1860 O   0  0  0  0  0  0  0  0  0  0  0  0
   10.3758  -19.5364   26.0887 O   0  0  0  0  0  0  0  0  0  0  0  0
   12.7987  -15.8146   22.5658 N   0  0  0  0  0  0  0  0  0  0  0  0
   14.2321  -16.0839   22.4521 C   0  0  1  0  0  0  0  0  0  0  0  0
   14.8560  -14.8053   21.9528 C   0  0  0  0  0  0  0  0  0  0  0  0
   14.6578  -14.6836   20.4949 C   0  0  0  0  0  0  0  0  0  0  0  0
   14.1094  -15.5786   19.6314 C   0  0  0  0  0  0  0  0  0  0  0  0
   14.1401  -15.0474   18.3814 N   0  0  0  0  0  0  0  0  0  0  0  0
   14.6974  -13.8435   18.4642 C   0  0  0  0  0  0  0  0  0  0  0  0
   15.0130  -13.6149   19.7342 N   0  0  0  0  0  0  0  0  0  0  0  0
   14.7276  -16.4928   23.7730 C   0  0  0  0  0  0  0  0  0  0  0  0
   14.4083  -17.6050   24.2484 O   0  0  0  0  0  0  0  0  0  0  0  0
   15.5473  -15.6529   24.4965 O   0  0  0  0  0  0  0  0  0  0  0  0
  2  3  2  0
  2  1  1  0
  4  2  1  0
  5  7  1  0
  5  4  1  0
  5  6  1  1
  7  8  2  0
  9  7  1  0
  9 10  1  0
 10 11  1  6
 12 11  1  0
 13 17  1  0
 13 12  1  0
 14 13  2  0
 15 18  1  0
 15 10  1  0
 16 15  2  0
 19 26  1  0
 19 20  1  1
 19 18  1  0
 21 22  2  0
 21 20  1  0
 23 22  1  0
 24 25  2  0
 24 23  1  0
 25 21  1  0
 26 28  1  0
 27 26  2  0
M  END
$$$$
