NEH.pdb
     RDKit          3D

 28 28  0  0  1  0  0  0  0  0999 V2000
    8.1618  -13.1834   17.1722 N   0  0  0  0  0  0  0  0  0  0  0  0
    8.4445  -13.6886   18.4489 C   0  0  0  0  0  0  0  0  0  0  0  0
    7.6173  -13.4865   19.3718 O   0  0  0  0  0  0  0  0  0  0  0  0
    9.6590  -14.4482   18.7845 C   0  0  0  0  0  0  0  0  0  0  0  0
   10.6311  -14.4870   17.5961 C   0  0  2  0  0  0  0  0  0  0  0  0
   10.0817  -15.2836   16.5185 N   0  0  0  0  0  0  0  0  0  0  0  0
   11.8466  -15.1596   18.0949 C   0  0  0  0  0  0  0  0  0  0  0  0
   11.7955  -16.3774   18.3689 O   0  0  0  0  0  0  0  0  0  0  0  0
   13.0282  -14.3979   18.2446 N   0  0  0  0  0  0  0  0  0  0  0  0
   14.2219  -15.0448   18.7113 C   0  0  1  0  0  0  0  0  0  0  0  0
   15.4611  -14.5586   17.9936 C   0  0  0  0  0  0  0  0  0  0  0  0
   15.5571  -15.1028   16.5914 C   0  0  0  0  0  0  0  0  0  0  0  0
   16.8390  -14.6314   16.0057 C   0  0  0  0  0  0  0  0  0  0  0  0
   17.9299  -14.6647   16.6423 O   0  0  0  0  0  0  0  0  0  0  0  0
   14.3153  -14.8943   20.1667 C   0  0  0  0  0  0  0  0  0  0  0  0
   14.3132  -13.7646   20.6900 O   0  0  0  0  0  0  0  0  0  0  0  0
   16.9074  -14.1200   14.7049 O   0  0  0  0  0  0  0  0  0  0  0  0
   14.4084  -16.0404   20.9830 N   0  0  0  0  0  0  0  0  0  0  0  0
   14.4278  -15.8452   22.4327 C   0  0  1  0  0  0  0  0  0  0  0  0
   13.5896  -16.9565   23.0121 C   0  0  0  0  0  0  0  0  0  0  0  0
   12.1560  -16.6409   22.8548 C   0  0  0  0  0  0  0  0  0  0  0  0
   11.5809  -15.5457   22.2917 C   0  0  0  0  0  0  0  0  0  0  0  0
   10.2311  -15.6758   22.3747 N   0  0  0  0  0  0  0  0  0  0  0  0
    9.9698  -16.8308   22.9785 C   0  0  0  0  0  0  0  0  0  0  0  0
   11.1236  -17.4201   23.2720 N   0  0  0  0  0  0  0  0  0  0  0  0
   15.8261  -15.8803   22.8810 C   0  0  0  0  0  0  0  0  0  0  0  0
   16.7383  -16.1696   22.0753 O   0  0  0  0  0  0  0  0  0  0  0  0
   16.1412  -15.5948   24.1924 O   0  0  0  0  0  0  0  0  0  0  0  0
  2  3  2  0
  2  1  1  0
  4  2  1  0
  5  7  1  0
  5  4  1  0
  5  6  1  6
  7  8  2  0
  9  7  1  0
  9 10  1  0
 10 11  1  6
 12 11  1  0
 13 17  1  0
 13 12  1  0
 14 13  2  0
 15 18  1  0
 15 10  1  0
 16 15  2  0
 19 26  1  0
 19 20  1  1
 19 18  1  0
 21 22  2  0
 21 20  1  0
 23 22  1  0
 24 25  2  0
 24 23  1  0
 25 21  1  0
 26 28  1  0
 27 26  2  0
M  END
$$$$
