NEH.pdb
     RDKit          3D

 28 28  0  0  1  0  0  0  0  0999 V2000
    6.8030  -12.1162   18.2349 N   0  0  0  0  0  0  0  0  0  0  0  0
    7.8360  -12.9550   18.6762 C   0  0  0  0  0  0  0  0  0  0  0  0
    8.7618  -13.2396   17.8769 O   0  0  0  0  0  0  0  0  0  0  0  0
    7.9095  -13.5310   20.0280 C   0  0  0  0  0  0  0  0  0  0  0  0
    8.8685  -14.7301   20.0650 C   0  0  2  0  0  0  0  0  0  0  0  0
    8.5670  -15.6526   18.9898 N   0  0  0  0  0  0  0  0  0  0  0  0
    8.6064  -15.4130   21.3470 C   0  0  0  0  0  0  0  0  0  0  0  0
    7.5497  -15.1593   21.9632 O   0  0  0  0  0  0  0  0  0  0  0  0
    9.5646  -16.3326   21.8319 N   0  0  0  0  0  0  0  0  0  0  0  0
    9.2357  -17.1524   22.9637 C   0  0  1  0  0  0  0  0  0  0  0  0
    9.9141  -18.5031   22.9155 C   0  0  0  0  0  0  0  0  0  0  0  0
    9.4284  -19.3432   21.7623 C   0  0  0  0  0  0  0  0  0  0  0  0
   10.1578  -20.6374   21.8016 C   0  0  0  0  0  0  0  0  0  0  0  0
   10.9725  -20.9307   22.7218 O   0  0  0  0  0  0  0  0  0  0  0  0
    9.5303  -16.4149   24.1962 C   0  0  0  0  0  0  0  0  0  0  0  0
   10.4843  -15.6166   24.2461 O   0  0  0  0  0  0  0  0  0  0  0  0
    9.9799  -21.6104   20.8117 O   0  0  0  0  0  0  0  0  0  0  0  0
    8.7252  -16.6112   25.3372 N   0  0  0  0  0  0  0  0  0  0  0  0
    9.0304  -15.8224   26.5309 C   0  0  1  0  0  0  0  0  0  0  0  0
    7.7042  -15.3322   27.0543 C   0  0  0  0  0  0  0  0  0  0  0  0
    7.3307  -14.0730   26.3801 C   0  0  0  0  0  0  0  0  0  0  0  0
    8.0695  -13.3067   25.5350 C   0  0  0  0  0  0  0  0  0  0  0  0
    7.3252  -12.2326   25.1635 N   0  0  0  0  0  0  0  0  0  0  0  0
    6.1443  -12.3275   25.7662 C   0  0  0  0  0  0  0  0  0  0  0  0
    6.1377  -13.4335   26.5019 N   0  0  0  0  0  0  0  0  0  0  0  0
    9.7443  -16.6862   27.4804 C   0  0  0  0  0  0  0  0  0  0  0  0
   10.1049  -16.2375   28.5911 O   0  0  0  0  0  0  0  0  0  0  0  0
   10.0211  -17.9965   27.1530 O   0  0  0  0  0  0  0  0  0  0  0  0
  2  3  2  0
  2  1  1  0
  4  2  1  0
  5  7  1  0
  5  4  1  0
  5  6  1  6
  7  8  2  0
  9  7  1  0
  9 10  1  0
 10 11  1  1
 12 11  1  0
 13 17  1  0
 13 12  1  0
 14 13  2  0
 15 18  1  0
 15 10  1  0
 16 15  2  0
 19 26  1  0
 19 20  1  1
 19 18  1  0
 21 22  2  0
 21 20  1  0
 23 22  1  0
 24 25  2  0
 24 23  1  0
 25 21  1  0
 26 28  1  0
 27 26  2  0
M  END
$$$$
