NEH.pdb
     RDKit          3D

 28 28  0  0  1  0  0  0  0  0999 V2000
   12.5059  -18.3120   15.0382 N   0  0  0  0  0  0  0  0  0  0  0  0
   13.8140  -18.8001   14.9120 C   0  0  0  0  0  0  0  0  0  0  0  0
   14.6343  -18.1483   14.2197 O   0  0  0  0  0  0  0  0  0  0  0  0
   14.2962  -20.0386   15.5429 C   0  0  0  0  0  0  0  0  0  0  0  0
   14.4517  -21.1612   14.5064 C   0  0  2  0  0  0  0  0  0  0  0  0
   13.1780  -21.4531   13.8816 N   0  0  0  0  0  0  0  0  0  0  0  0
   14.8772  -22.3524   15.2669 C   0  0  0  0  0  0  0  0  0  0  0  0
   14.6929  -23.4845   14.7719 O   0  0  0  0  0  0  0  0  0  0  0  0
   15.4799  -22.1673   16.5324 N   0  0  0  0  0  0  0  0  0  0  0  0
   16.1257  -23.2809   17.1681 C   0  0  1  0  0  0  0  0  0  0  0  0
   17.2620  -23.8391   16.3410 C   0  0  0  0  0  0  0  0  0  0  0  0
   17.8215  -25.1101   16.9267 C   0  0  0  0  0  0  0  0  0  0  0  0
   18.9784  -25.5266   16.0922 C   0  0  0  0  0  0  0  0  0  0  0  0
   20.1758  -25.3694   16.4635 O   0  0  0  0  0  0  0  0  0  0  0  0
   16.5466  -22.8895   18.5169 C   0  0  0  0  0  0  0  0  0  0  0  0
   17.3777  -21.9777   18.6835 O   0  0  0  0  0  0  0  0  0  0  0  0
   18.8022  -26.1210   14.8376 O   0  0  0  0  0  0  0  0  0  0  0  0
   16.0049  -23.5522   19.6376 N   0  0  0  0  0  0  0  0  0  0  0  0
   15.9449  -22.8172   20.9011 C   0  0  1  0  0  0  0  0  0  0  0  0
   14.7760  -23.3922   21.6603 C   0  0  0  0  0  0  0  0  0  0  0  0
   13.5300  -22.7085   21.2606 C   0  0  0  0  0  0  0  0  0  0  0  0
   13.3752  -21.6021   20.4866 C   0  0  0  0  0  0  0  0  0  0  0  0
   12.0489  -21.3237   20.3913 N   0  0  0  0  0  0  0  0  0  0  0  0
   11.3892  -22.2396   21.0932 C   0  0  0  0  0  0  0  0  0  0  0  0
   12.2732  -23.0790   21.6212 N   0  0  0  0  0  0  0  0  0  0  0  0
   17.2281  -22.9920   21.5941 C   0  0  0  0  0  0  0  0  0  0  0  0
   17.4380  -22.4163   22.6847 O   0  0  0  0  0  0  0  0  0  0  0  0
   18.2085  -23.7918   21.0465 O   0  0  0  0  0  0  0  0  0  0  0  0
  2  3  2  0
  2  1  1  0
  4  2  1  0
  5  7  1  0
  5  4  1  0
  5  6  1  1
  7  8  2  0
  9  7  1  0
  9 10  1  0
 10 11  1  6
 12 11  1  0
 13 17  1  0
 13 12  1  0
 14 13  2  0
 15 18  1  0
 15 10  1  0
 16 15  2  0
 19 26  1  0
 19 20  1  1
 19 18  1  0
 21 22  2  0
 21 20  1  0
 23 22  1  0
 24 25  2  0
 24 23  1  0
 25 21  1  0
 26 28  1  0
 27 26  2  0
M  END
$$$$
