NEH.pdb
     RDKit          3D

 28 28  0  0  1  0  0  0  0  0999 V2000
   15.3652  -15.5942   13.3331 N   0  0  0  0  0  0  0  0  0  0  0  0
   14.4448  -16.5881   13.6939 C   0  0  0  0  0  0  0  0  0  0  0  0
   13.8703  -17.2342   12.7832 O   0  0  0  0  0  0  0  0  0  0  0  0
   14.1023  -16.9292   15.0835 C   0  0  0  0  0  0  0  0  0  0  0  0
   14.7187  -15.9226   16.0663 C   0  0  2  0  0  0  0  0  0  0  0  0
   16.1485  -15.8225   15.8580 N   0  0  0  0  0  0  0  0  0  0  0  0
   14.4858  -16.4828   17.4118 C   0  0  0  0  0  0  0  0  0  0  0  0
   13.3115  -16.6213   17.8151 O   0  0  0  0  0  0  0  0  0  0  0  0
   15.6046  -16.8433   18.1975 N   0  0  0  0  0  0  0  0  0  0  0  0
   15.3905  -17.4250   19.4925 C   0  0  1  0  0  0  0  0  0  0  0  0
   16.6184  -18.1348   20.0173 C   0  0  0  0  0  0  0  0  0  0  0  0
   17.7535  -17.1817   20.2909 C   0  0  0  0  0  0  0  0  0  0  0  0
   18.9025  -17.9748   20.8000 C   0  0  0  0  0  0  0  0  0  0  0  0
   19.5697  -17.6293   21.8158 O   0  0  0  0  0  0  0  0  0  0  0  0
   14.8979  -16.3930   20.4101 C   0  0  0  0  0  0  0  0  0  0  0  0
   15.3558  -15.2360   20.3696 O   0  0  0  0  0  0  0  0  0  0  0  0
   19.3115  -19.1584   20.1756 O   0  0  0  0  0  0  0  0  0  0  0  0
   13.8952  -16.7135   21.3484 N   0  0  0  0  0  0  0  0  0  0  0  0
   13.4625  -15.6625   22.2695 C   0  0  1  0  0  0  0  0  0  0  0  0
   11.9561  -15.6505   22.2067 C   0  0  0  0  0  0  0  0  0  0  0  0
   11.5107  -15.1754   20.8818 C   0  0  0  0  0  0  0  0  0  0  0  0
   11.7118  -13.9644   20.2984 C   0  0  0  0  0  0  0  0  0  0  0  0
   11.1153  -13.9685   19.0778 N   0  0  0  0  0  0  0  0  0  0  0  0
   10.5528  -15.1601   18.9036 C   0  0  0  0  0  0  0  0  0  0  0  0
   10.7855  -15.8949   19.9855 N   0  0  0  0  0  0  0  0  0  0  0  0
   13.9840  -15.9809   23.6052 C   0  0  0  0  0  0  0  0  0  0  0  0
   14.5087  -17.0946   23.8271 O   0  0  0  0  0  0  0  0  0  0  0  0
   13.8980  -15.0539   24.6222 O   0  0  0  0  0  0  0  0  0  0  0  0
  2  3  2  0
  2  1  1  0
  4  2  1  0
  5  7  1  0
  5  4  1  0
  5  6  1  6
  7  8  2  0
  9  7  1  0
  9 10  1  0
 10 11  1  1
 12 11  1  0
 13 17  1  0
 13 12  1  0
 14 13  2  0
 15 18  1  0
 15 10  1  0
 16 15  2  0
 19 26  1  0
 19 20  1  1
 19 18  1  0
 21 22  2  0
 21 20  1  0
 23 22  1  0
 24 25  2  0
 24 23  1  0
 25 21  1  0
 26 28  1  0
 27 26  2  0
M  END
$$$$
