NEH.pdb
     RDKit          3D

 28 28  0  0  1  0  0  0  0  0999 V2000
    6.1402  -14.2561   12.7042 N   0  0  0  0  0  0  0  0  0  0  0  0
    7.3045  -14.9652   13.0309 C   0  0  0  0  0  0  0  0  0  0  0  0
    7.7470  -15.8052   12.2089 O   0  0  0  0  0  0  0  0  0  0  0  0
    8.0516  -14.7899   14.2862 C   0  0  0  0  0  0  0  0  0  0  0  0
    9.3148  -15.6633   14.3026 C   0  0  2  0  0  0  0  0  0  0  0  0
    8.9711  -17.0544   14.0922 N   0  0  0  0  0  0  0  0  0  0  0  0
    9.8785  -15.5266   15.6598 C   0  0  0  0  0  0  0  0  0  0  0  0
   10.2443  -14.3986   16.0528 O   0  0  0  0  0  0  0  0  0  0  0  0
    9.9839  -16.6819   16.4680 N   0  0  0  0  0  0  0  0  0  0  0  0
   10.6248  -16.5823   17.7489 C   0  0  1  0  0  0  0  0  0  0  0  0
   10.3570  -17.7860   18.6243 C   0  0  0  0  0  0  0  0  0  0  0  0
   10.7334  -19.0781   17.9460 C   0  0  0  0  0  0  0  0  0  0  0  0
   10.9131  -20.1109   18.9994 C   0  0  0  0  0  0  0  0  0  0  0  0
   12.0400  -20.6114   19.2752 O   0  0  0  0  0  0  0  0  0  0  0  0
   12.0562  -16.3311   17.5545 C   0  0  0  0  0  0  0  0  0  0  0  0
   12.6684  -16.8491   16.6023 O   0  0  0  0  0  0  0  0  0  0  0  0
    9.8333  -20.5894   19.7498 O   0  0  0  0  0  0  0  0  0  0  0  0
   12.7472  -15.4944   18.4550 N   0  0  0  0  0  0  0  0  0  0  0  0
   14.1716  -15.2629   18.2144 C   0  0  1  0  0  0  0  0  0  0  0  0
   14.3643  -13.7686   18.2721 C   0  0  0  0  0  0  0  0  0  0  0  0
   15.7781  -13.4324   18.0121 C   0  0  0  0  0  0  0  0  0  0  0  0
   16.8142  -14.2651   17.7282 C   0  0  0  0  0  0  0  0  0  0  0  0
   17.9384  -13.5183   17.5725 N   0  0  0  0  0  0  0  0  0  0  0  0
   17.6091  -12.2437   17.7562 C   0  0  0  0  0  0  0  0  0  0  0  0
   16.3090  -12.1814   18.0218 N   0  0  0  0  0  0  0  0  0  0  0  0
   14.9330  -15.9851   19.2420 C   0  0  0  0  0  0  0  0  0  0  0  0
   14.4224  -16.2108   20.3615 O   0  0  0  0  0  0  0  0  0  0  0  0
   16.2150  -16.4185   18.9784 O   0  0  0  0  0  0  0  0  0  0  0  0
  2  3  2  0
  2  1  1  0
  4  2  1  0
  5  7  1  0
  5  4  1  0
  5  6  1  1
  7  8  2  0
  9  7  1  0
  9 10  1  0
 10 11  1  6
 12 11  1  0
 13 17  1  0
 13 12  1  0
 14 13  2  0
 15 18  1  0
 15 10  1  0
 16 15  2  0
 19 26  1  0
 19 20  1  1
 19 18  1  0
 21 22  2  0
 21 20  1  0
 23 22  1  0
 24 25  2  0
 24 23  1  0
 25 21  1  0
 26 28  1  0
 27 26  2  0
M  END
$$$$
