NEH.pdb
     RDKit          3D

 28 28  0  0  1  0  0  0  0  0999 V2000
    8.4139  -13.6270   17.1648 N   0  0  0  0  0  0  0  0  0  0  0  0
    7.9543  -13.3631   18.4627 C   0  0  0  0  0  0  0  0  0  0  0  0
    7.3160  -12.3017   18.6699 O   0  0  0  0  0  0  0  0  0  0  0  0
    8.1720  -14.2559   19.6117 C   0  0  0  0  0  0  0  0  0  0  0  0
    8.9179  -15.5295   19.1869 C   0  0  2  0  0  0  0  0  0  0  0  0
    8.1006  -16.3189   18.2888 N   0  0  0  0  0  0  0  0  0  0  0  0
    9.1243  -16.3047   20.4258 C   0  0  0  0  0  0  0  0  0  0  0  0
    8.1495  -16.8902   20.9432 O   0  0  0  0  0  0  0  0  0  0  0  0
   10.4226  -16.3561   20.9833 N   0  0  0  0  0  0  0  0  0  0  0  0
   10.7134  -17.3408   21.9868 C   0  0  1  0  0  0  0  0  0  0  0  0
   12.0917  -17.9417   21.8245 C   0  0  0  0  0  0  0  0  0  0  0  0
   12.1394  -18.9668   20.7207 C   0  0  0  0  0  0  0  0  0  0  0  0
   13.5333  -19.4738   20.6287 C   0  0  0  0  0  0  0  0  0  0  0  0
   14.3988  -18.9491   19.8723 O   0  0  0  0  0  0  0  0  0  0  0  0
   10.5046  -16.7541   23.3141 C   0  0  0  0  0  0  0  0  0  0  0  0
   11.1454  -15.7486   23.6721 O   0  0  0  0  0  0  0  0  0  0  0  0
   13.9666  -20.5704   21.3824 O   0  0  0  0  0  0  0  0  0  0  0  0
    9.5684  -17.3341   24.1949 N   0  0  0  0  0  0  0  0  0  0  0  0
    9.4727  -16.7839   25.5470 C   0  0  1  0  0  0  0  0  0  0  0  0
    8.0086  -16.5090   25.7801 C   0  0  0  0  0  0  0  0  0  0  0  0
    7.6461  -15.1949   25.2134 C   0  0  0  0  0  0  0  0  0  0  0  0
    8.4469  -14.2744   24.6145 C   0  0  0  0  0  0  0  0  0  0  0  0
    7.6856  -13.2083   24.2547 N   0  0  0  0  0  0  0  0  0  0  0  0
    6.4334  -13.4595   24.6227 C   0  0  0  0  0  0  0  0  0  0  0  0
    6.3991  -14.6547   25.2016 N   0  0  0  0  0  0  0  0  0  0  0  0
   10.0334  -17.7675   26.4826 C   0  0  0  0  0  0  0  0  0  0  0  0
   10.0083  -17.5502   27.7143 O   0  0  0  0  0  0  0  0  0  0  0  0
   10.5906  -18.9361   26.0086 O   0  0  0  0  0  0  0  0  0  0  0  0
  2  3  2  0
  2  1  1  0
  4  2  1  0
  5  7  1  0
  5  4  1  0
  5  6  1  6
  7  8  2  0
  9  7  1  0
  9 10  1  0
 10 11  1  1
 12 11  1  0
 13 17  1  0
 13 12  1  0
 14 13  2  0
 15 18  1  0
 15 10  1  0
 16 15  2  0
 19 26  1  0
 19 20  1  1
 19 18  1  0
 21 22  2  0
 21 20  1  0
 23 22  1  0
 24 25  2  0
 24 23  1  0
 25 21  1  0
 26 28  1  0
 27 26  2  0
M  END
$$$$
