MNL.pdb
     RDKit          3D

 25 24  0  0  1  0  0  0  0  0999 V2000
    8.6642  -11.9049   19.2846 C   0  0  0  0  0  0  0  0  0  0  0  0
    7.1694  -12.5857   18.5630 S   0  0  0  0  0  0  0  0  0  0  0  0
    6.7724  -14.1854   19.3367 C   0  0  0  0  0  0  0  0  0  0  0  0
    8.0753  -14.8618   19.7054 C   0  0  0  0  0  0  0  0  0  0  0  0
    7.8092  -16.1796   20.4121 C   0  0  2  0  0  0  0  0  0  0  0  0
    6.7291  -15.9360   21.3497 N   0  0  0  0  0  0  0  0  0  0  0  0
    9.0665  -16.5390   21.1626 C   0  0  0  0  0  0  0  0  0  0  0  0
    9.5562  -17.6912   20.9987 O   0  0  0  0  0  0  0  0  0  0  0  0
   12.4602  -14.1431   20.0984 N   0  0  0  0  0  0  0  0  0  0  0  0
   12.4239  -15.2706   20.9611 C   0  0  0  0  0  0  0  0  0  0  0  0
   12.7037  -16.3885   20.4664 O   0  0  0  0  0  0  0  0  0  0  0  0
   12.0711  -15.1496   22.3936 C   0  0  0  0  0  0  0  0  0  0  0  0
   10.8824  -15.9828   22.7629 C   0  0  2  0  0  0  0  0  0  0  0  0
    9.6975  -15.6303   22.0300 N   0  0  0  0  0  0  0  0  0  0  0  0
   10.6357  -15.9558   24.2426 C   0  0  0  0  0  0  0  0  0  0  0  0
   11.6063  -16.0138   25.0389 O   0  0  0  0  0  0  0  0  0  0  0  0
    8.6958  -12.5436   26.4467 C   0  0  0  0  0  0  0  0  0  0  0  0
    7.8467  -13.6495   25.9680 C   0  0  2  0  0  0  0  0  0  0  0  0
    6.3657  -13.1676   26.0096 C   0  0  0  0  0  0  0  0  0  0  0  0
    7.9587  -14.9941   26.5447 C   0  0  0  0  0  0  0  0  0  0  0  0
    9.1831  -15.7635   26.2679 C   0  0  2  0  0  0  0  0  0  0  0  0
    9.3315  -15.8663   24.7784 N   0  0  0  0  0  0  0  0  0  0  0  0
    9.1440  -17.1530   26.7183 C   0  0  0  0  0  0  0  0  0  0  0  0
    8.9007  -18.1037   25.9487 O   0  0  0  0  0  0  0  0  0  0  0  0
    9.3952  -17.4233   28.0884 O   0  0  0  0  0  0  0  0  0  0  0  0
  2  1  1  0
  3  2  1  0
  4  3  1  0
  5  4  1  0
  5  6  1  1
  7  8  2  0
  7  5  1  0
  9 10  1  0
 10 12  1  0
 10 11  2  0
 13 12  1  1
 13 14  1  0
 14  7  1  0
 15 16  2  0
 15 13  1  0
 18 17  1  1
 18 20  1  0
 18 19  1  0
 21 20  1  6
 21 22  1  0
 22 15  1  0
 23 21  1  0
 24 23  2  0
 25 23  1  0
M  END
$$$$
