MNL.pdb
     RDKit          3D

 25 24  0  0  1  0  0  0  0  0999 V2000
    7.7036  -11.9710   18.8311 C   0  0  0  0  0  0  0  0  0  0  0  0
    7.5050  -13.5122   17.9347 S   0  0  0  0  0  0  0  0  0  0  0  0
    8.1825  -14.8945   18.9068 C   0  0  0  0  0  0  0  0  0  0  0  0
    9.4013  -14.3899   19.6493 C   0  0  0  0  0  0  0  0  0  0  0  0
   10.0220  -15.5050   20.4727 C   0  0  2  0  0  0  0  0  0  0  0  0
    9.9733  -16.7013   19.6533 N   0  0  0  0  0  0  0  0  0  0  0  0
    9.1560  -15.6857   21.6936 C   0  0  0  0  0  0  0  0  0  0  0  0
    8.8468  -14.6643   22.3683 O   0  0  0  0  0  0  0  0  0  0  0  0
    5.2361  -19.0467   23.7844 N   0  0  0  0  0  0  0  0  0  0  0  0
    6.4794  -18.7698   24.4124 C   0  0  0  0  0  0  0  0  0  0  0  0
    6.4901  -18.6811   25.6633 O   0  0  0  0  0  0  0  0  0  0  0  0
    7.7264  -18.5897   23.6354 C   0  0  0  0  0  0  0  0  0  0  0  0
    8.0177  -17.1491   23.3460 C   0  0  2  0  0  0  0  0  0  0  0  0
    8.6911  -16.9513   22.0920 N   0  0  0  0  0  0  0  0  0  0  0  0
    8.7689  -16.5069   24.4748 C   0  0  0  0  0  0  0  0  0  0  0  0
   10.0245  -16.4608   24.4432 O   0  0  0  0  0  0  0  0  0  0  0  0
    7.5813  -12.3386   26.0761 C   0  0  0  0  0  0  0  0  0  0  0  0
    7.0981  -13.5472   26.7682 C   0  0  2  0  0  0  0  0  0  0  0  0
    5.9467  -13.1206   27.7272 C   0  0  0  0  0  0  0  0  0  0  0  0
    8.0285  -14.4456   27.4612 C   0  0  0  0  0  0  0  0  0  0  0  0
    8.9316  -15.2697   26.6409 C   0  0  2  0  0  0  0  0  0  0  0  0
    8.1037  -15.9447   25.5872 N   0  0  0  0  0  0  0  0  0  0  0  0
    9.5665  -16.3743   27.3564 C   0  0  0  0  0  0  0  0  0  0  0  0
   10.3902  -16.1960   28.2757 O   0  0  0  0  0  0  0  0  0  0  0  0
    9.2259  -17.7006   26.9849 O   0  0  0  0  0  0  0  0  0  0  0  0
  2  1  1  0
  3  2  1  0
  4  3  1  0
  5  4  1  0
  5  6  1  6
  7  8  2  0
  7  5  1  0
  9 10  1  0
 10 12  1  0
 10 11  2  0
 13 12  1  1
 13 14  1  0
 14  7  1  0
 15 16  2  0
 15 13  1  0
 18 17  1  1
 18 20  1  0
 18 19  1  0
 21 20  1  1
 21 22  1  0
 22 15  1  0
 23 21  1  0
 24 23  2  0
 25 23  1  0
M  END
$$$$
