MNL.pdb
     RDKit          3D

 25 24  0  0  1  0  0  0  0  0999 V2000
    2.4880  -19.2718   22.4449 C   0  0  0  0  0  0  0  0  0  0  0  0
    3.0862  -18.7782   20.8272 S   0  0  0  0  0  0  0  0  0  0  0  0
    4.8989  -18.6094   20.8540 C   0  0  0  0  0  0  0  0  0  0  0  0
    5.4506  -19.6494   21.8056 C   0  0  0  0  0  0  0  0  0  0  0  0
    5.9290  -18.9947   23.0899 C   0  0  2  0  0  0  0  0  0  0  0  0
    4.9798  -17.9411   23.3963 N   0  0  0  0  0  0  0  0  0  0  0  0
    7.2823  -18.3957   22.8015 C   0  0  0  0  0  0  0  0  0  0  0  0
    8.2542  -19.1756   22.5979 O   0  0  0  0  0  0  0  0  0  0  0  0
   10.0766  -16.8872   19.7298 N   0  0  0  0  0  0  0  0  0  0  0  0
    8.9398  -16.1572   20.1676 C   0  0  0  0  0  0  0  0  0  0  0  0
    7.9506  -16.1082   19.3984 O   0  0  0  0  0  0  0  0  0  0  0  0
    8.9060  -15.4734   21.4800 C   0  0  0  0  0  0  0  0  0  0  0  0
    8.7952  -16.4343   22.6237 C   0  0  2  0  0  0  0  0  0  0  0  0
    7.4829  -17.0051   22.7551 N   0  0  0  0  0  0  0  0  0  0  0  0
    9.2473  -15.8067   23.9093 C   0  0  0  0  0  0  0  0  0  0  0  0
   10.4187  -15.3624   24.0096 O   0  0  0  0  0  0  0  0  0  0  0  0
    8.0582  -11.9735   25.5713 C   0  0  0  0  0  0  0  0  0  0  0  0
    7.2733  -13.1589   25.9609 C   0  0  2  0  0  0  0  0  0  0  0  0
    5.9177  -12.6630   26.5474 C   0  0  0  0  0  0  0  0  0  0  0  0
    7.8486  -14.1981   26.8225 C   0  0  0  0  0  0  0  0  0  0  0  0
    8.9207  -15.0398   26.2661 C   0  0  2  0  0  0  0  0  0  0  0  0
    8.3892  -15.6968   25.0263 N   0  0  0  0  0  0  0  0  0  0  0  0
    9.3211  -16.1578   27.1175 C   0  0  0  0  0  0  0  0  0  0  0  0
    9.0415  -17.3430   26.8482 O   0  0  0  0  0  0  0  0  0  0  0  0
   10.0587  -15.8751   28.2962 O   0  0  0  0  0  0  0  0  0  0  0  0
  2  1  1  0
  3  2  1  0
  4  3  1  0
  5  4  1  0
  5  6  1  6
  7  8  2  0
  7  5  1  0
  9 10  1  0
 10 12  1  0
 10 11  2  0
 13 12  1  6
 13 14  1  0
 14  7  1  0
 15 16  2  0
 15 13  1  0
 18 17  1  1
 18 20  1  0
 18 19  1  0
 21 20  1  1
 21 22  1  0
 22 15  1  0
 23 21  1  0
 24 23  2  0
 25 23  1  0
M  END
$$$$
