MNL.pdb
     RDKit          3D

 25 24  0  0  1  0  0  0  0  0999 V2000
    9.4780  -11.6714   18.9844 C   0  0  0  0  0  0  0  0  0  0  0  0
    8.7098  -12.8667   20.0795 S   0  0  0  0  0  0  0  0  0  0  0  0
    7.4464  -13.8201   19.1794 C   0  0  0  0  0  0  0  0  0  0  0  0
    6.7536  -14.7299   20.1711 C   0  0  0  0  0  0  0  0  0  0  0  0
    7.6939  -15.8309   20.6299 C   0  0  2  0  0  0  0  0  0  0  0  0
    7.6506  -16.8635   19.6116 N   0  0  0  0  0  0  0  0  0  0  0  0
    7.1437  -16.3683   21.9268 C   0  0  0  0  0  0  0  0  0  0  0  0
    5.9651  -16.8209   21.9384 O   0  0  0  0  0  0  0  0  0  0  0  0
    6.0706  -19.5678   25.8055 N   0  0  0  0  0  0  0  0  0  0  0  0
    7.4003  -19.0906   25.6607 C   0  0  0  0  0  0  0  0  0  0  0  0
    8.1763  -19.2311   26.6357 O   0  0  0  0  0  0  0  0  0  0  0  0
    7.8703  -18.4487   24.4124 C   0  0  0  0  0  0  0  0  0  0  0  0
    7.4370  -17.0188   24.3055 C   0  0  2  0  0  0  0  0  0  0  0  0
    7.9052  -16.3760   23.1085 N   0  0  0  0  0  0  0  0  0  0  0  0
    7.8217  -16.2392   25.5283 C   0  0  0  0  0  0  0  0  0  0  0  0
    7.4243  -16.6156   26.6597 O   0  0  0  0  0  0  0  0  0  0  0  0
    6.9228  -12.1860   26.4559 C   0  0  0  0  0  0  0  0  0  0  0  0
    6.7789  -13.5401   27.0204 C   0  0  2  0  0  0  0  0  0  0  0  0
    5.6039  -13.5092   28.0432 C   0  0  0  0  0  0  0  0  0  0  0  0
    7.9299  -14.2484   27.5918 C   0  0  0  0  0  0  0  0  0  0  0  0
    9.1048  -14.4625   26.7307 C   0  0  2  0  0  0  0  0  0  0  0  0
    8.6265  -15.0807   25.4501 N   0  0  0  0  0  0  0  0  0  0  0  0
   10.0735  -15.4252   27.2506 C   0  0  0  0  0  0  0  0  0  0  0  0
   10.1074  -16.6146   26.8771 O   0  0  0  0  0  0  0  0  0  0  0  0
   11.0108  -14.9804   28.2185 O   0  0  0  0  0  0  0  0  0  0  0  0
  2  1  1  0
  3  2  1  0
  4  3  1  0
  5  4  1  0
  5  6  1  6
  7  8  2  0
  7  5  1  0
  9 10  1  0
 10 12  1  0
 10 11  2  0
 13 12  1  1
 13 14  1  0
 14  7  1  0
 15 16  2  0
 15 13  1  0
 18 17  1  1
 18 20  1  0
 18 19  1  0
 21 20  1  1
 21 22  1  0
 22 15  1  0
 23 21  1  0
 24 23  2  0
 25 23  1  0
M  END
$$$$
