MNL.pdb
     RDKit          3D

 25 24  0  0  1  0  0  0  0  0999 V2000
    7.9654  -11.6753   20.4153 C   0  0  0  0  0  0  0  0  0  0  0  0
    6.6761  -12.5250   19.5020 S   0  0  0  0  0  0  0  0  0  0  0  0
    7.1539  -14.2571   19.2080 C   0  0  0  0  0  0  0  0  0  0  0  0
    7.5967  -14.8498   20.5286 C   0  0  0  0  0  0  0  0  0  0  0  0
    8.0142  -16.2989   20.3479 C   0  0  2  0  0  0  0  0  0  0  0  0
    6.8398  -17.1056   20.6220 N   0  0  0  0  0  0  0  0  0  0  0  0
    9.0801  -16.5819   21.3761 C   0  0  0  0  0  0  0  0  0  0  0  0
    9.0935  -17.7153   21.9322 O   0  0  0  0  0  0  0  0  0  0  0  0
   13.1079  -14.0522   20.2773 N   0  0  0  0  0  0  0  0  0  0  0  0
   12.8752  -15.1863   21.0997 C   0  0  0  0  0  0  0  0  0  0  0  0
   13.1635  -16.3125   20.6296 O   0  0  0  0  0  0  0  0  0  0  0  0
   12.3137  -15.0625   22.4638 C   0  0  0  0  0  0  0  0  0  0  0  0
   11.0972  -15.9138   22.6617 C   0  0  2  0  0  0  0  0  0  0  0  0
   10.0473  -15.6230   21.7245 N   0  0  0  0  0  0  0  0  0  0  0  0
   10.6016  -15.8369   24.0757 C   0  0  0  0  0  0  0  0  0  0  0  0
   11.4009  -16.0188   25.0285 O   0  0  0  0  0  0  0  0  0  0  0  0
    8.0033  -12.4496   26.2748 C   0  0  0  0  0  0  0  0  0  0  0  0
    7.3304  -13.5165   25.5119 C   0  0  2  0  0  0  0  0  0  0  0  0
    5.8186  -13.1530   25.4135 C   0  0  0  0  0  0  0  0  0  0  0  0
    7.4896  -14.9274   25.8820 C   0  0  0  0  0  0  0  0  0  0  0  0
    8.8408  -15.5087   25.8195 C   0  0  2  0  0  0  0  0  0  0  0  0
    9.2487  -15.5634   24.3766 N   0  0  0  0  0  0  0  0  0  0  0  0
    8.9279  -16.8971   26.2667 C   0  0  0  0  0  0  0  0  0  0  0  0
    8.9133  -17.8613   25.4759 O   0  0  0  0  0  0  0  0  0  0  0  0
    9.0340  -17.1499   27.6589 O   0  0  0  0  0  0  0  0  0  0  0  0
  2  1  1  0
  3  2  1  0
  4  3  1  0
  5  4  1  0
  5  6  1  1
  7  8  2  0
  7  5  1  0
  9 10  1  0
 10 12  1  0
 10 11  2  0
 13 12  1  1
 13 14  1  0
 14  7  1  0
 15 16  2  0
 15 13  1  0
 18 17  1  1
 18 20  1  0
 18 19  1  0
 21 20  1  6
 21 22  1  0
 22 15  1  0
 23 21  1  0
 24 23  2  0
 25 23  1  0
M  END
$$$$
