MNL.pdb
     RDKit          3D

 25 24  0  0  1  0  0  0  0  0999 V2000
    8.1102  -11.9495   20.3128 C   0  0  0  0  0  0  0  0  0  0  0  0
    6.6713  -13.0104   20.1632 S   0  0  0  0  0  0  0  0  0  0  0  0
    7.1893  -14.7347   19.8917 C   0  0  0  0  0  0  0  0  0  0  0  0
    7.8683  -15.2223   21.1536 C   0  0  0  0  0  0  0  0  0  0  0  0
    8.5961  -16.5301   20.8947 C   0  0  2  0  0  0  0  0  0  0  0  0
    7.5773  -17.5189   20.5960 N   0  0  0  0  0  0  0  0  0  0  0  0
    9.3076  -16.8988   22.1719 C   0  0  0  0  0  0  0  0  0  0  0  0
    9.0037  -17.9860   22.7373 O   0  0  0  0  0  0  0  0  0  0  0  0
   13.9471  -16.8368   22.3131 N   0  0  0  0  0  0  0  0  0  0  0  0
   13.1278  -15.7477   22.7121 C   0  0  0  0  0  0  0  0  0  0  0  0
   13.0598  -14.7605   21.9417 O   0  0  0  0  0  0  0  0  0  0  0  0
   12.3748  -15.7598   23.9865 C   0  0  0  0  0  0  0  0  0  0  0  0
   11.0689  -16.4848   23.8731 C   0  0  2  0  0  0  0  0  0  0  0  0
   10.2897  -16.0684   22.7397 N   0  0  0  0  0  0  0  0  0  0  0  0
   10.2777  -16.3857   25.1440 C   0  0  0  0  0  0  0  0  0  0  0  0
   10.7905  -16.7571   26.2297 O   0  0  0  0  0  0  0  0  0  0  0  0
    8.1658  -12.9327   27.3307 C   0  0  0  0  0  0  0  0  0  0  0  0
    7.3903  -13.6043   26.2722 C   0  0  2  0  0  0  0  0  0  0  0  0
    6.0986  -12.7695   26.0232 C   0  0  0  0  0  0  0  0  0  0  0  0
    7.0617  -15.0314   26.3642 C   0  0  0  0  0  0  0  0  0  0  0  0
    8.1748  -15.9923   26.4370 C   0  0  2  0  0  0  0  0  0  0  0  0
    8.9578  -15.8822   25.1619 N   0  0  0  0  0  0  0  0  0  0  0  0
    7.7668  -17.3946   26.4842 C   0  0  0  0  0  0  0  0  0  0  0  0
    7.3162  -17.9303   27.5164 O   0  0  0  0  0  0  0  0  0  0  0  0
    7.8906  -18.1712   25.3032 O   0  0  0  0  0  0  0  0  0  0  0  0
  2  1  1  0
  3  2  1  0
  4  3  1  0
  5  4  1  0
  5  6  1  1
  7  8  2  0
  7  5  1  0
  9 10  1  0
 10 12  1  0
 10 11  2  0
 13 12  1  1
 13 14  1  0
 14  7  1  0
 15 16  2  0
 15 13  1  0
 18 17  1  1
 18 20  1  0
 18 19  1  0
 21 20  1  6
 21 22  1  0
 22 15  1  0
 23 21  1  0
 24 23  2  0
 25 23  1  0
M  END
$$$$
