MNL.pdb
     RDKit          3D

 25 24  0  0  1  0  0  0  0  0999 V2000
    8.3789  -10.8655   20.0024 C   0  0  0  0  0  0  0  0  0  0  0  0
    8.4112  -12.4768   19.2143 S   0  0  0  0  0  0  0  0  0  0  0  0
    7.5602  -13.7022   20.2580 C   0  0  0  0  0  0  0  0  0  0  0  0
    7.7061  -15.0576   19.6000 C   0  0  0  0  0  0  0  0  0  0  0  0
    7.0305  -16.1304   20.4363 C   0  0  2  0  0  0  0  0  0  0  0  0
    6.0509  -15.4536   21.2653 N   0  0  0  0  0  0  0  0  0  0  0  0
    8.0966  -16.7480   21.3055 C   0  0  0  0  0  0  0  0  0  0  0  0
    8.6423  -17.8188   20.9185 O   0  0  0  0  0  0  0  0  0  0  0  0
   10.8831  -19.1541   23.7326 N   0  0  0  0  0  0  0  0  0  0  0  0
   11.4498  -18.2327   22.8126 C   0  0  0  0  0  0  0  0  0  0  0  0
   12.5159  -18.5645   22.2417 O   0  0  0  0  0  0  0  0  0  0  0  0
   10.8192  -16.9245   22.5256 C   0  0  0  0  0  0  0  0  0  0  0  0
    9.5615  -16.7106   23.3105 C   0  0  2  0  0  0  0  0  0  0  0  0
    8.4912  -16.1646   22.5221 N   0  0  0  0  0  0  0  0  0  0  0  0
    9.8161  -15.8792   24.5332 C   0  0  0  0  0  0  0  0  0  0  0  0
   10.6528  -14.9424   24.4884 O   0  0  0  0  0  0  0  0  0  0  0  0
    8.4698  -12.2661   25.6996 C   0  0  0  0  0  0  0  0  0  0  0  0
    7.7277  -13.4999   26.0158 C   0  0  2  0  0  0  0  0  0  0  0  0
    6.2274  -13.1218   26.1986 C   0  0  0  0  0  0  0  0  0  0  0  0
    8.1625  -14.3880   27.1000 C   0  0  0  0  0  0  0  0  0  0  0  0
    9.3868  -15.1794   26.8943 C   0  0  2  0  0  0  0  0  0  0  0  0
    9.1382  -16.1170   25.7497 N   0  0  0  0  0  0  0  0  0  0  0  0
    9.7366  -16.0603   28.0064 C   0  0  0  0  0  0  0  0  0  0  0  0
    9.5739  -17.2961   27.9633 O   0  0  0  0  0  0  0  0  0  0  0  0
   10.2839  -15.4784   29.1790 O   0  0  0  0  0  0  0  0  0  0  0  0
  2  1  1  0
  3  2  1  0
  4  3  1  0
  5  4  1  0
  5  6  1  1
  7  8  2  0
  7  5  1  0
  9 10  1  0
 10 12  1  0
 10 11  2  0
 13 12  1  6
 13 14  1  0
 14  7  1  0
 15 16  2  0
 15 13  1  0
 18 17  1  1
 18 20  1  0
 18 19  1  0
 21 20  1  1
 21 22  1  0
 22 15  1  0
 23 21  1  0
 24 23  2  0
 25 23  1  0
M  END
$$$$
