MNL.pdb
     RDKit          3D

 25 24  0  0  1  0  0  0  0  0999 V2000
    8.9102  -11.9218   20.0104 C   0  0  0  0  0  0  0  0  0  0  0  0
    7.6640  -12.4599   18.8374 S   0  0  0  0  0  0  0  0  0  0  0  0
    7.4620  -14.2674   18.9227 C   0  0  0  0  0  0  0  0  0  0  0  0
    7.4802  -14.6708   20.3815 C   0  0  0  0  0  0  0  0  0  0  0  0
    8.8610  -15.1618   20.7805 C   0  0  2  0  0  0  0  0  0  0  0  0
    9.1937  -16.2443   19.8735 N   0  0  0  0  0  0  0  0  0  0  0  0
    8.7511  -15.6899   22.1884 C   0  0  0  0  0  0  0  0  0  0  0  0
    7.8036  -15.2769   22.9134 O   0  0  0  0  0  0  0  0  0  0  0  0
   10.8787  -19.9321   22.4061 N   0  0  0  0  0  0  0  0  0  0  0  0
   10.0140  -19.4404   23.4197 C   0  0  0  0  0  0  0  0  0  0  0  0
    8.8937  -19.9902   23.5431 O   0  0  0  0  0  0  0  0  0  0  0  0
   10.4039  -18.3213   24.3067 C   0  0  0  0  0  0  0  0  0  0  0  0
    9.5914  -17.0869   24.0620 C   0  0  2  0  0  0  0  0  0  0  0  0
    9.6695  -16.6206   22.7049 N   0  0  0  0  0  0  0  0  0  0  0  0
    9.9457  -15.9992   25.0327 C   0  0  0  0  0  0  0  0  0  0  0  0
   11.0918  -15.4841   25.0027 O   0  0  0  0  0  0  0  0  0  0  0  0
    7.3813  -11.4788   26.7027 C   0  0  0  0  0  0  0  0  0  0  0  0
    7.7969  -12.8606   26.4012 C   0  0  2  0  0  0  0  0  0  0  0  0
    6.5917  -13.5872   25.7325 C   0  0  0  0  0  0  0  0  0  0  0  0
    8.3935  -13.7143   27.4348 C   0  0  0  0  0  0  0  0  0  0  0  0
    9.5172  -14.5832   27.0478 C   0  0  2  0  0  0  0  0  0  0  0  0
    9.0223  -15.5278   25.9924 N   0  0  0  0  0  0  0  0  0  0  0  0
   10.0032  -15.4602   28.1108 C   0  0  0  0  0  0  0  0  0  0  0  0
   10.6409  -15.0358   29.0949 O   0  0  0  0  0  0  0  0  0  0  0  0
    9.7335  -16.8497   28.0123 O   0  0  0  0  0  0  0  0  0  0  0  0
  2  1  1  0
  3  2  1  0
  4  3  1  0
  5  4  1  0
  5  6  1  6
  7  8  2  0
  7  5  1  0
  9 10  1  0
 10 12  1  0
 10 11  2  0
 13 12  1  6
 13 14  1  0
 14  7  1  0
 15 16  2  0
 15 13  1  0
 18 17  1  1
 18 20  1  0
 18 19  1  0
 21 20  1  1
 21 22  1  0
 22 15  1  0
 23 21  1  0
 24 23  2  0
 25 23  1  0
M  END
$$$$
