YTY.pdb
     RDKit          3D

 32 33  0  0  1  0  0  0  0  0999 V2000
   37.7703  -37.2811  -17.8552 O   0  0  0  0  0  0  0  0  0  0  0  0
   36.7972  -36.4278  -17.3446 C   0  0  0  0  0  0  0  0  0  0  0  0
   35.6057  -36.2186  -18.0076 C   0  0  0  0  0  0  0  0  0  0  0  0
   34.6479  -35.3683  -17.4890 C   0  0  0  0  0  0  0  0  0  0  0  0
   34.8281  -34.6930  -16.2989 C   0  0  0  0  0  0  0  0  0  0  0  0
   33.7782  -33.7840  -15.7657 C   0  0  0  0  0  0  0  0  0  0  0  0
   33.8052  -32.5280  -16.6439 C   0  0  2  0  0  0  0  0  0  0  0  0
   34.9809  -31.7823  -16.3162 N   0  0  0  0  0  0  0  0  0  0  0  0
   32.5581  -31.7406  -16.4690 C   0  0  0  0  0  0  0  0  0  0  0  0
   32.6104  -30.5422  -16.0928 O   0  0  0  0  0  0  0  0  0  0  0  0
   36.0189  -34.9004  -15.6335 C   0  0  0  0  0  0  0  0  0  0  0  0
   36.9729  -35.7509  -16.1556 C   0  0  0  0  0  0  0  0  0  0  0  0
   31.2893  -29.4778  -17.5046 C   0  0  0  0  0  0  0  0  0  0  0  0
   30.1439  -30.4395  -17.7827 C   0  0  1  0  0  0  0  0  0  0  0  0
   30.3503  -31.0143  -19.0260 O   0  0  0  0  0  0  0  0  0  0  0  0
   30.0800  -31.4917  -16.6794 C   0  0  2  0  0  0  0  0  0  0  0  0
   31.2900  -32.3137  -16.7192 N   0  0  0  0  0  0  0  0  0  0  0  0
   28.8735  -32.3328  -16.8470 C   0  0  0  0  0  0  0  0  0  0  0  0
   28.9278  -33.4919  -17.3449 O   0  0  0  0  0  0  0  0  0  0  0  0
   24.4102  -36.8921  -11.3731 O   0  0  0  0  0  0  0  0  0  0  0  0
   25.1263  -35.9562  -12.1153 C   0  0  0  0  0  0  0  0  0  0  0  0
   25.4016  -34.6968  -11.6375 C   0  0  0  0  0  0  0  0  0  0  0  0
   26.1128  -33.7687  -12.3761 C   0  0  0  0  0  0  0  0  0  0  0  0
   26.5780  -34.0799  -13.6386 C   0  0  0  0  0  0  0  0  0  0  0  0
   27.3321  -33.1319  -14.4636 C   0  0  0  0  0  0  0  0  0  0  0  0
   26.6706  -32.7949  -15.7810 C   0  0  2  0  0  0  0  0  0  0  0  0
   27.6013  -31.8761  -16.4551 N   0  0  0  0  0  0  0  0  0  0  0  0
   25.3587  -32.1697  -15.5851 C   0  0  0  0  0  0  0  0  0  0  0  0
   25.3051  -30.9444  -15.2934 O   0  0  0  0  0  0  0  0  0  0  0  0
   26.3034  -35.3559  -14.1318 C   0  0  0  0  0  0  0  0  0  0  0  0
   25.5969  -36.2560  -13.3794 C   0  0  0  0  0  0  0  0  0  0  0  0
   24.1740  -32.8742  -15.7089 O   0  0  0  0  0  0  0  0  0  0  0  0
  1  2  1  0
  2  3  2  0
  3  4  1  0
  5  6  1  0
  5  4  2  0
  7  8  1  1
  7  6  1  0
  9  7  1  0
  9 10  2  0
 11  5  1  0
 12 11  2  0
 12  2  1  0
 14 13  1  1
 14 15  1  0
 14 16  1  0
 16 17  1  6
 16 18  1  0
 17  9  1  0
 18 19  2  0
 18 27  1  0
 20 21  1  0
 21 31  2  0
 21 22  1  0
 22 23  2  0
 23 24  1  0
 24 25  1  0
 26 25  1  1
 26 28  1  0
 27 26  1  0
 28 29  2  0
 28 32  1  0
 30 24  2  0
 31 30  1  0
M  END
$$$$
