YTY.pdb
     RDKit          3D

 32 33  0  0  1  0  0  0  0  0999 V2000
   28.5894  -29.7119  -17.8724 O   0  0  0  0  0  0  0  0  0  0  0  0
   27.9675  -28.5986  -17.3157 C   0  0  0  0  0  0  0  0  0  0  0  0
   26.7141  -28.6858  -16.7462 C   0  0  0  0  0  0  0  0  0  0  0  0
   26.1082  -27.5721  -16.1969 C   0  0  0  0  0  0  0  0  0  0  0  0
   26.7139  -26.3320  -16.1882 C   0  0  0  0  0  0  0  0  0  0  0  0
   26.0363  -25.1510  -15.5891 C   0  0  0  0  0  0  0  0  0  0  0  0
   24.9972  -24.6814  -16.6135 C   0  0  2  0  0  0  0  0  0  0  0  0
   25.6915  -24.0479  -17.6917 N   0  0  0  0  0  0  0  0  0  0  0  0
   23.9963  -23.7907  -15.9726 C   0  0  0  0  0  0  0  0  0  0  0  0
   23.9989  -22.5564  -16.2107 O   0  0  0  0  0  0  0  0  0  0  0  0
   27.9677  -26.2418  -16.7572 C   0  0  0  0  0  0  0  0  0  0  0  0
   28.5692  -27.3573  -17.3048 C   0  0  0  0  0  0  0  0  0  0  0  0
   21.9597  -22.0324  -16.6232 C   0  0  0  0  0  0  0  0  0  0  0  0
   21.1119  -22.9318  -15.7365 C   0  0  1  0  0  0  0  0  0  0  0  0
   20.6239  -23.9715  -16.5109 O   0  0  0  0  0  0  0  0  0  0  0  0
   21.9551  -23.4442  -14.5724 C   0  0  2  0  0  0  0  0  0  0  0  0
   23.0225  -24.3039  -15.0852 N   0  0  0  0  0  0  0  0  0  0  0  0
   21.1040  -24.1858  -13.6148 C   0  0  0  0  0  0  0  0  0  0  0  0
   20.8406  -25.4119  -13.7618 O   0  0  0  0  0  0  0  0  0  0  0  0
   15.8234  -25.4728   -6.5344 O   0  0  0  0  0  0  0  0  0  0  0  0
   16.7263  -24.9816   -7.4742 C   0  0  0  0  0  0  0  0  0  0  0  0
   18.0362  -25.3965   -7.5193 C   0  0  0  0  0  0  0  0  0  0  0  0
   18.9313  -24.9076   -8.4533 C   0  0  0  0  0  0  0  0  0  0  0  0
   18.5339  -23.9711   -9.3873 C   0  0  0  0  0  0  0  0  0  0  0  0
   19.4434  -23.4182  -10.3949 C   0  0  0  0  0  0  0  0  0  0  0  0
   19.6331  -24.3003  -11.6083 C   0  0  2  0  0  0  0  0  0  0  0  0
   20.5465  -23.5538  -12.4878 N   0  0  0  0  0  0  0  0  0  0  0  0
   18.3603  -24.5787  -12.2812 C   0  0  0  0  0  0  0  0  0  0  0  0
   17.8025  -23.6567  -12.9355 O   0  0  0  0  0  0  0  0  0  0  0  0
   17.2062  -23.5441   -9.3493 C   0  0  0  0  0  0  0  0  0  0  0  0
   16.3403  -24.0447   -8.4136 C   0  0  0  0  0  0  0  0  0  0  0  0
   17.7462  -25.8177  -12.2262 O   0  0  0  0  0  0  0  0  0  0  0  0
  1  2  1  0
  2  3  2  0
  3  4  1  0
  5  6  1  0
  5  4  2  0
  7  8  1  6
  7  6  1  0
  9  7  1  0
  9 10  2  0
 11  5  1  0
 12 11  2  0
 12  2  1  0
 14 13  1  6
 14 15  1  0
 14 16  1  0
 16 17  1  6
 16 18  1  0
 17  9  1  0
 18 19  2  0
 18 27  1  0
 20 21  1  0
 21 31  2  0
 21 22  1  0
 22 23  2  0
 23 24  1  0
 24 25  1  0
 26 25  1  1
 26 28  1  0
 27 26  1  0
 28 29  2  0
 28 32  1  0
 30 24  2  0
 31 30  1  0
M  END
$$$$
