YTY.pdb
     RDKit          3D

 32 33  0  0  1  0  0  0  0  0999 V2000
   26.0473   -6.3788  -19.2708 O   0  0  0  0  0  0  0  0  0  0  0  0
   25.2578   -6.3620  -18.1252 C   0  0  0  0  0  0  0  0  0  0  0  0
   25.6788   -5.7329  -16.9720 C   0  0  0  0  0  0  0  0  0  0  0  0
   24.8845   -5.7239  -15.8414 C   0  0  0  0  0  0  0  0  0  0  0  0
   23.6470   -6.3339  -15.8047 C   0  0  0  0  0  0  0  0  0  0  0  0
   22.8144   -6.3074  -14.5722 C   0  0  0  0  0  0  0  0  0  0  0  0
   21.8044   -5.1692  -14.7557 C   0  0  2  0  0  0  0  0  0  0  0  0
   22.4636   -3.9370  -14.4504 N   0  0  0  0  0  0  0  0  0  0  0  0
   20.5996   -5.3989  -13.9181 C   0  0  0  0  0  0  0  0  0  0  0  0
   20.6094   -5.1049  -12.6959 O   0  0  0  0  0  0  0  0  0  0  0  0
   23.2234   -6.9640  -16.9568 C   0  0  0  0  0  0  0  0  0  0  0  0
   24.0204   -6.9704  -18.0841 C   0  0  0  0  0  0  0  0  0  0  0  0
   17.5674   -3.7180  -13.9010 C   0  0  0  0  0  0  0  0  0  0  0  0
   17.1345   -5.1554  -14.1469 C   0  0  1  0  0  0  0  0  0  0  0  0
   16.8982   -5.3130  -15.5027 O   0  0  0  0  0  0  0  0  0  0  0  0
   18.2179   -6.1081  -13.6496 C   0  0  2  0  0  0  0  0  0  0  0  0
   19.4198   -5.9499  -14.4693 N   0  0  0  0  0  0  0  0  0  0  0  0
   17.7313   -7.5051  -13.7033 C   0  0  0  0  0  0  0  0  0  0  0  0
   17.8633   -8.2221  -14.7342 O   0  0  0  0  0  0  0  0  0  0  0  0
   13.8728  -15.0531  -10.9863 O   0  0  0  0  0  0  0  0  0  0  0  0
   14.4549  -13.7902  -11.0634 C   0  0  0  0  0  0  0  0  0  0  0  0
   13.7289  -12.6361  -10.8870 C   0  0  0  0  0  0  0  0  0  0  0  0
   14.3088  -11.3830  -10.9640 C   0  0  0  0  0  0  0  0  0  0  0  0
   15.6579  -11.2456  -11.2250 C   0  0  0  0  0  0  0  0  0  0  0  0
   16.3200   -9.9416  -11.3212 C   0  0  0  0  0  0  0  0  0  0  0  0
   16.4949   -9.4390  -12.7366 C   0  0  2  0  0  0  0  0  0  0  0  0
   17.0958   -8.1029  -12.5991 N   0  0  0  0  0  0  0  0  0  0  0  0
   15.2160   -9.3731  -13.4510 C   0  0  0  0  0  0  0  0  0  0  0  0
   14.4479   -8.3966  -13.2367 O   0  0  0  0  0  0  0  0  0  0  0  0
   16.4029  -12.4115  -11.4054 C   0  0  0  0  0  0  0  0  0  0  0  0
   15.8036  -13.6402  -11.3238 C   0  0  0  0  0  0  0  0  0  0  0  0
   14.8186  -10.3434  -14.3542 O   0  0  0  0  0  0  0  0  0  0  0  0
  1  2  1  0
  2  3  2  0
  3  4  1  0
  5  6  1  0
  5  4  2  0
  7  8  1  1
  7  6  1  0
  9  7  1  0
  9 10  2  0
 11  5  1  0
 12 11  2  0
 12  2  1  0
 14 13  1  6
 14 15  1  0
 14 16  1  0
 16 17  1  6
 16 18  1  0
 17  9  1  0
 18 19  2  0
 18 27  1  0
 20 21  1  0
 21 31  2  0
 21 22  1  0
 22 23  2  0
 23 24  1  0
 24 25  1  0
 26 25  1  1
 26 28  1  0
 27 26  1  0
 28 29  2  0
 28 32  1  0
 30 24  2  0
 31 30  1  0
M  END
$$$$
