YTY.pdb
     RDKit          3D

 32 33  0  0  1  0  0  0  0  0999 V2000
   20.9283  -20.2635  -22.3478 O   0  0  0  0  0  0  0  0  0  0  0  0
   21.2096  -20.6032  -21.0281 C   0  0  0  0  0  0  0  0  0  0  0  0
   22.4810  -20.4746  -20.5088 C   0  0  0  0  0  0  0  0  0  0  0  0
   22.7464  -20.8156  -19.1963 C   0  0  0  0  0  0  0  0  0  0  0  0
   21.7698  -21.2956  -18.3474 C   0  0  0  0  0  0  0  0  0  0  0  0
   22.0861  -21.6545  -16.9387 C   0  0  0  0  0  0  0  0  0  0  0  0
   21.6541  -20.4608  -16.0797 C   0  0  2  0  0  0  0  0  0  0  0  0
   22.5490  -19.3768  -16.3438 N   0  0  0  0  0  0  0  0  0  0  0  0
   21.6153  -20.8368  -14.6434 C   0  0  0  0  0  0  0  0  0  0  0  0
   22.5379  -20.4801  -13.8677 O   0  0  0  0  0  0  0  0  0  0  0  0
   20.4971  -21.4253  -18.8642 C   0  0  0  0  0  0  0  0  0  0  0  0
   20.2367  -21.0833  -20.1761 C   0  0  0  0  0  0  0  0  0  0  0  0
   21.0807  -19.4293  -12.2569 C   0  0  0  0  0  0  0  0  0  0  0  0
   20.0014  -20.4746  -12.0197 C   0  0  1  0  0  0  0  0  0  0  0  0
   18.8103  -19.9966  -12.5409 O   0  0  0  0  0  0  0  0  0  0  0  0
   20.4128  -21.7918  -12.6712 C   0  0  2  0  0  0  0  0  0  0  0  0
   20.5482  -21.5997  -14.1156 N   0  0  0  0  0  0  0  0  0  0  0  0
   19.4103  -22.8404  -12.3772 C   0  0  0  0  0  0  0  0  0  0  0  0
   18.3916  -23.0166  -13.1022 O   0  0  0  0  0  0  0  0  0  0  0  0
   16.1154  -30.2625   -8.7485 O   0  0  0  0  0  0  0  0  0  0  0  0
   16.8495  -29.1108   -9.0209 C   0  0  0  0  0  0  0  0  0  0  0  0
   16.7115  -27.9609   -8.2802 C   0  0  0  0  0  0  0  0  0  0  0  0
   17.4414  -26.8182   -8.5523 C   0  0  0  0  0  0  0  0  0  0  0  0
   18.3481  -26.7924   -9.5938 C   0  0  0  0  0  0  0  0  0  0  0  0
   19.1426  -25.6067   -9.9266 C   0  0  0  0  0  0  0  0  0  0  0  0
   18.5684  -24.7717  -11.0489 C   0  0  2  0  0  0  0  0  0  0  0  0
   19.5482  -23.6962  -11.2685 N   0  0  0  0  0  0  0  0  0  0  0  0
   17.2527  -24.2258  -10.7006 C   0  0  0  0  0  0  0  0  0  0  0  0
   16.2199  -24.7890  -11.1541 O   0  0  0  0  0  0  0  0  0  0  0  0
   18.4950  -27.9551  -10.3510 C   0  0  0  0  0  0  0  0  0  0  0  0
   17.7596  -29.0731  -10.0600 C   0  0  0  0  0  0  0  0  0  0  0  0
   17.1001  -23.1140   -9.8908 O   0  0  0  0  0  0  0  0  0  0  0  0
  1  2  1  0
  2  3  2  0
  3  4  1  0
  5  6  1  0
  5  4  2  0
  7  8  1  1
  7  6  1  0
  9  7  1  0
  9 10  2  0
 11  5  1  0
 12 11  2  0
 12  2  1  0
 14 13  1  6
 14 15  1  0
 14 16  1  0
 16 17  1  6
 16 18  1  0
 17  9  1  0
 18 19  2  0
 18 27  1  0
 20 21  1  0
 21 31  2  0
 21 22  1  0
 22 23  2  0
 23 24  1  0
 24 25  1  0
 26 25  1  1
 26 28  1  0
 27 26  1  0
 28 29  2  0
 28 32  1  0
 30 24  2  0
 31 30  1  0
M  END
$$$$
