YTY.pdb
     RDKit          3D

 32 33  0  0  1  0  0  0  0  0999 V2000
   28.9483  -15.4503  -19.5991 O   0  0  0  0  0  0  0  0  0  0  0  0
   27.7955  -16.0556  -19.1084 C   0  0  0  0  0  0  0  0  0  0  0  0
   26.8384  -16.5717  -19.9572 C   0  0  0  0  0  0  0  0  0  0  0  0
   25.6982  -17.1703  -19.4563 C   0  0  0  0  0  0  0  0  0  0  0  0
   25.4587  -17.2827  -18.1017 C   0  0  0  0  0  0  0  0  0  0  0  0
   24.2213  -17.9327  -17.5924 C   0  0  0  0  0  0  0  0  0  0  0  0
   24.6213  -19.3479  -17.1602 C   0  0  2  0  0  0  0  0  0  0  0  0
   25.0235  -20.0713  -18.3267 N   0  0  0  0  0  0  0  0  0  0  0  0
   23.5075  -20.0066  -16.4313 C   0  0  0  0  0  0  0  0  0  0  0  0
   22.6557  -20.6894  -17.0545 O   0  0  0  0  0  0  0  0  0  0  0  0
   26.4144  -16.7673  -17.2503 C   0  0  0  0  0  0  0  0  0  0  0  0
   27.5520  -16.1701  -17.7555 C   0  0  0  0  0  0  0  0  0  0  0  0
   23.9017  -22.3709  -13.7254 C   0  0  0  0  0  0  0  0  0  0  0  0
   22.8762  -21.3911  -13.1755 C   0  0  1  0  0  0  0  0  0  0  0  0
   23.5005  -20.5912  -12.2324 O   0  0  0  0  0  0  0  0  0  0  0  0
   22.2941  -20.5646  -14.3185 C   0  0  2  0  0  0  0  0  0  0  0  0
   23.3775  -19.8839  -15.0287 N   0  0  0  0  0  0  0  0  0  0  0  0
   21.3192  -19.5829  -13.7921 C   0  0  0  0  0  0  0  0  0  0  0  0
   21.6745  -18.4521  -13.3567 O   0  0  0  0  0  0  0  0  0  0  0  0
   15.2459  -13.6034  -13.6279 O   0  0  0  0  0  0  0  0  0  0  0  0
   16.2004  -14.6058  -13.7823 C   0  0  0  0  0  0  0  0  0  0  0  0
   17.4236  -14.5561  -13.1567 C   0  0  0  0  0  0  0  0  0  0  0  0
   18.3702  -15.5524  -13.3113 C   0  0  0  0  0  0  0  0  0  0  0  0
   18.1154  -16.6485  -14.1118 C   0  0  0  0  0  0  0  0  0  0  0  0
   19.0854  -17.7288  -14.3124 C   0  0  0  0  0  0  0  0  0  0  0  0
   18.9961  -18.8389  -13.2895 C   0  0  2  0  0  0  0  0  0  0  0  0
   19.9413  -19.8666  -13.7535 N   0  0  0  0  0  0  0  0  0  0  0  0
   17.6357  -19.3772  -13.1903 C   0  0  0  0  0  0  0  0  0  0  0  0
   17.2863  -20.2989  -13.9762 O   0  0  0  0  0  0  0  0  0  0  0  0
   16.8764  -16.7076  -14.7507 C   0  0  0  0  0  0  0  0  0  0  0  0
   15.9568  -15.7072  -14.5804 C   0  0  0  0  0  0  0  0  0  0  0  0
   16.7182  -18.9119  -12.2646 O   0  0  0  0  0  0  0  0  0  0  0  0
  1  2  1  0
  2  3  2  0
  3  4  1  0
  5  6  1  0
  5  4  2  0
  7  8  1  6
  7  6  1  0
  9  7  1  0
  9 10  2  0
 11  5  1  0
 12 11  2  0
 12  2  1  0
 14 13  1  6
 14 15  1  0
 14 16  1  0
 16 17  1  1
 16 18  1  0
 17  9  1  0
 18 19  2  0
 18 27  1  0
 20 21  1  0
 21 31  2  0
 21 22  1  0
 22 23  2  0
 23 24  1  0
 24 25  1  0
 26 25  1  6
 26 28  1  0
 27 26  1  0
 28 29  2  0
 28 32  1  0
 30 24  2  0
 31 30  1  0
M  END
$$$$
