YTY.pdb
     RDKit          3D

 32 33  0  0  1  0  0  0  0  0999 V2000
   18.0052  -17.4588  -15.9537 O   0  0  0  0  0  0  0  0  0  0  0  0
   18.8937  -18.3191  -15.3163 C   0  0  0  0  0  0  0  0  0  0  0  0
   20.1206  -17.8791  -14.8647 C   0  0  0  0  0  0  0  0  0  0  0  0
   20.9934  -18.7444  -14.2333 C   0  0  0  0  0  0  0  0  0  0  0  0
   20.6902  -20.0744  -14.0235 C   0  0  0  0  0  0  0  0  0  0  0  0
   21.6507  -20.9820  -13.3403 C   0  0  0  0  0  0  0  0  0  0  0  0
   22.7733  -21.2617  -14.3458 C   0  0  2  0  0  0  0  0  0  0  0  0
   22.3076  -22.2519  -15.2670 N   0  0  0  0  0  0  0  0  0  0  0  0
   24.0157  -21.6707  -13.6423 C   0  0  0  0  0  0  0  0  0  0  0  0
   24.2286  -22.8816  -13.3800 O   0  0  0  0  0  0  0  0  0  0  0  0
   19.4637  -20.5174  -14.4741 C   0  0  0  0  0  0  0  0  0  0  0  0
   18.5949  -19.6491  -15.1045 C   0  0  0  0  0  0  0  0  0  0  0  0
   28.6264  -20.7237  -12.2482 C   0  0  0  0  0  0  0  0  0  0  0  0
   27.3741  -20.2949  -12.9977 C   0  0  1  0  0  0  0  0  0  0  0  0
   27.6033  -20.4527  -14.3547 O   0  0  0  0  0  0  0  0  0  0  0  0
   26.1856  -21.1281  -12.5267 C   0  0  2  0  0  0  0  0  0  0  0  0
   24.9835  -20.7164  -13.2526 N   0  0  0  0  0  0  0  0  0  0  0  0
   25.9947  -20.9640  -11.0679 C   0  0  0  0  0  0  0  0  0  0  0  0
   24.9829  -20.3829  -10.5851 O   0  0  0  0  0  0  0  0  0  0  0  0
   29.0629  -19.2505   -2.9459 O   0  0  0  0  0  0  0  0  0  0  0  0
   28.8785  -19.7273   -4.2414 C   0  0  0  0  0  0  0  0  0  0  0  0
   29.2780  -19.0164   -5.3482 C   0  0  0  0  0  0  0  0  0  0  0  0
   29.0940  -19.4916   -6.6339 C   0  0  0  0  0  0  0  0  0  0  0  0
   28.4931  -20.7155   -6.8536 C   0  0  0  0  0  0  0  0  0  0  0  0
   28.2707  -21.2622   -8.1951 C   0  0  0  0  0  0  0  0  0  0  0  0
   26.8824  -21.0163   -8.7415 C   0  0  2  0  0  0  0  0  0  0  0  0
   26.9385  -21.4528  -10.1456 N   0  0  0  0  0  0  0  0  0  0  0  0
   26.5022  -19.6036   -8.6413 C   0  0  0  0  0  0  0  0  0  0  0  0
   27.0915  -18.7608   -9.3705 O   0  0  0  0  0  0  0  0  0  0  0  0
   28.0845  -21.4442   -5.7361 C   0  0  0  0  0  0  0  0  0  0  0  0
   28.2788  -20.9503   -4.4736 C   0  0  0  0  0  0  0  0  0  0  0  0
   25.5186  -19.1584   -7.7756 O   0  0  0  0  0  0  0  0  0  0  0  0
  1  2  1  0
  2  3  2  0
  3  4  1  0
  5  6  1  0
  5  4  2  0
  7  8  1  6
  7  6  1  0
  9  7  1  0
  9 10  2  0
 11  5  1  0
 12 11  2  0
 12  2  1  0
 14 13  1  1
 14 15  1  0
 14 16  1  0
 16 17  1  6
 16 18  1  0
 17  9  1  0
 18 19  2  0
 18 27  1  0
 20 21  1  0
 21 31  2  0
 21 22  1  0
 22 23  2  0
 23 24  1  0
 24 25  1  0
 26 25  1  6
 26 28  1  0
 27 26  1  0
 28 29  2  0
 28 32  1  0
 30 24  2  0
 31 30  1  0
M  END
$$$$
