YTY.pdb
     RDKit          3D

 32 33  0  0  1  0  0  0  0  0999 V2000
   30.4136  -16.3182  -18.8128 O   0  0  0  0  0  0  0  0  0  0  0  0
   29.4043  -17.0468  -18.1914 C   0  0  0  0  0  0  0  0  0  0  0  0
   29.2127  -16.9889  -16.8265 C   0  0  0  0  0  0  0  0  0  0  0  0
   28.2063  -17.7179  -16.2223 C   0  0  0  0  0  0  0  0  0  0  0  0
   27.3518  -18.5303  -16.9397 C   0  0  0  0  0  0  0  0  0  0  0  0
   26.2772  -19.3033  -16.2608 C   0  0  0  0  0  0  0  0  0  0  0  0
   26.9800  -20.3596  -15.4009 C   0  0  2  0  0  0  0  0  0  0  0  0
   27.6078  -21.2996  -16.2773 N   0  0  0  0  0  0  0  0  0  0  0  0
   26.0177  -20.9988  -14.4673 C   0  0  0  0  0  0  0  0  0  0  0  0
   25.3679  -22.0149  -14.8213 O   0  0  0  0  0  0  0  0  0  0  0  0
   27.5411  -18.5902  -18.3051 C   0  0  0  0  0  0  0  0  0  0  0  0
   28.5480  -17.8601  -18.9043 C   0  0  0  0  0  0  0  0  0  0  0  0
   26.8828  -21.7849  -10.9026 C   0  0  0  0  0  0  0  0  0  0  0  0
   25.4936  -21.1678  -10.8447 C   0  0  1  0  0  0  0  0  0  0  0  0
   25.6055  -19.8927  -10.3150 O   0  0  0  0  0  0  0  0  0  0  0  0
   24.8852  -21.1450  -12.2440 C   0  0  2  0  0  0  0  0  0  0  0  0
   25.8095  -20.4849  -13.1666 N   0  0  0  0  0  0  0  0  0  0  0  0
   23.5821  -20.4431  -12.2213 C   0  0  0  0  0  0  0  0  0  0  0  0
   23.4770  -19.2352  -11.8686 O   0  0  0  0  0  0  0  0  0  0  0  0
   16.6009  -16.0511  -14.1564 O   0  0  0  0  0  0  0  0  0  0  0  0
   17.7492  -16.8200  -13.9837 C   0  0  0  0  0  0  0  0  0  0  0  0
   18.6455  -16.5817  -12.9689 C   0  0  0  0  0  0  0  0  0  0  0  0
   19.7853  -17.3464  -12.7991 C   0  0  0  0  0  0  0  0  0  0  0  0
   20.0667  -18.3918  -13.6565 C   0  0  0  0  0  0  0  0  0  0  0  0
   21.2621  -19.2292  -13.5232 C   0  0  0  0  0  0  0  0  0  0  0  0
   21.1132  -20.3688  -12.5405 C   0  0  2  0  0  0  0  0  0  0  0  0
   22.3921  -21.0943  -12.5958 N   0  0  0  0  0  0  0  0  0  0  0  0
   19.9917  -21.2456  -12.8923 C   0  0  0  0  0  0  0  0  0  0  0  0
   18.8488  -20.9900  -12.4257 O   0  0  0  0  0  0  0  0  0  0  0  0
   19.1626  -18.6412  -14.6895 C   0  0  0  0  0  0  0  0  0  0  0  0
   18.0413  -17.8685  -14.8350 C   0  0  0  0  0  0  0  0  0  0  0  0
   20.1394  -22.3454  -13.7192 O   0  0  0  0  0  0  0  0  0  0  0  0
  1  2  1  0
  2  3  2  0
  3  4  1  0
  5  6  1  0
  5  4  2  0
  7  8  1  6
  7  6  1  0
  9  7  1  0
  9 10  2  0
 11  5  1  0
 12 11  2  0
 12  2  1  0
 14 13  1  6
 14 15  1  0
 14 16  1  0
 16 17  1  6
 16 18  1  0
 17  9  1  0
 18 19  2  0
 18 27  1  0
 20 21  1  0
 21 31  2  0
 21 22  1  0
 22 23  2  0
 23 24  1  0
 24 25  1  0
 26 25  1  6
 26 28  1  0
 27 26  1  0
 28 29  2  0
 28 32  1  0
 30 24  2  0
 31 30  1  0
M  END
$$$$
