YTY.pdb
     RDKit          3D

 32 33  0  0  1  0  0  0  0  0999 V2000
   41.9443  -34.2641  -15.2153 O   0  0  0  0  0  0  0  0  0  0  0  0
   40.8604  -33.4002  -15.3363 C   0  0  0  0  0  0  0  0  0  0  0  0
   39.6561  -33.8273  -15.8561 C   0  0  0  0  0  0  0  0  0  0  0  0
   38.5877  -32.9586  -15.9706 C   0  0  0  0  0  0  0  0  0  0  0  0
   38.6658  -31.6379  -15.5775 C   0  0  0  0  0  0  0  0  0  0  0  0
   37.4980  -30.7264  -15.7131 C   0  0  0  0  0  0  0  0  0  0  0  0
   37.7479  -29.8857  -16.9701 C   0  0  2  0  0  0  0  0  0  0  0  0
   38.5208  -28.7426  -16.5934 N   0  0  0  0  0  0  0  0  0  0  0  0
   36.4629  -29.5214  -17.6198 C   0  0  0  0  0  0  0  0  0  0  0  0
   35.9540  -28.3875  -17.4311 O   0  0  0  0  0  0  0  0  0  0  0  0
   39.8692  -31.2079  -15.0572 C   0  0  0  0  0  0  0  0  0  0  0  0
   40.9340  -32.0796  -14.9448 C   0  0  0  0  0  0  0  0  0  0  0  0
   35.7505  -29.4522  -21.2074 C   0  0  0  0  0  0  0  0  0  0  0  0
   34.6473  -30.3175  -20.6173 C   0  0  1  0  0  0  0  0  0  0  0  0
   34.9475  -31.6442  -20.8795 O   0  0  0  0  0  0  0  0  0  0  0  0
   34.5344  -30.0511  -19.1190 C   0  0  2  0  0  0  0  0  0  0  0  0
   35.7841  -30.4333  -18.4605 N   0  0  0  0  0  0  0  0  0  0  0  0
   33.3948  -30.8066  -18.5519 C   0  0  0  0  0  0  0  0  0  0  0  0
   33.5368  -31.6137  -17.5912 O   0  0  0  0  0  0  0  0  0  0  0  0
   26.5803  -33.2329  -14.1176 O   0  0  0  0  0  0  0  0  0  0  0  0
   27.6349  -32.6766  -14.8372 C   0  0  0  0  0  0  0  0  0  0  0  0
   28.8632  -33.2875  -14.9284 C   0  0  0  0  0  0  0  0  0  0  0  0
   29.9093  -32.7335  -15.6435 C   0  0  0  0  0  0  0  0  0  0  0  0
   29.7538  -31.5288  -16.3006 C   0  0  0  0  0  0  0  0  0  0  0  0
   30.8310  -30.8972  -17.0677 C   0  0  0  0  0  0  0  0  0  0  0  0
   30.9851  -31.4313  -18.4740 C   0  0  2  0  0  0  0  0  0  0  0  0
   32.0910  -30.6580  -19.0604 N   0  0  0  0  0  0  0  0  0  0  0  0
   29.7540  -31.2691  -19.2540 C   0  0  0  0  0  0  0  0  0  0  0  0
   29.4321  -30.1170  -19.6519 O   0  0  0  0  0  0  0  0  0  0  0  0
   28.5105  -30.9015  -16.2137 C   0  0  0  0  0  0  0  0  0  0  0  0
   27.4912  -31.4721  -15.4988 C   0  0  0  0  0  0  0  0  0  0  0  0
   28.9298  -32.3345  -19.5716 O   0  0  0  0  0  0  0  0  0  0  0  0
  1  2  1  0
  2  3  2  0
  3  4  1  0
  5  6  1  0
  5  4  2  0
  7  8  1  1
  7  6  1  0
  9  7  1  0
  9 10  2  0
 11  5  1  0
 12 11  2  0
 12  2  1  0
 14 13  1  1
 14 15  1  0
 14 16  1  0
 16 17  1  1
 16 18  1  0
 17  9  1  0
 18 19  2  0
 18 27  1  0
 20 21  1  0
 21 31  2  0
 21 22  1  0
 22 23  2  0
 23 24  1  0
 24 25  1  0
 26 25  1  1
 26 28  1  0
 27 26  1  0
 28 29  2  0
 28 32  1  0
 30 24  2  0
 31 30  1  0
M  END
$$$$
