YTY.pdb
     RDKit          3D

 32 33  0  0  1  0  0  0  0  0999 V2000
   17.0401  -11.0839  -23.9101 O   0  0  0  0  0  0  0  0  0  0  0  0
   17.6878  -10.8438  -22.7023 C   0  0  0  0  0  0  0  0  0  0  0  0
   17.8646  -11.8456  -21.7706 C   0  0  0  0  0  0  0  0  0  0  0  0
   18.5097  -11.5933  -20.5750 C   0  0  0  0  0  0  0  0  0  0  0  0
   19.0043  -10.3457  -20.2531 C   0  0  0  0  0  0  0  0  0  0  0  0
   19.6947  -10.1046  -18.9575 C   0  0  0  0  0  0  0  0  0  0  0  0
   21.1706   -9.8610  -19.2914 C   0  0  2  0  0  0  0  0  0  0  0  0
   21.7564  -11.1144  -19.6545 N   0  0  0  0  0  0  0  0  0  0  0  0
   21.8649   -9.2117  -18.1502 C   0  0  0  0  0  0  0  0  0  0  0  0
   22.4716   -9.9068  -17.2964 O   0  0  0  0  0  0  0  0  0  0  0  0
   18.8289   -9.3416  -21.1831 C   0  0  0  0  0  0  0  0  0  0  0  0
   18.1837   -9.5985  -22.3763 C   0  0  0  0  0  0  0  0  0  0  0  0
   24.5645   -6.9398  -18.4976 C   0  0  0  0  0  0  0  0  0  0  0  0
   23.6384   -6.1939  -17.5489 C   0  0  1  0  0  0  0  0  0  0  0  0
   22.9990   -5.1931  -18.2619 O   0  0  0  0  0  0  0  0  0  0  0  0
   22.6416   -7.1715  -16.9330 C   0  0  2  0  0  0  0  0  0  0  0  0
   21.8613   -7.8062  -17.9959 N   0  0  0  0  0  0  0  0  0  0  0  0
   21.7516   -6.4625  -15.9862 C   0  0  0  0  0  0  0  0  0  0  0  0
   20.5276   -6.2719  -16.2309 O   0  0  0  0  0  0  0  0  0  0  0  0
   16.7869   -4.4077   -9.3419 O   0  0  0  0  0  0  0  0  0  0  0  0
   17.6705   -4.8658  -10.3161 C   0  0  0  0  0  0  0  0  0  0  0  0
   17.4342   -4.6942  -11.6595 C   0  0  0  0  0  0  0  0  0  0  0  0
   18.3128   -5.1499  -12.6254 C   0  0  0  0  0  0  0  0  0  0  0  0
   19.4759   -5.8033  -12.2681 C   0  0  0  0  0  0  0  0  0  0  0  0
   20.4374   -6.3093  -13.2517 C   0  0  0  0  0  0  0  0  0  0  0  0
   21.3226   -5.2433  -13.8573 C   0  0  2  0  0  0  0  0  0  0  0  0
   22.2322   -5.9657  -14.7603 N   0  0  0  0  0  0  0  0  0  0  0  0
   22.0689   -4.5097  -12.8300 C   0  0  0  0  0  0  0  0  0  0  0  0
   23.1240   -5.0183  -12.3636 O   0  0  0  0  0  0  0  0  0  0  0  0
   19.7242   -5.9820  -10.9068 C   0  0  0  0  0  0  0  0  0  0  0  0
   18.8372   -5.5207   -9.9708 C   0  0  0  0  0  0  0  0  0  0  0  0
   21.6594   -3.2773  -12.3519 O   0  0  0  0  0  0  0  0  0  0  0  0
  1  2  1  0
  2  3  2  0
  3  4  1  0
  5  6  1  0
  5  4  2  0
  7  8  1  1
  7  6  1  0
  9  7  1  0
  9 10  2  0
 11  5  1  0
 12 11  2  0
 12  2  1  0
 14 13  1  6
 14 15  1  0
 14 16  1  0
 16 17  1  6
 16 18  1  0
 17  9  1  0
 18 19  2  0
 18 27  1  0
 20 21  1  0
 21 31  2  0
 21 22  1  0
 22 23  2  0
 23 24  1  0
 24 25  1  0
 26 25  1  1
 26 28  1  0
 27 26  1  0
 28 29  2  0
 28 32  1  0
 30 24  2  0
 31 30  1  0
M  END
$$$$
