YTY.pdb
     RDKit          3D

 32 33  0  0  1  0  0  0  0  0999 V2000
   21.1709    0.3888  -15.7666 O   0  0  0  0  0  0  0  0  0  0  0  0
   21.8375    0.8140  -14.6217 C   0  0  0  0  0  0  0  0  0  0  0  0
   21.2826    0.6590  -13.3682 C   0  0  0  0  0  0  0  0  0  0  0  0
   21.9557    1.0858  -12.2395 C   0  0  0  0  0  0  0  0  0  0  0  0
   23.1994    1.6807  -12.3035 C   0  0  0  0  0  0  0  0  0  0  0  0
   23.8997    2.1300  -11.0703 C   0  0  0  0  0  0  0  0  0  0  0  0
   23.1994    3.4163  -10.6182 C   0  0  2  0  0  0  0  0  0  0  0  0
   23.4210    4.4168  -11.6161 N   0  0  0  0  0  0  0  0  0  0  0  0
   23.6795    3.8289   -9.2746 C   0  0  0  0  0  0  0  0  0  0  0  0
   24.8489    4.2646   -9.1235 O   0  0  0  0  0  0  0  0  0  0  0  0
   23.7569    1.8371  -13.5559 C   0  0  0  0  0  0  0  0  0  0  0  0
   23.0806    1.4090  -14.6809 C   0  0  0  0  0  0  0  0  0  0  0  0
   21.6441    6.1209   -7.0179 C   0  0  0  0  0  0  0  0  0  0  0  0
   22.1241    4.9656   -6.1526 C   0  0  1  0  0  0  0  0  0  0  0  0
   21.0566    4.1091   -5.9386 O   0  0  0  0  0  0  0  0  0  0  0  0
   23.2852    4.2566   -6.8438 C   0  0  2  0  0  0  0  0  0  0  0  0
   22.8404    3.7428   -8.1398 N   0  0  0  0  0  0  0  0  0  0  0  0
   23.7891    3.1555   -5.9924 C   0  0  0  0  0  0  0  0  0  0  0  0
   23.8437    1.9622   -6.4019 O   0  0  0  0  0  0  0  0  0  0  0  0
   30.7773   -0.2913   -2.4764 O   0  0  0  0  0  0  0  0  0  0  0  0
   29.6743    0.3389   -3.0471 C   0  0  0  0  0  0  0  0  0  0  0  0
   28.4412    0.3517   -2.4393 C   0  0  0  0  0  0  0  0  0  0  0  0
   27.3470    0.9781   -3.0077 C   0  0  0  0  0  0  0  0  0  0  0  0
   27.4571    1.6222   -4.2243 C   0  0  0  0  0  0  0  0  0  0  0  0
   26.3283    2.2968   -4.8713 C   0  0  0  0  0  0  0  0  0  0  0  0
   25.0904    2.3980   -4.0086 C   0  0  2  0  0  0  0  0  0  0  0  0
   24.2346    3.3900   -4.6783 N   0  0  0  0  0  0  0  0  0  0  0  0
   25.4149    2.8161   -2.6410 C   0  0  0  0  0  0  0  0  0  0  0  0
   25.7410    4.0158   -2.4318 O   0  0  0  0  0  0  0  0  0  0  0  0
   28.7049    1.6145   -4.8486 C   0  0  0  0  0  0  0  0  0  0  0  0
   29.7722    0.9867   -4.2638 C   0  0  0  0  0  0  0  0  0  0  0  0
   25.3763    1.9429   -1.5682 O   0  0  0  0  0  0  0  0  0  0  0  0
  1  2  1  0
  2  3  2  0
  3  4  1  0
  5  6  1  0
  5  4  2  0
  7  8  1  6
  7  6  1  0
  9  7  1  0
  9 10  2  0
 11  5  1  0
 12 11  2  0
 12  2  1  0
 14 13  1  6
 14 15  1  0
 14 16  1  0
 16 17  1  6
 16 18  1  0
 17  9  1  0
 18 19  2  0
 18 27  1  0
 20 21  1  0
 21 31  2  0
 21 22  1  0
 22 23  2  0
 23 24  1  0
 24 25  1  0
 26 25  1  6
 26 28  1  0
 27 26  1  0
 28 29  2  0
 28 32  1  0
 30 24  2  0
 31 30  1  0
M  END
$$$$
