EQL.pdb
     RDKit          3D

 27 26  0  0  1  0  0  0  0  0999 V2000
   24.6022  -20.1724  -16.6443 N   0  0  0  0  0  0  0  0  0  0  0  0
   25.6594  -19.3707  -15.9604 C   0  0  1  0  0  0  0  0  0  0  0  0
   25.7220  -18.0510  -16.6929 C   0  0  0  0  0  0  0  0  0  0  0  0
   25.9119  -18.1286  -18.1626 C   0  0  0  0  0  0  0  0  0  0  0  0
   27.1264  -18.8585  -18.5678 C   0  0  0  0  0  0  0  0  0  0  0  0
   28.0519  -19.1881  -17.7921 O   0  0  0  0  0  0  0  0  0  0  0  0
   25.1439  -19.1060  -14.5728 C   0  0  0  0  0  0  0  0  0  0  0  0
   24.9573  -17.8938  -14.2626 O   0  0  0  0  0  0  0  0  0  0  0  0
   27.2548  -19.2130  -19.9316 O   0  0  0  0  0  0  0  0  0  0  0  0
   20.0795  -20.5003  -11.9629 N   0  0  0  0  0  0  0  0  0  0  0  0
   20.8248  -21.4955  -12.6630 C   0  0  0  0  0  0  0  0  0  0  0  0
   20.1989  -22.4476  -13.1343 O   0  0  0  0  0  0  0  0  0  0  0  0
   22.3163  -21.3564  -12.8049 C   0  0  0  0  0  0  0  0  0  0  0  0
   22.8249  -20.1215  -12.1560 C   0  0  0  0  0  0  0  0  0  0  0  0
   24.3006  -19.8629  -12.2993 C   0  0  2  0  0  0  0  0  0  0  0  0
   24.8524  -20.0677  -13.6032 N   0  0  0  0  0  0  0  0  0  0  0  0
   25.0309  -20.4524  -11.1782 C   0  0  0  0  0  0  0  0  0  0  0  0
   25.3814  -21.6668  -11.3245 O   0  0  0  0  0  0  0  0  0  0  0  0
   27.8020  -18.6742   -5.9558 C   0  0  0  0  0  0  0  0  0  0  0  0
   27.5516  -19.8129   -6.9092 C   0  0  2  0  0  0  0  0  0  0  0  0
   28.7283  -20.7323   -7.0966 C   0  0  0  0  0  0  0  0  0  0  0  0
   26.8443  -19.4476   -8.1492 C   0  0  0  0  0  0  0  0  0  0  0  0
   25.9681  -20.4141   -8.8165 C   0  0  2  0  0  0  0  0  0  0  0  0
   25.3524  -19.7526   -9.9799 N   0  0  0  0  0  0  0  0  0  0  0  0
   24.9440  -21.1092   -8.0643 C   0  0  0  0  0  0  0  0  0  0  0  0
   25.2745  -22.3108   -7.4079 O   0  0  0  0  0  0  0  0  0  0  0  0
   23.7433  -20.7810   -7.9022 O   0  0  0  0  0  0  0  0  0  0  0  0
  2  1  1  6
  3  2  1  0
  3  4  1  0
  5  6  2  0
  5  4  1  0
  7  8  2  0
  7  2  1  0
  9  5  1  0
 10 11  1  0
 11 12  2  0
 11 13  1  0
 13 14  1  0
 15 14  1  6
 15 16  1  0
 16  7  1  0
 17 18  2  0
 17 15  1  0
 20 22  1  0
 20 19  1  6
 21 20  1  0
 23 24  1  0
 23 22  1  1
 24 17  1  0
 25 23  1  0
 26 25  1  0
 27 25  2  0
M  END
$$$$
