EQL.pdb
     RDKit          3D

 27 26  0  0  1  0  0  0  0  0999 V2000
   16.6405  -13.2875  -17.3343 N   0  0  0  0  0  0  0  0  0  0  0  0
   16.0221  -11.9426  -17.5263 C   0  0  1  0  0  0  0  0  0  0  0  0
   15.2696  -11.6432  -16.2510 C   0  0  0  0  0  0  0  0  0  0  0  0
   14.0244  -12.4198  -16.0303 C   0  0  0  0  0  0  0  0  0  0  0  0
   13.3124  -12.0624  -14.7905 C   0  0  0  0  0  0  0  0  0  0  0  0
   13.6826  -11.1780  -13.9856 O   0  0  0  0  0  0  0  0  0  0  0  0
   17.1667  -10.9726  -17.6270 C   0  0  0  0  0  0  0  0  0  0  0  0
   18.3212  -11.4378  -17.4007 O   0  0  0  0  0  0  0  0  0  0  0  0
   12.1242  -12.7692  -14.4889 O   0  0  0  0  0  0  0  0  0  0  0  0
   17.2470   -5.0412  -20.1344 N   0  0  0  0  0  0  0  0  0  0  0  0
   18.6193   -5.2838  -19.8275 C   0  0  0  0  0  0  0  0  0  0  0  0
   19.4381   -4.4275  -20.1691 O   0  0  0  0  0  0  0  0  0  0  0  0
   19.0176   -6.5456  -19.1110 C   0  0  0  0  0  0  0  0  0  0  0  0
   17.8525   -7.4270  -18.8455 C   0  0  0  0  0  0  0  0  0  0  0  0
   18.1314   -8.6562  -18.0231 C   0  0  2  0  0  0  0  0  0  0  0  0
   17.0737   -9.6164  -17.9467 N   0  0  0  0  0  0  0  0  0  0  0  0
   18.7759   -8.2891  -16.7632 C   0  0  0  0  0  0  0  0  0  0  0  0
   17.9947   -8.1058  -15.7757 O   0  0  0  0  0  0  0  0  0  0  0  0
   22.2524   -9.5129  -12.7625 C   0  0  0  0  0  0  0  0  0  0  0  0
   22.7988   -8.7673  -13.9515 C   0  0  2  0  0  0  0  0  0  0  0  0
   23.3758   -7.4169  -13.6225 C   0  0  0  0  0  0  0  0  0  0  0  0
   21.9526   -8.8048  -15.1573 C   0  0  0  0  0  0  0  0  0  0  0  0
   20.8098   -7.8974  -15.2909 C   0  0  2  0  0  0  0  0  0  0  0  0
   20.1829   -8.1347  -16.6027 N   0  0  0  0  0  0  0  0  0  0  0  0
   20.9839   -6.4730  -15.0948 C   0  0  0  0  0  0  0  0  0  0  0  0
   20.8180   -5.9350  -13.8038 O   0  0  0  0  0  0  0  0  0  0  0  0
   21.2770   -5.6024  -15.9504 O   0  0  0  0  0  0  0  0  0  0  0  0
  2  1  1  1
  3  2  1  0
  3  4  1  0
  5  6  2  0
  5  4  1  0
  7  8  2  0
  7  2  1  0
  9  5  1  0
 10 11  1  0
 11 12  2  0
 11 13  1  0
 13 14  1  0
 15 14  1  1
 15 16  1  0
 16  7  1  0
 17 18  2  0
 17 15  1  0
 20 22  1  0
 20 19  1  1
 21 20  1  0
 23 24  1  0
 23 22  1  6
 24 17  1  0
 25 23  1  0
 26 25  1  0
 27 25  2  0
M  END
$$$$
