EQL.pdb
     RDKit          3D

 27 26  0  0  1  0  0  0  0  0999 V2000
   18.3730  -25.6222   -9.5782 N   0  0  0  0  0  0  0  0  0  0  0  0
   18.8345  -25.0112   -8.2969 C   0  0  1  0  0  0  0  0  0  0  0  0
   18.3879  -23.5686   -8.3376 C   0  0  0  0  0  0  0  0  0  0  0  0
   19.1268  -22.6827   -9.2710 C   0  0  0  0  0  0  0  0  0  0  0  0
   18.3364  -22.2595  -10.4407 C   0  0  0  0  0  0  0  0  0  0  0  0
   17.3851  -21.4467  -10.4018 O   0  0  0  0  0  0  0  0  0  0  0  0
   18.0631  -25.7041   -7.2078 C   0  0  0  0  0  0  0  0  0  0  0  0
   16.8072  -25.5515   -7.2221 O   0  0  0  0  0  0  0  0  0  0  0  0
   18.6781  -22.8111  -11.6982 O   0  0  0  0  0  0  0  0  0  0  0  0
   18.1516  -31.4768   -5.3376 N   0  0  0  0  0  0  0  0  0  0  0  0
   17.4939  -30.8272   -6.4246 C   0  0  0  0  0  0  0  0  0  0  0  0
   17.0254  -31.5413   -7.3140 O   0  0  0  0  0  0  0  0  0  0  0  0
   17.3912  -29.3263   -6.4524 C   0  0  0  0  0  0  0  0  0  0  0  0
   17.9655  -28.7060   -5.2316 C   0  0  0  0  0  0  0  0  0  0  0  0
   17.9003  -27.2038   -5.1640 C   0  0  2  0  0  0  0  0  0  0  0  0
   18.6008  -26.4960   -6.1911 N   0  0  0  0  0  0  0  0  0  0  0  0
   18.1125  -26.7474   -3.7914 C   0  0  0  0  0  0  0  0  0  0  0  0
   19.2538  -26.2403   -3.5479 O   0  0  0  0  0  0  0  0  0  0  0  0
   14.8775  -24.5641    0.9097 C   0  0  0  0  0  0  0  0  0  0  0  0
   16.2189  -25.0707    0.4489 C   0  0  2  0  0  0  0  0  0  0  0  0
   17.3702  -24.1588    0.7776 C   0  0  0  0  0  0  0  0  0  0  0  0
   16.2416  -25.6348   -0.9122 C   0  0  0  0  0  0  0  0  0  0  0  0
   17.3973  -26.4066   -1.3768 C   0  0  2  0  0  0  0  0  0  0  0  0
   17.1354  -26.8429   -2.7593 N   0  0  0  0  0  0  0  0  0  0  0  0
   17.8802  -27.5320   -0.6036 C   0  0  0  0  0  0  0  0  0  0  0  0
   17.6905  -28.8358   -1.1016 O   0  0  0  0  0  0  0  0  0  0  0  0
   18.4746  -27.5155    0.5020 O   0  0  0  0  0  0  0  0  0  0  0  0
  2  1  1  6
  3  2  1  0
  3  4  1  0
  5  6  2  0
  5  4  1  0
  7  8  2  0
  7  2  1  0
  9  5  1  0
 10 11  1  0
 11 12  2  0
 11 13  1  0
 13 14  1  0
 15 14  1  1
 15 16  1  0
 16  7  1  0
 17 18  2  0
 17 15  1  0
 20 22  1  0
 20 19  1  6
 21 20  1  0
 23 24  1  0
 23 22  1  1
 24 17  1  0
 25 23  1  0
 26 25  1  0
 27 25  2  0
M  END
$$$$
