EQL.pdb
     RDKit          3D

 27 26  0  0  1  0  0  0  0  0999 V2000
   21.9146   -6.2877  -17.8480 N   0  0  0  0  0  0  0  0  0  0  0  0
   22.1209   -7.3773  -16.8489 C   0  0  1  0  0  0  0  0  0  0  0  0
   21.8695   -6.7556  -15.4952 C   0  0  0  0  0  0  0  0  0  0  0  0
   22.9042   -5.8093  -15.0093 C   0  0  0  0  0  0  0  0  0  0  0  0
   22.6215   -5.2530  -13.6742 C   0  0  0  0  0  0  0  0  0  0  0  0
   23.1482   -4.2178  -13.2073 O   0  0  0  0  0  0  0  0  0  0  0  0
   21.0333   -8.3837  -17.1053 C   0  0  0  0  0  0  0  0  0  0  0  0
   20.0217   -7.9702  -17.7426 O   0  0  0  0  0  0  0  0  0  0  0  0
   21.6867   -5.9379  -12.8622 O   0  0  0  0  0  0  0  0  0  0  0  0
   20.0499  -15.3507  -18.0095 N   0  0  0  0  0  0  0  0  0  0  0  0
   19.8446  -14.5451  -16.8499 C   0  0  0  0  0  0  0  0  0  0  0  0
   20.0990  -15.0505  -15.7543 O   0  0  0  0  0  0  0  0  0  0  0  0
   19.3384  -13.1354  -16.9939 C   0  0  0  0  0  0  0  0  0  0  0  0
   20.4217  -12.1343  -16.8235 C   0  0  0  0  0  0  0  0  0  0  0  0
   19.9973  -10.6912  -16.8706 C   0  0  2  0  0  0  0  0  0  0  0  0
   21.0380   -9.7228  -16.7095 N   0  0  0  0  0  0  0  0  0  0  0  0
   18.7869  -10.4914  -16.0753 C   0  0  0  0  0  0  0  0  0  0  0  0
   18.9710  -10.2516  -14.8394 O   0  0  0  0  0  0  0  0  0  0  0  0
   12.9449   -9.4737  -16.4637 C   0  0  0  0  0  0  0  0  0  0  0  0
   14.1670   -8.8960  -15.7996 C   0  0  2  0  0  0  0  0  0  0  0  0
   14.0528   -7.4346  -15.4589 C   0  0  0  0  0  0  0  0  0  0  0  0
   15.4530   -9.2964  -16.3973 C   0  0  0  0  0  0  0  0  0  0  0  0
   16.2681  -10.3422  -15.7734 C   0  0  2  0  0  0  0  0  0  0  0  0
   17.4659  -10.5515  -16.6050 N   0  0  0  0  0  0  0  0  0  0  0  0
   15.6816  -11.6258  -15.4479 C   0  0  0  0  0  0  0  0  0  0  0  0
   14.9021  -11.7454  -14.2809 O   0  0  0  0  0  0  0  0  0  0  0  0
   15.7696  -12.7031  -16.0863 O   0  0  0  0  0  0  0  0  0  0  0  0
  2  1  1  6
  3  2  1  0
  3  4  1  0
  5  6  2  0
  5  4  1  0
  7  8  2  0
  7  2  1  0
  9  5  1  0
 10 11  1  0
 11 12  2  0
 11 13  1  0
 13 14  1  0
 15 14  1  1
 15 16  1  0
 16  7  1  0
 17 18  2  0
 17 15  1  0
 20 22  1  0
 20 19  1  6
 21 20  1  0
 23 24  1  0
 23 22  1  6
 24 17  1  0
 25 23  1  0
 26 25  1  0
 27 25  2  0
M  END
$$$$
