EQL.pdb
     RDKit          3D

 27 26  0  0  1  0  0  0  0  0999 V2000
   18.5391  -12.0849  -14.9589 N   0  0  0  0  0  0  0  0  0  0  0  0
   17.4115  -11.1178  -14.8131 C   0  0  1  0  0  0  0  0  0  0  0  0
   16.2048  -11.9391  -14.4240 C   0  0  0  0  0  0  0  0  0  0  0  0
   15.5117  -12.6451  -15.5300 C   0  0  0  0  0  0  0  0  0  0  0  0
   14.3714  -13.4678  -15.0885 C   0  0  0  0  0  0  0  0  0  0  0  0
   14.4059  -14.7095  -14.9338 O   0  0  0  0  0  0  0  0  0  0  0  0
   17.7694  -10.2394  -13.6462 C   0  0  0  0  0  0  0  0  0  0  0  0
   18.0989  -10.8295  -12.5767 O   0  0  0  0  0  0  0  0  0  0  0  0
   13.1500  -12.8060  -14.8192 O   0  0  0  0  0  0  0  0  0  0  0  0
   21.2652   -5.1745  -13.1875 N   0  0  0  0  0  0  0  0  0  0  0  0
   21.4253   -6.4716  -13.7603 C   0  0  0  0  0  0  0  0  0  0  0  0
   22.4470   -6.6802  -14.4183 O   0  0  0  0  0  0  0  0  0  0  0  0
   20.3697   -7.5226  -13.5480 C   0  0  0  0  0  0  0  0  0  0  0  0
   19.2155   -7.0040  -12.7710 C   0  0  0  0  0  0  0  0  0  0  0  0
   18.0869   -7.9732  -12.5432 C   0  0  2  0  0  0  0  0  0  0  0  0
   17.7735   -8.8430  -13.6349 N   0  0  0  0  0  0  0  0  0  0  0  0
   16.9613   -7.2997  -11.8975 C   0  0  0  0  0  0  0  0  0  0  0  0
   16.0521   -6.8714  -12.6778 O   0  0  0  0  0  0  0  0  0  0  0  0
   14.6578   -6.6304   -6.1899 C   0  0  0  0  0  0  0  0  0  0  0  0
   14.4008   -6.5259   -7.6702 C   0  0  2  0  0  0  0  0  0  0  0  0
   13.0236   -6.9632   -8.0908 C   0  0  0  0  0  0  0  0  0  0  0  0
   15.4958   -7.0059   -8.5315 C   0  0  0  0  0  0  0  0  0  0  0  0
   15.6858   -6.4458   -9.8722 C   0  0  2  0  0  0  0  0  0  0  0  0
   16.8457   -7.1114  -10.4902 N   0  0  0  0  0  0  0  0  0  0  0  0
   15.8037   -5.0137  -10.0534 C   0  0  0  0  0  0  0  0  0  0  0  0
   14.6562   -4.2705  -10.3921 O   0  0  0  0  0  0  0  0  0  0  0  0
   16.8311   -4.3004   -9.9466 O   0  0  0  0  0  0  0  0  0  0  0  0
  2  1  1  1
  3  2  1  0
  3  4  1  0
  5  6  2  0
  5  4  1  0
  7  8  2  0
  7  2  1  0
  9  5  1  0
 10 11  1  0
 11 12  2  0
 11 13  1  0
 13 14  1  0
 15 14  1  6
 15 16  1  0
 16  7  1  0
 17 18  2  0
 17 15  1  0
 20 22  1  0
 20 19  1  1
 21 20  1  0
 23 24  1  0
 23 22  1  1
 24 17  1  0
 25 23  1  0
 26 25  1  0
 27 25  2  0
M  END
$$$$
