EQL.pdb
     RDKit          3D

 27 26  0  0  1  0  0  0  0  0999 V2000
   25.2738  -18.0840  -17.1071 N   0  0  0  0  0  0  0  0  0  0  0  0
   26.2648  -18.5837  -16.1089 C   0  0  1  0  0  0  0  0  0  0  0  0
   27.3918  -17.5779  -16.0998 C   0  0  0  0  0  0  0  0  0  0  0  0
   28.6499  -18.0014  -16.7632 C   0  0  0  0  0  0  0  0  0  0  0  0
   28.4464  -18.6190  -18.0857 C   0  0  0  0  0  0  0  0  0  0  0  0
   28.0725  -18.0036  -19.1097 O   0  0  0  0  0  0  0  0  0  0  0  0
   25.5751  -18.5181  -14.7742 C   0  0  0  0  0  0  0  0  0  0  0  0
   25.4261  -17.3662  -14.2729 O   0  0  0  0  0  0  0  0  0  0  0  0
   28.6921  -20.0072  -18.2067 O   0  0  0  0  0  0  0  0  0  0  0  0
   20.5687  -21.1869  -12.0740 N   0  0  0  0  0  0  0  0  0  0  0  0
   21.3274  -21.8103  -13.1093 C   0  0  0  0  0  0  0  0  0  0  0  0
   20.8812  -22.8536  -13.5917 O   0  0  0  0  0  0  0  0  0  0  0  0
   22.6176  -21.1902  -13.5731 C   0  0  0  0  0  0  0  0  0  0  0  0
   22.9546  -19.9649  -12.8049 C   0  0  0  0  0  0  0  0  0  0  0  0
   24.4098  -19.5815  -12.7832 C   0  0  2  0  0  0  0  0  0  0  0  0
   25.0859  -19.6030  -14.0437 N   0  0  0  0  0  0  0  0  0  0  0  0
   25.0895  -20.2307  -11.6633 C   0  0  0  0  0  0  0  0  0  0  0  0
   25.5841  -21.3774  -11.9068 O   0  0  0  0  0  0  0  0  0  0  0  0
   27.8988  -18.9256   -6.4538 C   0  0  0  0  0  0  0  0  0  0  0  0
   27.5003  -20.0400   -7.3852 C   0  0  2  0  0  0  0  0  0  0  0  0
   28.5436  -21.1123   -7.5482 C   0  0  0  0  0  0  0  0  0  0  0  0
   26.8510  -19.6091   -8.6358 C   0  0  0  0  0  0  0  0  0  0  0  0
   25.7645  -20.4006   -9.2193 C   0  0  2  0  0  0  0  0  0  0  0  0
   25.2155  -19.6563  -10.3658 N   0  0  0  0  0  0  0  0  0  0  0  0
   24.6754  -20.8680   -8.3868 C   0  0  0  0  0  0  0  0  0  0  0  0
   24.8894  -21.9695   -7.5354 O   0  0  0  0  0  0  0  0  0  0  0  0
   23.5087  -20.4117   -8.3076 O   0  0  0  0  0  0  0  0  0  0  0  0
  2  1  1  6
  3  2  1  0
  3  4  1  0
  5  6  2  0
  5  4  1  0
  7  8  2  0
  7  2  1  0
  9  5  1  0
 10 11  1  0
 11 12  2  0
 11 13  1  0
 13 14  1  0
 15 14  1  6
 15 16  1  0
 16  7  1  0
 17 18  2  0
 17 15  1  0
 20 22  1  0
 20 19  1  6
 21 20  1  0
 23 24  1  0
 23 22  1  1
 24 17  1  0
 25 23  1  0
 26 25  1  0
 27 25  2  0
M  END
$$$$
