EQL.pdb
     RDKit          3D

 27 26  0  0  1  0  0  0  0  0999 V2000
   21.7774  -15.3771  -20.5501 N   0  0  0  0  0  0  0  0  0  0  0  0
   21.8507  -15.4158  -19.0597 C   0  0  1  0  0  0  0  0  0  0  0  0
   23.3103  -15.6027  -18.7181 C   0  0  0  0  0  0  0  0  0  0  0  0
   23.8726  -16.9521  -18.9731 C   0  0  0  0  0  0  0  0  0  0  0  0
   25.3078  -17.0675  -18.6590 C   0  0  0  0  0  0  0  0  0  0  0  0
   25.7835  -17.1033  -17.5016 O   0  0  0  0  0  0  0  0  0  0  0  0
   21.4369  -14.0483  -18.5906 C   0  0  0  0  0  0  0  0  0  0  0  0
   21.9935  -13.0649  -19.1596 O   0  0  0  0  0  0  0  0  0  0  0  0
   26.2131  -17.1444  -19.7438 O   0  0  0  0  0  0  0  0  0  0  0  0
   16.1109  -12.1305  -15.6615 N   0  0  0  0  0  0  0  0  0  0  0  0
   16.9702  -11.0141  -15.4345 C   0  0  0  0  0  0  0  0  0  0  0  0
   16.4871  -10.0309  -14.8685 O   0  0  0  0  0  0  0  0  0  0  0  0
   18.4066  -11.0685  -15.8793 C   0  0  0  0  0  0  0  0  0  0  0  0
   18.7361  -12.3556  -16.5423 C   0  0  0  0  0  0  0  0  0  0  0  0
   20.1435  -12.4880  -17.0591 C   0  0  2  0  0  0  0  0  0  0  0  0
   20.5006  -13.7659  -17.5938 N   0  0  0  0  0  0  0  0  0  0  0  0
   21.0880  -11.8821  -16.1219 C   0  0  0  0  0  0  0  0  0  0  0  0
   21.4898  -12.6350  -15.1781 O   0  0  0  0  0  0  0  0  0  0  0  0
   26.3097   -9.6222  -15.8238 C   0  0  0  0  0  0  0  0  0  0  0  0
   25.0494   -9.7558  -15.0101 C   0  0  2  0  0  0  0  0  0  0  0  0
   25.2506  -10.3844  -13.6576 C   0  0  0  0  0  0  0  0  0  0  0  0
   23.8730  -10.2415  -15.7527 C   0  0  0  0  0  0  0  0  0  0  0  0
   22.5198   -9.9669  -15.2620 C   0  0  2  0  0  0  0  0  0  0  0  0
   21.5569  -10.5405  -16.2180 N   0  0  0  0  0  0  0  0  0  0  0  0
   22.1233   -8.6120  -14.9386 C   0  0  0  0  0  0  0  0  0  0  0  0
   21.2492   -7.9295  -15.8070 O   0  0  0  0  0  0  0  0  0  0  0  0
   22.4608   -7.9209  -13.9465 O   0  0  0  0  0  0  0  0  0  0  0  0
  2  1  1  6
  3  2  1  0
  3  4  1  0
  5  6  2  0
  5  4  1  0
  7  8  2  0
  7  2  1  0
  9  5  1  0
 10 11  1  0
 11 12  2  0
 11 13  1  0
 13 14  1  0
 15 14  1  1
 15 16  1  0
 16  7  1  0
 17 18  2  0
 17 15  1  0
 20 22  1  0
 20 19  1  6
 21 20  1  0
 23 24  1  0
 23 22  1  6
 24 17  1  0
 25 23  1  0
 26 25  1  0
 27 25  2  0
M  END
$$$$
