EQL.pdb
     RDKit          3D

 27 26  0  0  1  0  0  0  0  0999 V2000
   15.7898  -12.9217  -17.0684 N   0  0  0  0  0  0  0  0  0  0  0  0
   16.3910  -12.2947  -15.8545 C   0  0  1  0  0  0  0  0  0  0  0  0
   17.6505  -13.0758  -15.5614 C   0  0  0  0  0  0  0  0  0  0  0  0
   17.7104  -14.4502  -16.1179 C   0  0  0  0  0  0  0  0  0  0  0  0
   18.9434  -15.1791  -15.7711 C   0  0  0  0  0  0  0  0  0  0  0  0
   20.0014  -15.1487  -16.4396 O   0  0  0  0  0  0  0  0  0  0  0  0
   16.7931  -10.9048  -16.2641 C   0  0  0  0  0  0  0  0  0  0  0  0
   17.4418  -10.8013  -17.3453 O   0  0  0  0  0  0  0  0  0  0  0  0
   18.9306  -15.9695  -14.5974 O   0  0  0  0  0  0  0  0  0  0  0  0
   13.0895   -6.6699  -15.5994 N   0  0  0  0  0  0  0  0  0  0  0  0
   13.2213   -7.6047  -16.6694 C   0  0  0  0  0  0  0  0  0  0  0  0
   12.1872   -7.9833  -17.2241 O   0  0  0  0  0  0  0  0  0  0  0  0
   14.5854   -8.0878  -17.0818 C   0  0  0  0  0  0  0  0  0  0  0  0
   15.6624   -7.4889  -16.2534 C   0  0  0  0  0  0  0  0  0  0  0  0
   16.8330   -8.3845  -15.9486 C   0  0  2  0  0  0  0  0  0  0  0  0
   16.5169   -9.7266  -15.5673 N   0  0  0  0  0  0  0  0  0  0  0  0
   17.8094   -7.6799  -15.1194 C   0  0  0  0  0  0  0  0  0  0  0  0
   17.6941   -7.8510  -13.8639 O   0  0  0  0  0  0  0  0  0  0  0  0
   23.5650   -5.9414  -15.1236 C   0  0  0  0  0  0  0  0  0  0  0  0
   22.2905   -6.0358  -14.3268 C   0  0  2  0  0  0  0  0  0  0  0  0
   22.4727   -6.5649  -12.9298 C   0  0  0  0  0  0  0  0  0  0  0  0
   21.1356   -6.5893  -15.0556 C   0  0  0  0  0  0  0  0  0  0  0  0
   19.7796   -6.1135  -14.7695 C   0  0  2  0  0  0  0  0  0  0  0  0
   18.8409   -6.8451  -15.6376 N   0  0  0  0  0  0  0  0  0  0  0  0
   19.4776   -4.6980  -14.8244 C   0  0  0  0  0  0  0  0  0  0  0  0
   19.5445   -3.9380  -13.6404 O   0  0  0  0  0  0  0  0  0  0  0  0
   19.1488   -4.0133  -15.8238 O   0  0  0  0  0  0  0  0  0  0  0  0
  2  1  1  6
  3  2  1  0
  3  4  1  0
  5  6  2  0
  5  4  1  0
  7  8  2  0
  7  2  1  0
  9  5  1  0
 10 11  1  0
 11 12  2  0
 11 13  1  0
 13 14  1  0
 15 14  1  1
 15 16  1  0
 16  7  1  0
 17 18  2  0
 17 15  1  0
 20 22  1  0
 20 19  1  6
 21 20  1  0
 23 24  1  0
 23 22  1  6
 24 17  1  0
 25 23  1  0
 26 25  1  0
 27 25  2  0
M  END
$$$$
