EQL.pdb
     RDKit          3D

 27 26  0  0  1  0  0  0  0  0999 V2000
   20.1917  -14.5043  -19.0367 N   0  0  0  0  0  0  0  0  0  0  0  0
   19.1231  -13.5123  -18.7170 C   0  0  1  0  0  0  0  0  0  0  0  0
   18.6009  -13.8872  -17.3500 C   0  0  0  0  0  0  0  0  0  0  0  0
   17.7414  -15.0954  -17.2884 C   0  0  0  0  0  0  0  0  0  0  0  0
   17.1423  -15.3323  -15.9629 C   0  0  0  0  0  0  0  0  0  0  0  0
   16.4897  -14.4840  -15.3138 O   0  0  0  0  0  0  0  0  0  0  0  0
   19.8160  -12.1829  -18.5993 C   0  0  0  0  0  0  0  0  0  0  0  0
   20.9956  -12.2007  -18.1424 O   0  0  0  0  0  0  0  0  0  0  0  0
   17.3167  -16.6112  -15.3829 O   0  0  0  0  0  0  0  0  0  0  0  0
   17.9094   -6.4549  -20.8613 N   0  0  0  0  0  0  0  0  0  0  0  0
   19.1213   -6.1286  -20.1825 C   0  0  0  0  0  0  0  0  0  0  0  0
   19.5067   -4.9587  -20.2379 O   0  0  0  0  0  0  0  0  0  0  0  0
   19.8746   -7.1951  -19.4346 C   0  0  0  0  0  0  0  0  0  0  0  0
   19.2253   -8.5250  -19.5563 C   0  0  0  0  0  0  0  0  0  0  0  0
   19.8928   -9.6531  -18.8167 C   0  0  2  0  0  0  0  0  0  0  0  0
   19.2822  -10.9403  -18.9471 N   0  0  0  0  0  0  0  0  0  0  0  0
   20.2515   -9.2316  -17.4636 C   0  0  0  0  0  0  0  0  0  0  0  0
   19.3590   -9.4096  -16.5744 O   0  0  0  0  0  0  0  0  0  0  0  0
   22.5250  -10.3083  -13.5009 C   0  0  0  0  0  0  0  0  0  0  0  0
   23.3707  -10.1789  -14.7404 C   0  0  2  0  0  0  0  0  0  0  0  0
   24.7921  -10.6432  -14.5701 C   0  0  0  0  0  0  0  0  0  0  0  0
   23.2145   -8.9116  -15.4758 C   0  0  0  0  0  0  0  0  0  0  0  0
   21.8813   -8.3554  -15.7217 C   0  0  2  0  0  0  0  0  0  0  0  0
   21.5062   -8.6543  -17.1146 N   0  0  0  0  0  0  0  0  0  0  0  0
   21.6113   -6.9601  -15.4426 C   0  0  0  0  0  0  0  0  0  0  0  0
   21.4055   -6.5568  -14.1089 O   0  0  0  0  0  0  0  0  0  0  0  0
   21.5304   -6.0079  -16.2566 O   0  0  0  0  0  0  0  0  0  0  0  0
  2  1  1  1
  3  2  1  0
  3  4  1  0
  5  6  2  0
  5  4  1  0
  7  8  2  0
  7  2  1  0
  9  5  1  0
 10 11  1  0
 11 12  2  0
 11 13  1  0
 13 14  1  0
 15 14  1  1
 15 16  1  0
 16  7  1  0
 17 18  2  0
 17 15  1  0
 20 22  1  0
 20 19  1  1
 21 20  1  0
 23 24  1  0
 23 22  1  6
 24 17  1  0
 25 23  1  0
 26 25  1  0
 27 25  2  0
M  END
$$$$
