EAV.pdb
     RDKit          3D

 22 21  0  0  1  0  0  0  0  0999 V2000
   10.4213  -17.4106   19.4104 N   0  0  0  0  0  0  0  0  0  0  0  0
   10.3386  -17.8306   20.7538 C   0  0  1  0  0  0  0  0  0  0  0  0
   11.6251  -17.9793   21.4840 C   0  0  0  0  0  0  0  0  0  0  0  0
   12.6720  -17.0062   21.1285 C   0  0  0  0  0  0  0  0  0  0  0  0
   13.9636  -17.2228   21.7795 C   0  0  0  0  0  0  0  0  0  0  0  0
   14.8840  -17.8491   21.2390 O   0  0  0  0  0  0  0  0  0  0  0  0
    9.3851  -17.0015   21.5554 C   0  0  0  0  0  0  0  0  0  0  0  0
    9.3026  -15.7452   21.3566 O   0  0  0  0  0  0  0  0  0  0  0  0
   14.1363  -16.6836   23.0760 O   0  0  0  0  0  0  0  0  0  0  0  0
    6.6298  -17.8572   23.8794 C   0  0  0  0  0  0  0  0  0  0  0  0
    7.4743  -16.8290   23.1586 C   0  0  2  0  0  0  0  0  0  0  0  0
    8.5754  -17.5733   22.5273 N   0  0  0  0  0  0  0  0  0  0  0  0
    8.1098  -15.9345   24.1565 C   0  0  0  0  0  0  0  0  0  0  0  0
    9.2978  -16.0604   24.5548 O   0  0  0  0  0  0  0  0  0  0  0  0
    5.6459  -13.1053   26.3843 C   0  0  0  0  0  0  0  0  0  0  0  0
    6.9844  -12.7360   25.8403 C   0  0  1  0  0  0  0  0  0  0  0  0
    7.6298  -11.6738   26.6933 C   0  0  0  0  0  0  0  0  0  0  0  0
    7.8886  -13.9381   25.6590 C   0  0  2  0  0  0  0  0  0  0  0  0
    7.3400  -14.8695   24.7003 N   0  0  0  0  0  0  0  0  0  0  0  0
    8.1390  -14.6357   26.9386 C   0  0  0  0  0  0  0  0  0  0  0  0
    9.1580  -14.3108   27.8189 O   0  0  0  0  0  0  0  0  0  0  0  0
    7.3912  -15.5850   27.2654 O   0  0  0  0  0  0  0  0  0  0  0  0
  2  1  1  6
  3  2  1  0
  4  3  1  0
  4  5  1  0
  5  9  1  0
  5  6  2  0
  7  2  1  0
  8  7  2  0
 11 10  1  1
 11 13  1  0
 11 12  1  0
 12  7  1  0
 13 19  1  0
 14 13  2  0
 16 15  1  1
 16 17  1  0
 18 16  1  0
 18 20  1  0
 18 19  1  6
 20 22  2  0
 20 21  1  0
M  END
$$$$
