EAV.pdb
     RDKit          3D

 22 21  0  0  1  0  0  0  0  0999 V2000
    8.3076  -17.7447   19.7787 N   0  0  0  0  0  0  0  0  0  0  0  0
    8.7770  -17.9124   21.0976 C   0  0  1  0  0  0  0  0  0  0  0  0
   10.2315  -17.6973   21.3177 C   0  0  0  0  0  0  0  0  0  0  0  0
   10.9493  -17.0387   20.2130 C   0  0  0  0  0  0  0  0  0  0  0  0
   12.3981  -16.9426   20.3880 C   0  0  0  0  0  0  0  0  0  0  0  0
   12.9809  -17.4077   21.3757 O   0  0  0  0  0  0  0  0  0  0  0  0
    7.9841  -17.1242   22.0922 C   0  0  0  0  0  0  0  0  0  0  0  0
    7.5182  -15.9797   21.7799 O   0  0  0  0  0  0  0  0  0  0  0  0
   13.1333  -16.2873   19.3724 O   0  0  0  0  0  0  0  0  0  0  0  0
    6.5517  -17.8803   25.4202 C   0  0  0  0  0  0  0  0  0  0  0  0
    6.8963  -16.8880   24.3309 C   0  0  2  0  0  0  0  0  0  0  0  0
    7.7398  -17.6136   23.3681 N   0  0  0  0  0  0  0  0  0  0  0  0
    7.7556  -15.8206   24.8983 C   0  0  0  0  0  0  0  0  0  0  0  0
    9.0144  -15.8575   24.8940 O   0  0  0  0  0  0  0  0  0  0  0  0
    6.7215  -11.8475   24.8471 C   0  0  0  0  0  0  0  0  0  0  0  0
    7.1053  -12.3475   26.1986 C   0  0  1  0  0  0  0  0  0  0  0  0
    5.8917  -12.4681   27.0847 C   0  0  0  0  0  0  0  0  0  0  0  0
    7.8878  -13.6434   26.1370 C   0  0  2  0  0  0  0  0  0  0  0  0
    7.1299  -14.6853   25.4832 N   0  0  0  0  0  0  0  0  0  0  0  0
    8.3001  -14.1011   27.4814 C   0  0  0  0  0  0  0  0  0  0  0  0
    7.8218  -15.2458   28.0974 O   0  0  0  0  0  0  0  0  0  0  0  0
    9.1359  -13.4227   28.1203 O   0  0  0  0  0  0  0  0  0  0  0  0
  2  1  1  6
  3  2  1  0
  4  3  1  0
  4  5  1  0
  5  9  1  0
  5  6  2  0
  7  2  1  0
  8  7  2  0
 11 10  1  1
 11 13  1  0
 11 12  1  0
 12  7  1  0
 13 19  1  0
 14 13  2  0
 16 15  1  6
 16 17  1  0
 18 16  1  0
 18 20  1  0
 18 19  1  1
 20 22  2  0
 20 21  1  0
M  END
$$$$
