EAV.pdb
     RDKit          3D

 22 21  0  0  1  0  0  0  0  0999 V2000
    9.5104  -14.9065   19.2289 N   0  0  0  0  0  0  0  0  0  0  0  0
    8.5348  -14.0013   19.6944 C   0  0  1  0  0  0  0  0  0  0  0  0
    7.4749  -13.6113   18.7275 C   0  0  0  0  0  0  0  0  0  0  0  0
    7.9516  -13.2012   17.3956 C   0  0  0  0  0  0  0  0  0  0  0  0
    8.2868  -14.3023   16.4933 C   0  0  0  0  0  0  0  0  0  0  0  0
    7.7606  -15.4188   16.5826 O   0  0  0  0  0  0  0  0  0  0  0  0
    7.9175  -14.4385   20.9855 C   0  0  0  0  0  0  0  0  0  0  0  0
    7.0104  -13.7320   21.5354 O   0  0  0  0  0  0  0  0  0  0  0  0
    9.2530  -14.0500   15.4912 O   0  0  0  0  0  0  0  0  0  0  0  0
    8.0924  -17.5238   23.0228 C   0  0  0  0  0  0  0  0  0  0  0  0
    7.6965  -16.0716   22.8657 C   0  0  2  0  0  0  0  0  0  0  0  0
    8.3144  -15.6121   21.6120 N   0  0  0  0  0  0  0  0  0  0  0  0
    8.3293  -15.2748   23.9448 C   0  0  0  0  0  0  0  0  0  0  0  0
    9.5347  -14.9106   23.9328 O   0  0  0  0  0  0  0  0  0  0  0  0
    7.4366  -12.0606   27.5511 C   0  0  0  0  0  0  0  0  0  0  0  0
    6.9648  -12.9908   26.4853 C   0  0  1  0  0  0  0  0  0  0  0  0
    6.4425  -12.2194   25.3001 C   0  0  0  0  0  0  0  0  0  0  0  0
    8.0251  -13.9944   26.0803 C   0  0  2  0  0  0  0  0  0  0  0  0
    7.5356  -14.8952   25.0622 N   0  0  0  0  0  0  0  0  0  0  0  0
    8.5141  -14.7748   27.2374 C   0  0  0  0  0  0  0  0  0  0  0  0
    9.5258  -14.3601   28.0877 O   0  0  0  0  0  0  0  0  0  0  0  0
    7.9913  -15.8859   27.4809 O   0  0  0  0  0  0  0  0  0  0  0  0
  2  1  1  6
  3  2  1  0
  4  3  1  0
  4  5  1  0
  5  9  1  0
  5  6  2  0
  7  2  1  0
  8  7  2  0
 11 10  1  1
 11 13  1  0
 11 12  1  0
 12  7  1  0
 13 19  1  0
 14 13  2  0
 16 15  1  1
 16 17  1  0
 18 16  1  0
 18 20  1  0
 18 19  1  6
 20 22  2  0
 20 21  1  0
M  END
$$$$
