EAV.pdb
     RDKit          3D

 22 21  0  0  1  0  0  0  0  0999 V2000
    8.1894  -19.3146   20.6808 N   0  0  0  0  0  0  0  0  0  0  0  0
    8.6425  -17.9880   20.8318 C   0  0  1  0  0  0  0  0  0  0  0  0
    8.8251  -17.2019   19.5833 C   0  0  0  0  0  0  0  0  0  0  0  0
   10.2163  -16.8459   19.2559 C   0  0  0  0  0  0  0  0  0  0  0  0
   10.7651  -17.5173   18.0783 C   0  0  0  0  0  0  0  0  0  0  0  0
   10.6873  -17.0349   16.9412 O   0  0  0  0  0  0  0  0  0  0  0  0
    7.8228  -17.2112   21.8135 C   0  0  0  0  0  0  0  0  0  0  0  0
    6.8961  -16.4368   21.4059 O   0  0  0  0  0  0  0  0  0  0  0  0
   11.4029  -18.7640   18.2792 O   0  0  0  0  0  0  0  0  0  0  0  0
    6.7955  -17.7637   25.1586 C   0  0  0  0  0  0  0  0  0  0  0  0
    7.1564  -16.6814   24.1644 C   0  0  2  0  0  0  0  0  0  0  0  0
    8.0496  -17.3116   23.1795 N   0  0  0  0  0  0  0  0  0  0  0  0
    7.9711  -15.6461   24.8457 C   0  0  0  0  0  0  0  0  0  0  0  0
    9.2278  -15.6792   24.9196 O   0  0  0  0  0  0  0  0  0  0  0  0
    6.9056  -11.6649   24.9453 C   0  0  0  0  0  0  0  0  0  0  0  0
    7.2056  -12.2504   26.2836 C   0  0  1  0  0  0  0  0  0  0  0  0
    5.9369  -12.4471   27.0738 C   0  0  0  0  0  0  0  0  0  0  0  0
    8.0137  -13.5285   26.1895 C   0  0  2  0  0  0  0  0  0  0  0  0
    7.3022  -14.5480   25.4536 N   0  0  0  0  0  0  0  0  0  0  0  0
    8.3795  -14.0472   27.5252 C   0  0  0  0  0  0  0  0  0  0  0  0
    9.3668  -13.5038   28.3306 O   0  0  0  0  0  0  0  0  0  0  0  0
    7.7676  -15.0423   27.9750 O   0  0  0  0  0  0  0  0  0  0  0  0
  2  1  1  6
  3  2  1  0
  4  3  1  0
  4  5  1  0
  5  9  1  0
  5  6  2  0
  7  2  1  0
  8  7  2  0
 11 10  1  1
 11 13  1  0
 11 12  1  0
 12  7  1  0
 13 19  1  0
 14 13  2  0
 16 15  1  6
 16 17  1  0
 18 16  1  0
 18 20  1  0
 18 19  1  1
 20 22  2  0
 20 21  1  0
M  END
$$$$
