EAV.pdb
     RDKit          3D

 22 21  0  0  1  0  0  0  0  0999 V2000
    9.2915  -17.1826   19.6450 N   0  0  0  0  0  0  0  0  0  0  0  0
    9.4268  -17.6740   20.9596 C   0  0  1  0  0  0  0  0  0  0  0  0
   10.8143  -17.8631   21.4589 C   0  0  0  0  0  0  0  0  0  0  0  0
   11.7825  -16.8326   21.0464 C   0  0  0  0  0  0  0  0  0  0  0  0
   13.1632  -17.0816   21.4590 C   0  0  0  0  0  0  0  0  0  0  0  0
   14.0253  -17.5020   20.6770 O   0  0  0  0  0  0  0  0  0  0  0  0
    8.6263  -16.8882   21.9500 C   0  0  0  0  0  0  0  0  0  0  0  0
    8.3665  -15.6590   21.7349 O   0  0  0  0  0  0  0  0  0  0  0  0
   13.4946  -16.8226   22.8098 O   0  0  0  0  0  0  0  0  0  0  0  0
    6.6271  -17.8630   24.9100 C   0  0  0  0  0  0  0  0  0  0  0  0
    7.1645  -16.8001   23.9764 C   0  0  2  0  0  0  0  0  0  0  0  0
    8.1526  -17.4713   23.1173 N   0  0  0  0  0  0  0  0  0  0  0  0
    7.9257  -15.7998   24.7638 C   0  0  0  0  0  0  0  0  0  0  0  0
    9.1786  -15.8128   24.8900 O   0  0  0  0  0  0  0  0  0  0  0  0
    6.5177  -11.9119   25.1160 C   0  0  0  0  0  0  0  0  0  0  0  0
    6.9643  -12.5338   26.3956 C   0  0  1  0  0  0  0  0  0  0  0  0
    5.7786  -12.8848   27.2578 C   0  0  0  0  0  0  0  0  0  0  0  0
    7.8721  -13.7266   26.1749 C   0  0  2  0  0  0  0  0  0  0  0  0
    7.2065  -14.7616   25.4177 N   0  0  0  0  0  0  0  0  0  0  0  0
    8.3639  -14.2870   27.4520 C   0  0  0  0  0  0  0  0  0  0  0  0
    9.3458  -13.7024   28.2347 O   0  0  0  0  0  0  0  0  0  0  0  0
    7.8723  -15.3597   27.8700 O   0  0  0  0  0  0  0  0  0  0  0  0
  2  1  1  6
  3  2  1  0
  4  3  1  0
  4  5  1  0
  5  9  1  0
  5  6  2  0
  7  2  1  0
  8  7  2  0
 11 10  1  1
 11 13  1  0
 11 12  1  0
 12  7  1  0
 13 19  1  0
 14 13  2  0
 16 15  1  6
 16 17  1  0
 18 16  1  0
 18 20  1  0
 18 19  1  1
 20 22  2  0
 20 21  1  0
M  END
$$$$
