EAV.pdb
     RDKit          3D

 22 21  0  0  1  0  0  0  0  0999 V2000
    9.0909  -17.0308   19.6290 N   0  0  0  0  0  0  0  0  0  0  0  0
    9.2609  -17.5405   20.9325 C   0  0  1  0  0  0  0  0  0  0  0  0
   10.6612  -17.7128   21.4013 C   0  0  0  0  0  0  0  0  0  0  0  0
   11.5293  -16.5322   21.2530 C   0  0  0  0  0  0  0  0  0  0  0  0
   12.9243  -16.7385   21.6406 C   0  0  0  0  0  0  0  0  0  0  0  0
   13.3146  -16.6183   22.8089 O   0  0  0  0  0  0  0  0  0  0  0  0
    8.4669  -16.7847   21.9510 C   0  0  0  0  0  0  0  0  0  0  0  0
    8.2315  -15.5425   21.7893 O   0  0  0  0  0  0  0  0  0  0  0  0
   13.8380  -17.0875   20.6184 O   0  0  0  0  0  0  0  0  0  0  0  0
    6.5863  -17.7819   24.9938 C   0  0  0  0  0  0  0  0  0  0  0  0
    7.0559  -16.7282   24.0143 C   0  0  2  0  0  0  0  0  0  0  0  0
    7.9727  -17.4104   23.0875 N   0  0  0  0  0  0  0  0  0  0  0  0
    7.8792  -15.7264   24.7342 C   0  0  0  0  0  0  0  0  0  0  0  0
    9.1371  -15.7585   24.7849 O   0  0  0  0  0  0  0  0  0  0  0  0
    6.6120  -11.7917   25.1777 C   0  0  0  0  0  0  0  0  0  0  0  0
    7.0818  -12.4471   26.4320 C   0  0  1  0  0  0  0  0  0  0  0  0
    5.9157  -12.7718   27.3306 C   0  0  0  0  0  0  0  0  0  0  0  0
    7.9411  -13.6656   26.1630 C   0  0  2  0  0  0  0  0  0  0  0  0
    7.2177  -14.6637   25.4093 N   0  0  0  0  0  0  0  0  0  0  0  0
    8.4521  -14.2652   27.4145 C   0  0  0  0  0  0  0  0  0  0  0  0
    9.4312  -13.6946   28.2110 O   0  0  0  0  0  0  0  0  0  0  0  0
    7.9807  -15.3604   27.7959 O   0  0  0  0  0  0  0  0  0  0  0  0
  2  1  1  6
  3  2  1  0
  4  3  1  0
  4  5  1  0
  5  9  1  0
  5  6  2  0
  7  2  1  0
  8  7  2  0
 11 10  1  1
 11 13  1  0
 11 12  1  0
 12  7  1  0
 13 19  1  0
 14 13  2  0
 16 15  1  6
 16 17  1  0
 18 16  1  0
 18 20  1  0
 18 19  1  1
 20 22  2  0
 20 21  1  0
M  END
$$$$
