EAV.pdb
     RDKit          3D

 22 21  0  0  1  0  0  0  0  0999 V2000
    6.9915  -17.9518   19.7637 N   0  0  0  0  0  0  0  0  0  0  0  0
    7.9561  -17.3445   20.5935 C   0  0  1  0  0  0  0  0  0  0  0  0
    8.8594  -16.3553   19.9487 C   0  0  0  0  0  0  0  0  0  0  0  0
    9.7027  -16.8811   18.8616 C   0  0  0  0  0  0  0  0  0  0  0  0
   10.8980  -17.6009   19.2999 C   0  0  0  0  0  0  0  0  0  0  0  0
   11.9095  -17.0201   19.7136 O   0  0  0  0  0  0  0  0  0  0  0  0
    7.3581  -16.7620   21.8354 C   0  0  0  0  0  0  0  0  0  0  0  0
    6.4028  -15.9221   21.7551 O   0  0  0  0  0  0  0  0  0  0  0  0
   10.8657  -19.0138   19.2361 O   0  0  0  0  0  0  0  0  0  0  0  0
    7.1810  -17.9118   25.2494 C   0  0  0  0  0  0  0  0  0  0  0  0
    7.1250  -16.7155   24.3243 C   0  0  2  0  0  0  0  0  0  0  0  0
    7.8250  -17.1165   23.0938 N   0  0  0  0  0  0  0  0  0  0  0  0
    7.9277  -15.6122   24.9056 C   0  0  0  0  0  0  0  0  0  0  0  0
    9.1645  -15.4696   24.7161 O   0  0  0  0  0  0  0  0  0  0  0  0
    6.4852  -11.8552   25.2202 C   0  0  0  0  0  0  0  0  0  0  0  0
    7.0563  -12.3474   26.5068 C   0  0  1  0  0  0  0  0  0  0  0  0
    5.9588  -12.6386   27.4983 C   0  0  0  0  0  0  0  0  0  0  0  0
    7.9730  -13.5386   26.3164 C   0  0  2  0  0  0  0  0  0  0  0  0
    7.2702  -14.6544   25.7261 N   0  0  0  0  0  0  0  0  0  0  0  0
    8.5945  -13.9631   27.5894 C   0  0  0  0  0  0  0  0  0  0  0  0
    9.6132  -13.2759   28.2285 O   0  0  0  0  0  0  0  0  0  0  0  0
    8.1861  -15.0099   28.1412 O   0  0  0  0  0  0  0  0  0  0  0  0
  2  1  1  6
  3  2  1  0
  4  3  1  0
  4  5  1  0
  5  9  1  0
  5  6  2  0
  7  2  1  0
  8  7  2  0
 11 10  1  1
 11 13  1  0
 11 12  1  0
 12  7  1  0
 13 19  1  0
 14 13  2  0
 16 15  1  6
 16 17  1  0
 18 16  1  0
 18 20  1  0
 18 19  1  1
 20 22  2  0
 20 21  1  0
M  END
$$$$
