EAV.pdb
     RDKit          3D

 22 21  0  0  1  0  0  0  0  0999 V2000
   10.2656  -16.8408   19.6740 N   0  0  0  0  0  0  0  0  0  0  0  0
   10.3738  -17.6184   20.8452 C   0  0  1  0  0  0  0  0  0  0  0  0
   11.7208  -18.1638   21.1587 C   0  0  0  0  0  0  0  0  0  0  0  0
   12.8517  -17.2659   20.8684 C   0  0  0  0  0  0  0  0  0  0  0  0
   14.1679  -17.7956   21.2230 C   0  0  0  0  0  0  0  0  0  0  0  0
   14.7405  -18.6606   20.5480 O   0  0  0  0  0  0  0  0  0  0  0  0
    9.8062  -16.9280   22.0454 C   0  0  0  0  0  0  0  0  0  0  0  0
    9.8282  -15.6561   22.1248 O   0  0  0  0  0  0  0  0  0  0  0  0
   14.7840  -17.2796   22.3873 O   0  0  0  0  0  0  0  0  0  0  0  0
    7.5433  -18.0146   24.7216 C   0  0  0  0  0  0  0  0  0  0  0  0
    8.5200  -16.9889   24.1885 C   0  0  2  0  0  0  0  0  0  0  0  0
    9.2485  -17.6480   23.0932 N   0  0  0  0  0  0  0  0  0  0  0  0
    9.5342  -16.6947   25.2300 C   0  0  0  0  0  0  0  0  0  0  0  0
   10.6313  -17.3043   25.3324 O   0  0  0  0  0  0  0  0  0  0  0  0
    8.4855  -13.9688   28.4275 C   0  0  0  0  0  0  0  0  0  0  0  0
    9.8443  -13.9500   27.8135 C   0  0  1  0  0  0  0  0  0  0  0  0
   10.8746  -13.4991   28.8174 C   0  0  0  0  0  0  0  0  0  0  0  0
   10.2151  -15.2775   27.1845 C   0  0  2  0  0  0  0  0  0  0  0  0
    9.2599  -15.6652   26.1722 N   0  0  0  0  0  0  0  0  0  0  0  0
   10.3289  -16.3517   28.1944 C   0  0  0  0  0  0  0  0  0  0  0  0
   11.4765  -16.6218   28.9215 O   0  0  0  0  0  0  0  0  0  0  0  0
    9.3328  -17.0752   28.4213 O   0  0  0  0  0  0  0  0  0  0  0  0
  2  1  1  6
  3  2  1  0
  4  3  1  0
  4  5  1  0
  5  9  1  0
  5  6  2  0
  7  2  1  0
  8  7  2  0
 11 10  1  1
 11 13  1  0
 11 12  1  0
 12  7  1  0
 13 19  1  0
 14 13  2  0
 16 15  1  1
 16 17  1  0
 18 16  1  0
 18 20  1  0
 18 19  1  6
 20 22  2  0
 20 21  1  0
M  END
$$$$
