EAV.pdb
     RDKit          3D

 22 21  0  0  1  0  0  0  0  0999 V2000
    7.9357  -17.9190   19.4313 N   0  0  0  0  0  0  0  0  0  0  0  0
    8.7344  -17.7502   20.5808 C   0  0  1  0  0  0  0  0  0  0  0  0
   10.0262  -17.0384   20.3938 C   0  0  0  0  0  0  0  0  0  0  0  0
   10.9947  -17.7049   19.5066 C   0  0  0  0  0  0  0  0  0  0  0  0
   12.3599  -17.7777   20.0260 C   0  0  0  0  0  0  0  0  0  0  0  0
   12.7951  -18.7757   20.6144 O   0  0  0  0  0  0  0  0  0  0  0  0
    7.9760  -17.1484   21.7218 C   0  0  0  0  0  0  0  0  0  0  0  0
    7.3648  -16.0398   21.5731 O   0  0  0  0  0  0  0  0  0  0  0  0
   13.1897  -16.6484   19.8329 O   0  0  0  0  0  0  0  0  0  0  0  0
    6.7948  -18.4868   24.9392 C   0  0  0  0  0  0  0  0  0  0  0  0
    7.0345  -17.2987   24.0331 C   0  0  2  0  0  0  0  0  0  0  0  0
    7.9207  -17.7749   22.9594 N   0  0  0  0  0  0  0  0  0  0  0  0
    7.8087  -16.2714   24.7714 C   0  0  0  0  0  0  0  0  0  0  0  0
    9.0610  -16.1558   24.7060 O   0  0  0  0  0  0  0  0  0  0  0  0
    7.4478  -12.1052   27.4827 C   0  0  0  0  0  0  0  0  0  0  0  0
    6.7951  -13.1998   26.7083 C   0  0  1  0  0  0  0  0  0  0  0  0
    6.0545  -12.6411   25.5201 C   0  0  0  0  0  0  0  0  0  0  0  0
    7.7711  -14.2854   26.3032 C   0  0  2  0  0  0  0  0  0  0  0  0
    7.1036  -15.3591   25.6040 N   0  0  0  0  0  0  0  0  0  0  0  0
    8.5003  -14.8318   27.4680 C   0  0  0  0  0  0  0  0  0  0  0  0
    9.6218  -14.2466   28.0320 O   0  0  0  0  0  0  0  0  0  0  0  0
    8.0919  -15.8924   27.9928 O   0  0  0  0  0  0  0  0  0  0  0  0
  2  1  1  6
  3  2  1  0
  4  3  1  0
  4  5  1  0
  5  9  1  0
  5  6  2  0
  7  2  1  0
  8  7  2  0
 11 10  1  1
 11 13  1  0
 11 12  1  0
 12  7  1  0
 13 19  1  0
 14 13  2  0
 16 15  1  6
 16 17  1  0
 18 16  1  0
 18 20  1  0
 18 19  1  1
 20 22  2  0
 20 21  1  0
M  END
$$$$
