EAV.pdb
     RDKit          3D

 22 21  0  0  1  0  0  0  0  0999 V2000
    9.5923  -16.6922   19.4402 N   0  0  0  0  0  0  0  0  0  0  0  0
    9.5324  -17.3042   20.7089 C   0  0  1  0  0  0  0  0  0  0  0  0
   10.8297  -17.6996   21.3180 C   0  0  0  0  0  0  0  0  0  0  0  0
   11.8997  -16.6903   21.2417 C   0  0  0  0  0  0  0  0  0  0  0  0
   13.2005  -17.1296   21.7453 C   0  0  0  0  0  0  0  0  0  0  0  0
   14.1261  -17.4631   20.9945 O   0  0  0  0  0  0  0  0  0  0  0  0
    8.7240  -16.5132   21.6887 C   0  0  0  0  0  0  0  0  0  0  0  0
    8.6159  -15.2497   21.5602 O   0  0  0  0  0  0  0  0  0  0  0  0
   13.3762  -17.1640   23.1487 O   0  0  0  0  0  0  0  0  0  0  0  0
    6.3930  -17.4562   24.4093 C   0  0  0  0  0  0  0  0  0  0  0  0
    7.1326  -16.4024   23.6139 C   0  0  2  0  0  0  0  0  0  0  0  0
    8.0793  -17.1288   22.7530 N   0  0  0  0  0  0  0  0  0  0  0  0
    7.9642  -15.5908   24.5357 C   0  0  0  0  0  0  0  0  0  0  0  0
    9.1922  -15.7900   24.7315 O   0  0  0  0  0  0  0  0  0  0  0  0
    7.3118  -11.5530   25.3528 C   0  0  0  0  0  0  0  0  0  0  0  0
    7.3518  -12.4515   26.5424 C   0  0  1  0  0  0  0  0  0  0  0  0
    5.9652  -12.6632   27.0949 C   0  0  0  0  0  0  0  0  0  0  0  0
    8.0490  -13.7652   26.2539 C   0  0  2  0  0  0  0  0  0  0  0  0
    7.3469  -14.5229   25.2437 N   0  0  0  0  0  0  0  0  0  0  0  0
    8.1989  -14.5876   27.4738 C   0  0  0  0  0  0  0  0  0  0  0  0
    9.1585  -14.3707   28.4488 O   0  0  0  0  0  0  0  0  0  0  0  0
    7.4161  -15.5475   27.6550 O   0  0  0  0  0  0  0  0  0  0  0  0
  2  1  1  6
  3  2  1  0
  4  3  1  0
  4  5  1  0
  5  9  1  0
  5  6  2  0
  7  2  1  0
  8  7  2  0
 11 10  1  1
 11 13  1  0
 11 12  1  0
 12  7  1  0
 13 19  1  0
 14 13  2  0
 16 15  1  6
 16 17  1  0
 18 16  1  0
 18 20  1  0
 18 19  1  6
 20 22  2  0
 20 21  1  0
M  END
$$$$
