EAV.pdb
     RDKit          3D

 22 21  0  0  1  0  0  0  0  0999 V2000
    9.8941  -17.9086   20.6396 N   0  0  0  0  0  0  0  0  0  0  0  0
    9.2323  -16.6939   20.3668 C   0  0  1  0  0  0  0  0  0  0  0  0
    8.5771  -16.5781   19.0373 C   0  0  0  0  0  0  0  0  0  0  0  0
    7.9007  -17.7946   18.5557 C   0  0  0  0  0  0  0  0  0  0  0  0
    7.2998  -17.6825   17.2271 C   0  0  0  0  0  0  0  0  0  0  0  0
    7.4836  -16.7019   16.4948 O   0  0  0  0  0  0  0  0  0  0  0  0
    8.2725  -16.3093   21.4485 C   0  0  0  0  0  0  0  0  0  0  0  0
    7.6053  -15.2269   21.3600 O   0  0  0  0  0  0  0  0  0  0  0  0
    6.4825  -18.7518   16.7912 O   0  0  0  0  0  0  0  0  0  0  0  0
    6.9435  -18.0246   24.4506 C   0  0  0  0  0  0  0  0  0  0  0  0
    7.1090  -16.7760   23.6117 C   0  0  2  0  0  0  0  0  0  0  0  0
    8.0874  -17.1125   22.5656 N   0  0  0  0  0  0  0  0  0  0  0  0
    7.7434  -15.7172   24.4341 C   0  0  0  0  0  0  0  0  0  0  0  0
    8.9880  -15.5431   24.5144 O   0  0  0  0  0  0  0  0  0  0  0  0
    6.8843  -11.7380   27.3228 C   0  0  0  0  0  0  0  0  0  0  0  0
    6.3681  -12.8036   26.4163 C   0  0  1  0  0  0  0  0  0  0  0  0
    5.6965  -12.1962   25.2111 C   0  0  0  0  0  0  0  0  0  0  0  0
    7.4403  -13.7984   26.0211 C   0  0  2  0  0  0  0  0  0  0  0  0
    6.9045  -14.8427   25.1786 N   0  0  0  0  0  0  0  0  0  0  0  0
    8.0925  -14.4024   27.2030 C   0  0  0  0  0  0  0  0  0  0  0  0
    7.7440  -15.6280   27.7462 O   0  0  0  0  0  0  0  0  0  0  0  0
    9.0231  -13.7801   27.7631 O   0  0  0  0  0  0  0  0  0  0  0  0
  2  1  1  1
  3  2  1  0
  4  3  1  0
  4  5  1  0
  5  9  1  0
  5  6  2  0
  7  2  1  0
  8  7  2  0
 11 10  1  1
 11 13  1  0
 11 12  1  0
 12  7  1  0
 13 19  1  0
 14 13  2  0
 16 15  1  6
 16 17  1  0
 18 16  1  0
 18 20  1  0
 18 19  1  1
 20 22  2  0
 20 21  1  0
M  END
$$$$
