EAV.pdb
     RDKit          3D

 22 21  0  0  1  0  0  0  0  0999 V2000
   12.1129  -16.4930   20.6280 N   0  0  0  0  0  0  0  0  0  0  0  0
   12.3197  -17.2835   21.7771 C   0  0  1  0  0  0  0  0  0  0  0  0
   13.7019  -17.3128   22.3236 C   0  0  0  0  0  0  0  0  0  0  0  0
   14.5040  -16.1008   22.0847 C   0  0  0  0  0  0  0  0  0  0  0  0
   15.8922  -16.1793   22.5381 C   0  0  0  0  0  0  0  0  0  0  0  0
   16.3463  -17.1722   23.1208 O   0  0  0  0  0  0  0  0  0  0  0  0
   11.3419  -16.9760   22.8672 C   0  0  0  0  0  0  0  0  0  0  0  0
   11.0676  -15.7665   23.1616 O   0  0  0  0  0  0  0  0  0  0  0  0
   16.7222  -15.0616   22.2863 O   0  0  0  0  0  0  0  0  0  0  0  0
    9.0572  -19.0387   24.9370 C   0  0  0  0  0  0  0  0  0  0  0  0
    9.6901  -17.7071   24.5959 C   0  0  2  0  0  0  0  0  0  0  0  0
   10.7162  -17.9898   23.5800 N   0  0  0  0  0  0  0  0  0  0  0  0
   10.4227  -17.1982   25.7808 C   0  0  0  0  0  0  0  0  0  0  0  0
   11.6384  -17.4352   26.0086 O   0  0  0  0  0  0  0  0  0  0  0  0
   10.2910  -13.8455   29.4419 C   0  0  0  0  0  0  0  0  0  0  0  0
    9.5951  -14.5644   28.3362 C   0  0  1  0  0  0  0  0  0  0  0  0
    9.2470  -13.6126   27.2201 C   0  0  0  0  0  0  0  0  0  0  0  0
   10.3828  -15.7569   27.8334 C   0  0  2  0  0  0  0  0  0  0  0  0
    9.7190  -16.3946   26.7198 N   0  0  0  0  0  0  0  0  0  0  0  0
   10.6191  -16.7504   28.9030 C   0  0  0  0  0  0  0  0  0  0  0  0
   11.7450  -16.7771   29.7093 O   0  0  0  0  0  0  0  0  0  0  0  0
    9.7557  -17.6332   29.1086 O   0  0  0  0  0  0  0  0  0  0  0  0
  2  1  1  6
  3  2  1  0
  4  3  1  0
  4  5  1  0
  5  9  1  0
  5  6  2  0
  7  2  1  0
  8  7  2  0
 11 10  1  1
 11 13  1  0
 11 12  1  0
 12  7  1  0
 13 19  1  0
 14 13  2  0
 16 15  1  1
 16 17  1  0
 18 16  1  0
 18 20  1  0
 18 19  1  6
 20 22  2  0
 20 21  1  0
M  END
$$$$
