CNS.pdb
     RDKit          3D

 21 20  0  0  1  0  0  0  0  0999 V2000
   42.4593  -10.8617  -11.6762 N   0  0  0  0  0  0  0  0  0  0  0  0
   41.2209  -11.3823  -11.1874 C   0  0  1  0  0  0  0  0  0  0  0  0
   41.5138  -12.3229  -10.0484 C   0  0  0  0  0  0  0  0  0  0  0  0
   42.4843  -13.7054  -10.7268 S   0  0  0  0  0  0  0  0  0  0  0  0
   40.2868  -10.3110  -10.8413 C   0  0  0  0  0  0  0  0  0  0  0  0
   39.0761  -10.4639  -11.1453 O   0  0  0  0  0  0  0  0  0  0  0  0
   39.6331   -9.3349   -6.6027 N   0  0  0  0  0  0  0  0  0  0  0  0
   38.9582   -8.5707   -7.5714 C   0  0  0  0  0  0  0  0  0  0  0  0
   37.7096   -8.6049   -7.6971 O   0  0  0  0  0  0  0  0  0  0  0  0
   39.7337   -7.6954   -8.4761 C   0  0  0  0  0  0  0  0  0  0  0  0
   39.6096   -8.0886   -9.9305 C   0  0  2  0  0  0  0  0  0  0  0  0
   40.6370   -9.1106  -10.1890 N   0  0  0  0  0  0  0  0  0  0  0  0
   39.8468   -6.8978  -10.7832 C   0  0  0  0  0  0  0  0  0  0  0  0
   40.9567   -6.3351  -10.8717 O   0  0  0  0  0  0  0  0  0  0  0  0
   36.8439   -5.5957  -13.3689 O   0  0  0  0  0  0  0  0  0  0  0  0
   38.1575   -5.2865  -13.7001 C   0  0  0  0  0  0  0  0  0  0  0  0
   39.0340   -5.2121  -12.4650 C   0  0  2  0  0  0  0  0  0  0  0  0
   38.7884   -6.3184  -11.5678 N   0  0  0  0  0  0  0  0  0  0  0  0
   38.6999   -3.9416  -11.7809 C   0  0  0  0  0  0  0  0  0  0  0  0
   38.9424   -2.7113  -12.3563 O   0  0  0  0  0  0  0  0  0  0  0  0
   38.1819   -3.9865  -10.6459 O   0  0  0  0  0  0  0  0  0  0  0  0
  2  5  1  0
  2  1  1  1
  3  2  1  0
  4  3  1  0
  5 12  1  0
  6  5  2  0
  7  8  1  0
  8 10  1  0
  9  8  2  0
 11 10  1  1
 11 13  1  0
 12 11  1  0
 13 14  2  0
 13 18  1  0
 15 16  1  0
 17 16  1  6
 17 19  1  0
 18 17  1  0
 19 20  1  0
 21 19  2  0
M  END
$$$$
