CNS.pdb
     RDKit          3D

 21 20  0  0  1  0  0  0  0  0999 V2000
   13.8838  -11.3418  -11.0286 N   0  0  0  0  0  0  0  0  0  0  0  0
   15.2191  -10.9968  -10.6524 C   0  0  1  0  0  0  0  0  0  0  0  0
   16.1750  -11.8403  -11.4540 C   0  0  0  0  0  0  0  0  0  0  0  0
   16.3404  -13.4348  -10.5919 S   0  0  0  0  0  0  0  0  0  0  0  0
   15.4573   -9.5587  -10.7748 C   0  0  0  0  0  0  0  0  0  0  0  0
   14.9606   -8.9612  -11.7637 O   0  0  0  0  0  0  0  0  0  0  0  0
   14.4409   -6.7427   -7.1649 N   0  0  0  0  0  0  0  0  0  0  0  0
   14.8929   -6.3691   -8.4432 C   0  0  0  0  0  0  0  0  0  0  0  0
   14.1385   -5.8211   -9.2838 O   0  0  0  0  0  0  0  0  0  0  0  0
   16.2995   -6.6252   -8.8201 C   0  0  0  0  0  0  0  0  0  0  0  0
   16.4361   -7.3534  -10.1378 C   0  0  2  0  0  0  0  0  0  0  0  0
   16.2052   -8.7815   -9.8660 N   0  0  0  0  0  0  0  0  0  0  0  0
   17.8052   -7.1493  -10.6720 C   0  0  0  0  0  0  0  0  0  0  0  0
   18.8357   -7.3898  -10.0112 O   0  0  0  0  0  0  0  0  0  0  0  0
   18.8691   -8.1855  -14.1444 O   0  0  0  0  0  0  0  0  0  0  0  0
   19.8377   -7.7039  -13.2721 C   0  0  0  0  0  0  0  0  0  0  0  0
   19.3519   -6.4700  -12.5366 C   0  0  2  0  0  0  0  0  0  0  0  0
   18.0200   -6.6536  -12.0060 N   0  0  0  0  0  0  0  0  0  0  0  0
   19.3399   -5.3637  -13.5214 C   0  0  0  0  0  0  0  0  0  0  0  0
   20.4985   -4.8648  -14.0803 O   0  0  0  0  0  0  0  0  0  0  0  0
   18.2446   -4.8668  -13.8561 O   0  0  0  0  0  0  0  0  0  0  0  0
  2  5  1  0
  2  1  1  6
  3  2  1  0
  4  3  1  0
  5 12  1  0
  6  5  2  0
  7  8  1  0
  8 10  1  0
  9  8  2  0
 11 10  1  1
 11 13  1  0
 12 11  1  0
 13 14  2  0
 13 18  1  0
 15 16  1  0
 17 16  1  6
 17 19  1  0
 18 17  1  0
 19 20  1  0
 21 19  2  0
M  END
$$$$
