CNS.pdb
     RDKit          3D

 21 20  0  0  1  0  0  0  0  0999 V2000
   21.9071  -11.4262  -16.6853 N   0  0  0  0  0  0  0  0  0  0  0  0
   22.5177  -10.5399  -15.7446 C   0  0  1  0  0  0  0  0  0  0  0  0
   23.8987  -10.1967  -16.2373 C   0  0  0  0  0  0  0  0  0  0  0  0
   24.9655  -11.6311  -15.8944 S   0  0  0  0  0  0  0  0  0  0  0  0
   21.6777   -9.3709  -15.4841 C   0  0  0  0  0  0  0  0  0  0  0  0
   21.0120   -8.8988  -16.4410 O   0  0  0  0  0  0  0  0  0  0  0  0
   18.4189   -9.1623  -13.9349 N   0  0  0  0  0  0  0  0  0  0  0  0
   18.8121   -8.5282  -12.7428 C   0  0  0  0  0  0  0  0  0  0  0  0
   18.1781   -8.6740  -11.6691 O   0  0  0  0  0  0  0  0  0  0  0  0
   20.0087   -7.6598  -12.7422 C   0  0  0  0  0  0  0  0  0  0  0  0
   20.6669   -7.5578  -14.0993 C   0  0  2  0  0  0  0  0  0  0  0  0
   21.5530   -8.7251  -14.2365 N   0  0  0  0  0  0  0  0  0  0  0  0
   21.4578   -6.3043  -14.1686 C   0  0  0  0  0  0  0  0  0  0  0  0
   22.5234   -6.1373  -13.5417 O   0  0  0  0  0  0  0  0  0  0  0  0
   21.9802   -4.1656  -17.5389 O   0  0  0  0  0  0  0  0  0  0  0  0
   21.6054   -3.3458  -16.4814 C   0  0  0  0  0  0  0  0  0  0  0  0
   21.8548   -4.0203  -15.1464 C   0  0  2  0  0  0  0  0  0  0  0  0
   21.0287   -5.1944  -14.9781 N   0  0  0  0  0  0  0  0  0  0  0  0
   21.5187   -3.0291  -14.0984 C   0  0  0  0  0  0  0  0  0  0  0  0
   22.4602   -2.1697  -13.5707 O   0  0  0  0  0  0  0  0  0  0  0  0
   20.3442   -2.9701  -13.6792 O   0  0  0  0  0  0  0  0  0  0  0  0
  2  5  1  0
  2  1  1  6
  3  2  1  0
  4  3  1  0
  5 12  1  0
  6  5  2  0
  7  8  1  0
  8 10  1  0
  9  8  2  0
 11 10  1  1
 11 13  1  0
 12 11  1  0
 13 14  2  0
 13 18  1  0
 15 16  1  0
 17 16  1  6
 17 19  1  0
 18 17  1  0
 19 20  1  0
 21 19  2  0
M  END
$$$$
