CNS.pdb
     RDKit          3D

 21 20  0  0  1  0  0  0  0  0999 V2000
   13.7785  -14.3269  -11.8475 N   0  0  0  0  0  0  0  0  0  0  0  0
   13.3924  -12.9537  -11.7548 C   0  0  1  0  0  0  0  0  0  0  0  0
   12.3249  -12.8270  -10.7002 C   0  0  0  0  0  0  0  0  0  0  0  0
   10.8353  -13.6559  -11.3384 S   0  0  0  0  0  0  0  0  0  0  0  0
   14.5476  -12.0846  -11.5311 C   0  0  0  0  0  0  0  0  0  0  0  0
   15.3135  -12.3577  -10.5718 O   0  0  0  0  0  0  0  0  0  0  0  0
   18.2546   -8.5039  -11.6403 N   0  0  0  0  0  0  0  0  0  0  0  0
   18.0053   -9.0005  -12.9323 C   0  0  0  0  0  0  0  0  0  0  0  0
   18.7911   -8.7943  -13.8894 O   0  0  0  0  0  0  0  0  0  0  0  0
   16.7819   -9.7919  -13.1830 C   0  0  0  0  0  0  0  0  0  0  0  0
   16.0059  -10.0977  -11.9222 C   0  0  2  0  0  0  0  0  0  0  0  0
   14.8747  -10.9557  -12.3107 N   0  0  0  0  0  0  0  0  0  0  0  0
   15.5078   -8.8306  -11.3326 C   0  0  0  0  0  0  0  0  0  0  0  0
   14.6610   -8.1063  -11.8936 O   0  0  0  0  0  0  0  0  0  0  0  0
   14.9978   -6.0613   -7.3708 O   0  0  0  0  0  0  0  0  0  0  0  0
   15.4929   -7.2277   -7.9412 C   0  0  0  0  0  0  0  0  0  0  0  0
   15.4638   -7.1557   -9.4555 C   0  0  2  0  0  0  0  0  0  0  0  0
   15.9848   -8.3617  -10.0582 N   0  0  0  0  0  0  0  0  0  0  0  0
   16.3130   -6.0061   -9.8442 C   0  0  0  0  0  0  0  0  0  0  0  0
   15.8246   -4.7169   -9.8989 O   0  0  0  0  0  0  0  0  0  0  0  0
   17.5105   -6.2115  -10.1316 O   0  0  0  0  0  0  0  0  0  0  0  0
  2  5  1  0
  2  1  1  1
  3  2  1  0
  4  3  1  0
  5 12  1  0
  6  5  2  0
  7  8  1  0
  8 10  1  0
  9  8  2  0
 11 10  1  6
 11 13  1  0
 12 11  1  0
 13 14  2  0
 13 18  1  0
 15 16  1  0
 17 16  1  1
 17 19  1  0
 18 17  1  0
 19 20  1  0
 21 19  2  0
M  END
$$$$
