CNS.pdb
     RDKit          3D

 21 20  0  0  1  0  0  0  0  0999 V2000
   15.4806  -11.7863  -10.1076 N   0  0  0  0  0  0  0  0  0  0  0  0
   15.1741  -10.9133  -11.1972 C   0  0  1  0  0  0  0  0  0  0  0  0
   13.8231  -10.2957  -10.9500 C   0  0  0  0  0  0  0  0  0  0  0  0
   12.5968  -11.6395  -11.0103 S   0  0  0  0  0  0  0  0  0  0  0  0
   16.2382   -9.9338  -11.4168 C   0  0  0  0  0  0  0  0  0  0  0  0
   16.6144   -9.2425  -10.4359 O   0  0  0  0  0  0  0  0  0  0  0  0
   20.1723   -7.0934  -13.1365 N   0  0  0  0  0  0  0  0  0  0  0  0
   20.3017   -8.4428  -13.5111 C   0  0  0  0  0  0  0  0  0  0  0  0
   21.3732   -8.9077  -13.9712 O   0  0  0  0  0  0  0  0  0  0  0  0
   19.1454   -9.3522  -13.3626 C   0  0  0  0  0  0  0  0  0  0  0  0
   17.9401   -8.6813  -12.7442 C   0  0  2  0  0  0  0  0  0  0  0  0
   16.8818   -9.7000  -12.6498 N   0  0  0  0  0  0  0  0  0  0  0  0
   17.4987   -7.5645  -13.6156 C   0  0  0  0  0  0  0  0  0  0  0  0
   17.0703   -7.7351  -14.7748 O   0  0  0  0  0  0  0  0  0  0  0  0
   15.6476   -3.1770  -14.0312 O   0  0  0  0  0  0  0  0  0  0  0  0
   16.0772   -4.2362  -13.2410 C   0  0  0  0  0  0  0  0  0  0  0  0
   17.0640   -5.1141  -13.9858 C   0  0  2  0  0  0  0  0  0  0  0  0
   17.5426   -6.1999  -13.1605 N   0  0  0  0  0  0  0  0  0  0  0  0
   18.2033   -4.2474  -14.3661 C   0  0  0  0  0  0  0  0  0  0  0  0
   18.3187   -3.6956  -15.6254 O   0  0  0  0  0  0  0  0  0  0  0  0
   19.0881   -4.0087  -13.5183 O   0  0  0  0  0  0  0  0  0  0  0  0
  2  5  1  0
  2  1  1  1
  3  2  1  0
  4  3  1  0
  5 12  1  0
  6  5  2  0
  7  8  1  0
  8 10  1  0
  9  8  2  0
 11 10  1  6
 11 13  1  0
 12 11  1  0
 13 14  2  0
 13 18  1  0
 15 16  1  0
 17 16  1  1
 17 19  1  0
 18 17  1  0
 19 20  1  0
 21 19  2  0
M  END
$$$$
