CNS.pdb
     RDKit          3D

 21 20  0  0  1  0  0  0  0  0999 V2000
   28.2685  -20.8086  -15.7539 N   0  0  0  0  0  0  0  0  0  0  0  0
   27.3680  -19.8782  -15.1483 C   0  0  1  0  0  0  0  0  0  0  0  0
   27.0762  -18.7814  -16.1381 C   0  0  0  0  0  0  0  0  0  0  0  0
   28.4946  -17.6409  -16.1129 S   0  0  0  0  0  0  0  0  0  0  0  0
   26.1701  -20.5445  -14.6373 C   0  0  0  0  0  0  0  0  0  0  0  0
   25.7083  -21.5121  -15.2948 O   0  0  0  0  0  0  0  0  0  0  0  0
   25.8742  -20.7297   -9.6763 N   0  0  0  0  0  0  0  0  0  0  0  0
   25.2957  -21.4151  -10.7596 C   0  0  0  0  0  0  0  0  0  0  0  0
   25.6794  -22.5588  -11.1071 O   0  0  0  0  0  0  0  0  0  0  0  0
   24.1998  -20.7780  -11.5208 C   0  0  0  0  0  0  0  0  0  0  0  0
   24.3241  -20.9751  -13.0145 C   0  0  2  0  0  0  0  0  0  0  0  0
   25.4856  -20.1868  -13.4573 N   0  0  0  0  0  0  0  0  0  0  0  0
   23.0908  -20.4860  -13.6786 C   0  0  0  0  0  0  0  0  0  0  0  0
   22.6622  -19.3220  -13.5444 O   0  0  0  0  0  0  0  0  0  0  0  0
   19.3886  -21.4145  -16.7479 O   0  0  0  0  0  0  0  0  0  0  0  0
   20.5038  -21.9139  -16.0863 C   0  0  0  0  0  0  0  0  0  0  0  0
   21.0569  -20.9041  -15.0995 C   0  0  2  0  0  0  0  0  0  0  0  0
   22.3093  -21.3452  -14.5286 N   0  0  0  0  0  0  0  0  0  0  0  0
   20.0490  -20.7634  -14.0232 C   0  0  0  0  0  0  0  0  0  0  0  0
   19.0699  -19.7920  -14.0557 O   0  0  0  0  0  0  0  0  0  0  0  0
   20.0877  -21.5506  -13.0550 O   0  0  0  0  0  0  0  0  0  0  0  0
  2  5  1  0
  2  1  1  6
  3  2  1  0
  4  3  1  0
  5 12  1  0
  6  5  2  0
  7  8  1  0
  8 10  1  0
  9  8  2  0
 11 10  1  1
 11 13  1  0
 12 11  1  0
 13 14  2  0
 13 18  1  0
 15 16  1  0
 17 16  1  6
 17 19  1  0
 18 17  1  0
 19 20  1  0
 21 19  2  0
M  END
$$$$
