CNS.pdb
     RDKit          3D

 21 20  0  0  1  0  0  0  0  0999 V2000
   13.3772  -15.1526  -11.3925 N   0  0  0  0  0  0  0  0  0  0  0  0
   13.1356  -13.8661  -11.9670 C   0  0  1  0  0  0  0  0  0  0  0  0
   11.9691  -13.2350  -11.2535 C   0  0  0  0  0  0  0  0  0  0  0  0
   10.5281  -14.3158  -11.5154 S   0  0  0  0  0  0  0  0  0  0  0  0
   14.3437  -13.0411  -11.9649 C   0  0  0  0  0  0  0  0  0  0  0  0
   15.1249  -13.1428  -10.9846 O   0  0  0  0  0  0  0  0  0  0  0  0
   16.9647  -13.3571  -15.7270 N   0  0  0  0  0  0  0  0  0  0  0  0
   17.2780  -12.6792  -14.5353 C   0  0  0  0  0  0  0  0  0  0  0  0
   18.1095  -13.1302  -13.7099 O   0  0  0  0  0  0  0  0  0  0  0  0
   16.6130  -11.3934  -14.2344 C   0  0  0  0  0  0  0  0  0  0  0  0
   15.9595  -11.3695  -12.8714 C   0  0  2  0  0  0  0  0  0  0  0  0
   14.7062  -12.1336  -12.9818 N   0  0  0  0  0  0  0  0  0  0  0  0
   15.6704   -9.9651  -12.4899 C   0  0  0  0  0  0  0  0  0  0  0  0
   14.8271   -9.2601  -13.0800 O   0  0  0  0  0  0  0  0  0  0  0  0
   17.5257   -8.3977   -9.1455 O   0  0  0  0  0  0  0  0  0  0  0  0
   16.3500   -7.7576   -9.5180 C   0  0  0  0  0  0  0  0  0  0  0  0
   16.0412   -7.9828  -10.9854 C   0  0  2  0  0  0  0  0  0  0  0  0
   16.3611   -9.3306  -11.3983 N   0  0  0  0  0  0  0  0  0  0  0  0
   16.8743   -7.0248  -11.7484 C   0  0  0  0  0  0  0  0  0  0  0  0
   16.7202   -5.6590  -11.6284 O   0  0  0  0  0  0  0  0  0  0  0  0
   17.7445   -7.4689  -12.5256 O   0  0  0  0  0  0  0  0  0  0  0  0
  2  5  1  0
  2  1  1  1
  3  2  1  0
  4  3  1  0
  5 12  1  0
  6  5  2  0
  7  8  1  0
  8 10  1  0
  9  8  2  0
 11 10  1  6
 11 13  1  0
 12 11  1  0
 13 14  2  0
 13 18  1  0
 15 16  1  0
 17 16  1  1
 17 19  1  0
 18 17  1  0
 19 20  1  0
 21 19  2  0
M  END
$$$$
