YFQ.pdb
     RDKit          3D

 33 34  0  0  1  0  0  0  0  0999 V2000
   25.0547  -16.9958  -17.4925 O   0  0  0  0  0  0  0  0  0  0  0  0
   25.0420  -17.6838  -16.2926 C   0  0  0  0  0  0  0  0  0  0  0  0
   25.6785  -17.1873  -15.1950 C   0  0  0  0  0  0  0  0  0  0  0  0
   25.6395  -17.9092  -14.0163 C   0  0  0  0  0  0  0  0  0  0  0  0
   24.9710  -19.1145  -13.9363 C   0  0  0  0  0  0  0  0  0  0  0  0
   24.9701  -19.8363  -12.6397 C   0  0  0  0  0  0  0  0  0  0  0  0
   26.4005  -20.2271  -12.3289 C   0  0  2  0  0  0  0  0  0  0  0  0
   26.7920  -21.2620  -13.2602 N   0  0  0  0  0  0  0  0  0  0  0  0
   26.3977  -20.7596  -10.9291 C   0  0  0  0  0  0  0  0  0  0  0  0
   25.9605  -21.8837  -10.6351 O   0  0  0  0  0  0  0  0  0  0  0  0
   24.3327  -19.6016  -15.0566 C   0  0  0  0  0  0  0  0  0  0  0  0
   24.3663  -18.8928  -16.2286 C   0  0  0  0  0  0  0  0  0  0  0  0
   26.9133  -19.9503   -9.9017 N   0  0  0  0  0  0  0  0  0  0  0  0
   27.0182  -20.4168   -8.5085 C   0  0  1  0  0  0  0  0  0  0  0  0
   28.0166  -19.4783   -7.8698 C   0  0  0  0  0  0  0  0  0  0  0  0
   28.2104  -19.7206   -6.4408 C   0  0  0  0  0  0  0  0  0  0  0  0
   28.9769  -20.7519   -5.9295 C   0  0  0  0  0  0  0  0  0  0  0  0
   29.1398  -20.9439   -4.5797 C   0  0  0  0  0  0  0  0  0  0  0  0
   28.5387  -20.1067   -3.6712 C   0  0  0  0  0  0  0  0  0  0  0  0
   27.7685  -19.0702   -4.1506 C   0  0  0  0  0  0  0  0  0  0  0  0
   27.6099  -18.8839   -5.4989 C   0  0  0  0  0  0  0  0  0  0  0  0
   25.6998  -20.3269   -7.8383 C   0  0  0  0  0  0  0  0  0  0  0  0
   24.8996  -19.4515   -8.2757 O   0  0  0  0  0  0  0  0  0  0  0  0
   21.4672  -22.1945   -9.9457 N   0  0  0  0  0  0  0  0  0  0  0  0
   20.8892  -22.1218   -8.6591 C   0  0  0  0  0  0  0  0  0  0  0  0
   19.6320  -22.3350   -8.5095 O   0  0  0  0  0  0  0  0  0  0  0  0
   21.6517  -21.8146   -7.4324 C   0  0  0  0  0  0  0  0  0  0  0  0
   23.0948  -21.5717   -7.5930 C   0  0  0  0  0  0  0  0  0  0  0  0
   23.8654  -21.1794   -6.3686 C   0  0  2  0  0  0  0  0  0  0  0  0
   25.2976  -21.1368   -6.7726 N   0  0  0  0  0  0  0  0  0  0  0  0
   23.6791  -21.9528   -5.1722 C   0  0  0  0  0  0  0  0  0  0  0  0
   22.6261  -21.6886   -4.2864 O   0  0  0  0  0  0  0  0  0  0  0  0
   24.4387  -22.8941   -4.8598 O   0  0  0  0  0  0  0  0  0  0  0  0
  2  1  1  0
  3  2  2  0
  4  3  1  0
  5  4  2  0
  5 11  1  0
  6  7  1  0
  6  5  1  0
  7  8  1  6
  9  7  1  0
  9 13  1  0
 10  9  2  0
 11 12  2  0
 12  2  1  0
 13 14  1  0
 15 16  1  0
 14 15  1  1
 16 17  2  0
 17 18  1  0
 19 18  2  0
 20 21  2  0
 20 19  1  0
 21 16  1  0
 22 23  2  0
 22 14  1  0
 24 25  1  0
 25 27  1  0
 26 25  2  0
 27 28  1  0
 29 28  1  6
 29 30  1  0
 29 31  1  0
 30 22  1  0
 31 32  1  0
 33 31  2  0
M  END
$$$$
