YFQ.pdb
     RDKit          3D

 33 34  0  0  1  0  0  0  0  0999 V2000
   28.4010  -28.6674   13.3000 O   0  0  0  0  0  0  0  0  0  0  0  0
   29.4632  -28.0481   12.6663 C   0  0  0  0  0  0  0  0  0  0  0  0
   29.6023  -26.6931   12.6969 C   0  0  0  0  0  0  0  0  0  0  0  0
   30.6798  -26.1171   12.0494 C   0  0  0  0  0  0  0  0  0  0  0  0
   31.6081  -26.8881   11.3786 C   0  0  0  0  0  0  0  0  0  0  0  0
   32.7396  -26.2036   10.7054 C   0  0  0  0  0  0  0  0  0  0  0  0
   32.2158  -25.6087    9.4141 C   0  0  2  0  0  0  0  0  0  0  0  0
   32.1051  -26.6760    8.4445 N   0  0  0  0  0  0  0  0  0  0  0  0
   33.2334  -24.6040    8.9693 C   0  0  0  0  0  0  0  0  0  0  0  0
   34.1274  -24.8661    8.1488 O   0  0  0  0  0  0  0  0  0  0  0  0
   31.4516  -28.2573   11.3580 C   0  0  0  0  0  0  0  0  0  0  0  0
   30.3869  -28.8364   11.9969 C   0  0  0  0  0  0  0  0  0  0  0  0
   33.1737  -23.3054    9.5048 N   0  0  0  0  0  0  0  0  0  0  0  0
   34.1240  -22.2488    9.1175 C   0  0  1  0  0  0  0  0  0  0  0  0
   33.2843  -20.9939    9.0432 C   0  0  0  0  0  0  0  0  0  0  0  0
   32.6035  -20.8252    7.7600 C   0  0  0  0  0  0  0  0  0  0  0  0
   33.1620  -21.1595    6.5398 C   0  0  0  0  0  0  0  0  0  0  0  0
   32.4883  -20.9914    5.3553 C   0  0  0  0  0  0  0  0  0  0  0  0
   31.2146  -20.4768    5.3358 C   0  0  0  0  0  0  0  0  0  0  0  0
   30.6318  -20.1342    6.5359 C   0  0  0  0  0  0  0  0  0  0  0  0
   31.3094  -20.3045    7.7148 C   0  0  0  0  0  0  0  0  0  0  0  0
   35.1875  -22.1171   10.1408 C   0  0  0  0  0  0  0  0  0  0  0  0
   34.8211  -22.1668   11.3495 O   0  0  0  0  0  0  0  0  0  0  0  0
   40.2387  -24.1511   12.6638 N   0  0  0  0  0  0  0  0  0  0  0  0
   39.2602  -24.8146   11.8910 C   0  0  0  0  0  0  0  0  0  0  0  0
   39.0564  -26.0711   12.0588 O   0  0  0  0  0  0  0  0  0  0  0  0
   38.4228  -24.1452   10.8756 C   0  0  0  0  0  0  0  0  0  0  0  0
   38.6596  -22.7075   10.6650 C   0  0  0  0  0  0  0  0  0  0  0  0
   37.5246  -21.7742   10.9608 C   0  0  2  0  0  0  0  0  0  0  0  0
   36.5444  -21.9447    9.8533 N   0  0  0  0  0  0  0  0  0  0  0  0
   37.8268  -20.3879   11.1870 C   0  0  0  0  0  0  0  0  0  0  0  0
   38.0859  -19.8956   12.4730 O   0  0  0  0  0  0  0  0  0  0  0  0
   37.8745  -19.5541   10.2580 O   0  0  0  0  0  0  0  0  0  0  0  0
  2  1  1  0
  3  2  2  0
  4  3  1  0
  5  4  2  0
  5 11  1  0
  6  7  1  0
  6  5  1  0
  7  8  1  6
  9  7  1  0
  9 13  1  0
 10  9  2  0
 11 12  2  0
 12  2  1  0
 13 14  1  0
 15 16  1  0
 14 15  1  1
 16 17  2  0
 17 18  1  0
 19 18  2  0
 20 21  2  0
 20 19  1  0
 21 16  1  0
 22 23  2  0
 22 14  1  0
 24 25  1  0
 25 27  1  0
 26 25  2  0
 27 28  1  0
 29 28  1  6
 29 30  1  0
 29 31  1  0
 30 22  1  0
 31 32  1  0
 33 31  2  0
M  END
$$$$
