YFQ.pdb
     RDKit          3D

 33 34  0  0  1  0  0  0  0  0999 V2000
   28.0310  -12.0202  -18.1913 O   0  0  0  0  0  0  0  0  0  0  0  0
   27.5272  -13.2766  -17.9070 C   0  0  0  0  0  0  0  0  0  0  0  0
   27.0801  -14.0925  -18.9024 C   0  0  0  0  0  0  0  0  0  0  0  0
   26.5847  -15.3404  -18.5718 C   0  0  0  0  0  0  0  0  0  0  0  0
   26.5370  -15.7676  -17.2598 C   0  0  0  0  0  0  0  0  0  0  0  0
   25.9926  -17.1188  -16.9769 C   0  0  0  0  0  0  0  0  0  0  0  0
   27.1607  -18.0277  -16.6529 C   0  0  2  0  0  0  0  0  0  0  0  0
   27.6361  -18.6013  -17.8925 N   0  0  0  0  0  0  0  0  0  0  0  0
   26.6248  -19.0993  -15.7545 C   0  0  0  0  0  0  0  0  0  0  0  0
   26.1594  -20.1682  -16.1814 O   0  0  0  0  0  0  0  0  0  0  0  0
   26.9936  -14.9291  -16.2658 C   0  0  0  0  0  0  0  0  0  0  0  0
   27.4861  -13.6909  -16.5844 C   0  0  0  0  0  0  0  0  0  0  0  0
   26.6498  -18.8856  -14.3652 N   0  0  0  0  0  0  0  0  0  0  0  0
   26.1646  -19.8910  -13.4043 C   0  0  1  0  0  0  0  0  0  0  0  0
   26.9137  -19.5857  -12.1272 C   0  0  0  0  0  0  0  0  0  0  0  0
   26.4280  -20.3418  -10.9735 C   0  0  0  0  0  0  0  0  0  0  0  0
   26.6570  -21.6923  -10.7834 C   0  0  0  0  0  0  0  0  0  0  0  0
   26.1888  -22.3669   -9.6830 C   0  0  0  0  0  0  0  0  0  0  0  0
   25.4638  -21.7169   -8.7137 C   0  0  0  0  0  0  0  0  0  0  0  0
   25.2193  -20.3710   -8.8755 C   0  0  0  0  0  0  0  0  0  0  0  0
   25.6895  -19.7034   -9.9761 C   0  0  0  0  0  0  0  0  0  0  0  0
   24.7025  -19.7492  -13.2100 C   0  0  0  0  0  0  0  0  0  0  0  0
   24.1984  -18.6262  -13.4971 O   0  0  0  0  0  0  0  0  0  0  0  0
   19.4903  -18.2661  -14.1861 N   0  0  0  0  0  0  0  0  0  0  0  0
   20.2224  -18.9095  -15.2083 C   0  0  0  0  0  0  0  0  0  0  0  0
   19.7478  -18.9601  -16.4002 O   0  0  0  0  0  0  0  0  0  0  0  0
   21.5399  -19.5432  -15.0006 C   0  0  0  0  0  0  0  0  0  0  0  0
   22.1471  -19.3874  -13.6686 C   0  0  0  0  0  0  0  0  0  0  0  0
   22.3887  -20.6351  -12.8739 C   0  0  2  0  0  0  0  0  0  0  0  0
   23.8655  -20.7639  -12.7375 N   0  0  0  0  0  0  0  0  0  0  0  0
   21.7942  -21.8593  -13.3345 C   0  0  0  0  0  0  0  0  0  0  0  0
   20.5580  -22.3021  -12.8455 O   0  0  0  0  0  0  0  0  0  0  0  0
   22.3421  -22.5885  -14.1882 O   0  0  0  0  0  0  0  0  0  0  0  0
  2  1  1  0
  3  2  2  0
  4  3  1  0
  5  4  2  0
  5 11  1  0
  6  7  1  0
  6  5  1  0
  7  8  1  6
  9  7  1  0
  9 13  1  0
 10  9  2  0
 11 12  2  0
 12  2  1  0
 13 14  1  0
 15 16  1  0
 14 15  1  1
 16 17  2  0
 17 18  1  0
 19 18  2  0
 20 21  2  0
 20 19  1  0
 21 16  1  0
 22 23  2  0
 22 14  1  0
 24 25  1  0
 25 27  1  0
 26 25  2  0
 27 28  1  0
 29 28  1  6
 29 30  1  0
 29 31  1  0
 30 22  1  0
 31 32  1  0
 33 31  2  0
M  END
$$$$
