YFQ.pdb
     RDKit          3D

 33 34  0  0  1  0  0  0  0  0999 V2000
   21.9216  -38.9722   -5.1207 O   0  0  0  0  0  0  0  0  0  0  0  0
   23.2539  -38.7484   -4.8237 C   0  0  0  0  0  0  0  0  0  0  0  0
   24.1388  -39.7822   -4.7569 C   0  0  0  0  0  0  0  0  0  0  0  0
   25.4612  -39.5117   -4.4568 C   0  0  0  0  0  0  0  0  0  0  0  0
   25.8938  -38.2211   -4.2260 C   0  0  0  0  0  0  0  0  0  0  0  0
   27.3270  -38.0034   -3.9088 C   0  0  0  0  0  0  0  0  0  0  0  0
   27.9607  -37.3058   -5.0951 C   0  0  2  0  0  0  0  0  0  0  0  0
   28.0415  -38.2578   -6.1807 N   0  0  0  0  0  0  0  0  0  0  0  0
   29.3332  -36.8949   -4.6590 C   0  0  0  0  0  0  0  0  0  0  0  0
   30.2958  -37.6784   -4.6311 O   0  0  0  0  0  0  0  0  0  0  0  0
   24.9848  -37.1875   -4.2977 C   0  0  0  0  0  0  0  0  0  0  0  0
   23.6725  -37.4466   -4.5945 C   0  0  0  0  0  0  0  0  0  0  0  0
   29.5412  -35.5619   -4.2634 N   0  0  0  0  0  0  0  0  0  0  0  0
   30.8629  -35.0594   -3.8506 C   0  0  1  0  0  0  0  0  0  0  0  0
   30.8342  -33.5889   -4.1999 C   0  0  0  0  0  0  0  0  0  0  0  0
   32.0415  -32.8711   -3.7928 C   0  0  0  0  0  0  0  0  0  0  0  0
   33.1634  -32.7329   -4.5896 C   0  0  0  0  0  0  0  0  0  0  0  0
   34.2770  -32.0459   -4.1737 C   0  0  0  0  0  0  0  0  0  0  0  0
   34.3209  -31.4604   -2.9316 C   0  0  0  0  0  0  0  0  0  0  0  0
   33.2182  -31.5812   -2.1150 C   0  0  0  0  0  0  0  0  0  0  0  0
   32.1097  -32.2682   -2.5359 C   0  0  0  0  0  0  0  0  0  0  0  0
   31.0531  -35.2565   -2.3944 C   0  0  0  0  0  0  0  0  0  0  0  0
   30.0433  -35.0632   -1.6591 O   0  0  0  0  0  0  0  0  0  0  0  0
   34.2653  -39.6974    0.5023 N   0  0  0  0  0  0  0  0  0  0  0  0
   33.9590  -38.7847    1.5357 C   0  0  0  0  0  0  0  0  0  0  0  0
   34.2900  -39.0544    2.7465 O   0  0  0  0  0  0  0  0  0  0  0  0
   33.2688  -37.4977    1.3167 C   0  0  0  0  0  0  0  0  0  0  0  0
   32.9663  -37.1373   -0.0782 C   0  0  0  0  0  0  0  0  0  0  0  0
   32.3419  -35.7963   -0.3210 C   0  0  2  0  0  0  0  0  0  0  0  0
   32.2592  -35.6357   -1.7987 N   0  0  0  0  0  0  0  0  0  0  0  0
   32.9390  -34.6468    0.3006 C   0  0  0  0  0  0  0  0  0  0  0  0
   34.2829  -34.3137    0.0855 O   0  0  0  0  0  0  0  0  0  0  0  0
   32.2982  -33.8889    1.0593 O   0  0  0  0  0  0  0  0  0  0  0  0
  2  1  1  0
  3  2  2  0
  4  3  1  0
  5  4  2  0
  5 11  1  0
  6  7  1  0
  6  5  1  0
  7  8  1  6
  9  7  1  0
  9 13  1  0
 10  9  2  0
 11 12  2  0
 12  2  1  0
 13 14  1  0
 15 16  1  0
 14 15  1  1
 16 17  2  0
 17 18  1  0
 19 18  2  0
 20 21  2  0
 20 19  1  0
 21 16  1  0
 22 23  2  0
 22 14  1  0
 24 25  1  0
 25 27  1  0
 26 25  2  0
 27 28  1  0
 29 28  1  6
 29 30  1  0
 29 31  1  0
 30 22  1  0
 31 32  1  0
 33 31  2  0
M  END
$$$$
