YFQ.pdb
     RDKit          3D

 33 34  0  0  1  0  0  0  0  0999 V2000
   19.0534  -22.8554  -12.9448 O   0  0  0  0  0  0  0  0  0  0  0  0
   20.1738  -22.5242  -13.6852 C   0  0  0  0  0  0  0  0  0  0  0  0
   21.4209  -22.8703  -13.2595 C   0  0  0  0  0  0  0  0  0  0  0  0
   22.5124  -22.5185  -14.0320 C   0  0  0  0  0  0  0  0  0  0  0  0
   22.3582  -21.8279  -15.2175 C   0  0  0  0  0  0  0  0  0  0  0  0
   23.5733  -21.4824  -15.9961 C   0  0  0  0  0  0  0  0  0  0  0  0
   24.2229  -20.2866  -15.3300 C   0  0  2  0  0  0  0  0  0  0  0  0
   23.3048  -19.1729  -15.4208 N   0  0  0  0  0  0  0  0  0  0  0  0
   25.4708  -19.9979  -16.1060 C   0  0  0  0  0  0  0  0  0  0  0  0
   25.4745  -19.3395  -17.1584 O   0  0  0  0  0  0  0  0  0  0  0  0
   21.0892  -21.4860  -15.6328 C   0  0  0  0  0  0  0  0  0  0  0  0
   20.0021  -21.8307  -14.8735 C   0  0  0  0  0  0  0  0  0  0  0  0
   26.6933  -20.4946  -15.6207 N   0  0  0  0  0  0  0  0  0  0  0  0
   27.9860  -20.1406  -16.2318 C   0  0  1  0  0  0  0  0  0  0  0  0
   28.5664  -19.0936  -15.3086 C   0  0  0  0  0  0  0  0  0  0  0  0
   28.0316  -17.7526  -15.5414 C   0  0  0  0  0  0  0  0  0  0  0  0
   27.1912  -17.0932  -14.6631 C   0  0  0  0  0  0  0  0  0  0  0  0
   26.7137  -15.8307  -14.9145 C   0  0  0  0  0  0  0  0  0  0  0  0
   27.0571  -15.1636  -16.0655 C   0  0  0  0  0  0  0  0  0  0  0  0
   27.8928  -15.7951  -16.9600 C   0  0  0  0  0  0  0  0  0  0  0  0
   28.3661  -17.0552  -16.7032 C   0  0  0  0  0  0  0  0  0  0  0  0
   28.8626  -21.3332  -16.3011 C   0  0  0  0  0  0  0  0  0  0  0  0
   29.1200  -21.9125  -15.2075 O   0  0  0  0  0  0  0  0  0  0  0  0
   26.6152  -25.7846  -15.9116 N   0  0  0  0  0  0  0  0  0  0  0  0
   27.7753  -26.3464  -16.4888 C   0  0  0  0  0  0  0  0  0  0  0  0
   27.8982  -27.6221  -16.5653 O   0  0  0  0  0  0  0  0  0  0  0  0
   28.8909  -25.5472  -17.0342 C   0  0  0  0  0  0  0  0  0  0  0  0
   28.7565  -24.0833  -16.9571 C   0  0  0  0  0  0  0  0  0  0  0  0
   29.8665  -23.2603  -17.5381 C   0  0  2  0  0  0  0  0  0  0  0  0
   29.4103  -21.8444  -17.4811 N   0  0  0  0  0  0  0  0  0  0  0  0
   30.3538  -23.6038  -18.8453 C   0  0  0  0  0  0  0  0  0  0  0  0
   31.5677  -24.2814  -19.0193 O   0  0  0  0  0  0  0  0  0  0  0  0
   29.7272  -23.3195  -19.8881 O   0  0  0  0  0  0  0  0  0  0  0  0
  2  1  1  0
  3  2  2  0
  4  3  1  0
  5  4  2  0
  5 11  1  0
  6  7  1  0
  6  5  1  0
  7  8  1  6
  9  7  1  0
  9 13  1  0
 10  9  2  0
 11 12  2  0
 12  2  1  0
 13 14  1  0
 15 16  1  0
 14 15  1  1
 16 17  2  0
 17 18  1  0
 19 18  2  0
 20 21  2  0
 20 19  1  0
 21 16  1  0
 22 23  2  0
 22 14  1  0
 24 25  1  0
 25 27  1  0
 26 25  2  0
 27 28  1  0
 29 28  1  6
 29 30  1  0
 29 31  1  0
 30 22  1  0
 31 32  1  0
 33 31  2  0
M  END
$$$$
