YFQ.pdb
     RDKit          3D

 33 34  0  0  1  0  0  0  0  0999 V2000
   22.2399  -11.8517  -17.3838 O   0  0  0  0  0  0  0  0  0  0  0  0
   22.2838  -13.1813  -17.0050 C   0  0  0  0  0  0  0  0  0  0  0  0
   21.7227  -14.1490  -17.7829 C   0  0  0  0  0  0  0  0  0  0  0  0
   21.7904  -15.4652  -17.3648 C   0  0  0  0  0  0  0  0  0  0  0  0
   22.4126  -15.8098  -16.1814 C   0  0  0  0  0  0  0  0  0  0  0  0
   22.4481  -17.2418  -15.7938 C   0  0  0  0  0  0  0  0  0  0  0  0
   23.8799  -17.7194  -15.9252 C   0  0  2  0  0  0  0  0  0  0  0  0
   24.1951  -17.8000  -17.3344 N   0  0  0  0  0  0  0  0  0  0  0  0
   23.9296  -19.0800  -15.3015 C   0  0  0  0  0  0  0  0  0  0  0  0
   23.7810  -20.1269  -15.9519 O   0  0  0  0  0  0  0  0  0  0  0  0
   22.9747  -14.8178  -15.4071 C   0  0  0  0  0  0  0  0  0  0  0  0
   22.9122  -13.5109  -15.8139 C   0  0  0  0  0  0  0  0  0  0  0  0
   24.1548  -19.1763  -13.9171 N   0  0  0  0  0  0  0  0  0  0  0  0
   24.2476  -20.4716  -13.2219 C   0  0  1  0  0  0  0  0  0  0  0  0
   25.5090  -20.3674  -12.3953 C   0  0  0  0  0  0  0  0  0  0  0  0
   26.7243  -20.2554  -13.2010 C   0  0  0  0  0  0  0  0  0  0  0  0
   27.3481  -19.0566  -13.4949 C   0  0  0  0  0  0  0  0  0  0  0  0
   28.4924  -18.9923  -14.2509 C   0  0  0  0  0  0  0  0  0  0  0  0
   29.0706  -20.1332  -14.7524 C   0  0  0  0  0  0  0  0  0  0  0  0
   28.4719  -21.3427  -14.4766 C   0  0  0  0  0  0  0  0  0  0  0  0
   27.3299  -21.4001  -13.7213 C   0  0  0  0  0  0  0  0  0  0  0  0
   23.0610  -20.6746  -12.3580 C   0  0  0  0  0  0  0  0  0  0  0  0
   22.8256  -19.7789  -11.4978 O   0  0  0  0  0  0  0  0  0  0  0  0
   18.0007  -19.1835  -14.2731 N   0  0  0  0  0  0  0  0  0  0  0  0
   18.4838  -18.7076  -13.0342 C   0  0  0  0  0  0  0  0  0  0  0  0
   17.9132  -17.7073  -12.4666 O   0  0  0  0  0  0  0  0  0  0  0  0
   19.6309  -19.3003  -12.3176 C   0  0  0  0  0  0  0  0  0  0  0  0
   20.4144  -20.3128  -13.0444 C   0  0  0  0  0  0  0  0  0  0  0  0
   20.7327  -21.5853  -12.3191 C   0  0  2  0  0  0  0  0  0  0  0  0
   22.2044  -21.7762  -12.4372 N   0  0  0  0  0  0  0  0  0  0  0  0
   20.0167  -22.7749  -12.6885 C   0  0  0  0  0  0  0  0  0  0  0  0
   20.5709  -23.7220  -13.5599 O   0  0  0  0  0  0  0  0  0  0  0  0
   18.8718  -23.0270  -12.2568 O   0  0  0  0  0  0  0  0  0  0  0  0
  2  1  1  0
  3  2  2  0
  4  3  1  0
  5  4  2  0
  5 11  1  0
  6  7  1  0
  6  5  1  0
  7  8  1  6
  9  7  1  0
  9 13  1  0
 10  9  2  0
 11 12  2  0
 12  2  1  0
 13 14  1  0
 15 16  1  0
 14 15  1  1
 16 17  2  0
 17 18  1  0
 19 18  2  0
 20 21  2  0
 20 19  1  0
 21 16  1  0
 22 23  2  0
 22 14  1  0
 24 25  1  0
 25 27  1  0
 26 25  2  0
 27 28  1  0
 29 28  1  6
 29 30  1  0
 29 31  1  0
 30 22  1  0
 31 32  1  0
 33 31  2  0
M  END
$$$$
