YFQ.pdb
     RDKit          3D

 33 34  0  0  1  0  0  0  0  0999 V2000
   28.0542  -16.7637  -17.8829 O   0  0  0  0  0  0  0  0  0  0  0  0
   27.6432  -17.4332  -16.7444 C   0  0  0  0  0  0  0  0  0  0  0  0
   28.1994  -17.1573  -15.5317 C   0  0  0  0  0  0  0  0  0  0  0  0
   27.7575  -17.8513  -14.4203 C   0  0  0  0  0  0  0  0  0  0  0  0
   26.7699  -18.8109  -14.5210 C   0  0  0  0  0  0  0  0  0  0  0  0
   26.3441  -19.5173  -13.2874 C   0  0  0  0  0  0  0  0  0  0  0  0
   27.4404  -20.4941  -12.9140 C   0  0  2  0  0  0  0  0  0  0  0  0
   27.4060  -21.5860  -13.8617 N   0  0  0  0  0  0  0  0  0  0  0  0
   27.1148  -20.9879  -11.5381 C   0  0  0  0  0  0  0  0  0  0  0  0
   26.3963  -21.9783  -11.3285 O   0  0  0  0  0  0  0  0  0  0  0  0
   26.2185  -19.0770  -15.7558 C   0  0  0  0  0  0  0  0  0  0  0  0
   26.6505  -18.3940  -16.8622 C   0  0  0  0  0  0  0  0  0  0  0  0
   27.6466  -20.2988  -10.4341 N   0  0  0  0  0  0  0  0  0  0  0  0
   27.3088  -20.6553   -9.0453 C   0  0  1  0  0  0  0  0  0  0  0  0
   28.4331  -20.0708   -8.2209 C   0  0  0  0  0  0  0  0  0  0  0  0
   28.1496  -20.0454   -6.7865 C   0  0  0  0  0  0  0  0  0  0  0  0
   27.5495  -18.9823   -6.1367 C   0  0  0  0  0  0  0  0  0  0  0  0
   27.2943  -18.9980   -4.7877 C   0  0  0  0  0  0  0  0  0  0  0  0
   27.6303  -20.0863   -4.0196 C   0  0  0  0  0  0  0  0  0  0  0  0
   28.2299  -21.1608   -4.6388 C   0  0  0  0  0  0  0  0  0  0  0  0
   28.4818  -21.1390   -5.9856 C   0  0  0  0  0  0  0  0  0  0  0  0
   26.0062  -20.0591   -8.6667 C   0  0  0  0  0  0  0  0  0  0  0  0
   25.7928  -18.8731   -9.0482 O   0  0  0  0  0  0  0  0  0  0  0  0
   23.0058  -21.3398  -12.5522 N   0  0  0  0  0  0  0  0  0  0  0  0
   21.9185  -21.0502  -11.6987 C   0  0  0  0  0  0  0  0  0  0  0  0
   20.7228  -21.0415  -12.1663 O   0  0  0  0  0  0  0  0  0  0  0  0
   22.0608  -20.7533  -10.2591 C   0  0  0  0  0  0  0  0  0  0  0  0
   23.4239  -20.7995   -9.7050 C   0  0  0  0  0  0  0  0  0  0  0  0
   23.5818  -20.5014   -8.2445 C   0  0  2  0  0  0  0  0  0  0  0  0
   25.0200  -20.7181   -7.9273 N   0  0  0  0  0  0  0  0  0  0  0  0
   22.7287  -21.1889   -7.3151 C   0  0  0  0  0  0  0  0  0  0  0  0
   23.2435  -22.1062   -6.3895 O   0  0  0  0  0  0  0  0  0  0  0  0
   21.4930  -21.0077   -7.2822 O   0  0  0  0  0  0  0  0  0  0  0  0
  2  1  1  0
  3  2  2  0
  4  3  1  0
  5  4  2  0
  5 11  1  0
  6  7  1  0
  6  5  1  0
  7  8  1  6
  9  7  1  0
  9 13  1  0
 10  9  2  0
 11 12  2  0
 12  2  1  0
 13 14  1  0
 15 16  1  0
 14 15  1  1
 16 17  2  0
 17 18  1  0
 19 18  2  0
 20 21  2  0
 20 19  1  0
 21 16  1  0
 22 23  2  0
 22 14  1  0
 24 25  1  0
 25 27  1  0
 26 25  2  0
 27 28  1  0
 29 28  1  6
 29 30  1  0
 29 31  1  0
 30 22  1  0
 31 32  1  0
 33 31  2  0
M  END
$$$$
