YFQ.pdb
     RDKit          3D

 33 34  0  0  1  0  0  0  0  0999 V2000
   17.4423   -5.1926  -22.8998 O   0  0  0  0  0  0  0  0  0  0  0  0
   17.4053   -5.5678  -21.5689 C   0  0  0  0  0  0  0  0  0  0  0  0
   16.5294   -6.5163  -21.1337 C   0  0  0  0  0  0  0  0  0  0  0  0
   16.5275   -6.8600  -19.7944 C   0  0  0  0  0  0  0  0  0  0  0  0
   17.3924   -6.2615  -18.9001 C   0  0  0  0  0  0  0  0  0  0  0  0
   17.3358   -6.6784  -17.4770 C   0  0  0  0  0  0  0  0  0  0  0  0
   18.6606   -7.3288  -17.1344 C   0  0  2  0  0  0  0  0  0  0  0  0
   18.7294   -8.5940  -17.8317 N   0  0  0  0  0  0  0  0  0  0  0  0
   18.6514   -7.5500  -15.6532 C   0  0  0  0  0  0  0  0  0  0  0  0
   18.0477   -8.4917  -15.1148 O   0  0  0  0  0  0  0  0  0  0  0  0
   18.2717   -5.3039  -19.3579 C   0  0  0  0  0  0  0  0  0  0  0  0
   18.2803   -4.9573  -20.6833 C   0  0  0  0  0  0  0  0  0  0  0  0
   19.3583   -6.6509  -14.8356 N   0  0  0  0  0  0  0  0  0  0  0  0
   19.5153   -6.8603  -13.3860 C   0  0  1  0  0  0  0  0  0  0  0  0
   21.0064   -6.7771  -13.1514 C   0  0  0  0  0  0  0  0  0  0  0  0
   21.7209   -8.0006  -13.5131 C   0  0  0  0  0  0  0  0  0  0  0  0
   21.7567   -9.1358  -12.7241 C   0  0  0  0  0  0  0  0  0  0  0  0
   22.4347  -10.2687  -13.1009 C   0  0  0  0  0  0  0  0  0  0  0  0
   23.1140  -10.3194  -14.2940 C   0  0  0  0  0  0  0  0  0  0  0  0
   23.0968   -9.2036  -15.1016 C   0  0  0  0  0  0  0  0  0  0  0  0
   22.4181   -8.0760  -14.7198 C   0  0  0  0  0  0  0  0  0  0  0  0
   18.7990   -5.8021  -12.6358 C   0  0  0  0  0  0  0  0  0  0  0  0
   19.0752   -4.6063  -12.9385 O   0  0  0  0  0  0  0  0  0  0  0  0
   12.9933   -4.1674  -11.0172 N   0  0  0  0  0  0  0  0  0  0  0  0
   13.4343   -5.5090  -10.9995 C   0  0  0  0  0  0  0  0  0  0  0  0
   12.5936   -6.4561  -10.7885 O   0  0  0  0  0  0  0  0  0  0  0  0
   14.8369   -5.9155  -11.2195 C   0  0  0  0  0  0  0  0  0  0  0  0
   15.7838   -4.8519  -11.5928 C   0  0  0  0  0  0  0  0  0  0  0  0
   17.1518   -4.9052  -10.9824 C   0  0  2  0  0  0  0  0  0  0  0  0
   17.8554   -6.0441  -11.6336 N   0  0  0  0  0  0  0  0  0  0  0  0
   17.2544   -4.9728   -9.5509 C   0  0  0  0  0  0  0  0  0  0  0  0
   16.7469   -3.9555   -8.7319 O   0  0  0  0  0  0  0  0  0  0  0  0
   17.7966   -5.9333   -8.9643 O   0  0  0  0  0  0  0  0  0  0  0  0
  2  1  1  0
  3  2  2  0
  4  3  1  0
  5  4  2  0
  5 11  1  0
  6  7  1  0
  6  5  1  0
  7  8  1  6
  9  7  1  0
  9 13  1  0
 10  9  2  0
 11 12  2  0
 12  2  1  0
 13 14  1  0
 15 16  1  0
 14 15  1  6
 16 17  2  0
 17 18  1  0
 19 18  2  0
 20 21  2  0
 20 19  1  0
 21 16  1  0
 22 23  2  0
 22 14  1  0
 24 25  1  0
 25 27  1  0
 26 25  2  0
 27 28  1  0
 29 28  1  1
 29 30  1  0
 29 31  1  0
 30 22  1  0
 31 32  1  0
 33 31  2  0
M  END
$$$$
