YFQ.pdb
     RDKit          3D

 33 34  0  0  1  0  0  0  0  0999 V2000
   28.9109  -17.4974  -18.2255 O   0  0  0  0  0  0  0  0  0  0  0  0
   28.3722  -18.0143  -17.0610 C   0  0  0  0  0  0  0  0  0  0  0  0
   28.9552  -17.7729  -15.8535 C   0  0  0  0  0  0  0  0  0  0  0  0
   28.3820  -18.3098  -14.7154 C   0  0  0  0  0  0  0  0  0  0  0  0
   27.2382  -19.0799  -14.7845 C   0  0  0  0  0  0  0  0  0  0  0  0
   26.6772  -19.6248  -13.5234 C   0  0  0  0  0  0  0  0  0  0  0  0
   27.5771  -20.7560  -13.0695 C   0  0  2  0  0  0  0  0  0  0  0  0
   27.4076  -21.8574  -13.9913 N   0  0  0  0  0  0  0  0  0  0  0  0
   27.1087  -21.1447  -11.7012 C   0  0  0  0  0  0  0  0  0  0  0  0
   26.1345  -21.8893  -11.5071 O   0  0  0  0  0  0  0  0  0  0  0  0
   26.6620  -19.3139  -16.0145 C   0  0  0  0  0  0  0  0  0  0  0  0
   27.2233  -18.7857  -17.1473 C   0  0  0  0  0  0  0  0  0  0  0  0
   27.8034  -20.6439  -10.5862 N   0  0  0  0  0  0  0  0  0  0  0  0
   27.3557  -20.8875   -9.2042 C   0  0  1  0  0  0  0  0  0  0  0  0
   28.4674  -20.3322   -8.3433 C   0  0  0  0  0  0  0  0  0  0  0  0
   28.1330  -20.2863   -6.9204 C   0  0  0  0  0  0  0  0  0  0  0  0
   28.4127  -21.3052   -6.0282 C   0  0  0  0  0  0  0  0  0  0  0  0
   28.0878  -21.2226   -4.6967 C   0  0  0  0  0  0  0  0  0  0  0  0
   27.4628  -20.1083   -4.1916 C   0  0  0  0  0  0  0  0  0  0  0  0
   27.1710  -19.0766   -5.0564 C   0  0  0  0  0  0  0  0  0  0  0  0
   27.4980  -19.1651   -6.3842 C   0  0  0  0  0  0  0  0  0  0  0  0
   26.0799  -20.1789   -8.9475 C   0  0  0  0  0  0  0  0  0  0  0  0
   25.9657  -19.0200   -9.4390 O   0  0  0  0  0  0  0  0  0  0  0  0
   23.0543  -21.2537  -12.8629 N   0  0  0  0  0  0  0  0  0  0  0  0
   21.9767  -20.8703  -12.0343 C   0  0  0  0  0  0  0  0  0  0  0  0
   20.7846  -20.8365  -12.5099 O   0  0  0  0  0  0  0  0  0  0  0  0
   22.1253  -20.4996  -10.6127 C   0  0  0  0  0  0  0  0  0  0  0  0
   23.4701  -20.6364  -10.0296 C   0  0  0  0  0  0  0  0  0  0  0  0
   23.6152  -20.3544   -8.5646 C   0  0  2  0  0  0  0  0  0  0  0  0
   25.0172  -20.7065   -8.2086 N   0  0  0  0  0  0  0  0  0  0  0  0
   22.6755  -20.9577   -7.6606 C   0  0  0  0  0  0  0  0  0  0  0  0
   21.5610  -20.2536   -7.1858 O   0  0  0  0  0  0  0  0  0  0  0  0
   22.8000  -22.1319   -7.2528 O   0  0  0  0  0  0  0  0  0  0  0  0
  2  1  1  0
  3  2  2  0
  4  3  1  0
  5  4  2  0
  5 11  1  0
  6  7  1  0
  6  5  1  0
  7  8  1  6
  9  7  1  0
  9 13  1  0
 10  9  2  0
 11 12  2  0
 12  2  1  0
 13 14  1  0
 15 16  1  0
 14 15  1  1
 16 17  2  0
 17 18  1  0
 19 18  2  0
 20 21  2  0
 20 19  1  0
 21 16  1  0
 22 23  2  0
 22 14  1  0
 24 25  1  0
 25 27  1  0
 26 25  2  0
 27 28  1  0
 29 28  1  6
 29 30  1  0
 29 31  1  0
 30 22  1  0
 31 32  1  0
 33 31  2  0
M  END
$$$$
