LHY.pdb
     RDKit          3D

 31 32  0  0  1  0  0  0  0  0999 V2000
    6.5821  -13.0734   18.0593 C   0  0  0  0  0  0  0  0  0  0  0  0
    7.9774  -13.4217   18.5991 C   0  0  1  0  0  0  0  0  0  0  0  0
    8.7565  -12.1398   18.6501 C   0  0  0  0  0  0  0  0  0  0  0  0
    7.7684  -14.0022   19.9573 C   0  0  0  0  0  0  0  0  0  0  0  0
    9.0086  -14.2009   20.7670 C   0  0  2  0  0  0  0  0  0  0  0  0
   10.0857  -14.5755   19.8721 N   0  0  0  0  0  0  0  0  0  0  0  0
    8.7089  -15.3272   21.7245 C   0  0  0  0  0  0  0  0  0  0  0  0
    7.6411  -15.2916   22.4052 O   0  0  0  0  0  0  0  0  0  0  0  0
    9.6463  -16.3760   21.8133 N   0  0  0  0  0  0  0  0  0  0  0  0
    9.4253  -17.4558   22.7541 C   0  0  1  0  0  0  0  0  0  0  0  0
   10.3698  -18.5846   22.5506 C   0  0  0  0  0  0  0  0  0  0  0  0
   10.0391  -19.7573   23.3861 C   0  0  0  0  0  0  0  0  0  0  0  0
    8.7533  -20.2071   23.7200 C   0  0  0  0  0  0  0  0  0  0  0  0
    8.8714  -21.2958   24.4914 N   0  0  0  0  0  0  0  0  0  0  0  0
   10.1581  -21.5674   24.6695 C   0  0  0  0  0  0  0  0  0  0  0  0
   10.8584  -20.6461   24.0077 N   0  0  0  0  0  0  0  0  0  0  0  0
    9.5621  -16.9766   24.1570 C   0  0  0  0  0  0  0  0  0  0  0  0
   10.4909  -16.2223   24.5327 O   0  0  0  0  0  0  0  0  0  0  0  0
    6.6303  -11.0161   26.0624 O   0  0  0  0  0  0  0  0  0  0  0  0
    6.8822  -12.3597   26.3541 C   0  0  0  0  0  0  0  0  0  0  0  0
    8.0788  -12.7884   26.8791 C   0  0  0  0  0  0  0  0  0  0  0  0
    8.3082  -14.1092   27.1589 C   0  0  0  0  0  0  0  0  0  0  0  0
    7.3398  -15.0834   26.9249 C   0  0  0  0  0  0  0  0  0  0  0  0
    7.5772  -16.5090   27.2053 C   0  0  0  0  0  0  0  0  0  0  0  0
    8.8587  -16.9621   26.5750 C   0  0  2  0  0  0  0  0  0  0  0  0
    8.6333  -17.3510   25.1721 N   0  0  0  0  0  0  0  0  0  0  0  0
    9.5176  -18.0923   27.2384 C   0  0  0  0  0  0  0  0  0  0  0  0
    9.4669  -19.2316   26.7355 O   0  0  0  0  0  0  0  0  0  0  0  0
    6.1505  -14.6458   26.4013 C   0  0  0  0  0  0  0  0  0  0  0  0
    5.9137  -13.3122   26.1169 C   0  0  0  0  0  0  0  0  0  0  0  0
   10.1987  -17.9124   28.4213 O   0  0  0  0  0  0  0  0  0  0  0  0
  2  1  1  1
  3  2  1  0
  4  5  1  0
  4  2  1  0
  5  6  1  6
  7  5  1  0
  7  8  2  0
  9  7  1  0
 10  9  1  0
 10 11  1  6
 12 11  1  0
 13 12  2  0
 14 15  1  0
 14 13  1  0
 15 16  2  0
 16 12  1  0
 17 10  1  0
 18 17  2  0
 20 19  1  0
 20 30  2  0
 21 20  1  0
 22 21  2  0
 22 23  1  0
 23 29  2  0
 24 23  1  0
 25 26  1  0
 25 24  1  1
 26 17  1  0
 27 25  1  0
 28 27  2  0
 29 30  1  0
 31 27  1  0
M  END
$$$$
