LHY.pdb
     RDKit          3D

 31 32  0  0  1  0  0  0  0  0999 V2000
    6.8786  -12.2407   26.7136 C   0  0  0  0  0  0  0  0  0  0  0  0
    6.2200  -12.9359   25.5125 C   0  0  1  0  0  0  0  0  0  0  0  0
    6.0207  -11.8865   24.4581 C   0  0  0  0  0  0  0  0  0  0  0  0
    7.1699  -13.9979   25.0705 C   0  0  0  0  0  0  0  0  0  0  0  0
    6.6563  -14.9153   24.0084 C   0  0  2  0  0  0  0  0  0  0  0  0
    5.5280  -15.6511   24.5439 N   0  0  0  0  0  0  0  0  0  0  0  0
    7.7886  -15.8575   23.6841 C   0  0  0  0  0  0  0  0  0  0  0  0
    7.9658  -16.8824   24.4073 O   0  0  0  0  0  0  0  0  0  0  0  0
    8.6023  -15.5441   22.5767 N   0  0  0  0  0  0  0  0  0  0  0  0
    9.7439  -16.3815   22.2676 C   0  0  1  0  0  0  0  0  0  0  0  0
   10.3167  -16.0843   20.9292 C   0  0  0  0  0  0  0  0  0  0  0  0
    9.4192  -16.4868   19.8270 C   0  0  0  0  0  0  0  0  0  0  0  0
    8.7805  -17.7271   19.6826 C   0  0  0  0  0  0  0  0  0  0  0  0
    8.0554  -17.7028   18.5566 N   0  0  0  0  0  0  0  0  0  0  0  0
    8.1940  -16.5188   17.9734 C   0  0  0  0  0  0  0  0  0  0  0  0
    9.0109  -15.7897   18.7339 N   0  0  0  0  0  0  0  0  0  0  0  0
   10.8179  -16.2149   23.2851 C   0  0  0  0  0  0  0  0  0  0  0  0
   11.4791  -15.1568   23.4123 O   0  0  0  0  0  0  0  0  0  0  0  0
   11.8929  -15.6681   31.8076 O   0  0  0  0  0  0  0  0  0  0  0  0
   11.5413  -15.8307   30.4645 C   0  0  0  0  0  0  0  0  0  0  0  0
   11.5108  -14.7798   29.5780 C   0  0  0  0  0  0  0  0  0  0  0  0
   11.1639  -14.9577   28.2651 C   0  0  0  0  0  0  0  0  0  0  0  0
   10.8249  -16.2128   27.7637 C   0  0  0  0  0  0  0  0  0  0  0  0
   10.4343  -16.4171   26.3591 C   0  0  0  0  0  0  0  0  0  0  0  0
   11.5865  -16.9547   25.5663 C   0  0  2  0  0  0  0  0  0  0  0  0
   11.1649  -17.2621   24.1886 N   0  0  0  0  0  0  0  0  0  0  0  0
   12.2099  -18.1660   26.1101 C   0  0  0  0  0  0  0  0  0  0  0  0
   11.7240  -19.2869   25.8631 O   0  0  0  0  0  0  0  0  0  0  0  0
   10.8582  -17.2536   28.6555 C   0  0  0  0  0  0  0  0  0  0  0  0
   11.2082  -17.0792   29.9832 C   0  0  0  0  0  0  0  0  0  0  0  0
   13.3360  -18.0832   26.8979 O   0  0  0  0  0  0  0  0  0  0  0  0
  2  1  1  1
  3  2  1  0
  4  5  1  0
  4  2  1  0
  5  6  1  1
  7  5  1  0
  7  8  2  0
  9  7  1  0
 10  9  1  0
 10 11  1  6
 12 11  1  0
 13 12  2  0
 14 15  1  0
 14 13  1  0
 15 16  2  0
 16 12  1  0
 17 10  1  0
 18 17  2  0
 20 19  1  0
 20 30  2  0
 21 20  1  0
 22 21  2  0
 22 23  1  0
 23 29  2  0
 24 23  1  0
 25 26  1  0
 25 24  1  1
 26 17  1  0
 27 25  1  0
 28 27  2  0
 29 30  1  0
 31 27  1  0
M  END
$$$$
