LHY.pdb
     RDKit          3D

 31 32  0  0  1  0  0  0  0  0999 V2000
    9.0177  -12.7518   20.4257 C   0  0  0  0  0  0  0  0  0  0  0  0
    8.0954  -13.5474   21.3617 C   0  0  1  0  0  0  0  0  0  0  0  0
    7.1332  -12.5647   21.9627 C   0  0  0  0  0  0  0  0  0  0  0  0
    7.4028  -14.5566   20.5090 C   0  0  0  0  0  0  0  0  0  0  0  0
    8.2353  -15.7276   20.0977 C   0  0  2  0  0  0  0  0  0  0  0  0
    7.4410  -16.5725   19.2279 N   0  0  0  0  0  0  0  0  0  0  0  0
    8.5813  -16.4636   21.3680 C   0  0  0  0  0  0  0  0  0  0  0  0
    7.6561  -17.0179   22.0324 O   0  0  0  0  0  0  0  0  0  0  0  0
    9.9362  -16.4968   21.7553 N   0  0  0  0  0  0  0  0  0  0  0  0
   10.3559  -17.3917   22.8149 C   0  0  1  0  0  0  0  0  0  0  0  0
   11.6872  -17.9960   22.5499 C   0  0  0  0  0  0  0  0  0  0  0  0
   11.6470  -19.0035   21.4702 C   0  0  0  0  0  0  0  0  0  0  0  0
   11.1508  -20.3117   21.5687 C   0  0  0  0  0  0  0  0  0  0  0  0
   11.2903  -20.9094   20.3780 N   0  0  0  0  0  0  0  0  0  0  0  0
   11.8469  -20.0588   19.5249 C   0  0  0  0  0  0  0  0  0  0  0  0
   12.0608  -18.9167   20.1784 N   0  0  0  0  0  0  0  0  0  0  0  0
   10.4155  -16.6798   24.1212 C   0  0  0  0  0  0  0  0  0  0  0  0
   11.1357  -15.6718   24.3166 O   0  0  0  0  0  0  0  0  0  0  0  0
    6.3603  -11.2034   25.3465 O   0  0  0  0  0  0  0  0  0  0  0  0
    6.8872  -12.4149   25.8030 C   0  0  0  0  0  0  0  0  0  0  0  0
    8.0665  -12.4875   26.5066 C   0  0  0  0  0  0  0  0  0  0  0  0
    8.5679  -13.6837   26.9463 C   0  0  0  0  0  0  0  0  0  0  0  0
    7.9071  -14.8858   26.7020 C   0  0  0  0  0  0  0  0  0  0  0  0
    8.4415  -16.1809   27.1542 C   0  0  0  0  0  0  0  0  0  0  0  0
    9.7879  -16.4343   26.5476 C   0  0  2  0  0  0  0  0  0  0  0  0
    9.6474  -17.1064   25.2443 N   0  0  0  0  0  0  0  0  0  0  0  0
   10.6976  -17.2489   27.3604 C   0  0  0  0  0  0  0  0  0  0  0  0
   11.0393  -18.3834   26.9735 O   0  0  0  0  0  0  0  0  0  0  0  0
    6.7324  -14.8027   25.9997 C   0  0  0  0  0  0  0  0  0  0  0  0
    6.2214  -13.5964   25.5532 C   0  0  0  0  0  0  0  0  0  0  0  0
   11.1854  -16.7746   28.5573 O   0  0  0  0  0  0  0  0  0  0  0  0
  2  1  1  6
  3  2  1  0
  4  5  1  0
  4  2  1  0
  5  6  1  6
  7  5  1  0
  7  8  2  0
  9  7  1  0
 10  9  1  0
 10 11  1  6
 12 11  1  0
 13 12  2  0
 14 15  1  0
 14 13  1  0
 15 16  2  0
 16 12  1  0
 17 10  1  0
 18 17  2  0
 20 19  1  0
 20 30  2  0
 21 20  1  0
 22 21  2  0
 22 23  1  0
 23 29  2  0
 24 23  1  0
 25 26  1  0
 25 24  1  1
 26 17  1  0
 27 25  1  0
 28 27  2  0
 29 30  1  0
 31 27  1  0
M  END
$$$$
