LHY.pdb
     RDKit          3D

 31 32  0  0  1  0  0  0  0  0999 V2000
    6.8841  -12.7235   16.9515 C   0  0  0  0  0  0  0  0  0  0  0  0
    7.7779  -13.9719   16.9989 C   0  0  1  0  0  0  0  0  0  0  0  0
    8.7220  -13.8753   15.8362 C   0  0  0  0  0  0  0  0  0  0  0  0
    8.4954  -13.9241   18.3060 C   0  0  0  0  0  0  0  0  0  0  0  0
    9.4587  -15.0405   18.5492 C   0  0  2  0  0  0  0  0  0  0  0  0
    8.8986  -16.2583   17.9974 N   0  0  0  0  0  0  0  0  0  0  0  0
    9.5943  -15.1591   20.0468 C   0  0  0  0  0  0  0  0  0  0  0  0
   10.0042  -14.1612   20.7109 O   0  0  0  0  0  0  0  0  0  0  0  0
    9.2528  -16.3922   20.6379 N   0  0  0  0  0  0  0  0  0  0  0  0
    9.3593  -16.5512   22.0743 C   0  0  1  0  0  0  0  0  0  0  0  0
    8.3657  -17.5167   22.6112 C   0  0  0  0  0  0  0  0  0  0  0  0
    6.9750  -17.1360   22.2895 C   0  0  0  0  0  0  0  0  0  0  0  0
    6.5540  -15.9320   21.7061 C   0  0  0  0  0  0  0  0  0  0  0  0
    5.2211  -15.9662   21.5766 N   0  0  0  0  0  0  0  0  0  0  0  0
    4.7666  -17.1224   22.0434 C   0  0  0  0  0  0  0  0  0  0  0  0
    5.8167  -17.8238   22.4707 N   0  0  0  0  0  0  0  0  0  0  0  0
   10.7204  -17.0156   22.4595 C   0  0  0  0  0  0  0  0  0  0  0  0
   11.3323  -17.9203   21.8432 O   0  0  0  0  0  0  0  0  0  0  0  0
   14.1748  -14.8499   18.0652 O   0  0  0  0  0  0  0  0  0  0  0  0
   14.0955  -15.1101   19.4363 C   0  0  0  0  0  0  0  0  0  0  0  0
   14.7675  -16.1534   20.0289 C   0  0  0  0  0  0  0  0  0  0  0  0
   14.6783  -16.3934   21.3742 C   0  0  0  0  0  0  0  0  0  0  0  0
   13.9017  -15.5917   22.2084 C   0  0  0  0  0  0  0  0  0  0  0  0
   13.7830  -15.8466   23.6534 C   0  0  0  0  0  0  0  0  0  0  0  0
   12.7725  -16.9212   23.9161 C   0  0  2  0  0  0  0  0  0  0  0  0
   11.4200  -16.4529   23.5673 N   0  0  0  0  0  0  0  0  0  0  0  0
   12.7203  -17.4073   25.2991 C   0  0  0  0  0  0  0  0  0  0  0  0
   11.6664  -17.3137   25.9579 O   0  0  0  0  0  0  0  0  0  0  0  0
   13.2356  -14.5545   21.6079 C   0  0  0  0  0  0  0  0  0  0  0  0
   13.3227  -14.3077   20.2489 C   0  0  0  0  0  0  0  0  0  0  0  0
   13.8298  -17.9716   25.8875 O   0  0  0  0  0  0  0  0  0  0  0  0
  2  1  1  1
  3  2  1  0
  4  5  1  0
  4  2  1  0
  5  6  1  1
  7  5  1  0
  7  8  2  0
  9  7  1  0
 10  9  1  0
 10 11  1  6
 12 11  1  0
 13 12  2  0
 14 15  1  0
 14 13  1  0
 15 16  2  0
 16 12  1  0
 17 10  1  0
 18 17  2  0
 20 19  1  0
 20 30  2  0
 21 20  1  0
 22 21  2  0
 22 23  1  0
 23 29  2  0
 24 23  1  0
 25 26  1  0
 25 24  1  1
 26 17  1  0
 27 25  1  0
 28 27  2  0
 29 30  1  0
 31 27  1  0
M  END
$$$$
