LHY.pdb
     RDKit          3D

 31 32  0  0  1  0  0  0  0  0999 V2000
    7.6279  -11.8511   20.4628 C   0  0  0  0  0  0  0  0  0  0  0  0
    7.2933  -13.1885   19.7853 C   0  0  1  0  0  0  0  0  0  0  0  0
    7.8135  -13.1063   18.3798 C   0  0  0  0  0  0  0  0  0  0  0  0
    7.9886  -14.2446   20.5769 C   0  0  0  0  0  0  0  0  0  0  0  0
    7.7597  -15.6471   20.1142 C   0  0  2  0  0  0  0  0  0  0  0  0
    6.3506  -15.9541   20.2600 N   0  0  0  0  0  0  0  0  0  0  0  0
    8.5833  -16.5278   21.0205 C   0  0  0  0  0  0  0  0  0  0  0  0
    8.0541  -17.0008   22.0698 O   0  0  0  0  0  0  0  0  0  0  0  0
    9.9183  -16.7824   20.6469 N   0  0  0  0  0  0  0  0  0  0  0  0
   10.7587  -17.5945   21.5038 C   0  0  1  0  0  0  0  0  0  0  0  0
   12.0448  -17.9572   20.8541 C   0  0  0  0  0  0  0  0  0  0  0  0
   11.8790  -18.9811   19.8022 C   0  0  0  0  0  0  0  0  0  0  0  0
   10.8326  -19.9094   19.7000 C   0  0  0  0  0  0  0  0  0  0  0  0
   11.0393  -20.6643   18.6129 N   0  0  0  0  0  0  0  0  0  0  0  0
   12.1572  -20.2718   18.0149 C   0  0  0  0  0  0  0  0  0  0  0  0
   12.6608  -19.2635   18.7268 N   0  0  0  0  0  0  0  0  0  0  0  0
   11.0602  -16.8877   22.7790 C   0  0  0  0  0  0  0  0  0  0  0  0
   11.0801  -15.6376   22.8780 O   0  0  0  0  0  0  0  0  0  0  0  0
   10.4092  -14.0988   30.9043 O   0  0  0  0  0  0  0  0  0  0  0  0
   10.3510  -14.6180   29.6077 C   0  0  0  0  0  0  0  0  0  0  0  0
   10.3977  -13.8178   28.4903 C   0  0  0  0  0  0  0  0  0  0  0  0
   10.3395  -14.3441   27.2273 C   0  0  0  0  0  0  0  0  0  0  0  0
   10.2300  -15.7165   27.0131 C   0  0  0  0  0  0  0  0  0  0  0  0
   10.1501  -16.2958   25.6620 C   0  0  0  0  0  0  0  0  0  0  0  0
   11.4693  -16.8841   25.2638 C   0  0  2  0  0  0  0  0  0  0  0  0
   11.3485  -17.5984   23.9811 N   0  0  0  0  0  0  0  0  0  0  0  0
   12.0541  -17.8210   26.2292 C   0  0  0  0  0  0  0  0  0  0  0  0
   12.8840  -17.4206   27.0685 O   0  0  0  0  0  0  0  0  0  0  0  0
   10.1839  -16.5055   28.1335 C   0  0  0  0  0  0  0  0  0  0  0  0
   10.2425  -15.9787   29.4120 C   0  0  0  0  0  0  0  0  0  0  0  0
   11.6968  -19.1506   26.2225 O   0  0  0  0  0  0  0  0  0  0  0  0
  2  1  1  1
  3  2  1  0
  4  5  1  0
  4  2  1  0
  5  6  1  1
  7  5  1  0
  7  8  2  0
  9  7  1  0
 10  9  1  0
 10 11  1  6
 12 11  1  0
 13 12  2  0
 14 15  1  0
 14 13  1  0
 15 16  2  0
 16 12  1  0
 17 10  1  0
 18 17  2  0
 20 19  1  0
 20 30  2  0
 21 20  1  0
 22 21  2  0
 22 23  1  0
 23 29  2  0
 24 23  1  0
 25 26  1  0
 25 24  1  1
 26 17  1  0
 27 25  1  0
 28 27  2  0
 29 30  1  0
 31 27  1  0
M  END
$$$$
