LHY.pdb
     RDKit          3D

 31 32  0  0  1  0  0  0  0  0999 V2000
    7.2940  -12.3731   19.4972 C   0  0  0  0  0  0  0  0  0  0  0  0
    7.9704  -13.5380   18.7588 C   0  0  1  0  0  0  0  0  0  0  0  0
    9.1711  -12.9709   18.0591 C   0  0  0  0  0  0  0  0  0  0  0  0
    8.3512  -14.5319   19.8041 C   0  0  0  0  0  0  0  0  0  0  0  0
    9.0064  -15.7757   19.2971 C   0  0  2  0  0  0  0  0  0  0  0  0
    8.0473  -16.5029   18.4892 N   0  0  0  0  0  0  0  0  0  0  0  0
    9.3795  -16.5807   20.5168 C   0  0  0  0  0  0  0  0  0  0  0  0
    8.4711  -17.1880   21.1579 O   0  0  0  0  0  0  0  0  0  0  0  0
   10.7395  -16.6161   20.8852 N   0  0  0  0  0  0  0  0  0  0  0  0
   11.1339  -17.2959   22.1027 C   0  0  1  0  0  0  0  0  0  0  0  0
   12.5595  -17.7139   22.0801 C   0  0  0  0  0  0  0  0  0  0  0  0
   12.8055  -18.8382   21.1539 C   0  0  0  0  0  0  0  0  0  0  0  0
   11.9568  -19.9312   20.9257 C   0  0  0  0  0  0  0  0  0  0  0  0
   12.5314  -20.7330   20.0194 N   0  0  0  0  0  0  0  0  0  0  0  0
   13.6980  -20.2153   19.6556 C   0  0  0  0  0  0  0  0  0  0  0  0
   13.8629  -19.0801   20.3349 N   0  0  0  0  0  0  0  0  0  0  0  0
   10.9185  -16.4267   23.2921 C   0  0  0  0  0  0  0  0  0  0  0  0
   11.3290  -15.2433   23.3555 O   0  0  0  0  0  0  0  0  0  0  0  0
    5.8053  -11.5735   28.1086 O   0  0  0  0  0  0  0  0  0  0  0  0
    6.4919  -12.4401   27.2533 C   0  0  0  0  0  0  0  0  0  0  0  0
    7.7558  -12.1663   26.7856 C   0  0  0  0  0  0  0  0  0  0  0  0
    8.4137  -13.0273   25.9480 C   0  0  0  0  0  0  0  0  0  0  0  0
    7.8339  -14.2230   25.5289 C   0  0  0  0  0  0  0  0  0  0  0  0
    8.5219  -15.1509   24.6162 C   0  0  0  0  0  0  0  0  0  0  0  0
    9.5570  -15.9434   25.3547 C   0  0  2  0  0  0  0  0  0  0  0  0
   10.2236  -16.8928   24.4466 N   0  0  0  0  0  0  0  0  0  0  0  0
    9.0574  -16.7143   26.4983 C   0  0  0  0  0  0  0  0  0  0  0  0
    8.4969  -17.8129   26.3179 O   0  0  0  0  0  0  0  0  0  0  0  0
    6.5738  -14.4865   26.0006 C   0  0  0  0  0  0  0  0  0  0  0  0
    5.9047  -13.6198   26.8472 C   0  0  0  0  0  0  0  0  0  0  0  0
    9.1994  -16.2380   27.7822 O   0  0  0  0  0  0  0  0  0  0  0  0
  2  1  1  1
  3  2  1  0
  4  5  1  0
  4  2  1  0
  5  6  1  6
  7  5  1  0
  7  8  2  0
  9  7  1  0
 10  9  1  0
 10 11  1  6
 12 11  1  0
 13 12  2  0
 14 15  1  0
 14 13  1  0
 15 16  2  0
 16 12  1  0
 17 10  1  0
 18 17  2  0
 20 19  1  0
 20 30  2  0
 21 20  1  0
 22 21  2  0
 22 23  1  0
 23 29  2  0
 24 23  1  0
 25 26  1  0
 25 24  1  6
 26 17  1  0
 27 25  1  0
 28 27  2  0
 29 30  1  0
 31 27  1  0
M  END
$$$$
