LHY.pdb
     RDKit          3D

 31 32  0  0  1  0  0  0  0  0999 V2000
    7.8570  -11.8647   19.7307 C   0  0  0  0  0  0  0  0  0  0  0  0
    8.7329  -13.1204   19.8549 C   0  0  1  0  0  0  0  0  0  0  0  0
    8.7334  -13.5088   21.3047 C   0  0  0  0  0  0  0  0  0  0  0  0
    8.0956  -14.1622   18.9982 C   0  0  0  0  0  0  0  0  0  0  0  0
    8.7648  -15.4984   19.0096 C   0  0  2  0  0  0  0  0  0  0  0  0
    8.1865  -16.3102   17.9571 N   0  0  0  0  0  0  0  0  0  0  0  0
    8.4695  -16.1042   20.3591 C   0  0  0  0  0  0  0  0  0  0  0  0
    7.2755  -16.4115   20.6504 O   0  0  0  0  0  0  0  0  0  0  0  0
    9.5534  -16.3000   21.2385 N   0  0  0  0  0  0  0  0  0  0  0  0
    9.4720  -17.3272   22.2574 C   0  0  1  0  0  0  0  0  0  0  0  0
   10.4043  -18.4548   21.9987 C   0  0  0  0  0  0  0  0  0  0  0  0
   10.2261  -19.5676   22.9539 C   0  0  0  0  0  0  0  0  0  0  0  0
    9.2742  -19.6399   23.9813 C   0  0  0  0  0  0  0  0  0  0  0  0
    9.4331  -20.8031   24.6263 N   0  0  0  0  0  0  0  0  0  0  0  0
   10.4315  -21.4779   24.0703 C   0  0  0  0  0  0  0  0  0  0  0  0
   10.9071  -20.7383   23.0682 N   0  0  0  0  0  0  0  0  0  0  0  0
    9.7744  -16.7677   23.6035 C   0  0  0  0  0  0  0  0  0  0  0  0
   10.7400  -15.9974   23.8209 O   0  0  0  0  0  0  0  0  0  0  0  0
    6.3413  -10.7851   25.3577 O   0  0  0  0  0  0  0  0  0  0  0  0
    6.7501  -12.0767   25.7022 C   0  0  0  0  0  0  0  0  0  0  0  0
    7.9534  -12.3296   26.3179 C   0  0  0  0  0  0  0  0  0  0  0  0
    8.3376  -13.6019   26.6483 C   0  0  0  0  0  0  0  0  0  0  0  0
    7.5275  -14.7025   26.3763 C   0  0  0  0  0  0  0  0  0  0  0  0
    7.9337  -16.0774   26.7108 C   0  0  0  0  0  0  0  0  0  0  0  0
    9.2268  -16.4218   26.0370 C   0  0  2  0  0  0  0  0  0  0  0  0
    8.9744  -17.0777   24.7424 N   0  0  0  0  0  0  0  0  0  0  0  0
   10.1172  -17.3008   26.8027 C   0  0  0  0  0  0  0  0  0  0  0  0
   10.4661  -16.9884   27.9579 O   0  0  0  0  0  0  0  0  0  0  0  0
    6.3301  -14.4397   25.7622 C   0  0  0  0  0  0  0  0  0  0  0  0
    5.9371  -13.1558   25.4264 C   0  0  0  0  0  0  0  0  0  0  0  0
   10.5789  -18.4785   26.2594 O   0  0  0  0  0  0  0  0  0  0  0  0
  2  1  1  1
  3  2  1  0
  4  5  1  0
  4  2  1  0
  5  6  1  6
  7  5  1  0
  7  8  2  0
  9  7  1  0
 10  9  1  0
 10 11  1  6
 12 11  1  0
 13 12  2  0
 14 15  1  0
 14 13  1  0
 15 16  2  0
 16 12  1  0
 17 10  1  0
 18 17  2  0
 20 19  1  0
 20 30  2  0
 21 20  1  0
 22 21  2  0
 22 23  1  0
 23 29  2  0
 24 23  1  0
 25 26  1  0
 25 24  1  1
 26 17  1  0
 27 25  1  0
 28 27  2  0
 29 30  1  0
 31 27  1  0
M  END
$$$$
