LHY.pdb
     RDKit          3D

 31 32  0  0  1  0  0  0  0  0999 V2000
    6.4796  -12.8122   18.7200 C   0  0  0  0  0  0  0  0  0  0  0  0
    7.9238  -13.2578   18.9947 C   0  0  1  0  0  0  0  0  0  0  0  0
    8.7337  -12.0098   19.1934 C   0  0  0  0  0  0  0  0  0  0  0  0
    7.8765  -14.0949   20.2285 C   0  0  0  0  0  0  0  0  0  0  0  0
    9.2034  -14.4148   20.8370 C   0  0  2  0  0  0  0  0  0  0  0  0
   10.0743  -14.9252   19.7966 N   0  0  0  0  0  0  0  0  0  0  0  0
    8.9446  -15.4811   21.8719 C   0  0  0  0  0  0  0  0  0  0  0  0
    7.9636  -15.3495   22.6626 O   0  0  0  0  0  0  0  0  0  0  0  0
    9.8206  -16.5848   21.9057 N   0  0  0  0  0  0  0  0  0  0  0  0
    9.6197  -17.6281   22.8912 C   0  0  1  0  0  0  0  0  0  0  0  0
   10.5040  -18.7999   22.6619 C   0  0  0  0  0  0  0  0  0  0  0  0
   10.1401  -19.9576   23.5044 C   0  0  0  0  0  0  0  0  0  0  0  0
    8.8458  -20.4450   23.7372 C   0  0  0  0  0  0  0  0  0  0  0  0
    8.9313  -21.5039   24.5532 N   0  0  0  0  0  0  0  0  0  0  0  0
   10.2053  -21.7209   24.8549 C   0  0  0  0  0  0  0  0  0  0  0  0
   10.9301  -20.7949   24.2269 N   0  0  0  0  0  0  0  0  0  0  0  0
    9.8668  -17.1160   24.2672 C   0  0  0  0  0  0  0  0  0  0  0  0
   10.8637  -16.4160   24.5659 O   0  0  0  0  0  0  0  0  0  0  0  0
    6.3179  -11.3026   25.7733 O   0  0  0  0  0  0  0  0  0  0  0  0
    6.7421  -12.5711   26.1792 C   0  0  0  0  0  0  0  0  0  0  0  0
    7.9765  -12.7898   26.7446 C   0  0  0  0  0  0  0  0  0  0  0  0
    8.3755  -14.0398   27.1366 C   0  0  0  0  0  0  0  0  0  0  0  0
    7.5497  -15.1514   26.9814 C   0  0  0  0  0  0  0  0  0  0  0  0
    7.9707  -16.5037   27.3830 C   0  0  0  0  0  0  0  0  0  0  0  0
    9.2479  -16.8818   26.6970 C   0  0  2  0  0  0  0  0  0  0  0  0
    8.9735  -17.3940   25.3433 N   0  0  0  0  0  0  0  0  0  0  0  0
   10.0547  -17.8930   27.3886 C   0  0  0  0  0  0  0  0  0  0  0  0
   10.5032  -17.6655   28.5291 O   0  0  0  0  0  0  0  0  0  0  0  0
    6.3214  -14.9228   26.4166 C   0  0  0  0  0  0  0  0  0  0  0  0
    5.9134  -13.6615   26.0189 C   0  0  0  0  0  0  0  0  0  0  0  0
   10.3273  -19.1030   26.7910 O   0  0  0  0  0  0  0  0  0  0  0  0
  2  1  1  1
  3  2  1  0
  4  5  1  0
  4  2  1  0
  5  6  1  6
  7  5  1  0
  7  8  2  0
  9  7  1  0
 10  9  1  0
 10 11  1  6
 12 11  1  0
 13 12  2  0
 14 15  1  0
 14 13  1  0
 15 16  2  0
 16 12  1  0
 17 10  1  0
 18 17  2  0
 20 19  1  0
 20 30  2  0
 21 20  1  0
 22 21  2  0
 22 23  1  0
 23 29  2  0
 24 23  1  0
 25 26  1  0
 25 24  1  1
 26 17  1  0
 27 25  1  0
 28 27  2  0
 29 30  1  0
 31 27  1  0
M  END
$$$$
