LHY.pdb
     RDKit          3D

 31 32  0  0  1  0  0  0  0  0999 V2000
    7.6814  -11.7329   20.3728 C   0  0  0  0  0  0  0  0  0  0  0  0
    7.9913  -13.1150   19.7784 C   0  0  1  0  0  0  0  0  0  0  0  0
    9.2921  -12.9893   19.0401 C   0  0  0  0  0  0  0  0  0  0  0  0
    8.0933  -14.0543   20.9328 C   0  0  0  0  0  0  0  0  0  0  0  0
    8.5095  -15.4481   20.5899 C   0  0  2  0  0  0  0  0  0  0  0  0
    7.5408  -16.0016   19.6644 N   0  0  0  0  0  0  0  0  0  0  0  0
    8.4958  -16.2209   21.8852 C   0  0  0  0  0  0  0  0  0  0  0  0
    7.3844  -16.5443   22.3999 O   0  0  0  0  0  0  0  0  0  0  0  0
    9.7388  -16.5479   22.4638 N   0  0  0  0  0  0  0  0  0  0  0  0
    9.7783  -17.3585   23.6644 C   0  0  1  0  0  0  0  0  0  0  0  0
   10.7156  -18.5048   23.5416 C   0  0  0  0  0  0  0  0  0  0  0  0
   10.1366  -19.6310   22.7808 C   0  0  0  0  0  0  0  0  0  0  0  0
    8.8349  -19.7060   22.2639 C   0  0  0  0  0  0  0  0  0  0  0  0
    8.6928  -20.8830   21.6404 N   0  0  0  0  0  0  0  0  0  0  0  0
    9.8285  -21.5641   21.7292 C   0  0  0  0  0  0  0  0  0  0  0  0
   10.6938  -20.8146   22.4123 N   0  0  0  0  0  0  0  0  0  0  0  0
   10.1839  -16.5449   24.8434 C   0  0  0  0  0  0  0  0  0  0  0  0
   11.1127  -15.7031   24.8045 O   0  0  0  0  0  0  0  0  0  0  0  0
    6.2902  -11.2677   25.0234 O   0  0  0  0  0  0  0  0  0  0  0  0
    6.9345  -12.2569   25.7719 C   0  0  0  0  0  0  0  0  0  0  0  0
    8.1672  -12.0594   26.3487 C   0  0  0  0  0  0  0  0  0  0  0  0
    8.7838  -13.0402   27.0790 C   0  0  0  0  0  0  0  0  0  0  0  0
    8.1917  -14.2865   27.2732 C   0  0  0  0  0  0  0  0  0  0  0  0
    8.8491  -15.3561   28.0420 C   0  0  0  0  0  0  0  0  0  0  0  0
   10.0078  -15.9178   27.2760 C   0  0  2  0  0  0  0  0  0  0  0  0
    9.5326  -16.6752   26.1052 N   0  0  0  0  0  0  0  0  0  0  0  0
   10.8910  -16.8065   28.0387 C   0  0  0  0  0  0  0  0  0  0  0  0
   10.9787  -18.0130   27.7384 O   0  0  0  0  0  0  0  0  0  0  0  0
    6.9631  -14.4734   26.6940 C   0  0  0  0  0  0  0  0  0  0  0  0
    6.3358  -13.4854   25.9552 C   0  0  0  0  0  0  0  0  0  0  0  0
   11.6329  -16.3234   29.0931 O   0  0  0  0  0  0  0  0  0  0  0  0
  2  1  1  1
  3  2  1  0
  4  5  1  0
  4  2  1  0
  5  6  1  6
  7  5  1  0
  7  8  2  0
  9  7  1  0
 10  9  1  0
 10 11  1  6
 12 11  1  0
 13 12  2  0
 14 15  1  0
 14 13  1  0
 15 16  2  0
 16 12  1  0
 17 10  1  0
 18 17  2  0
 20 19  1  0
 20 30  2  0
 21 20  1  0
 22 21  2  0
 22 23  1  0
 23 29  2  0
 24 23  1  0
 25 26  1  0
 25 24  1  1
 26 17  1  0
 27 25  1  0
 28 27  2  0
 29 30  1  0
 31 27  1  0
M  END
$$$$
