LET.pdb
     RDKit          3D

 25 24  0  0  1  0  0  0  0  0999 V2000
   29.8966  -18.0225  -18.7978 C   0  0  0  0  0  0  0  0  0  0  0  0
   28.6665  -17.1399  -19.0517 C   0  0  2  0  0  0  0  0  0  0  0  0
   29.1216  -15.8081  -19.5677 C   0  0  0  0  0  0  0  0  0  0  0  0
   27.9165  -17.0948  -17.7621 C   0  0  0  0  0  0  0  0  0  0  0  0
   27.7078  -18.4637  -17.1258 C   0  0  2  0  0  0  0  0  0  0  0  0
   27.3619  -19.4293  -18.1329 N   0  0  0  0  0  0  0  0  0  0  0  0
   26.5648  -18.3011  -16.1928 C   0  0  0  0  0  0  0  0  0  0  0  0
   26.6041  -17.4597  -15.2500 O   0  0  0  0  0  0  0  0  0  0  0  0
   25.4177  -19.1013  -16.3649 N   0  0  0  0  0  0  0  0  0  0  0  0
   24.2309  -19.0508  -15.5780 C   0  0  1  0  0  0  0  0  0  0  0  0
   22.9571  -18.7285  -16.3372 C   0  0  0  0  0  0  0  0  0  0  0  0
   21.8340  -18.5886  -15.3682 C   0  0  0  0  0  0  0  0  0  0  0  0
   20.5441  -18.2626  -16.0721 C   0  0  0  0  0  0  0  0  0  0  0  0
   20.1420  -18.9449  -17.0378 O   0  0  0  0  0  0  0  0  0  0  0  0
   24.1333  -20.1821  -14.6627 C   0  0  0  0  0  0  0  0  0  0  0  0
   24.2223  -21.3934  -15.0664 O   0  0  0  0  0  0  0  0  0  0  0  0
   19.8131  -17.1880  -15.6238 O   0  0  0  0  0  0  0  0  0  0  0  0
   26.1437  -21.0960  -11.5994 C   0  0  0  0  0  0  0  0  0  0  0  0
   24.7084  -21.0743  -11.1988 C   0  0  1  0  0  0  0  0  0  0  0  0
   24.4280  -19.8436  -10.5964 O   0  0  0  0  0  0  0  0  0  0  0  0
   23.7570  -21.1993  -12.3761 C   0  0  2  0  0  0  0  0  0  0  0  0
   23.9328  -20.0533  -13.2521 N   0  0  0  0  0  0  0  0  0  0  0  0
   22.3448  -21.3318  -11.9343 C   0  0  0  0  0  0  0  0  0  0  0  0
   21.8711  -22.4168  -11.2107 O   0  0  0  0  0  0  0  0  0  0  0  0
   21.5215  -20.4256  -12.2206 O   0  0  0  0  0  0  0  0  0  0  0  0
  2  1  1  1
  2  3  1  0
  4  2  1  0
  4  5  1  0
  5  6  1  6
  5  7  1  0
  7  8  2  0
  9  7  1  0
  9 10  1  0
 10 11  1  6
 12 13  1  0
 12 11  1  0
 13 14  2  0
 15 10  1  0
 15 16  2  0
 17 13  1  0
 19 18  1  6
 19 21  1  0
 20 19  1  0
 21 22  1  6
 22 15  1  0
 23 21  1  0
 24 23  1  0
 25 23  2  0
M  END
$$$$
