LET.pdb
     RDKit          3D

 25 24  0  0  1  0  0  0  0  0999 V2000
   23.6198  -14.2255  -16.7976 C   0  0  0  0  0  0  0  0  0  0  0  0
   24.2616  -12.9437  -16.2483 C   0  0  2  0  0  0  0  0  0  0  0  0
   24.3855  -13.0614  -14.7590 C   0  0  0  0  0  0  0  0  0  0  0  0
   23.4067  -11.8165  -16.7237 C   0  0  0  0  0  0  0  0  0  0  0  0
   21.9154  -12.0444  -16.5076 C   0  0  2  0  0  0  0  0  0  0  0  0
   21.3997  -12.9302  -17.5153 N   0  0  0  0  0  0  0  0  0  0  0  0
   21.2809  -10.7111  -16.6589 C   0  0  0  0  0  0  0  0  0  0  0  0
   21.2727  -10.1128  -17.7726 O   0  0  0  0  0  0  0  0  0  0  0  0
   20.6784  -10.1052  -15.5384 N   0  0  0  0  0  0  0  0  0  0  0  0
   20.0171   -8.8433  -15.5182 C   0  0  1  0  0  0  0  0  0  0  0  0
   18.5384   -8.8863  -15.1798 C   0  0  0  0  0  0  0  0  0  0  0  0
   17.8086   -9.5908  -16.2713 C   0  0  0  0  0  0  0  0  0  0  0  0
   16.3406   -9.7061  -15.9594 C   0  0  0  0  0  0  0  0  0  0  0  0
   15.5213   -8.8595  -16.3736 O   0  0  0  0  0  0  0  0  0  0  0  0
   20.7853   -7.8349  -14.7970 C   0  0  0  0  0  0  0  0  0  0  0  0
   21.2912   -8.0615  -13.6434 O   0  0  0  0  0  0  0  0  0  0  0  0
   15.9194  -10.7735  -15.2022 O   0  0  0  0  0  0  0  0  0  0  0  0
   22.4688   -4.3623  -16.7119 C   0  0  0  0  0  0  0  0  0  0  0  0
   22.9771   -5.0773  -15.5072 C   0  0  1  0  0  0  0  0  0  0  0  0
   23.7575   -4.1932  -14.7552 O   0  0  0  0  0  0  0  0  0  0  0  0
   21.8697   -5.5580  -14.5856 C   0  0  2  0  0  0  0  0  0  0  0  0
   21.0444   -6.5198  -15.2968 N   0  0  0  0  0  0  0  0  0  0  0  0
   21.0573   -4.4299  -14.0618 C   0  0  0  0  0  0  0  0  0  0  0  0
   21.5649   -3.4522  -13.2183 O   0  0  0  0  0  0  0  0  0  0  0  0
   19.8463   -4.3386  -14.3877 O   0  0  0  0  0  0  0  0  0  0  0  0
  2  1  1  1
  2  3  1  0
  4  2  1  0
  4  5  1  0
  5  6  1  6
  5  7  1  0
  7  8  2  0
  9  7  1  0
  9 10  1  0
 10 11  1  1
 12 13  1  0
 12 11  1  0
 13 14  2  0
 15 10  1  0
 15 16  2  0
 17 13  1  0
 19 18  1  6
 19 21  1  0
 20 19  1  0
 21 22  1  6
 22 15  1  0
 23 21  1  0
 24 23  1  0
 25 23  2  0
M  END
$$$$
