LET.pdb
     RDKit          3D

 25 24  0  0  1  0  0  0  0  0999 V2000
   28.5447  -16.8933  -16.8855 C   0  0  0  0  0  0  0  0  0  0  0  0
   27.9113  -18.0393  -17.6868 C   0  0  2  0  0  0  0  0  0  0  0  0
   27.2267  -17.4694  -18.8925 C   0  0  0  0  0  0  0  0  0  0  0  0
   27.0172  -18.7639  -16.7365 C   0  0  0  0  0  0  0  0  0  0  0  0
   27.7432  -19.7848  -15.8688 C   0  0  2  0  0  0  0  0  0  0  0  0
   28.2301  -20.8664  -16.6808 N   0  0  0  0  0  0  0  0  0  0  0  0
   26.7230  -20.3048  -14.9243 C   0  0  0  0  0  0  0  0  0  0  0  0
   25.9159  -21.2150  -15.2686 O   0  0  0  0  0  0  0  0  0  0  0  0
   26.6564  -19.7711  -13.6218 N   0  0  0  0  0  0  0  0  0  0  0  0
   25.6889  -20.0963  -12.6277 C   0  0  1  0  0  0  0  0  0  0  0  0
   26.0089  -19.6176  -11.2236 C   0  0  0  0  0  0  0  0  0  0  0  0
   24.9049  -20.0206  -10.3077 C   0  0  0  0  0  0  0  0  0  0  0  0
   24.9115  -21.5064  -10.0667 C   0  0  0  0  0  0  0  0  0  0  0  0
   23.8492  -22.1400   -9.8943 O   0  0  0  0  0  0  0  0  0  0  0  0
   24.3291  -19.8214  -13.0776 C   0  0  0  0  0  0  0  0  0  0  0  0
   23.9296  -18.6367  -13.3514 O   0  0  0  0  0  0  0  0  0  0  0  0
   26.1235  -22.1548  -10.0405 O   0  0  0  0  0  0  0  0  0  0  0  0
   21.7375  -22.7349  -14.8561 C   0  0  0  0  0  0  0  0  0  0  0  0
   21.6999  -21.2516  -14.9953 C   0  0  1  0  0  0  0  0  0  0  0  0
   20.4151  -20.8696  -15.3946 O   0  0  0  0  0  0  0  0  0  0  0  0
   21.9760  -20.5216  -13.6923 C   0  0  2  0  0  0  0  0  0  0  0  0
   23.3274  -20.8275  -13.2541 N   0  0  0  0  0  0  0  0  0  0  0  0
   20.9775  -20.8610  -12.6459 C   0  0  0  0  0  0  0  0  0  0  0  0
   19.6157  -20.6391  -12.7913 O   0  0  0  0  0  0  0  0  0  0  0  0
   21.3662  -21.3761  -11.5667 O   0  0  0  0  0  0  0  0  0  0  0  0
  2  1  1  1
  2  3  1  0
  4  2  1  0
  4  5  1  0
  5  6  1  6
  5  7  1  0
  7  8  2  0
  9  7  1  0
  9 10  1  0
 10 11  1  1
 12 13  1  0
 12 11  1  0
 13 14  2  0
 15 10  1  0
 15 16  2  0
 17 13  1  0
 19 18  1  1
 19 21  1  0
 20 19  1  0
 21 22  1  1
 22 15  1  0
 23 21  1  0
 24 23  1  0
 25 23  2  0
M  END
$$$$
