LET.pdb
     RDKit          3D

 25 24  0  0  1  0  0  0  0  0999 V2000
   28.5638  -17.9557  -16.2583 C   0  0  0  0  0  0  0  0  0  0  0  0
   28.0108  -18.8028  -17.4130 C   0  0  2  0  0  0  0  0  0  0  0  0
   27.8829  -17.9394  -18.6318 C   0  0  0  0  0  0  0  0  0  0  0  0
   26.7313  -19.3910  -16.9187 C   0  0  0  0  0  0  0  0  0  0  0  0
   26.9061  -20.3277  -15.7294 C   0  0  2  0  0  0  0  0  0  0  0  0
   27.6469  -21.4946  -16.1240 N   0  0  0  0  0  0  0  0  0  0  0  0
   25.5338  -20.7319  -15.3335 C   0  0  0  0  0  0  0  0  0  0  0  0
   24.9195  -21.6510  -15.9469 O   0  0  0  0  0  0  0  0  0  0  0  0
   24.9084  -20.0764  -14.2541 N   0  0  0  0  0  0  0  0  0  0  0  0
   23.5857  -20.3112  -13.7794 C   0  0  1  0  0  0  0  0  0  0  0  0
   23.4008  -20.1969  -12.2775 C   0  0  0  0  0  0  0  0  0  0  0  0
   21.9988  -20.5621  -11.9296 C   0  0  0  0  0  0  0  0  0  0  0  0
   21.7890  -20.5609  -10.4391 C   0  0  0  0  0  0  0  0  0  0  0  0
   22.7119  -20.2563   -9.6547 O   0  0  0  0  0  0  0  0  0  0  0  0
   22.5859  -19.6116  -14.5784 C   0  0  0  0  0  0  0  0  0  0  0  0
   22.5558  -18.3350  -14.6646 O   0  0  0  0  0  0  0  0  0  0  0  0
   20.5484  -20.9056   -9.9575 O   0  0  0  0  0  0  0  0  0  0  0  0
   21.6904  -19.6038  -18.2582 C   0  0  0  0  0  0  0  0  0  0  0  0
   20.4846  -20.0098  -17.4823 C   0  0  1  0  0  0  0  0  0  0  0  0
   20.4239  -21.4066  -17.4434 O   0  0  0  0  0  0  0  0  0  0  0  0
   20.5189  -19.5442  -16.0370 C   0  0  2  0  0  0  0  0  0  0  0  0
   21.5611  -20.2689  -15.3295 N   0  0  0  0  0  0  0  0  0  0  0  0
   19.2001  -19.7060  -15.3723 C   0  0  0  0  0  0  0  0  0  0  0  0
   18.0560  -19.0318  -15.7745 O   0  0  0  0  0  0  0  0  0  0  0  0
   19.0945  -20.4889  -14.3941 O   0  0  0  0  0  0  0  0  0  0  0  0
  2  1  1  1
  2  3  1  0
  4  2  1  0
  4  5  1  0
  5  6  1  6
  5  7  1  0
  7  8  2  0
  9  7  1  0
  9 10  1  0
 10 11  1  1
 12 13  1  0
 12 11  1  0
 13 14  2  0
 15 10  1  0
 15 16  2  0
 17 13  1  0
 19 18  1  6
 19 21  1  0
 20 19  1  0
 21 22  1  1
 22 15  1  0
 23 21  1  0
 24 23  1  0
 25 23  2  0
M  END
$$$$
