LET.pdb
     RDKit          3D

 25 24  0  0  1  0  0  0  0  0999 V2000
   27.1109  -11.4322  -15.3338 C   0  0  0  0  0  0  0  0  0  0  0  0
   26.9015  -11.1239  -16.8230 C   0  0  2  0  0  0  0  0  0  0  0  0
   28.2387  -10.9281  -17.4719 C   0  0  0  0  0  0  0  0  0  0  0  0
   25.9941   -9.9402  -16.8768 C   0  0  0  0  0  0  0  0  0  0  0  0
   24.6555  -10.1616  -16.1829 C   0  0  2  0  0  0  0  0  0  0  0  0
   24.0189  -11.3413  -16.7020 N   0  0  0  0  0  0  0  0  0  0  0  0
   23.8300   -8.9743  -16.5178 C   0  0  0  0  0  0  0  0  0  0  0  0
   24.3115   -7.8065  -16.4653 O   0  0  0  0  0  0  0  0  0  0  0  0
   22.4861   -9.1570  -16.9004 N   0  0  0  0  0  0  0  0  0  0  0  0
   21.5816   -8.1351  -17.3101 C   0  0  1  0  0  0  0  0  0  0  0  0
   20.3902   -8.6054  -18.1238 C   0  0  0  0  0  0  0  0  0  0  0  0
   20.8734   -9.4482  -19.2536 C   0  0  0  0  0  0  0  0  0  0  0  0
   20.3524  -10.8561  -19.1450 C   0  0  0  0  0  0  0  0  0  0  0  0
   21.0411  -11.7649  -18.6355 O   0  0  0  0  0  0  0  0  0  0  0  0
   21.2613   -7.2196  -16.2209 C   0  0  0  0  0  0  0  0  0  0  0  0
   20.9046   -7.6365  -15.0645 O   0  0  0  0  0  0  0  0  0  0  0  0
   19.0910  -11.1207  -19.6234 O   0  0  0  0  0  0  0  0  0  0  0  0
   23.3591   -5.0086  -14.3090 C   0  0  0  0  0  0  0  0  0  0  0  0
   22.2788   -4.1392  -14.8550 C   0  0  1  0  0  0  0  0  0  0  0  0
   22.7335   -3.5450  -16.0367 O   0  0  0  0  0  0  0  0  0  0  0  0
   21.0206   -4.9073  -15.2208 C   0  0  2  0  0  0  0  0  0  0  0  0
   21.3130   -5.7945  -16.3340 N   0  0  0  0  0  0  0  0  0  0  0  0
   19.8892   -3.9975  -15.5360 C   0  0  0  0  0  0  0  0  0  0  0  0
   19.3413   -3.1155  -14.6158 O   0  0  0  0  0  0  0  0  0  0  0  0
   19.3888   -4.0125  -16.6895 O   0  0  0  0  0  0  0  0  0  0  0  0
  2  1  1  1
  2  3  1  0
  4  2  1  0
  4  5  1  0
  5  6  1  6
  5  7  1  0
  7  8  2  0
  9  7  1  0
  9 10  1  0
 10 11  1  1
 12 13  1  0
 12 11  1  0
 13 14  2  0
 15 10  1  0
 15 16  2  0
 17 13  1  0
 19 18  1  6
 19 21  1  0
 20 19  1  0
 21 22  1  6
 22 15  1  0
 23 21  1  0
 24 23  1  0
 25 23  2  0
M  END
$$$$
