LET.pdb
     RDKit          3D

 25 24  0  0  1  0  0  0  0  0999 V2000
   18.1196  -14.8163    1.8168 C   0  0  0  0  0  0  0  0  0  0  0  0
   17.8425  -13.9806    3.0744 C   0  0  2  0  0  0  0  0  0  0  0  0
   18.9786  -13.0253    3.2838 C   0  0  0  0  0  0  0  0  0  0  0  0
   17.6273  -14.9582    4.1815 C   0  0  0  0  0  0  0  0  0  0  0  0
   16.3307  -15.7493    4.0576 C   0  0  2  0  0  0  0  0  0  0  0  0
   15.2051  -14.9010    4.3399 N   0  0  0  0  0  0  0  0  0  0  0  0
   16.4109  -16.8131    5.0897 C   0  0  0  0  0  0  0  0  0  0  0  0
   15.8133  -16.6964    6.1977 O   0  0  0  0  0  0  0  0  0  0  0  0
   17.1681  -17.9718    4.8254 N   0  0  0  0  0  0  0  0  0  0  0  0
   17.3898  -19.0551    5.7241 C   0  0  1  0  0  0  0  0  0  0  0  0
   17.0256  -20.4292    5.1930 C   0  0  0  0  0  0  0  0  0  0  0  0
   17.1610  -21.4278    6.2905 C   0  0  0  0  0  0  0  0  0  0  0  0
   16.7850  -22.8077    5.8214 C   0  0  0  0  0  0  0  0  0  0  0  0
   17.6306  -23.5720    5.3112 O   0  0  0  0  0  0  0  0  0  0  0  0
   18.6941  -18.9703    6.3713 C   0  0  0  0  0  0  0  0  0  0  0  0
   19.7873  -19.0214    5.7077 O   0  0  0  0  0  0  0  0  0  0  0  0
   15.4787  -23.2103    5.9689 O   0  0  0  0  0  0  0  0  0  0  0  0
   20.0054  -16.4898    9.3437 C   0  0  0  0  0  0  0  0  0  0  0  0
   20.1401  -17.9421    9.6500 C   0  0  1  0  0  0  0  0  0  0  0  0
   19.0172  -18.3552   10.3743 O   0  0  0  0  0  0  0  0  0  0  0  0
   20.1897  -18.8132    8.4068 C   0  0  2  0  0  0  0  0  0  0  0  0
   18.8774  -18.8246    7.7826 N   0  0  0  0  0  0  0  0  0  0  0  0
   20.6549  -20.1902    8.7146 C   0  0  0  0  0  0  0  0  0  0  0  0
   21.9160  -20.4738    9.2189 O   0  0  0  0  0  0  0  0  0  0  0  0
   19.8816  -21.1614    8.5149 O   0  0  0  0  0  0  0  0  0  0  0  0
  2  1  1  6
  2  3  1  0
  4  2  1  0
  4  5  1  0
  5  6  1  1
  5  7  1  0
  7  8  2  0
  9  7  1  0
  9 10  1  0
 10 11  1  6
 12 13  1  0
 12 11  1  0
 13 14  2  0
 15 10  1  0
 15 16  2  0
 17 13  1  0
 19 18  1  6
 19 21  1  0
 20 19  1  0
 21 22  1  1
 22 15  1  0
 23 21  1  0
 24 23  1  0
 25 23  2  0
M  END
$$$$
