LET.pdb
     RDKit          3D

 25 24  0  0  1  0  0  0  0  0999 V2000
   26.1291  -13.3750  -17.6230 C   0  0  0  0  0  0  0  0  0  0  0  0
   24.6162  -13.4488  -17.8724 C   0  0  2  0  0  0  0  0  0  0  0  0
   24.3651  -14.2729  -19.0992 C   0  0  0  0  0  0  0  0  0  0  0  0
   24.1407  -12.0363  -17.9522 C   0  0  0  0  0  0  0  0  0  0  0  0
   24.3748  -11.2374  -16.6758 C   0  0  2  0  0  0  0  0  0  0  0  0
   24.1134  -12.0575  -15.5245 N   0  0  0  0  0  0  0  0  0  0  0  0
   23.3934  -10.1244  -16.7148 C   0  0  0  0  0  0  0  0  0  0  0  0
   23.3658   -9.3098  -17.6813 O   0  0  0  0  0  0  0  0  0  0  0  0
   22.4784   -9.9770  -15.6533 N   0  0  0  0  0  0  0  0  0  0  0  0
   21.4330   -9.0123  -15.5715 C   0  0  1  0  0  0  0  0  0  0  0  0
   20.1213   -9.5176  -14.9998 C   0  0  0  0  0  0  0  0  0  0  0  0
   19.0965   -8.4412  -15.1054 C   0  0  0  0  0  0  0  0  0  0  0  0
   17.7784   -8.8851  -14.5300 C   0  0  0  0  0  0  0  0  0  0  0  0
   17.6908   -9.9149  -13.8289 O   0  0  0  0  0  0  0  0  0  0  0  0
   21.8996   -7.7463  -15.0177 C   0  0  0  0  0  0  0  0  0  0  0  0
   22.6192   -7.6901  -13.9608 O   0  0  0  0  0  0  0  0  0  0  0  0
   16.6644   -8.1247  -14.7961 O   0  0  0  0  0  0  0  0  0  0  0  0
   23.9382   -4.8854  -16.6313 C   0  0  0  0  0  0  0  0  0  0  0  0
   22.6609   -4.3464  -16.0844 C   0  0  1  0  0  0  0  0  0  0  0  0
   21.7163   -4.2956  -17.1146 O   0  0  0  0  0  0  0  0  0  0  0  0
   22.0598   -5.2207  -14.9976 C   0  0  2  0  0  0  0  0  0  0  0  0
   21.6056   -6.4680  -15.5889 N   0  0  0  0  0  0  0  0  0  0  0  0
   20.9587   -4.5299  -14.2780 C   0  0  0  0  0  0  0  0  0  0  0  0
   21.1529   -3.4102  -13.4821 O   0  0  0  0  0  0  0  0  0  0  0  0
   19.7843   -4.9667  -14.3827 O   0  0  0  0  0  0  0  0  0  0  0  0
  2  1  1  6
  2  3  1  0
  4  2  1  0
  4  5  1  0
  5  6  1  1
  5  7  1  0
  7  8  2  0
  9  7  1  0
  9 10  1  0
 10 11  1  1
 12 13  1  0
 12 11  1  0
 13 14  2  0
 15 10  1  0
 15 16  2  0
 17 13  1  0
 19 18  1  6
 19 21  1  0
 20 19  1  0
 21 22  1  6
 22 15  1  0
 23 21  1  0
 24 23  1  0
 25 23  2  0
M  END
$$$$
