LET.pdb
     RDKit          3D

 25 24  0  0  1  0  0  0  0  0999 V2000
   25.5886  -16.0829  -14.6701 C   0  0  0  0  0  0  0  0  0  0  0  0
   25.9624  -15.4451  -16.0155 C   0  0  2  0  0  0  0  0  0  0  0  0
   27.4130  -15.0683  -15.9889 C   0  0  0  0  0  0  0  0  0  0  0  0
   25.0175  -14.3063  -16.2102 C   0  0  0  0  0  0  0  0  0  0  0  0
   23.5515  -14.7220  -16.2290 C   0  0  2  0  0  0  0  0  0  0  0  0
   23.3092  -15.6298  -17.3169 N   0  0  0  0  0  0  0  0  0  0  0  0
   22.7841  -13.4720  -16.4564 C   0  0  0  0  0  0  0  0  0  0  0  0
   23.0444  -12.7126  -17.4331 O   0  0  0  0  0  0  0  0  0  0  0  0
   21.7478  -13.1296  -15.5650 N   0  0  0  0  0  0  0  0  0  0  0  0
   20.8515  -12.0302  -15.6992 C   0  0  1  0  0  0  0  0  0  0  0  0
   19.4458  -12.2662  -15.1782 C   0  0  0  0  0  0  0  0  0  0  0  0
   18.8236  -13.3834  -15.9429 C   0  0  0  0  0  0  0  0  0  0  0  0
   17.4203  -13.6528  -15.4697 C   0  0  0  0  0  0  0  0  0  0  0  0
   17.1696  -14.5917  -14.6853 O   0  0  0  0  0  0  0  0  0  0  0  0
   21.4612  -10.7734  -15.2799 C   0  0  0  0  0  0  0  0  0  0  0  0
   22.1204  -10.6681  -14.1879 O   0  0  0  0  0  0  0  0  0  0  0  0
   16.4132  -12.8349  -15.9245 O   0  0  0  0  0  0  0  0  0  0  0  0
   23.9364   -8.5684  -17.2114 C   0  0  0  0  0  0  0  0  0  0  0  0
   22.7873   -7.7286  -16.7695 C   0  0  1  0  0  0  0  0  0  0  0  0
   21.8737   -7.6257  -17.8234 O   0  0  0  0  0  0  0  0  0  0  0  0
   22.0242   -8.3269  -15.6006 C   0  0  2  0  0  0  0  0  0  0  0  0
   21.3849   -9.5587  -16.0318 N   0  0  0  0  0  0  0  0  0  0  0  0
   21.0351   -7.3714  -15.0386 C   0  0  0  0  0  0  0  0  0  0  0  0
   21.3895   -6.1677  -14.4465 O   0  0  0  0  0  0  0  0  0  0  0  0
   19.8099   -7.6491  -15.0926 O   0  0  0  0  0  0  0  0  0  0  0  0
  2  1  1  1
  2  3  1  0
  4  2  1  0
  4  5  1  0
  5  6  1  6
  5  7  1  0
  7  8  2  0
  9  7  1  0
  9 10  1  0
 10 11  1  1
 12 13  1  0
 12 11  1  0
 13 14  2  0
 15 10  1  0
 15 16  2  0
 17 13  1  0
 19 18  1  6
 19 21  1  0
 20 19  1  0
 21 22  1  6
 22 15  1  0
 23 21  1  0
 24 23  1  0
 25 23  2  0
M  END
$$$$
