QCR.pdb
     RDKit          3D

 27 26  0  0  1  0  0  0  0  0999 V2000
    5.4350  -18.5341   13.3425 N   0  0  0  0  0  0  0  0  0  0  0  0
    6.3365  -18.2808   14.4227 C   0  0  0  0  0  0  0  0  0  0  0  0
    5.8962  -18.0936   15.5864 O   0  0  0  0  0  0  0  0  0  0  0  0
    7.7924  -18.2458   14.1325 C   0  0  0  0  0  0  0  0  0  0  0  0
    8.5015  -17.4413   15.1837 C   0  0  0  0  0  0  0  0  0  0  0  0
    8.3994  -15.9669   14.9869 C   0  0  2  0  0  0  0  0  0  0  0  0
    8.8143  -15.4891   13.7140 N   0  0  0  0  0  0  0  0  0  0  0  0
    9.0589  -15.2522   16.1212 C   0  0  0  0  0  0  0  0  0  0  0  0
   10.2995  -15.0402   16.1070 O   0  0  0  0  0  0  0  0  0  0  0  0
    8.2320  -14.8337   17.1920 N   0  0  0  0  0  0  0  0  0  0  0  0
    8.7761  -14.1217   18.3221 C   0  0  1  0  0  0  0  0  0  0  0  0
    7.6572  -13.6248   19.2454 C   0  0  0  0  0  0  0  0  0  0  0  0
    6.5769  -12.4884   18.3610 S   0  0  0  0  0  0  0  0  0  0  0  0
    9.6046  -15.0621   19.1378 C   0  0  0  0  0  0  0  0  0  0  0  0
    9.3588  -16.3004   19.1312 O   0  0  0  0  0  0  0  0  0  0  0  0
   17.3307  -12.7316   19.5182 N   0  0  0  0  0  0  0  0  0  0  0  0
   16.6804  -13.7389   18.7485 C   0  0  0  0  0  0  0  0  0  0  0  0
   17.1300  -14.0716   17.5861 N   0  0  0  0  0  0  0  0  0  0  0  0
   15.5237  -14.4094   19.2248 N   0  0  0  0  0  0  0  0  0  0  0  0
   15.5213  -15.0490   20.5778 C   0  0  0  0  0  0  0  0  0  0  0  0
   14.1935  -15.6410   20.8456 C   0  0  0  0  0  0  0  0  0  0  0  0
   12.9590  -15.0569   20.3705 C   0  0  0  0  0  0  0  0  0  0  0  0
   11.6015  -15.5870   20.6229 C   0  0  2  0  0  0  0  0  0  0  0  0
   10.6672  -14.6093   19.9268 N   0  0  0  0  0  0  0  0  0  0  0  0
   11.1159  -15.7041   21.9935 C   0  0  0  0  0  0  0  0  0  0  0  0
   11.5806  -16.6093   22.9145 O   0  0  0  0  0  0  0  0  0  0  0  0
   10.1760  -14.9377   22.4378 O   0  0  0  0  0  0  0  0  0  0  0  0
  2  1  1  0
  2  3  2  0
  4  2  1  0
  5  4  1  0
  5  6  1  0
  6  8  1  0
  6  7  1  6
  8  9  2  0
 10 11  1  0
 10  8  1  0
 11 12  1  1
 12 13  1  0
 14 11  1  0
 15 14  2  0
 16 17  1  0
 17 19  1  0
 18 17  2  0
 20 19  1  0
 21 22  1  0
 21 20  1  0
 23 24  1  0
 23 22  1  1
 24 14  1  0
 25 23  1  0
 26 25  1  0
 27 25  2  0
M  END
$$$$
