QCR.pdb
     RDKit          3D

 27 26  0  0  1  0  0  0  0  0999 V2000
    7.9218  -12.7315   17.1404 N   0  0  0  0  0  0  0  0  0  0  0  0
    8.4213  -13.8192   17.9221 C   0  0  0  0  0  0  0  0  0  0  0  0
    9.5453  -14.3226   17.6644 O   0  0  0  0  0  0  0  0  0  0  0  0
    7.5823  -14.3312   19.0352 C   0  0  0  0  0  0  0  0  0  0  0  0
    8.2365  -14.0193   20.3504 C   0  0  0  0  0  0  0  0  0  0  0  0
    7.5331  -14.6033   21.5282 C   0  0  2  0  0  0  0  0  0  0  0  0
    6.1197  -14.4514   21.5344 N   0  0  0  0  0  0  0  0  0  0  0  0
    8.1755  -14.1334   22.7928 C   0  0  0  0  0  0  0  0  0  0  0  0
    9.4251  -14.1889   22.9327 O   0  0  0  0  0  0  0  0  0  0  0  0
    7.3222  -13.6320   23.8057 N   0  0  0  0  0  0  0  0  0  0  0  0
    7.8464  -13.1996   25.0779 C   0  0  1  0  0  0  0  0  0  0  0  0
    6.8472  -12.2872   25.7992 C   0  0  0  0  0  0  0  0  0  0  0  0
    5.2803  -13.1412   26.0354 S   0  0  0  0  0  0  0  0  0  0  0  0
    8.0340  -14.3932   25.9588 C   0  0  0  0  0  0  0  0  0  0  0  0
    7.3175  -15.4211   25.8035 O   0  0  0  0  0  0  0  0  0  0  0  0
   13.7510  -20.1082   24.8767 N   0  0  0  0  0  0  0  0  0  0  0  0
   13.1351  -20.5263   26.0916 C   0  0  0  0  0  0  0  0  0  0  0  0
   13.4046  -21.6795   26.6030 N   0  0  0  0  0  0  0  0  0  0  0  0
   12.2098  -19.6995   26.7805 N   0  0  0  0  0  0  0  0  0  0  0  0
   11.7577  -18.4048   26.1812 C   0  0  0  0  0  0  0  0  0  0  0  0
   10.8716  -17.6997   27.1314 C   0  0  0  0  0  0  0  0  0  0  0  0
   10.2357  -16.4368   26.8284 C   0  0  0  0  0  0  0  0  0  0  0  0
    9.3213  -15.6956   27.7239 C   0  0  2  0  0  0  0  0  0  0  0  0
    8.9972  -14.4133   26.9731 N   0  0  0  0  0  0  0  0  0  0  0  0
    9.7817  -15.2846   29.0458 C   0  0  0  0  0  0  0  0  0  0  0  0
    9.8750  -13.9838   29.4733 O   0  0  0  0  0  0  0  0  0  0  0  0
   10.1517  -16.1548   29.9256 O   0  0  0  0  0  0  0  0  0  0  0  0
  2  1  1  0
  2  3  2  0
  4  2  1  0
  5  4  1  0
  5  6  1  0
  6  8  1  0
  6  7  1  1
  8  9  2  0
 10 11  1  0
 10  8  1  0
 11 12  1  1
 12 13  1  0
 14 11  1  0
 15 14  2  0
 16 17  1  0
 17 19  1  0
 18 17  2  0
 20 19  1  0
 21 22  1  0
 21 20  1  0
 23 24  1  0
 23 22  1  6
 24 14  1  0
 25 23  1  0
 26 25  1  0
 27 25  2  0
M  END
$$$$
