QCR.pdb
     RDKit          3D

 27 26  0  0  1  0  0  0  0  0999 V2000
    7.6009  -12.2967   18.1648 N   0  0  0  0  0  0  0  0  0  0  0  0
    8.7988  -12.8998   18.6596 C   0  0  0  0  0  0  0  0  0  0  0  0
    9.9116  -12.6158   18.1457 O   0  0  0  0  0  0  0  0  0  0  0  0
    8.6908  -13.8611   19.7862 C   0  0  0  0  0  0  0  0  0  0  0  0
    7.2785  -13.8911   20.2958 C   0  0  0  0  0  0  0  0  0  0  0  0
    7.0700  -14.8203   21.4430 C   0  0  2  0  0  0  0  0  0  0  0  0
    5.7182  -15.0090   21.8401 N   0  0  0  0  0  0  0  0  0  0  0  0
    7.9636  -14.4400   22.5785 C   0  0  0  0  0  0  0  0  0  0  0  0
    9.2128  -14.4146   22.4267 O   0  0  0  0  0  0  0  0  0  0  0  0
    7.3442  -14.1158   23.8101 N   0  0  0  0  0  0  0  0  0  0  0  0
    8.1269  -13.7967   24.9788 C   0  0  1  0  0  0  0  0  0  0  0  0
    7.3480  -12.8727   25.9226 C   0  0  0  0  0  0  0  0  0  0  0  0
    5.8025  -13.6493   26.4215 S   0  0  0  0  0  0  0  0  0  0  0  0
    8.3905  -15.0525   25.7466 C   0  0  0  0  0  0  0  0  0  0  0  0
    7.4966  -15.9382   25.8494 O   0  0  0  0  0  0  0  0  0  0  0  0
   15.0751  -19.0676   26.2067 N   0  0  0  0  0  0  0  0  0  0  0  0
   14.6235  -19.8961   25.1391 C   0  0  0  0  0  0  0  0  0  0  0  0
   15.0909  -21.0891   24.9891 N   0  0  0  0  0  0  0  0  0  0  0  0
   13.6519  -19.4466   24.2072 N   0  0  0  0  0  0  0  0  0  0  0  0
   13.1068  -18.0554   24.2921 C   0  0  0  0  0  0  0  0  0  0  0  0
   12.0213  -18.0071   25.2944 C   0  0  0  0  0  0  0  0  0  0  0  0
   11.2818  -16.8023   25.5988 C   0  0  0  0  0  0  0  0  0  0  0  0
   10.1533  -16.7008   26.5494 C   0  0  2  0  0  0  0  0  0  0  0  0
    9.6204  -15.2876   26.3701 N   0  0  0  0  0  0  0  0  0  0  0  0
   10.3969  -16.8625   27.9787 C   0  0  0  0  0  0  0  0  0  0  0  0
   10.3580  -15.8459   28.8999 O   0  0  0  0  0  0  0  0  0  0  0  0
   10.6834  -18.0171   28.4818 O   0  0  0  0  0  0  0  0  0  0  0  0
  2  1  1  0
  2  3  2  0
  4  2  1  0
  5  4  1  0
  5  6  1  0
  6  8  1  0
  6  7  1  1
  8  9  2  0
 10 11  1  0
 10  8  1  0
 11 12  1  1
 12 13  1  0
 14 11  1  0
 15 14  2  0
 16 17  1  0
 17 19  1  0
 18 17  2  0
 20 19  1  0
 21 22  1  0
 21 20  1  0
 23 24  1  0
 23 22  1  6
 24 14  1  0
 25 23  1  0
 26 25  1  0
 27 25  2  0
M  END
$$$$
