QCR.pdb
     RDKit          3D

 27 26  0  0  1  0  0  0  0  0999 V2000
    9.4356  -12.2466   17.2345 N   0  0  0  0  0  0  0  0  0  0  0  0
    8.3225  -12.9872   16.7284 C   0  0  0  0  0  0  0  0  0  0  0  0
    8.1714  -13.1381   15.4884 O   0  0  0  0  0  0  0  0  0  0  0  0
    7.3606  -13.5666   17.7001 C   0  0  0  0  0  0  0  0  0  0  0  0
    7.8392  -13.3149   19.1011 C   0  0  0  0  0  0  0  0  0  0  0  0
    7.8591  -14.5332   19.9604 C   0  0  2  0  0  0  0  0  0  0  0  0
    6.6909  -15.3413   19.9040 N   0  0  0  0  0  0  0  0  0  0  0  0
    8.2491  -14.1689   21.3560 C   0  0  0  0  0  0  0  0  0  0  0  0
    9.2735  -13.4697   21.5705 O   0  0  0  0  0  0  0  0  0  0  0  0
    7.4224  -14.6414   22.4042 N   0  0  0  0  0  0  0  0  0  0  0  0
    7.7888  -14.4549   23.7867 C   0  0  1  0  0  0  0  0  0  0  0  0
    6.5449  -14.2438   24.6582 C   0  0  0  0  0  0  0  0  0  0  0  0
    7.0194  -14.0278   26.3812 S   0  0  0  0  0  0  0  0  0  0  0  0
    8.4449  -15.7010   24.2895 C   0  0  0  0  0  0  0  0  0  0  0  0
    7.8270  -16.8018   24.2682 O   0  0  0  0  0  0  0  0  0  0  0  0
   14.7280  -14.4383   20.6637 N   0  0  0  0  0  0  0  0  0  0  0  0
   13.6088  -15.1430   20.1339 C   0  0  0  0  0  0  0  0  0  0  0  0
   13.2983  -15.0420   18.8859 N   0  0  0  0  0  0  0  0  0  0  0  0
   12.7988  -15.9755   20.9496 N   0  0  0  0  0  0  0  0  0  0  0  0
   12.8307  -15.8390   22.4397 C   0  0  0  0  0  0  0  0  0  0  0  0
   11.8970  -16.8103   23.0480 C   0  0  0  0  0  0  0  0  0  0  0  0
   11.7345  -16.9596   24.4771 C   0  0  0  0  0  0  0  0  0  0  0  0
   10.4444  -16.9822   25.2000 C   0  0  2  0  0  0  0  0  0  0  0  0
    9.7493  -15.6916   24.7947 N   0  0  0  0  0  0  0  0  0  0  0  0
   10.4349  -17.0055   26.6587 C   0  0  0  0  0  0  0  0  0  0  0  0
   10.7830  -18.0881   27.4271 O   0  0  0  0  0  0  0  0  0  0  0  0
   10.0762  -15.9697   27.3417 O   0  0  0  0  0  0  0  0  0  0  0  0
  2  1  1  0
  2  3  2  0
  4  2  1  0
  5  4  1  0
  5  6  1  0
  6  8  1  0
  6  7  1  1
  8  9  2  0
 10 11  1  0
 10  8  1  0
 11 12  1  1
 12 13  1  0
 14 11  1  0
 15 14  2  0
 16 17  1  0
 17 19  1  0
 18 17  2  0
 20 19  1  0
 21 22  1  0
 21 20  1  0
 23 24  1  0
 23 22  1  1
 24 14  1  0
 25 23  1  0
 26 25  1  0
 27 25  2  0
M  END
$$$$
