QCR.pdb
     RDKit          3D

 27 26  0  0  1  0  0  0  0  0999 V2000
    9.0246  -12.6648   17.5438 N   0  0  0  0  0  0  0  0  0  0  0  0
    7.8805  -13.4018   17.1061 C   0  0  0  0  0  0  0  0  0  0  0  0
    7.7558  -13.7205   15.8953 O   0  0  0  0  0  0  0  0  0  0  0  0
    6.8551  -13.7756   18.1130 C   0  0  0  0  0  0  0  0  0  0  0  0
    7.3399  -13.4195   19.4890 C   0  0  0  0  0  0  0  0  0  0  0  0
    7.4622  -14.5878   20.4073 C   0  0  2  0  0  0  0  0  0  0  0  0
    6.2444  -15.2516   20.7190 N   0  0  0  0  0  0  0  0  0  0  0  0
    8.2447  -14.2049   21.6212 C   0  0  0  0  0  0  0  0  0  0  0  0
    9.4110  -13.7448   21.5098 O   0  0  0  0  0  0  0  0  0  0  0  0
    7.6183  -14.3826   22.8788 N   0  0  0  0  0  0  0  0  0  0  0  0
    8.3498  -14.2070   24.1093 C   0  0  1  0  0  0  0  0  0  0  0  0
    7.4678  -13.5557   25.1814 C   0  0  0  0  0  0  0  0  0  0  0  0
    6.5613  -14.8154   26.0935 S   0  0  0  0  0  0  0  0  0  0  0  0
    8.7345  -15.5496   24.6435 C   0  0  0  0  0  0  0  0  0  0  0  0
    7.8920  -16.4893   24.6772 O   0  0  0  0  0  0  0  0  0  0  0  0
   14.8559  -14.6603   21.9801 N   0  0  0  0  0  0  0  0  0  0  0  0
   13.9178  -15.1406   21.0212 C   0  0  0  0  0  0  0  0  0  0  0  0
   13.7177  -14.5010   19.9189 N   0  0  0  0  0  0  0  0  0  0  0  0
   13.1733  -16.3293   21.2383 N   0  0  0  0  0  0  0  0  0  0  0  0
   13.2434  -17.0379   22.5547 C   0  0  0  0  0  0  0  0  0  0  0  0
   11.9575  -16.8888   23.2686 C   0  0  0  0  0  0  0  0  0  0  0  0
   11.7414  -17.3730   24.6139 C   0  0  0  0  0  0  0  0  0  0  0  0
   10.4908  -17.2308   25.3905 C   0  0  2  0  0  0  0  0  0  0  0  0
   10.0244  -15.8089   25.1187 N   0  0  0  0  0  0  0  0  0  0  0  0
   10.5222  -17.3753   26.8419 C   0  0  0  0  0  0  0  0  0  0  0  0
   10.3620  -16.3458   27.7352 O   0  0  0  0  0  0  0  0  0  0  0  0
   10.7187  -18.5256   27.3953 O   0  0  0  0  0  0  0  0  0  0  0  0
  2  1  1  0
  2  3  2  0
  4  2  1  0
  5  4  1  0
  5  6  1  0
  6  8  1  0
  6  7  1  1
  8  9  2  0
 10 11  1  0
 10  8  1  0
 11 12  1  1
 12 13  1  0
 14 11  1  0
 15 14  2  0
 16 17  1  0
 17 19  1  0
 18 17  2  0
 20 19  1  0
 21 22  1  0
 21 20  1  0
 23 24  1  0
 23 22  1  1
 24 14  1  0
 25 23  1  0
 26 25  1  0
 27 25  2  0
M  END
$$$$
