QCR.pdb
     RDKit          3D

 27 26  0  0  1  0  0  0  0  0999 V2000
    6.8763  -17.7004   18.2840 N   0  0  0  0  0  0  0  0  0  0  0  0
    8.1729  -17.1699   17.9993 C   0  0  0  0  0  0  0  0  0  0  0  0
    9.0140  -17.8563   17.3633 O   0  0  0  0  0  0  0  0  0  0  0  0
    8.4931  -15.7991   18.4719 C   0  0  0  0  0  0  0  0  0  0  0  0
    7.2664  -15.1650   19.0622 C   0  0  0  0  0  0  0  0  0  0  0  0
    7.4761  -13.7651   19.5305 C   0  0  2  0  0  0  0  0  0  0  0  0
    7.8475  -12.8321   18.5243 N   0  0  0  0  0  0  0  0  0  0  0  0
    8.3974  -13.7515   20.7067 C   0  0  0  0  0  0  0  0  0  0  0  0
    9.6141  -13.4641   20.5612 O   0  0  0  0  0  0  0  0  0  0  0  0
    7.8414  -14.0720   21.9691 N   0  0  0  0  0  0  0  0  0  0  0  0
    8.6617  -14.1292   23.1541 C   0  0  1  0  0  0  0  0  0  0  0  0
    7.8827  -13.6428   24.3821 C   0  0  0  0  0  0  0  0  0  0  0  0
    6.2620  -14.4240   24.4426 S   0  0  0  0  0  0  0  0  0  0  0  0
    9.0253  -15.5537   23.4270 C   0  0  0  0  0  0  0  0  0  0  0  0
    8.2399  -16.4872   23.1021 O   0  0  0  0  0  0  0  0  0  0  0  0
   14.3604  -20.4628   19.7645 N   0  0  0  0  0  0  0  0  0  0  0  0
   13.5308  -19.4295   19.2410 C   0  0  0  0  0  0  0  0  0  0  0  0
   13.3515  -19.3107   17.9690 N   0  0  0  0  0  0  0  0  0  0  0  0
   12.8755  -18.4990   20.0890 N   0  0  0  0  0  0  0  0  0  0  0  0
   12.9490  -18.6466   21.5765 C   0  0  0  0  0  0  0  0  0  0  0  0
   12.1024  -17.6200   22.2204 C   0  0  0  0  0  0  0  0  0  0  0  0
   11.8907  -17.5550   23.6493 C   0  0  0  0  0  0  0  0  0  0  0  0
   10.5879  -17.3512   24.3192 C   0  0  2  0  0  0  0  0  0  0  0  0
   10.2327  -15.8982   24.0437 N   0  0  0  0  0  0  0  0  0  0  0  0
   10.4841  -17.5258   25.7638 C   0  0  0  0  0  0  0  0  0  0  0  0
   10.4858  -18.7374   26.4085 O   0  0  0  0  0  0  0  0  0  0  0  0
   10.3718  -16.5102   26.5538 O   0  0  0  0  0  0  0  0  0  0  0  0
  2  1  1  0
  2  3  2  0
  4  2  1  0
  5  4  1  0
  5  6  1  0
  6  8  1  0
  6  7  1  6
  8  9  2  0
 10 11  1  0
 10  8  1  0
 11 12  1  1
 12 13  1  0
 14 11  1  0
 15 14  2  0
 16 17  1  0
 17 19  1  0
 18 17  2  0
 20 19  1  0
 21 22  1  0
 21 20  1  0
 23 24  1  0
 23 22  1  1
 24 14  1  0
 25 23  1  0
 26 25  1  0
 27 25  2  0
M  END
$$$$
