QCR.pdb
     RDKit          3D

 27 26  0  0  1  0  0  0  0  0999 V2000
   11.4043  -17.0794   13.2347 N   0  0  0  0  0  0  0  0  0  0  0  0
   10.2915  -16.2329   12.9367 C   0  0  0  0  0  0  0  0  0  0  0  0
   10.2038  -15.6712   11.8143 O   0  0  0  0  0  0  0  0  0  0  0  0
    9.2537  -16.0390   13.9810 C   0  0  0  0  0  0  0  0  0  0  0  0
    9.5531  -16.9138   15.1643 C   0  0  0  0  0  0  0  0  0  0  0  0
    8.5619  -16.7921   16.2715 C   0  0  2  0  0  0  0  0  0  0  0  0
    7.3164  -16.2062   15.9163 N   0  0  0  0  0  0  0  0  0  0  0  0
    9.1961  -16.1398   17.4567 C   0  0  0  0  0  0  0  0  0  0  0  0
   10.4082  -16.3458   17.7261 O   0  0  0  0  0  0  0  0  0  0  0  0
    8.3788  -15.2943   18.2457 N   0  0  0  0  0  0  0  0  0  0  0  0
    8.8866  -14.6677   19.4414 C   0  0  1  0  0  0  0  0  0  0  0  0
    7.8821  -13.6493   19.9937 C   0  0  0  0  0  0  0  0  0  0  0  0
    7.7821  -12.2184   18.9060 S   0  0  0  0  0  0  0  0  0  0  0  0
    9.0543  -15.7074   20.5030 C   0  0  0  0  0  0  0  0  0  0  0  0
    8.1525  -16.5682   20.7026 O   0  0  0  0  0  0  0  0  0  0  0  0
   16.2433  -18.6792   22.6505 N   0  0  0  0  0  0  0  0  0  0  0  0
   15.5839  -19.8404   23.1476 C   0  0  0  0  0  0  0  0  0  0  0  0
   16.2630  -20.8575   23.5580 N   0  0  0  0  0  0  0  0  0  0  0  0
   14.1685  -19.9238   23.2101 N   0  0  0  0  0  0  0  0  0  0  0  0
   13.3310  -19.4775   22.0528 C   0  0  0  0  0  0  0  0  0  0  0  0
   12.1318  -18.7707   22.5503 C   0  0  0  0  0  0  0  0  0  0  0  0
   11.5991  -17.5823   21.9218 C   0  0  0  0  0  0  0  0  0  0  0  0
   10.3814  -16.8564   22.3435 C   0  0  2  0  0  0  0  0  0  0  0  0
   10.2011  -15.7626   21.3022 N   0  0  0  0  0  0  0  0  0  0  0  0
   10.3520  -16.1887   23.6402 C   0  0  0  0  0  0  0  0  0  0  0  0
   10.0926  -16.8107   24.8359 O   0  0  0  0  0  0  0  0  0  0  0  0
   10.5689  -14.9197   23.7441 O   0  0  0  0  0  0  0  0  0  0  0  0
  2  1  1  0
  2  3  2  0
  4  2  1  0
  5  4  1  0
  5  6  1  0
  6  8  1  0
  6  7  1  6
  8  9  2  0
 10 11  1  0
 10  8  1  0
 11 12  1  1
 12 13  1  0
 14 11  1  0
 15 14  2  0
 16 17  1  0
 17 19  1  0
 18 17  2  0
 20 19  1  0
 21 22  1  0
 21 20  1  0
 23 24  1  0
 23 22  1  6
 24 14  1  0
 25 23  1  0
 26 25  1  0
 27 25  2  0
M  END
$$$$
