QCR.pdb
     RDKit          3D

 27 26  0  0  1  0  0  0  0  0999 V2000
    4.9127  -19.4427   23.8824 N   0  0  0  0  0  0  0  0  0  0  0  0
    5.3095  -19.0203   22.5755 C   0  0  0  0  0  0  0  0  0  0  0  0
    4.4596  -18.5529   21.7741 O   0  0  0  0  0  0  0  0  0  0  0  0
    6.7396  -19.1488   22.1970 C   0  0  0  0  0  0  0  0  0  0  0  0
    7.5493  -18.1004   22.9047 C   0  0  0  0  0  0  0  0  0  0  0  0
    7.5436  -16.7729   22.2260 C   0  0  2  0  0  0  0  0  0  0  0  0
    8.0669  -16.7588   20.9043 N   0  0  0  0  0  0  0  0  0  0  0  0
    8.1671  -15.7430   23.1109 C   0  0  0  0  0  0  0  0  0  0  0  0
    9.4193  -15.6422   23.1890 O   0  0  0  0  0  0  0  0  0  0  0  0
    7.2932  -14.9025   23.8425 N   0  0  0  0  0  0  0  0  0  0  0  0
    7.7972  -13.9761   24.8265 C   0  0  1  0  0  0  0  0  0  0  0  0
    6.6966  -13.0108   25.2827 C   0  0  0  0  0  0  0  0  0  0  0  0
    7.3042  -11.9521   26.6057 S   0  0  0  0  0  0  0  0  0  0  0  0
    8.2162  -14.7376   26.0433 C   0  0  0  0  0  0  0  0  0  0  0  0
    7.3980  -15.4940   26.6370 O   0  0  0  0  0  0  0  0  0  0  0  0
   13.1641  -18.4899   22.2746 N   0  0  0  0  0  0  0  0  0  0  0  0
   13.0090  -17.5189   23.3057 C   0  0  0  0  0  0  0  0  0  0  0  0
   12.7538  -16.2878   23.0170 N   0  0  0  0  0  0  0  0  0  0  0  0
   13.1282  -17.8635   24.6773 N   0  0  0  0  0  0  0  0  0  0  0  0
   13.1203  -16.7994   25.7297 C   0  0  0  0  0  0  0  0  0  0  0  0
   11.7257  -16.4332   26.0559 C   0  0  0  0  0  0  0  0  0  0  0  0
   11.3186  -15.9618   27.3608 C   0  0  0  0  0  0  0  0  0  0  0  0
    9.9599  -15.5067   27.7275 C   0  0  2  0  0  0  0  0  0  0  0  0
    9.5123  -14.6403   26.5604 N   0  0  0  0  0  0  0  0  0  0  0  0
    9.7686  -14.6990   28.9272 C   0  0  0  0  0  0  0  0  0  0  0  0
    9.6756  -13.3298   28.9429 O   0  0  0  0  0  0  0  0  0  0  0  0
    9.6800  -15.2453   30.0942 O   0  0  0  0  0  0  0  0  0  0  0  0
  2  1  1  0
  2  3  2  0
  4  2  1  0
  5  4  1  0
  5  6  1  0
  6  8  1  0
  6  7  1  6
  8  9  2  0
 10 11  1  0
 10  8  1  0
 11 12  1  1
 12 13  1  0
 14 11  1  0
 15 14  2  0
 16 17  1  0
 17 19  1  0
 18 17  2  0
 20 19  1  0
 21 22  1  0
 21 20  1  0
 23 24  1  0
 23 22  1  6
 24 14  1  0
 25 23  1  0
 26 25  1  0
 27 25  2  0
M  END
$$$$
