QCR.pdb
     RDKit          3D

 27 26  0  0  1  0  0  0  0  0999 V2000
    7.3613  -18.0873   20.4296 N   0  0  0  0  0  0  0  0  0  0  0  0
    6.5795  -17.2768   19.5489 C   0  0  0  0  0  0  0  0  0  0  0  0
    5.8974  -17.8083   18.6349 O   0  0  0  0  0  0  0  0  0  0  0  0
    6.5969  -15.8049   19.7438 C   0  0  0  0  0  0  0  0  0  0  0  0
    7.4009  -15.4628   20.9652 C   0  0  0  0  0  0  0  0  0  0  0  0
    7.3366  -14.0229   21.3467 C   0  0  2  0  0  0  0  0  0  0  0  0
    7.7205  -13.1033   20.3330 N   0  0  0  0  0  0  0  0  0  0  0  0
    8.0573  -13.8028   22.6370 C   0  0  0  0  0  0  0  0  0  0  0  0
    9.3046  -13.6352   22.6508 O   0  0  0  0  0  0  0  0  0  0  0  0
    7.2793  -13.7922   23.8202 N   0  0  0  0  0  0  0  0  0  0  0  0
    7.8964  -13.8772   25.1210 C   0  0  1  0  0  0  0  0  0  0  0  0
    7.0153  -13.2169   26.1882 C   0  0  0  0  0  0  0  0  0  0  0  0
    6.2736  -11.7101   25.5402 S   0  0  0  0  0  0  0  0  0  0  0  0
    8.0172  -15.3159   25.5102 C   0  0  0  0  0  0  0  0  0  0  0  0
    7.1639  -16.1585   25.1154 O   0  0  0  0  0  0  0  0  0  0  0  0
   10.9833  -17.8835   20.5831 N   0  0  0  0  0  0  0  0  0  0  0  0
   12.0206  -18.7493   21.0351 C   0  0  0  0  0  0  0  0  0  0  0  0
   12.3322  -19.8077   20.3666 N   0  0  0  0  0  0  0  0  0  0  0  0
   12.7448  -18.4852   22.2268 N   0  0  0  0  0  0  0  0  0  0  0  0
   12.3949  -17.3072   23.0812 C   0  0  0  0  0  0  0  0  0  0  0  0
   11.3573  -17.6941   24.0605 C   0  0  0  0  0  0  0  0  0  0  0  0
   10.7892  -16.7683   25.0150 C   0  0  0  0  0  0  0  0  0  0  0  0
    9.7598  -17.0955   26.0252 C   0  0  2  0  0  0  0  0  0  0  0  0
    9.0659  -15.7735   26.3150 N   0  0  0  0  0  0  0  0  0  0  0  0
   10.1643  -17.6319   27.3202 C   0  0  0  0  0  0  0  0  0  0  0  0
   10.3295  -16.8857   28.4601 O   0  0  0  0  0  0  0  0  0  0  0  0
   10.4090  -18.8905   27.4758 O   0  0  0  0  0  0  0  0  0  0  0  0
  2  1  1  0
  2  3  2  0
  4  2  1  0
  5  4  1  0
  5  6  1  0
  6  8  1  0
  6  7  1  6
  8  9  2  0
 10 11  1  0
 10  8  1  0
 11 12  1  1
 12 13  1  0
 14 11  1  0
 15 14  2  0
 16 17  1  0
 17 19  1  0
 18 17  2  0
 20 19  1  0
 21 22  1  0
 21 20  1  0
 23 24  1  0
 23 22  1  6
 24 14  1  0
 25 23  1  0
 26 25  1  0
 27 25  2  0
M  END
$$$$
