QCR.pdb
     RDKit          3D

 27 26  0  0  1  0  0  0  0  0999 V2000
    7.9706  -11.7490   17.9570 N   0  0  0  0  0  0  0  0  0  0  0  0
    7.6401  -13.1271   18.1453 C   0  0  0  0  0  0  0  0  0  0  0  0
    7.7817  -13.9484   17.2027 O   0  0  0  0  0  0  0  0  0  0  0  0
    7.1302  -13.5547   19.4727 C   0  0  0  0  0  0  0  0  0  0  0  0
    8.1619  -14.3967   20.1669 C   0  0  0  0  0  0  0  0  0  0  0  0
    7.6572  -15.0836   21.3902 C   0  0  2  0  0  0  0  0  0  0  0  0
    6.2893  -15.4687   21.3557 N   0  0  0  0  0  0  0  0  0  0  0  0
    8.0086  -14.2885   22.6054 C   0  0  0  0  0  0  0  0  0  0  0  0
    8.1664  -13.0421   22.5290 O   0  0  0  0  0  0  0  0  0  0  0  0
    8.1518  -14.9960   23.8238 N   0  0  0  0  0  0  0  0  0  0  0  0
    8.3317  -14.3010   25.0747 C   0  0  1  0  0  0  0  0  0  0  0  0
    7.1925  -13.3030   25.3144 C   0  0  0  0  0  0  0  0  0  0  0  0
    7.3717  -12.5274   26.9290 S   0  0  0  0  0  0  0  0  0  0  0  0
    8.2648  -15.2889   26.1952 C   0  0  0  0  0  0  0  0  0  0  0  0
    7.1623  -15.8098   26.5228 O   0  0  0  0  0  0  0  0  0  0  0  0
   12.2871  -20.0681   21.4509 N   0  0  0  0  0  0  0  0  0  0  0  0
   12.8644  -20.5636   22.6555 C   0  0  0  0  0  0  0  0  0  0  0  0
   13.5818  -21.6357   22.6489 N   0  0  0  0  0  0  0  0  0  0  0  0
   12.6751  -19.9046   23.8982 N   0  0  0  0  0  0  0  0  0  0  0  0
   11.7959  -18.6970   23.9897 C   0  0  0  0  0  0  0  0  0  0  0  0
   11.7547  -18.2166   25.3871 C   0  0  0  0  0  0  0  0  0  0  0  0
   10.9658  -17.0801   25.8077 C   0  0  0  0  0  0  0  0  0  0  0  0
    9.9283  -17.0937   26.8617 C   0  0  2  0  0  0  0  0  0  0  0  0
    9.4059  -15.6661   26.9109 N   0  0  0  0  0  0  0  0  0  0  0  0
   10.2953  -17.4372   28.2312 C   0  0  0  0  0  0  0  0  0  0  0  0
   10.4356  -16.5336   29.2546 O   0  0  0  0  0  0  0  0  0  0  0  0
   10.5275  -18.6605   28.5745 O   0  0  0  0  0  0  0  0  0  0  0  0
  2  1  1  0
  2  3  2  0
  4  2  1  0
  5  4  1  0
  5  6  1  0
  6  8  1  0
  6  7  1  6
  8  9  2  0
 10 11  1  0
 10  8  1  0
 11 12  1  1
 12 13  1  0
 14 11  1  0
 15 14  2  0
 16 17  1  0
 17 19  1  0
 18 17  2  0
 20 19  1  0
 21 22  1  0
 21 20  1  0
 23 24  1  0
 23 22  1  6
 24 14  1  0
 25 23  1  0
 26 25  1  0
 27 25  2  0
M  END
$$$$
