QCR.pdb
     RDKit          3D

 27 26  0  0  1  0  0  0  0  0999 V2000
    9.3204  -17.1998   18.1677 N   0  0  0  0  0  0  0  0  0  0  0  0
    8.0832  -16.7437   17.6152 C   0  0  0  0  0  0  0  0  0  0  0  0
    7.6164  -17.2785   16.5764 O   0  0  0  0  0  0  0  0  0  0  0  0
    7.3740  -15.6316   18.2973 C   0  0  0  0  0  0  0  0  0  0  0  0
    8.0722  -15.2961   19.5838 C   0  0  0  0  0  0  0  0  0  0  0  0
    7.4573  -14.1583   20.3257 C   0  0  2  0  0  0  0  0  0  0  0  0
    7.3432  -12.9429   19.5974 N   0  0  0  0  0  0  0  0  0  0  0  0
    8.1321  -13.9848   21.6475 C   0  0  0  0  0  0  0  0  0  0  0  0
    9.3876  -14.0123   21.7316 O   0  0  0  0  0  0  0  0  0  0  0  0
    7.3020  -13.7914   22.7784 N   0  0  0  0  0  0  0  0  0  0  0  0
    7.8624  -13.6285   24.0974 C   0  0  1  0  0  0  0  0  0  0  0  0
    6.8155  -13.0747   25.0715 C   0  0  0  0  0  0  0  0  0  0  0  0
    7.5464  -12.8255   26.6976 S   0  0  0  0  0  0  0  0  0  0  0  0
    8.2587  -14.9694   24.6276 C   0  0  0  0  0  0  0  0  0  0  0  0
    7.4502  -15.9381   24.5845 O   0  0  0  0  0  0  0  0  0  0  0  0
   13.0516  -21.0194   23.6850 N   0  0  0  0  0  0  0  0  0  0  0  0
   12.5514  -20.2375   22.6040 C   0  0  0  0  0  0  0  0  0  0  0  0
   11.7508  -20.7536   21.7340 N   0  0  0  0  0  0  0  0  0  0  0  0
   12.9105  -18.8740   22.4424 N   0  0  0  0  0  0  0  0  0  0  0  0
   12.9457  -17.9544   23.6226 C   0  0  0  0  0  0  0  0  0  0  0  0
   11.5756  -17.7604   24.1428 C   0  0  0  0  0  0  0  0  0  0  0  0
   11.2568  -16.8207   25.1945 C   0  0  0  0  0  0  0  0  0  0  0  0
    9.9056  -16.5592   25.7362 C   0  0  2  0  0  0  0  0  0  0  0  0
    9.5226  -15.1952   25.1828 N   0  0  0  0  0  0  0  0  0  0  0  0
    9.7098  -16.4791   27.1797 C   0  0  0  0  0  0  0  0  0  0  0  0
    9.6389  -17.5607   28.0216 O   0  0  0  0  0  0  0  0  0  0  0  0
    9.5781  -15.3403   27.7746 O   0  0  0  0  0  0  0  0  0  0  0  0
  2  1  1  0
  2  3  2  0
  4  2  1  0
  5  4  1  0
  5  6  1  0
  6  8  1  0
  6  7  1  6
  8  9  2  0
 10 11  1  0
 10  8  1  0
 11 12  1  1
 12 13  1  0
 14 11  1  0
 15 14  2  0
 16 17  1  0
 17 19  1  0
 18 17  2  0
 20 19  1  0
 21 22  1  0
 21 20  1  0
 23 24  1  0
 23 22  1  1
 24 14  1  0
 25 23  1  0
 26 25  1  0
 27 25  2  0
M  END
$$$$
