QCR.pdb
     RDKit          3D

 27 26  0  0  1  0  0  0  0  0999 V2000
   10.0774  -21.6449   15.7080 N   0  0  0  0  0  0  0  0  0  0  0  0
   10.7521  -20.3847   15.7311 C   0  0  0  0  0  0  0  0  0  0  0  0
   12.0093  -20.3380   15.7487 O   0  0  0  0  0  0  0  0  0  0  0  0
    9.9327  -19.1463   15.7338 C   0  0  0  0  0  0  0  0  0  0  0  0
   10.3237  -18.2801   16.8965 C   0  0  0  0  0  0  0  0  0  0  0  0
    9.1708  -17.6158   17.5693 C   0  0  2  0  0  0  0  0  0  0  0  0
    8.2049  -17.0385   16.7008 N   0  0  0  0  0  0  0  0  0  0  0  0
    9.6646  -16.6623   18.6082 C   0  0  0  0  0  0  0  0  0  0  0  0
   10.8870  -16.6186   18.9050 O   0  0  0  0  0  0  0  0  0  0  0  0
    8.7049  -15.8264   19.2292 N   0  0  0  0  0  0  0  0  0  0  0  0
    9.0748  -14.9274   20.2948 C   0  0  1  0  0  0  0  0  0  0  0  0
    7.9549  -13.9169   20.5708 C   0  0  0  0  0  0  0  0  0  0  0  0
    7.6608  -12.8984   19.1160 S   0  0  0  0  0  0  0  0  0  0  0  0
    9.2501  -15.7120   21.5556 C   0  0  0  0  0  0  0  0  0  0  0  0
    8.3198  -16.4507   21.9832 O   0  0  0  0  0  0  0  0  0  0  0  0
   16.8529  -16.1893   21.4833 N   0  0  0  0  0  0  0  0  0  0  0  0
   16.2628  -16.0402   22.7715 C   0  0  0  0  0  0  0  0  0  0  0  0
   16.9362  -15.5357   23.7493 N   0  0  0  0  0  0  0  0  0  0  0  0
   14.9245  -16.4371   23.0281 N   0  0  0  0  0  0  0  0  0  0  0  0
   14.1222  -17.1269   21.9696 C   0  0  0  0  0  0  0  0  0  0  0  0
   12.8328  -17.5756   22.5365 C   0  0  0  0  0  0  0  0  0  0  0  0
   12.1017  -16.8197   23.5290 C   0  0  0  0  0  0  0  0  0  0  0  0
   10.6475  -16.5504   23.5083 C   0  0  2  0  0  0  0  0  0  0  0  0
   10.4353  -15.6561   22.2965 N   0  0  0  0  0  0  0  0  0  0  0  0
   10.0253  -15.8609   24.6333 C   0  0  0  0  0  0  0  0  0  0  0  0
    9.7609  -16.4321   25.8530 O   0  0  0  0  0  0  0  0  0  0  0  0
    9.6639  -14.6242   24.5427 O   0  0  0  0  0  0  0  0  0  0  0  0
  2  1  1  0
  2  3  2  0
  4  2  1  0
  5  4  1  0
  5  6  1  0
  6  8  1  0
  6  7  1  6
  8  9  2  0
 10 11  1  0
 10  8  1  0
 11 12  1  1
 12 13  1  0
 14 11  1  0
 15 14  2  0
 16 17  1  0
 17 19  1  0
 18 17  2  0
 20 19  1  0
 21 22  1  0
 21 20  1  0
 23 24  1  0
 23 22  1  1
 24 14  1  0
 25 23  1  0
 26 25  1  0
 27 25  2  0
M  END
$$$$
