GTA.pdb
     RDKit          3D

 17 16  0  0  1  0  0  0  0  0999 V2000
   10.6703  -17.5681   17.7318 N   0  0  0  0  0  0  0  0  0  0  0  0
    9.8052  -18.0322   18.7682 C   0  0  0  0  0  0  0  0  0  0  0  0
    9.3369  -16.8784   19.5668 C   0  0  0  0  0  0  0  0  0  0  0  0
    9.8442  -15.7250   19.4499 O   0  0  0  0  0  0  0  0  0  0  0  0
    6.0172  -15.2183   19.9960 C   0  0  0  0  0  0  0  0  0  0  0  0
    6.4282  -15.7581   21.3388 C   0  0  1  0  0  0  0  0  0  0  0  0
    5.7657  -16.9365   21.5658 O   0  0  0  0  0  0  0  0  0  0  0  0
    7.9293  -15.9524   21.3758 C   0  0  2  0  0  0  0  0  0  0  0  0
    8.2962  -17.0477   20.4906 N   0  0  0  0  0  0  0  0  0  0  0  0
    8.3082  -16.3330   22.7764 C   0  0  0  0  0  0  0  0  0  0  0  0
    8.6292  -17.5378   22.9674 O   0  0  0  0  0  0  0  0  0  0  0  0
    8.6210  -14.5465   26.1146 C   0  0  0  0  0  0  0  0  0  0  0  0
    8.6010  -15.7234   25.2089 C   0  0  2  0  0  0  0  0  0  0  0  0
    8.3148  -15.4062   23.8479 N   0  0  0  0  0  0  0  0  0  0  0  0
    7.7727  -16.8666   25.7190 C   0  0  0  0  0  0  0  0  0  0  0  0
    6.5686  -16.9909   25.3094 O   0  0  0  0  0  0  0  0  0  0  0  0
    8.1927  -17.8204   26.6130 O   0  0  0  0  0  0  0  0  0  0  0  0
  2  1  1  0
  3  2  1  0
  4  3  2  0
  6  5  1  6
  6  8  1  0
  7  6  1  0
  8  9  1  6
  9  3  1  0
 10  8  1  0
 10 14  1  0
 11 10  2  0
 13 12  1  1
 13 14  1  0
 13 15  1  0
 15 17  1  0
 16 15  2  0
M  END
$$$$
