GTA.pdb
     RDKit          3D

 17 16  0  0  1  0  0  0  0  0999 V2000
   12.0577  -17.3988   20.8340 N   0  0  0  0  0  0  0  0  0  0  0  0
   10.6873  -17.5125   21.2174 C   0  0  0  0  0  0  0  0  0  0  0  0
   10.1932  -16.1910   21.6621 C   0  0  0  0  0  0  0  0  0  0  0  0
   10.9543  -15.1858   21.7689 O   0  0  0  0  0  0  0  0  0  0  0  0
    7.1909  -14.0345   20.5142 C   0  0  0  0  0  0  0  0  0  0  0  0
    7.0293  -14.4134   21.9612 C   0  0  1  0  0  0  0  0  0  0  0  0
    6.1519  -15.4628   22.0505 O   0  0  0  0  0  0  0  0  0  0  0  0
    8.3773  -14.7688   22.5518 C   0  0  2  0  0  0  0  0  0  0  0  0
    8.8381  -16.0257   21.9810 N   0  0  0  0  0  0  0  0  0  0  0  0
    8.1949  -14.9620   24.0280 C   0  0  0  0  0  0  0  0  0  0  0  0
    8.2622  -16.1468   24.4556 O   0  0  0  0  0  0  0  0  0  0  0  0
    7.4277  -12.7253   27.0026 C   0  0  0  0  0  0  0  0  0  0  0  0
    7.6425  -14.0181   26.3036 C   0  0  2  0  0  0  0  0  0  0  0  0
    7.9589  -13.8860   24.9190 N   0  0  0  0  0  0  0  0  0  0  0  0
    6.5604  -15.0283   26.5520 C   0  0  0  0  0  0  0  0  0  0  0  0
    5.5731  -15.0907   25.7431 O   0  0  0  0  0  0  0  0  0  0  0  0
    6.5233  -15.9179   27.5973 O   0  0  0  0  0  0  0  0  0  0  0  0
  2  1  1  0
  3  2  1  0
  4  3  2  0
  6  5  1  6
  6  8  1  0
  7  6  1  0
  8  9  1  6
  9  3  1  0
 10  8  1  0
 10 14  1  0
 11 10  2  0
 13 12  1  6
 13 14  1  0
 13 15  1  0
 15 17  1  0
 16 15  2  0
M  END
$$$$
