GTA.pdb
     RDKit          3D

 17 16  0  0  1  0  0  0  0  0999 V2000
   12.8054  -17.6128   20.5277 N   0  0  0  0  0  0  0  0  0  0  0  0
   12.8281  -17.6888   21.9530 C   0  0  0  0  0  0  0  0  0  0  0  0
   11.9622  -16.6279   22.5127 C   0  0  0  0  0  0  0  0  0  0  0  0
   12.0334  -15.4245   22.1281 O   0  0  0  0  0  0  0  0  0  0  0  0
    8.2901  -16.1331   22.6366 C   0  0  0  0  0  0  0  0  0  0  0  0
    8.7725  -16.2409   24.0575 C   0  0  1  0  0  0  0  0  0  0  0  0
    8.5416  -17.5141   24.5099 O   0  0  0  0  0  0  0  0  0  0  0  0
   10.2432  -15.8881   24.1280 C   0  0  2  0  0  0  0  0  0  0  0  0
   11.0238  -16.9462   23.5043 N   0  0  0  0  0  0  0  0  0  0  0  0
   10.6278  -15.8115   25.5758 C   0  0  0  0  0  0  0  0  0  0  0  0
   11.3171  -16.7657   26.0288 O   0  0  0  0  0  0  0  0  0  0  0  0
   10.0371  -13.3878   28.4423 C   0  0  0  0  0  0  0  0  0  0  0  0
   10.5586  -14.6223   27.8019 C   0  0  2  0  0  0  0  0  0  0  0  0
   10.2503  -14.7331   26.4136 N   0  0  0  0  0  0  0  0  0  0  0  0
   10.2453  -15.8781   28.5622 C   0  0  0  0  0  0  0  0  0  0  0  0
    9.2775  -16.6149   28.1703 O   0  0  0  0  0  0  0  0  0  0  0  0
   10.9144  -16.3261   29.6744 O   0  0  0  0  0  0  0  0  0  0  0  0
  2  1  1  0
  3  2  1  0
  4  3  2  0
  6  5  1  6
  6  8  1  0
  7  6  1  0
  8  9  1  6
  9  3  1  0
 10  8  1  0
 10 14  1  0
 11 10  2  0
 13 12  1  1
 13 14  1  0
 13 15  1  0
 15 17  1  0
 16 15  2  0
M  END
$$$$
