GTA.pdb
     RDKit          3D

 17 16  0  0  1  0  0  0  0  0999 V2000
    6.1692  -17.6143   16.8879 N   0  0  0  0  0  0  0  0  0  0  0  0
    5.9920  -17.1414   18.2231 C   0  0  0  0  0  0  0  0  0  0  0  0
    7.2228  -16.4487   18.6634 C   0  0  0  0  0  0  0  0  0  0  0  0
    8.2814  -16.4458   17.9703 O   0  0  0  0  0  0  0  0  0  0  0  0
    7.5846  -12.9015   19.9366 C   0  0  0  0  0  0  0  0  0  0  0  0
    8.1704  -13.8143   20.9792 C   0  0  1  0  0  0  0  0  0  0  0  0
    7.2860  -13.9248   22.0207 O   0  0  0  0  0  0  0  0  0  0  0  0
    8.4733  -15.1651   20.3663 C   0  0  2  0  0  0  0  0  0  0  0  0
    7.2374  -15.7662   19.8878 N   0  0  0  0  0  0  0  0  0  0  0  0
    9.0358  -16.0426   21.4450 C   0  0  0  0  0  0  0  0  0  0  0  0
    8.2046  -16.5817   22.2257 O   0  0  0  0  0  0  0  0  0  0  0  0
   11.7181  -18.2998   22.0333 C   0  0  0  0  0  0  0  0  0  0  0  0
   11.0147  -17.1153   22.5885 C   0  0  2  0  0  0  0  0  0  0  0  0
   10.4252  -16.2721   21.6005 N   0  0  0  0  0  0  0  0  0  0  0  0
   11.8232  -16.3460   23.5924 C   0  0  0  0  0  0  0  0  0  0  0  0
   12.2453  -15.1795   23.2855 O   0  0  0  0  0  0  0  0  0  0  0  0
   12.1679  -16.7867   24.8463 O   0  0  0  0  0  0  0  0  0  0  0  0
  2  1  1  0
  3  2  1  0
  4  3  2  0
  6  5  1  6
  6  8  1  0
  7  6  1  0
  8  9  1  1
  9  3  1  0
 10  8  1  0
 10 14  1  0
 11 10  2  0
 13 12  1  6
 13 14  1  0
 13 15  1  0
 15 17  1  0
 16 15  2  0
M  END
$$$$
