GTA.pdb
     RDKit          3D

 17 16  0  0  1  0  0  0  0  0999 V2000
    4.4810  -18.9564   20.2821 N   0  0  0  0  0  0  0  0  0  0  0  0
    4.8946  -18.1179   21.3609 C   0  0  0  0  0  0  0  0  0  0  0  0
    6.2610  -17.6175   21.0946 C   0  0  0  0  0  0  0  0  0  0  0  0
    6.9237  -17.9710   20.0762 O   0  0  0  0  0  0  0  0  0  0  0  0
    6.9502  -14.0969   20.7835 C   0  0  0  0  0  0  0  0  0  0  0  0
    7.9874  -14.5874   21.7566 C   0  0  1  0  0  0  0  0  0  0  0  0
    7.6208  -14.2130   23.0233 O   0  0  0  0  0  0  0  0  0  0  0  0
    8.1263  -16.0909   21.6435 C   0  0  2  0  0  0  0  0  0  0  0  0
    6.8603  -16.7199   21.9892 N   0  0  0  0  0  0  0  0  0  0  0  0
    9.1577  -16.5325   22.6391 C   0  0  0  0  0  0  0  0  0  0  0  0
    8.7837  -16.6168   23.8407 O   0  0  0  0  0  0  0  0  0  0  0  0
   11.9651  -18.7016   22.8694 C   0  0  0  0  0  0  0  0  0  0  0  0
   11.4967  -17.3237   23.1660 C   0  0  2  0  0  0  0  0  0  0  0  0
   10.4905  -16.8461   22.2748 N   0  0  0  0  0  0  0  0  0  0  0  0
   12.6088  -16.3343   23.3603 C   0  0  0  0  0  0  0  0  0  0  0  0
   12.7743  -15.4096   22.4940 O   0  0  0  0  0  0  0  0  0  0  0  0
   13.4962  -16.3263   24.4081 O   0  0  0  0  0  0  0  0  0  0  0  0
  2  1  1  0
  3  2  1  0
  4  3  2  0
  6  5  1  6
  6  8  1  0
  7  6  1  0
  8  9  1  1
  9  3  1  0
 10  8  1  0
 10 14  1  0
 11 10  2  0
 13 12  1  6
 13 14  1  0
 13 15  1  0
 15 17  1  0
 16 15  2  0
M  END
$$$$
