GTA.pdb
     RDKit          3D

 17 16  0  0  1  0  0  0  0  0999 V2000
    2.7617  -19.2945   20.8955 N   0  0  0  0  0  0  0  0  0  0  0  0
    3.1336  -18.1835   21.7113 C   0  0  0  0  0  0  0  0  0  0  0  0
    4.5996  -18.1918   21.9092 C   0  0  0  0  0  0  0  0  0  0  0  0
    5.2575  -19.2644   22.0431 O   0  0  0  0  0  0  0  0  0  0  0  0
    6.8120  -14.5181   22.0923 C   0  0  0  0  0  0  0  0  0  0  0  0
    7.3750  -15.7959   21.5323 C   0  0  1  0  0  0  0  0  0  0  0  0
    8.7351  -15.7945   21.7025 O   0  0  0  0  0  0  0  0  0  0  0  0
    6.7337  -16.9832   22.2191 C   0  0  2  0  0  0  0  0  0  0  0  0
    5.3030  -16.9800   21.9528 N   0  0  0  0  0  0  0  0  0  0  0  0
    6.9370  -16.8233   23.6966 C   0  0  0  0  0  0  0  0  0  0  0  0
    6.0721  -16.1457   24.3161 O   0  0  0  0  0  0  0  0  0  0  0  0
    7.0682  -17.7618   26.5999 C   0  0  0  0  0  0  0  0  0  0  0  0
    8.2423  -17.3359   25.7961 C   0  0  2  0  0  0  0  0  0  0  0  0
    8.0350  -17.3946   24.3860 N   0  0  0  0  0  0  0  0  0  0  0  0
    9.5304  -17.9830   26.2151 C   0  0  0  0  0  0  0  0  0  0  0  0
   10.2965  -18.4761   25.3190 O   0  0  0  0  0  0  0  0  0  0  0  0
    9.9797  -18.1043   27.5068 O   0  0  0  0  0  0  0  0  0  0  0  0
  2  1  1  0
  3  2  1  0
  4  3  2  0
  6  5  1  1
  6  8  1  0
  7  6  1  0
  8  9  1  1
  9  3  1  0
 10  8  1  0
 10 14  1  0
 11 10  2  0
 13 12  1  1
 13 14  1  0
 13 15  1  0
 15 17  1  0
 16 15  2  0
M  END
$$$$
