VCW.pdb
     RDKit          3D

 28 29  0  0  1  0  0  0  0  0999 V2000
    7.1496  -13.1611   21.5207 C   0  0  0  0  0  0  0  0  0  0  0  0
    8.2524  -13.4244   20.5358 C   0  0  2  0  0  0  0  0  0  0  0  0
    8.1598  -12.3891   19.4428 C   0  0  0  0  0  0  0  0  0  0  0  0
    8.2030  -14.8299   20.0070 C   0  0  2  0  0  0  0  0  0  0  0  0
    6.9421  -15.0184   19.3282 N   0  0  0  0  0  0  0  0  0  0  0  0
    8.3728  -15.7724   21.1589 C   0  0  0  0  0  0  0  0  0  0  0  0
    7.3269  -16.1787   21.7299 O   0  0  0  0  0  0  0  0  0  0  0  0
    9.5999  -16.2215   21.6323 N   0  0  0  0  0  0  0  0  0  0  0  0
    9.8217  -17.2111   22.6428 C   0  0  1  0  0  0  0  0  0  0  0  0
   10.6923  -18.3634   22.2547 C   0  0  0  0  0  0  0  0  0  0  0  0
   10.7118  -19.6626   23.5222 S   0  0  0  0  0  0  0  0  0  0  0  0
   10.1232  -16.6083   23.9506 C   0  0  0  0  0  0  0  0  0  0  0  0
   10.8851  -15.5724   24.0248 O   0  0  0  0  0  0  0  0  0  0  0  0
    9.6476  -17.0529   25.2227 N   0  0  0  0  0  0  0  0  0  0  0  0
   10.2540  -16.5707   26.4436 C   0  0  1  0  0  0  0  0  0  0  0  0
    9.4195  -15.7838   27.3620 C   0  0  0  0  0  0  0  0  0  0  0  0
    8.1886  -15.2082   26.8634 C   0  0  0  0  0  0  0  0  0  0  0  0
    7.1152  -15.9830   26.3920 C   0  0  0  0  0  0  0  0  0  0  0  0
    6.1566  -15.1746   25.9627 N   0  0  0  0  0  0  0  0  0  0  0  0
    6.5272  -13.8872   26.1221 C   0  0  0  0  0  0  0  0  0  0  0  0
    5.8890  -12.6970   25.8450 C   0  0  0  0  0  0  0  0  0  0  0  0
    6.4818  -11.4836   26.1165 C   0  0  0  0  0  0  0  0  0  0  0  0
    7.7252  -11.4988   26.6712 C   0  0  0  0  0  0  0  0  0  0  0  0
    8.3742  -12.6881   26.9504 C   0  0  0  0  0  0  0  0  0  0  0  0
    7.8052  -13.9214   26.6886 C   0  0  0  0  0  0  0  0  0  0  0  0
   10.8829  -17.7526   27.1760 C   0  0  0  0  0  0  0  0  0  0  0  0
   11.6482  -17.5230   28.3041 O   0  0  0  0  0  0  0  0  0  0  0  0
   10.7366  -18.9304   26.7999 O   0  0  0  0  0  0  0  0  0  0  0  0
  2  3  1  6
  2  1  1  0
  4  2  1  0
  4  5  1  1
  6  7  2  0
  6  4  1  0
  8  6  1  0
  9 12  1  0
  9  8  1  0
  9 10  1  6
 11 10  1  0
 12 13  2  0
 14 15  1  0
 14 12  1  0
 15 16  1  1
 17 16  1  0
 18 17  2  0
 19 20  1  0
 19 18  1  0
 20 25  2  0
 21 22  2  0
 21 20  1  0
 22 23  1  0
 23 24  2  0
 25 24  1  0
 25 17  1  0
 26 15  1  0
 26 27  1  0
 28 26  2  0
M  END
$$$$
