VCW.pdb
     RDKit          3D

 28 29  0  0  1  0  0  0  0  0999 V2000
    7.5594  -12.3433   18.9021 C   0  0  0  0  0  0  0  0  0  0  0  0
    7.7296  -13.4129   19.9427 C   0  0  2  0  0  0  0  0  0  0  0  0
    8.5244  -12.8311   21.0850 C   0  0  0  0  0  0  0  0  0  0  0  0
    8.3598  -14.6510   19.3708 C   0  0  2  0  0  0  0  0  0  0  0  0
    7.5824  -15.0737   18.2291 N   0  0  0  0  0  0  0  0  0  0  0  0
    8.4042  -15.6953   20.4439 C   0  0  0  0  0  0  0  0  0  0  0  0
    7.3177  -16.2519   20.7515 O   0  0  0  0  0  0  0  0  0  0  0  0
    9.5577  -16.0839   21.1148 N   0  0  0  0  0  0  0  0  0  0  0  0
    9.6698  -17.1051   22.1118 C   0  0  1  0  0  0  0  0  0  0  0  0
   10.4052  -18.3423   21.7059 C   0  0  0  0  0  0  0  0  0  0  0  0
   10.3406  -19.6272   22.9865 S   0  0  0  0  0  0  0  0  0  0  0  0
   10.0396  -16.5570   23.4260 C   0  0  0  0  0  0  0  0  0  0  0  0
   10.9904  -15.6933   23.5220 O   0  0  0  0  0  0  0  0  0  0  0  0
    9.4401  -16.8800   24.6823 N   0  0  0  0  0  0  0  0  0  0  0  0
   10.0322  -16.4209   25.9190 C   0  0  1  0  0  0  0  0  0  0  0  0
    9.1329  -15.9244   26.9696 C   0  0  0  0  0  0  0  0  0  0  0  0
    7.9058  -15.2631   26.5796 C   0  0  0  0  0  0  0  0  0  0  0  0
    6.7633  -15.9583   26.1485 C   0  0  0  0  0  0  0  0  0  0  0  0
    5.8248  -15.0821   25.8193 N   0  0  0  0  0  0  0  0  0  0  0  0
    6.2751  -13.8244   26.0086 C   0  0  0  0  0  0  0  0  0  0  0  0
    5.6868  -12.5911   25.8260 C   0  0  0  0  0  0  0  0  0  0  0  0
    6.3616  -11.4241   26.1090 C   0  0  0  0  0  0  0  0  0  0  0  0
    7.6356  -11.5297   26.5780 C   0  0  0  0  0  0  0  0  0  0  0  0
    8.2348  -12.7628   26.7620 C   0  0  0  0  0  0  0  0  0  0  0  0
    7.5832  -13.9514   26.4862 C   0  0  0  0  0  0  0  0  0  0  0  0
   10.9338  -17.5233   26.4672 C   0  0  0  0  0  0  0  0  0  0  0  0
   11.7780  -17.2461   27.5262 O   0  0  0  0  0  0  0  0  0  0  0  0
   10.9445  -18.6769   25.9990 O   0  0  0  0  0  0  0  0  0  0  0  0
  2  3  1  1
  2  1  1  0
  4  2  1  0
  4  5  1  6
  6  7  2  0
  6  4  1  0
  8  6  1  0
  9 12  1  0
  9  8  1  0
  9 10  1  6
 11 10  1  0
 12 13  2  0
 14 15  1  0
 14 12  1  0
 15 16  1  1
 17 16  1  0
 18 17  2  0
 19 20  1  0
 19 18  1  0
 20 25  2  0
 21 22  2  0
 21 20  1  0
 22 23  1  0
 23 24  2  0
 25 24  1  0
 25 17  1  0
 26 15  1  0
 26 27  1  0
 28 26  2  0
M  END
$$$$
