VCW.pdb
     RDKit          3D

 28 29  0  0  1  0  0  0  0  0999 V2000
    7.6803  -12.4447   19.0092 C   0  0  0  0  0  0  0  0  0  0  0  0
    7.8714  -13.4708   20.0891 C   0  0  2  0  0  0  0  0  0  0  0  0
    8.6549  -12.8311   21.2080 C   0  0  0  0  0  0  0  0  0  0  0  0
    8.5256  -14.7171   19.5637 C   0  0  2  0  0  0  0  0  0  0  0  0
    7.7780  -15.1765   18.4163 N   0  0  0  0  0  0  0  0  0  0  0  0
    8.5554  -15.7329   20.6642 C   0  0  0  0  0  0  0  0  0  0  0  0
    7.4767  -16.3245   20.9316 O   0  0  0  0  0  0  0  0  0  0  0  0
    9.6874  -16.0596   21.4014 N   0  0  0  0  0  0  0  0  0  0  0  0
    9.8017  -17.0876   22.3912 C   0  0  1  0  0  0  0  0  0  0  0  0
   10.5892  -18.2959   21.9960 C   0  0  0  0  0  0  0  0  0  0  0  0
   10.8306  -18.3971   20.1998 S   0  0  0  0  0  0  0  0  0  0  0  0
   10.1129  -16.5424   23.7218 C   0  0  0  0  0  0  0  0  0  0  0  0
   10.9340  -15.5571   23.8409 O   0  0  0  0  0  0  0  0  0  0  0  0
    9.5862  -16.9938   24.9710 N   0  0  0  0  0  0  0  0  0  0  0  0
   10.1219  -16.4948   26.2180 C   0  0  1  0  0  0  0  0  0  0  0  0
    9.1963  -15.8357   27.1496 C   0  0  0  0  0  0  0  0  0  0  0  0
    8.0131  -15.1942   26.6173 C   0  0  0  0  0  0  0  0  0  0  0  0
    6.9148  -15.9096   26.1105 C   0  0  0  0  0  0  0  0  0  0  0  0
    6.0136  -15.0502   25.6567 N   0  0  0  0  0  0  0  0  0  0  0  0
    6.4467  -13.7847   25.8332 C   0  0  0  0  0  0  0  0  0  0  0  0
    5.8809  -12.5615   25.5429 C   0  0  0  0  0  0  0  0  0  0  0  0
    6.5285  -11.3821   25.8377 C   0  0  0  0  0  0  0  0  0  0  0  0
    7.7522  -11.4649   26.4291 C   0  0  0  0  0  0  0  0  0  0  0  0
    8.3288  -12.6877   26.7218 C   0  0  0  0  0  0  0  0  0  0  0  0
    7.7036  -13.8884   26.4373 C   0  0  0  0  0  0  0  0  0  0  0  0
   10.8646  -17.6290   26.9186 C   0  0  0  0  0  0  0  0  0  0  0  0
   11.6390  -17.3493   28.0291 O   0  0  0  0  0  0  0  0  0  0  0  0
   10.8046  -18.8108   26.5317 O   0  0  0  0  0  0  0  0  0  0  0  0
  2  3  1  1
  2  1  1  0
  4  2  1  0
  4  5  1  6
  6  7  2  0
  6  4  1  0
  8  6  1  0
  9 12  1  0
  9  8  1  0
  9 10  1  6
 11 10  1  0
 12 13  2  0
 14 15  1  0
 14 12  1  0
 15 16  1  1
 17 16  1  0
 18 17  2  0
 19 20  1  0
 19 18  1  0
 20 25  2  0
 21 22  2  0
 21 20  1  0
 22 23  1  0
 23 24  2  0
 25 24  1  0
 25 17  1  0
 26 15  1  0
 26 27  1  0
 28 26  2  0
M  END
$$$$
