VCW.pdb
     RDKit          3D

 28 29  0  0  1  0  0  0  0  0999 V2000
    7.3142  -12.3924   19.0595 C   0  0  0  0  0  0  0  0  0  0  0  0
    7.5878  -13.4465   20.0937 C   0  0  2  0  0  0  0  0  0  0  0  0
    8.3359  -12.8003   21.2330 C   0  0  0  0  0  0  0  0  0  0  0  0
    8.3222  -14.6207   19.5114 C   0  0  2  0  0  0  0  0  0  0  0  0
    7.5890  -15.0927   18.3599 N   0  0  0  0  0  0  0  0  0  0  0  0
    8.4479  -15.6707   20.5725 C   0  0  0  0  0  0  0  0  0  0  0  0
    7.4150  -16.3344   20.8514 O   0  0  0  0  0  0  0  0  0  0  0  0
    9.6208  -15.9549   21.2616 N   0  0  0  0  0  0  0  0  0  0  0  0
    9.8168  -16.9835   22.2378 C   0  0  1  0  0  0  0  0  0  0  0  0
   10.6547  -18.1456   21.8091 C   0  0  0  0  0  0  0  0  0  0  0  0
   10.7436  -19.4324   23.0864 S   0  0  0  0  0  0  0  0  0  0  0  0
   10.1368  -16.4336   23.5644 C   0  0  0  0  0  0  0  0  0  0  0  0
   11.0017  -15.4862   23.6800 O   0  0  0  0  0  0  0  0  0  0  0  0
    9.5741  -16.8412   24.8130 N   0  0  0  0  0  0  0  0  0  0  0  0
   10.2136  -16.4827   26.0594 C   0  0  1  0  0  0  0  0  0  0  0  0
    9.5929  -15.4279   26.8726 C   0  0  0  0  0  0  0  0  0  0  0  0
    8.2797  -14.9455   26.5014 C   0  0  0  0  0  0  0  0  0  0  0  0
    7.2343  -15.7959   26.1031 C   0  0  0  0  0  0  0  0  0  0  0  0
    6.1789  -15.0604   25.7839 N   0  0  0  0  0  0  0  0  0  0  0  0
    6.4571  -13.7506   25.9487 C   0  0  0  0  0  0  0  0  0  0  0  0
    5.7026  -12.6116   25.7644 C   0  0  0  0  0  0  0  0  0  0  0  0
    6.2175  -11.3596   26.0191 C   0  0  0  0  0  0  0  0  0  0  0  0
    7.5030  -11.2840   26.4618 C   0  0  0  0  0  0  0  0  0  0  0  0
    8.2682  -12.4213   26.6473 C   0  0  0  0  0  0  0  0  0  0  0  0
    7.7795  -13.6914   26.3996 C   0  0  0  0  0  0  0  0  0  0  0  0
   10.4098  -17.7484   26.8890 C   0  0  0  0  0  0  0  0  0  0  0  0
   11.2090  -17.7044   28.0161 O   0  0  0  0  0  0  0  0  0  0  0  0
    9.8760  -18.8339   26.5942 O   0  0  0  0  0  0  0  0  0  0  0  0
  2  3  1  1
  2  1  1  0
  4  2  1  0
  4  5  1  6
  6  7  2  0
  6  4  1  0
  8  6  1  0
  9 12  1  0
  9  8  1  0
  9 10  1  6
 11 10  1  0
 12 13  2  0
 14 15  1  0
 14 12  1  0
 15 16  1  1
 17 16  1  0
 18 17  2  0
 19 20  1  0
 19 18  1  0
 20 25  2  0
 21 22  2  0
 21 20  1  0
 22 23  1  0
 23 24  2  0
 25 24  1  0
 25 17  1  0
 26 15  1  0
 26 27  1  0
 28 26  2  0
M  END
$$$$
