VCW.pdb
     RDKit          3D

 28 29  0  0  1  0  0  0  0  0999 V2000
    7.5262  -12.3436   18.8198 C   0  0  0  0  0  0  0  0  0  0  0  0
    7.7421  -13.4306   19.8334 C   0  0  2  0  0  0  0  0  0  0  0  0
    8.4814  -12.8359   21.0060 C   0  0  0  0  0  0  0  0  0  0  0  0
    8.4545  -14.6125   19.2395 C   0  0  2  0  0  0  0  0  0  0  0  0
    7.7323  -15.0371   18.0628 N   0  0  0  0  0  0  0  0  0  0  0  0
    8.5276  -15.6891   20.2785 C   0  0  0  0  0  0  0  0  0  0  0  0
    7.4656  -16.3142   20.5362 O   0  0  0  0  0  0  0  0  0  0  0  0
    9.6822  -16.0371   20.9694 N   0  0  0  0  0  0  0  0  0  0  0  0
    9.8055  -17.0309   21.9924 C   0  0  1  0  0  0  0  0  0  0  0  0
   10.6024  -18.2453   21.6367 C   0  0  0  0  0  0  0  0  0  0  0  0
   10.5303  -19.5141   22.9329 S   0  0  0  0  0  0  0  0  0  0  0  0
   10.1131  -16.4396   23.3040 C   0  0  0  0  0  0  0  0  0  0  0  0
   10.9905  -15.5015   23.4005 O   0  0  0  0  0  0  0  0  0  0  0  0
    9.5248  -16.7948   24.5569 N   0  0  0  0  0  0  0  0  0  0  0  0
   10.1794  -16.4520   25.7998 C   0  0  1  0  0  0  0  0  0  0  0  0
    9.6453  -15.3198   26.5692 C   0  0  0  0  0  0  0  0  0  0  0  0
    8.2831  -14.8949   26.3267 C   0  0  0  0  0  0  0  0  0  0  0  0
    7.2366  -15.7921   26.0536 C   0  0  0  0  0  0  0  0  0  0  0  0
    6.1260  -15.1036   25.8317 N   0  0  0  0  0  0  0  0  0  0  0  0
    6.3680  -13.7810   25.9434 C   0  0  0  0  0  0  0  0  0  0  0  0
    5.5545  -12.6752   25.8174 C   0  0  0  0  0  0  0  0  0  0  0  0
    6.0431  -11.3997   25.9950 C   0  0  0  0  0  0  0  0  0  0  0  0
    7.3632  -11.2666   26.3015 C   0  0  0  0  0  0  0  0  0  0  0  0
    8.1875  -12.3702   26.4275 C   0  0  0  0  0  0  0  0  0  0  0  0
    7.7262  -13.6628   26.2544 C   0  0  0  0  0  0  0  0  0  0  0  0
   10.2536  -17.7013   26.6730 C   0  0  0  0  0  0  0  0  0  0  0  0
   11.0597  -17.6979   27.7960 O   0  0  0  0  0  0  0  0  0  0  0  0
    9.6128  -18.7378   26.4179 O   0  0  0  0  0  0  0  0  0  0  0  0
  2  3  1  1
  2  1  1  0
  4  2  1  0
  4  5  1  6
  6  7  2  0
  6  4  1  0
  8  6  1  0
  9 12  1  0
  9  8  1  0
  9 10  1  6
 11 10  1  0
 12 13  2  0
 14 15  1  0
 14 12  1  0
 15 16  1  1
 17 16  1  0
 18 17  2  0
 19 20  1  0
 19 18  1  0
 20 25  2  0
 21 22  2  0
 21 20  1  0
 22 23  1  0
 23 24  2  0
 25 24  1  0
 25 17  1  0
 26 15  1  0
 26 27  1  0
 28 26  2  0
M  END
$$$$
