VCW.pdb
     RDKit          3D

 28 29  0  0  1  0  0  0  0  0999 V2000
    6.9752  -13.5547   21.1041 C   0  0  0  0  0  0  0  0  0  0  0  0
    8.2234  -13.4514   20.2752 C   0  0  2  0  0  0  0  0  0  0  0  0
    8.0330  -12.3329   19.2813 C   0  0  0  0  0  0  0  0  0  0  0  0
    8.5647  -14.7582   19.6172 C   0  0  2  0  0  0  0  0  0  0  0  0
    7.5146  -15.0863   18.6812 N   0  0  0  0  0  0  0  0  0  0  0  0
    8.7167  -15.7976   20.6852 C   0  0  0  0  0  0  0  0  0  0  0  0
    7.6953  -16.4705   20.9839 O   0  0  0  0  0  0  0  0  0  0  0  0
    9.9020  -16.0626   21.3607 N   0  0  0  0  0  0  0  0  0  0  0  0
   10.1200  -17.0733   22.3508 C   0  0  1  0  0  0  0  0  0  0  0  0
   11.0624  -18.1713   21.9730 C   0  0  0  0  0  0  0  0  0  0  0  0
   11.0083  -19.5533   23.1487 S   0  0  0  0  0  0  0  0  0  0  0  0
   10.3272  -16.5004   23.6900 C   0  0  0  0  0  0  0  0  0  0  0  0
   11.1144  -15.4931   23.8475 O   0  0  0  0  0  0  0  0  0  0  0  0
    9.7283  -16.9461   24.9084 N   0  0  0  0  0  0  0  0  0  0  0  0
   10.1177  -16.3656   26.1742 C   0  0  1  0  0  0  0  0  0  0  0  0
    9.0544  -16.0071   27.1228 C   0  0  0  0  0  0  0  0  0  0  0  0
    7.8590  -15.3659   26.6180 C   0  0  0  0  0  0  0  0  0  0  0  0
    6.7833  -16.0782   26.0610 C   0  0  0  0  0  0  0  0  0  0  0  0
    5.8636  -15.2170   25.6496 N   0  0  0  0  0  0  0  0  0  0  0  0
    6.2627  -13.9533   25.9028 C   0  0  0  0  0  0  0  0  0  0  0  0
    5.6678  -12.7301   25.6785 C   0  0  0  0  0  0  0  0  0  0  0  0
    6.2826  -11.5538   26.0467 C   0  0  0  0  0  0  0  0  0  0  0  0
    7.5037  -11.6397   26.6432 C   0  0  0  0  0  0  0  0  0  0  0  0
    8.1093  -12.8625   26.8699 C   0  0  0  0  0  0  0  0  0  0  0  0
    7.5173  -14.0601   26.5110 C   0  0  0  0  0  0  0  0  0  0  0  0
   11.1371  -17.2855   26.8400 C   0  0  0  0  0  0  0  0  0  0  0  0
   11.3956  -18.5258   26.2868 O   0  0  0  0  0  0  0  0  0  0  0  0
   11.7559  -16.9667   27.8722 O   0  0  0  0  0  0  0  0  0  0  0  0
  2  3  1  6
  2  1  1  0
  4  2  1  0
  4  5  1  6
  6  7  2  0
  6  4  1  0
  8  6  1  0
  9 12  1  0
  9  8  1  0
  9 10  1  6
 11 10  1  0
 12 13  2  0
 14 15  1  0
 14 12  1  0
 15 16  1  1
 17 16  1  0
 18 17  2  0
 19 20  1  0
 19 18  1  0
 20 25  2  0
 21 22  2  0
 21 20  1  0
 22 23  1  0
 23 24  2  0
 25 24  1  0
 25 17  1  0
 26 15  1  0
 26 27  1  0
 28 26  2  0
M  END
$$$$
