VCW.pdb
     RDKit          3D

 28 29  0  0  1  0  0  0  0  0999 V2000
    7.0489  -13.5098   20.4212 C   0  0  0  0  0  0  0  0  0  0  0  0
    8.4917  -13.3431   20.0388 C   0  0  2  0  0  0  0  0  0  0  0  0
    8.6084  -12.1062   19.1834 C   0  0  0  0  0  0  0  0  0  0  0  0
    9.0332  -14.5692   19.3599 C   0  0  2  0  0  0  0  0  0  0  0  0
    8.2913  -14.7804   18.1387 N   0  0  0  0  0  0  0  0  0  0  0  0
    8.9088  -15.7245   20.3053 C   0  0  0  0  0  0  0  0  0  0  0  0
    8.2723  -16.7331   19.9020 O   0  0  0  0  0  0  0  0  0  0  0  0
    9.4459  -15.7524   21.5869 N   0  0  0  0  0  0  0  0  0  0  0  0
    9.6190  -16.9024   22.4218 C   0  0  1  0  0  0  0  0  0  0  0  0
   10.2661  -18.0885   21.7810 C   0  0  0  0  0  0  0  0  0  0  0  0
   10.2703  -19.5382   22.8734 S   0  0  0  0  0  0  0  0  0  0  0  0
   10.1360  -16.5471   23.7525 C   0  0  0  0  0  0  0  0  0  0  0  0
   11.1728  -15.7907   23.8626 O   0  0  0  0  0  0  0  0  0  0  0  0
    9.5998  -16.9584   25.0116 N   0  0  0  0  0  0  0  0  0  0  0  0
   10.1626  -16.4621   26.2476 C   0  0  1  0  0  0  0  0  0  0  0  0
    9.2438  -15.8889   27.2407 C   0  0  0  0  0  0  0  0  0  0  0  0
    8.0413  -15.2301   26.7770 C   0  0  0  0  0  0  0  0  0  0  0  0
    6.8788  -15.9272   26.4065 C   0  0  0  0  0  0  0  0  0  0  0  0
    5.9715  -15.0580   25.9846 N   0  0  0  0  0  0  0  0  0  0  0  0
    6.4619  -13.8030   26.0531 C   0  0  0  0  0  0  0  0  0  0  0  0
    5.9154  -12.5754   25.7451 C   0  0  0  0  0  0  0  0  0  0  0  0
    6.6267  -11.4085   25.9176 C   0  0  0  0  0  0  0  0  0  0  0  0
    7.8940  -11.5083   26.4057 C   0  0  0  0  0  0  0  0  0  0  0  0
    8.4513  -12.7359   26.7152 C   0  0  0  0  0  0  0  0  0  0  0  0
    7.7625  -13.9243   26.5522 C   0  0  0  0  0  0  0  0  0  0  0  0
   11.0061  -17.5666   26.8780 C   0  0  0  0  0  0  0  0  0  0  0  0
   11.0164  -18.8243   26.3043 O   0  0  0  0  0  0  0  0  0  0  0  0
   11.6954  -17.3852   27.8988 O   0  0  0  0  0  0  0  0  0  0  0  0
  2  3  1  6
  2  1  1  0
  4  2  1  0
  4  5  1  6
  6  7  2  0
  6  4  1  0
  8  6  1  0
  9 12  1  0
  9  8  1  0
  9 10  1  6
 11 10  1  0
 12 13  2  0
 14 15  1  0
 14 12  1  0
 15 16  1  1
 17 16  1  0
 18 17  2  0
 19 20  1  0
 19 18  1  0
 20 25  2  0
 21 22  2  0
 21 20  1  0
 22 23  1  0
 23 24  2  0
 25 24  1  0
 25 17  1  0
 26 15  1  0
 26 27  1  0
 28 26  2  0
M  END
$$$$
