VCW.pdb
     RDKit          3D

 28 29  0  0  1  0  0  0  0  0999 V2000
   10.8620  -21.1814   20.2314 C   0  0  0  0  0  0  0  0  0  0  0  0
   10.7464  -19.7895   20.7837 C   0  0  2  0  0  0  0  0  0  0  0  0
   10.2307  -19.8893   22.1977 C   0  0  0  0  0  0  0  0  0  0  0  0
    9.8874  -18.9152   19.9149 C   0  0  2  0  0  0  0  0  0  0  0  0
   10.3581  -19.0207   18.5534 N   0  0  0  0  0  0  0  0  0  0  0  0
    9.9662  -17.5124   20.4346 C   0  0  0  0  0  0  0  0  0  0  0  0
   11.0474  -16.8922   20.2572 O   0  0  0  0  0  0  0  0  0  0  0  0
    8.9317  -16.8595   21.0940 N   0  0  0  0  0  0  0  0  0  0  0  0
    8.9495  -15.5255   21.6132 C   0  0  1  0  0  0  0  0  0  0  0  0
    7.7239  -14.7061   21.3627 C   0  0  0  0  0  0  0  0  0  0  0  0
    6.2932  -15.3114   22.3018 S   0  0  0  0  0  0  0  0  0  0  0  0
    9.4694  -15.4740   22.9885 C   0  0  0  0  0  0  0  0  0  0  0  0
    9.9949  -14.3885   23.4409 O   0  0  0  0  0  0  0  0  0  0  0  0
    9.4623  -16.5388   23.9415 N   0  0  0  0  0  0  0  0  0  0  0  0
   10.0541  -16.3593   25.2486 C   0  0  1  0  0  0  0  0  0  0  0  0
    9.1511  -16.2179   26.3991 C   0  0  0  0  0  0  0  0  0  0  0  0
    7.9247  -15.4674   26.2327 C   0  0  0  0  0  0  0  0  0  0  0  0
    6.7061  -16.0612   25.8623 C   0  0  0  0  0  0  0  0  0  0  0  0
    5.7842  -15.1160   25.7464 N   0  0  0  0  0  0  0  0  0  0  0  0
    6.3184  -13.9083   26.0227 C   0  0  0  0  0  0  0  0  0  0  0  0
    5.7790  -12.6399   26.0510 C   0  0  0  0  0  0  0  0  0  0  0  0
    6.5417  -11.5421   26.3832 C   0  0  0  0  0  0  0  0  0  0  0  0
    7.8527  -11.7523   26.6850 C   0  0  0  0  0  0  0  0  0  0  0  0
    8.4030  -13.0211   26.6569 C   0  0  0  0  0  0  0  0  0  0  0  0
    7.6631  -14.1422   26.3266 C   0  0  0  0  0  0  0  0  0  0  0  0
   11.0528  -17.4874   25.4912 C   0  0  0  0  0  0  0  0  0  0  0  0
   11.8594  -17.4505   26.6133 O   0  0  0  0  0  0  0  0  0  0  0  0
   11.1764  -18.4531   24.7152 O   0  0  0  0  0  0  0  0  0  0  0  0
  2  3  1  1
  2  1  1  0
  4  2  1  0
  4  5  1  6
  6  7  2  0
  6  4  1  0
  8  6  1  0
  9 12  1  0
  9  8  1  0
  9 10  1  1
 11 10  1  0
 12 13  2  0
 14 15  1  0
 14 12  1  0
 15 16  1  1
 17 16  1  0
 18 17  2  0
 19 20  1  0
 19 18  1  0
 20 25  2  0
 21 22  2  0
 21 20  1  0
 22 23  1  0
 23 24  2  0
 25 24  1  0
 25 17  1  0
 26 15  1  0
 26 27  1  0
 28 26  2  0
M  END
$$$$
