CFG.pdb
     RDKit          3D

 22 22  0  0  1  0  0  0  0  0999 V2000
   21.1248  -19.3631  -11.8700 N   0  0  0  0  0  0  0  0  0  0  0  0
   21.8941  -20.5482  -11.6335 C   0  0  1  0  0  0  0  0  0  0  0  0
   21.4912  -21.5680  -12.7074 C   0  0  0  0  0  0  0  0  0  0  0  0
   19.8447  -22.2393  -12.3734 S   0  0  0  0  0  0  0  0  0  0  0  0
   23.3559  -20.3215  -11.8104 C   0  0  0  0  0  0  0  0  0  0  0  0
   23.7759  -19.4139  -12.5711 O   0  0  0  0  0  0  0  0  0  0  0  0
   24.2929  -21.1180  -11.1303 N   0  0  0  0  0  0  0  0  0  0  0  0
   25.7224  -20.9021  -11.2253 C   0  0  1  0  0  0  0  0  0  0  0  0
   26.3171  -21.5121   -9.9765 C   0  0  0  0  0  0  0  0  0  0  0  0
   26.2832  -20.6375   -8.8018 C   0  0  0  0  0  0  0  0  0  0  0  0
   26.6918  -19.3328   -8.8191 C   0  0  0  0  0  0  0  0  0  0  0  0
   26.6448  -18.5255   -7.6862 C   0  0  0  0  0  0  0  0  0  0  0  0
   26.1781  -19.0344   -6.5070 C   0  0  0  0  0  0  0  0  0  0  0  0
   25.7560  -20.3563   -6.4586 C   0  0  0  0  0  0  0  0  0  0  0  0
   25.8133  -21.1463   -7.6105 C   0  0  0  0  0  0  0  0  0  0  0  0
   26.1970  -21.5239  -12.4741 C   0  0  0  0  0  0  0  0  0  0  0  0
   25.9329  -22.7095  -12.7849 O   0  0  0  0  0  0  0  0  0  0  0  0
   26.9846  -20.7609  -13.3675 N   0  0  0  0  0  0  0  0  0  0  0  0
   27.5301  -21.3387  -14.5718 C   0  0  0  0  0  0  0  0  0  0  0  0
   26.9228  -20.8087  -15.8029 C   0  0  0  0  0  0  0  0  0  0  0  0
   25.7504  -20.3661  -15.8898 O   0  0  0  0  0  0  0  0  0  0  0  0
   27.6889  -20.7921  -16.9522 O   0  0  0  0  0  0  0  0  0  0  0  0
  2  1  1  6
  2  3  1  0
  2  5  1  0
  4  3  1  0
  5  6  2  0
  7  8  1  0
  7  5  1  0
  9 10  1  0
  8  9  1  1
 10 15  2  0
 11 12  2  0
 11 10  1  0
 12 13  1  0
 13 14  2  0
 15 14  1  0
 16  8  1  0
 16 17  2  0
 18 16  1  0
 19 18  1  0
 19 20  1  0
 20 21  2  0
 20 22  1  0
M  END
$$$$
