CFG.pdb
     RDKit          3D

 22 22  0  0  1  0  0  0  0  0999 V2000
   28.9016  -19.7779  -14.6719 N   0  0  0  0  0  0  0  0  0  0  0  0
   27.7040  -19.3340  -14.0232 C   0  0  1  0  0  0  0  0  0  0  0  0
   26.7495  -18.8496  -15.1233 C   0  0  0  0  0  0  0  0  0  0  0  0
   27.3523  -17.3162  -15.8705 S   0  0  0  0  0  0  0  0  0  0  0  0
   26.9943  -20.4401  -13.3216 C   0  0  0  0  0  0  0  0  0  0  0  0
   27.1482  -21.6327  -13.6860 O   0  0  0  0  0  0  0  0  0  0  0  0
   26.1394  -20.1712  -12.2392 N   0  0  0  0  0  0  0  0  0  0  0  0
   25.5440  -21.2159  -11.4309 C   0  0  1  0  0  0  0  0  0  0  0  0
   25.3440  -20.6144  -10.0585 C   0  0  0  0  0  0  0  0  0  0  0  0
   26.5498  -20.5926   -9.2268 C   0  0  0  0  0  0  0  0  0  0  0  0
   27.6340  -21.3960   -9.4468 C   0  0  0  0  0  0  0  0  0  0  0  0
   28.7674  -21.3501   -8.6401 C   0  0  0  0  0  0  0  0  0  0  0  0
   28.8186  -20.4800   -7.5876 C   0  0  0  0  0  0  0  0  0  0  0  0
   27.7325  -19.6512   -7.3393 C   0  0  0  0  0  0  0  0  0  0  0  0
   26.6060  -19.7167   -8.1645 C   0  0  0  0  0  0  0  0  0  0  0  0
   24.2918  -21.6403  -12.0817 C   0  0  0  0  0  0  0  0  0  0  0  0
   23.5612  -22.5486  -11.6201 O   0  0  0  0  0  0  0  0  0  0  0  0
   23.8872  -21.0034  -13.2780 N   0  0  0  0  0  0  0  0  0  0  0  0
   22.6551  -21.3579  -13.9399 C   0  0  0  0  0  0  0  0  0  0  0  0
   21.4624  -20.7658  -13.3135 C   0  0  0  0  0  0  0  0  0  0  0  0
   20.2824  -20.9533  -13.7013 O   0  0  0  0  0  0  0  0  0  0  0  0
   21.6422  -19.9426  -12.2189 O   0  0  0  0  0  0  0  0  0  0  0  0
  2  1  1  6
  2  3  1  0
  2  5  1  0
  4  3  1  0
  5  6  2  0
  7  8  1  0
  7  5  1  0
  9 10  1  0
  8  9  1  1
 10 15  2  0
 11 12  2  0
 11 10  1  0
 12 13  1  0
 13 14  2  0
 15 14  1  0
 16  8  1  0
 16 17  2  0
 18 16  1  0
 19 18  1  0
 19 20  1  0
 20 21  2  0
 20 22  1  0
M  END
$$$$
