CFG.pdb
     RDKit          3D

 22 22  0  0  1  0  0  0  0  0999 V2000
   27.2392  -21.8872  -16.6442 N   0  0  0  0  0  0  0  0  0  0  0  0
   26.4645  -20.8549  -16.0225 C   0  0  1  0  0  0  0  0  0  0  0  0
   25.2618  -20.5828  -16.9363 C   0  0  0  0  0  0  0  0  0  0  0  0
   25.7358  -19.5305  -18.3295 S   0  0  0  0  0  0  0  0  0  0  0  0
   25.8969  -21.2810  -14.7126 C   0  0  0  0  0  0  0  0  0  0  0  0
   25.6020  -22.4843  -14.5034 O   0  0  0  0  0  0  0  0  0  0  0  0
   25.6804  -20.3459  -13.6862 N   0  0  0  0  0  0  0  0  0  0  0  0
   25.2113  -20.7219  -12.3680 C   0  0  1  0  0  0  0  0  0  0  0  0
   26.0134  -19.8928  -11.3910 C   0  0  0  0  0  0  0  0  0  0  0  0
   27.3870  -20.3596  -11.1876 C   0  0  0  0  0  0  0  0  0  0  0  0
   27.8088  -20.9954  -10.0530 C   0  0  0  0  0  0  0  0  0  0  0  0
   29.1210  -21.4302   -9.8903 C   0  0  0  0  0  0  0  0  0  0  0  0
   30.0343  -21.2246  -10.8858 C   0  0  0  0  0  0  0  0  0  0  0  0
   29.6352  -20.5815  -12.0500 C   0  0  0  0  0  0  0  0  0  0  0  0
   28.3114  -20.1546  -12.1888 C   0  0  0  0  0  0  0  0  0  0  0  0
   23.7605  -20.4702  -12.3097 C   0  0  0  0  0  0  0  0  0  0  0  0
   23.2217  -19.4773  -12.8536 O   0  0  0  0  0  0  0  0  0  0  0  0
   22.9311  -21.3800  -11.6135 N   0  0  0  0  0  0  0  0  0  0  0  0
   21.5230  -21.1251  -11.4288 C   0  0  0  0  0  0  0  0  0  0  0  0
   20.7232  -21.3467  -12.6440 C   0  0  0  0  0  0  0  0  0  0  0  0
   19.8668  -20.5451  -13.0935 O   0  0  0  0  0  0  0  0  0  0  0  0
   20.9208  -22.5179  -13.3492 O   0  0  0  0  0  0  0  0  0  0  0  0
  2  1  1  6
  2  3  1  0
  2  5  1  0
  4  3  1  0
  5  6  2  0
  7  8  1  0
  7  5  1  0
  9 10  1  0
  8  9  1  1
 10 15  2  0
 11 12  2  0
 11 10  1  0
 12 13  1  0
 13 14  2  0
 15 14  1  0
 16  8  1  0
 16 17  2  0
 18 16  1  0
 19 18  1  0
 19 20  1  0
 20 21  2  0
 20 22  1  0
M  END
$$$$
