CFG.pdb
     RDKit          3D

 22 22  0  0  1  0  0  0  0  0999 V2000
   27.0452  -23.5350  -17.8198 N   0  0  0  0  0  0  0  0  0  0  0  0
   26.4203  -22.3377  -17.3420 C   0  0  1  0  0  0  0  0  0  0  0  0
   25.2076  -22.0721  -18.2446 C   0  0  0  0  0  0  0  0  0  0  0  0
   25.7287  -21.4140  -19.8473 S   0  0  0  0  0  0  0  0  0  0  0  0
   25.8796  -22.4904  -15.9623 C   0  0  0  0  0  0  0  0  0  0  0  0
   25.4751  -23.6073  -15.5528 O   0  0  0  0  0  0  0  0  0  0  0  0
   25.8116  -21.3889  -15.0923 N   0  0  0  0  0  0  0  0  0  0  0  0
   25.3253  -21.4924  -13.7314 C   0  0  1  0  0  0  0  0  0  0  0  0
   26.3085  -20.7211  -12.8807 C   0  0  0  0  0  0  0  0  0  0  0  0
   25.9913  -20.7101  -11.4506 C   0  0  0  0  0  0  0  0  0  0  0  0
   26.5323  -21.5850  -10.5499 C   0  0  0  0  0  0  0  0  0  0  0  0
   26.2132  -21.5477   -9.1956 C   0  0  0  0  0  0  0  0  0  0  0  0
   25.3317  -20.6131   -8.7297 C   0  0  0  0  0  0  0  0  0  0  0  0
   24.7660  -19.7109   -9.6208 C   0  0  0  0  0  0  0  0  0  0  0  0
   25.1030  -19.7694  -10.9762 C   0  0  0  0  0  0  0  0  0  0  0  0
   23.9548  -20.9521  -13.6930 C   0  0  0  0  0  0  0  0  0  0  0  0
   23.6128  -19.9239  -14.3238 O   0  0  0  0  0  0  0  0  0  0  0  0
   22.9757  -21.6127  -12.9150 N   0  0  0  0  0  0  0  0  0  0  0  0
   21.6586  -21.0534  -12.7294 C   0  0  0  0  0  0  0  0  0  0  0  0
   20.6166  -21.7361  -13.5128 C   0  0  0  0  0  0  0  0  0  0  0  0
   19.3870  -21.4910  -13.4357 O   0  0  0  0  0  0  0  0  0  0  0  0
   21.0083  -22.7194  -14.4004 O   0  0  0  0  0  0  0  0  0  0  0  0
  2  1  1  6
  2  3  1  0
  2  5  1  0
  4  3  1  0
  5  6  2  0
  7  8  1  0
  7  5  1  0
  9 10  1  0
  8  9  1  1
 10 15  2  0
 11 12  2  0
 11 10  1  0
 12 13  1  0
 13 14  2  0
 15 14  1  0
 16  8  1  0
 16 17  2  0
 18 16  1  0
 19 18  1  0
 19 20  1  0
 20 21  2  0
 20 22  1  0
M  END
$$$$
