CFG.pdb
     RDKit          3D

 22 22  0  0  1  0  0  0  0  0999 V2000
   18.8890  -13.0224  -16.3879 N   0  0  0  0  0  0  0  0  0  0  0  0
   18.6897  -11.7721  -17.0582 C   0  0  1  0  0  0  0  0  0  0  0  0
   17.1741  -11.5515  -17.1576 C   0  0  0  0  0  0  0  0  0  0  0  0
   16.3986  -12.8451  -18.1569 S   0  0  0  0  0  0  0  0  0  0  0  0
   19.2223  -10.6188  -16.2799 C   0  0  0  0  0  0  0  0  0  0  0  0
   19.1048  -10.5809  -15.0295 O   0  0  0  0  0  0  0  0  0  0  0  0
   19.8661   -9.5515  -16.9288 N   0  0  0  0  0  0  0  0  0  0  0  0
   20.3820   -8.3981  -16.2197 C   0  0  1  0  0  0  0  0  0  0  0  0
   21.8858   -8.4651  -16.3589 C   0  0  0  0  0  0  0  0  0  0  0  0
   22.5181   -9.5303  -15.5770 C   0  0  0  0  0  0  0  0  0  0  0  0
   22.5311   -9.5583  -14.2101 C   0  0  0  0  0  0  0  0  0  0  0  0
   23.1382  -10.5864  -13.4946 C   0  0  0  0  0  0  0  0  0  0  0  0
   23.7473  -11.6118  -14.1615 C   0  0  0  0  0  0  0  0  0  0  0  0
   23.7503  -11.6108  -15.5501 C   0  0  0  0  0  0  0  0  0  0  0  0
   23.1335  -10.5665  -16.2451 C   0  0  0  0  0  0  0  0  0  0  0  0
   19.7835   -7.1900  -16.8146 C   0  0  0  0  0  0  0  0  0  0  0  0
   19.7776   -6.9733  -18.0495 O   0  0  0  0  0  0  0  0  0  0  0  0
   19.1880   -6.2274  -15.9666 N   0  0  0  0  0  0  0  0  0  0  0  0
   18.6716   -4.9840  -16.4853 C   0  0  0  0  0  0  0  0  0  0  0  0
   18.1478   -4.0870  -15.4429 C   0  0  0  0  0  0  0  0  0  0  0  0
   18.0216   -4.3940  -14.2314 O   0  0  0  0  0  0  0  0  0  0  0  0
   17.7642   -2.8125  -15.8128 O   0  0  0  0  0  0  0  0  0  0  0  0
  2  1  1  1
  2  3  1  0
  2  5  1  0
  4  3  1  0
  5  6  2  0
  7  8  1  0
  7  5  1  0
  9 10  1  0
  8  9  1  6
 10 15  2  0
 11 12  2  0
 11 10  1  0
 12 13  1  0
 13 14  2  0
 15 14  1  0
 16  8  1  0
 16 17  2  0
 18 16  1  0
 19 18  1  0
 19 20  1  0
 20 21  2  0
 20 22  1  0
M  END
$$$$
