CFG.pdb
     RDKit          3D

 22 22  0  0  1  0  0  0  0  0999 V2000
   28.1995  -19.1798  -15.8978 N   0  0  0  0  0  0  0  0  0  0  0  0
   27.5454  -18.8214  -14.6747 C   0  0  1  0  0  0  0  0  0  0  0  0
   26.5329  -17.7185  -15.0125 C   0  0  0  0  0  0  0  0  0  0  0  0
   27.3734  -16.1504  -15.3405 S   0  0  0  0  0  0  0  0  0  0  0  0
   26.7523  -19.9459  -14.1037 C   0  0  0  0  0  0  0  0  0  0  0  0
   26.1943  -20.7831  -14.8563 O   0  0  0  0  0  0  0  0  0  0  0  0
   26.6131  -20.0920  -12.7130 N   0  0  0  0  0  0  0  0  0  0  0  0
   25.8167  -21.1414  -12.1099 C   0  0  1  0  0  0  0  0  0  0  0  0
   26.6634  -21.7161  -10.9972 C   0  0  0  0  0  0  0  0  0  0  0  0
   26.5630  -20.9935   -9.7268 C   0  0  0  0  0  0  0  0  0  0  0  0
   27.5394  -20.1633   -9.2506 C   0  0  0  0  0  0  0  0  0  0  0  0
   27.4138  -19.4876   -8.0402 C   0  0  0  0  0  0  0  0  0  0  0  0
   26.2845  -19.6455   -7.2870 C   0  0  0  0  0  0  0  0  0  0  0  0
   25.2755  -20.4824   -7.7447 C   0  0  0  0  0  0  0  0  0  0  0  0
   25.4261  -21.1496   -8.9639 C   0  0  0  0  0  0  0  0  0  0  0  0
   24.5510  -20.5460  -11.6462 C   0  0  0  0  0  0  0  0  0  0  0  0
   24.4122  -19.3158  -11.4481 O   0  0  0  0  0  0  0  0  0  0  0  0
   23.4390  -21.3880  -11.4114 N   0  0  0  0  0  0  0  0  0  0  0  0
   22.6909  -21.9681  -12.5002 C   0  0  0  0  0  0  0  0  0  0  0  0
   21.7859  -21.0151  -13.1622 C   0  0  0  0  0  0  0  0  0  0  0  0
   20.5648  -20.8853  -12.8975 O   0  0  0  0  0  0  0  0  0  0  0  0
   22.3068  -20.1992  -14.1477 O   0  0  0  0  0  0  0  0  0  0  0  0
  2  1  1  6
  2  3  1  0
  2  5  1  0
  4  3  1  0
  5  6  2  0
  7  8  1  0
  7  5  1  0
  9 10  1  0
  8  9  1  1
 10 15  2  0
 11 12  2  0
 11 10  1  0
 12 13  1  0
 13 14  2  0
 15 14  1  0
 16  8  1  0
 16 17  2  0
 18 16  1  0
 19 18  1  0
 19 20  1  0
 20 21  2  0
 20 22  1  0
M  END
$$$$
