CFG.pdb
     RDKit          3D

 22 22  0  0  1  0  0  0  0  0999 V2000
   15.9491  -13.6863  -13.9662 N   0  0  0  0  0  0  0  0  0  0  0  0
   16.7307  -12.4908  -13.8560 C   0  0  1  0  0  0  0  0  0  0  0  0
   17.2731  -12.1770  -15.2571 C   0  0  0  0  0  0  0  0  0  0  0  0
   18.5745  -13.3450  -15.7210 S   0  0  0  0  0  0  0  0  0  0  0  0
   15.9120  -11.3111  -13.4589 C   0  0  0  0  0  0  0  0  0  0  0  0
   14.7608  -11.1416  -13.9329 O   0  0  0  0  0  0  0  0  0  0  0  0
   16.4112  -10.3655  -12.5470 N   0  0  0  0  0  0  0  0  0  0  0  0
   15.6569   -9.1997  -12.1336 C   0  0  1  0  0  0  0  0  0  0  0  0
   15.3720   -9.3916  -10.6614 C   0  0  0  0  0  0  0  0  0  0  0  0
   14.1585  -10.1610  -10.3762 C   0  0  0  0  0  0  0  0  0  0  0  0
   14.1423  -11.5206  -10.2322 C   0  0  0  0  0  0  0  0  0  0  0  0
   12.9728  -12.2239   -9.9583 C   0  0  0  0  0  0  0  0  0  0  0  0
   11.7903  -11.5521   -9.8249 C   0  0  0  0  0  0  0  0  0  0  0  0
   11.7754  -10.1708   -9.9658 C   0  0  0  0  0  0  0  0  0  0  0  0
   12.9637   -9.4879  -10.2407 C   0  0  0  0  0  0  0  0  0  0  0  0
   16.4641   -8.0033  -12.4313 C   0  0  0  0  0  0  0  0  0  0  0  0
   17.6152   -7.8283  -11.9661 O   0  0  0  0  0  0  0  0  0  0  0  0
   15.9282   -7.0036  -13.2762 N   0  0  0  0  0  0  0  0  0  0  0  0
   16.6662   -5.8024  -13.5831 C   0  0  0  0  0  0  0  0  0  0  0  0
   17.6866   -5.9923  -14.6263 C   0  0  0  0  0  0  0  0  0  0  0  0
   18.6389   -6.8085  -14.5561 O   0  0  0  0  0  0  0  0  0  0  0  0
   17.6002   -5.2222  -15.7698 O   0  0  0  0  0  0  0  0  0  0  0  0
  2  1  1  6
  2  3  1  0
  2  5  1  0
  4  3  1  0
  5  6  2  0
  7  8  1  0
  7  5  1  0
  9 10  1  0
  8  9  1  1
 10 15  2  0
 11 12  2  0
 11 10  1  0
 12 13  1  0
 13 14  2  0
 15 14  1  0
 16  8  1  0
 16 17  2  0
 18 16  1  0
 19 18  1  0
 19 20  1  0
 20 21  2  0
 20 22  1  0
M  END
$$$$
