MHF.pdb
     RDKit          3D

 30 31  0  0  1  0  0  0  0  0999 V2000
    8.2229  -18.7025   15.8693 C   0  0  0  0  0  0  0  0  0  0  0  0
    6.7715  -19.5013   16.5571 S   0  0  0  0  0  0  0  0  0  0  0  0
    6.7955  -19.4332   18.3783 C   0  0  0  0  0  0  0  0  0  0  0  0
    7.6344  -18.3119   18.8799 C   0  0  0  0  0  0  0  0  0  0  0  0
    7.7516  -18.2770   20.3632 C   0  0  2  0  0  0  0  0  0  0  0  0
    6.4145  -18.1195   20.9488 N   0  0  0  0  0  0  0  0  0  0  0  0
    8.6579  -17.2151   20.8491 C   0  0  0  0  0  0  0  0  0  0  0  0
    9.8630  -17.2347   20.5093 O   0  0  0  0  0  0  0  0  0  0  0  0
    8.2434  -16.1543   21.6917 N   0  0  0  0  0  0  0  0  0  0  0  0
    9.1598  -15.1390   22.1958 C   0  0  1  0  0  0  0  0  0  0  0  0
    8.6928  -13.7504   21.7514 C   0  0  0  0  0  0  0  0  0  0  0  0
    8.4111  -13.6891   20.3026 C   0  0  0  0  0  0  0  0  0  0  0  0
    7.2266  -13.5187   19.6177 C   0  0  0  0  0  0  0  0  0  0  0  0
    7.4656  -13.5365   18.2837 N   0  0  0  0  0  0  0  0  0  0  0  0
    8.7842  -13.7158   18.1340 C   0  0  0  0  0  0  0  0  0  0  0  0
    9.3497  -13.8072   19.3461 N   0  0  0  0  0  0  0  0  0  0  0  0
    9.3598  -15.2563   23.6401 C   0  0  0  0  0  0  0  0  0  0  0  0
   10.2286  -14.5563   24.2230 O   0  0  0  0  0  0  0  0  0  0  0  0
    8.6169  -16.1406   24.4860 N   0  0  0  0  0  0  0  0  0  0  0  0
    8.9332  -16.2825   25.9121 C   0  0  1  0  0  0  0  0  0  0  0  0
    7.6563  -16.0014   26.6709 C   0  0  0  0  0  0  0  0  0  0  0  0
    7.3618  -14.5618   26.6505 C   0  0  0  0  0  0  0  0  0  0  0  0
    8.2192  -13.6569   27.2108 C   0  0  0  0  0  0  0  0  0  0  0  0
    7.9329  -12.3082   27.1714 C   0  0  0  0  0  0  0  0  0  0  0  0
    6.7778  -11.8752   26.5642 C   0  0  0  0  0  0  0  0  0  0  0  0
    5.8889  -12.7608   25.9880 C   0  0  0  0  0  0  0  0  0  0  0  0
    6.2102  -14.1185   26.0462 C   0  0  0  0  0  0  0  0  0  0  0  0
    9.5282  -17.5826   26.2073 C   0  0  0  0  0  0  0  0  0  0  0  0
    9.9709  -17.8581   27.5112 O   0  0  0  0  0  0  0  0  0  0  0  0
    9.6797  -18.4978   25.3673 O   0  0  0  0  0  0  0  0  0  0  0  0
  1  2  1  0
  2  3  1  0
  4  3  1  0
  5  6  1  1
  5  4  1  0
  7  5  1  0
  8  7  2  0
  9  7  1  0
 10  9  1  0
 10 11  1  1
 11 12  1  0
 12 13  2  0
 12 16  1  0
 13 14  1  0
 14 15  1  0
 16 15  2  0
 17 18  2  0
 17 10  1  0
 19 17  1  0
 20 19  1  0
 21 22  1  0
 20 21  1  1
 22 23  2  0
 22 27  1  0
 23 24  1  0
 24 25  2  0
 26 25  1  0
 27 26  2  0
 28 29  1  0
 28 20  1  0
 30 28  2  0
M  END
$$$$
