MHF.pdb
     RDKit          3D

 30 31  0  0  1  0  0  0  0  0999 V2000
    8.2351  -11.5238   20.3881 C   0  0  0  0  0  0  0  0  0  0  0  0
    7.5187  -12.0442   18.8280 S   0  0  0  0  0  0  0  0  0  0  0  0
    8.0170  -13.7498   18.4224 C   0  0  0  0  0  0  0  0  0  0  0  0
    8.1336  -14.5973   19.6393 C   0  0  0  0  0  0  0  0  0  0  0  0
    8.5800  -15.9878   19.3524 C   0  0  2  0  0  0  0  0  0  0  0  0
    7.6260  -16.6204   18.4332 N   0  0  0  0  0  0  0  0  0  0  0  0
    8.7457  -16.8074   20.5714 C   0  0  0  0  0  0  0  0  0  0  0  0
    7.7763  -17.4763   20.9969 O   0  0  0  0  0  0  0  0  0  0  0  0
    9.9550  -16.8875   21.3049 N   0  0  0  0  0  0  0  0  0  0  0  0
   10.1031  -17.7075   22.5009 C   0  0  1  0  0  0  0  0  0  0  0  0
   11.4136  -18.4960   22.4318 C   0  0  0  0  0  0  0  0  0  0  0  0
   11.5707  -19.4258   23.5688 C   0  0  0  0  0  0  0  0  0  0  0  0
   10.6324  -20.0702   24.3469 C   0  0  0  0  0  0  0  0  0  0  0  0
   11.2579  -20.8236   25.2839 N   0  0  0  0  0  0  0  0  0  0  0  0
   12.5728  -20.6536   25.0956 C   0  0  0  0  0  0  0  0  0  0  0  0
   12.7585  -19.8147   24.0664 N   0  0  0  0  0  0  0  0  0  0  0  0
    9.9576  -16.9174   23.7233 C   0  0  0  0  0  0  0  0  0  0  0  0
   10.6666  -15.8942   23.9101 O   0  0  0  0  0  0  0  0  0  0  0  0
    9.0342  -17.2232   24.7738 N   0  0  0  0  0  0  0  0  0  0  0  0
    8.9975  -16.4392   26.0139 C   0  0  1  0  0  0  0  0  0  0  0  0
    7.5761  -15.9510   26.1779 C   0  0  0  0  0  0  0  0  0  0  0  0
    7.5497  -14.4834   26.2467 C   0  0  0  0  0  0  0  0  0  0  0  0
    8.6357  -13.7764   26.6809 C   0  0  0  0  0  0  0  0  0  0  0  0
    8.5976  -12.3984   26.7270 C   0  0  0  0  0  0  0  0  0  0  0  0
    7.4592  -11.7355   26.3332 C   0  0  0  0  0  0  0  0  0  0  0  0
    6.3436  -12.4172   25.8890 C   0  0  0  0  0  0  0  0  0  0  0  0
    6.4170  -13.8112   25.8553 C   0  0  0  0  0  0  0  0  0  0  0  0
    9.5005  -17.2031   27.1518 C   0  0  0  0  0  0  0  0  0  0  0  0
   10.4484  -16.6203   28.0085 O   0  0  0  0  0  0  0  0  0  0  0  0
    9.1445  -18.3693   27.4332 O   0  0  0  0  0  0  0  0  0  0  0  0
  1  2  1  0
  2  3  1  0
  4  3  1  0
  5  6  1  6
  5  4  1  0
  7  5  1  0
  8  7  2  0
  9  7  1  0
 10  9  1  0
 10 11  1  1
 11 12  1  0
 12 13  2  0
 12 16  1  0
 13 14  1  0
 14 15  1  0
 16 15  2  0
 17 18  2  0
 17 10  1  0
 19 17  1  0
 20 19  1  0
 21 22  1  0
 20 21  1  1
 22 23  2  0
 22 27  1  0
 23 24  1  0
 24 25  2  0
 26 25  1  0
 27 26  2  0
 28 29  1  0
 28 20  1  0
 30 28  2  0
M  END
$$$$
