MHF.pdb
     RDKit          3D

 30 31  0  0  1  0  0  0  0  0999 V2000
    6.5907  -11.5257   25.6003 C   0  0  0  0  0  0  0  0  0  0  0  0
    5.7111  -12.7687   26.5485 S   0  0  0  0  0  0  0  0  0  0  0  0
    5.5382  -14.3112   25.5930 C   0  0  0  0  0  0  0  0  0  0  0  0
    6.8379  -14.7603   25.0259 C   0  0  0  0  0  0  0  0  0  0  0  0
    6.7095  -15.9070   24.0858 C   0  0  2  0  0  0  0  0  0  0  0  0
    6.1278  -17.0515   24.7981 N   0  0  0  0  0  0  0  0  0  0  0  0
    7.9913  -16.2869   23.4550 C   0  0  0  0  0  0  0  0  0  0  0  0
    8.3992  -17.4665   23.5577 O   0  0  0  0  0  0  0  0  0  0  0  0
    8.8053  -15.3849   22.7266 N   0  0  0  0  0  0  0  0  0  0  0  0
    9.9992  -15.8033   22.0024 C   0  0  1  0  0  0  0  0  0  0  0  0
   10.3191  -14.7917   20.8988 C   0  0  0  0  0  0  0  0  0  0  0  0
    9.1270  -14.4302   20.1049 C   0  0  0  0  0  0  0  0  0  0  0  0
    8.5501  -13.2050   19.8458 C   0  0  0  0  0  0  0  0  0  0  0  0
    7.4549  -13.3735   19.0654 N   0  0  0  0  0  0  0  0  0  0  0  0
    7.3465  -14.6886   18.8378 C   0  0  0  0  0  0  0  0  0  0  0  0
    8.3504  -15.3209   19.4622 N   0  0  0  0  0  0  0  0  0  0  0  0
   11.1207  -16.0604   22.9057 C   0  0  0  0  0  0  0  0  0  0  0  0
   12.2399  -16.4123   22.4496 O   0  0  0  0  0  0  0  0  0  0  0  0
   11.0500  -15.9402   24.3306 N   0  0  0  0  0  0  0  0  0  0  0  0
   12.1775  -16.3229   25.1886 C   0  0  1  0  0  0  0  0  0  0  0  0
   12.4762  -15.1323   26.0710 C   0  0  0  0  0  0  0  0  0  0  0  0
   11.3370  -14.8619   26.9591 C   0  0  0  0  0  0  0  0  0  0  0  0
   11.3230  -15.3144   28.2487 C   0  0  0  0  0  0  0  0  0  0  0  0
   10.2509  -15.0405   29.0721 C   0  0  0  0  0  0  0  0  0  0  0  0
    9.1921  -14.3079   28.5898 C   0  0  0  0  0  0  0  0  0  0  0  0
    9.1724  -13.8349   27.2927 C   0  0  0  0  0  0  0  0  0  0  0  0
   10.2739  -14.1306   26.4871 C   0  0  0  0  0  0  0  0  0  0  0  0
   11.9048  -17.5552   25.9223 C   0  0  0  0  0  0  0  0  0  0  0  0
   10.6874  -18.2245   25.7173 O   0  0  0  0  0  0  0  0  0  0  0  0
   12.6916  -18.0781   26.7430 O   0  0  0  0  0  0  0  0  0  0  0  0
  1  2  1  0
  2  3  1  0
  4  3  1  0
  5  6  1  1
  5  4  1  0
  7  5  1  0
  8  7  2  0
  9  7  1  0
 10  9  1  0
 10 11  1  6
 11 12  1  0
 12 13  2  0
 12 16  1  0
 13 14  1  0
 14 15  1  0
 16 15  2  0
 17 18  2  0
 17 10  1  0
 19 17  1  0
 20 19  1  0
 21 22  1  0
 20 21  1  1
 22 23  2  0
 22 27  1  0
 23 24  1  0
 24 25  2  0
 26 25  1  0
 27 26  2  0
 28 29  1  0
 28 20  1  0
 30 28  2  0
M  END
$$$$
