MHF.pdb
     RDKit          3D

 30 31  0  0  1  0  0  0  0  0999 V2000
    8.0233  -11.5647   21.3206 C   0  0  0  0  0  0  0  0  0  0  0  0
    7.8915  -12.2957   19.6878 S   0  0  0  0  0  0  0  0  0  0  0  0
    6.9270  -13.8412   19.7451 C   0  0  0  0  0  0  0  0  0  0  0  0
    7.2314  -14.6395   20.9628 C   0  0  0  0  0  0  0  0  0  0  0  0
    8.4258  -15.5149   20.8141 C   0  0  2  0  0  0  0  0  0  0  0  0
    8.2187  -16.4246   19.6805 N   0  0  0  0  0  0  0  0  0  0  0  0
    8.7420  -16.2786   22.0396 C   0  0  0  0  0  0  0  0  0  0  0  0
    7.8231  -16.8800   22.6414 O   0  0  0  0  0  0  0  0  0  0  0  0
   10.0440  -16.3766   22.5892 N   0  0  0  0  0  0  0  0  0  0  0  0
   10.3301  -17.0953   23.8247 C   0  0  1  0  0  0  0  0  0  0  0  0
   11.5810  -17.9597   23.6458 C   0  0  0  0  0  0  0  0  0  0  0  0
   11.3325  -19.1373   22.7892 C   0  0  0  0  0  0  0  0  0  0  0  0
   10.1580  -19.6683   22.2998 C   0  0  0  0  0  0  0  0  0  0  0  0
   10.4308  -20.7687   21.5570 N   0  0  0  0  0  0  0  0  0  0  0  0
   11.7604  -20.9257   21.5804 C   0  0  0  0  0  0  0  0  0  0  0  0
   12.2997  -19.9462   22.3201 N   0  0  0  0  0  0  0  0  0  0  0  0
   10.3997  -16.1936   24.9745 C   0  0  0  0  0  0  0  0  0  0  0  0
   11.1421  -15.1776   24.9447 O   0  0  0  0  0  0  0  0  0  0  0  0
    9.6607  -16.3773   26.1868 N   0  0  0  0  0  0  0  0  0  0  0  0
    9.9784  -15.6159   27.4006 C   0  0  1  0  0  0  0  0  0  0  0  0
    8.6602  -15.1730   27.9936 C   0  0  0  0  0  0  0  0  0  0  0  0
    8.0245  -14.1732   27.1243 C   0  0  0  0  0  0  0  0  0  0  0  0
    8.5219  -12.9041   27.0252 C   0  0  0  0  0  0  0  0  0  0  0  0
    7.9198  -11.9821   26.1946 C   0  0  0  0  0  0  0  0  0  0  0  0
    6.8133  -12.3451   25.4636 C   0  0  0  0  0  0  0  0  0  0  0  0
    6.2839  -13.6181   25.5388 C   0  0  0  0  0  0  0  0  0  0  0  0
    6.9184  -14.5257   26.3894 C   0  0  0  0  0  0  0  0  0  0  0  0
   10.8163  -16.3837   28.3169 C   0  0  0  0  0  0  0  0  0  0  0  0
   11.3878  -15.7441   29.4287 O   0  0  0  0  0  0  0  0  0  0  0  0
   11.0737  -17.6015   28.1872 O   0  0  0  0  0  0  0  0  0  0  0  0
  1  2  1  0
  2  3  1  0
  4  3  1  0
  5  6  1  6
  5  4  1  0
  7  5  1  0
  8  7  2  0
  9  7  1  0
 10  9  1  0
 10 11  1  6
 11 12  1  0
 12 13  2  0
 12 16  1  0
 13 14  1  0
 14 15  1  0
 16 15  2  0
 17 18  2  0
 17 10  1  0
 19 17  1  0
 20 19  1  0
 21 22  1  0
 20 21  1  1
 22 23  2  0
 22 27  1  0
 23 24  1  0
 24 25  2  0
 26 25  1  0
 27 26  2  0
 28 29  1  0
 28 20  1  0
 30 28  2  0
M  END
$$$$
