MHF.pdb
     RDKit          3D

 30 31  0  0  1  0  0  0  0  0999 V2000
    7.9352  -11.2666   19.9455 C   0  0  0  0  0  0  0  0  0  0  0  0
    8.4457  -12.7980   20.7280 S   0  0  0  0  0  0  0  0  0  0  0  0
    7.0039  -13.7124   21.3658 C   0  0  0  0  0  0  0  0  0  0  0  0
    6.6799  -14.8942   20.5225 C   0  0  0  0  0  0  0  0  0  0  0  0
    7.8337  -15.8124   20.3208 C   0  0  2  0  0  0  0  0  0  0  0  0
    7.5218  -16.7465   19.2320 N   0  0  0  0  0  0  0  0  0  0  0  0
    8.2088  -16.5510   21.5451 C   0  0  0  0  0  0  0  0  0  0  0  0
    7.3519  -17.2610   22.1195 O   0  0  0  0  0  0  0  0  0  0  0  0
    9.5014  -16.5073   22.1231 N   0  0  0  0  0  0  0  0  0  0  0  0
    9.8825  -17.3175   23.2733 C   0  0  1  0  0  0  0  0  0  0  0  0
   11.1210  -18.1514   22.9347 C   0  0  0  0  0  0  0  0  0  0  0  0
   10.8242  -19.2341   21.9746 C   0  0  0  0  0  0  0  0  0  0  0  0
   11.0520  -19.3279   20.6180 C   0  0  0  0  0  0  0  0  0  0  0  0
   10.5977  -20.5205   20.1616 N   0  0  0  0  0  0  0  0  0  0  0  0
   10.0912  -21.1667   21.2193 C   0  0  0  0  0  0  0  0  0  0  0  0
   10.2279  -20.3935   22.3061 N   0  0  0  0  0  0  0  0  0  0  0  0
   10.0329  -16.5081   24.4825 C   0  0  0  0  0  0  0  0  0  0  0  0
   10.9414  -15.6405   24.5608 O   0  0  0  0  0  0  0  0  0  0  0  0
    9.1954  -16.6246   25.6378 N   0  0  0  0  0  0  0  0  0  0  0  0
    9.6219  -16.1176   26.9474 C   0  0  1  0  0  0  0  0  0  0  0  0
    8.3737  -15.6487   27.6598 C   0  0  0  0  0  0  0  0  0  0  0  0
    7.8396  -14.4457   27.0064 C   0  0  0  0  0  0  0  0  0  0  0  0
    6.7111  -14.5009   26.2374 C   0  0  0  0  0  0  0  0  0  0  0  0
    6.2167  -13.3593   25.6418 C   0  0  0  0  0  0  0  0  0  0  0  0
    6.8652  -12.1607   25.8248 C   0  0  0  0  0  0  0  0  0  0  0  0
    8.0074  -12.0678   26.5950 C   0  0  0  0  0  0  0  0  0  0  0  0
    8.4800  -13.2429   27.1830 C   0  0  0  0  0  0  0  0  0  0  0  0
   10.3927  -17.1124   27.6876 C   0  0  0  0  0  0  0  0  0  0  0  0
   11.1465  -16.7108   28.8022 O   0  0  0  0  0  0  0  0  0  0  0  0
   10.4368  -18.3295   27.4000 O   0  0  0  0  0  0  0  0  0  0  0  0
  1  2  1  0
  2  3  1  0
  4  3  1  0
  5  6  1  6
  5  4  1  0
  7  5  1  0
  8  7  2  0
  9  7  1  0
 10  9  1  0
 10 11  1  6
 11 12  1  0
 12 13  2  0
 12 16  1  0
 13 14  1  0
 14 15  1  0
 16 15  2  0
 17 18  2  0
 17 10  1  0
 19 17  1  0
 20 19  1  0
 21 22  1  0
 20 21  1  1
 22 23  2  0
 22 27  1  0
 23 24  1  0
 24 25  2  0
 26 25  1  0
 27 26  2  0
 28 29  1  0
 28 20  1  0
 30 28  2  0
M  END
$$$$
