MHF.pdb
     RDKit          3D

 30 31  0  0  1  0  0  0  0  0999 V2000
    8.6547  -11.1790   20.6513 C   0  0  0  0  0  0  0  0  0  0  0  0
    8.5394  -12.3068   19.2610 S   0  0  0  0  0  0  0  0  0  0  0  0
    7.0634  -13.3663   19.4061 C   0  0  0  0  0  0  0  0  0  0  0  0
    7.1780  -14.3241   20.5384 C   0  0  0  0  0  0  0  0  0  0  0  0
    7.7483  -15.6412   20.1449 C   0  0  2  0  0  0  0  0  0  0  0  0
    6.7842  -16.3491   19.2935 N   0  0  0  0  0  0  0  0  0  0  0  0
    8.1290  -16.4782   21.3023 C   0  0  0  0  0  0  0  0  0  0  0  0
    7.2354  -17.0631   21.9562 O   0  0  0  0  0  0  0  0  0  0  0  0
    9.4668  -16.6659   21.7290 N   0  0  0  0  0  0  0  0  0  0  0  0
    9.8267  -17.5184   22.8552 C   0  0  1  0  0  0  0  0  0  0  0  0
   11.0982  -18.3052   22.5264 C   0  0  0  0  0  0  0  0  0  0  0  0
   11.5292  -19.1695   23.6441 C   0  0  0  0  0  0  0  0  0  0  0  0
   12.6105  -19.0766   24.4945 C   0  0  0  0  0  0  0  0  0  0  0  0
   12.5944  -20.1144   25.3661 N   0  0  0  0  0  0  0  0  0  0  0  0
   11.5159  -20.8491   25.0658 C   0  0  0  0  0  0  0  0  0  0  0  0
   10.8781  -20.2808   24.0325 N   0  0  0  0  0  0  0  0  0  0  0  0
    9.9115  -16.7619   24.1043 C   0  0  0  0  0  0  0  0  0  0  0  0
   10.7279  -15.8108   24.2203 O   0  0  0  0  0  0  0  0  0  0  0  0
    9.1074  -17.0236   25.2596 N   0  0  0  0  0  0  0  0  0  0  0  0
    9.3836  -16.3769   26.5478 C   0  0  1  0  0  0  0  0  0  0  0  0
    8.0496  -15.9439   27.1120 C   0  0  0  0  0  0  0  0  0  0  0  0
    7.6645  -14.6392   26.5565 C   0  0  0  0  0  0  0  0  0  0  0  0
    6.5995  -14.5184   25.7085 C   0  0  0  0  0  0  0  0  0  0  0  0
    6.2444  -13.2837   25.2065 C   0  0  0  0  0  0  0  0  0  0  0  0
    6.9680  -12.1703   25.5633 C   0  0  0  0  0  0  0  0  0  0  0  0
    8.0494  -12.2550   26.4176 C   0  0  0  0  0  0  0  0  0  0  0  0
    8.3808  -13.5202   26.9068 C   0  0  0  0  0  0  0  0  0  0  0  0
   10.1527  -17.2448   27.4347 C   0  0  0  0  0  0  0  0  0  0  0  0
   11.0212  -16.6713   28.3775 O   0  0  0  0  0  0  0  0  0  0  0  0
   10.0985  -18.4949   27.4219 O   0  0  0  0  0  0  0  0  0  0  0  0
  1  2  1  0
  2  3  1  0
  4  3  1  0
  5  6  1  1
  5  4  1  0
  7  5  1  0
  8  7  2  0
  9  7  1  0
 10  9  1  0
 10 11  1  6
 11 12  1  0
 12 13  2  0
 12 16  1  0
 13 14  1  0
 14 15  1  0
 16 15  2  0
 17 18  2  0
 17 10  1  0
 19 17  1  0
 20 19  1  0
 21 22  1  0
 20 21  1  1
 22 23  2  0
 22 27  1  0
 23 24  1  0
 24 25  2  0
 26 25  1  0
 27 26  2  0
 28 29  1  0
 28 20  1  0
 30 28  2  0
M  END
$$$$
