MHF.pdb
     RDKit          3D

 30 31  0  0  1  0  0  0  0  0999 V2000
    6.8985  -12.3883   26.3141 C   0  0  0  0  0  0  0  0  0  0  0  0
    6.8133  -11.6069   24.7017 S   0  0  0  0  0  0  0  0  0  0  0  0
    6.7960  -12.8569   23.3754 C   0  0  0  0  0  0  0  0  0  0  0  0
    7.6347  -14.0374   23.7154 C   0  0  0  0  0  0  0  0  0  0  0  0
    7.7570  -15.0177   22.6024 C   0  0  2  0  0  0  0  0  0  0  0  0
    6.4280  -15.5548   22.2847 N   0  0  0  0  0  0  0  0  0  0  0  0
    8.7022  -16.1155   22.8968 C   0  0  0  0  0  0  0  0  0  0  0  0
    8.2723  -17.1731   23.4116 O   0  0  0  0  0  0  0  0  0  0  0  0
   10.0916  -16.0479   22.6290 N   0  0  0  0  0  0  0  0  0  0  0  0
   11.0343  -17.0675   23.0725 C   0  0  1  0  0  0  0  0  0  0  0  0
   12.3288  -16.9669   22.2614 C   0  0  0  0  0  0  0  0  0  0  0  0
   12.1466  -17.3888   20.8575 C   0  0  0  0  0  0  0  0  0  0  0  0
   11.0730  -17.9746   20.2210 C   0  0  0  0  0  0  0  0  0  0  0  0
   11.3768  -18.1858   18.9172 N   0  0  0  0  0  0  0  0  0  0  0  0
   12.6259  -17.7378   18.7383 C   0  0  0  0  0  0  0  0  0  0  0  0
   13.0862  -17.2600   19.9034 N   0  0  0  0  0  0  0  0  0  0  0  0
   11.2435  -17.0217   24.5195 C   0  0  0  0  0  0  0  0  0  0  0  0
   11.7321  -15.9960   25.0616 O   0  0  0  0  0  0  0  0  0  0  0  0
   10.9249  -18.0941   25.4128 N   0  0  0  0  0  0  0  0  0  0  0  0
   11.0169  -17.9317   26.8686 C   0  0  1  0  0  0  0  0  0  0  0  0
    9.7332  -17.2693   27.3143 C   0  0  0  0  0  0  0  0  0  0  0  0
    9.9947  -15.8825   27.7237 C   0  0  0  0  0  0  0  0  0  0  0  0
   11.0029  -15.5812   28.5959 C   0  0  0  0  0  0  0  0  0  0  0  0
   11.2423  -14.2724   28.9596 C   0  0  0  0  0  0  0  0  0  0  0  0
   10.4605  -13.2678   28.4399 C   0  0  0  0  0  0  0  0  0  0  0  0
    9.4337  -13.5354   27.5564 C   0  0  0  0  0  0  0  0  0  0  0  0
    9.2195  -14.8711   27.2101 C   0  0  0  0  0  0  0  0  0  0  0  0
   11.2975  -19.1987   27.5374 C   0  0  0  0  0  0  0  0  0  0  0  0
   11.4297  -20.3681   26.7713 O   0  0  0  0  0  0  0  0  0  0  0  0
   11.4335  -19.3301   28.7744 O   0  0  0  0  0  0  0  0  0  0  0  0
  1  2  1  0
  2  3  1  0
  4  3  1  0
  5  6  1  1
  5  4  1  0
  7  5  1  0
  8  7  2  0
  9  7  1  0
 10  9  1  0
 10 11  1  6
 11 12  1  0
 12 13  2  0
 12 16  1  0
 13 14  1  0
 14 15  1  0
 16 15  2  0
 17 18  2  0
 17 10  1  0
 19 17  1  0
 20 19  1  0
 21 22  1  0
 20 21  1  1
 22 23  2  0
 22 27  1  0
 23 24  1  0
 24 25  2  0
 26 25  1  0
 27 26  2  0
 28 29  1  0
 28 20  1  0
 30 28  2  0
M  END
$$$$
