MHF.pdb
     RDKit          3D

 30 31  0  0  1  0  0  0  0  0999 V2000
    7.7939  -12.0173   26.6478 C   0  0  0  0  0  0  0  0  0  0  0  0
    6.1841  -12.5706   26.0817 S   0  0  0  0  0  0  0  0  0  0  0  0
    6.3419  -13.6071   24.5908 C   0  0  0  0  0  0  0  0  0  0  0  0
    7.4531  -14.5885   24.7133 C   0  0  0  0  0  0  0  0  0  0  0  0
    7.6006  -15.4681   23.5219 C   0  0  2  0  0  0  0  0  0  0  0  0
    6.3103  -16.1047   23.2299 N   0  0  0  0  0  0  0  0  0  0  0  0
    8.6573  -16.4894   23.6815 C   0  0  0  0  0  0  0  0  0  0  0  0
    8.3759  -17.5835   24.2218 O   0  0  0  0  0  0  0  0  0  0  0  0
    9.9957  -16.3075   23.2542 N   0  0  0  0  0  0  0  0  0  0  0  0
   11.0465  -17.2867   23.5026 C   0  0  1  0  0  0  0  0  0  0  0  0
   12.1681  -17.1179   22.4744 C   0  0  0  0  0  0  0  0  0  0  0  0
   11.6732  -17.1957   21.0848 C   0  0  0  0  0  0  0  0  0  0  0  0
   10.9562  -18.1770   20.4335 C   0  0  0  0  0  0  0  0  0  0  0  0
   10.7359  -17.8032   19.1495 N   0  0  0  0  0  0  0  0  0  0  0  0
   11.3079  -16.6020   18.9975 C   0  0  0  0  0  0  0  0  0  0  0  0
   11.8697  -16.2392   20.1595 N   0  0  0  0  0  0  0  0  0  0  0  0
   11.5106  -17.2461   24.8892 C   0  0  0  0  0  0  0  0  0  0  0  0
   12.4814  -16.5145   25.2161 O   0  0  0  0  0  0  0  0  0  0  0  0
   10.9273  -18.0028   25.9553 N   0  0  0  0  0  0  0  0  0  0  0  0
   11.4770  -17.9597   27.3155 C   0  0  1  0  0  0  0  0  0  0  0  0
   10.3511  -17.5252   28.2260 C   0  0  0  0  0  0  0  0  0  0  0  0
   10.0876  -16.0896   28.0555 C   0  0  0  0  0  0  0  0  0  0  0  0
   10.8718  -15.1498   28.6635 C   0  0  0  0  0  0  0  0  0  0  0  0
   10.6175  -13.8063   28.4822 C   0  0  0  0  0  0  0  0  0  0  0  0
    9.5685  -13.4138   27.6847 C   0  0  0  0  0  0  0  0  0  0  0  0
    8.7557  -14.3354   27.0550 C   0  0  0  0  0  0  0  0  0  0  0  0
    9.0419  -15.6867   27.2605 C   0  0  0  0  0  0  0  0  0  0  0  0
   12.0911  -19.2298   27.6911 C   0  0  0  0  0  0  0  0  0  0  0  0
   12.8137  -19.3176   28.8920 O   0  0  0  0  0  0  0  0  0  0  0  0
   12.0232  -20.2768   27.0091 O   0  0  0  0  0  0  0  0  0  0  0  0
  1  2  1  0
  2  3  1  0
  4  3  1  0
  5  6  1  1
  5  4  1  0
  7  5  1  0
  8  7  2  0
  9  7  1  0
 10  9  1  0
 10 11  1  6
 11 12  1  0
 12 13  2  0
 12 16  1  0
 13 14  1  0
 14 15  1  0
 16 15  2  0
 17 18  2  0
 17 10  1  0
 19 17  1  0
 20 19  1  0
 21 22  1  0
 20 21  1  1
 22 23  2  0
 22 27  1  0
 23 24  1  0
 24 25  2  0
 26 25  1  0
 27 26  2  0
 28 29  1  0
 28 20  1  0
 30 28  2  0
M  END
$$$$
