MHF.pdb
     RDKit          3D

 30 31  0  0  1  0  0  0  0  0999 V2000
    7.3473  -12.3440   26.5782 C   0  0  0  0  0  0  0  0  0  0  0  0
    6.3968  -11.6395   25.2298 S   0  0  0  0  0  0  0  0  0  0  0  0
    6.6216  -12.6083   23.7024 C   0  0  0  0  0  0  0  0  0  0  0  0
    7.4064  -13.8487   23.9434 C   0  0  0  0  0  0  0  0  0  0  0  0
    7.7015  -14.6138   22.7015 C   0  0  2  0  0  0  0  0  0  0  0  0
    6.4379  -14.9922   22.0567 N   0  0  0  0  0  0  0  0  0  0  0  0
    8.5387  -15.8084   22.9406 C   0  0  0  0  0  0  0  0  0  0  0  0
    7.9895  -16.8887   23.2563 O   0  0  0  0  0  0  0  0  0  0  0  0
    9.9512  -15.8111   22.8335 N   0  0  0  0  0  0  0  0  0  0  0  0
   10.7695  -16.9670   23.1787 C   0  0  1  0  0  0  0  0  0  0  0  0
   11.9450  -17.0814   22.2046 C   0  0  0  0  0  0  0  0  0  0  0  0
   12.7505  -18.2979   22.4361 C   0  0  0  0  0  0  0  0  0  0  0  0
   14.0211  -18.4579   22.9470 C   0  0  0  0  0  0  0  0  0  0  0  0
   14.3427  -19.7744   22.9631 N   0  0  0  0  0  0  0  0  0  0  0  0
   13.2864  -20.4320   22.4683 C   0  0  0  0  0  0  0  0  0  0  0  0
   12.3322  -19.5446   22.1527 N   0  0  0  0  0  0  0  0  0  0  0  0
   11.1724  -16.9474   24.5847 C   0  0  0  0  0  0  0  0  0  0  0  0
   12.0067  -16.1002   24.9979 O   0  0  0  0  0  0  0  0  0  0  0  0
   10.6753  -17.8521   25.5768 N   0  0  0  0  0  0  0  0  0  0  0  0
   11.2551  -17.9058   26.9240 C   0  0  1  0  0  0  0  0  0  0  0  0
   10.1404  -17.5770   27.8907 C   0  0  0  0  0  0  0  0  0  0  0  0
    9.8497  -16.1369   27.8573 C   0  0  0  0  0  0  0  0  0  0  0  0
    8.7934  -15.6453   27.1429 C   0  0  0  0  0  0  0  0  0  0  0  0
    8.5278  -14.2919   27.1331 C   0  0  0  0  0  0  0  0  0  0  0  0
    9.3322  -13.4353   27.8470 C   0  0  0  0  0  0  0  0  0  0  0  0
   10.4076  -13.8967   28.5798 C   0  0  0  0  0  0  0  0  0  0  0  0
   10.6473  -15.2723   28.5675 C   0  0  0  0  0  0  0  0  0  0  0  0
   11.9087  -19.1858   27.1807 C   0  0  0  0  0  0  0  0  0  0  0  0
   12.6543  -19.3551   28.3586 O   0  0  0  0  0  0  0  0  0  0  0  0
   11.8563  -20.1727   26.4131 O   0  0  0  0  0  0  0  0  0  0  0  0
  1  2  1  0
  2  3  1  0
  4  3  1  0
  5  6  1  1
  5  4  1  0
  7  5  1  0
  8  7  2  0
  9  7  1  0
 10  9  1  0
 10 11  1  6
 11 12  1  0
 12 13  2  0
 12 16  1  0
 13 14  1  0
 14 15  1  0
 16 15  2  0
 17 18  2  0
 17 10  1  0
 19 17  1  0
 20 19  1  0
 21 22  1  0
 20 21  1  1
 22 23  2  0
 22 27  1  0
 23 24  1  0
 24 25  2  0
 26 25  1  0
 27 26  2  0
 28 29  1  0
 28 20  1  0
 30 28  2  0
M  END
$$$$
