TTI.pdb
     RDKit          3D

 23 22  0  0  1  0  0  0  0  0999 V2000
   21.3980  -13.7452  -18.1914 C   0  0  0  0  0  0  0  0  0  0  0  0
   22.0186  -15.0047  -17.6728 C   0  0  1  0  0  0  0  0  0  0  0  0
   21.7727  -16.1044  -18.4898 O   0  0  0  0  0  0  0  0  0  0  0  0
   23.5292  -14.8045  -17.4879 C   0  0  2  0  0  0  0  0  0  0  0  0
   24.0788  -16.0541  -17.0754 N   0  0  0  0  0  0  0  0  0  0  0  0
   23.6862  -13.7191  -16.4950 C   0  0  0  0  0  0  0  0  0  0  0  0
   23.5497  -14.0276  -15.2843 O   0  0  0  0  0  0  0  0  0  0  0  0
   26.5511  -11.7578  -15.5389 C   0  0  0  0  0  0  0  0  0  0  0  0
   25.4584  -10.7884  -15.9356 C   0  0  1  0  0  0  0  0  0  0  0  0
   25.6323  -10.4814  -17.3031 O   0  0  0  0  0  0  0  0  0  0  0  0
   24.0653  -11.3959  -15.7340 C   0  0  2  0  0  0  0  0  0  0  0  0
   23.9740  -12.3872  -16.8211 N   0  0  0  0  0  0  0  0  0  0  0  0
   23.0471  -10.3671  -16.0170 C   0  0  0  0  0  0  0  0  0  0  0  0
   22.6170  -10.2752  -17.2165 O   0  0  0  0  0  0  0  0  0  0  0  0
   18.4865  -10.8722  -16.0930 C   0  0  0  0  0  0  0  0  0  0  0  0
   19.8135  -10.1982  -16.3898 C   0  0  0  0  0  0  0  0  0  0  0  0
   20.0794   -9.2154  -15.3020 C   0  0  2  0  0  0  0  0  0  0  0  0
   18.9704   -8.1827  -15.3074 C   0  0  0  0  0  0  0  0  0  0  0  0
   21.4360   -8.5602  -15.5045 C   0  0  2  0  0  0  0  0  0  0  0  0
   22.4948   -9.4682  -15.0795 N   0  0  0  0  0  0  0  0  0  0  0  0
   21.5736   -7.3163  -14.7315 C   0  0  0  0  0  0  0  0  0  0  0  0
   21.2693   -6.1063  -15.3081 O   0  0  0  0  0  0  0  0  0  0  0  0
   21.9667   -7.3414  -13.5475 O   0  0  0  0  0  0  0  0  0  0  0  0
  2  1  1  6
  2  3  1  0
  2  4  1  0
  4  5  1  1
  6 12  1  0
  6  4  1  0
  7  6  2  0
  9  8  1  6
  9 11  1  0
 10  9  1  0
 11 13  1  0
 11 12  1  6
 13 14  2  0
 16 15  1  0
 17 18  1  6
 17 16  1  0
 19 17  1  0
 20 13  1  0
 19 20  1  1
 21 22  1  0
 21 19  1  0
 23 21  2  0
M  END
$$$$
