TTI.pdb
     RDKit          3D

 23 22  0  0  1  0  0  0  0  0999 V2000
   26.4725  -24.5145  -16.1125 C   0  0  0  0  0  0  0  0  0  0  0  0
   27.9058  -24.6923  -16.5060 C   0  0  1  0  0  0  0  0  0  0  0  0
   28.0963  -25.7511  -17.3890 O   0  0  0  0  0  0  0  0  0  0  0  0
   28.4465  -23.3892  -17.1108 C   0  0  2  0  0  0  0  0  0  0  0  0
   29.7942  -23.6299  -17.5098 N   0  0  0  0  0  0  0  0  0  0  0  0
   28.3030  -22.3540  -16.0636 C   0  0  0  0  0  0  0  0  0  0  0  0
   29.2572  -22.2213  -15.2563 O   0  0  0  0  0  0  0  0  0  0  0  0
   27.7352  -18.6522  -16.5087 C   0  0  0  0  0  0  0  0  0  0  0  0
   26.6766  -19.2477  -15.6055 C   0  0  1  0  0  0  0  0  0  0  0  0
   25.5792  -19.6160  -16.4147 O   0  0  0  0  0  0  0  0  0  0  0  0
   27.1951  -20.4903  -14.8723 C   0  0  2  0  0  0  0  0  0  0  0  0
   27.1822  -21.5255  -15.9216 N   0  0  0  0  0  0  0  0  0  0  0  0
   26.2013  -20.9023  -13.8635 C   0  0  0  0  0  0  0  0  0  0  0  0
   25.4533  -21.8995  -14.1433 O   0  0  0  0  0  0  0  0  0  0  0  0
   26.8523  -20.3195   -8.5182 C   0  0  0  0  0  0  0  0  0  0  0  0
   26.4516  -21.0210   -9.8030 C   0  0  0  0  0  0  0  0  0  0  0  0
   25.2017  -20.3813  -10.3015 C   0  0  2  0  0  0  0  0  0  0  0  0
   24.0584  -20.7937   -9.3965 C   0  0  0  0  0  0  0  0  0  0  0  0
   24.9358  -20.7954  -11.7397 C   0  0  2  0  0  0  0  0  0  0  0  0
   25.9981  -20.2966  -12.6050 N   0  0  0  0  0  0  0  0  0  0  0  0
   23.6596  -20.2654  -12.2439 C   0  0  0  0  0  0  0  0  0  0  0  0
   22.5345  -21.0550  -12.2441 O   0  0  0  0  0  0  0  0  0  0  0  0
   23.5804  -19.0978  -12.6767 O   0  0  0  0  0  0  0  0  0  0  0  0
  2  1  1  6
  2  3  1  0
  2  4  1  0
  4  5  1  1
  6 12  1  0
  6  4  1  0
  7  6  2  0
  9  8  1  6
  9 11  1  0
 10  9  1  0
 11 13  1  0
 11 12  1  6
 13 14  2  0
 16 15  1  0
 17 18  1  1
 17 16  1  0
 19 17  1  0
 20 13  1  0
 19 20  1  6
 21 22  1  0
 21 19  1  0
 23 21  2  0
M  END
$$$$
