TTI.pdb
     RDKit          3D

 23 22  0  0  1  0  0  0  0  0999 V2000
   17.9955  -13.7653  -16.1180 C   0  0  0  0  0  0  0  0  0  0  0  0
   18.5334  -14.5997  -17.2383 C   0  0  1  0  0  0  0  0  0  0  0  0
   17.9459  -15.8597  -17.3038 O   0  0  0  0  0  0  0  0  0  0  0  0
   18.3580  -13.8592  -18.5713 C   0  0  2  0  0  0  0  0  0  0  0  0
   18.7333  -14.7583  -19.6126 N   0  0  0  0  0  0  0  0  0  0  0  0
   19.2020  -12.6470  -18.4877 C   0  0  0  0  0  0  0  0  0  0  0  0
   20.4467  -12.8181  -18.4550 O   0  0  0  0  0  0  0  0  0  0  0  0
   18.6028   -9.4123  -20.6479 C   0  0  0  0  0  0  0  0  0  0  0  0
   18.8394   -9.1082  -19.1842 C   0  0  1  0  0  0  0  0  0  0  0  0
   17.5781   -9.0125  -18.5560 O   0  0  0  0  0  0  0  0  0  0  0  0
   19.6532  -10.2146  -18.5030 C   0  0  2  0  0  0  0  0  0  0  0  0
   18.7018  -11.3390  -18.4434 N   0  0  0  0  0  0  0  0  0  0  0  0
   19.9260   -9.8208  -17.1081 C   0  0  0  0  0  0  0  0  0  0  0  0
   19.0175  -10.0520  -16.2401 O   0  0  0  0  0  0  0  0  0  0  0  0
   24.1864  -11.0526  -14.4024 C   0  0  0  0  0  0  0  0  0  0  0  0
   22.7692  -10.7282  -14.8378 C   0  0  0  0  0  0  0  0  0  0  0  0
   22.5694   -9.2597  -14.6843 C   0  0  2  0  0  0  0  0  0  0  0  0
   22.6975   -8.9097  -13.2155 C   0  0  0  0  0  0  0  0  0  0  0  0
   21.2080   -8.8542  -15.2251 C   0  0  2  0  0  0  0  0  0  0  0  0
   21.1074   -9.2102  -16.6356 N   0  0  0  0  0  0  0  0  0  0  0  0
   20.9722   -7.4070  -15.1090 C   0  0  0  0  0  0  0  0  0  0  0  0
   21.4717   -6.5465  -16.0573 O   0  0  0  0  0  0  0  0  0  0  0  0
   20.3192   -6.9419  -14.1529 O   0  0  0  0  0  0  0  0  0  0  0  0
  2  1  1  1
  2  3  1  0
  2  4  1  0
  4  5  1  6
  6 12  1  0
  6  4  1  0
  7  6  2  0
  9  8  1  6
  9 11  1  0
 10  9  1  0
 11 13  1  0
 11 12  1  1
 13 14  2  0
 16 15  1  0
 17 18  1  1
 17 16  1  0
 19 17  1  0
 20 13  1  0
 19 20  1  6
 21 22  1  0
 21 19  1  0
 23 21  2  0
M  END
$$$$
