TTI.pdb
     RDKit          3D

 23 22  0  0  1  0  0  0  0  0999 V2000
   17.1090  -13.4799  -15.8011 C   0  0  0  0  0  0  0  0  0  0  0  0
   17.3301  -14.3036  -17.0312 C   0  0  1  0  0  0  0  0  0  0  0  0
   16.6849  -15.5358  -16.9796 O   0  0  0  0  0  0  0  0  0  0  0  0
   16.8830  -13.5187  -18.2723 C   0  0  2  0  0  0  0  0  0  0  0  0
   16.9783  -14.3975  -19.3913 N   0  0  0  0  0  0  0  0  0  0  0  0
   17.7675  -12.3359  -18.3570 C   0  0  0  0  0  0  0  0  0  0  0  0
   18.8160  -12.4538  -19.0399 O   0  0  0  0  0  0  0  0  0  0  0  0
   16.8442   -9.0791  -19.7397 C   0  0  0  0  0  0  0  0  0  0  0  0
   17.4554   -8.8464  -18.3747 C   0  0  1  0  0  0  0  0  0  0  0  0
   16.4020   -8.7952  -17.4354 O   0  0  0  0  0  0  0  0  0  0  0  0
   18.4153   -9.9772  -17.9866 C   0  0  2  0  0  0  0  0  0  0  0  0
   17.5081  -11.1103  -17.7296 N   0  0  0  0  0  0  0  0  0  0  0  0
   19.0504   -9.6468  -16.6972 C   0  0  0  0  0  0  0  0  0  0  0  0
   18.4091   -9.9365  -15.6308 O   0  0  0  0  0  0  0  0  0  0  0  0
   23.8071  -10.6281  -13.5321 C   0  0  0  0  0  0  0  0  0  0  0  0
   22.6483   -9.6559  -13.6560 C   0  0  0  0  0  0  0  0  0  0  0  0
   22.0659   -9.8113  -15.0186 C   0  0  2  0  0  0  0  0  0  0  0  0
   23.1377   -9.4828  -16.0382 C   0  0  0  0  0  0  0  0  0  0  0  0
   20.8596   -8.9012  -15.1825 C   0  0  2  0  0  0  0  0  0  0  0  0
   20.3125   -9.0384  -16.5271 N   0  0  0  0  0  0  0  0  0  0  0  0
   21.2001   -7.4848  -14.9783 C   0  0  0  0  0  0  0  0  0  0  0  0
   21.2732   -6.9673  -13.7071 O   0  0  0  0  0  0  0  0  0  0  0  0
   21.4258   -6.7366  -15.9510 O   0  0  0  0  0  0  0  0  0  0  0  0
  2  1  1  1
  2  3  1  0
  2  4  1  0
  4  5  1  6
  6 12  1  0
  6  4  1  0
  7  6  2  0
  9  8  1  6
  9 11  1  0
 10  9  1  0
 11 13  1  0
 11 12  1  1
 13 14  2  0
 16 15  1  0
 17 18  1  6
 17 16  1  0
 19 17  1  0
 20 13  1  0
 19 20  1  6
 21 22  1  0
 21 19  1  0
 23 21  2  0
M  END
$$$$
