TTI.pdb
     RDKit          3D

 23 22  0  0  1  0  0  0  0  0999 V2000
   21.7019  -19.1790  -10.1638 C   0  0  0  0  0  0  0  0  0  0  0  0
   21.4144  -20.0223  -11.3667 C   0  0  1  0  0  0  0  0  0  0  0  0
   20.4246  -19.4811  -12.1819 O   0  0  0  0  0  0  0  0  0  0  0  0
   22.7042  -20.2441  -12.1689 C   0  0  2  0  0  0  0  0  0  0  0  0
   22.3554  -20.9657  -13.3484 N   0  0  0  0  0  0  0  0  0  0  0  0
   23.6326  -20.9667  -11.2719 C   0  0  0  0  0  0  0  0  0  0  0  0
   23.6148  -22.2224  -11.3222 O   0  0  0  0  0  0  0  0  0  0  0  0
   25.8851  -22.1928  -11.9771 C   0  0  0  0  0  0  0  0  0  0  0  0
   26.5400  -21.4635  -10.8237 C   0  0  1  0  0  0  0  0  0  0  0  0
   27.0522  -20.2450  -11.3214 O   0  0  0  0  0  0  0  0  0  0  0  0
   25.5364  -21.1626   -9.7044 C   0  0  2  0  0  0  0  0  0  0  0  0
   24.5171  -20.3420  -10.3830 N   0  0  0  0  0  0  0  0  0  0  0  0
   26.1799  -20.2906   -8.7040 C   0  0  0  0  0  0  0  0  0  0  0  0
   26.0622  -19.0278   -8.8574 O   0  0  0  0  0  0  0  0  0  0  0  0
   27.7638  -21.8591   -3.5502 C   0  0  0  0  0  0  0  0  0  0  0  0
   27.0640  -21.0811   -4.6495 C   0  0  0  0  0  0  0  0  0  0  0  0
   28.1108  -20.4170   -5.4760 C   0  0  2  0  0  0  0  0  0  0  0  0
   28.8503  -19.4223   -4.6041 C   0  0  0  0  0  0  0  0  0  0  0  0
   27.4773  -19.7276   -6.6734 C   0  0  2  0  0  0  0  0  0  0  0  0
   26.9175  -20.7223   -7.5808 N   0  0  0  0  0  0  0  0  0  0  0  0
   28.4494  -18.9248   -7.4313 C   0  0  0  0  0  0  0  0  0  0  0  0
   29.2231  -19.5123   -8.4036 O   0  0  0  0  0  0  0  0  0  0  0  0
   28.5852  -17.7056   -7.2033 O   0  0  0  0  0  0  0  0  0  0  0  0
  2  1  1  1
  2  3  1  0
  2  4  1  0
  4  5  1  6
  6 12  1  0
  6  4  1  0
  7  6  2  0
  9  8  1  6
  9 11  1  0
 10  9  1  0
 11 13  1  0
 11 12  1  6
 13 14  2  0
 16 15  1  0
 17 18  1  1
 17 16  1  0
 19 17  1  0
 20 13  1  0
 19 20  1  6
 21 22  1  0
 21 19  1  0
 23 21  2  0
M  END
$$$$
