TTI.pdb
     RDKit          3D

 23 22  0  0  1  0  0  0  0  0999 V2000
   20.8089  -18.4507  -12.2430 C   0  0  0  0  0  0  0  0  0  0  0  0
   21.5921  -19.4138  -11.4065 C   0  0  1  0  0  0  0  0  0  0  0  0
   20.7831  -20.2250  -10.6161 O   0  0  0  0  0  0  0  0  0  0  0  0
   22.4933  -20.2724  -12.3048 C   0  0  2  0  0  0  0  0  0  0  0  0
   21.6496  -21.1667  -13.0271 N   0  0  0  0  0  0  0  0  0  0  0  0
   23.4565  -20.9452  -11.4057 C   0  0  0  0  0  0  0  0  0  0  0  0
   23.1512  -22.0940  -10.9975 O   0  0  0  0  0  0  0  0  0  0  0  0
   26.5097  -22.3823  -12.1497 C   0  0  0  0  0  0  0  0  0  0  0  0
   26.7954  -21.3991  -11.0350 C   0  0  1  0  0  0  0  0  0  0  0  0
   27.1473  -20.1669  -11.6288 O   0  0  0  0  0  0  0  0  0  0  0  0
   25.5682  -21.1891  -10.1403 C   0  0  2  0  0  0  0  0  0  0  0  0
   24.6711  -20.3845  -10.9892 N   0  0  0  0  0  0  0  0  0  0  0  0
   25.9461  -20.3339   -8.9997 C   0  0  0  0  0  0  0  0  0  0  0  0
   25.4077  -19.1778   -8.9236 O   0  0  0  0  0  0  0  0  0  0  0  0
   28.2259  -22.0105   -4.1665 C   0  0  0  0  0  0  0  0  0  0  0  0
   27.2700  -21.2782   -5.0902 C   0  0  0  0  0  0  0  0  0  0  0  0
   28.0644  -20.3035   -5.8895 C   0  0  2  0  0  0  0  0  0  0  0  0
   28.6131  -19.2482   -4.9504 C   0  0  0  0  0  0  0  0  0  0  0  0
   27.1966  -19.6760   -6.9682 C   0  0  2  0  0  0  0  0  0  0  0  0
   26.8519  -20.6753   -7.9725 N   0  0  0  0  0  0  0  0  0  0  0  0
   27.8770  -18.5663   -7.6534 C   0  0  0  0  0  0  0  0  0  0  0  0
   28.8355  -18.8243   -8.6041 O   0  0  0  0  0  0  0  0  0  0  0  0
   27.5956  -17.3812   -7.3827 O   0  0  0  0  0  0  0  0  0  0  0  0
  2  1  1  6
  2  3  1  0
  2  4  1  0
  4  5  1  1
  6 12  1  0
  6  4  1  0
  7  6  2  0
  9  8  1  6
  9 11  1  0
 10  9  1  0
 11 13  1  0
 11 12  1  6
 13 14  2  0
 16 15  1  0
 17 18  1  1
 17 16  1  0
 19 17  1  0
 20 13  1  0
 19 20  1  6
 21 22  1  0
 21 19  1  0
 23 21  2  0
M  END
$$$$
