TTI.pdb
     RDKit          3D

 23 22  0  0  1  0  0  0  0  0999 V2000
   22.8050  -26.8620  -17.7705 C   0  0  0  0  0  0  0  0  0  0  0  0
   23.5025  -26.0096  -16.7567 C   0  0  1  0  0  0  0  0  0  0  0  0
   23.4727  -26.5577  -15.4777 O   0  0  0  0  0  0  0  0  0  0  0  0
   24.9515  -25.7569  -17.1954 C   0  0  2  0  0  0  0  0  0  0  0  0
   25.6812  -26.9623  -16.9756 N   0  0  0  0  0  0  0  0  0  0  0  0
   25.4325  -24.6068  -16.3988 C   0  0  0  0  0  0  0  0  0  0  0  0
   26.3321  -24.8346  -15.5512 O   0  0  0  0  0  0  0  0  0  0  0  0
   26.2438  -20.9881  -17.7876 C   0  0  0  0  0  0  0  0  0  0  0  0
   25.3513  -20.9780  -16.5651 C   0  0  1  0  0  0  0  0  0  0  0  0
   24.0120  -20.9365  -17.0113 O   0  0  0  0  0  0  0  0  0  0  0  0
   25.5533  -22.2340  -15.7093 C   0  0  2  0  0  0  0  0  0  0  0  0
   24.9506  -23.2980  -16.5324 N   0  0  0  0  0  0  0  0  0  0  0  0
   24.7264  -22.1245  -14.4930 C   0  0  0  0  0  0  0  0  0  0  0  0
   23.6332  -22.7847  -14.4599 O   0  0  0  0  0  0  0  0  0  0  0  0
   25.9256  -19.3121   -9.5943 C   0  0  0  0  0  0  0  0  0  0  0  0
   25.3185  -19.6346  -10.9474 C   0  0  0  0  0  0  0  0  0  0  0  0
   24.9031  -21.0654  -10.9318 C   0  0  2  0  0  0  0  0  0  0  0  0
   26.1451  -21.9236  -10.8005 C   0  0  0  0  0  0  0  0  0  0  0  0
   24.1369  -21.4049  -12.1999 C   0  0  2  0  0  0  0  0  0  0  0  0
   25.0321  -21.3553  -13.3498 N   0  0  0  0  0  0  0  0  0  0  0  0
   23.0320  -20.4665  -12.4499 C   0  0  0  0  0  0  0  0  0  0  0  0
   23.1292  -19.5361  -13.4569 O   0  0  0  0  0  0  0  0  0  0  0  0
   21.9962  -20.5012  -11.7550 O   0  0  0  0  0  0  0  0  0  0  0  0
  2  1  1  6
  2  3  1  0
  2  4  1  0
  4  5  1  1
  6 12  1  0
  6  4  1  0
  7  6  2  0
  9  8  1  6
  9 11  1  0
 10  9  1  0
 11 13  1  0
 11 12  1  6
 13 14  2  0
 16 15  1  0
 17 18  1  6
 17 16  1  0
 19 17  1  0
 20 13  1  0
 19 20  1  6
 21 22  1  0
 21 19  1  0
 23 21  2  0
M  END
$$$$
