TTI.pdb
     RDKit          3D

 23 22  0  0  1  0  0  0  0  0999 V2000
   16.9882  -12.5916  -18.1637 C   0  0  0  0  0  0  0  0  0  0  0  0
   16.3650  -12.3728  -16.8204 C   0  0  1  0  0  0  0  0  0  0  0  0
   15.6148  -13.4627  -16.3888 O   0  0  0  0  0  0  0  0  0  0  0  0
   17.4509  -12.0311  -15.7908 C   0  0  2  0  0  0  0  0  0  0  0  0
   16.9034  -12.2711  -14.4961 N   0  0  0  0  0  0  0  0  0  0  0  0
   17.8265  -10.6211  -16.0350 C   0  0  0  0  0  0  0  0  0  0  0  0
   18.3402  -10.3511  -17.1499 O   0  0  0  0  0  0  0  0  0  0  0  0
   15.5828   -7.6426  -16.0765 C   0  0  0  0  0  0  0  0  0  0  0  0
   16.7240   -7.4181  -15.1079 C   0  0  1  0  0  0  0  0  0  0  0  0
   16.2994   -7.8575  -13.8346 O   0  0  0  0  0  0  0  0  0  0  0  0
   17.9737   -8.2066  -15.5165 C   0  0  2  0  0  0  0  0  0  0  0  0
   17.6455   -9.5848  -15.1096 N   0  0  0  0  0  0  0  0  0  0  0  0
   19.1076   -7.7791  -14.6759 C   0  0  0  0  0  0  0  0  0  0  0  0
   19.2451   -8.3426  -13.5376 O   0  0  0  0  0  0  0  0  0  0  0  0
   23.3468   -9.7377  -15.0697 C   0  0  0  0  0  0  0  0  0  0  0  0
   22.2191   -8.9501  -14.4283 C   0  0  0  0  0  0  0  0  0  0  0  0
   22.3875   -7.5195  -14.8089 C   0  0  2  0  0  0  0  0  0  0  0  0
   23.7452   -7.0516  -14.3249 C   0  0  0  0  0  0  0  0  0  0  0  0
   21.2738   -6.6795  -14.2051 C   0  0  2  0  0  0  0  0  0  0  0  0
   20.0664   -6.8000  -15.0136 N   0  0  0  0  0  0  0  0  0  0  0  0
   21.6280   -5.2535  -14.1362 C   0  0  0  0  0  0  0  0  0  0  0  0
   21.0054   -4.3456  -14.9592 O   0  0  0  0  0  0  0  0  0  0  0  0
   22.4944   -4.8496  -13.3342 O   0  0  0  0  0  0  0  0  0  0  0  0
  2  1  1  6
  2  3  1  0
  2  4  1  0
  4  5  1  1
  6 12  1  0
  6  4  1  0
  7  6  2  0
  9  8  1  6
  9 11  1  0
 10  9  1  0
 11 13  1  0
 11 12  1  1
 13 14  2  0
 16 15  1  0
 17 18  1  1
 17 16  1  0
 19 17  1  0
 20 13  1  0
 19 20  1  6
 21 22  1  0
 21 19  1  0
 23 21  2  0
M  END
$$$$
