TTI.pdb
     RDKit          3D

 23 22  0  0  1  0  0  0  0  0999 V2000
   17.4610  -15.6461  -17.9489 C   0  0  0  0  0  0  0  0  0  0  0  0
   16.2935  -14.9931  -17.2773 C   0  0  1  0  0  0  0  0  0  0  0  0
   15.3078  -15.9017  -16.9030 O   0  0  0  0  0  0  0  0  0  0  0  0
   16.7730  -14.1936  -16.0579 C   0  0  2  0  0  0  0  0  0  0  0  0
   15.6169  -13.8122  -15.3151 N   0  0  0  0  0  0  0  0  0  0  0  0
   17.5523  -13.0535  -16.5886 C   0  0  0  0  0  0  0  0  0  0  0  0
   18.5795  -13.3261  -17.2596 O   0  0  0  0  0  0  0  0  0  0  0  0
   16.2641  -10.1496  -18.7540 C   0  0  0  0  0  0  0  0  0  0  0  0
   16.9924   -9.6560  -17.5223 C   0  0  1  0  0  0  0  0  0  0  0  0
   16.0330   -9.4651  -16.5036 O   0  0  0  0  0  0  0  0  0  0  0  0
   18.0366  -10.6699  -17.0406 C   0  0  2  0  0  0  0  0  0  0  0  0
   17.2170  -11.7078  -16.3895 N   0  0  0  0  0  0  0  0  0  0  0  0
   18.8525  -10.0516  -15.9789 C   0  0  0  0  0  0  0  0  0  0  0  0
   18.3853  -10.0664  -14.7899 O   0  0  0  0  0  0  0  0  0  0  0  0
   23.5837  -11.4361  -14.6880 C   0  0  0  0  0  0  0  0  0  0  0  0
   22.1557  -10.9222  -14.7044 C   0  0  0  0  0  0  0  0  0  0  0  0
   22.2044   -9.4455  -14.8966 C   0  0  2  0  0  0  0  0  0  0  0  0
   22.9570   -8.8351  -13.7315 C   0  0  0  0  0  0  0  0  0  0  0  0
   20.7965   -8.8805  -14.9927 C   0  0  2  0  0  0  0  0  0  0  0  0
   20.1137   -9.4423  -16.1522 N   0  0  0  0  0  0  0  0  0  0  0  0
   20.7936   -7.4164  -15.1353 C   0  0  0  0  0  0  0  0  0  0  0  0
   20.6492   -6.8426  -16.3758 O   0  0  0  0  0  0  0  0  0  0  0  0
   20.9218   -6.6783  -14.1375 O   0  0  0  0  0  0  0  0  0  0  0  0
  2  1  1  1
  2  3  1  0
  2  4  1  0
  4  5  1  6
  6 12  1  0
  6  4  1  0
  7  6  2  0
  9  8  1  6
  9 11  1  0
 10  9  1  0
 11 13  1  0
 11 12  1  1
 13 14  2  0
 16 15  1  0
 17 18  1  1
 17 16  1  0
 19 17  1  0
 20 13  1  0
 19 20  1  6
 21 22  1  0
 21 19  1  0
 23 21  2  0
M  END
$$$$
