RNQ.pdb
     RDKit          3D

 29 28  0  0  1  0  0  0  0  0999 V2000
    8.8708  -12.0512   18.7322 N   0  0  0  0  0  0  0  0  0  0  0  0
    7.9620  -12.8795   19.4120 C   0  0  0  0  0  0  0  0  0  0  0  0
    7.5233  -12.5272   20.5934 N   0  0  0  0  0  0  0  0  0  0  0  0
    7.5096  -14.1036   18.8342 N   0  0  0  0  0  0  0  0  0  0  0  0
    8.4976  -14.8008   17.9952 C   0  0  0  0  0  0  0  0  0  0  0  0
    9.5423  -15.3105   18.9154 C   0  0  0  0  0  0  0  0  0  0  0  0
    9.7393  -16.7912   18.9698 C   0  0  0  0  0  0  0  0  0  0  0  0
    9.1576  -17.4262   20.1617 C   0  0  2  0  0  0  0  0  0  0  0  0
    7.7731  -17.7055   20.1692 N   0  0  0  0  0  0  0  0  0  0  0  0
    9.6470  -16.8831   21.4693 C   0  0  0  0  0  0  0  0  0  0  0  0
   10.8422  -16.5547   21.5323 O   0  0  0  0  0  0  0  0  0  0  0  0
    6.8950  -13.2025   21.0954 N   0  0  0  0  0  0  0  0  0  0  0  0
    6.2096  -14.4813   25.3134 C   0  0  0  0  0  0  0  0  0  0  0  0
    7.0695  -15.3334   24.5700 O   0  0  0  0  0  0  0  0  0  0  0  0
    6.5099  -16.2809   23.9735 C   0  0  0  0  0  0  0  0  0  0  0  0
    8.5204  -15.1420   24.4835 C   0  0  1  0  0  0  0  0  0  0  0  0
    9.2569  -16.2921   23.8970 N   0  0  0  0  0  0  0  0  0  0  0  0
    8.8388  -16.7365   22.6029 C   0  0  0  0  0  0  0  0  0  0  0  0
    9.4343  -17.3684   24.8843 O   0  0  0  0  0  0  0  0  0  0  0  0
    8.6616  -18.3518   24.8622 N   0  0  0  0  0  0  0  0  0  0  0  0
   14.3951  -19.9379   24.6135 C   0  0  0  0  0  0  0  0  0  0  0  0
   13.9575  -20.6949   25.7523 O   0  0  0  0  0  0  0  0  0  0  0  0
   14.6870  -21.6649   26.0771 C   0  0  0  0  0  0  0  0  0  0  0  0
   12.7347  -20.3548   26.4889 C   0  0  0  0  0  0  0  0  0  0  0  0
   12.2128  -19.0510   25.9293 C   0  0  2  0  0  0  0  0  0  0  0  0
   10.9032  -18.6118   26.5102 N   0  0  0  0  0  0  0  0  0  0  0  0
   10.4345  -17.3757   25.8802 C   0  0  0  0  0  0  0  0  0  0  0  0
   11.1016  -18.4511   27.9753 O   0  0  0  0  0  0  0  0  0  0  0  0
   11.0313  -17.2902   28.4457 O   0  0  0  0  0  0  0  0  0  0  0  0
  2  3  2  0
  2  1  1  0
  4  2  1  0
  5  4  1  0
  6  5  1  0
  7  6  1  0
  8  7  1  0
  8 10  1  0
  8  9  1  6
 10 17  1  0
 10 11  2  0
 13 12  1  0
 14 13  2  0
 15 13  1  0
 16 15  1  6
 17 16  1  0
 18 16  1  0
 18 19  2  0
 20 21  1  0
 21 22  2  0
 23 21  1  0
 23 24  1  0
 25 24  1  6
 25 26  1  0
 26 18  1  0
 27 25  1  0
 28 27  2  0
 29 27  1  0
M  END
$$$$
