RNQ.pdb
     RDKit          3D

 29 28  0  0  1  0  0  0  0  0999 V2000
    7.9789  -11.8417   18.8252 N   0  0  0  0  0  0  0  0  0  0  0  0
    9.0656  -12.6809   18.5268 C   0  0  0  0  0  0  0  0  0  0  0  0
   10.2873  -12.2396   18.6855 N   0  0  0  0  0  0  0  0  0  0  0  0
    8.8582  -14.0100   18.0500 N   0  0  0  0  0  0  0  0  0  0  0  0
    7.4568  -14.4598   18.0442 C   0  0  0  0  0  0  0  0  0  0  0  0
    7.3604  -15.5405   19.0546 C   0  0  0  0  0  0  0  0  0  0  0  0
    7.4252  -15.1371   20.4924 C   0  0  0  0  0  0  0  0  0  0  0  0
    8.3315  -15.9640   21.3029 C   0  0  2  0  0  0  0  0  0  0  0  0
    8.8044  -17.1785   20.7587 N   0  0  0  0  0  0  0  0  0  0  0  0
    7.9549  -16.0836   22.7480 C   0  0  0  0  0  0  0  0  0  0  0  0
    7.3206  -15.1402   23.2461 O   0  0  0  0  0  0  0  0  0  0  0  0
   11.0714  -12.8861   18.4207 N   0  0  0  0  0  0  0  0  0  0  0  0
    6.8866  -20.5787   23.9543 C   0  0  0  0  0  0  0  0  0  0  0  0
    6.7096  -19.4692   24.8238 O   0  0  0  0  0  0  0  0  0  0  0  0
    5.5227  -19.1417   25.0493 C   0  0  0  0  0  0  0  0  0  0  0  0
    7.8217  -18.7360   25.4359 C   0  0  2  0  0  0  0  0  0  0  0  0
    7.9859  -17.3446   24.9399 N   0  0  0  0  0  0  0  0  0  0  0  0
    8.2825  -17.1836   23.5495 C   0  0  0  0  0  0  0  0  0  0  0  0
    8.8407  -16.5567   25.8416 O   0  0  0  0  0  0  0  0  0  0  0  0
   10.0743  -16.5200   25.6379 N   0  0  0  0  0  0  0  0  0  0  0  0
    6.4784  -14.1223   26.8030 C   0  0  0  0  0  0  0  0  0  0  0  0
    7.2469  -12.9096   26.7883 O   0  0  0  0  0  0  0  0  0  0  0  0
    6.8472  -12.0186   25.9978 C   0  0  0  0  0  0  0  0  0  0  0  0
    8.4246  -12.7249   27.6441 C   0  0  0  0  0  0  0  0  0  0  0  0
    8.5544  -13.9549   28.5133 C   0  0  2  0  0  0  0  0  0  0  0  0
    9.2590  -15.1023   27.8559 N   0  0  0  0  0  0  0  0  0  0  0  0
    8.3631  -15.8213   26.9477 C   0  0  0  0  0  0  0  0  0  0  0  0
    9.7787  -15.9800   28.9381 O   0  0  0  0  0  0  0  0  0  0  0  0
    9.3468  -17.1568   28.9874 O   0  0  0  0  0  0  0  0  0  0  0  0
  2  3  2  0
  2  1  1  0
  4  2  1  0
  5  4  1  0
  6  5  1  0
  7  6  1  0
  8  7  1  0
  8 10  1  0
  8  9  1  6
 10 17  1  0
 10 11  2  0
 13 12  1  0
 14 13  2  0
 15 13  1  0
 16 15  1  6
 17 16  1  0
 18 16  1  0
 18 19  2  0
 20 21  1  0
 21 22  2  0
 23 21  1  0
 23 24  1  0
 25 24  1  6
 25 26  1  0
 26 18  1  0
 27 25  1  0
 28 27  2  0
 29 27  1  0
M  END
$$$$
