RNQ.pdb
     RDKit          3D

 29 28  0  0  1  0  0  0  0  0999 V2000
    6.5206  -13.4275   18.3219 N   0  0  0  0  0  0  0  0  0  0  0  0
    7.7573  -13.2577   17.6769 C   0  0  0  0  0  0  0  0  0  0  0  0
    7.8045  -13.2062   16.3702 N   0  0  0  0  0  0  0  0  0  0  0  0
    8.9668  -13.1422   18.4257 N   0  0  0  0  0  0  0  0  0  0  0  0
    9.4401  -14.3912   19.0440 C   0  0  0  0  0  0  0  0  0  0  0  0
    8.2323  -15.1033   19.5255 C   0  0  0  0  0  0  0  0  0  0  0  0
    8.2553  -15.6108   20.9313 C   0  0  0  0  0  0  0  0  0  0  0  0
    9.6003  -15.9464   21.4217 C   0  0  2  0  0  0  0  0  0  0  0  0
   10.4061  -16.8075   20.6446 N   0  0  0  0  0  0  0  0  0  0  0  0
    9.6826  -16.2414   22.8882 C   0  0  0  0  0  0  0  0  0  0  0  0
    8.8660  -15.6679   23.6261 O   0  0  0  0  0  0  0  0  0  0  0  0
    8.7512  -13.1129   15.9254 N   0  0  0  0  0  0  0  0  0  0  0  0
   11.2365  -20.5871   24.0868 C   0  0  0  0  0  0  0  0  0  0  0  0
   12.0437  -19.4233   24.1981 O   0  0  0  0  0  0  0  0  0  0  0  0
   12.9688  -19.3235   23.3610 C   0  0  0  0  0  0  0  0  0  0  0  0
   11.8323  -18.3867   25.2129 C   0  0  1  0  0  0  0  0  0  0  0  0
   10.8077  -17.3730   24.8502 N   0  0  0  0  0  0  0  0  0  0  0  0
   10.6214  -17.1110   23.4560 C   0  0  0  0  0  0  0  0  0  0  0  0
   10.9326  -16.1687   25.6862 O   0  0  0  0  0  0  0  0  0  0  0  0
   10.7523  -15.0441   25.1694 N   0  0  0  0  0  0  0  0  0  0  0  0
    7.0351  -14.0579   26.1699 C   0  0  0  0  0  0  0  0  0  0  0  0
    7.7410  -13.0805   26.9496 O   0  0  0  0  0  0  0  0  0  0  0  0
    7.2553  -11.9217   26.9435 C   0  0  0  0  0  0  0  0  0  0  0  0
    8.9531  -13.4165   27.7055 C   0  0  0  0  0  0  0  0  0  0  0  0
    9.2253  -14.8894   27.5001 C   0  0  2  0  0  0  0  0  0  0  0  0
   10.5448  -15.3528   28.0380 N   0  0  0  0  0  0  0  0  0  0  0  0
   11.2493  -16.1862   27.0616 C   0  0  0  0  0  0  0  0  0  0  0  0
   10.2732  -16.0846   29.3039 O   0  0  0  0  0  0  0  0  0  0  0  0
   10.0551  -17.3175   29.2251 O   0  0  0  0  0  0  0  0  0  0  0  0
  2  3  2  0
  2  1  1  0
  4  2  1  0
  5  4  1  0
  6  5  1  0
  7  6  1  0
  8  7  1  0
  8 10  1  0
  8  9  1  6
 10 17  1  0
 10 11  2  0
 13 12  1  0
 14 13  2  0
 15 13  1  0
 16 15  1  6
 17 16  1  0
 18 16  1  0
 18 19  2  0
 20 21  1  0
 21 22  2  0
 23 21  1  0
 23 24  1  0
 25 24  1  6
 25 26  1  0
 26 18  1  0
 27 25  1  0
 28 27  2  0
 29 27  1  0
M  END
$$$$
