RNQ.pdb
     RDKit          3D

 29 28  0  0  1  0  0  0  0  0999 V2000
   10.6601  -16.1467   13.3490 N   0  0  0  0  0  0  0  0  0  0  0  0
    9.2771  -16.3901   13.3972 C   0  0  0  0  0  0  0  0  0  0  0  0
    8.4427  -15.4675   12.9908 N   0  0  0  0  0  0  0  0  0  0  0  0
    8.7658  -17.6298   13.8854 N   0  0  0  0  0  0  0  0  0  0  0  0
    7.8346  -17.5179   15.0197 C   0  0  0  0  0  0  0  0  0  0  0  0
    8.6542  -17.1491   16.1988 C   0  0  0  0  0  0  0  0  0  0  0  0
    9.4203  -18.2454   16.8662 C   0  0  0  0  0  0  0  0  0  0  0  0
    9.2709  -18.2718   18.3288 C   0  0  2  0  0  0  0  0  0  0  0  0
    8.1031  -18.8466   18.8771 N   0  0  0  0  0  0  0  0  0  0  0  0
    9.6812  -17.0124   19.0286 C   0  0  0  0  0  0  0  0  0  0  0  0
   10.8461  -16.6223   18.8521 O   0  0  0  0  0  0  0  0  0  0  0  0
    7.4211  -15.6272   13.1740 N   0  0  0  0  0  0  0  0  0  0  0  0
    7.2937  -12.0766   19.1911 C   0  0  0  0  0  0  0  0  0  0  0  0
    7.7421  -13.4175   19.3304 O   0  0  0  0  0  0  0  0  0  0  0  0
    7.8311  -14.0721   18.2673 C   0  0  0  0  0  0  0  0  0  0  0  0
    8.0888  -14.0245   20.6190 C   0  0  2  0  0  0  0  0  0  0  0  0
    9.1552  -15.0570   20.5436 N   0  0  0  0  0  0  0  0  0  0  0  0
    8.8327  -16.2720   19.8603 C   0  0  0  0  0  0  0  0  0  0  0  0
    9.8055  -15.2454   21.8498 O   0  0  0  0  0  0  0  0  0  0  0  0
    9.1148  -15.1863   22.8910 N   0  0  0  0  0  0  0  0  0  0  0  0
   10.3579  -19.9197   23.9227 C   0  0  0  0  0  0  0  0  0  0  0  0
   11.1819  -19.3510   24.9518 O   0  0  0  0  0  0  0  0  0  0  0  0
   11.3927  -20.0836   25.9506 C   0  0  0  0  0  0  0  0  0  0  0  0
   11.7418  -17.9991   24.8414 C   0  0  0  0  0  0  0  0  0  0  0  0
   11.2177  -17.3914   23.5602 C   0  0  2  0  0  0  0  0  0  0  0  0
   11.7358  -16.0148   23.2743 N   0  0  0  0  0  0  0  0  0  0  0  0
   11.1844  -15.4929   22.0221 C   0  0  0  0  0  0  0  0  0  0  0  0
   13.2200  -16.1002   23.2381 O   0  0  0  0  0  0  0  0  0  0  0  0
   13.8099  -16.3918   24.3062 O   0  0  0  0  0  0  0  0  0  0  0  0
  2  3  2  0
  2  1  1  0
  4  2  1  0
  5  4  1  0
  6  5  1  0
  7  6  1  0
  8  7  1  0
  8 10  1  0
  8  9  1  6
 10 17  1  0
 10 11  2  0
 13 12  1  0
 14 13  2  0
 15 13  1  0
 16 15  1  6
 17 16  1  0
 18 16  1  0
 18 19  2  0
 20 21  1  0
 21 22  2  0
 23 21  1  0
 23 24  1  0
 25 24  1  1
 25 26  1  0
 26 18  1  0
 27 25  1  0
 28 27  2  0
 29 27  1  0
M  END
$$$$
