RNQ.pdb
     RDKit          3D

 29 28  0  0  1  0  0  0  0  0999 V2000
    8.1509  -12.9641   17.0514 N   0  0  0  0  0  0  0  0  0  0  0  0
    8.9687  -13.7164   17.9113 C   0  0  0  0  0  0  0  0  0  0  0  0
    9.8039  -14.5905   17.4104 N   0  0  0  0  0  0  0  0  0  0  0  0
    8.9018  -13.5439   19.3264 N   0  0  0  0  0  0  0  0  0  0  0  0
    7.6576  -12.9343   19.8231 C   0  0  0  0  0  0  0  0  0  0  0  0
    6.7040  -14.0484   20.0408 C   0  0  0  0  0  0  0  0  0  0  0  0
    6.5868  -14.5833   21.4316 C   0  0  0  0  0  0  0  0  0  0  0  0
    7.5866  -15.6099   21.7615 C   0  0  2  0  0  0  0  0  0  0  0  0
    7.9977  -16.5017   20.7464 N   0  0  0  0  0  0  0  0  0  0  0  0
    7.3842  -16.2875   23.0822 C   0  0  0  0  0  0  0  0  0  0  0  0
    6.8531  -15.6200   23.9837 O   0  0  0  0  0  0  0  0  0  0  0  0
   10.4017  -15.1280   18.0861 N   0  0  0  0  0  0  0  0  0  0  0  0
    5.8473  -20.2790   26.6269 C   0  0  0  0  0  0  0  0  0  0  0  0
    7.0045  -20.3795   25.8088 O   0  0  0  0  0  0  0  0  0  0  0  0
    7.9311  -21.0861   26.2657 C   0  0  0  0  0  0  0  0  0  0  0  0
    7.1360  -19.7148   24.5088 C   0  0  1  0  0  0  0  0  0  0  0  0
    7.6132  -18.3092   24.5841 N   0  0  0  0  0  0  0  0  0  0  0  0
    7.7631  -17.6092   23.3452 C   0  0  0  0  0  0  0  0  0  0  0  0
    8.7599  -18.1858   25.4975 O   0  0  0  0  0  0  0  0  0  0  0  0
    9.8932  -18.5444   25.1083 N   0  0  0  0  0  0  0  0  0  0  0  0
   10.6462  -12.8445   28.0187 C   0  0  0  0  0  0  0  0  0  0  0  0
    9.5816  -13.7242   28.4112 O   0  0  0  0  0  0  0  0  0  0  0  0
    8.9733  -13.4101   29.4648 C   0  0  0  0  0  0  0  0  0  0  0  0
    9.2280  -14.9145   27.6292 C   0  0  0  0  0  0  0  0  0  0  0  0
    9.6499  -16.1269   28.4277 C   0  0  2  0  0  0  0  0  0  0  0  0
    9.8653  -17.3612   27.6060 N   0  0  0  0  0  0  0  0  0  0  0  0
    8.6764  -17.6816   26.8133 C   0  0  0  0  0  0  0  0  0  0  0  0
   10.2237  -18.4588   28.5433 O   0  0  0  0  0  0  0  0  0  0  0  0
    9.4317  -19.4277   28.6310 O   0  0  0  0  0  0  0  0  0  0  0  0
  2  3  2  0
  2  1  1  0
  4  2  1  0
  5  4  1  0
  6  5  1  0
  7  6  1  0
  8  7  1  0
  8 10  1  0
  8  9  1  6
 10 17  1  0
 10 11  2  0
 13 12  1  0
 14 13  2  0
 15 13  1  0
 16 15  1  1
 17 16  1  0
 18 16  1  0
 18 19  2  0
 20 21  1  0
 21 22  2  0
 23 21  1  0
 23 24  1  0
 25 24  1  6
 25 26  1  0
 26 18  1  0
 27 25  1  0
 28 27  2  0
 29 27  1  0
M  END
$$$$
