RNQ.pdb
     RDKit          3D

 29 28  0  0  1  0  0  0  0  0999 V2000
    7.1458  -12.1605   19.6361 N   0  0  0  0  0  0  0  0  0  0  0  0
    7.9297  -12.8250   18.6778 C   0  0  0  0  0  0  0  0  0  0  0  0
    9.2342  -12.7397   18.7361 N   0  0  0  0  0  0  0  0  0  0  0  0
    7.3246  -13.5922   17.6375 N   0  0  0  0  0  0  0  0  0  0  0  0
    8.1242  -14.7296   17.1545 C   0  0  0  0  0  0  0  0  0  0  0  0
    7.5890  -15.9347   17.8322 C   0  0  0  0  0  0  0  0  0  0  0  0
    8.1835  -16.2927   19.1561 C   0  0  0  0  0  0  0  0  0  0  0  0
    9.3914  -17.1258   19.0612 C   0  0  2  0  0  0  0  0  0  0  0  0
    9.4082  -18.1856   18.1278 N   0  0  0  0  0  0  0  0  0  0  0  0
   10.0052  -17.5005   20.3754 C   0  0  0  0  0  0  0  0  0  0  0  0
   10.1760  -16.5881   21.1994 O   0  0  0  0  0  0  0  0  0  0  0  0
    9.7836  -13.2407   17.9945 N   0  0  0  0  0  0  0  0  0  0  0  0
    9.4053  -22.2976   21.1398 C   0  0  0  0  0  0  0  0  0  0  0  0
    9.6618  -21.2508   22.0653 O   0  0  0  0  0  0  0  0  0  0  0  0
    8.6734  -20.8557   22.7239 C   0  0  0  0  0  0  0  0  0  0  0  0
   10.9854  -20.6523   22.2630 C   0  0  2  0  0  0  0  0  0  0  0  0
   11.0673  -19.2123   21.9042 N   0  0  0  0  0  0  0  0  0  0  0  0
   10.3933  -18.8032   20.7103 C   0  0  0  0  0  0  0  0  0  0  0  0
   12.4449  -18.7111   22.0298 O   0  0  0  0  0  0  0  0  0  0  0  0
   13.1712  -19.1435   22.9517 N   0  0  0  0  0  0  0  0  0  0  0  0
   15.0517  -13.7597   19.2794 C   0  0  0  0  0  0  0  0  0  0  0  0
   16.2233  -14.4155   19.7881 O   0  0  0  0  0  0  0  0  0  0  0  0
   17.2923  -13.7593   19.7149 C   0  0  0  0  0  0  0  0  0  0  0  0
   16.1726  -15.7671   20.3573 C   0  0  0  0  0  0  0  0  0  0  0  0
   14.7304  -16.2197   20.3303 C   0  0  2  0  0  0  0  0  0  0  0  0
   14.3986  -17.2797   21.3361 N   0  0  0  0  0  0  0  0  0  0  0  0
   13.0237  -17.7548   21.1680 C   0  0  0  0  0  0  0  0  0  0  0  0
   14.6265  -16.6957   22.6847 O   0  0  0  0  0  0  0  0  0  0  0  0
   15.2322  -17.4013   23.5268 O   0  0  0  0  0  0  0  0  0  0  0  0
  2  3  2  0
  2  1  1  0
  4  2  1  0
  5  4  1  0
  6  5  1  0
  7  6  1  0
  8  7  1  0
  8 10  1  0
  8  9  1  1
 10 17  1  0
 10 11  2  0
 13 12  1  0
 14 13  2  0
 15 13  1  0
 16 15  1  1
 17 16  1  0
 18 16  1  0
 18 19  2  0
 20 21  1  0
 21 22  2  0
 23 21  1  0
 23 24  1  0
 25 24  1  6
 25 26  1  0
 26 18  1  0
 27 25  1  0
 28 27  2  0
 29 27  1  0
M  END
$$$$
