RNQ.pdb
     RDKit          3D

 29 28  0  0  1  0  0  0  0  0999 V2000
    7.8936  -13.4323   17.1531 N   0  0  0  0  0  0  0  0  0  0  0  0
    8.2366  -12.8703   18.3944 C   0  0  0  0  0  0  0  0  0  0  0  0
    9.0390  -11.8375   18.4381 N   0  0  0  0  0  0  0  0  0  0  0  0
    7.7244  -13.4103   19.6121 N   0  0  0  0  0  0  0  0  0  0  0  0
    6.9449  -14.6502   19.4663 C   0  0  0  0  0  0  0  0  0  0  0  0
    6.4500  -14.9948   20.8207 C   0  0  0  0  0  0  0  0  0  0  0  0
    7.4641  -15.0809   21.9154 C   0  0  0  0  0  0  0  0  0  0  0  0
    8.3169  -16.2767   21.8450 C   0  0  2  0  0  0  0  0  0  0  0  0
    7.7005  -17.5472   21.8723 N   0  0  0  0  0  0  0  0  0  0  0  0
    9.5593  -16.2167   22.6800 C   0  0  0  0  0  0  0  0  0  0  0  0
   10.1505  -15.1268   22.7348 O   0  0  0  0  0  0  0  0  0  0  0  0
    9.3181  -11.4839   19.3867 N   0  0  0  0  0  0  0  0  0  0  0  0
   12.6091  -17.3260   27.3287 C   0  0  0  0  0  0  0  0  0  0  0  0
   12.4758  -18.1581   26.1849 O   0  0  0  0  0  0  0  0  0  0  0  0
   13.4774  -18.8528   25.9008 C   0  0  0  0  0  0  0  0  0  0  0  0
   11.2584  -18.2248   25.3709 C   0  0  1  0  0  0  0  0  0  0  0  0
   11.2602  -17.3228   24.1896 N   0  0  0  0  0  0  0  0  0  0  0  0
   10.0787  -17.3103   23.3828 C   0  0  0  0  0  0  0  0  0  0  0  0
   12.5156  -17.4424   23.4318 O   0  0  0  0  0  0  0  0  0  0  0  0
   12.9096  -18.5750   23.0760 N   0  0  0  0  0  0  0  0  0  0  0  0
   12.6059  -13.7820   20.5805 C   0  0  0  0  0  0  0  0  0  0  0  0
   12.7934  -14.8898   19.6866 O   0  0  0  0  0  0  0  0  0  0  0  0
   12.0211  -14.9301   18.6963 C   0  0  0  0  0  0  0  0  0  0  0  0
   13.8233  -15.9094   19.9172 C   0  0  0  0  0  0  0  0  0  0  0  0
   14.5950  -15.5070   21.1533 C   0  0  2  0  0  0  0  0  0  0  0  0
   14.5447  -16.5106   22.2648 N   0  0  0  0  0  0  0  0  0  0  0  0
   13.3304  -16.3490   23.0672 C   0  0  0  0  0  0  0  0  0  0  0  0
   15.7780  -16.3328   23.0766 O   0  0  0  0  0  0  0  0  0  0  0  0
   15.6369  -16.0468   24.2899 O   0  0  0  0  0  0  0  0  0  0  0  0
  2  3  2  0
  2  1  1  0
  4  2  1  0
  5  4  1  0
  6  5  1  0
  7  6  1  0
  8  7  1  0
  8 10  1  0
  8  9  1  1
 10 17  1  0
 10 11  2  0
 13 12  1  0
 14 13  2  0
 15 13  1  0
 16 15  1  1
 17 16  1  0
 18 16  1  0
 18 19  2  0
 20 21  1  0
 21 22  2  0
 23 21  1  0
 23 24  1  0
 25 24  1  6
 25 26  1  0
 26 18  1  0
 27 25  1  0
 28 27  2  0
 29 27  1  0
M  END
$$$$
