RNQ.pdb
     RDKit          3D

 29 28  0  0  1  0  0  0  0  0999 V2000
    7.2418  -13.9362   22.2278 N   0  0  0  0  0  0  0  0  0  0  0  0
    7.5032  -13.1430   21.0979 C   0  0  0  0  0  0  0  0  0  0  0  0
    7.5025  -11.8391   21.2077 N   0  0  0  0  0  0  0  0  0  0  0  0
    7.7682  -13.7379   19.8279 N   0  0  0  0  0  0  0  0  0  0  0  0
    9.1871  -14.0161   19.5526 C   0  0  0  0  0  0  0  0  0  0  0  0
    9.4442  -13.5479   18.1696 C   0  0  0  0  0  0  0  0  0  0  0  0
   10.8279  -13.7305   17.6344 C   0  0  0  0  0  0  0  0  0  0  0  0
   11.2213  -15.1374   17.4674 C   0  0  2  0  0  0  0  0  0  0  0  0
   10.2069  -16.1070   17.3072 N   0  0  0  0  0  0  0  0  0  0  0  0
   12.3248  -15.5962   18.3707 C   0  0  0  0  0  0  0  0  0  0  0  0
   12.2277  -16.7389   18.8454 O   0  0  0  0  0  0  0  0  0  0  0  0
    7.8011  -11.2844   20.3675 N   0  0  0  0  0  0  0  0  0  0  0  0
   16.6819  -13.1442   17.3538 C   0  0  0  0  0  0  0  0  0  0  0  0
   16.2675  -14.3584   17.9639 O   0  0  0  0  0  0  0  0  0  0  0  0
   16.3184  -15.3754   17.2360 C   0  0  0  0  0  0  0  0  0  0  0  0
   15.8078  -14.4497   19.3530 C   0  0  2  0  0  0  0  0  0  0  0  0
   14.5368  -15.1995   19.5306 N   0  0  0  0  0  0  0  0  0  0  0  0
   13.4355  -14.8117   18.7036 C   0  0  0  0  0  0  0  0  0  0  0  0
   14.2056  -15.3533   20.9558 O   0  0  0  0  0  0  0  0  0  0  0  0
   14.7592  -14.6103   21.7959 N   0  0  0  0  0  0  0  0  0  0  0  0
    8.9201  -17.3374   23.4274 C   0  0  0  0  0  0  0  0  0  0  0  0
    9.2099  -16.1220   22.7202 O   0  0  0  0  0  0  0  0  0  0  0  0
    8.2138  -15.4917   22.2852 C   0  0  0  0  0  0  0  0  0  0  0  0
   10.5841  -15.6477   22.5196 C   0  0  0  0  0  0  0  0  0  0  0  0
   11.5152  -16.6899   23.0959 C   0  0  2  0  0  0  0  0  0  0  0  0
   12.9701  -16.3996   22.8861 N   0  0  0  0  0  0  0  0  0  0  0  0
   13.2881  -16.3000   21.4602 C   0  0  0  0  0  0  0  0  0  0  0  0
   13.7377  -17.4837   23.5549 O   0  0  0  0  0  0  0  0  0  0  0  0
   14.3434  -18.3020   22.8218 O   0  0  0  0  0  0  0  0  0  0  0  0
  2  3  2  0
  2  1  1  0
  4  2  1  0
  5  4  1  0
  6  5  1  0
  7  6  1  0
  8  7  1  0
  8 10  1  0
  8  9  1  1
 10 17  1  0
 10 11  2  0
 13 12  1  0
 14 13  2  0
 15 13  1  0
 16 15  1  6
 17 16  1  0
 18 16  1  0
 18 19  2  0
 20 21  1  0
 21 22  2  0
 23 21  1  0
 23 24  1  0
 25 24  1  1
 25 26  1  0
 26 18  1  0
 27 25  1  0
 28 27  2  0
 29 27  1  0
M  END
$$$$
