RNQ.pdb
     RDKit          3D

 29 28  0  0  1  0  0  0  0  0999 V2000
    9.1581  -11.9668   18.5591 N   0  0  0  0  0  0  0  0  0  0  0  0
    8.3544  -12.8640   17.8357 C   0  0  0  0  0  0  0  0  0  0  0  0
    8.8611  -13.5111   16.8174 N   0  0  0  0  0  0  0  0  0  0  0  0
    6.9897  -13.0804   18.1931 N   0  0  0  0  0  0  0  0  0  0  0  0
    6.7823  -13.7768   19.4731 C   0  0  0  0  0  0  0  0  0  0  0  0
    6.9477  -15.2234   19.1936 C   0  0  0  0  0  0  0  0  0  0  0  0
    6.7318  -16.1667   20.3328 C   0  0  0  0  0  0  0  0  0  0  0  0
    7.6946  -16.0036   21.4321 C   0  0  2  0  0  0  0  0  0  0  0  0
    9.0351  -16.3937   21.2181 N   0  0  0  0  0  0  0  0  0  0  0  0
    7.1837  -16.4003   22.7834 C   0  0  0  0  0  0  0  0  0  0  0  0
    5.9584  -16.3270   22.9675 O   0  0  0  0  0  0  0  0  0  0  0  0
    8.2230  -14.1589   16.2921 N   0  0  0  0  0  0  0  0  0  0  0  0
    6.8488  -19.4633   27.0289 C   0  0  0  0  0  0  0  0  0  0  0  0
    6.5539  -19.7995   25.6804 O   0  0  0  0  0  0  0  0  0  0  0  0
    5.9488  -20.8822   25.5120 C   0  0  0  0  0  0  0  0  0  0  0  0
    6.9172  -18.9552   24.5384 C   0  0  2  0  0  0  0  0  0  0  0  0
    7.6321  -17.7042   24.9033 N   0  0  0  0  0  0  0  0  0  0  0  0
    8.0057  -16.8354   23.8297 C   0  0  0  0  0  0  0  0  0  0  0  0
    8.7043  -17.9694   25.8753 O   0  0  0  0  0  0  0  0  0  0  0  0
    9.1703  -19.1262   25.9713 N   0  0  0  0  0  0  0  0  0  0  0  0
   11.2048  -14.9185   30.7155 C   0  0  0  0  0  0  0  0  0  0  0  0
   10.1219  -14.4346   29.9065 O   0  0  0  0  0  0  0  0  0  0  0  0
    9.7997  -13.2335   30.0860 C   0  0  0  0  0  0  0  0  0  0  0  0
    9.4364  -15.2910   28.9317 C   0  0  0  0  0  0  0  0  0  0  0  0
   10.0574  -16.6667   29.0167 C   0  0  2  0  0  0  0  0  0  0  0  0
   10.3234  -17.3056   27.6877 N   0  0  0  0  0  0  0  0  0  0  0  0
    9.2606  -16.9935   26.7300 C   0  0  0  0  0  0  0  0  0  0  0  0
   10.4541  -18.7688   27.9195 O   0  0  0  0  0  0  0  0  0  0  0  0
    9.5236  -19.5053   27.5124 O   0  0  0  0  0  0  0  0  0  0  0  0
  2  3  2  0
  2  1  1  0
  4  2  1  0
  5  4  1  0
  6  5  1  0
  7  6  1  0
  8  7  1  0
  8 10  1  0
  8  9  1  6
 10 17  1  0
 10 11  2  0
 13 12  1  0
 14 13  2  0
 15 13  1  0
 16 15  1  1
 17 16  1  0
 18 16  1  0
 18 19  2  0
 20 21  1  0
 21 22  2  0
 23 21  1  0
 23 24  1  0
 25 24  1  6
 25 26  1  0
 26 18  1  0
 27 25  1  0
 28 27  2  0
 29 27  1  0
M  END
$$$$
