RNQ.pdb
     RDKit          3D

 29 28  0  0  1  0  0  0  0  0999 V2000
    7.9518  -12.0513   18.3472 N   0  0  0  0  0  0  0  0  0  0  0  0
    9.1390  -12.7329   18.6636 C   0  0  0  0  0  0  0  0  0  0  0  0
   10.2308  -12.0534   18.9062 N   0  0  0  0  0  0  0  0  0  0  0  0
    9.1744  -14.1584   18.7230 N   0  0  0  0  0  0  0  0  0  0  0  0
    7.8800  -14.8247   18.5067 C   0  0  0  0  0  0  0  0  0  0  0  0
    7.4709  -15.3797   19.8191 C   0  0  0  0  0  0  0  0  0  0  0  0
    8.2558  -16.5387   20.3437 C   0  0  0  0  0  0  0  0  0  0  0  0
    7.7419  -17.0822   21.6096 C   0  0  2  0  0  0  0  0  0  0  0  0
    6.3804  -17.4509   21.6821 N   0  0  0  0  0  0  0  0  0  0  0  0
    8.2172  -16.3731   22.8407 C   0  0  0  0  0  0  0  0  0  0  0  0
    9.4404  -16.1953   22.9532 O   0  0  0  0  0  0  0  0  0  0  0  0
   11.1110  -12.6003   19.0763 N   0  0  0  0  0  0  0  0  0  0  0  0
    6.5377  -12.5798   27.5099 C   0  0  0  0  0  0  0  0  0  0  0  0
    7.3232  -13.4980   26.7629 O   0  0  0  0  0  0  0  0  0  0  0  0
    8.4895  -13.6780   27.1802 C   0  0  0  0  0  0  0  0  0  0  0  0
    6.8302  -14.2073   25.5784 C   0  0  2  0  0  0  0  0  0  0  0  0
    7.7542  -15.2487   25.0582 N   0  0  0  0  0  0  0  0  0  0  0  0
    7.3657  -15.9155   23.8534 C   0  0  0  0  0  0  0  0  0  0  0  0
    8.2037  -16.1456   26.1344 O   0  0  0  0  0  0  0  0  0  0  0  0
    7.3536  -16.6789   26.8810 N   0  0  0  0  0  0  0  0  0  0  0  0
   13.4518  -20.8564   27.1281 C   0  0  0  0  0  0  0  0  0  0  0  0
   12.0675  -20.5625   26.8859 O   0  0  0  0  0  0  0  0  0  0  0  0
   11.5285  -21.2028   25.9488 C   0  0  0  0  0  0  0  0  0  0  0  0
   11.3307  -19.5759   27.6843 C   0  0  0  0  0  0  0  0  0  0  0  0
   10.9032  -18.4636   26.7539 C   0  0  2  0  0  0  0  0  0  0  0  0
    9.9493  -17.4825   27.3644 N   0  0  0  0  0  0  0  0  0  0  0  0
    9.5553  -16.4571   26.3960 C   0  0  0  0  0  0  0  0  0  0  0  0
   10.6201  -16.8970   28.5555 O   0  0  0  0  0  0  0  0  0  0  0  0
   11.0166  -15.7097   28.4721 O   0  0  0  0  0  0  0  0  0  0  0  0
  2  3  2  0
  2  1  1  0
  4  2  1  0
  5  4  1  0
  6  5  1  0
  7  6  1  0
  8  7  1  0
  8 10  1  0
  8  9  1  6
 10 17  1  0
 10 11  2  0
 13 12  1  0
 14 13  2  0
 15 13  1  0
 16 15  1  6
 17 16  1  0
 18 16  1  0
 18 19  2  0
 20 21  1  0
 21 22  2  0
 23 21  1  0
 23 24  1  0
 25 24  1  6
 25 26  1  0
 26 18  1  0
 27 25  1  0
 28 27  2  0
 29 27  1  0
M  END
$$$$
