AQI.pdb
     RDKit          3D

 23 22  0  0  1  0  0  0  0  0999 V2000
    8.2179  -12.4688   19.3307 C   0  0  0  0  0  0  0  0  0  0  0  0
    8.4508  -13.9621   19.1786 C   0  0  2  0  0  0  0  0  0  0  0  0
    7.5784  -14.4434   18.1218 N   0  0  0  0  0  0  0  0  0  0  0  0
    8.1115  -14.6208   20.4676 C   0  0  0  0  0  0  0  0  0  0  0  0
    6.9360  -14.5965   20.9519 O   0  0  0  0  0  0  0  0  0  0  0  0
   11.1076  -19.5209   22.5126 N   0  0  0  0  0  0  0  0  0  0  0  0
   10.3048  -19.3153   23.6501 C   0  0  0  0  0  0  0  0  0  0  0  0
   10.2728  -20.1340   24.5824 O   0  0  0  0  0  0  0  0  0  0  0  0
    9.4679  -18.0567   23.7160 C   0  0  0  0  0  0  0  0  0  0  0  0
    9.6852  -17.2879   22.4494 C   0  0  0  0  0  0  0  0  0  0  0  0
    8.8963  -16.0268   22.3963 C   0  0  2  0  0  0  0  0  0  0  0  0
    9.1506  -15.2919   21.1613 N   0  0  0  0  0  0  0  0  0  0  0  0
    9.2344  -15.1364   23.5277 C   0  0  0  0  0  0  0  0  0  0  0  0
   10.3193  -14.5008   23.5370 O   0  0  0  0  0  0  0  0  0  0  0  0
    5.6073  -12.5459   27.1336 C   0  0  0  0  0  0  0  0  0  0  0  0
    6.5401  -13.6446   26.6291 C   0  0  0  0  0  0  0  0  0  0  0  0
    7.7950  -13.0642   26.0460 C   0  0  2  0  0  0  0  0  0  0  0  0
    7.4029  -12.2520   24.8280 C   0  0  0  0  0  0  0  0  0  0  0  0
    8.7819  -14.1320   25.7385 C   0  0  2  0  0  0  0  0  0  0  0  0
    8.3348  -14.9767   24.6395 N   0  0  0  0  0  0  0  0  0  0  0  0
    9.0947  -15.0007   26.8988 C   0  0  0  0  0  0  0  0  0  0  0  0
    9.7232  -14.4612   28.0475 O   0  0  0  0  0  0  0  0  0  0  0  0
    8.8415  -16.2248   26.9571 O   0  0  0  0  0  0  0  0  0  0  0  0
  2  3  1  0
  2  1  1  1
  4  5  2  0
  4  2  1  0
  6  7  1  0
  7  8  2  0
  9  7  1  0
  9 10  1  0
 11 10  1  6
 11 13  1  0
 11 12  1  0
 12  4  1  0
 13 20  1  0
 14 13  2  0
 16 15  1  0
 17 19  1  0
 17 16  1  0
 17 18  1  6
 19 21  1  0
 19 20  1  6
 21 23  2  0
 21 22  1  0
M  END
$$$$
