AQI.pdb
     RDKit          3D

 23 22  0  0  1  0  0  0  0  0999 V2000
    8.1730  -12.2752   19.4065 C   0  0  0  0  0  0  0  0  0  0  0  0
    8.5502  -13.7287   19.1782 C   0  0  2  0  0  0  0  0  0  0  0  0
    7.9049  -14.1691   17.9537 N   0  0  0  0  0  0  0  0  0  0  0  0
    8.0604  -14.5248   20.3345 C   0  0  0  0  0  0  0  0  0  0  0  0
    6.8228  -14.6374   20.6038 O   0  0  0  0  0  0  0  0  0  0  0  0
    6.7107  -19.1650   20.2875 N   0  0  0  0  0  0  0  0  0  0  0  0
    7.6300  -18.9054   21.3210 C   0  0  0  0  0  0  0  0  0  0  0  0
    7.4301  -19.2907   22.4838 O   0  0  0  0  0  0  0  0  0  0  0  0
    8.8872  -18.1350   20.9822 C   0  0  0  0  0  0  0  0  0  0  0  0
    9.2937  -17.3539   22.1934 C   0  0  0  0  0  0  0  0  0  0  0  0
    8.6353  -16.0211   22.2693 C   0  0  2  0  0  0  0  0  0  0  0  0
    9.0252  -15.1707   21.1490 N   0  0  0  0  0  0  0  0  0  0  0  0
    8.9979  -15.3157   23.5175 C   0  0  0  0  0  0  0  0  0  0  0  0
   10.1694  -14.8944   23.6948 O   0  0  0  0  0  0  0  0  0  0  0  0
    5.5772  -11.8451   25.7736 C   0  0  0  0  0  0  0  0  0  0  0  0
    6.7450  -12.6574   25.2184 C   0  0  0  0  0  0  0  0  0  0  0  0
    7.3632  -13.5147   26.2836 C   0  0  2  0  0  0  0  0  0  0  0  0
    7.8244  -12.5995   27.4000 C   0  0  0  0  0  0  0  0  0  0  0  0
    8.4600  -14.3480   25.7256 C   0  0  2  0  0  0  0  0  0  0  0  0
    8.0242  -15.0954   24.5540 N   0  0  0  0  0  0  0  0  0  0  0  0
    9.0333  -15.3038   26.7036 C   0  0  0  0  0  0  0  0  0  0  0  0
   10.0939  -14.9072   27.5541 O   0  0  0  0  0  0  0  0  0  0  0  0
    8.6462  -16.4845   26.8520 O   0  0  0  0  0  0  0  0  0  0  0  0
  2  3  1  0
  2  1  1  1
  4  5  2  0
  4  2  1  0
  6  7  1  0
  7  8  2  0
  9  7  1  0
  9 10  1  0
 11 10  1  6
 11 13  1  0
 11 12  1  0
 12  4  1  0
 13 20  1  0
 14 13  2  0
 16 15  1  0
 17 19  1  0
 17 16  1  0
 17 18  1  1
 19 21  1  0
 19 20  1  6
 21 23  2  0
 21 22  1  0
M  END
$$$$
