AQI.pdb
     RDKit          3D

 23 22  0  0  1  0  0  0  0  0999 V2000
    8.7306  -12.6049   19.1661 C   0  0  0  0  0  0  0  0  0  0  0  0
    8.4977  -14.0998   19.0310 C   0  0  2  0  0  0  0  0  0  0  0  0
    7.6380  -14.3142   17.8801 N   0  0  0  0  0  0  0  0  0  0  0  0
    7.8312  -14.5818   20.2696 C   0  0  0  0  0  0  0  0  0  0  0  0
    6.5919  -14.3986   20.4872 O   0  0  0  0  0  0  0  0  0  0  0  0
    4.9743  -18.0397   22.0412 N   0  0  0  0  0  0  0  0  0  0  0  0
    6.2283  -18.5968   22.3540 C   0  0  0  0  0  0  0  0  0  0  0  0
    6.3737  -19.3852   23.3014 O   0  0  0  0  0  0  0  0  0  0  0  0
    7.4152  -18.2099   21.4993 C   0  0  0  0  0  0  0  0  0  0  0  0
    8.3562  -17.4103   22.3464 C   0  0  0  0  0  0  0  0  0  0  0  0
    8.0280  -15.9586   22.3621 C   0  0  2  0  0  0  0  0  0  0  0  0
    8.6255  -15.2658   21.2249 N   0  0  0  0  0  0  0  0  0  0  0  0
    8.5250  -15.3112   23.5954 C   0  0  0  0  0  0  0  0  0  0  0  0
    9.7306  -14.9673   23.6939 O   0  0  0  0  0  0  0  0  0  0  0  0
    5.4212  -11.8389   26.3419 C   0  0  0  0  0  0  0  0  0  0  0  0
    6.5396  -12.6069   25.6412 C   0  0  0  0  0  0  0  0  0  0  0  0
    7.2068  -13.5687   26.5801 C   0  0  2  0  0  0  0  0  0  0  0  0
    7.7964  -12.7633   27.7206 C   0  0  0  0  0  0  0  0  0  0  0  0
    8.2181  -14.3924   25.8676 C   0  0  2  0  0  0  0  0  0  0  0  0
    7.6459  -15.0603   24.7067 N   0  0  0  0  0  0  0  0  0  0  0  0
    8.8596  -15.4162   26.7273 C   0  0  0  0  0  0  0  0  0  0  0  0
   10.0567  -15.1182   27.4228 O   0  0  0  0  0  0  0  0  0  0  0  0
    8.4177  -16.5739   26.9017 O   0  0  0  0  0  0  0  0  0  0  0  0
  2  3  1  0
  2  1  1  1
  4  5  2  0
  4  2  1  0
  6  7  1  0
  7  8  2  0
  9  7  1  0
  9 10  1  0
 11 10  1  1
 11 13  1  0
 11 12  1  0
 12  4  1  0
 13 20  1  0
 14 13  2  0
 16 15  1  0
 17 19  1  0
 17 16  1  0
 17 18  1  1
 19 21  1  0
 19 20  1  6
 21 23  2  0
 21 22  1  0
M  END
$$$$
