AQI.pdb
     RDKit          3D

 23 22  0  0  1  0  0  0  0  0999 V2000
    8.3002  -12.5036   18.9680 C   0  0  0  0  0  0  0  0  0  0  0  0
    8.4403  -14.0096   18.8279 C   0  0  2  0  0  0  0  0  0  0  0  0
    7.6985  -14.4178   17.6477 N   0  0  0  0  0  0  0  0  0  0  0  0
    7.8671  -14.6463   20.0431 C   0  0  0  0  0  0  0  0  0  0  0  0
    6.6131  -14.7422   20.2303 O   0  0  0  0  0  0  0  0  0  0  0  0
    8.6064  -20.2269   21.8930 N   0  0  0  0  0  0  0  0  0  0  0  0
    8.8873  -19.5545   23.0970 C   0  0  0  0  0  0  0  0  0  0  0  0
    9.5560  -20.0836   23.9988 O   0  0  0  0  0  0  0  0  0  0  0  0
    8.3497  -18.1515   23.2740 C   0  0  0  0  0  0  0  0  0  0  0  0
    8.7756  -17.3384   22.0908 C   0  0  0  0  0  0  0  0  0  0  0  0
    8.3052  -15.9279   22.1593 C   0  0  2  0  0  0  0  0  0  0  0  0
    8.7697  -15.1559   21.0111 N   0  0  0  0  0  0  0  0  0  0  0  0
    8.7993  -15.2581   23.3817 C   0  0  0  0  0  0  0  0  0  0  0  0
   10.0213  -14.9931   23.5143 O   0  0  0  0  0  0  0  0  0  0  0  0
    5.7317  -12.0897   27.1166 C   0  0  0  0  0  0  0  0  0  0  0  0
    6.3245  -13.2488   26.3185 C   0  0  0  0  0  0  0  0  0  0  0  0
    7.7375  -12.9563   25.9069 C   0  0  2  0  0  0  0  0  0  0  0  0
    7.6856  -11.9939   24.7373 C   0  0  0  0  0  0  0  0  0  0  0  0
    8.4710  -14.2106   25.5945 C   0  0  2  0  0  0  0  0  0  0  0  0
    7.8984  -14.8954   24.4437 N   0  0  0  0  0  0  0  0  0  0  0  0
    8.5221  -15.1644   26.7287 C   0  0  0  0  0  0  0  0  0  0  0  0
    7.9483  -16.4533   26.6058 O   0  0  0  0  0  0  0  0  0  0  0  0
    9.0512  -14.9216   27.8364 O   0  0  0  0  0  0  0  0  0  0  0  0
  2  3  1  0
  2  1  1  1
  4  5  2  0
  4  2  1  0
  6  7  1  0
  7  8  2  0
  9  7  1  0
  9 10  1  0
 11 10  1  6
 11 13  1  0
 11 12  1  0
 12  4  1  0
 13 20  1  0
 14 13  2  0
 16 15  1  0
 17 19  1  0
 17 16  1  0
 17 18  1  6
 19 21  1  0
 19 20  1  6
 21 23  2  0
 21 22  1  0
M  END
$$$$
