AQI.pdb
     RDKit          3D

 23 22  0  0  1  0  0  0  0  0999 V2000
    8.1227  -12.4109   19.4366 C   0  0  0  0  0  0  0  0  0  0  0  0
    8.4137  -13.8862   19.2213 C   0  0  2  0  0  0  0  0  0  0  0  0
    7.6015  -14.3421   18.1068 N   0  0  0  0  0  0  0  0  0  0  0  0
    8.0464  -14.6198   20.4613 C   0  0  0  0  0  0  0  0  0  0  0  0
    6.8380  -14.8718   20.7665 O   0  0  0  0  0  0  0  0  0  0  0  0
   11.5905  -18.7882   21.3765 N   0  0  0  0  0  0  0  0  0  0  0  0
   10.3023  -19.0588   20.8784 C   0  0  0  0  0  0  0  0  0  0  0  0
   10.0909  -19.9937   20.0901 O   0  0  0  0  0  0  0  0  0  0  0  0
    9.1613  -18.1736   21.3296 C   0  0  0  0  0  0  0  0  0  0  0  0
    9.7042  -17.1801   22.3098 C   0  0  0  0  0  0  0  0  0  0  0  0
    8.8587  -15.9605   22.4248 C   0  0  2  0  0  0  0  0  0  0  0  0
    9.0966  -15.0420   21.3158 N   0  0  0  0  0  0  0  0  0  0  0  0
    9.1389  -15.2319   23.6808 C   0  0  0  0  0  0  0  0  0  0  0  0
   10.2518  -14.6748   23.8604 O   0  0  0  0  0  0  0  0  0  0  0  0
    5.8585  -11.8013   26.0029 C   0  0  0  0  0  0  0  0  0  0  0  0
    6.9699  -12.6937   25.4549 C   0  0  0  0  0  0  0  0  0  0  0  0
    7.4815  -13.6308   26.5093 C   0  0  2  0  0  0  0  0  0  0  0  0
    7.9389  -12.7926   27.6863 C   0  0  0  0  0  0  0  0  0  0  0  0
    8.5540  -14.5058   25.9682 C   0  0  2  0  0  0  0  0  0  0  0  0
    8.1500  -15.1433   24.7226 N   0  0  0  0  0  0  0  0  0  0  0  0
    8.9900  -15.5614   26.9139 C   0  0  0  0  0  0  0  0  0  0  0  0
    9.9514  -15.2740   27.9132 O   0  0  0  0  0  0  0  0  0  0  0  0
    8.5650  -16.7384   26.9082 O   0  0  0  0  0  0  0  0  0  0  0  0
  2  3  1  0
  2  1  1  1
  4  5  2  0
  4  2  1  0
  6  7  1  0
  7  8  2  0
  9  7  1  0
  9 10  1  0
 11 10  1  6
 11 13  1  0
 11 12  1  0
 12  4  1  0
 13 20  1  0
 14 13  2  0
 16 15  1  0
 17 19  1  0
 17 16  1  0
 17 18  1  1
 19 21  1  0
 19 20  1  6
 21 23  2  0
 21 22  1  0
M  END
$$$$
