AQI.pdb
     RDKit          3D

 23 22  0  0  1  0  0  0  0  0999 V2000
    7.1501  -12.7993   18.9213 C   0  0  0  0  0  0  0  0  0  0  0  0
    8.4488  -13.1417   19.6309 C   0  0  2  0  0  0  0  0  0  0  0  0
    9.2777  -13.8929   18.7045 N   0  0  0  0  0  0  0  0  0  0  0  0
    8.1249  -13.9706   20.8220 C   0  0  0  0  0  0  0  0  0  0  0  0
    7.1997  -13.6554   21.6354 O   0  0  0  0  0  0  0  0  0  0  0  0
   10.1532  -19.9484   20.4920 N   0  0  0  0  0  0  0  0  0  0  0  0
    9.0916  -19.0598   20.2384 C   0  0  0  0  0  0  0  0  0  0  0  0
    8.7242  -18.7955   19.0828 O   0  0  0  0  0  0  0  0  0  0  0  0
    8.3954  -18.4226   21.4208 C   0  0  0  0  0  0  0  0  0  0  0  0
    9.2943  -17.3585   21.9706 C   0  0  0  0  0  0  0  0  0  0  0  0
    8.6032  -16.0519   22.1457 C   0  0  2  0  0  0  0  0  0  0  0  0
    8.8874  -15.1471   21.0363 N   0  0  0  0  0  0  0  0  0  0  0  0
    9.0317  -15.3831   23.3931 C   0  0  0  0  0  0  0  0  0  0  0  0
   10.1685  -14.8517   23.4739 O   0  0  0  0  0  0  0  0  0  0  0  0
    6.2145  -11.8605   26.0793 C   0  0  0  0  0  0  0  0  0  0  0  0
    7.3433  -12.6992   25.4844 C   0  0  0  0  0  0  0  0  0  0  0  0
    7.7265  -13.8216   26.4037 C   0  0  2  0  0  0  0  0  0  0  0  0
    8.2511  -13.2068   27.6858 C   0  0  0  0  0  0  0  0  0  0  0  0
    8.7053  -14.7313   25.7532 C   0  0  2  0  0  0  0  0  0  0  0  0
    8.1628  -15.3245   24.5388 N   0  0  0  0  0  0  0  0  0  0  0  0
    9.1759  -15.8243   26.6379 C   0  0  0  0  0  0  0  0  0  0  0  0
    8.6393  -17.1287   26.5108 O   0  0  0  0  0  0  0  0  0  0  0  0
   10.0452  -15.6917   27.5283 O   0  0  0  0  0  0  0  0  0  0  0  0
  2  3  1  0
  2  1  1  6
  4  5  2  0
  4  2  1  0
  6  7  1  0
  7  8  2  0
  9  7  1  0
  9 10  1  0
 11 10  1  6
 11 13  1  0
 11 12  1  0
 12  4  1  0
 13 20  1  0
 14 13  2  0
 16 15  1  0
 17 19  1  0
 17 16  1  0
 17 18  1  1
 19 21  1  0
 19 20  1  6
 21 23  2  0
 21 22  1  0
M  END
$$$$
