AQI.pdb
     RDKit          3D

 23 22  0  0  1  0  0  0  0  0999 V2000
    8.3063  -12.6895   19.2562 C   0  0  0  0  0  0  0  0  0  0  0  0
    8.3601  -14.2034   19.1450 C   0  0  2  0  0  0  0  0  0  0  0  0
    7.6053  -14.5903   17.9659 N   0  0  0  0  0  0  0  0  0  0  0  0
    7.7416  -14.7831   20.3665 C   0  0  0  0  0  0  0  0  0  0  0  0
    6.4837  -14.7879   20.5518 O   0  0  0  0  0  0  0  0  0  0  0  0
    6.1609  -18.7134   22.4552 N   0  0  0  0  0  0  0  0  0  0  0  0
    6.7367  -18.7109   23.7394 C   0  0  0  0  0  0  0  0  0  0  0  0
    6.1635  -19.2260   24.7122 O   0  0  0  0  0  0  0  0  0  0  0  0
    8.0901  -18.0577   23.9143 C   0  0  0  0  0  0  0  0  0  0  0  0
    8.4665  -17.4146   22.6154 C   0  0  0  0  0  0  0  0  0  0  0  0
    8.0849  -15.9773   22.5503 C   0  0  2  0  0  0  0  0  0  0  0  0
    8.6045  -15.3432   21.3428 N   0  0  0  0  0  0  0  0  0  0  0  0
    8.6118  -15.2308   23.7131 C   0  0  0  0  0  0  0  0  0  0  0  0
    9.8364  -14.9567   23.7934 O   0  0  0  0  0  0  0  0  0  0  0  0
    5.4716  -11.9647   27.2893 C   0  0  0  0  0  0  0  0  0  0  0  0
    6.2116  -13.1943   26.7676 C   0  0  0  0  0  0  0  0  0  0  0  0
    7.5346  -12.8165   26.1686 C   0  0  2  0  0  0  0  0  0  0  0  0
    7.2592  -11.9533   24.9537 C   0  0  0  0  0  0  0  0  0  0  0  0
    8.3394  -14.0250   25.8516 C   0  0  2  0  0  0  0  0  0  0  0  0
    7.7406  -14.8023   24.7754 N   0  0  0  0  0  0  0  0  0  0  0  0
    8.5466  -14.9200   27.0156 C   0  0  0  0  0  0  0  0  0  0  0  0
    9.2572  -14.4627   28.1521 O   0  0  0  0  0  0  0  0  0  0  0  0
    8.1308  -16.0981   27.0875 O   0  0  0  0  0  0  0  0  0  0  0  0
  2  3  1  0
  2  1  1  1
  4  5  2  0
  4  2  1  0
  6  7  1  0
  7  8  2  0
  9  7  1  0
  9 10  1  0
 11 10  1  1
 11 13  1  0
 11 12  1  0
 12  4  1  0
 13 20  1  0
 14 13  2  0
 16 15  1  0
 17 19  1  0
 17 16  1  0
 17 18  1  6
 19 21  1  0
 19 20  1  6
 21 23  2  0
 21 22  1  0
M  END
$$$$
