AQI.pdb
     RDKit          3D

 23 22  0  0  1  0  0  0  0  0999 V2000
    8.7624  -12.4737   19.4560 C   0  0  0  0  0  0  0  0  0  0  0  0
    8.4367  -13.9354   19.2022 C   0  0  2  0  0  0  0  0  0  0  0  0
    7.5074  -13.9974   18.0875 N   0  0  0  0  0  0  0  0  0  0  0  0
    7.8085  -14.4931   20.4290 C   0  0  0  0  0  0  0  0  0  0  0  0
    6.5837  -14.2997   20.7108 O   0  0  0  0  0  0  0  0  0  0  0  0
    5.8629  -18.1999   22.0867 N   0  0  0  0  0  0  0  0  0  0  0  0
    6.4331  -18.5206   23.3328 C   0  0  0  0  0  0  0  0  0  0  0  0
    5.7677  -19.0472   24.2384 O   0  0  0  0  0  0  0  0  0  0  0  0
    7.8968  -18.2059   23.5510 C   0  0  0  0  0  0  0  0  0  0  0  0
    8.3894  -17.4406   22.3618 C   0  0  0  0  0  0  0  0  0  0  0  0
    8.0599  -15.9907   22.4306 C   0  0  2  0  0  0  0  0  0  0  0  0
    8.6232  -15.2629   21.2979 N   0  0  0  0  0  0  0  0  0  0  0  0
    8.5918  -15.3796   23.6678 C   0  0  0  0  0  0  0  0  0  0  0  0
    9.8307  -15.2334   23.8254 O   0  0  0  0  0  0  0  0  0  0  0  0
    5.6579  -11.7290   26.5880 C   0  0  0  0  0  0  0  0  0  0  0  0
    6.7186  -12.5118   25.8173 C   0  0  0  0  0  0  0  0  0  0  0  0
    7.3614  -13.5527   26.6863 C   0  0  2  0  0  0  0  0  0  0  0  0
    8.0034  -12.8395   27.8594 C   0  0  0  0  0  0  0  0  0  0  0  0
    8.3252  -14.3738   25.9081 C   0  0  2  0  0  0  0  0  0  0  0  0
    7.7091  -14.9396   24.7159 N   0  0  0  0  0  0  0  0  0  0  0  0
    8.9292  -15.4785   26.6916 C   0  0  0  0  0  0  0  0  0  0  0  0
    8.3478  -16.7697   26.6731 O   0  0  0  0  0  0  0  0  0  0  0  0
    9.9542  -15.3673   27.4007 O   0  0  0  0  0  0  0  0  0  0  0  0
  2  3  1  0
  2  1  1  1
  4  5  2  0
  4  2  1  0
  6  7  1  0
  7  8  2  0
  9  7  1  0
  9 10  1  0
 11 10  1  6
 11 13  1  0
 11 12  1  0
 12  4  1  0
 13 20  1  0
 14 13  2  0
 16 15  1  0
 17 19  1  0
 17 16  1  0
 17 18  1  1
 19 21  1  0
 19 20  1  6
 21 23  2  0
 21 22  1  0
M  END
$$$$
