TFN.pdb
     RDKit          3D

 27 27  0  0  1  0  0  0  0  0999 V2000
    8.4898  -18.6738   18.7645 C   0  0  0  0  0  0  0  0  0  0  0  0
    8.7124  -18.0155   20.1142 C   0  0  1  0  0  0  0  0  0  0  0  0
    9.7602  -18.7247   20.7229 O   0  0  0  0  0  0  0  0  0  0  0  0
    9.0999  -16.5548   19.9326 C   0  0  2  0  0  0  0  0  0  0  0  0
   10.3577  -16.4903   19.2046 N   0  0  0  0  0  0  0  0  0  0  0  0
    9.2837  -15.8786   21.2318 C   0  0  0  0  0  0  0  0  0  0  0  0
   10.4175  -15.8740   21.8209 O   0  0  0  0  0  0  0  0  0  0  0  0
    8.2505  -15.1919   21.9263 N   0  0  0  0  0  0  0  0  0  0  0  0
    8.3839  -14.6956   23.2733 C   0  0  1  0  0  0  0  0  0  0  0  0
    7.2476  -13.7465   23.5502 C   0  0  0  0  0  0  0  0  0  0  0  0
    7.2467  -13.2716   24.9632 C   0  0  0  0  0  0  0  0  0  0  0  0
    6.3702  -13.7618   25.9032 C   0  0  0  0  0  0  0  0  0  0  0  0
    6.3805  -13.3064   27.2237 C   0  0  0  0  0  0  0  0  0  0  0  0
    7.2738  -12.3435   27.6386 C   0  0  0  0  0  0  0  0  0  0  0  0
    8.1549  -11.8489   26.6994 C   0  0  0  0  0  0  0  0  0  0  0  0
    8.1428  -12.2999   25.3965 C   0  0  0  0  0  0  0  0  0  0  0  0
    8.6017  -15.7429   24.2677 C   0  0  0  0  0  0  0  0  0  0  0  0
    7.6717  -16.6065   24.3852 O   0  0  0  0  0  0  0  0  0  0  0  0
   13.1450  -16.4473   26.0664 N   0  0  0  0  0  0  0  0  0  0  0  0
   12.2702  -17.0232   25.1246 C   0  0  0  0  0  0  0  0  0  0  0  0
   12.5121  -16.7859   23.8885 O   0  0  0  0  0  0  0  0  0  0  0  0
   11.1063  -17.8724   25.3934 C   0  0  0  0  0  0  0  0  0  0  0  0
    9.9677  -17.0529   25.9398 C   0  0  2  0  0  0  0  0  0  0  0  0
    9.7192  -15.8872   25.0902 N   0  0  0  0  0  0  0  0  0  0  0  0
   10.1761  -16.5233   27.2849 C   0  0  0  0  0  0  0  0  0  0  0  0
   10.0812  -15.3020   27.5138 O   0  0  0  0  0  0  0  0  0  0  0  0
   10.4908  -17.3170   28.4038 O   0  0  0  0  0  0  0  0  0  0  0  0
  2  1  1  6
  3  2  1  0
  4  2  1  0
  4  5  1  6
  6  4  1  0
  7  6  2  0
  8  6  1  0
  9  8  1  0
  9 10  1  1
 10 11  1  0
 11 12  2  0
 12 13  1  0
 14 13  2  0
 15 14  1  0
 16 11  1  0
 16 15  2  0
 17 18  2  0
 17  9  1  0
 19 20  1  0
 20 21  2  0
 23 22  1  6
 22 20  1  0
 23 24  1  0
 24 17  1  0
 25 23  1  0
 26 25  2  0
 27 25  1  0
M  END
$$$$
