TFN.pdb
     RDKit          3D

 27 27  0  0  1  0  0  0  0  0999 V2000
    7.8582  -17.4789   18.2398 C   0  0  0  0  0  0  0  0  0  0  0  0
    8.1496  -17.1343   19.6893 C   0  0  1  0  0  0  0  0  0  0  0  0
    9.2851  -17.8800   20.0439 O   0  0  0  0  0  0  0  0  0  0  0  0
    8.4307  -15.6452   19.8325 C   0  0  2  0  0  0  0  0  0  0  0  0
    9.6211  -15.3165   19.0638 N   0  0  0  0  0  0  0  0  0  0  0  0
    8.6736  -15.2738   21.2404 C   0  0  0  0  0  0  0  0  0  0  0  0
    9.8582  -15.2220   21.7163 O   0  0  0  0  0  0  0  0  0  0  0  0
    7.6460  -14.9496   22.1680 N   0  0  0  0  0  0  0  0  0  0  0  0
    7.8743  -14.7447   23.5767 C   0  0  1  0  0  0  0  0  0  0  0  0
    6.6257  -14.1635   24.1862 C   0  0  0  0  0  0  0  0  0  0  0  0
    6.9180  -13.3768   25.4182 C   0  0  0  0  0  0  0  0  0  0  0  0
    6.0998  -12.3602   25.8530 C   0  0  0  0  0  0  0  0  0  0  0  0
    6.3871  -11.6309   27.0092 C   0  0  0  0  0  0  0  0  0  0  0  0
    7.5072  -11.9029   27.7634 C   0  0  0  0  0  0  0  0  0  0  0  0
    8.3307  -12.9218   27.3314 C   0  0  0  0  0  0  0  0  0  0  0  0
    8.0451  -13.6402   26.1897 C   0  0  0  0  0  0  0  0  0  0  0  0
    8.4388  -15.9075   24.2569 C   0  0  0  0  0  0  0  0  0  0  0  0
    7.7367  -16.9707   24.2256 O   0  0  0  0  0  0  0  0  0  0  0  0
   10.8522  -18.8289   23.2269 N   0  0  0  0  0  0  0  0  0  0  0  0
   11.6571  -17.8738   23.8782 C   0  0  0  0  0  0  0  0  0  0  0  0
   12.5696  -17.3102   23.1765 O   0  0  0  0  0  0  0  0  0  0  0  0
   11.5717  -17.4421   25.2761 C   0  0  0  0  0  0  0  0  0  0  0  0
   10.1451  -17.1411   25.6513 C   0  0  2  0  0  0  0  0  0  0  0  0
    9.6605  -15.9646   24.9279 N   0  0  0  0  0  0  0  0  0  0  0  0
    9.9251  -16.8525   27.0661 C   0  0  0  0  0  0  0  0  0  0  0  0
    9.6859  -17.7684   27.8765 O   0  0  0  0  0  0  0  0  0  0  0  0
    9.9630  -15.5598   27.6213 O   0  0  0  0  0  0  0  0  0  0  0  0
  2  1  1  6
  3  2  1  0
  4  2  1  0
  4  5  1  6
  6  4  1  0
  7  6  2  0
  8  6  1  0
  9  8  1  0
  9 10  1  1
 10 11  1  0
 11 12  2  0
 12 13  1  0
 14 13  2  0
 15 14  1  0
 16 11  1  0
 16 15  2  0
 17 18  2  0
 17  9  1  0
 19 20  1  0
 20 21  2  0
 23 22  1  1
 22 20  1  0
 23 24  1  0
 24 17  1  0
 25 23  1  0
 26 25  2  0
 27 25  1  0
M  END
$$$$
