TFN.pdb
     RDKit          3D

 27 27  0  0  1  0  0  0  0  0999 V2000
    9.3883  -19.1974   21.6741 C   0  0  0  0  0  0  0  0  0  0  0  0
   10.2271  -18.4550   20.6494 C   0  0  1  0  0  0  0  0  0  0  0  0
   10.2319  -19.2581   19.4978 O   0  0  0  0  0  0  0  0  0  0  0  0
    9.6093  -17.0980   20.3435 C   0  0  2  0  0  0  0  0  0  0  0  0
   10.3656  -16.4691   19.2717 N   0  0  0  0  0  0  0  0  0  0  0  0
    9.6498  -16.2078   21.5204 C   0  0  0  0  0  0  0  0  0  0  0  0
   10.7529  -15.7247   21.9471 O   0  0  0  0  0  0  0  0  0  0  0  0
    8.5029  -15.8177   22.2647 N   0  0  0  0  0  0  0  0  0  0  0  0
    8.5601  -15.0216   23.4653 C   0  0  1  0  0  0  0  0  0  0  0  0
    7.2485  -14.2987   23.6252 C   0  0  0  0  0  0  0  0  0  0  0  0
    7.1914  -13.5166   24.8930 C   0  0  0  0  0  0  0  0  0  0  0  0
    7.9070  -12.3559   25.0739 C   0  0  0  0  0  0  0  0  0  0  0  0
    7.8442  -11.6340   26.2681 C   0  0  0  0  0  0  0  0  0  0  0  0
    7.0587  -12.0585   27.3170 C   0  0  0  0  0  0  0  0  0  0  0  0
    6.3390  -13.2220   27.1402 C   0  0  0  0  0  0  0  0  0  0  0  0
    6.4027  -13.9329   25.9605 C   0  0  0  0  0  0  0  0  0  0  0  0
    9.0354  -15.7547   24.6357 C   0  0  0  0  0  0  0  0  0  0  0  0
    8.4021  -16.8228   24.9234 O   0  0  0  0  0  0  0  0  0  0  0  0
   11.9381  -17.7580   24.4742 N   0  0  0  0  0  0  0  0  0  0  0  0
   12.6690  -17.0406   25.4411 C   0  0  0  0  0  0  0  0  0  0  0  0
   13.9470  -17.1002   25.3629 O   0  0  0  0  0  0  0  0  0  0  0  0
   12.1360  -16.2237   26.5349 C   0  0  0  0  0  0  0  0  0  0  0  0
   10.6308  -16.2490   26.5300 C   0  0  2  0  0  0  0  0  0  0  0  0
   10.1058  -15.4021   25.4578 N   0  0  0  0  0  0  0  0  0  0  0  0
    9.9997  -15.7688   27.7566 C   0  0  0  0  0  0  0  0  0  0  0  0
    9.6885  -14.5695   27.8892 O   0  0  0  0  0  0  0  0  0  0  0  0
    9.6965  -16.5890   28.8594 O   0  0  0  0  0  0  0  0  0  0  0  0
  2  1  1  1
  3  2  1  0
  4  2  1  0
  4  5  1  6
  6  4  1  0
  7  6  2  0
  8  6  1  0
  9  8  1  0
  9 10  1  1
 10 11  1  0
 11 12  2  0
 12 13  1  0
 14 13  2  0
 15 14  1  0
 16 11  1  0
 16 15  2  0
 17 18  2  0
 17  9  1  0
 19 20  1  0
 20 21  2  0
 23 22  1  1
 22 20  1  0
 23 24  1  0
 24 17  1  0
 25 23  1  0
 26 25  2  0
 27 25  1  0
M  END
$$$$
