TFN.pdb
     RDKit          3D

 27 27  0  0  1  0  0  0  0  0999 V2000
    8.0237  -18.8613   20.7171 C   0  0  0  0  0  0  0  0  0  0  0  0
    9.0089  -18.2047   19.7669 C   0  0  1  0  0  0  0  0  0  0  0  0
    8.8841  -18.8880   18.5467 O   0  0  0  0  0  0  0  0  0  0  0  0
    8.6667  -16.7328   19.5845 C   0  0  2  0  0  0  0  0  0  0  0  0
    9.5137  -16.1804   18.5387 N   0  0  0  0  0  0  0  0  0  0  0  0
    8.9033  -15.9653   20.8230 C   0  0  0  0  0  0  0  0  0  0  0  0
   10.0873  -15.7500   21.2523 O   0  0  0  0  0  0  0  0  0  0  0  0
    7.8699  -15.4120   21.6277 N   0  0  0  0  0  0  0  0  0  0  0  0
    8.0891  -14.8478   22.9362 C   0  0  1  0  0  0  0  0  0  0  0  0
    6.8716  -14.0514   23.3260 C   0  0  0  0  0  0  0  0  0  0  0  0
    7.0090  -13.4461   24.6813 C   0  0  0  0  0  0  0  0  0  0  0  0
    6.4669  -14.0266   25.8043 C   0  0  0  0  0  0  0  0  0  0  0  0
    6.6030  -13.4471   27.0680 C   0  0  0  0  0  0  0  0  0  0  0  0
    7.2894  -12.2653   27.2399 C   0  0  0  0  0  0  0  0  0  0  0  0
    7.8351  -11.6795   26.1165 C   0  0  0  0  0  0  0  0  0  0  0  0
    7.6993  -12.2533   24.8702 C   0  0  0  0  0  0  0  0  0  0  0  0
    8.5658  -15.8145   23.9218 C   0  0  0  0  0  0  0  0  0  0  0  0
    7.8623  -16.8685   24.0591 O   0  0  0  0  0  0  0  0  0  0  0  0
   12.6303  -17.3078   22.8931 N   0  0  0  0  0  0  0  0  0  0  0  0
   11.8701  -17.7121   24.0078 C   0  0  0  0  0  0  0  0  0  0  0  0
   11.2591  -18.8350   23.9156 O   0  0  0  0  0  0  0  0  0  0  0  0
   11.6958  -16.9951   25.2740 C   0  0  0  0  0  0  0  0  0  0  0  0
   10.2347  -16.7704   25.5586 C   0  0  2  0  0  0  0  0  0  0  0  0
    9.7062  -15.6961   24.7166 N   0  0  0  0  0  0  0  0  0  0  0  0
    9.9241  -16.3836   26.9324 C   0  0  0  0  0  0  0  0  0  0  0  0
   10.2442  -17.1131   27.8907 O   0  0  0  0  0  0  0  0  0  0  0  0
    9.2599  -15.1938   27.2846 O   0  0  0  0  0  0  0  0  0  0  0  0
  2  1  1  1
  3  2  1  0
  4  2  1  0
  4  5  1  6
  6  4  1  0
  7  6  2  0
  8  6  1  0
  9  8  1  0
  9 10  1  1
 10 11  1  0
 11 12  2  0
 12 13  1  0
 14 13  2  0
 15 14  1  0
 16 11  1  0
 16 15  2  0
 17 18  2  0
 17  9  1  0
 19 20  1  0
 20 21  2  0
 23 22  1  1
 22 20  1  0
 23 24  1  0
 24 17  1  0
 25 23  1  0
 26 25  2  0
 27 25  1  0
M  END
$$$$
