TFN.pdb
     RDKit          3D

 27 27  0  0  1  0  0  0  0  0999 V2000
    7.5648  -15.1345   16.9375 C   0  0  0  0  0  0  0  0  0  0  0  0
    7.9570  -15.0650   18.4025 C   0  0  1  0  0  0  0  0  0  0  0  0
    9.3332  -15.3396   18.4483 O   0  0  0  0  0  0  0  0  0  0  0  0
    7.6775  -13.6763   18.9593 C   0  0  2  0  0  0  0  0  0  0  0  0
    8.4464  -12.7027   18.1996 N   0  0  0  0  0  0  0  0  0  0  0  0
    8.0745  -13.5724   20.3773 C   0  0  0  0  0  0  0  0  0  0  0  0
    9.2584  -13.2251   20.7094 O   0  0  0  0  0  0  0  0  0  0  0  0
    7.2054  -13.8403   21.4702 N   0  0  0  0  0  0  0  0  0  0  0  0
    7.6211  -13.8087   22.8503 C   0  0  1  0  0  0  0  0  0  0  0  0
    6.5219  -13.1838   23.6687 C   0  0  0  0  0  0  0  0  0  0  0  0
    6.8924  -13.0683   25.1081 C   0  0  0  0  0  0  0  0  0  0  0  0
    6.4045  -13.9282   26.0643 C   0  0  0  0  0  0  0  0  0  0  0  0
    6.7598  -13.8070   27.4098 C   0  0  0  0  0  0  0  0  0  0  0  0
    7.6177  -12.8163   27.8339 C   0  0  0  0  0  0  0  0  0  0  0  0
    8.1098  -11.9516   26.8783 C   0  0  0  0  0  0  0  0  0  0  0  0
    7.7575  -12.0730   25.5509 C   0  0  0  0  0  0  0  0  0  0  0  0
    8.1386  -15.0842   23.3387 C   0  0  0  0  0  0  0  0  0  0  0  0
    7.4289  -16.1117   23.0836 O   0  0  0  0  0  0  0  0  0  0  0  0
   10.4187  -17.9474   21.9488 N   0  0  0  0  0  0  0  0  0  0  0  0
   11.2989  -17.1456   22.7013 C   0  0  0  0  0  0  0  0  0  0  0  0
   12.2909  -16.6293   22.0751 O   0  0  0  0  0  0  0  0  0  0  0  0
   11.2121  -16.8262   24.1290 C   0  0  0  0  0  0  0  0  0  0  0  0
    9.7816  -16.5856   24.5320 C   0  0  2  0  0  0  0  0  0  0  0  0
    9.3234  -15.2825   24.0478 N   0  0  0  0  0  0  0  0  0  0  0  0
    9.5370  -16.5795   25.9719 C   0  0  0  0  0  0  0  0  0  0  0  0
    8.7824  -17.4211   26.4965 O   0  0  0  0  0  0  0  0  0  0  0  0
   10.1120  -15.6557   26.8645 O   0  0  0  0  0  0  0  0  0  0  0  0
  2  1  1  6
  3  2  1  0
  4  2  1  0
  4  5  1  6
  6  4  1  0
  7  6  2  0
  8  6  1  0
  9  8  1  0
  9 10  1  1
 10 11  1  0
 11 12  2  0
 12 13  1  0
 14 13  2  0
 15 14  1  0
 16 11  1  0
 16 15  2  0
 17 18  2  0
 17  9  1  0
 19 20  1  0
 20 21  2  0
 23 22  1  1
 22 20  1  0
 23 24  1  0
 24 17  1  0
 25 23  1  0
 26 25  2  0
 27 25  1  0
M  END
$$$$
