NTL.pdb
     RDKit          3D

 24 23  0  0  1  0  0  0  0  0999 V2000
   27.2721  -14.3185  -19.5141 N   0  0  0  0  0  0  0  0  0  0  0  0
   25.8717  -14.1601  -19.6997 C   0  0  0  0  0  0  0  0  0  0  0  0
   25.3716  -13.0209  -19.9130 O   0  0  0  0  0  0  0  0  0  0  0  0
   25.0313  -15.3728  -19.6333 C   0  0  0  0  0  0  0  0  0  0  0  0
   25.8722  -16.6103  -19.3790 C   0  0  2  0  0  0  0  0  0  0  0  0
   26.6269  -16.8654  -20.5805 N   0  0  0  0  0  0  0  0  0  0  0  0
   24.9630  -17.7262  -19.0335 C   0  0  0  0  0  0  0  0  0  0  0  0
   24.3772  -18.3239  -19.9647 O   0  0  0  0  0  0  0  0  0  0  0  0
   25.7577  -20.8675  -17.0726 C   0  0  0  0  0  0  0  0  0  0  0  0
   24.5584  -20.2171  -16.4078 C   0  0  1  0  0  0  0  0  0  0  0  0
   24.8797  -19.6451  -15.1990 O   0  0  0  0  0  0  0  0  0  0  0  0
   23.8826  -19.2347  -17.3547 C   0  0  2  0  0  0  0  0  0  0  0  0
   24.7318  -18.1409  -17.6987 N   0  0  0  0  0  0  0  0  0  0  0  0
   22.6166  -18.7966  -16.6991 C   0  0  0  0  0  0  0  0  0  0  0  0
   22.4362  -17.5770  -16.4502 O   0  0  0  0  0  0  0  0  0  0  0  0
   18.0984  -16.9149  -15.9258 C   0  0  0  0  0  0  0  0  0  0  0  0
   18.3073  -18.0143  -16.9703 C   0  0  2  0  0  0  0  0  0  0  0  0
   17.2000  -18.9840  -16.9277 C   0  0  0  0  0  0  0  0  0  0  0  0
   19.6950  -18.4984  -17.0208 C   0  0  0  0  0  0  0  0  0  0  0  0
   20.2628  -19.2397  -15.8724 C   0  0  2  0  0  0  0  0  0  0  0  0
   21.5951  -19.7049  -16.3398 N   0  0  0  0  0  0  0  0  0  0  0  0
   19.5250  -20.4434  -15.4802 C   0  0  0  0  0  0  0  0  0  0  0  0
   18.5662  -20.3819  -14.4857 O   0  0  0  0  0  0  0  0  0  0  0  0
   19.7143  -21.5602  -16.0057 O   0  0  0  0  0  0  0  0  0  0  0  0
  1  2  1  0
  2  4  1  0
  3  2  2  0
  4  5  1  0
  5  7  1  0
  5  6  1  6
  7  8  2  0
 10  9  1  6
 10 12  1  0
 11 10  1  0
 12 14  1  0
 12 13  1  1
 13  7  1  0
 14 21  1  0
 15 14  2  0
 17 18  1  1
 17 16  1  0
 19 17  1  0
 20 19  1  6
 21 20  1  0
 22 20  1  0
 23 22  1  0
 24 22  2  0
M  END
$$$$
