NTL.pdb
     RDKit          3D

 24 23  0  0  1  0  0  0  0  0999 V2000
   14.3425  -14.3770  -16.4211 N   0  0  0  0  0  0  0  0  0  0  0  0
   15.2831  -14.0735  -15.3995 C   0  0  0  0  0  0  0  0  0  0  0  0
   15.0191  -14.3044  -14.1869 O   0  0  0  0  0  0  0  0  0  0  0  0
   16.5722  -13.4815  -15.8104 C   0  0  0  0  0  0  0  0  0  0  0  0
   16.6216  -13.2607  -17.3111 C   0  0  2  0  0  0  0  0  0  0  0  0
   16.8043  -14.5524  -17.9247 N   0  0  0  0  0  0  0  0  0  0  0  0
   17.7344  -12.3305  -17.6070 C   0  0  0  0  0  0  0  0  0  0  0  0
   18.8618  -12.8148  -17.8561 O   0  0  0  0  0  0  0  0  0  0  0  0
   17.1317   -8.0157  -17.8227 C   0  0  0  0  0  0  0  0  0  0  0  0
   18.1290   -8.7810  -18.6730 C   0  0  1  0  0  0  0  0  0  0  0  0
   19.1570   -7.9818  -19.1162 O   0  0  0  0  0  0  0  0  0  0  0  0
   18.6291  -10.0172  -17.9382 C   0  0  2  0  0  0  0  0  0  0  0  0
   17.5737  -10.9230  -17.6190 N   0  0  0  0  0  0  0  0  0  0  0  0
   19.3635   -9.5406  -16.7308 C   0  0  0  0  0  0  0  0  0  0  0  0
   18.7348   -9.3435  -15.6594 O   0  0  0  0  0  0  0  0  0  0  0  0
   24.8570  -10.5138  -14.6440 C   0  0  0  0  0  0  0  0  0  0  0  0
   23.4635   -9.9366  -14.3822 C   0  0  2  0  0  0  0  0  0  0  0  0
   22.7127  -10.8002  -13.4555 C   0  0  0  0  0  0  0  0  0  0  0  0
   22.8110   -9.4420  -15.6038 C   0  0  0  0  0  0  0  0  0  0  0  0
   21.4718   -8.8163  -15.5263 C   0  0  2  0  0  0  0  0  0  0  0  0
   20.7557   -9.2969  -16.7371 N   0  0  0  0  0  0  0  0  0  0  0  0
   21.4614   -7.3529  -15.6003 C   0  0  0  0  0  0  0  0  0  0  0  0
   21.4499   -6.7158  -16.8275 O   0  0  0  0  0  0  0  0  0  0  0  0
   21.4624   -6.6194  -14.5898 O   0  0  0  0  0  0  0  0  0  0  0  0
  1  2  1  0
  2  4  1  0
  3  2  2  0
  4  5  1  0
  5  7  1  0
  5  6  1  6
  7  8  2  0
 10  9  1  1
 10 12  1  0
 11 10  1  0
 12 14  1  0
 12 13  1  1
 13  7  1  0
 14 21  1  0
 15 14  2  0
 17 18  1  6
 17 16  1  0
 19 17  1  0
 20 19  1  6
 21 20  1  0
 22 20  1  0
 23 22  1  0
 24 22  2  0
M  END
$$$$
