NTL.pdb
     RDKit          3D

 24 23  0  0  1  0  0  0  0  0999 V2000
   21.0946  -14.2892  -17.6570 N   0  0  0  0  0  0  0  0  0  0  0  0
   21.5448  -13.2898  -18.5619 C   0  0  0  0  0  0  0  0  0  0  0  0
   22.3569  -13.5716  -19.4863 O   0  0  0  0  0  0  0  0  0  0  0  0
   21.0282  -11.9183  -18.3787 C   0  0  0  0  0  0  0  0  0  0  0  0
   20.0877  -11.8400  -17.1902 C   0  0  2  0  0  0  0  0  0  0  0  0
   18.8945  -12.5676  -17.5441 N   0  0  0  0  0  0  0  0  0  0  0  0
   19.8173  -10.4127  -16.9057 C   0  0  0  0  0  0  0  0  0  0  0  0
   19.3361   -9.7064  -17.8205 O   0  0  0  0  0  0  0  0  0  0  0  0
   17.4232   -9.0900  -14.3918 C   0  0  0  0  0  0  0  0  0  0  0  0
   18.7697   -8.4625  -14.0816 C   0  0  1  0  0  0  0  0  0  0  0  0
   19.3629   -9.0230  -12.9744 O   0  0  0  0  0  0  0  0  0  0  0  0
   19.6754   -8.4944  -15.3052 C   0  0  2  0  0  0  0  0  0  0  0  0
   20.0804   -9.8194  -15.6463 N   0  0  0  0  0  0  0  0  0  0  0  0
   20.8303   -7.5955  -15.0175 C   0  0  0  0  0  0  0  0  0  0  0  0
   21.9583   -8.0939  -14.7703 O   0  0  0  0  0  0  0  0  0  0  0  0
   23.1127   -4.5973  -17.4673 C   0  0  0  0  0  0  0  0  0  0  0  0
   21.7437   -4.0934  -17.0033 C   0  0  2  0  0  0  0  0  0  0  0  0
   21.3360   -2.9136  -17.7844 C   0  0  0  0  0  0  0  0  0  0  0  0
   21.6066   -4.0779  -15.5392 C   0  0  0  0  0  0  0  0  0  0  0  0
   21.8805   -5.3043  -14.7570 C   0  0  2  0  0  0  0  0  0  0  0  0
   20.7116   -6.1872  -15.0103 N   0  0  0  0  0  0  0  0  0  0  0  0
   21.9435   -5.1175  -13.3050 C   0  0  0  0  0  0  0  0  0  0  0  0
   20.9384   -5.6103  -12.4933 O   0  0  0  0  0  0  0  0  0  0  0  0
   22.8802   -4.5204  -12.7348 O   0  0  0  0  0  0  0  0  0  0  0  0
  1  2  1  0
  2  4  1  0
  3  2  2  0
  4  5  1  0
  5  7  1  0
  5  6  1  6
  7  8  2  0
 10  9  1  6
 10 12  1  0
 11 10  1  0
 12 14  1  0
 12 13  1  1
 13  7  1  0
 14 21  1  0
 15 14  2  0
 17 18  1  1
 17 16  1  0
 19 17  1  0
 20 19  1  6
 21 20  1  0
 22 20  1  0
 23 22  1  0
 24 22  2  0
M  END
$$$$
