NTL.pdb
     RDKit          3D

 24 23  0  0  1  0  0  0  0  0999 V2000
   14.8178  -15.6240  -15.2717 N   0  0  0  0  0  0  0  0  0  0  0  0
   15.6763  -15.7127  -16.4012 C   0  0  0  0  0  0  0  0  0  0  0  0
   16.0139  -16.8344  -16.8715 O   0  0  0  0  0  0  0  0  0  0  0  0
   16.1541  -14.4491  -16.9982 C   0  0  0  0  0  0  0  0  0  0  0  0
   15.6434  -13.2481  -16.2235 C   0  0  2  0  0  0  0  0  0  0  0  0
   14.2928  -13.0018  -16.6635 N   0  0  0  0  0  0  0  0  0  0  0  0
   16.5443  -12.1049  -16.4928 C   0  0  0  0  0  0  0  0  0  0  0  0
   17.5452  -12.2970  -17.2201 O   0  0  0  0  0  0  0  0  0  0  0  0
   15.2076   -8.4210  -17.3760 C   0  0  0  0  0  0  0  0  0  0  0  0
   16.2867   -8.3844  -16.3095 C   0  0  1  0  0  0  0  0  0  0  0  0
   15.7790   -8.0941  -15.0646 O   0  0  0  0  0  0  0  0  0  0  0  0
   17.1004   -9.6713  -16.3199 C   0  0  2  0  0  0  0  0  0  0  0  0
   16.3190  -10.8106  -15.9627 N   0  0  0  0  0  0  0  0  0  0  0  0
   18.2620   -9.4611  -15.4082 C   0  0  0  0  0  0  0  0  0  0  0  0
   18.2239   -9.9211  -14.2382 O   0  0  0  0  0  0  0  0  0  0  0  0
   23.9517  -10.3200  -15.3722 C   0  0  0  0  0  0  0  0  0  0  0  0
   22.9237   -9.4436  -14.6521 C   0  0  2  0  0  0  0  0  0  0  0  0
   23.0375   -9.6072  -13.1931 C   0  0  0  0  0  0  0  0  0  0  0  0
   21.5971   -9.4807  -15.2857 C   0  0  0  0  0  0  0  0  0  0  0  0
   20.5518   -8.5181  -14.8717 C   0  0  2  0  0  0  0  0  0  0  0  0
   19.4211   -8.7575  -15.8067 N   0  0  0  0  0  0  0  0  0  0  0  0
   20.9108   -7.1051  -15.0192 C   0  0  0  0  0  0  0  0  0  0  0  0
   20.5215   -6.3993  -16.1426 O   0  0  0  0  0  0  0  0  0  0  0  0
   21.5691   -6.4765  -14.1644 O   0  0  0  0  0  0  0  0  0  0  0  0
  1  2  1  0
  2  4  1  0
  3  2  2  0
  4  5  1  0
  5  7  1  0
  5  6  1  6
  7  8  2  0
 10  9  1  6
 10 12  1  0
 11 10  1  0
 12 14  1  0
 12 13  1  1
 13  7  1  0
 14 21  1  0
 15 14  2  0
 17 18  1  1
 17 16  1  0
 19 17  1  0
 20 19  1  6
 21 20  1  0
 22 20  1  0
 23 22  1  0
 24 22  2  0
M  END
$$$$
