NTL.pdb
     RDKit          3D

 24 23  0  0  1  0  0  0  0  0999 V2000
   25.4282  -19.9275  -17.8514 N   0  0  0  0  0  0  0  0  0  0  0  0
   26.5062  -20.7035  -18.3574 C   0  0  0  0  0  0  0  0  0  0  0  0
   26.5327  -21.0643  -19.5668 O   0  0  0  0  0  0  0  0  0  0  0  0
   27.5865  -21.0681  -17.4186 C   0  0  0  0  0  0  0  0  0  0  0  0
   27.8388  -22.5646  -17.4263 C   0  0  2  0  0  0  0  0  0  0  0  0
   26.8748  -23.1625  -16.5364 N   0  0  0  0  0  0  0  0  0  0  0  0
   29.2339  -22.8023  -16.9923 C   0  0  0  0  0  0  0  0  0  0  0  0
   29.5833  -22.3858  -15.8645 O   0  0  0  0  0  0  0  0  0  0  0  0
   30.9119  -25.4569  -15.5109 C   0  0  0  0  0  0  0  0  0  0  0  0
   31.5463  -25.2958  -16.8802 C   0  0  1  0  0  0  0  0  0  0  0  0
   31.0142  -26.1628  -17.8059 O   0  0  0  0  0  0  0  0  0  0  0  0
   31.4821  -23.8451  -17.3381 C   0  0  2  0  0  0  0  0  0  0  0  0
   30.1824  -23.4783  -17.7988 N   0  0  0  0  0  0  0  0  0  0  0  0
   32.5336  -23.6692  -18.3811 C   0  0  0  0  0  0  0  0  0  0  0  0
   32.1999  -23.5861  -19.5910 O   0  0  0  0  0  0  0  0  0  0  0  0
   36.0347  -20.6886  -19.7277 C   0  0  0  0  0  0  0  0  0  0  0  0
   36.1519  -21.3824  -18.3682 C   0  0  2  0  0  0  0  0  0  0  0  0
   37.1969  -20.7436  -17.5509 C   0  0  0  0  0  0  0  0  0  0  0  0
   36.1037  -22.8488  -18.4689 C   0  0  0  0  0  0  0  0  0  0  0  0
   34.9511  -23.5085  -19.1226 C   0  0  2  0  0  0  0  0  0  0  0  0
   33.9090  -23.5906  -18.0657 N   0  0  0  0  0  0  0  0  0  0  0  0
   35.1895  -24.8839  -19.5681 C   0  0  0  0  0  0  0  0  0  0  0  0
   34.8352  -25.9503  -18.7623 O   0  0  0  0  0  0  0  0  0  0  0  0
   35.7107  -25.1634  -20.6678 O   0  0  0  0  0  0  0  0  0  0  0  0
  1  2  1  0
  2  4  1  0
  3  2  2  0
  4  5  1  0
  5  7  1  0
  5  6  1  1
  7  8  2  0
 10  9  1  1
 10 12  1  0
 11 10  1  0
 12 14  1  0
 12 13  1  6
 13  7  1  0
 14 21  1  0
 15 14  2  0
 17 18  1  6
 17 16  1  0
 19 17  1  0
 20 19  1  1
 21 20  1  0
 22 20  1  0
 23 22  1  0
 24 22  2  0
M  END
$$$$
