NTL.pdb
     RDKit          3D

 24 23  0  0  1  0  0  0  0  0999 V2000
   16.5898  -15.8874  -16.6657 N   0  0  0  0  0  0  0  0  0  0  0  0
   17.4660  -15.3823  -15.6668 C   0  0  0  0  0  0  0  0  0  0  0  0
   17.4672  -15.8670  -14.5013 O   0  0  0  0  0  0  0  0  0  0  0  0
   18.3682  -14.2756  -16.0443 C   0  0  0  0  0  0  0  0  0  0  0  0
   18.0514  -13.7591  -17.4358 C   0  0  2  0  0  0  0  0  0  0  0  0
   18.4885  -14.7647  -18.3718 N   0  0  0  0  0  0  0  0  0  0  0  0
   18.7521  -12.4686  -17.6224 C   0  0  0  0  0  0  0  0  0  0  0  0
   19.9747  -12.4911  -17.8911 O   0  0  0  0  0  0  0  0  0  0  0  0
   17.2276   -9.2040  -19.5238 C   0  0  0  0  0  0  0  0  0  0  0  0
   17.8070   -8.8726  -18.1607 C   0  0  1  0  0  0  0  0  0  0  0  0
   16.8301   -8.5981  -17.2323 O   0  0  0  0  0  0  0  0  0  0  0  0
   18.7583   -9.9675  -17.6974 C   0  0  2  0  0  0  0  0  0  0  0  0
   18.0967  -11.2177  -17.5095 N   0  0  0  0  0  0  0  0  0  0  0  0
   19.4204   -9.4742  -16.4553 C   0  0  0  0  0  0  0  0  0  0  0  0
   19.1624  -10.0242  -15.3540 O   0  0  0  0  0  0  0  0  0  0  0  0
   22.1808  -10.0137  -13.2539 C   0  0  0  0  0  0  0  0  0  0  0  0
   22.6134  -10.0217  -14.7224 C   0  0  2  0  0  0  0  0  0  0  0  0
   23.9006  -10.7196  -14.8775 C   0  0  0  0  0  0  0  0  0  0  0  0
   22.4049   -8.7264  -15.3867 C   0  0  0  0  0  0  0  0  0  0  0  0
   21.1100   -8.0229  -15.2473 C   0  0  2  0  0  0  0  0  0  0  0  0
   20.3387   -8.3999  -16.4609 N   0  0  0  0  0  0  0  0  0  0  0  0
   21.1908   -6.5599  -15.2534 C   0  0  0  0  0  0  0  0  0  0  0  0
   20.8059   -5.8440  -16.3720 O   0  0  0  0  0  0  0  0  0  0  0  0
   21.5996   -5.8959  -14.2782 O   0  0  0  0  0  0  0  0  0  0  0  0
  1  2  1  0
  2  4  1  0
  3  2  2  0
  4  5  1  0
  5  7  1  0
  5  6  1  6
  7  8  2  0
 10  9  1  6
 10 12  1  0
 11 10  1  0
 12 14  1  0
 12 13  1  1
 13  7  1  0
 14 21  1  0
 15 14  2  0
 17 18  1  1
 17 16  1  0
 19 17  1  0
 20 19  1  6
 21 20  1  0
 22 20  1  0
 23 22  1  0
 24 22  2  0
M  END
$$$$
