NTL.pdb
     RDKit          3D

 24 23  0  0  1  0  0  0  0  0999 V2000
   20.0567  -19.7672  -13.0498 N   0  0  0  0  0  0  0  0  0  0  0  0
   20.2574  -21.1706  -12.9471 C   0  0  0  0  0  0  0  0  0  0  0  0
   19.4264  -21.9815  -13.4424 O   0  0  0  0  0  0  0  0  0  0  0  0
   21.4682  -21.6389  -12.2429 C   0  0  0  0  0  0  0  0  0  0  0  0
   22.2876  -20.4715  -11.7240 C   0  0  2  0  0  0  0  0  0  0  0  0
   22.5799  -19.6229  -12.8522 N   0  0  0  0  0  0  0  0  0  0  0  0
   23.5111  -21.0097  -11.0879 C   0  0  0  0  0  0  0  0  0  0  0  0
   23.4713  -22.1660  -10.6096 O   0  0  0  0  0  0  0  0  0  0  0  0
   27.1937  -21.2794  -12.4503 C   0  0  0  0  0  0  0  0  0  0  0  0
   27.1546  -20.4621  -11.1722 C   0  0  1  0  0  0  0  0  0  0  0  0
   27.3088  -19.1162  -11.4098 O   0  0  0  0  0  0  0  0  0  0  0  0
   25.8968  -20.7708  -10.3717 C   0  0  2  0  0  0  0  0  0  0  0  0
   24.7171  -20.2715  -11.0003 N   0  0  0  0  0  0  0  0  0  0  0  0
   26.1010  -20.2119   -9.0041 C   0  0  0  0  0  0  0  0  0  0  0  0
   25.4076  -19.2341   -8.6232 O   0  0  0  0  0  0  0  0  0  0  0  0
   30.4503  -21.0611   -4.7084 C   0  0  0  0  0  0  0  0  0  0  0  0
   29.0940  -20.4025   -4.9729 C   0  0  2  0  0  0  0  0  0  0  0  0
   28.2789  -20.3888   -3.7467 C   0  0  0  0  0  0  0  0  0  0  0  0
   28.4884  -20.8310   -6.2427 C   0  0  0  0  0  0  0  0  0  0  0  0
   27.3079  -20.1166   -6.7782 C   0  0  2  0  0  0  0  0  0  0  0  0
   27.0535  -20.7401   -8.1035 N   0  0  0  0  0  0  0  0  0  0  0  0
   27.5054  -18.6868   -7.0313 C   0  0  0  0  0  0  0  0  0  0  0  0
   28.1286  -18.2624   -8.1903 O   0  0  0  0  0  0  0  0  0  0  0  0
   27.1334  -17.7967   -6.2385 O   0  0  0  0  0  0  0  0  0  0  0  0
  1  2  1  0
  2  4  1  0
  3  2  2  0
  4  5  1  0
  5  7  1  0
  5  6  1  6
  7  8  2  0
 10  9  1  6
 10 12  1  0
 11 10  1  0
 12 14  1  0
 12 13  1  6
 13  7  1  0
 14 21  1  0
 15 14  2  0
 17 18  1  1
 17 16  1  0
 19 17  1  0
 20 19  1  6
 21 20  1  0
 22 20  1  0
 23 22  1  0
 24 22  2  0
M  END
$$$$
