NTL.pdb
     RDKit          3D

 24 23  0  0  1  0  0  0  0  0999 V2000
   29.3161  -23.3180  -17.2515 N   0  0  0  0  0  0  0  0  0  0  0  0
   29.3564  -21.9677  -17.6938 C   0  0  0  0  0  0  0  0  0  0  0  0
   30.2587  -21.5712  -18.4825 O   0  0  0  0  0  0  0  0  0  0  0  0
   28.3078  -21.0536  -17.1973 C   0  0  0  0  0  0  0  0  0  0  0  0
   27.3734  -21.7618  -16.2336 C   0  0  2  0  0  0  0  0  0  0  0  0
   26.1879  -22.1152  -16.9739 N   0  0  0  0  0  0  0  0  0  0  0  0
   27.0859  -20.8447  -15.1077 C   0  0  0  0  0  0  0  0  0  0  0  0
   27.5409  -19.6796  -15.1609 O   0  0  0  0  0  0  0  0  0  0  0  0
   24.1244  -19.1862  -14.2639 C   0  0  0  0  0  0  0  0  0  0  0  0
   24.4422  -19.9884  -13.0154 C   0  0  1  0  0  0  0  0  0  0  0  0
   23.6455  -21.1031  -12.8957 O   0  0  0  0  0  0  0  0  0  0  0  0
   25.9259  -20.3247  -12.9524 C   0  0  2  0  0  0  0  0  0  0  0  0
   26.3208  -21.2324  -13.9801 N   0  0  0  0  0  0  0  0  0  0  0  0
   26.1968  -20.8516  -11.5837 C   0  0  0  0  0  0  0  0  0  0  0  0
   26.2773  -22.0935  -11.4013 O   0  0  0  0  0  0  0  0  0  0  0  0
   27.8400  -18.2857   -6.2481 C   0  0  0  0  0  0  0  0  0  0  0  0
   27.6293  -19.6289   -6.9517 C   0  0  2  0  0  0  0  0  0  0  0  0
   28.6407  -20.6053   -6.5138 C   0  0  0  0  0  0  0  0  0  0  0  0
   27.3331  -19.4832   -8.3847 C   0  0  0  0  0  0  0  0  0  0  0  0
   26.5926  -20.5470   -9.0995 C   0  0  2  0  0  0  0  0  0  0  0  0
   26.3697  -20.0046  -10.4656 N   0  0  0  0  0  0  0  0  0  0  0  0
   25.2649  -20.8534   -8.5606 C   0  0  0  0  0  0  0  0  0  0  0  0
   24.1361  -20.2808   -9.1174 O   0  0  0  0  0  0  0  0  0  0  0  0
   25.0823  -21.6258   -7.5967 O   0  0  0  0  0  0  0  0  0  0  0  0
  1  2  1  0
  2  4  1  0
  3  2  2  0
  4  5  1  0
  5  7  1  0
  5  6  1  6
  7  8  2  0
 10  9  1  6
 10 12  1  0
 11 10  1  0
 12 14  1  0
 12 13  1  6
 13  7  1  0
 14 21  1  0
 15 14  2  0
 17 18  1  6
 17 16  1  0
 19 17  1  0
 20 19  1  1
 21 20  1  0
 22 20  1  0
 23 22  1  0
 24 22  2  0
M  END
$$$$
