PTP.pdb
     RDKit          3D

 22 23  0  0  1  0  0  0  0  0999 V2000
   13.9273  -22.3101    2.8331 N   0  0  0  0  0  0  0  0  0  0  0  0
   12.6914  -22.0374    2.1483 C   0  0  0  0  0  0  0  0  0  0  0  0
   12.9698  -22.4473    0.7138 C   0  0  0  0  0  0  0  0  0  0  0  0
   14.3851  -21.9095    0.5337 C   0  0  0  0  0  0  0  0  0  0  0  0
   14.9928  -22.2114    1.8868 C   0  0  1  0  0  0  0  0  0  0  0  0
   15.8882  -21.0812    2.2208 C   0  0  0  0  0  0  0  0  0  0  0  0
   16.8856  -20.8657    1.4811 O   0  0  0  0  0  0  0  0  0  0  0  0
   15.1851  -17.4959    2.9147 C   0  0  0  0  0  0  0  0  0  0  0  0
   15.8178  -18.0293    4.1703 C   0  0  1  0  0  0  0  0  0  0  0  0
   14.7673  -18.4198    5.0224 O   0  0  0  0  0  0  0  0  0  0  0  0
   16.6179  -19.2792    3.7934 C   0  0  2  0  0  0  0  0  0  0  0  0
   15.6266  -20.2551    3.3555 N   0  0  0  0  0  0  0  0  0  0  0  0
   17.3800  -19.7976    4.9575 C   0  0  0  0  0  0  0  0  0  0  0  0
   16.9411  -20.8140    5.5545 O   0  0  0  0  0  0  0  0  0  0  0  0
   18.5529  -19.1639    5.3677 N   0  0  0  0  0  0  0  0  0  0  0  0
   19.2671  -18.0415    4.8124 C   0  0  0  0  0  0  0  0  0  0  0  0
   20.7375  -18.3075    5.0932 C   0  0  0  0  0  0  0  0  0  0  0  0
   20.7286  -19.5062    5.9765 C   0  0  0  0  0  0  0  0  0  0  0  0
   19.3513  -19.5545    6.5404 C   0  0  1  0  0  0  0  0  0  0  0  0
   19.1111  -18.5872    7.6232 C   0  0  0  0  0  0  0  0  0  0  0  0
   19.5036  -18.7529    8.8021 O   0  0  0  0  0  0  0  0  0  0  0  0
   18.4123  -17.4211    7.3402 O   0  0  0  0  0  0  0  0  0  0  0  0
  1  2  1  0
  3  4  1  0
  3  2  1  0
  4  5  1  0
  5  1  1  0
  5  6  1  1
  7  6  2  0
  9  8  1  6
  9 11  1  0
 10  9  1  0
 11 12  1  1
 11 13  1  0
 12  6  1  0
 13 15  1  0
 14 13  2  0
 15 16  1  0
 15 19  1  0
 16 17  1  0
 17 18  1  0
 19 20  1  1
 19 18  1  0
 20 22  1  0
 21 20  2  0
M  END
$$$$
