PTP.pdb
     RDKit          3D

 22 23  0  0  1  0  0  0  0  0999 V2000
   20.3758  -13.0556  -18.2038 N   0  0  0  0  0  0  0  0  0  0  0  0
   19.2983  -13.1803  -19.1492 C   0  0  0  0  0  0  0  0  0  0  0  0
   19.7090  -12.2722  -20.2939 C   0  0  0  0  0  0  0  0  0  0  0  0
   20.2690  -11.0807  -19.5250 C   0  0  0  0  0  0  0  0  0  0  0  0
   20.9770  -11.7717  -18.3793 C   0  0  1  0  0  0  0  0  0  0  0  0
   20.7785  -10.9306  -17.1777 C   0  0  0  0  0  0  0  0  0  0  0  0
   19.7464  -11.1154  -16.4786 O   0  0  0  0  0  0  0  0  0  0  0  0
   22.3416  -10.9377  -14.2336 C   0  0  0  0  0  0  0  0  0  0  0  0
   22.6156   -9.5190  -14.6505 C   0  0  1  0  0  0  0  0  0  0  0  0
   23.8467   -9.5250  -15.3336 O   0  0  0  0  0  0  0  0  0  0  0  0
   21.5221   -9.1051  -15.6390 C   0  0  2  0  0  0  0  0  0  0  0  0
   21.7355   -9.9332  -16.8204 N   0  0  0  0  0  0  0  0  0  0  0  0
   21.6313   -7.6654  -15.9855 C   0  0  0  0  0  0  0  0  0  0  0  0
   22.2685   -7.3469  -17.0222 O   0  0  0  0  0  0  0  0  0  0  0  0
   21.0362   -6.7003  -15.1731 N   0  0  0  0  0  0  0  0  0  0  0  0
   20.2142   -6.8293  -13.9959 C   0  0  0  0  0  0  0  0  0  0  0  0
   19.2441   -5.6593  -14.0391 C   0  0  0  0  0  0  0  0  0  0  0  0
   19.7275   -4.8272  -15.1754 C   0  0  0  0  0  0  0  0  0  0  0  0
   21.1409   -5.2475  -15.3821 C   0  0  1  0  0  0  0  0  0  0  0  0
   22.0832   -4.6919  -14.3976 C   0  0  0  0  0  0  0  0  0  0  0  0
   22.5765   -3.5425  -14.4805 O   0  0  0  0  0  0  0  0  0  0  0  0
   22.4569   -5.4710  -13.3107 O   0  0  0  0  0  0  0  0  0  0  0  0
  1  2  1  0
  3  4  1  0
  3  2  1  0
  4  5  1  0
  5  1  1  0
  5  6  1  1
  7  6  2  0
  9  8  1  6
  9 11  1  0
 10  9  1  0
 11 12  1  6
 11 13  1  0
 12  6  1  0
 13 15  1  0
 14 13  2  0
 15 16  1  0
 15 19  1  0
 16 17  1  0
 17 18  1  0
 19 20  1  1
 19 18  1  0
 20 22  1  0
 21 20  2  0
M  END
$$$$
