PTP.pdb
     RDKit          3D

 22 23  0  0  1  0  0  0  0  0999 V2000
   26.9046  -20.7207  -17.1124 N   0  0  0  0  0  0  0  0  0  0  0  0
   28.3405  -20.7033  -17.0202 C   0  0  0  0  0  0  0  0  0  0  0  0
   28.6795  -22.0187  -16.3433 C   0  0  0  0  0  0  0  0  0  0  0  0
   27.5824  -22.0861  -15.2866 C   0  0  0  0  0  0  0  0  0  0  0  0
   26.3991  -21.5311  -16.0503 C   0  0  1  0  0  0  0  0  0  0  0  0
   25.6127  -20.7163  -15.0971 C   0  0  0  0  0  0  0  0  0  0  0  0
   25.6793  -19.4607  -15.1822 O   0  0  0  0  0  0  0  0  0  0  0  0
   23.6739  -18.9145  -15.0970 C   0  0  0  0  0  0  0  0  0  0  0  0
   22.9158  -19.8937  -14.2438 C   0  0  1  0  0  0  0  0  0  0  0  0
   22.4340  -20.8977  -15.1052 O   0  0  0  0  0  0  0  0  0  0  0  0
   23.9120  -20.5338  -13.2731 C   0  0  2  0  0  0  0  0  0  0  0  0
   24.7980  -21.3404  -14.1045 N   0  0  0  0  0  0  0  0  0  0  0  0
   23.2154  -21.3853  -12.2759 C   0  0  0  0  0  0  0  0  0  0  0  0
   22.8974  -22.5560  -12.6080 O   0  0  0  0  0  0  0  0  0  0  0  0
   22.9277  -20.8868  -11.0054 N   0  0  0  0  0  0  0  0  0  0  0  0
   23.1491  -19.5855  -10.4260 C   0  0  0  0  0  0  0  0  0  0  0  0
   23.4261  -19.8315   -8.9513 C   0  0  0  0  0  0  0  0  0  0  0  0
   23.1488  -21.2826   -8.7657 C   0  0  0  0  0  0  0  0  0  0  0  0
   22.2936  -21.6591   -9.9251 C   0  0  1  0  0  0  0  0  0  0  0  0
   20.8897  -21.2362   -9.7988 C   0  0  0  0  0  0  0  0  0  0  0  0
   20.4058  -20.2472  -10.3980 O   0  0  0  0  0  0  0  0  0  0  0  0
   20.0406  -21.9619   -8.9739 O   0  0  0  0  0  0  0  0  0  0  0  0
  1  2  1  0
  3  4  1  0
  3  2  1  0
  4  5  1  0
  5  1  1  0
  5  6  1  1
  7  6  2  0
  9  8  1  6
  9 11  1  0
 10  9  1  0
 11 12  1  6
 11 13  1  0
 12  6  1  0
 13 15  1  0
 14 13  2  0
 15 16  1  0
 15 19  1  0
 16 17  1  0
 17 18  1  0
 19 20  1  1
 19 18  1  0
 20 22  1  0
 21 20  2  0
M  END
$$$$
