PTP.pdb
     RDKit          3D

 22 23  0  0  1  0  0  0  0  0999 V2000
   23.9230  -20.3240  -11.2057 N   0  0  0  0  0  0  0  0  0  0  0  0
   23.9625  -21.6164  -10.5743 C   0  0  0  0  0  0  0  0  0  0  0  0
   24.4948  -21.3275   -9.1826 C   0  0  0  0  0  0  0  0  0  0  0  0
   25.5802  -20.3048   -9.4997 C   0  0  0  0  0  0  0  0  0  0  0  0
   24.9193  -19.5000  -10.5983 C   0  0  1  0  0  0  0  0  0  0  0  0
   25.9762  -19.1494  -11.5734 C   0  0  0  0  0  0  0  0  0  0  0  0
   26.9375  -18.4324  -11.1859 O   0  0  0  0  0  0  0  0  0  0  0  0
   28.5180  -20.6630  -13.1610 C   0  0  0  0  0  0  0  0  0  0  0  0
   27.6947  -20.2558  -14.3517 C   0  0  1  0  0  0  0  0  0  0  0  0
   26.8544  -21.3432  -14.6579 O   0  0  0  0  0  0  0  0  0  0  0  0
   26.8152  -19.0762  -13.9278 C   0  0  2  0  0  0  0  0  0  0  0  0
   25.9065  -19.6136  -12.9217 N   0  0  0  0  0  0  0  0  0  0  0  0
   26.0534  -18.5352  -15.0817 C   0  0  0  0  0  0  0  0  0  0  0  0
   24.8436  -18.8573  -15.2030 O   0  0  0  0  0  0  0  0  0  0  0  0
   26.6762  -17.6907  -16.0007 N   0  0  0  0  0  0  0  0  0  0  0  0
   28.0447  -17.2498  -16.1058 C   0  0  0  0  0  0  0  0  0  0  0  0
   27.9823  -15.8397  -16.6709 C   0  0  0  0  0  0  0  0  0  0  0  0
   26.5487  -15.6533  -17.0275 C   0  0  0  0  0  0  0  0  0  0  0  0
   25.9982  -17.0331  -17.1291 C   0  0  1  0  0  0  0  0  0  0  0  0
   26.3567  -17.7330  -18.3729 C   0  0  0  0  0  0  0  0  0  0  0  0
   27.1538  -18.6993  -18.4210 O   0  0  0  0  0  0  0  0  0  0  0  0
   25.7895  -17.3124  -19.5686 O   0  0  0  0  0  0  0  0  0  0  0  0
  1  2  1  0
  3  4  1  0
  3  2  1  0
  4  5  1  0
  5  1  1  0
  5  6  1  6
  7  6  2  0
  9  8  1  1
  9 11  1  0
 10  9  1  0
 11 12  1  1
 11 13  1  0
 12  6  1  0
 13 15  1  0
 14 13  2  0
 15 16  1  0
 15 19  1  0
 16 17  1  0
 17 18  1  0
 19 20  1  6
 19 18  1  0
 20 22  1  0
 21 20  2  0
M  END
$$$$
