PTP.pdb
     RDKit          3D

 22 23  0  0  1  0  0  0  0  0999 V2000
   22.3123  -19.1153  -17.8392 N   0  0  0  0  0  0  0  0  0  0  0  0
   21.2024  -19.8513  -18.3841 C   0  0  0  0  0  0  0  0  0  0  0  0
   20.1051  -19.6773  -17.3500 C   0  0  0  0  0  0  0  0  0  0  0  0
   20.9035  -19.8270  -16.0598 C   0  0  0  0  0  0  0  0  0  0  0  0
   22.1843  -19.1032  -16.4165 C   0  0  1  0  0  0  0  0  0  0  0  0
   23.2942  -19.8502  -15.7833 C   0  0  0  0  0  0  0  0  0  0  0  0
   23.2906  -21.1083  -15.8564 O   0  0  0  0  0  0  0  0  0  0  0  0
   27.0312  -19.5626  -15.9590 C   0  0  0  0  0  0  0  0  0  0  0  0
   26.6508  -19.2567  -14.5367 C   0  0  1  0  0  0  0  0  0  0  0  0
   26.5059  -17.8593  -14.4447 O   0  0  0  0  0  0  0  0  0  0  0  0
   25.2857  -19.8977  -14.2720 C   0  0  2  0  0  0  0  0  0  0  0  0
   24.3439  -19.1595  -15.1056 N   0  0  0  0  0  0  0  0  0  0  0  0
   24.9113  -19.7865  -12.8394 C   0  0  0  0  0  0  0  0  0  0  0  0
   23.8927  -19.1126  -12.5386 O   0  0  0  0  0  0  0  0  0  0  0  0
   25.6786  -20.4195  -11.8617 N   0  0  0  0  0  0  0  0  0  0  0  0
   26.8501  -21.2526  -11.9693 C   0  0  0  0  0  0  0  0  0  0  0  0
   26.7501  -22.2553  -10.8307 C   0  0  0  0  0  0  0  0  0  0  0  0
   25.5882  -21.7815  -10.0291 C   0  0  0  0  0  0  0  0  0  0  0  0
   25.4147  -20.3540  -10.4155 C   0  0  1  0  0  0  0  0  0  0  0  0
   26.3880  -19.4409   -9.7952 C   0  0  0  0  0  0  0  0  0  0  0  0
   27.3906  -18.9842  -10.3932 O   0  0  0  0  0  0  0  0  0  0  0  0
   26.2001  -19.0540   -8.4749 O   0  0  0  0  0  0  0  0  0  0  0  0
  1  2  1  0
  3  4  1  0
  3  2  1  0
  4  5  1  0
  5  1  1  0
  5  6  1  1
  7  6  2  0
  9  8  1  6
  9 11  1  0
 10  9  1  0
 11 12  1  6
 11 13  1  0
 12  6  1  0
 13 15  1  0
 14 13  2  0
 15 16  1  0
 15 19  1  0
 16 17  1  0
 17 18  1  0
 19 20  1  1
 19 18  1  0
 20 22  1  0
 21 20  2  0
M  END
$$$$
