PTP.pdb
     RDKit          3D

 22 23  0  0  1  0  0  0  0  0999 V2000
   29.1014  -21.2350  -18.3768 N   0  0  0  0  0  0  0  0  0  0  0  0
   30.2559  -22.0429  -18.6685 C   0  0  0  0  0  0  0  0  0  0  0  0
   29.7417  -23.4670  -18.5639 C   0  0  0  0  0  0  0  0  0  0  0  0
   28.8483  -23.3574  -17.3333 C   0  0  0  0  0  0  0  0  0  0  0  0
   28.2287  -21.9912  -17.5360 C   0  0  1  0  0  0  0  0  0  0  0  0
   28.1147  -21.3652  -16.1996 C   0  0  0  0  0  0  0  0  0  0  0  0
   29.0354  -20.5947  -15.8165 O   0  0  0  0  0  0  0  0  0  0  0  0
   28.0139  -19.0024  -15.1136 C   0  0  0  0  0  0  0  0  0  0  0  0
   26.6916  -19.4217  -14.5327 C   0  0  1  0  0  0  0  0  0  0  0  0
   25.7434  -19.3310  -15.5696 O   0  0  0  0  0  0  0  0  0  0  0  0
   26.8098  -20.8913  -14.1199 C   0  0  2  0  0  0  0  0  0  0  0  0
   26.9869  -21.6296  -15.3651 N   0  0  0  0  0  0  0  0  0  0  0  0
   25.5867  -21.3484  -13.4129 C   0  0  0  0  0  0  0  0  0  0  0  0
   24.8727  -22.2268  -13.9612 O   0  0  0  0  0  0  0  0  0  0  0  0
   25.2501  -20.8091  -12.1714 N   0  0  0  0  0  0  0  0  0  0  0  0
   25.8621  -19.7576  -11.3981 C   0  0  0  0  0  0  0  0  0  0  0  0
   25.6543  -20.1413   -9.9417 C   0  0  0  0  0  0  0  0  0  0  0  0
   24.7506  -21.3232  -10.0017 C   0  0  0  0  0  0  0  0  0  0  0  0
   24.1142  -21.2491  -11.3459 C   0  0  1  0  0  0  0  0  0  0  0  0
   23.0377  -20.2509  -11.4469 C   0  0  0  0  0  0  0  0  0  0  0  0
   23.1704  -19.1418  -12.0158 O   0  0  0  0  0  0  0  0  0  0  0  0
   21.8001  -20.5376  -10.8863 O   0  0  0  0  0  0  0  0  0  0  0  0
  1  2  1  0
  3  4  1  0
  3  2  1  0
  4  5  1  0
  5  1  1  0
  5  6  1  1
  7  6  2  0
  9  8  1  6
  9 11  1  0
 10  9  1  0
 11 12  1  6
 11 13  1  0
 12  6  1  0
 13 15  1  0
 14 13  2  0
 15 16  1  0
 15 19  1  0
 16 17  1  0
 17 18  1  0
 19 20  1  1
 19 18  1  0
 20 22  1  0
 21 20  2  0
M  END
$$$$
