PTP.pdb
     RDKit          3D

 22 23  0  0  1  0  0  0  0  0999 V2000
   16.4085  -13.7717  -16.5908 N   0  0  0  0  0  0  0  0  0  0  0  0
   15.7244  -13.9525  -17.8437 C   0  0  0  0  0  0  0  0  0  0  0  0
   15.9650  -15.4117  -18.1848 C   0  0  0  0  0  0  0  0  0  0  0  0
   17.4279  -15.5607  -17.7815 C   0  0  0  0  0  0  0  0  0  0  0  0
   17.4782  -14.7163  -16.5262 C   0  0  1  0  0  0  0  0  0  0  0  0
   18.7878  -14.0265  -16.5210 C   0  0  0  0  0  0  0  0  0  0  0  0
   19.8294  -14.7157  -16.3528 O   0  0  0  0  0  0  0  0  0  0  0  0
   20.6536  -12.3823  -19.0024 C   0  0  0  0  0  0  0  0  0  0  0  0
   20.3418  -11.2894  -18.0177 C   0  0  1  0  0  0  0  0  0  0  0  0
   19.1099  -10.7294  -18.4062 O   0  0  0  0  0  0  0  0  0  0  0  0
   20.1596  -11.9394  -16.6434 C   0  0  2  0  0  0  0  0  0  0  0  0
   18.8672  -12.6126  -16.7025 N   0  0  0  0  0  0  0  0  0  0  0  0
   20.1666  -10.9197  -15.5642 C   0  0  0  0  0  0  0  0  0  0  0  0
   19.0715  -10.6072  -15.0301 O   0  0  0  0  0  0  0  0  0  0  0  0
   21.3654  -10.3312  -15.1616 N   0  0  0  0  0  0  0  0  0  0  0  0
   22.7111  -10.4912  -15.6534 C   0  0  0  0  0  0  0  0  0  0  0  0
   23.6160  -10.3225  -14.4433 C   0  0  0  0  0  0  0  0  0  0  0  0
   22.6957   -9.8822  -13.3587 C   0  0  0  0  0  0  0  0  0  0  0  0
   21.4955   -9.3570  -14.0665 C   0  0  1  0  0  0  0  0  0  0  0  0
   21.6769   -8.0150  -14.6426 C   0  0  0  0  0  0  0  0  0  0  0  0
   21.8403   -7.8012  -15.8670 O   0  0  0  0  0  0  0  0  0  0  0  0
   21.6694   -6.9136  -13.7970 O   0  0  0  0  0  0  0  0  0  0  0  0
  1  2  1  0
  3  4  1  0
  3  2  1  0
  4  5  1  0
  5  1  1  0
  5  6  1  6
  7  6  2  0
  9  8  1  6
  9 11  1  0
 10  9  1  0
 11 12  1  6
 11 13  1  0
 12  6  1  0
 13 15  1  0
 14 13  2  0
 15 16  1  0
 15 19  1  0
 16 17  1  0
 17 18  1  0
 19 20  1  6
 19 18  1  0
 20 22  1  0
 21 20  2  0
M  END
$$$$
