PTP.pdb
     RDKit          3D

 22 23  0  0  1  0  0  0  0  0999 V2000
   27.4915  -22.0999  -17.9365 N   0  0  0  0  0  0  0  0  0  0  0  0
   27.7255  -21.2862  -19.0999 C   0  0  0  0  0  0  0  0  0  0  0  0
   29.2322  -21.3268  -19.2777 C   0  0  0  0  0  0  0  0  0  0  0  0
   29.6931  -21.2061  -17.8294 C   0  0  0  0  0  0  0  0  0  0  0  0
   28.6604  -22.0530  -17.1168 C   0  0  1  0  0  0  0  0  0  0  0  0
   28.3706  -21.3876  -15.8269 C   0  0  0  0  0  0  0  0  0  0  0  0
   29.2964  -21.2952  -14.9769 O   0  0  0  0  0  0  0  0  0  0  0  0
   27.4475  -18.1017  -15.1332 C   0  0  0  0  0  0  0  0  0  0  0  0
   26.2959  -18.8599  -14.5331 C   0  0  1  0  0  0  0  0  0  0  0  0
   25.2915  -18.9229  -15.5178 O   0  0  0  0  0  0  0  0  0  0  0  0
   26.7758  -20.2855  -14.2474 C   0  0  2  0  0  0  0  0  0  0  0  0
   27.0712  -20.8630  -15.5536 N   0  0  0  0  0  0  0  0  0  0  0  0
   25.7260  -21.0746  -13.5546 C   0  0  0  0  0  0  0  0  0  0  0  0
   25.2389  -22.0714  -14.1472 O   0  0  0  0  0  0  0  0  0  0  0  0
   25.3003  -20.7088  -12.2777 N   0  0  0  0  0  0  0  0  0  0  0  0
   25.6794  -19.6035  -11.4333 C   0  0  0  0  0  0  0  0  0  0  0  0
   25.5858  -20.1221  -10.0071 C   0  0  0  0  0  0  0  0  0  0  0  0
   24.9630  -21.4672  -10.1487 C   0  0  0  0  0  0  0  0  0  0  0  0
   24.3031  -21.4436  -11.4833 C   0  0  1  0  0  0  0  0  0  0  0  0
   23.0320  -20.7026  -11.5122 C   0  0  0  0  0  0  0  0  0  0  0  0
   22.9128  -19.5463  -11.9811 O   0  0  0  0  0  0  0  0  0  0  0  0
   21.8918  -21.3033  -10.9952 O   0  0  0  0  0  0  0  0  0  0  0  0
  1  2  1  0
  3  4  1  0
  3  2  1  0
  4  5  1  0
  5  1  1  0
  5  6  1  1
  7  6  2  0
  9  8  1  6
  9 11  1  0
 10  9  1  0
 11 12  1  6
 11 13  1  0
 12  6  1  0
 13 15  1  0
 14 13  2  0
 15 16  1  0
 15 19  1  0
 16 17  1  0
 17 18  1  0
 19 20  1  1
 19 18  1  0
 20 22  1  0
 21 20  2  0
M  END
$$$$
