PTP.pdb
     RDKit          3D

 22 23  0  0  1  0  0  0  0  0999 V2000
   27.6076  -22.8036  -17.7390 N   0  0  0  0  0  0  0  0  0  0  0  0
   27.6803  -22.1429  -19.0153 C   0  0  0  0  0  0  0  0  0  0  0  0
   29.1697  -21.9911  -19.2644 C   0  0  0  0  0  0  0  0  0  0  0  0
   29.6521  -21.5954  -17.8732 C   0  0  0  0  0  0  0  0  0  0  0  0
   28.7812  -22.4695  -16.9963 C   0  0  1  0  0  0  0  0  0  0  0  0
   28.4349  -21.6720  -15.7984 C   0  0  0  0  0  0  0  0  0  0  0  0
   29.3593  -21.3433  -15.0074 O   0  0  0  0  0  0  0  0  0  0  0  0
   27.3777  -18.4371  -15.4181 C   0  0  0  0  0  0  0  0  0  0  0  0
   26.2217  -19.1910  -14.8208 C   0  0  1  0  0  0  0  0  0  0  0  0
   25.3047  -19.4246  -15.8633 O   0  0  0  0  0  0  0  0  0  0  0  0
   26.7495  -20.5440  -14.3357 C   0  0  2  0  0  0  0  0  0  0  0  0
   27.0840  -21.2850  -15.5465 N   0  0  0  0  0  0  0  0  0  0  0  0
   25.7197  -21.2690  -13.5492 C   0  0  0  0  0  0  0  0  0  0  0  0
   25.2439  -22.3321  -14.0241 O   0  0  0  0  0  0  0  0  0  0  0  0
   25.3000  -20.7727  -12.3151 N   0  0  0  0  0  0  0  0  0  0  0  0
   25.6598  -19.5703  -11.6058 C   0  0  0  0  0  0  0  0  0  0  0  0
   25.5974  -19.9274  -10.1292 C   0  0  0  0  0  0  0  0  0  0  0  0
   25.0088  -21.2950  -10.1097 C   0  0  0  0  0  0  0  0  0  0  0  0
   24.3324  -21.4382  -11.4284 C   0  0  1  0  0  0  0  0  0  0  0  0
   23.0418  -20.7371  -11.5211 C   0  0  0  0  0  0  0  0  0  0  0  0
   22.8885  -19.6389  -12.1056 O   0  0  0  0  0  0  0  0  0  0  0  0
   21.9216  -21.3103  -10.9338 O   0  0  0  0  0  0  0  0  0  0  0  0
  1  2  1  0
  3  4  1  0
  3  2  1  0
  4  5  1  0
  5  1  1  0
  5  6  1  1
  7  6  2  0
  9  8  1  6
  9 11  1  0
 10  9  1  0
 11 12  1  6
 11 13  1  0
 12  6  1  0
 13 15  1  0
 14 13  2  0
 15 16  1  0
 15 19  1  0
 16 17  1  0
 17 18  1  0
 19 20  1  1
 19 18  1  0
 20 22  1  0
 21 20  2  0
M  END
$$$$
