CMG.pdb
     RDKit          3D

 19 18  0  0  1  0  0  0  0  0999 V2000
   30.1860  -31.5799  -16.6707 N   0  0  0  0  0  0  0  0  0  0  0  0
   28.7757  -31.3523  -16.6555 C   0  0  1  0  0  0  0  0  0  0  0  0
   28.2465  -30.7393  -17.9331 C   0  0  0  0  0  0  0  0  0  0  0  0
   29.0401  -29.0931  -18.0847 S   0  0  0  0  0  0  0  0  0  0  0  0
   28.0551  -32.5939  -16.2930 C   0  0  0  0  0  0  0  0  0  0  0  0
   28.6382  -33.6605  -15.9722 O   0  0  0  0  0  0  0  0  0  0  0  0
   24.1006  -33.4960  -11.7603 C   0  0  0  0  0  0  0  0  0  0  0  0
   25.5604  -34.5911  -11.8672 S   0  0  0  0  0  0  0  0  0  0  0  0
   25.7831  -35.0426  -13.6408 C   0  0  0  0  0  0  0  0  0  0  0  0
   26.1203  -33.7882  -14.3568 C   0  0  0  0  0  0  0  0  0  0  0  0
   25.8807  -33.7651  -15.8314 C   0  0  2  0  0  0  0  0  0  0  0  0
   26.6472  -32.5870  -16.3064 N   0  0  0  0  0  0  0  0  0  0  0  0
   24.4811  -33.5175  -16.2342 C   0  0  0  0  0  0  0  0  0  0  0  0
   23.5844  -34.4307  -16.1669 O   0  0  0  0  0  0  0  0  0  0  0  0
   24.0030  -32.2705  -16.7219 N   0  0  0  0  0  0  0  0  0  0  0  0
   22.6102  -32.1085  -17.1511 C   0  0  0  0  0  0  0  0  0  0  0  0
   21.7816  -31.7116  -15.9875 C   0  0  0  0  0  0  0  0  0  0  0  0
   22.2902  -31.7061  -14.7156 O   0  0  0  0  0  0  0  0  0  0  0  0
   20.5745  -31.3631  -16.1257 O   0  0  0  0  0  0  0  0  0  0  0  0
  2  1  1  6
  3  2  1  0
  4  3  1  0
  5  2  1  0
  6  5  2  0
  8  7  1  0
  8  9  1  0
 10  9  1  0
 11 10  1  1
 11 12  1  0
 12  5  1  0
 13 11  1  0
 13 15  1  0
 14 13  2  0
 16 15  1  0
 17 16  1  0
 18 17  1  0
 19 17  2  0
M  END
$$$$
