CMG.pdb
     RDKit          3D

 19 18  0  0  1  0  0  0  0  0999 V2000
   23.1234  -14.5360  -16.1871 N   0  0  0  0  0  0  0  0  0  0  0  0
   22.9171  -13.2005  -16.6505 C   0  0  1  0  0  0  0  0  0  0  0  0
   21.4894  -12.7221  -16.5057 C   0  0  0  0  0  0  0  0  0  0  0  0
   20.4270  -14.0468  -17.1983 S   0  0  0  0  0  0  0  0  0  0  0  0
   23.8817  -12.2764  -16.0120 C   0  0  0  0  0  0  0  0  0  0  0  0
   24.1436  -12.2950  -14.7826 O   0  0  0  0  0  0  0  0  0  0  0  0
   27.4230  -13.9082  -15.0664 C   0  0  0  0  0  0  0  0  0  0  0  0
   28.0148  -12.2411  -15.5270 S   0  0  0  0  0  0  0  0  0  0  0  0
   27.4590  -11.9159  -17.2546 C   0  0  0  0  0  0  0  0  0  0  0  0
   26.7430  -10.6172  -17.2306 C   0  0  0  0  0  0  0  0  0  0  0  0
   25.6221  -10.4802  -16.2523 C   0  0  2  0  0  0  0  0  0  0  0  0
   24.5419  -11.3270  -16.8154 N   0  0  0  0  0  0  0  0  0  0  0  0
   25.0481   -9.1232  -16.1445 C   0  0  0  0  0  0  0  0  0  0  0  0
   25.7367   -8.1269  -15.7253 O   0  0  0  0  0  0  0  0  0  0  0  0
   23.7079   -8.7973  -16.4896 N   0  0  0  0  0  0  0  0  0  0  0  0
   23.1769   -7.4475  -16.2744 C   0  0  0  0  0  0  0  0  0  0  0  0
   22.2802   -7.4557  -15.0937 C   0  0  0  0  0  0  0  0  0  0  0  0
   21.5567   -6.3486  -14.7370 O   0  0  0  0  0  0  0  0  0  0  0  0
   22.1496   -8.4851  -14.3720 O   0  0  0  0  0  0  0  0  0  0  0  0
  2  1  1  1
  3  2  1  0
  4  3  1  0
  5  2  1  0
  6  5  2  0
  8  7  1  0
  8  9  1  0
 10  9  1  0
 11 10  1  6
 11 12  1  0
 12  5  1  0
 13 11  1  0
 13 15  1  0
 14 13  2  0
 16 15  1  0
 17 16  1  0
 18 17  1  0
 19 17  2  0
M  END
$$$$
