CMG.pdb
     RDKit          3D

 19 18  0  0  1  0  0  0  0  0999 V2000
   19.1586  -22.5755  -10.2235 N   0  0  0  0  0  0  0  0  0  0  0  0
   17.9812  -23.2658   -9.8015 C   0  0  1  0  0  0  0  0  0  0  0  0
   17.1310  -23.7705  -10.9463 C   0  0  0  0  0  0  0  0  0  0  0  0
   16.0362  -22.3810  -11.4296 S   0  0  0  0  0  0  0  0  0  0  0  0
   18.3273  -24.3435   -8.8471 C   0  0  0  0  0  0  0  0  0  0  0  0
   19.4216  -24.9618   -8.8729 O   0  0  0  0  0  0  0  0  0  0  0  0
   18.6107  -27.5972   -2.4476 C   0  0  0  0  0  0  0  0  0  0  0  0
   18.6527  -26.3403   -3.7743 S   0  0  0  0  0  0  0  0  0  0  0  0
   16.9524  -26.2225   -4.4771 C   0  0  0  0  0  0  0  0  0  0  0  0
   17.0279  -25.2654   -5.6076 C   0  0  0  0  0  0  0  0  0  0  0  0
   17.7105  -25.7377   -6.8499 C   0  0  2  0  0  0  0  0  0  0  0  0
   17.3890  -24.6990   -7.8593 N   0  0  0  0  0  0  0  0  0  0  0  0
   17.1928  -27.0051   -7.4050 C   0  0  0  0  0  0  0  0  0  0  0  0
   16.0262  -27.0897   -7.9289 O   0  0  0  0  0  0  0  0  0  0  0  0
   17.9221  -28.2256   -7.4141 N   0  0  0  0  0  0  0  0  0  0  0  0
   17.3208  -29.4638   -7.9195 C   0  0  0  0  0  0  0  0  0  0  0  0
   16.7671  -30.2392   -6.7837 C   0  0  0  0  0  0  0  0  0  0  0  0
   16.2929  -31.5135   -6.9509 O   0  0  0  0  0  0  0  0  0  0  0  0
   16.7120  -29.7534   -5.6181 O   0  0  0  0  0  0  0  0  0  0  0  0
  2  1  1  6
  3  2  1  0
  4  3  1  0
  5  2  1  0
  6  5  2  0
  8  7  1  0
  8  9  1  0
 10  9  1  0
 11 10  1  1
 11 12  1  0
 12  5  1  0
 13 11  1  0
 13 15  1  0
 14 13  2  0
 16 15  1  0
 17 16  1  0
 18 17  1  0
 19 17  2  0
M  END
$$$$
