CMG.pdb
     RDKit          3D

 19 18  0  0  1  0  0  0  0  0999 V2000
   22.8719  -12.3186  -17.5686 N   0  0  0  0  0  0  0  0  0  0  0  0
   23.2807  -11.3406  -16.6109 C   0  0  1  0  0  0  0  0  0  0  0  0
   24.7509  -10.9932  -16.6887 C   0  0  0  0  0  0  0  0  0  0  0  0
   25.6429  -12.3106  -15.7767 S   0  0  0  0  0  0  0  0  0  0  0  0
   22.4190  -10.1397  -16.6975 C   0  0  0  0  0  0  0  0  0  0  0  0
   22.0434   -9.6382  -17.7875 O   0  0  0  0  0  0  0  0  0  0  0  0
   16.2850  -10.5705  -17.1021 C   0  0  0  0  0  0  0  0  0  0  0  0
   17.2832   -9.9593  -15.6979 S   0  0  0  0  0  0  0  0  0  0  0  0
   18.8423   -9.2612  -16.3914 C   0  0  0  0  0  0  0  0  0  0  0  0
   19.7271   -8.9741  -15.2362 C   0  0  0  0  0  0  0  0  0  0  0  0
   21.0608   -8.3722  -15.5382 C   0  0  2  0  0  0  0  0  0  0  0  0
   21.9959   -9.5236  -15.5043 N   0  0  0  0  0  0  0  0  0  0  0  0
   21.5628   -7.4224  -14.5241 C   0  0  0  0  0  0  0  0  0  0  0  0
   22.1152   -7.8193  -13.4379 O   0  0  0  0  0  0  0  0  0  0  0  0
   21.4860   -6.0085  -14.6523 N   0  0  0  0  0  0  0  0  0  0  0  0
   21.9844   -5.1236  -13.5946 C   0  0  0  0  0  0  0  0  0  0  0  0
   21.8498   -3.7132  -14.0313 C   0  0  0  0  0  0  0  0  0  0  0  0
   22.1980   -2.6736  -13.2101 O   0  0  0  0  0  0  0  0  0  0  0  0
   21.4088   -3.4173  -15.1783 O   0  0  0  0  0  0  0  0  0  0  0  0
  2  1  1  6
  3  2  1  0
  4  3  1  0
  5  2  1  0
  6  5  2  0
  8  7  1  0
  8  9  1  0
 10  9  1  0
 11 10  1  1
 11 12  1  0
 12  5  1  0
 13 11  1  0
 13 15  1  0
 14 13  2  0
 16 15  1  0
 17 16  1  0
 18 17  1  0
 19 17  2  0
M  END
$$$$
