CMG.pdb
     RDKit          3D

 19 18  0  0  1  0  0  0  0  0999 V2000
   23.1063  -12.3484  -20.6243 N   0  0  0  0  0  0  0  0  0  0  0  0
   23.0850  -10.9605  -20.2869 C   0  0  1  0  0  0  0  0  0  0  0  0
   21.7572  -10.2899  -20.5620 C   0  0  0  0  0  0  0  0  0  0  0  0
   21.6581  -10.0643  -22.3792 S   0  0  0  0  0  0  0  0  0  0  0  0
   23.5310  -10.7608  -18.8893 C   0  0  0  0  0  0  0  0  0  0  0  0
   23.2885  -11.5778  -17.9651 O   0  0  0  0  0  0  0  0  0  0  0  0
   28.3156  -12.0100  -14.7862 C   0  0  0  0  0  0  0  0  0  0  0  0
   28.3996  -10.7459  -16.1041 S   0  0  0  0  0  0  0  0  0  0  0  0
   26.9148   -9.6670  -15.9296 C   0  0  0  0  0  0  0  0  0  0  0  0
   26.1691   -9.7646  -17.2079 C   0  0  0  0  0  0  0  0  0  0  0  0
   24.7318   -9.3573  -17.1859 C   0  0  2  0  0  0  0  0  0  0  0  0
   24.2632   -9.6006  -18.5724 N   0  0  0  0  0  0  0  0  0  0  0  0
   24.4920   -7.9219  -16.9314 C   0  0  0  0  0  0  0  0  0  0  0  0
   24.6337   -7.0376  -17.8481 O   0  0  0  0  0  0  0  0  0  0  0  0
   24.0878   -7.3942  -15.6746 N   0  0  0  0  0  0  0  0  0  0  0  0
   24.0027   -5.9472  -15.4524 C   0  0  0  0  0  0  0  0  0  0  0  0
   22.5780   -5.5498  -15.3500 C   0  0  0  0  0  0  0  0  0  0  0  0
   21.9570   -5.4198  -14.1360 O   0  0  0  0  0  0  0  0  0  0  0  0
   21.8831   -5.3158  -16.3795 O   0  0  0  0  0  0  0  0  0  0  0  0
  2  1  1  1
  3  2  1  0
  4  3  1  0
  5  2  1  0
  6  5  2  0
  8  7  1  0
  8  9  1  0
 10  9  1  0
 11 10  1  6
 11 12  1  0
 12  5  1  0
 13 11  1  0
 13 15  1  0
 14 13  2  0
 16 15  1  0
 17 16  1  0
 18 17  1  0
 19 17  2  0
M  END
$$$$
