MCW.pdb
     RDKit          3D

 29 30  0  0  1  0  0  0  0  0999 V2000
    7.0738  -11.8698   20.9918 C   0  0  0  0  0  0  0  0  0  0  0  0
    7.4847  -12.0534   19.2469 S   0  0  0  0  0  0  0  0  0  0  0  0
    8.1712  -13.6928   18.9070 C   0  0  0  0  0  0  0  0  0  0  0  0
    8.0959  -14.5679   20.1188 C   0  0  0  0  0  0  0  0  0  0  0  0
    8.6525  -15.9363   19.7922 C   0  0  2  0  0  0  0  0  0  0  0  0
    7.9312  -16.5850   18.7357 N   0  0  0  0  0  0  0  0  0  0  0  0
    8.7059  -16.7222   21.0336 C   0  0  0  0  0  0  0  0  0  0  0  0
    7.7608  -17.5240   21.2548 O   0  0  0  0  0  0  0  0  0  0  0  0
    9.7414  -16.6446   21.9999 N   0  0  0  0  0  0  0  0  0  0  0  0
    9.7167  -17.4987   23.1812 C   0  0  1  0  0  0  0  0  0  0  0  0
   10.6634  -18.6658   22.8654 C   0  0  0  0  0  0  0  0  0  0  0  0
   12.2230  -18.1311   22.1630 S   0  0  0  0  0  0  0  0  0  0  0  0
   10.2107  -16.7389   24.3590 C   0  0  0  0  0  0  0  0  0  0  0  0
   11.1723  -15.9102   24.1995 O   0  0  0  0  0  0  0  0  0  0  0  0
    9.7117  -16.8418   25.6695 N   0  0  0  0  0  0  0  0  0  0  0  0
   10.4134  -16.3605   26.8444 C   0  0  1  0  0  0  0  0  0  0  0  0
    9.3366  -15.7366   27.7434 C   0  0  0  0  0  0  0  0  0  0  0  0
    8.1719  -15.3040   26.9716 C   0  0  0  0  0  0  0  0  0  0  0  0
    7.2444  -16.1499   26.4017 C   0  0  0  0  0  0  0  0  0  0  0  0
    6.3246  -15.3879   25.7768 N   0  0  0  0  0  0  0  0  0  0  0  0
    6.6514  -14.0878   25.9402 C   0  0  0  0  0  0  0  0  0  0  0  0
    6.0762  -12.8949   25.5229 C   0  0  0  0  0  0  0  0  0  0  0  0
    6.6223  -11.6654   25.8314 C   0  0  0  0  0  0  0  0  0  0  0  0
    7.7914  -11.6155   26.5876 C   0  0  0  0  0  0  0  0  0  0  0  0
    8.3912  -12.7794   27.0199 C   0  0  0  0  0  0  0  0  0  0  0  0
    7.8254  -14.0121   26.6989 C   0  0  0  0  0  0  0  0  0  0  0  0
   11.0630  -17.4833   27.5604 C   0  0  0  0  0  0  0  0  0  0  0  0
   11.7603  -17.3253   28.5984 O   0  0  0  0  0  0  0  0  0  0  0  0
   10.9266  -18.7872   27.1064 O   0  0  0  0  0  0  0  0  0  0  0  0
  2  1  1  0
  3  2  1  0
  4  3  1  0
  4  5  1  0
  5  6  1  6
  7  5  1  0
  7  8  2  0
  9 10  1  0
  9  7  1  0
 10 13  1  0
 11 12  1  0
 10 11  1  6
 13 15  1  0
 14 13  2  0
 15 16  1  0
 16 27  1  0
 16 17  1  1
 18 17  1  0
 19 18  2  0
 20 21  1  0
 20 19  1  0
 21 26  2  0
 22 23  2  0
 22 21  1  0
 23 24  1  0
 24 25  2  0
 26 18  1  0
 26 25  1  0
 27 28  2  0
 27 29  1  0
M  END
$$$$
