MCW.pdb
     RDKit          3D

 29 30  0  0  1  0  0  0  0  0999 V2000
   12.8125  -17.7031   13.8471 C   0  0  0  0  0  0  0  0  0  0  0  0
   11.5386  -18.9482   14.1195 S   0  0  0  0  0  0  0  0  0  0  0  0
   11.2650  -19.2264   15.8865 C   0  0  0  0  0  0  0  0  0  0  0  0
   11.6781  -18.0319   16.6881 C   0  0  0  0  0  0  0  0  0  0  0  0
   11.7038  -18.3907   18.1576 C   0  0  2  0  0  0  0  0  0  0  0  0
   11.1667  -19.6958   18.4139 N   0  0  0  0  0  0  0  0  0  0  0  0
   11.0276  -17.3215   18.9067 C   0  0  0  0  0  0  0  0  0  0  0  0
   11.5375  -16.1711   18.8652 O   0  0  0  0  0  0  0  0  0  0  0  0
    9.8451  -17.4888   19.6719 N   0  0  0  0  0  0  0  0  0  0  0  0
    9.3525  -16.4089   20.5185 C   0  0  1  0  0  0  0  0  0  0  0  0
    7.8216  -16.5257   20.4858 C   0  0  0  0  0  0  0  0  0  0  0  0
    7.0127  -15.4512   21.6702 S   0  0  0  0  0  0  0  0  0  0  0  0
    9.8535  -16.5916   21.9057 C   0  0  0  0  0  0  0  0  0  0  0  0
   10.0099  -17.7798   22.3536 O   0  0  0  0  0  0  0  0  0  0  0  0
   10.1836  -15.5591   22.8011 N   0  0  0  0  0  0  0  0  0  0  0  0
    9.4680  -15.2966   24.0354 C   0  0  1  0  0  0  0  0  0  0  0  0
    8.0053  -15.0718   23.6263 C   0  0  0  0  0  0  0  0  0  0  0  0
    7.1832  -14.6590   24.7635 C   0  0  0  0  0  0  0  0  0  0  0  0
    6.1905  -15.4236   25.3383 C   0  0  0  0  0  0  0  0  0  0  0  0
    5.6610  -14.7118   26.3532 N   0  0  0  0  0  0  0  0  0  0  0  0
    6.2956  -13.5221   26.4291 C   0  0  0  0  0  0  0  0  0  0  0  0
    6.1683  -12.4190   27.2629 C   0  0  0  0  0  0  0  0  0  0  0  0
    6.9609  -11.2972   27.1277 C   0  0  0  0  0  0  0  0  0  0  0  0
    7.9233  -11.2667   26.1207 C   0  0  0  0  0  0  0  0  0  0  0  0
    8.0789  -12.3435   25.2736 C   0  0  0  0  0  0  0  0  0  0  0  0
    7.2695  -13.4681   25.4250 C   0  0  0  0  0  0  0  0  0  0  0  0
    9.5513  -16.4633   24.9449 C   0  0  0  0  0  0  0  0  0  0  0  0
    9.1433  -17.6129   24.6278 O   0  0  0  0  0  0  0  0  0  0  0  0
   10.0959  -16.3348   26.2145 O   0  0  0  0  0  0  0  0  0  0  0  0
  2  1  1  0
  3  2  1  0
  4  3  1  0
  4  5  1  0
  5  6  1  6
  7  5  1  0
  7  8  2  0
  9 10  1  0
  9  7  1  0
 10 13  1  0
 11 12  1  0
 10 11  1  1
 13 15  1  0
 14 13  2  0
 15 16  1  0
 16 27  1  0
 16 17  1  6
 18 17  1  0
 19 18  2  0
 20 21  1  0
 20 19  1  0
 21 26  2  0
 22 23  2  0
 22 21  1  0
 23 24  1  0
 24 25  2  0
 26 18  1  0
 26 25  1  0
 27 28  2  0
 27 29  1  0
M  END
$$$$
