MCW.pdb
     RDKit          3D

 29 30  0  0  1  0  0  0  0  0999 V2000
    7.6210  -12.1447   19.3492 C   0  0  0  0  0  0  0  0  0  0  0  0
    8.8809  -12.3048   18.0708 S   0  0  0  0  0  0  0  0  0  0  0  0
    9.2792  -14.0426   17.7609 C   0  0  0  0  0  0  0  0  0  0  0  0
    8.8113  -14.9096   18.8875 C   0  0  0  0  0  0  0  0  0  0  0  0
    9.0693  -16.3619   18.5515 C   0  0  2  0  0  0  0  0  0  0  0  0
    8.2622  -16.8251   17.4601 N   0  0  0  0  0  0  0  0  0  0  0  0
    8.9075  -17.1562   19.7781 C   0  0  0  0  0  0  0  0  0  0  0  0
    8.0758  -18.1009   19.7530 O   0  0  0  0  0  0  0  0  0  0  0  0
    9.6177  -16.9380   20.9864 N   0  0  0  0  0  0  0  0  0  0  0  0
    9.2973  -17.7077   22.1824 C   0  0  1  0  0  0  0  0  0  0  0  0
    9.8093  -19.1290   21.9068 C   0  0  0  0  0  0  0  0  0  0  0  0
   11.4470  -19.1538   21.1796 S   0  0  0  0  0  0  0  0  0  0  0  0
    9.9995  -17.1257   23.3557 C   0  0  0  0  0  0  0  0  0  0  0  0
   11.0081  -16.3643   23.1558 O   0  0  0  0  0  0  0  0  0  0  0  0
    9.6557  -17.3332   24.7032 N   0  0  0  0  0  0  0  0  0  0  0  0
   10.2983  -16.6611   25.8167 C   0  0  1  0  0  0  0  0  0  0  0  0
    9.8606  -15.1925   25.7225 C   0  0  0  0  0  0  0  0  0  0  0  0
    8.4117  -15.0501   25.8625 C   0  0  0  0  0  0  0  0  0  0  0  0
    7.4949  -16.0555   25.6408 C   0  0  0  0  0  0  0  0  0  0  0  0
    6.2671  -15.5480   25.8694 N   0  0  0  0  0  0  0  0  0  0  0  0
    6.3908  -14.2519   26.2282 C   0  0  0  0  0  0  0  0  0  0  0  0
    5.4806  -13.2612   26.5719 C   0  0  0  0  0  0  0  0  0  0  0  0
    5.8751  -11.9818   26.9075 C   0  0  0  0  0  0  0  0  0  0  0  0
    7.2329  -11.6698   26.9022 C   0  0  0  0  0  0  0  0  0  0  0  0
    8.1661  -12.6276   26.5663 C   0  0  0  0  0  0  0  0  0  0  0  0
    7.7494  -13.9145   26.2302 C   0  0  0  0  0  0  0  0  0  0  0  0
    9.8388  -17.2304   27.1051 C   0  0  0  0  0  0  0  0  0  0  0  0
   10.2066  -16.7832   28.2246 O   0  0  0  0  0  0  0  0  0  0  0  0
    8.9627  -18.3059   27.1326 O   0  0  0  0  0  0  0  0  0  0  0  0
  2  1  1  0
  3  2  1  0
  4  3  1  0
  4  5  1  0
  5  6  1  6
  7  5  1  0
  7  8  2  0
  9 10  1  0
  9  7  1  0
 10 13  1  0
 11 12  1  0
 10 11  1  6
 13 15  1  0
 14 13  2  0
 15 16  1  0
 16 27  1  0
 16 17  1  1
 18 17  1  0
 19 18  2  0
 20 21  1  0
 20 19  1  0
 21 26  2  0
 22 23  2  0
 22 21  1  0
 23 24  1  0
 24 25  2  0
 26 18  1  0
 26 25  1  0
 27 28  2  0
 27 29  1  0
M  END
$$$$
