MCW.pdb
     RDKit          3D

 29 30  0  0  1  0  0  0  0  0999 V2000
   10.5585  -20.8942   24.3979 C   0  0  0  0  0  0  0  0  0  0  0  0
    9.8699  -22.1530   23.3077 S   0  0  0  0  0  0  0  0  0  0  0  0
    9.3065  -21.4287   21.7481 C   0  0  0  0  0  0  0  0  0  0  0  0
    9.3465  -19.9337   21.8054 C   0  0  0  0  0  0  0  0  0  0  0  0
    8.8637  -19.3620   20.4905 C   0  0  2  0  0  0  0  0  0  0  0  0
    9.4775  -19.9938   19.3584 N   0  0  0  0  0  0  0  0  0  0  0  0
    9.0535  -17.9045   20.5222 C   0  0  0  0  0  0  0  0  0  0  0  0
   10.1481  -17.4517   20.0957 O   0  0  0  0  0  0  0  0  0  0  0  0
    8.0967  -16.9712   20.9971 N   0  0  0  0  0  0  0  0  0  0  0  0
    8.4345  -15.5574   21.1095 C   0  0  1  0  0  0  0  0  0  0  0  0
    7.0987  -14.8060   21.0138 C   0  0  0  0  0  0  0  0  0  0  0  0
    7.2846  -13.0287   21.1489 S   0  0  0  0  0  0  0  0  0  0  0  0
    9.0778  -15.2991   22.4241 C   0  0  0  0  0  0  0  0  0  0  0  0
    9.6023  -14.1522   22.6395 O   0  0  0  0  0  0  0  0  0  0  0  0
    9.1696  -16.2156   23.4864 N   0  0  0  0  0  0  0  0  0  0  0  0
    9.9040  -15.9652   24.7121 C   0  0  1  0  0  0  0  0  0  0  0  0
    8.9420  -16.3268   25.8527 C   0  0  0  0  0  0  0  0  0  0  0  0
    7.6911  -15.5740   25.7640 C   0  0  0  0  0  0  0  0  0  0  0  0
    6.4874  -16.0914   25.3355 C   0  0  0  0  0  0  0  0  0  0  0  0
    5.5729  -15.1026   25.3923 N   0  0  0  0  0  0  0  0  0  0  0  0
    6.1720  -13.9800   25.8450 C   0  0  0  0  0  0  0  0  0  0  0  0
    5.7252  -12.6896   26.0964 C   0  0  0  0  0  0  0  0  0  0  0  0
    6.5618  -11.6987   26.5691 C   0  0  0  0  0  0  0  0  0  0  0  0
    7.9017  -12.0000   26.8033 C   0  0  0  0  0  0  0  0  0  0  0  0
    8.3816  -13.2706   26.5654 C   0  0  0  0  0  0  0  0  0  0  0  0
    7.5221  -14.2587   26.0881 C   0  0  0  0  0  0  0  0  0  0  0  0
   11.1043  -16.8306   24.7870 C   0  0  0  0  0  0  0  0  0  0  0  0
   11.3796  -17.7013   23.9183 O   0  0  0  0  0  0  0  0  0  0  0  0
   11.9969  -16.7149   25.8429 O   0  0  0  0  0  0  0  0  0  0  0  0
  2  1  1  0
  3  2  1  0
  4  3  1  0
  4  5  1  0
  5  6  1  6
  7  5  1  0
  7  8  2  0
  9 10  1  0
  9  7  1  0
 10 13  1  0
 11 12  1  0
 10 11  1  1
 13 15  1  0
 14 13  2  0
 15 16  1  0
 16 27  1  0
 16 17  1  1
 18 17  1  0
 19 18  2  0
 20 21  1  0
 20 19  1  0
 21 26  2  0
 22 23  2  0
 22 21  1  0
 23 24  1  0
 24 25  2  0
 26 18  1  0
 26 25  1  0
 27 28  2  0
 27 29  1  0
M  END
$$$$
