MCW.pdb
     RDKit          3D

 29 30  0  0  1  0  0  0  0  0999 V2000
   12.8319  -19.1211   15.4672 C   0  0  0  0  0  0  0  0  0  0  0  0
   11.7035  -19.1855   16.8707 S   0  0  0  0  0  0  0  0  0  0  0  0
   10.5481  -17.7931   16.8437 C   0  0  0  0  0  0  0  0  0  0  0  0
    9.5244  -17.9242   17.9275 C   0  0  0  0  0  0  0  0  0  0  0  0
   10.2011  -18.3268   19.2193 C   0  0  2  0  0  0  0  0  0  0  0  0
   10.1176  -19.7370   19.4670 N   0  0  0  0  0  0  0  0  0  0  0  0
    9.6469  -17.5071   20.3068 C   0  0  0  0  0  0  0  0  0  0  0  0
   10.1244  -16.3532   20.4659 O   0  0  0  0  0  0  0  0  0  0  0  0
    8.6155  -17.9188   21.1893 N   0  0  0  0  0  0  0  0  0  0  0  0
    8.0832  -16.9978   22.1863 C   0  0  1  0  0  0  0  0  0  0  0  0
    7.0619  -17.8113   22.9946 C   0  0  0  0  0  0  0  0  0  0  0  0
    6.5521  -16.9916   24.5045 S   0  0  0  0  0  0  0  0  0  0  0  0
    9.1814  -16.5264   23.0696 C   0  0  0  0  0  0  0  0  0  0  0  0
    9.9726  -15.6179   22.6389 O   0  0  0  0  0  0  0  0  0  0  0  0
    9.4451  -16.9918   24.3699 N   0  0  0  0  0  0  0  0  0  0  0  0
   10.5678  -16.5518   25.1764 C   0  0  1  0  0  0  0  0  0  0  0  0
   10.3754  -15.0402   25.3646 C   0  0  0  0  0  0  0  0  0  0  0  0
    9.1438  -14.7386   26.0937 C   0  0  0  0  0  0  0  0  0  0  0  0
    8.6525  -15.4741   27.1510 C   0  0  0  0  0  0  0  0  0  0  0  0
    7.5074  -14.8911   27.5586 N   0  0  0  0  0  0  0  0  0  0  0  0
    7.2688  -13.8103   26.7847 C   0  0  0  0  0  0  0  0  0  0  0  0
    6.2585  -12.8583   26.7527 C   0  0  0  0  0  0  0  0  0  0  0  0
    6.2475  -11.8254   25.8372 C   0  0  0  0  0  0  0  0  0  0  0  0
    7.2844  -11.7316   24.9114 C   0  0  0  0  0  0  0  0  0  0  0  0
    8.3051  -12.6586   24.9127 C   0  0  0  0  0  0  0  0  0  0  0  0
    8.2997  -13.6950   25.8448 C   0  0  0  0  0  0  0  0  0  0  0  0
   10.5529  -17.2187   26.4993 C   0  0  0  0  0  0  0  0  0  0  0  0
    9.5675  -17.8789   26.9255 O   0  0  0  0  0  0  0  0  0  0  0  0
   11.6508  -17.1422   27.3442 O   0  0  0  0  0  0  0  0  0  0  0  0
  2  1  1  0
  3  2  1  0
  4  3  1  0
  4  5  1  0
  5  6  1  1
  7  5  1  0
  7  8  2  0
  9 10  1  0
  9  7  1  0
 10 13  1  0
 11 12  1  0
 10 11  1  1
 13 15  1  0
 14 13  2  0
 15 16  1  0
 16 27  1  0
 16 17  1  1
 18 17  1  0
 19 18  2  0
 20 21  1  0
 20 19  1  0
 21 26  2  0
 22 23  2  0
 22 21  1  0
 23 24  1  0
 24 25  2  0
 26 18  1  0
 26 25  1  0
 27 28  2  0
 27 29  1  0
M  END
$$$$
