MCW.pdb
     RDKit          3D

 29 30  0  0  1  0  0  0  0  0999 V2000
    3.5485  -19.1255   19.0898 C   0  0  0  0  0  0  0  0  0  0  0  0
    5.0678  -18.1788   19.2968 S   0  0  0  0  0  0  0  0  0  0  0  0
    6.4202  -18.8958   18.3319 C   0  0  0  0  0  0  0  0  0  0  0  0
    7.6135  -17.9925   18.3266 C   0  0  0  0  0  0  0  0  0  0  0  0
    8.4440  -18.2409   19.5665 C   0  0  2  0  0  0  0  0  0  0  0  0
    7.7676  -19.0669   20.5244 N   0  0  0  0  0  0  0  0  0  0  0  0
    8.8664  -16.9411   20.1083 C   0  0  0  0  0  0  0  0  0  0  0  0
    9.1876  -16.0449   19.2846 O   0  0  0  0  0  0  0  0  0  0  0  0
    8.9391  -16.6216   21.4884 N   0  0  0  0  0  0  0  0  0  0  0  0
    9.2348  -15.2601   21.9182 C   0  0  1  0  0  0  0  0  0  0  0  0
    7.9663  -14.4486   21.6171 C   0  0  0  0  0  0  0  0  0  0  0  0
    6.5733  -14.9227   22.6401 S   0  0  0  0  0  0  0  0  0  0  0  0
    9.5212  -15.2463   23.3764 C   0  0  0  0  0  0  0  0  0  0  0  0
    9.9576  -14.1680   23.9091 O   0  0  0  0  0  0  0  0  0  0  0  0
    9.3547  -16.3311   24.2553 N   0  0  0  0  0  0  0  0  0  0  0  0
   10.2099  -16.5867   25.3988 C   0  0  1  0  0  0  0  0  0  0  0  0
    9.9521  -15.4305   26.3755 C   0  0  0  0  0  0  0  0  0  0  0  0
    8.5451  -15.0311   26.3813 C   0  0  0  0  0  0  0  0  0  0  0  0
    7.4797  -15.8922   26.2268 C   0  0  0  0  0  0  0  0  0  0  0  0
    6.3493  -15.1603   26.2879 N   0  0  0  0  0  0  0  0  0  0  0  0
    6.6784  -13.8642   26.4765 C   0  0  0  0  0  0  0  0  0  0  0  0
    5.9386  -12.6969   26.6108 C   0  0  0  0  0  0  0  0  0  0  0  0
    6.5324  -11.4653   26.7999 C   0  0  0  0  0  0  0  0  0  0  0  0
    7.9222  -11.3867   26.8585 C   0  0  0  0  0  0  0  0  0  0  0  0
    8.6900  -12.5246   26.7293 C   0  0  0  0  0  0  0  0  0  0  0  0
    8.0730  -13.7599   26.5389 C   0  0  0  0  0  0  0  0  0  0  0  0
    9.8459  -17.8688   26.0461 C   0  0  0  0  0  0  0  0  0  0  0  0
    8.9195  -18.6128   25.6255 O   0  0  0  0  0  0  0  0  0  0  0  0
   10.5272  -18.3141   27.1697 O   0  0  0  0  0  0  0  0  0  0  0  0
  2  1  1  0
  3  2  1  0
  4  3  1  0
  4  5  1  0
  5  6  1  1
  7  5  1  0
  7  8  2  0
  9 10  1  0
  9  7  1  0
 10 13  1  0
 11 12  1  0
 10 11  1  1
 13 15  1  0
 14 13  2  0
 15 16  1  0
 16 27  1  0
 16 17  1  1
 18 17  1  0
 19 18  2  0
 20 21  1  0
 20 19  1  0
 21 26  2  0
 22 23  2  0
 22 21  1  0
 23 24  1  0
 24 25  2  0
 26 18  1  0
 26 25  1  0
 27 28  2  0
 27 29  1  0
M  END
$$$$
