MCW.pdb
     RDKit          3D

 29 30  0  0  1  0  0  0  0  0999 V2000
   14.5968  -19.6205   18.8628 C   0  0  0  0  0  0  0  0  0  0  0  0
   13.4033  -18.5075   19.6271 S   0  0  0  0  0  0  0  0  0  0  0  0
   12.2906  -17.7948   18.3908 C   0  0  0  0  0  0  0  0  0  0  0  0
   11.3197  -16.8486   19.0246 C   0  0  0  0  0  0  0  0  0  0  0  0
    9.9432  -17.4757   19.0512 C   0  0  2  0  0  0  0  0  0  0  0  0
    9.1416  -17.0895   17.9263 N   0  0  0  0  0  0  0  0  0  0  0  0
    9.3203  -17.1693   20.3472 C   0  0  0  0  0  0  0  0  0  0  0  0
    9.1822  -15.9559   20.6531 O   0  0  0  0  0  0  0  0  0  0  0  0
    8.8637  -18.1375   21.2779 N   0  0  0  0  0  0  0  0  0  0  0  0
    8.2304  -17.7246   22.5245 C   0  0  1  0  0  0  0  0  0  0  0  0
    7.2607  -18.8583   22.8888 C   0  0  0  0  0  0  0  0  0  0  0  0
    6.6303  -18.7292   24.5614 S   0  0  0  0  0  0  0  0  0  0  0  0
    9.2619  -17.5691   23.5829 C   0  0  0  0  0  0  0  0  0  0  0  0
   10.2088  -18.4267   23.6523 O   0  0  0  0  0  0  0  0  0  0  0  0
    9.3034  -16.5429   24.5432 N   0  0  0  0  0  0  0  0  0  0  0  0
   10.3258  -16.4307   25.5662 C   0  0  1  0  0  0  0  0  0  0  0  0
   10.1115  -15.0567   26.2169 C   0  0  0  0  0  0  0  0  0  0  0  0
    8.6907  -14.7581   26.3946 C   0  0  0  0  0  0  0  0  0  0  0  0
    7.7943  -15.5597   27.0685 C   0  0  0  0  0  0  0  0  0  0  0  0
    6.5895  -14.9567   27.0210 N   0  0  0  0  0  0  0  0  0  0  0  0
    6.7079  -13.7992   26.3355 C   0  0  0  0  0  0  0  0  0  0  0  0
    5.8134  -12.7964   25.9856 C   0  0  0  0  0  0  0  0  0  0  0  0
    6.1973  -11.6856   25.2618 C   0  0  0  0  0  0  0  0  0  0  0  0
    7.5277  -11.5627   24.8668 C   0  0  0  0  0  0  0  0  0  0  0  0
    8.4446  -12.5384   25.1959 C   0  0  0  0  0  0  0  0  0  0  0  0
    8.0390  -13.6534   25.9274 C   0  0  0  0  0  0  0  0  0  0  0  0
   10.1601  -17.4908   26.5879 C   0  0  0  0  0  0  0  0  0  0  0  0
   10.9905  -17.6878   27.5154 O   0  0  0  0  0  0  0  0  0  0  0  0
    9.0561  -18.3309   26.5652 O   0  0  0  0  0  0  0  0  0  0  0  0
  2  1  1  0
  3  2  1  0
  4  3  1  0
  4  5  1  0
  5  6  1  6
  7  5  1  0
  7  8  2  0
  9 10  1  0
  9  7  1  0
 10 13  1  0
 11 12  1  0
 10 11  1  1
 13 15  1  0
 14 13  2  0
 15 16  1  0
 16 27  1  0
 16 17  1  1
 18 17  1  0
 19 18  2  0
 20 21  1  0
 20 19  1  0
 21 26  2  0
 22 23  2  0
 22 21  1  0
 23 24  1  0
 24 25  2  0
 26 18  1  0
 26 25  1  0
 27 28  2  0
 27 29  1  0
M  END
$$$$
