MCW.pdb
     RDKit          3D

 29 30  0  0  1  0  0  0  0  0999 V2000
    7.9977  -12.1993   20.9594 C   0  0  0  0  0  0  0  0  0  0  0  0
    7.6694  -12.1192   19.1893 S   0  0  0  0  0  0  0  0  0  0  0  0
    8.1520  -13.6564   18.3657 C   0  0  0  0  0  0  0  0  0  0  0  0
    8.0200  -14.8253   19.2910 C   0  0  0  0  0  0  0  0  0  0  0  0
    8.3638  -16.0996   18.5516 C   0  0  2  0  0  0  0  0  0  0  0  0
    7.2575  -16.6118   17.7958 N   0  0  0  0  0  0  0  0  0  0  0  0
    8.9085  -17.0633   19.5191 C   0  0  0  0  0  0  0  0  0  0  0  0
    8.1289  -17.9487   19.9590 O   0  0  0  0  0  0  0  0  0  0  0  0
   10.2451  -17.0701   19.9938 N   0  0  0  0  0  0  0  0  0  0  0  0
   10.6645  -18.0272   21.0105 C   0  0  1  0  0  0  0  0  0  0  0  0
   11.9618  -18.6525   20.4772 C   0  0  0  0  0  0  0  0  0  0  0  0
   13.1137  -17.4368   19.8395 S   0  0  0  0  0  0  0  0  0  0  0  0
   10.9229  -17.3174   22.2903 C   0  0  0  0  0  0  0  0  0  0  0  0
   11.2843  -16.0907   22.2533 O   0  0  0  0  0  0  0  0  0  0  0  0
   10.8055  -17.8751   23.5757 N   0  0  0  0  0  0  0  0  0  0  0  0
   11.1445  -17.1722   24.7985 C   0  0  1  0  0  0  0  0  0  0  0  0
    9.9822  -17.4391   25.7655 C   0  0  0  0  0  0  0  0  0  0  0  0
   10.2311  -16.8569   27.0840 C   0  0  0  0  0  0  0  0  0  0  0  0
   10.7851  -17.5300   28.1519 C   0  0  0  0  0  0  0  0  0  0  0  0
   10.8563  -16.6687   29.1865 N   0  0  0  0  0  0  0  0  0  0  0  0
   10.3619  -15.4746   28.7948 C   0  0  0  0  0  0  0  0  0  0  0  0
   10.1927  -14.2518   29.4306 C   0  0  0  0  0  0  0  0  0  0  0  0
    9.6482  -13.1570   28.7902 C   0  0  0  0  0  0  0  0  0  0  0  0
    9.2534  -13.2792   27.4597 C   0  0  0  0  0  0  0  0  0  0  0  0
    9.4061  -14.4778   26.7954 C   0  0  0  0  0  0  0  0  0  0  0  0
    9.9580  -15.5728   27.4581 C   0  0  0  0  0  0  0  0  0  0  0  0
   12.3993  -17.7071   25.3770 C   0  0  0  0  0  0  0  0  0  0  0  0
   12.7577  -18.9087   25.2496 O   0  0  0  0  0  0  0  0  0  0  0  0
   13.2526  -16.8865   26.1005 O   0  0  0  0  0  0  0  0  0  0  0  0
  2  1  1  0
  3  2  1  0
  4  3  1  0
  4  5  1  0
  5  6  1  1
  7  5  1  0
  7  8  2  0
  9 10  1  0
  9  7  1  0
 10 13  1  0
 11 12  1  0
 10 11  1  6
 13 15  1  0
 14 13  2  0
 15 16  1  0
 16 27  1  0
 16 17  1  1
 18 17  1  0
 19 18  2  0
 20 21  1  0
 20 19  1  0
 21 26  2  0
 22 23  2  0
 22 21  1  0
 23 24  1  0
 24 25  2  0
 26 18  1  0
 26 25  1  0
 27 28  2  0
 27 29  1  0
M  END
$$$$
