MCW.pdb
     RDKit          3D

 29 30  0  0  1  0  0  0  0  0999 V2000
    7.0547  -21.9882   18.9735 C   0  0  0  0  0  0  0  0  0  0  0  0
    7.8382  -20.7252   17.9545 S   0  0  0  0  0  0  0  0  0  0  0  0
    9.6191  -20.6479   18.2655 C   0  0  0  0  0  0  0  0  0  0  0  0
   10.0175  -19.2967   18.7708 C   0  0  0  0  0  0  0  0  0  0  0  0
    9.5250  -19.1199   20.1903 C   0  0  2  0  0  0  0  0  0  0  0  0
    8.1367  -19.4496   20.3352 N   0  0  0  0  0  0  0  0  0  0  0  0
    9.8514  -17.7544   20.6265 C   0  0  0  0  0  0  0  0  0  0  0  0
   11.0299  -17.3517   20.4422 O   0  0  0  0  0  0  0  0  0  0  0  0
    8.9389  -16.8576   21.2390 N   0  0  0  0  0  0  0  0  0  0  0  0
    9.3376  -15.4883   21.5418 C   0  0  1  0  0  0  0  0  0  0  0  0
    8.0591  -14.6481   21.4082 C   0  0  0  0  0  0  0  0  0  0  0  0
    6.6708  -15.3394   22.3061 S   0  0  0  0  0  0  0  0  0  0  0  0
    9.8599  -15.4143   22.9311 C   0  0  0  0  0  0  0  0  0  0  0  0
   10.5587  -14.3990   23.2742 O   0  0  0  0  0  0  0  0  0  0  0  0
    9.6560  -16.3761   23.9363 N   0  0  0  0  0  0  0  0  0  0  0  0
   10.3899  -16.4097   25.1871 C   0  0  1  0  0  0  0  0  0  0  0  0
    9.9948  -15.1277   25.9338 C   0  0  0  0  0  0  0  0  0  0  0  0
    8.5437  -15.0087   26.0735 C   0  0  0  0  0  0  0  0  0  0  0  0
    7.6570  -16.0630   26.0227 C   0  0  0  0  0  0  0  0  0  0  0  0
    6.4163  -15.5633   26.1906 N   0  0  0  0  0  0  0  0  0  0  0  0
    6.5026  -14.2244   26.3451 C   0  0  0  0  0  0  0  0  0  0  0  0
    5.5652  -13.2204   26.5479 C   0  0  0  0  0  0  0  0  0  0  0  0
    5.9225  -11.8934   26.6777 C   0  0  0  0  0  0  0  0  0  0  0  0
    7.2695  -11.5456   26.6030 C   0  0  0  0  0  0  0  0  0  0  0  0
    8.2289  -12.5153   26.4026 C   0  0  0  0  0  0  0  0  0  0  0  0
    7.8497  -13.8504   26.2738 C   0  0  0  0  0  0  0  0  0  0  0  0
    9.9957  -17.5897   25.9917 C   0  0  0  0  0  0  0  0  0  0  0  0
   10.4486  -17.8176   27.1456 O   0  0  0  0  0  0  0  0  0  0  0  0
    9.0888  -18.5151   25.4955 O   0  0  0  0  0  0  0  0  0  0  0  0
  2  1  1  0
  3  2  1  0
  4  3  1  0
  4  5  1  0
  5  6  1  6
  7  5  1  0
  7  8  2  0
  9 10  1  0
  9  7  1  0
 10 13  1  0
 11 12  1  0
 10 11  1  1
 13 15  1  0
 14 13  2  0
 15 16  1  0
 16 27  1  0
 16 17  1  1
 18 17  1  0
 19 18  2  0
 20 21  1  0
 20 19  1  0
 21 26  2  0
 22 23  2  0
 22 21  1  0
 23 24  1  0
 24 25  2  0
 26 18  1  0
 26 25  1  0
 27 28  2  0
 27 29  1  0
M  END
$$$$
