MCW.pdb
     RDKit          3D

 29 30  0  0  1  0  0  0  0  0999 V2000
    8.4835  -12.1581   20.8600 C   0  0  0  0  0  0  0  0  0  0  0  0
    6.9390  -12.8177   20.2065 S   0  0  0  0  0  0  0  0  0  0  0  0
    7.0705  -14.5942   19.8890 C   0  0  0  0  0  0  0  0  0  0  0  0
    8.4483  -14.9570   19.4309 C   0  0  0  0  0  0  0  0  0  0  0  0
    8.5498  -16.4574   19.2655 C   0  0  2  0  0  0  0  0  0  0  0  0
    7.5154  -16.9888   18.4260 N   0  0  0  0  0  0  0  0  0  0  0  0
    8.5912  -17.0683   20.6021 C   0  0  0  0  0  0  0  0  0  0  0  0
    7.4971  -17.4277   21.1109 O   0  0  0  0  0  0  0  0  0  0  0  0
    9.7704  -17.2830   21.3607 N   0  0  0  0  0  0  0  0  0  0  0  0
    9.7141  -17.9993   22.6293 C   0  0  1  0  0  0  0  0  0  0  0  0
   10.7155  -19.1557   22.4939 C   0  0  0  0  0  0  0  0  0  0  0  0
   10.8120  -20.1734   23.9658 S   0  0  0  0  0  0  0  0  0  0  0  0
   10.1202  -17.0930   23.7348 C   0  0  0  0  0  0  0  0  0  0  0  0
   11.0254  -16.2165   23.5129 O   0  0  0  0  0  0  0  0  0  0  0  0
    9.5929  -17.1018   25.0381 N   0  0  0  0  0  0  0  0  0  0  0  0
   10.1585  -16.3562   26.1466 C   0  0  1  0  0  0  0  0  0  0  0  0
    8.9927  -16.1022   27.1127 C   0  0  0  0  0  0  0  0  0  0  0  0
    7.9249  -15.3284   26.4799 C   0  0  0  0  0  0  0  0  0  0  0  0
    6.8485  -15.8699   25.8102 C   0  0  0  0  0  0  0  0  0  0  0  0
    6.0850  -14.8500   25.3695 N   0  0  0  0  0  0  0  0  0  0  0  0
    6.6547  -13.6846   25.7454 C   0  0  0  0  0  0  0  0  0  0  0  0
    6.3134  -12.3502   25.5699 C   0  0  0  0  0  0  0  0  0  0  0  0
    7.0862  -11.3201   26.0666 C   0  0  0  0  0  0  0  0  0  0  0  0
    8.2500  -11.6259   26.7689 C   0  0  0  0  0  0  0  0  0  0  0  0
    8.6211  -12.9396   26.9631 C   0  0  0  0  0  0  0  0  0  0  0  0
    7.8283  -13.9670   26.4543 C   0  0  0  0  0  0  0  0  0  0  0  0
   11.2022  -17.1532   26.8328 C   0  0  0  0  0  0  0  0  0  0  0  0
   11.8770  -16.7133   27.8022 O   0  0  0  0  0  0  0  0  0  0  0  0
   11.4863  -18.4490   26.4263 O   0  0  0  0  0  0  0  0  0  0  0  0
  2  1  1  0
  3  2  1  0
  4  3  1  0
  4  5  1  0
  5  6  1  1
  7  5  1  0
  7  8  2  0
  9 10  1  0
  9  7  1  0
 10 13  1  0
 11 12  1  0
 10 11  1  6
 13 15  1  0
 14 13  2  0
 15 16  1  0
 16 27  1  0
 16 17  1  1
 18 17  1  0
 19 18  2  0
 20 21  1  0
 20 19  1  0
 21 26  2  0
 22 23  2  0
 22 21  1  0
 23 24  1  0
 24 25  2  0
 26 18  1  0
 26 25  1  0
 27 28  2  0
 27 29  1  0
M  END
$$$$
