KYS.pdb
     RDKit          3D

 28 28  0  0  1  0  0  0  0  0999 V2000
   28.1080  -22.5788  -17.5331 N   0  0  0  0  0  0  0  0  0  0  0  0
   27.3563  -21.4749  -17.0749 C   0  0  1  0  0  0  0  0  0  0  0  0
   26.5016  -20.7626  -18.0503 C   0  0  0  0  0  0  0  0  0  0  0  0
   26.9168  -19.4529  -18.5578 C   0  0  0  0  0  0  0  0  0  0  0  0
   28.1377  -19.3524  -19.3869 C   0  0  0  0  0  0  0  0  0  0  0  0
   28.5230  -17.9384  -19.7554 C   0  0  0  0  0  0  0  0  0  0  0  0
   29.7312  -18.0132  -20.5639 N   0  0  0  0  0  0  0  0  0  0  0  0
   26.6808  -21.7913  -15.8014 C   0  0  0  0  0  0  0  0  0  0  0  0
   25.9399  -22.8047  -15.6538 O   0  0  0  0  0  0  0  0  0  0  0  0
   24.7062  -20.5410   -7.2918 O   0  0  0  0  0  0  0  0  0  0  0  0
   25.2233  -20.5114   -8.5864 C   0  0  0  0  0  0  0  0  0  0  0  0
   24.7024  -21.2865   -9.5928 C   0  0  0  0  0  0  0  0  0  0  0  0
   25.2828  -21.1864  -10.8379 C   0  0  0  0  0  0  0  0  0  0  0  0
   26.3406  -20.3440  -11.0605 C   0  0  0  0  0  0  0  0  0  0  0  0
   26.9177  -20.2946  -12.4256 C   0  0  0  0  0  0  0  0  0  0  0  0
   26.1568  -21.1338  -13.4285 C   0  0  2  0  0  0  0  0  0  0  0  0
   26.8472  -20.9543  -14.6966 N   0  0  0  0  0  0  0  0  0  0  0  0
   24.7458  -20.7037  -13.5476 C   0  0  0  0  0  0  0  0  0  0  0  0
   24.4067  -19.5829  -14.0035 O   0  0  0  0  0  0  0  0  0  0  0  0
   26.8495  -19.5803  -10.0574 C   0  0  0  0  0  0  0  0  0  0  0  0
   26.2928  -19.6570   -8.8038 C   0  0  0  0  0  0  0  0  0  0  0  0
   21.8099  -22.4477  -15.0433 O   0  0  0  0  0  0  0  0  0  0  0  0
   21.3610  -22.1570  -13.7593 C   0  0  0  0  0  0  0  0  0  0  0  0
   22.2760  -21.1072  -13.1751 C   0  0  2  0  0  0  0  0  0  0  0  0
   23.6556  -21.5508  -13.1447 N   0  0  0  0  0  0  0  0  0  0  0  0
   21.7879  -20.6672  -11.8672 C   0  0  0  0  0  0  0  0  0  0  0  0
   22.4913  -20.7068  -10.8329 O   0  0  0  0  0  0  0  0  0  0  0  0
   20.4926  -20.1830  -11.7521 O   0  0  0  0  0  0  0  0  0  0  0  0
  2  1  1  6
  2  3  1  0
  3  4  1  0
  4  5  1  0
  5  6  1  0
  6  7  1  0
  8  2  1  0
  9  8  2  0
 10 11  1  0
 11 21  2  0
 11 12  1  0
 12 13  2  0
 13 14  1  0
 14 15  1  0
 16 15  1  1
 16 17  1  0
 17  8  1  0
 18 16  1  0
 18 19  2  0
 20 14  2  0
 21 20  1  0
 22 23  1  0
 24 23  1  1
 24 25  1  0
 25 18  1  0
 26 24  1  0
 27 26  2  0
 28 26  1  0
M  END
$$$$
