KYS.pdb
     RDKit          3D

 28 28  0  0  1  0  0  0  0  0999 V2000
   27.6649  -20.6592  -17.1977 N   0  0  0  0  0  0  0  0  0  0  0  0
   27.9198  -21.9010  -16.5761 C   0  0  1  0  0  0  0  0  0  0  0  0
   29.3233  -22.3621  -16.4933 C   0  0  0  0  0  0  0  0  0  0  0  0
   29.8946  -23.1471  -17.5899 C   0  0  0  0  0  0  0  0  0  0  0  0
   29.0829  -24.2139  -18.2152 C   0  0  0  0  0  0  0  0  0  0  0  0
   29.7812  -24.9492  -19.3356 C   0  0  0  0  0  0  0  0  0  0  0  0
   28.8228  -25.8846  -19.9061 N   0  0  0  0  0  0  0  0  0  0  0  0
   27.1725  -22.0176  -15.3087 C   0  0  0  0  0  0  0  0  0  0  0  0
   27.6946  -22.4584  -14.2453 O   0  0  0  0  0  0  0  0  0  0  0  0
   22.9264  -20.4850   -8.1906 O   0  0  0  0  0  0  0  0  0  0  0  0
   23.5841  -20.5484   -9.4184 C   0  0  0  0  0  0  0  0  0  0  0  0
   23.0119  -20.0734  -10.5725 C   0  0  0  0  0  0  0  0  0  0  0  0
   23.7419  -20.1816  -11.7355 C   0  0  0  0  0  0  0  0  0  0  0  0
   24.9920  -20.7430  -11.7374 C   0  0  0  0  0  0  0  0  0  0  0  0
   25.7151  -20.8313  -13.0290 C   0  0  0  0  0  0  0  0  0  0  0  0
   25.0159  -21.7032  -14.0487 C   0  0  2  0  0  0  0  0  0  0  0  0
   25.8316  -21.6339  -15.2516 N   0  0  0  0  0  0  0  0  0  0  0  0
   23.6438  -21.2264  -14.3316 C   0  0  0  0  0  0  0  0  0  0  0  0
   23.3980  -20.2552  -15.0901 O   0  0  0  0  0  0  0  0  0  0  0  0
   25.5503  -21.2106  -10.5893 C   0  0  0  0  0  0  0  0  0  0  0  0
   24.8480  -21.1173   -9.4122 C   0  0  0  0  0  0  0  0  0  0  0  0
   20.3130  -22.9465  -16.4566 O   0  0  0  0  0  0  0  0  0  0  0  0
   21.5150  -22.8604  -15.7621 C   0  0  0  0  0  0  0  0  0  0  0  0
   21.2649  -22.0716  -14.4988 C   0  0  2  0  0  0  0  0  0  0  0  0
   22.4862  -21.8512  -13.7500 N   0  0  0  0  0  0  0  0  0  0  0  0
   20.2096  -22.6971  -13.7003 C   0  0  0  0  0  0  0  0  0  0  0  0
   20.4094  -23.1555  -12.5531 O   0  0  0  0  0  0  0  0  0  0  0  0
   18.9278  -22.7938  -14.2230 O   0  0  0  0  0  0  0  0  0  0  0  0
  2  1  1  1
  2  3  1  0
  3  4  1  0
  4  5  1  0
  5  6  1  0
  6  7  1  0
  8  2  1  0
  9  8  2  0
 10 11  1  0
 11 21  2  0
 11 12  1  0
 12 13  2  0
 13 14  1  0
 14 15  1  0
 16 15  1  1
 16 17  1  0
 17  8  1  0
 18 16  1  0
 18 19  2  0
 20 14  2  0
 21 20  1  0
 22 23  1  0
 24 23  1  6
 24 25  1  0
 25 18  1  0
 26 24  1  0
 27 26  2  0
 28 26  1  0
M  END
$$$$
