KYS.pdb
     RDKit          3D

 28 28  0  0  1  0  0  0  0  0999 V2000
   29.7849  -24.6884  -15.8090 N   0  0  0  0  0  0  0  0  0  0  0  0
   29.8268  -24.4426  -17.1987 C   0  0  1  0  0  0  0  0  0  0  0  0
   30.9797  -24.9672  -17.9634 C   0  0  0  0  0  0  0  0  0  0  0  0
   32.2527  -25.2099  -17.2807 C   0  0  0  0  0  0  0  0  0  0  0  0
   33.4490  -25.5514  -18.0808 C   0  0  0  0  0  0  0  0  0  0  0  0
   34.6942  -25.7983  -17.2611 C   0  0  0  0  0  0  0  0  0  0  0  0
   35.7671  -26.1282  -18.1880 N   0  0  0  0  0  0  0  0  0  0  0  0
   28.5170  -24.7177  -17.8208 C   0  0  0  0  0  0  0  0  0  0  0  0
   28.3120  -24.6013  -19.0626 O   0  0  0  0  0  0  0  0  0  0  0  0
   28.7824  -29.6955  -21.6527 O   0  0  0  0  0  0  0  0  0  0  0  0
   28.1001  -29.0536  -20.6199 C   0  0  0  0  0  0  0  0  0  0  0  0
   26.7658  -28.7444  -20.7151 C   0  0  0  0  0  0  0  0  0  0  0  0
   26.1819  -28.1100  -19.6410 C   0  0  0  0  0  0  0  0  0  0  0  0
   26.9082  -27.8002  -18.5209 C   0  0  0  0  0  0  0  0  0  0  0  0
   26.2128  -27.1110  -17.4072 C   0  0  0  0  0  0  0  0  0  0  0  0
   26.1758  -25.6066  -17.5635 C   0  0  2  0  0  0  0  0  0  0  0  0
   27.4406  -25.1240  -17.0302 N   0  0  0  0  0  0  0  0  0  0  0  0
   25.0444  -25.0044  -16.8235 C   0  0  0  0  0  0  0  0  0  0  0  0
   24.9917  -24.9598  -15.5688 O   0  0  0  0  0  0  0  0  0  0  0  0
   28.2291  -28.1105  -18.4361 C   0  0  0  0  0  0  0  0  0  0  0  0
   28.8413  -28.7437  -19.4904 C   0  0  0  0  0  0  0  0  0  0  0  0
   21.2943  -21.9919  -16.8169 O   0  0  0  0  0  0  0  0  0  0  0  0
   22.2565  -22.6213  -17.5996 C   0  0  0  0  0  0  0  0  0  0  0  0
   22.8473  -23.7502  -16.7889 C   0  0  2  0  0  0  0  0  0  0  0  0
   23.9163  -24.4228  -17.5001 N   0  0  0  0  0  0  0  0  0  0  0  0
   21.7979  -24.6647  -16.3362 C   0  0  0  0  0  0  0  0  0  0  0  0
   21.3709  -25.6076  -17.0394 O   0  0  0  0  0  0  0  0  0  0  0  0
   21.2425  -24.4924  -15.0762 O   0  0  0  0  0  0  0  0  0  0  0  0
  2  1  1  1
  2  3  1  0
  3  4  1  0
  4  5  1  0
  5  6  1  0
  6  7  1  0
  8  2  1  0
  9  8  2  0
 10 11  1  0
 11 21  2  0
 11 12  1  0
 12 13  2  0
 13 14  1  0
 14 15  1  0
 16 15  1  1
 16 17  1  0
 17  8  1  0
 18 16  1  0
 18 19  2  0
 20 14  2  0
 21 20  1  0
 22 23  1  0
 24 23  1  6
 24 25  1  0
 25 18  1  0
 26 24  1  0
 27 26  2  0
 28 26  1  0
M  END
$$$$
