KYS.pdb
     RDKit          3D

 28 28  0  0  1  0  0  0  0  0999 V2000
   27.0765  -23.0752  -16.7085 N   0  0  0  0  0  0  0  0  0  0  0  0
   26.3455  -21.8707  -16.6164 C   0  0  1  0  0  0  0  0  0  0  0  0
   25.9708  -21.1868  -17.8739 C   0  0  0  0  0  0  0  0  0  0  0  0
   27.0181  -20.6796  -18.7634 C   0  0  0  0  0  0  0  0  0  0  0  0
   28.4160  -21.1174  -18.5582 C   0  0  0  0  0  0  0  0  0  0  0  0
   29.4106  -20.4804  -19.5008 C   0  0  0  0  0  0  0  0  0  0  0  0
   30.7401  -20.8907  -19.0730 N   0  0  0  0  0  0  0  0  0  0  0  0
   25.2383  -22.0006  -15.6492 C   0  0  0  0  0  0  0  0  0  0  0  0
   24.5692  -23.0645  -15.5147 O   0  0  0  0  0  0  0  0  0  0  0  0
   20.7700  -19.8683   -8.3803 O   0  0  0  0  0  0  0  0  0  0  0  0
   21.6626  -19.9213   -9.4502 C   0  0  0  0  0  0  0  0  0  0  0  0
   22.8488  -20.6080   -9.3710 C   0  0  0  0  0  0  0  0  0  0  0  0
   23.6632  -20.6008  -10.4818 C   0  0  0  0  0  0  0  0  0  0  0  0
   23.3003  -19.9322  -11.6217 C   0  0  0  0  0  0  0  0  0  0  0  0
   24.2315  -19.9637  -12.7753 C   0  0  0  0  0  0  0  0  0  0  0  0
   23.8288  -20.9567  -13.8435 C   0  0  2  0  0  0  0  0  0  0  0  0
   24.8918  -20.9200  -14.8362 N   0  0  0  0  0  0  0  0  0  0  0  0
   22.5340  -20.6005  -14.4655 C   0  0  0  0  0  0  0  0  0  0  0  0
   22.3894  -19.6152  -15.2319 O   0  0  0  0  0  0  0  0  0  0  0  0
   22.1234  -19.2550  -11.6905 C   0  0  0  0  0  0  0  0  0  0  0  0
   21.2886  -19.2428  -10.5995 C   0  0  0  0  0  0  0  0  0  0  0  0
   20.3116  -22.3571  -16.6745 O   0  0  0  0  0  0  0  0  0  0  0  0
   19.4519  -22.1021  -15.6112 C   0  0  0  0  0  0  0  0  0  0  0  0
   20.0547  -20.9917  -14.7840 C   0  0  2  0  0  0  0  0  0  0  0  0
   21.3406  -21.3682  -14.2311 N   0  0  0  0  0  0  0  0  0  0  0  0
   19.1072  -20.5332  -13.7668 C   0  0  0  0  0  0  0  0  0  0  0  0
   19.2961  -20.6989  -12.5409 O   0  0  0  0  0  0  0  0  0  0  0  0
   17.9454  -19.8855  -14.1621 O   0  0  0  0  0  0  0  0  0  0  0  0
  2  1  1  6
  2  3  1  0
  3  4  1  0
  4  5  1  0
  5  6  1  0
  6  7  1  0
  8  2  1  0
  9  8  2  0
 10 11  1  0
 11 21  2  0
 11 12  1  0
 12 13  2  0
 13 14  1  0
 14 15  1  0
 16 15  1  1
 16 17  1  0
 17  8  1  0
 18 16  1  0
 18 19  2  0
 20 14  2  0
 21 20  1  0
 22 23  1  0
 24 23  1  1
 24 25  1  0
 25 18  1  0
 26 24  1  0
 27 26  2  0
 28 26  1  0
M  END
$$$$
