KYS.pdb
     RDKit          3D

 28 28  0  0  1  0  0  0  0  0999 V2000
   20.9412  -10.2205  -18.6190 N   0  0  0  0  0  0  0  0  0  0  0  0
   20.7922   -8.8172  -18.6662 C   0  0  1  0  0  0  0  0  0  0  0  0
   19.7299   -8.2594  -19.5320 C   0  0  0  0  0  0  0  0  0  0  0  0
   18.9407   -9.1555  -20.3803 C   0  0  0  0  0  0  0  0  0  0  0  0
   17.5487   -8.7891  -20.7212 C   0  0  0  0  0  0  0  0  0  0  0  0
   17.4230   -7.5308  -21.5485 C   0  0  0  0  0  0  0  0  0  0  0  0
   16.0080   -7.3325  -21.8269 N   0  0  0  0  0  0  0  0  0  0  0  0
   20.8273   -8.2390  -17.3087 C   0  0  0  0  0  0  0  0  0  0  0  0
   20.2324   -8.7657  -16.3257 O   0  0  0  0  0  0  0  0  0  0  0  0
   25.1090  -11.5454  -14.6316 O   0  0  0  0  0  0  0  0  0  0  0  0
   24.6148  -10.2612  -14.8571 C   0  0  0  0  0  0  0  0  0  0  0  0
   24.9364   -9.5487  -15.9857 C   0  0  0  0  0  0  0  0  0  0  0  0
   24.3977   -8.2878  -16.1168 C   0  0  0  0  0  0  0  0  0  0  0  0
   23.5723   -7.7668  -15.1549 C   0  0  0  0  0  0  0  0  0  0  0  0
   23.0355   -6.4001  -15.3620 C   0  0  0  0  0  0  0  0  0  0  0  0
   21.5824   -6.3845  -15.7829 C   0  0  2  0  0  0  0  0  0  0  0  0
   21.5379   -7.0615  -17.0701 N   0  0  0  0  0  0  0  0  0  0  0  0
   21.0615   -5.0052  -15.9109 C   0  0  0  0  0  0  0  0  0  0  0  0
   21.2845   -4.2781  -16.9113 O   0  0  0  0  0  0  0  0  0  0  0  0
   23.2596   -8.4802  -14.0405 C   0  0  0  0  0  0  0  0  0  0  0  0
   23.7806   -9.7412  -13.8799 C   0  0  0  0  0  0  0  0  0  0  0  0
   17.9303   -1.6143  -14.5943 O   0  0  0  0  0  0  0  0  0  0  0  0
   18.3967   -2.8984  -14.3330 C   0  0  0  0  0  0  0  0  0  0  0  0
   19.7432   -3.0471  -15.0004 C   0  0  2  0  0  0  0  0  0  0  0  0
   20.2554   -4.3982  -14.8861 N   0  0  0  0  0  0  0  0  0  0  0  0
   20.6793   -2.0369  -14.5045 C   0  0  0  0  0  0  0  0  0  0  0  0
   21.6328   -2.3126  -13.7424 O   0  0  0  0  0  0  0  0  0  0  0  0
   20.5164   -0.7128  -14.8862 O   0  0  0  0  0  0  0  0  0  0  0  0
  2  1  1  1
  2  3  1  0
  3  4  1  0
  4  5  1  0
  5  6  1  0
  6  7  1  0
  8  2  1  0
  9  8  2  0
 10 11  1  0
 11 21  2  0
 11 12  1  0
 12 13  2  0
 13 14  1  0
 14 15  1  0
 16 15  1  6
 16 17  1  0
 17  8  1  0
 18 16  1  0
 18 19  2  0
 20 14  2  0
 21 20  1  0
 22 23  1  0
 24 23  1  1
 24 25  1  0
 25 18  1  0
 26 24  1  0
 27 26  2  0
 28 26  1  0
M  END
$$$$
