KYS.pdb
     RDKit          3D

 28 28  0  0  1  0  0  0  0  0999 V2000
   25.1531  -19.9162  -18.9445 N   0  0  0  0  0  0  0  0  0  0  0  0
   25.9876  -20.2500  -17.8556 C   0  0  1  0  0  0  0  0  0  0  0  0
   27.3930  -19.7885  -17.8894 C   0  0  0  0  0  0  0  0  0  0  0  0
   28.4168  -20.6272  -18.5168 C   0  0  0  0  0  0  0  0  0  0  0  0
   28.4876  -20.7000  -19.9925 C   0  0  0  0  0  0  0  0  0  0  0  0
   29.5991  -21.5786  -20.5179 C   0  0  0  0  0  0  0  0  0  0  0  0
   29.4709  -21.6227  -21.9673 N   0  0  0  0  0  0  0  0  0  0  0  0
   25.3027  -19.9993  -16.5724 C   0  0  0  0  0  0  0  0  0  0  0  0
   25.0411  -18.8360  -16.1531 O   0  0  0  0  0  0  0  0  0  0  0  0
   18.9740  -18.6577  -17.1395 O   0  0  0  0  0  0  0  0  0  0  0  0
   19.9773  -19.4225  -16.5457 C   0  0  0  0  0  0  0  0  0  0  0  0
   20.7458  -20.2989  -17.2712 C   0  0  0  0  0  0  0  0  0  0  0  0
   21.7118  -21.0092  -16.5933 C   0  0  0  0  0  0  0  0  0  0  0  0
   21.8963  -20.8451  -15.2453 C   0  0  0  0  0  0  0  0  0  0  0  0
   22.9514  -21.6493  -14.5827 C   0  0  0  0  0  0  0  0  0  0  0  0
   24.2746  -20.9245  -14.4691 C   0  0  2  0  0  0  0  0  0  0  0  0
   24.9169  -21.0716  -15.7663 N   0  0  0  0  0  0  0  0  0  0  0  0
   25.1280  -21.5010  -13.4063 C   0  0  0  0  0  0  0  0  0  0  0  0
   25.6064  -22.6614  -13.4650 O   0  0  0  0  0  0  0  0  0  0  0  0
   21.1303  -19.9747  -14.5354 C   0  0  0  0  0  0  0  0  0  0  0  0
   20.1580  -19.2509  -15.1822 C   0  0  0  0  0  0  0  0  0  0  0  0
   27.9941  -19.8947  -11.6794 O   0  0  0  0  0  0  0  0  0  0  0  0
   27.7206  -21.2211  -11.3626 C   0  0  0  0  0  0  0  0  0  0  0  0
   26.2328  -21.3460  -11.1355 C   0  0  2  0  0  0  0  0  0  0  0  0
   25.4707  -20.7617  -12.2211 N   0  0  0  0  0  0  0  0  0  0  0  0
   25.8641  -20.8093   -9.8245 C   0  0  0  0  0  0  0  0  0  0  0  0
   24.9801  -19.9365   -9.6737 O   0  0  0  0  0  0  0  0  0  0  0  0
   26.5128  -21.2777   -8.6907 O   0  0  0  0  0  0  0  0  0  0  0  0
  2  1  1  6
  2  3  1  0
  3  4  1  0
  4  5  1  0
  5  6  1  0
  6  7  1  0
  8  2  1  0
  9  8  2  0
 10 11  1  0
 11 21  2  0
 11 12  1  0
 12 13  2  0
 13 14  1  0
 14 15  1  0
 16 15  1  6
 16 17  1  0
 17  8  1  0
 18 16  1  0
 18 19  2  0
 20 14  2  0
 21 20  1  0
 22 23  1  0
 24 23  1  6
 24 25  1  0
 25 18  1  0
 26 24  1  0
 27 26  2  0
 28 26  1  0
M  END
$$$$
