QKI.pdb
     RDKit          3D

 27 26  0  0  1  0  0  0  0  0999 V2000
    9.0956  -12.9110   18.1734 N   0  0  0  0  0  0  0  0  0  0  0  0
    8.4462  -13.8061   17.2928 C   0  0  0  0  0  0  0  0  0  0  0  0
    8.2000  -13.4437   16.1184 O   0  0  0  0  0  0  0  0  0  0  0  0
    8.0581  -15.1589   17.7512 C   0  0  0  0  0  0  0  0  0  0  0  0
    8.5230  -15.3535   19.1798 C   0  0  0  0  0  0  0  0  0  0  0  0
    8.2209  -16.7292   19.6945 C   0  0  2  0  0  0  0  0  0  0  0  0
    7.5231  -17.5320   18.7099 N   0  0  0  0  0  0  0  0  0  0  0  0
    7.3495  -16.5541   20.9118 C   0  0  0  0  0  0  0  0  0  0  0  0
    6.3332  -15.8126   20.8688 O   0  0  0  0  0  0  0  0  0  0  0  0
    7.6777  -17.2298   22.1046 N   0  0  0  0  0  0  0  0  0  0  0  0
    7.0843  -16.9973   23.3801 C   0  0  1  0  0  0  0  0  0  0  0  0
    6.6483  -18.3013   23.9841 C   0  0  0  0  0  0  0  0  0  0  0  0
    7.6610  -19.3454   23.5524 C   0  0  0  0  0  0  0  0  0  0  0  0
    8.1361  -20.2358   24.6578 C   0  0  0  0  0  0  0  0  0  0  0  0
    9.2030  -21.1596   24.0398 C   0  0  0  0  0  0  0  0  0  0  0  0
    9.7643  -22.0072   25.0409 N   0  0  0  0  0  0  0  0  0  0  0  0
    8.0006  -16.2166   24.2877 C   0  0  0  0  0  0  0  0  0  0  0  0
    9.2368  -16.2687   24.0654 O   0  0  0  0  0  0  0  0  0  0  0  0
    6.0269  -11.4901   26.0136 C   0  0  0  0  0  0  0  0  0  0  0  0
    6.9356  -12.6087   25.5842 C   0  0  0  0  0  0  0  0  0  0  0  0
    7.3635  -13.4605   26.7613 C   0  0  2  0  0  0  0  0  0  0  0  0
    8.2786  -12.5888   27.6304 C   0  0  0  0  0  0  0  0  0  0  0  0
    8.1226  -14.6749   26.3462 C   0  0  2  0  0  0  0  0  0  0  0  0
    7.4889  -15.4550   25.3497 N   0  0  0  0  0  0  0  0  0  0  0  0
    8.7103  -15.3028   27.5229 C   0  0  0  0  0  0  0  0  0  0  0  0
    9.8452  -14.9689   28.2152 O   0  0  0  0  0  0  0  0  0  0  0  0
    8.1095  -16.3431   28.0405 O   0  0  0  0  0  0  0  0  0  0  0  0
  2  1  1  0
  2  3  2  0
  4  5  1  0
  4  2  1  0
  5  6  1  0
  6  8  1  0
  6  7  1  6
  8  9  2  0
 10 11  1  0
 10  8  1  0
 12 13  1  0
 11 12  1  1
 13 14  1  0
 14 15  1  0
 16 15  1  0
 17 18  2  0
 17 11  1  0
 19 20  1  0
 20 21  1  0
 21 23  1  0
 21 22  1  1
 23 25  1  0
 23 24  1  1
 24 17  1  0
 25 26  1  0
 27 25  2  0
M  END
$$$$
