QKI.pdb
     RDKit          3D

 27 26  0  0  1  0  0  0  0  0999 V2000
    7.6794  -12.4709   16.9536 N   0  0  0  0  0  0  0  0  0  0  0  0
    7.7510  -13.8795   16.8577 C   0  0  0  0  0  0  0  0  0  0  0  0
    7.1213  -14.4669   15.9468 O   0  0  0  0  0  0  0  0  0  0  0  0
    8.5601  -14.6563   17.8235 C   0  0  0  0  0  0  0  0  0  0  0  0
    9.1749  -13.7093   18.8337 C   0  0  0  0  0  0  0  0  0  0  0  0
    9.9749  -14.4308   19.8768 C   0  0  2  0  0  0  0  0  0  0  0  0
   10.6120  -15.6179   19.3424 N   0  0  0  0  0  0  0  0  0  0  0  0
    9.0108  -14.8232   20.9669 C   0  0  0  0  0  0  0  0  0  0  0  0
    8.2260  -13.9727   21.4624 O   0  0  0  0  0  0  0  0  0  0  0  0
    8.9895  -16.1543   21.4302 N   0  0  0  0  0  0  0  0  0  0  0  0
    8.2912  -16.6208   22.5825 C   0  0  1  0  0  0  0  0  0  0  0  0
    8.2299  -18.1212   22.5681 C   0  0  0  0  0  0  0  0  0  0  0  0
    7.5307  -18.5442   23.8465 C   0  0  0  0  0  0  0  0  0  0  0  0
    7.2975  -20.0183   23.9616 C   0  0  0  0  0  0  0  0  0  0  0  0
    6.5539  -20.2352   25.2933 C   0  0  0  0  0  0  0  0  0  0  0  0
    6.3530  -21.6283   25.5273 N   0  0  0  0  0  0  0  0  0  0  0  0
    8.8899  -16.0780   23.8552 C   0  0  0  0  0  0  0  0  0  0  0  0
   10.1341  -16.1711   24.0092 O   0  0  0  0  0  0  0  0  0  0  0  0
    5.6422  -12.1759   25.9981 C   0  0  0  0  0  0  0  0  0  0  0  0
    6.7920  -13.0011   25.4898 C   0  0  0  0  0  0  0  0  0  0  0  0
    7.3336  -13.9216   26.5639 C   0  0  2  0  0  0  0  0  0  0  0  0
    7.9413  -13.0259   27.6507 C   0  0  0  0  0  0  0  0  0  0  0  0
    8.3966  -14.8352   26.0555 C   0  0  2  0  0  0  0  0  0  0  0  0
    8.0822  -15.4874   24.8394 N   0  0  0  0  0  0  0  0  0  0  0  0
    8.9715  -15.5755   27.1716 C   0  0  0  0  0  0  0  0  0  0  0  0
   10.0005  -15.2317   28.0093 O   0  0  0  0  0  0  0  0  0  0  0  0
    8.4720  -16.7483   27.4655 O   0  0  0  0  0  0  0  0  0  0  0  0
  2  1  1  0
  2  3  2  0
  4  5  1  0
  4  2  1  0
  5  6  1  0
  6  8  1  0
  6  7  1  6
  8  9  2  0
 10 11  1  0
 10  8  1  0
 12 13  1  0
 11 12  1  1
 13 14  1  0
 14 15  1  0
 16 15  1  0
 17 18  2  0
 17 11  1  0
 19 20  1  0
 20 21  1  0
 21 23  1  0
 21 22  1  1
 23 25  1  0
 23 24  1  6
 24 17  1  0
 25 26  1  0
 27 25  2  0
M  END
$$$$
