QKI.pdb
     RDKit          3D

 27 26  0  0  1  0  0  0  0  0999 V2000
    9.4671  -13.4885   18.1850 N   0  0  0  0  0  0  0  0  0  0  0  0
    9.2499  -12.9317   19.4661 C   0  0  0  0  0  0  0  0  0  0  0  0
   10.1439  -12.2262   19.9899 O   0  0  0  0  0  0  0  0  0  0  0  0
    7.9800  -13.1788   20.1851 C   0  0  0  0  0  0  0  0  0  0  0  0
    7.1020  -14.0864   19.3482 C   0  0  0  0  0  0  0  0  0  0  0  0
    7.3166  -15.5364   19.6650 C   0  0  2  0  0  0  0  0  0  0  0  0
    6.4513  -16.3938   18.8797 N   0  0  0  0  0  0  0  0  0  0  0  0
    7.0046  -15.7101   21.1294 C   0  0  0  0  0  0  0  0  0  0  0  0
    6.1014  -15.0243   21.6759 O   0  0  0  0  0  0  0  0  0  0  0  0
    7.7304  -16.6506   21.8880 N   0  0  0  0  0  0  0  0  0  0  0  0
    7.4997  -16.9661   23.2593 C   0  0  1  0  0  0  0  0  0  0  0  0
    7.7573  -18.4265   23.4961 C   0  0  0  0  0  0  0  0  0  0  0  0
    7.5411  -18.6758   24.9771 C   0  0  0  0  0  0  0  0  0  0  0  0
    7.7317  -20.1003   25.3956 C   0  0  0  0  0  0  0  0  0  0  0  0
    7.4902  -20.1394   26.9167 C   0  0  0  0  0  0  0  0  0  0  0  0
    7.1554  -21.4630   27.3312 N   0  0  0  0  0  0  0  0  0  0  0  0
    8.3021  -16.0802   24.1781 C   0  0  0  0  0  0  0  0  0  0  0  0
    9.5171  -15.8990   23.9113 O   0  0  0  0  0  0  0  0  0  0  0  0
    5.5470  -11.9578   26.6462 C   0  0  0  0  0  0  0  0  0  0  0  0
    6.6299  -12.7737   25.9958 C   0  0  0  0  0  0  0  0  0  0  0  0
    7.2519  -13.7511   26.9715 C   0  0  2  0  0  0  0  0  0  0  0  0
    7.9791  -12.9163   28.0330 C   0  0  0  0  0  0  0  0  0  0  0  0
    8.2421  -14.6583   26.3237 C   0  0  2  0  0  0  0  0  0  0  0  0
    7.7105  -15.4765   25.2985 N   0  0  0  0  0  0  0  0  0  0  0  0
    9.1236  -15.2165   27.3414 C   0  0  0  0  0  0  0  0  0  0  0  0
   10.2312  -14.6673   27.9333 O   0  0  0  0  0  0  0  0  0  0  0  0
    8.8696  -16.4163   27.7967 O   0  0  0  0  0  0  0  0  0  0  0  0
  2  1  1  0
  2  3  2  0
  4  5  1  0
  4  2  1  0
  5  6  1  0
  6  8  1  0
  6  7  1  6
  8  9  2  0
 10 11  1  0
 10  8  1  0
 12 13  1  0
 11 12  1  6
 13 14  1  0
 14 15  1  0
 16 15  1  0
 17 18  2  0
 17 11  1  0
 19 20  1  0
 20 21  1  0
 21 23  1  0
 21 22  1  1
 23 25  1  0
 23 24  1  1
 24 17  1  0
 25 26  1  0
 27 25  2  0
M  END
$$$$
