QKI.pdb
     RDKit          3D

 27 26  0  0  1  0  0  0  0  0999 V2000
    7.7206  -12.4814   16.5355 N   0  0  0  0  0  0  0  0  0  0  0  0
    7.9346  -13.8781   16.4926 C   0  0  0  0  0  0  0  0  0  0  0  0
    8.0405  -14.4504   15.3824 O   0  0  0  0  0  0  0  0  0  0  0  0
    8.0319  -14.6602   17.7454 C   0  0  0  0  0  0  0  0  0  0  0  0
    9.1341  -14.0822   18.6094 C   0  0  0  0  0  0  0  0  0  0  0  0
    9.6750  -15.0826   19.5868 C   0  0  2  0  0  0  0  0  0  0  0  0
    9.6642  -16.4266   19.0445 N   0  0  0  0  0  0  0  0  0  0  0  0
    8.7873  -15.0224   20.8035 C   0  0  0  0  0  0  0  0  0  0  0  0
    8.4878  -13.9150   21.3217 O   0  0  0  0  0  0  0  0  0  0  0  0
    8.2890  -16.2177   21.3601 N   0  0  0  0  0  0  0  0  0  0  0  0
    7.5308  -16.3197   22.5635 C   0  0  1  0  0  0  0  0  0  0  0  0
    7.0531  -17.7316   22.7462 C   0  0  0  0  0  0  0  0  0  0  0  0
    6.0813  -18.0159   21.6162 C   0  0  0  0  0  0  0  0  0  0  0  0
    5.6691  -19.4507   21.5054 C   0  0  0  0  0  0  0  0  0  0  0  0
    4.7502  -19.5419   20.2723 C   0  0  0  0  0  0  0  0  0  0  0  0
    4.3274  -20.8893   20.0682 N   0  0  0  0  0  0  0  0  0  0  0  0
    8.3031  -15.8111   23.7541 C   0  0  0  0  0  0  0  0  0  0  0  0
    9.5120  -16.1398   23.8581 O   0  0  0  0  0  0  0  0  0  0  0  0
    5.4102  -12.5111   27.7114 C   0  0  0  0  0  0  0  0  0  0  0  0
    6.0372  -13.6132   26.9029 C   0  0  0  0  0  0  0  0  0  0  0  0
    7.3868  -13.2006   26.3527 C   0  0  2  0  0  0  0  0  0  0  0  0
    7.1156  -12.2775   25.1581 C   0  0  0  0  0  0  0  0  0  0  0  0
    8.1938  -14.3615   25.8792 C   0  0  2  0  0  0  0  0  0  0  0  0
    7.6905  -14.9957   24.7183 N   0  0  0  0  0  0  0  0  0  0  0  0
    8.6312  -15.1459   27.0271 C   0  0  0  0  0  0  0  0  0  0  0  0
    9.4006  -14.7715   28.0979 O   0  0  0  0  0  0  0  0  0  0  0  0
    8.2655  -16.3997   27.1017 O   0  0  0  0  0  0  0  0  0  0  0  0
  2  1  1  0
  2  3  2  0
  4  5  1  0
  4  2  1  0
  5  6  1  0
  6  8  1  0
  6  7  1  6
  8  9  2  0
 10 11  1  0
 10  8  1  0
 12 13  1  0
 11 12  1  1
 13 14  1  0
 14 15  1  0
 16 15  1  0
 17 18  2  0
 17 11  1  0
 19 20  1  0
 20 21  1  0
 21 23  1  0
 21 22  1  6
 23 25  1  0
 23 24  1  6
 24 17  1  0
 25 26  1  0
 27 25  2  0
M  END
$$$$
