QKI.pdb
     RDKit          3D

 27 26  0  0  1  0  0  0  0  0999 V2000
    8.2388  -13.0467   16.0632 N   0  0  0  0  0  0  0  0  0  0  0  0
    7.5784  -14.1707   16.6102 C   0  0  0  0  0  0  0  0  0  0  0  0
    7.5104  -15.2295   15.9427 O   0  0  0  0  0  0  0  0  0  0  0  0
    6.9709  -14.1002   17.9581 C   0  0  0  0  0  0  0  0  0  0  0  0
    7.8431  -13.2444   18.8537 C   0  0  0  0  0  0  0  0  0  0  0  0
    8.8905  -14.0482   19.5647 C   0  0  2  0  0  0  0  0  0  0  0  0
    9.2883  -15.2129   18.7994 N   0  0  0  0  0  0  0  0  0  0  0  0
    8.2847  -14.4873   20.8732 C   0  0  0  0  0  0  0  0  0  0  0  0
    7.7615  -13.6456   21.6494 O   0  0  0  0  0  0  0  0  0  0  0  0
    8.3042  -15.8521   21.2250 N   0  0  0  0  0  0  0  0  0  0  0  0
    7.8486  -16.3968   22.4615 C   0  0  1  0  0  0  0  0  0  0  0  0
    7.9526  -17.8946   22.4272 C   0  0  0  0  0  0  0  0  0  0  0  0
    7.4054  -18.4029   23.7479 C   0  0  0  0  0  0  0  0  0  0  0  0
    7.3840  -19.8944   23.8720 C   0  0  0  0  0  0  0  0  0  0  0  0
    6.7629  -20.2045   25.2473 C   0  0  0  0  0  0  0  0  0  0  0  0
    6.8283  -21.6042   25.5161 N   0  0  0  0  0  0  0  0  0  0  0  0
    8.5731  -15.7930   23.6377 C   0  0  0  0  0  0  0  0  0  0  0  0
    9.8274  -15.7261   23.5877 O   0  0  0  0  0  0  0  0  0  0  0  0
    6.0721  -11.5893   26.0116 C   0  0  0  0  0  0  0  0  0  0  0  0
    7.0754  -12.5751   25.4797 C   0  0  0  0  0  0  0  0  0  0  0  0
    7.3721  -13.6656   26.4881 C   0  0  2  0  0  0  0  0  0  0  0  0
    8.0414  -12.9881   27.6904 C   0  0  0  0  0  0  0  0  0  0  0  0
    8.2990  -14.7049   25.9550 C   0  0  2  0  0  0  0  0  0  0  0  0
    7.8682  -15.3204   24.7556 N   0  0  0  0  0  0  0  0  0  0  0  0
    8.8154  -15.5037   27.0592 C   0  0  0  0  0  0  0  0  0  0  0  0
    9.8891  -15.2696   27.8784 O   0  0  0  0  0  0  0  0  0  0  0  0
    8.2041  -16.6203   27.3608 O   0  0  0  0  0  0  0  0  0  0  0  0
  2  1  1  0
  2  3  2  0
  4  5  1  0
  4  2  1  0
  5  6  1  0
  6  8  1  0
  6  7  1  6
  8  9  2  0
 10 11  1  0
 10  8  1  0
 12 13  1  0
 11 12  1  6
 13 14  1  0
 14 15  1  0
 16 15  1  0
 17 18  2  0
 17 11  1  0
 19 20  1  0
 20 21  1  0
 21 23  1  0
 21 22  1  1
 23 25  1  0
 23 24  1  6
 24 17  1  0
 25 26  1  0
 27 25  2  0
M  END
$$$$
