QKI.pdb
     RDKit          3D

 27 26  0  0  1  0  0  0  0  0999 V2000
    6.7491  -13.1229   17.2530 N   0  0  0  0  0  0  0  0  0  0  0  0
    8.0219  -13.7379   17.2394 C   0  0  0  0  0  0  0  0  0  0  0  0
    8.9673  -13.1823   16.6321 O   0  0  0  0  0  0  0  0  0  0  0  0
    8.2387  -15.0268   17.9341 C   0  0  0  0  0  0  0  0  0  0  0  0
    8.2048  -14.7978   19.4313 C   0  0  0  0  0  0  0  0  0  0  0  0
    8.8107  -15.9371   20.1952 C   0  0  2  0  0  0  0  0  0  0  0  0
    8.4858  -17.2184   19.6007 N   0  0  0  0  0  0  0  0  0  0  0  0
    8.2458  -15.8710   21.5911 C   0  0  0  0  0  0  0  0  0  0  0  0
    7.9506  -14.7623   22.1091 O   0  0  0  0  0  0  0  0  0  0  0  0
    8.0460  -17.0626   22.3172 N   0  0  0  0  0  0  0  0  0  0  0  0
    7.5798  -17.1463   23.6622 C   0  0  1  0  0  0  0  0  0  0  0  0
    7.3646  -18.5843   24.0379 C   0  0  0  0  0  0  0  0  0  0  0  0
    6.2640  -19.1133   23.1373 C   0  0  0  0  0  0  0  0  0  0  0  0
    5.9197  -20.5519   23.3663 C   0  0  0  0  0  0  0  0  0  0  0  0
    4.7922  -20.8896   22.3722 C   0  0  0  0  0  0  0  0  0  0  0  0
    4.3967  -22.2529   22.5163 N   0  0  0  0  0  0  0  0  0  0  0  0
    8.5003  -16.4299   24.6172 C   0  0  0  0  0  0  0  0  0  0  0  0
    9.7397  -16.5614   24.4535 O   0  0  0  0  0  0  0  0  0  0  0  0
    6.4363  -11.7190   26.4378 C   0  0  0  0  0  0  0  0  0  0  0  0
    7.3457  -12.8168   25.9592 C   0  0  0  0  0  0  0  0  0  0  0  0
    7.8339  -13.6750   27.1078 C   0  0  2  0  0  0  0  0  0  0  0  0
    8.7406  -12.7880   27.9703 C   0  0  0  0  0  0  0  0  0  0  0  0
    8.6236  -14.8538   26.6494 C   0  0  2  0  0  0  0  0  0  0  0  0
    7.9888  -15.6404   25.6588 N   0  0  0  0  0  0  0  0  0  0  0  0
    9.2689  -15.4787   27.7972 C   0  0  0  0  0  0  0  0  0  0  0  0
   10.4479  -15.1568   28.4178 O   0  0  0  0  0  0  0  0  0  0  0  0
    8.6824  -16.5028   28.3616 O   0  0  0  0  0  0  0  0  0  0  0  0
  2  1  1  0
  2  3  2  0
  4  5  1  0
  4  2  1  0
  5  6  1  0
  6  8  1  0
  6  7  1  6
  8  9  2  0
 10 11  1  0
 10  8  1  0
 12 13  1  0
 11 12  1  1
 13 14  1  0
 14 15  1  0
 16 15  1  0
 17 18  2  0
 17 11  1  0
 19 20  1  0
 20 21  1  0
 21 23  1  0
 21 22  1  1
 23 25  1  0
 23 24  1  1
 24 17  1  0
 25 26  1  0
 27 25  2  0
M  END
$$$$
