QKI.pdb
     RDKit          3D

 27 26  0  0  1  0  0  0  0  0999 V2000
    9.1207  -12.8889   17.1088 N   0  0  0  0  0  0  0  0  0  0  0  0
    8.3892  -13.8823   16.4184 C   0  0  0  0  0  0  0  0  0  0  0  0
    8.6042  -14.0677   15.1975 O   0  0  0  0  0  0  0  0  0  0  0  0
    7.3773  -14.6968   17.1281 C   0  0  0  0  0  0  0  0  0  0  0  0
    7.3120  -14.2588   18.5769 C   0  0  0  0  0  0  0  0  0  0  0  0
    8.4135  -14.8543   19.4018 C   0  0  2  0  0  0  0  0  0  0  0  0
    8.9166  -16.0841   18.8226 N   0  0  0  0  0  0  0  0  0  0  0  0
    7.8299  -15.1393   20.7620 C   0  0  0  0  0  0  0  0  0  0  0  0
    7.1275  -14.2755   21.3495 O   0  0  0  0  0  0  0  0  0  0  0  0
    8.0730  -16.3847   21.3757 N   0  0  0  0  0  0  0  0  0  0  0  0
    7.6380  -16.7665   22.6789 C   0  0  1  0  0  0  0  0  0  0  0  0
    7.8443  -18.2413   22.8729 C   0  0  0  0  0  0  0  0  0  0  0  0
    7.4191  -18.5609   24.2938 C   0  0  0  0  0  0  0  0  0  0  0  0
    7.5266  -20.0089   24.6575 C   0  0  0  0  0  0  0  0  0  0  0  0
    7.0794  -20.1192   26.1276 C   0  0  0  0  0  0  0  0  0  0  0  0
    7.0898  -21.4829   26.5475 N   0  0  0  0  0  0  0  0  0  0  0  0
    8.3028  -15.9429   23.7524 C   0  0  0  0  0  0  0  0  0  0  0  0
    9.5555  -15.9931   23.8446 O   0  0  0  0  0  0  0  0  0  0  0  0
    6.6597  -10.8452   26.8763 C   0  0  0  0  0  0  0  0  0  0  0  0
    7.5711  -12.0364   26.7670 C   0  0  0  0  0  0  0  0  0  0  0  0
    7.0102  -13.0810   25.8244 C   0  0  2  0  0  0  0  0  0  0  0  0
    5.6957  -13.5753   26.4414 C   0  0  0  0  0  0  0  0  0  0  0  0
    7.9208  -14.2494   25.6538 C   0  0  2  0  0  0  0  0  0  0  0  0
    7.5457  -15.1445   24.6237 N   0  0  0  0  0  0  0  0  0  0  0  0
    8.3196  -14.7463   26.9647 C   0  0  0  0  0  0  0  0  0  0  0  0
    9.3014  -14.2944   27.8077 O   0  0  0  0  0  0  0  0  0  0  0  0
    7.6813  -15.7738   27.4630 O   0  0  0  0  0  0  0  0  0  0  0  0
  2  1  1  0
  2  3  2  0
  4  5  1  0
  4  2  1  0
  5  6  1  0
  6  8  1  0
  6  7  1  6
  8  9  2  0
 10 11  1  0
 10  8  1  0
 12 13  1  0
 11 12  1  1
 13 14  1  0
 14 15  1  0
 16 15  1  0
 17 18  2  0
 17 11  1  0
 19 20  1  0
 20 21  1  0
 21 23  1  0
 21 22  1  1
 23 25  1  0
 23 24  1  1
 24 17  1  0
 25 26  1  0
 27 25  2  0
M  END
$$$$
