QKI.pdb
     RDKit          3D

 27 26  0  0  1  0  0  0  0  0999 V2000
    9.3019  -13.0383   16.7392 N   0  0  0  0  0  0  0  0  0  0  0  0
    8.2686  -14.0023   16.7042 C   0  0  0  0  0  0  0  0  0  0  0  0
    8.3736  -14.9892   15.9385 O   0  0  0  0  0  0  0  0  0  0  0  0
    7.0719  -13.8495   17.5618 C   0  0  0  0  0  0  0  0  0  0  0  0
    7.5077  -13.4708   18.9624 C   0  0  0  0  0  0  0  0  0  0  0  0
    8.4132  -14.4978   19.5741 C   0  0  2  0  0  0  0  0  0  0  0  0
    8.4818  -15.7027   18.7715 N   0  0  0  0  0  0  0  0  0  0  0  0
    7.8415  -14.8264   20.9295 C   0  0  0  0  0  0  0  0  0  0  0  0
    7.5121  -13.9071   21.7239 O   0  0  0  0  0  0  0  0  0  0  0  0
    7.6738  -16.1746   21.3049 N   0  0  0  0  0  0  0  0  0  0  0  0
    7.2423  -16.6321   22.5846 C   0  0  1  0  0  0  0  0  0  0  0  0
    7.0985  -18.1269   22.5692 C   0  0  0  0  0  0  0  0  0  0  0  0
    6.5890  -18.5329   23.9395 C   0  0  0  0  0  0  0  0  0  0  0  0
    6.4680  -20.0116   24.1377 C   0  0  0  0  0  0  0  0  0  0  0  0
    7.1865  -20.3299   25.4629 C   0  0  0  0  0  0  0  0  0  0  0  0
    6.2340  -20.5974   26.4910 N   0  0  0  0  0  0  0  0  0  0  0  0
    8.1521  -16.1493   23.6855 C   0  0  0  0  0  0  0  0  0  0  0  0
    9.3929  -16.2620   23.5182 O   0  0  0  0  0  0  0  0  0  0  0  0
    5.7232  -12.0831   26.4460 C   0  0  0  0  0  0  0  0  0  0  0  0
    6.7442  -12.9271   25.7342 C   0  0  0  0  0  0  0  0  0  0  0  0
    7.3599  -13.9548   26.6611 C   0  0  2  0  0  0  0  0  0  0  0  0
    8.2070  -13.1822   27.6801 C   0  0  0  0  0  0  0  0  0  0  0  0
    8.2445  -14.9180   25.9448 C   0  0  2  0  0  0  0  0  0  0  0  0
    7.6295  -15.5915   24.8626 N   0  0  0  0  0  0  0  0  0  0  0  0
    9.0505  -15.6473   26.9156 C   0  0  0  0  0  0  0  0  0  0  0  0
   10.2210  -15.2821   27.5284 O   0  0  0  0  0  0  0  0  0  0  0  0
    8.6468  -16.8315   27.2977 O   0  0  0  0  0  0  0  0  0  0  0  0
  2  1  1  0
  2  3  2  0
  4  5  1  0
  4  2  1  0
  5  6  1  0
  6  8  1  0
  6  7  1  6
  8  9  2  0
 10 11  1  0
 10  8  1  0
 12 13  1  0
 11 12  1  6
 13 14  1  0
 14 15  1  0
 16 15  1  0
 17 18  2  0
 17 11  1  0
 19 20  1  0
 20 21  1  0
 21 23  1  0
 21 22  1  1
 23 25  1  0
 23 24  1  1
 24 17  1  0
 25 26  1  0
 27 25  2  0
M  END
$$$$
