HRQ.pdb
     RDKit          3D

 31 31  0  0  1  0  0  0  0  0999 V2000
   20.7338  -22.9872  -18.8651 N   0  0  0  0  0  0  0  0  0  0  0  0
   20.9219  -21.6473  -19.3401 C   0  0  1  0  0  0  0  0  0  0  0  0
   19.6571  -21.0577  -19.9180 C   0  0  0  0  0  0  0  0  0  0  0  0
   19.2954  -21.8554  -21.1333 C   0  0  0  0  0  0  0  0  0  0  0  0
   18.1571  -22.5847  -21.3843 C   0  0  0  0  0  0  0  0  0  0  0  0
   18.2222  -23.1604  -22.6016 N   0  0  0  0  0  0  0  0  0  0  0  0
   19.4070  -22.7904  -23.1165 C   0  0  0  0  0  0  0  0  0  0  0  0
   20.0656  -22.0062  -22.2484 N   0  0  0  0  0  0  0  0  0  0  0  0
   21.5154  -20.7855  -18.2993 C   0  0  0  0  0  0  0  0  0  0  0  0
   21.3191  -20.9450  -17.0721 O   0  0  0  0  0  0  0  0  0  0  0  0
   28.1820  -20.3015  -14.5842 N   0  0  0  0  0  0  0  0  0  0  0  0
   27.3838  -19.1786  -14.2688 C   0  0  0  0  0  0  0  0  0  0  0  0
   27.4657  -18.6232  -13.0945 N   0  0  0  0  0  0  0  0  0  0  0  0
   26.4708  -18.6065  -15.1873 N   0  0  0  0  0  0  0  0  0  0  0  0
   26.4477  -18.9727  -16.5917 C   0  0  0  0  0  0  0  0  0  0  0  0
   25.4307  -18.1319  -17.3231 C   0  0  0  0  0  0  0  0  0  0  0  0
   24.5241  -18.9003  -18.2212 C   0  0  0  0  0  0  0  0  0  0  0  0
   23.0610  -18.8577  -17.7812 C   0  0  2  0  0  0  0  0  0  0  0  0
   22.3551  -19.7167  -18.7067 N   0  0  0  0  0  0  0  0  0  0  0  0
   22.6476  -17.4360  -18.0277 C   0  0  0  0  0  0  0  0  0  0  0  0
   22.7366  -17.0298  -19.2132 O   0  0  0  0  0  0  0  0  0  0  0  0
   26.9063  -17.7750  -12.8716 N   0  0  0  0  0  0  0  0  0  0  0  0
   19.6403  -15.6868  -13.7952 C   0  0  0  0  0  0  0  0  0  0  0  0
   18.8278  -15.6965  -14.9441 O   0  0  0  0  0  0  0  0  0  0  0  0
   17.6333  -16.0711  -14.8465 C   0  0  0  0  0  0  0  0  0  0  0  0
   19.3599  -15.2713  -16.2287 C   0  0  0  0  0  0  0  0  0  0  0  0
   20.7726  -14.8053  -16.2633 C   0  0  2  0  0  0  0  0  0  0  0  0
   21.6275  -15.2619  -17.4032 N   0  0  0  0  0  0  0  0  0  0  0  0
   22.1876  -16.5934  -17.0149 C   0  0  0  0  0  0  0  0  0  0  0  0
   22.7598  -14.4010  -17.7709 O   0  0  0  0  0  0  0  0  0  0  0  0
   22.6769  -13.3448  -18.6635 O   0  0  0  0  0  0  0  0  0  0  0  0
  2  1  1  1
  2  9  1  0
  2  3  1  0
  3  4  1  0
  4  8  1  0
  4  5  2  0
  5  6  1  0
  7  6  1  0
  8  7  2  0
  9 10  2  0
 12 14  1  0
 12 11  1  0
 13 12  2  0
 15 16  1  0
 15 14  1  0
 16 17  1  0
 18 17  1  6
 19  9  1  0
 19 18  1  0
 20 28  1  0
 20 18  1  0
 21 20  2  0
 22 23  1  0
 23 24  2  0
 25 23  1  0
 25 26  1  0
 27 26  1  6
 27 29  1  0
 27 28  1  0
 29 30  1  0
 31 29  2  0
M  END
$$$$
