HRQ.pdb
     RDKit          3D

 31 31  0  0  1  0  0  0  0  0999 V2000
   17.4775  -14.4063  -16.2753 N   0  0  0  0  0  0  0  0  0  0  0  0
   17.8644  -13.2700  -17.0598 C   0  0  1  0  0  0  0  0  0  0  0  0
   16.9453  -13.0417  -18.2364 C   0  0  0  0  0  0  0  0  0  0  0  0
   17.0584  -14.2303  -19.1412 C   0  0  0  0  0  0  0  0  0  0  0  0
   17.6856  -14.3352  -20.3603 C   0  0  0  0  0  0  0  0  0  0  0  0
   17.5542  -15.5825  -20.8548 N   0  0  0  0  0  0  0  0  0  0  0  0
   16.8412  -16.2631  -19.9415 C   0  0  0  0  0  0  0  0  0  0  0  0
   16.5343  -15.4668  -18.9051 N   0  0  0  0  0  0  0  0  0  0  0  0
   18.0113  -12.0631  -16.2231 C   0  0  0  0  0  0  0  0  0  0  0  0
   17.2512  -11.7860  -15.2662 O   0  0  0  0  0  0  0  0  0  0  0  0
   22.4022   -4.5388  -16.5955 N   0  0  0  0  0  0  0  0  0  0  0  0
   21.9023   -4.9186  -15.3293 C   0  0  0  0  0  0  0  0  0  0  0  0
   21.4574   -4.0182  -14.5013 N   0  0  0  0  0  0  0  0  0  0  0  0
   21.8577   -6.2661  -14.8970 N   0  0  0  0  0  0  0  0  0  0  0  0
   21.3349   -7.3336  -15.7301 C   0  0  0  0  0  0  0  0  0  0  0  0
   21.3012   -8.6234  -14.9481 C   0  0  0  0  0  0  0  0  0  0  0  0
   20.8434   -9.8073  -15.7277 C   0  0  0  0  0  0  0  0  0  0  0  0
   19.3226   -9.9554  -15.7622 C   0  0  2  0  0  0  0  0  0  0  0  0
   19.0702  -11.1647  -16.5150 N   0  0  0  0  0  0  0  0  0  0  0  0
   18.8598   -8.7770  -16.5685 C   0  0  0  0  0  0  0  0  0  0  0  0
   19.2892   -8.7081  -17.7471 O   0  0  0  0  0  0  0  0  0  0  0  0
   21.0190   -4.2997  -13.6009 N   0  0  0  0  0  0  0  0  0  0  0  0
   13.6962   -5.2296  -15.8506 C   0  0  0  0  0  0  0  0  0  0  0  0
   14.4540   -4.4851  -16.7734 O   0  0  0  0  0  0  0  0  0  0  0  0
   13.9749   -3.4246  -17.2453 C   0  0  0  0  0  0  0  0  0  0  0  0
   15.7791   -4.9316  -17.1719 C   0  0  0  0  0  0  0  0  0  0  0  0
   16.3095   -6.1619  -16.5245 C   0  0  1  0  0  0  0  0  0  0  0  0
   17.6722   -6.6285  -16.9298 N   0  0  0  0  0  0  0  0  0  0  0  0
   18.0022   -7.8003  -16.0607 C   0  0  0  0  0  0  0  0  0  0  0  0
   18.7714   -5.6627  -16.7984 O   0  0  0  0  0  0  0  0  0  0  0  0
   19.1163   -4.7388  -17.7714 O   0  0  0  0  0  0  0  0  0  0  0  0
  2  1  1  1
  2  9  1  0
  2  3  1  0
  3  4  1  0
  4  8  1  0
  4  5  2  0
  5  6  1  0
  7  6  1  0
  8  7  2  0
  9 10  2  0
 12 14  1  0
 12 11  1  0
 13 12  2  0
 15 16  1  0
 15 14  1  0
 16 17  1  0
 18 17  1  6
 19  9  1  0
 19 18  1  0
 20 28  1  0
 20 18  1  0
 21 20  2  0
 22 23  1  0
 23 24  2  0
 25 23  1  0
 25 26  1  0
 27 26  1  6
 27 29  1  0
 27 28  1  0
 29 30  1  0
 31 29  2  0
M  END
$$$$
