HRQ.pdb
     RDKit          3D

 31 31  0  0  1  0  0  0  0  0999 V2000
   15.2038  -13.3264  -13.5528 N   0  0  0  0  0  0  0  0  0  0  0  0
   14.7952  -11.9555  -13.4534 C   0  0  1  0  0  0  0  0  0  0  0  0
   13.4557  -11.8011  -12.7729 C   0  0  0  0  0  0  0  0  0  0  0  0
   12.4473  -12.5704  -13.5699 C   0  0  0  0  0  0  0  0  0  0  0  0
   11.5950  -12.1237  -14.5521 C   0  0  0  0  0  0  0  0  0  0  0  0
   10.8402  -13.1375  -15.0213 N   0  0  0  0  0  0  0  0  0  0  0  0
   11.2209  -14.2251  -14.3301 C   0  0  0  0  0  0  0  0  0  0  0  0
   12.1855  -13.9036  -13.4535 N   0  0  0  0  0  0  0  0  0  0  0  0
   15.8410  -11.1263  -12.8234 C   0  0  0  0  0  0  0  0  0  0  0  0
   16.4329  -11.4427  -11.7653 O   0  0  0  0  0  0  0  0  0  0  0  0
   20.3751   -5.2882  -12.3868 N   0  0  0  0  0  0  0  0  0  0  0  0
   21.1297   -5.6232  -13.5339 C   0  0  0  0  0  0  0  0  0  0  0  0
   22.4296   -5.5612  -13.5065 N   0  0  0  0  0  0  0  0  0  0  0  0
   20.5321   -6.0348  -14.7496 N   0  0  0  0  0  0  0  0  0  0  0  0
   19.1022   -6.2475  -14.8808 C   0  0  0  0  0  0  0  0  0  0  0  0
   18.5987   -7.0705  -13.7209 C   0  0  0  0  0  0  0  0  0  0  0  0
   17.7047   -8.1983  -14.1052 C   0  0  0  0  0  0  0  0  0  0  0  0
   17.1790   -8.9870  -12.9061 C   0  0  2  0  0  0  0  0  0  0  0  0
   16.1987   -9.9030  -13.4472 N   0  0  0  0  0  0  0  0  0  0  0  0
   16.4724   -7.9569  -12.0739 C   0  0  0  0  0  0  0  0  0  0  0  0
   15.4716   -7.4095  -12.6003 O   0  0  0  0  0  0  0  0  0  0  0  0
   22.9872   -5.7990  -14.3518 N   0  0  0  0  0  0  0  0  0  0  0  0
   12.6838   -8.8027   -8.3002 C   0  0  0  0  0  0  0  0  0  0  0  0
   12.9162   -7.4738   -7.9001 O   0  0  0  0  0  0  0  0  0  0  0  0
   12.1733   -6.9573   -7.0293 C   0  0  0  0  0  0  0  0  0  0  0  0
   14.0071   -6.7076   -8.4806 C   0  0  0  0  0  0  0  0  0  0  0  0
   14.9417   -7.4278   -9.3872 C   0  0  1  0  0  0  0  0  0  0  0  0
   16.0474   -6.6389  -10.0149 N   0  0  0  0  0  0  0  0  0  0  0  0
   16.8842   -7.6092  -10.7867 C   0  0  0  0  0  0  0  0  0  0  0  0
   16.9448   -5.9132   -9.1058 O   0  0  0  0  0  0  0  0  0  0  0  0
   16.6538   -4.6805   -8.5446 O   0  0  0  0  0  0  0  0  0  0  0  0
  2  1  1  1
  2  9  1  0
  2  3  1  0
  3  4  1  0
  4  8  1  0
  4  5  2  0
  5  6  1  0
  7  6  1  0
  8  7  2  0
  9 10  2  0
 12 14  1  0
 12 11  1  0
 13 12  2  0
 15 16  1  0
 15 14  1  0
 16 17  1  0
 18 17  1  6
 19  9  1  0
 19 18  1  0
 20 28  1  0
 20 18  1  0
 21 20  2  0
 22 23  1  0
 23 24  2  0
 25 23  1  0
 25 26  1  0
 27 26  1  6
 27 29  1  0
 27 28  1  0
 29 30  1  0
 31 29  2  0
M  END
$$$$
