HRQ.pdb
     RDKit          3D

 31 31  0  0  1  0  0  0  0  0999 V2000
   27.7997  -20.2251  -18.1041 N   0  0  0  0  0  0  0  0  0  0  0  0
   27.4883  -19.5023  -16.9054 C   0  0  1  0  0  0  0  0  0  0  0  0
   26.3307  -18.5500  -17.0907 C   0  0  0  0  0  0  0  0  0  0  0  0
   26.7569  -17.4980  -18.0683 C   0  0  0  0  0  0  0  0  0  0  0  0
   26.1010  -17.0350  -19.1845 C   0  0  0  0  0  0  0  0  0  0  0  0
   26.8281  -16.0809  -19.7996 N   0  0  0  0  0  0  0  0  0  0  0  0
   27.9455  -15.9448  -19.0657 C   0  0  0  0  0  0  0  0  0  0  0  0
   27.9204  -16.7883  -18.0215 N   0  0  0  0  0  0  0  0  0  0  0  0
   27.2836  -20.4153  -15.7641 C   0  0  0  0  0  0  0  0  0  0  0  0
   26.6064  -21.4675  -15.8306 O   0  0  0  0  0  0  0  0  0  0  0  0
   32.9306  -21.9070   -9.5225 N   0  0  0  0  0  0  0  0  0  0  0  0
   32.4260  -22.2880  -10.7865 C   0  0  0  0  0  0  0  0  0  0  0  0
   33.1751  -22.9486  -11.6212 N   0  0  0  0  0  0  0  0  0  0  0  0
   31.1101  -21.9810  -11.2092 N   0  0  0  0  0  0  0  0  0  0  0  0
   30.1728  -21.2558  -10.3711 C   0  0  0  0  0  0  0  0  0  0  0  0
   28.8465  -21.1276  -11.0788 C   0  0  0  0  0  0  0  0  0  0  0  0
   28.9291  -20.5395  -12.4449 C   0  0  0  0  0  0  0  0  0  0  0  0
   27.7246  -20.8799  -13.3220 C   0  0  2  0  0  0  0  0  0  0  0  0
   27.8851  -20.0872  -14.5215 N   0  0  0  0  0  0  0  0  0  0  0  0
   26.5503  -20.3555  -12.5481 C   0  0  0  0  0  0  0  0  0  0  0  0
   26.5815  -19.1351  -12.2516 O   0  0  0  0  0  0  0  0  0  0  0  0
   32.8296  -23.1735  -12.5762 N   0  0  0  0  0  0  0  0  0  0  0  0
   20.6452  -22.2030  -13.0404 C   0  0  0  0  0  0  0  0  0  0  0  0
   20.5683  -21.2450  -12.0124 O   0  0  0  0  0  0  0  0  0  0  0  0
   19.4420  -20.9129  -11.5675 C   0  0  0  0  0  0  0  0  0  0  0  0
   21.7770  -20.6506  -11.4648 C   0  0  0  0  0  0  0  0  0  0  0  0
   23.0770  -21.0953  -12.0361 C   0  0  1  0  0  0  0  0  0  0  0  0
   24.3269  -20.5107  -11.4573 N   0  0  0  0  0  0  0  0  0  0  0  0
   25.4736  -21.1575  -12.1675 C   0  0  0  0  0  0  0  0  0  0  0  0
   24.5426  -20.6982  -10.0163 O   0  0  0  0  0  0  0  0  0  0  0  0
   24.0418  -19.8546   -9.0381 O   0  0  0  0  0  0  0  0  0  0  0  0
  2  1  1  6
  2  9  1  0
  2  3  1  0
  3  4  1  0
  4  8  1  0
  4  5  2  0
  5  6  1  0
  7  6  1  0
  8  7  2  0
  9 10  2  0
 12 14  1  0
 12 11  1  0
 13 12  2  0
 15 16  1  0
 15 14  1  0
 16 17  1  0
 18 17  1  1
 19  9  1  0
 19 18  1  0
 20 28  1  0
 20 18  1  0
 21 20  2  0
 22 23  1  0
 23 24  2  0
 25 23  1  0
 25 26  1  0
 27 26  1  6
 27 29  1  0
 27 28  1  0
 29 30  1  0
 31 29  2  0
M  END
$$$$
