HRQ.pdb
     RDKit          3D

 31 31  0  0  1  0  0  0  0  0999 V2000
   15.8269  -21.6179    1.3401 N   0  0  0  0  0  0  0  0  0  0  0  0
   15.2974  -20.9125    2.4707 C   0  0  1  0  0  0  0  0  0  0  0  0
   14.4256  -21.7877    3.3398 C   0  0  0  0  0  0  0  0  0  0  0  0
   13.2204  -22.1718    2.5373 C   0  0  0  0  0  0  0  0  0  0  0  0
   12.8787  -21.8055    1.2569 C   0  0  0  0  0  0  0  0  0  0  0  0
   11.7060  -22.3671    0.9004 N   0  0  0  0  0  0  0  0  0  0  0  0
   11.3104  -23.0891    1.9624 C   0  0  0  0  0  0  0  0  0  0  0  0
   12.2077  -22.9837    2.9555 N   0  0  0  0  0  0  0  0  0  0  0  0
   16.3675  -20.2493    3.2409 C   0  0  0  0  0  0  0  0  0  0  0  0
   17.5314  -20.7023    3.3425 O   0  0  0  0  0  0  0  0  0  0  0  0
   18.3752  -11.6849    3.5925 N   0  0  0  0  0  0  0  0  0  0  0  0
   18.9422  -12.2983    4.7325 C   0  0  0  0  0  0  0  0  0  0  0  0
   19.6770  -11.6060    5.5542 N   0  0  0  0  0  0  0  0  0  0  0  0
   18.7504  -13.6669    5.0401 N   0  0  0  0  0  0  0  0  0  0  0  0
   17.6829  -14.4546    4.4511 C   0  0  0  0  0  0  0  0  0  0  0  0
   17.7810  -15.8840    4.9237 C   0  0  0  0  0  0  0  0  0  0  0  0
   16.8196  -16.8175    4.2732 C   0  0  0  0  0  0  0  0  0  0  0  0
   17.0343  -18.2779    4.6701 C   0  0  2  0  0  0  0  0  0  0  0  0
   16.0659  -19.0317    3.9042 N   0  0  0  0  0  0  0  0  0  0  0  0
   16.6468  -18.3224    6.1195 C   0  0  0  0  0  0  0  0  0  0  0  0
   15.4436  -18.0719    6.3801 O   0  0  0  0  0  0  0  0  0  0  0  0
   20.0731  -12.0480    6.4084 N   0  0  0  0  0  0  0  0  0  0  0  0
   19.0245  -22.2520    8.8652 C   0  0  0  0  0  0  0  0  0  0  0  0
   17.6326  -22.3083    8.6659 O   0  0  0  0  0  0  0  0  0  0  0  0
   17.0987  -23.4083    8.3806 C   0  0  0  0  0  0  0  0  0  0  0  0
   16.8189  -21.1103    8.7955 C   0  0  0  0  0  0  0  0  0  0  0  0
   17.5092  -19.8550    9.1976 C   0  0  2  0  0  0  0  0  0  0  0  0
   17.0657  -18.5802    8.5517 N   0  0  0  0  0  0  0  0  0  0  0  0
   17.5526  -18.6219    7.1379 C   0  0  0  0  0  0  0  0  0  0  0  0
   17.5545  -17.3290    9.1464 O   0  0  0  0  0  0  0  0  0  0  0  0
   18.3265  -16.3965    8.4728 O   0  0  0  0  0  0  0  0  0  0  0  0
  2  1  1  6
  2  9  1  0
  2  3  1  0
  3  4  1  0
  4  8  1  0
  4  5  2  0
  5  6  1  0
  7  6  1  0
  8  7  2  0
  9 10  2  0
 12 14  1  0
 12 11  1  0
 13 12  2  0
 15 16  1  0
 15 14  1  0
 16 17  1  0
 18 17  1  6
 19  9  1  0
 19 18  1  0
 20 28  1  0
 20 18  1  0
 21 20  2  0
 22 23  1  0
 23 24  2  0
 25 23  1  0
 25 26  1  0
 27 26  1  6
 27 29  1  0
 27 28  1  0
 29 30  1  0
 31 29  2  0
M  END
$$$$
