HRQ.pdb
     RDKit          3D

 31 31  0  0  1  0  0  0  0  0999 V2000
   26.5350  -16.0437  -17.6984 N   0  0  0  0  0  0  0  0  0  0  0  0
   25.7081  -17.1851  -17.4347 C   0  0  1  0  0  0  0  0  0  0  0  0
   26.4814  -18.3277  -16.8201 C   0  0  0  0  0  0  0  0  0  0  0  0
   27.6218  -18.6518  -17.7358 C   0  0  0  0  0  0  0  0  0  0  0  0
   27.9437  -18.0939  -18.9506 C   0  0  0  0  0  0  0  0  0  0  0  0
   29.0509  -18.6715  -19.4587 N   0  0  0  0  0  0  0  0  0  0  0  0
   29.4250  -19.5962  -18.5583 C   0  0  0  0  0  0  0  0  0  0  0  0
   28.5782  -19.5988  -17.5166 N   0  0  0  0  0  0  0  0  0  0  0  0
   24.5232  -16.8183  -16.6349 C   0  0  0  0  0  0  0  0  0  0  0  0
   24.5756  -16.1104  -15.6024 O   0  0  0  0  0  0  0  0  0  0  0  0
   18.6068  -13.3575  -21.1695 N   0  0  0  0  0  0  0  0  0  0  0  0
   19.6953  -12.7332  -20.5193 C   0  0  0  0  0  0  0  0  0  0  0  0
   20.0094  -11.5015  -20.7994 N   0  0  0  0  0  0  0  0  0  0  0  0
   20.4887  -13.3935  -19.5502 N   0  0  0  0  0  0  0  0  0  0  0  0
   20.2169  -14.7518  -19.1165 C   0  0  0  0  0  0  0  0  0  0  0  0
   21.1931  -15.1493  -18.0370 C   0  0  0  0  0  0  0  0  0  0  0  0
   21.0616  -16.5587  -17.5731 C   0  0  0  0  0  0  0  0  0  0  0  0
   22.0088  -16.9067  -16.4251 C   0  0  2  0  0  0  0  0  0  0  0  0
   23.2530  -17.2911  -17.0551 N   0  0  0  0  0  0  0  0  0  0  0  0
   21.3887  -18.1203  -15.7962 C   0  0  0  0  0  0  0  0  0  0  0  0
   21.7055  -19.2280  -16.2971 O   0  0  0  0  0  0  0  0  0  0  0  0
   20.8313  -11.0507  -20.3486 N   0  0  0  0  0  0  0  0  0  0  0  0
   21.9174  -19.5522  -10.1545 C   0  0  0  0  0  0  0  0  0  0  0  0
   21.0181  -20.5628  -10.5417 O   0  0  0  0  0  0  0  0  0  0  0  0
   20.7251  -21.4687   -9.7230 C   0  0  0  0  0  0  0  0  0  0  0  0
   20.4277  -20.5569  -11.8704 C   0  0  0  0  0  0  0  0  0  0  0  0
   20.7907  -19.4324  -12.7749 C   0  0  1  0  0  0  0  0  0  0  0  0
   20.0650  -19.3275  -14.0792 N   0  0  0  0  0  0  0  0  0  0  0  0
   20.5076  -18.0486  -14.7164 C   0  0  0  0  0  0  0  0  0  0  0  0
   18.5972  -19.3034  -14.0228 O   0  0  0  0  0  0  0  0  0  0  0  0
   17.8032  -20.4348  -13.9292 O   0  0  0  0  0  0  0  0  0  0  0  0
  2  1  1  1
  2  9  1  0
  2  3  1  0
  3  4  1  0
  4  8  1  0
  4  5  2  0
  5  6  1  0
  7  6  1  0
  8  7  2  0
  9 10  2  0
 12 14  1  0
 12 11  1  0
 13 12  2  0
 15 16  1  0
 15 14  1  0
 16 17  1  0
 18 17  1  6
 19  9  1  0
 19 18  1  0
 20 28  1  0
 20 18  1  0
 21 20  2  0
 22 23  1  0
 23 24  2  0
 25 23  1  0
 25 26  1  0
 27 26  1  6
 27 29  1  0
 27 28  1  0
 29 30  1  0
 31 29  2  0
M  END
$$$$
