HRQ.pdb
     RDKit          3D

 31 31  0  0  1  0  0  0  0  0999 V2000
   17.6761  -13.1398  -15.6668 N   0  0  0  0  0  0  0  0  0  0  0  0
   16.7939  -12.1164  -15.1867 C   0  0  1  0  0  0  0  0  0  0  0  0
   15.4546  -12.6655  -14.7554 C   0  0  0  0  0  0  0  0  0  0  0  0
   14.5451  -11.5027  -14.5005 C   0  0  0  0  0  0  0  0  0  0  0  0
   14.1529  -10.9555  -13.3017 C   0  0  0  0  0  0  0  0  0  0  0  0
   13.3207   -9.9146  -13.5058 N   0  0  0  0  0  0  0  0  0  0  0  0
   13.1905   -9.8085  -14.8390 C   0  0  0  0  0  0  0  0  0  0  0  0
   13.9189  -10.7544  -15.4531 N   0  0  0  0  0  0  0  0  0  0  0  0
   17.4324  -11.3073  -14.1304 C   0  0  0  0  0  0  0  0  0  0  0  0
   17.9386  -11.7957  -13.0934 O   0  0  0  0  0  0  0  0  0  0  0  0
   21.8627   -3.5492  -15.1137 N   0  0  0  0  0  0  0  0  0  0  0  0
   21.2971   -3.5999  -13.8195 C   0  0  0  0  0  0  0  0  0  0  0  0
   21.4050   -2.5825  -13.0148 N   0  0  0  0  0  0  0  0  0  0  0  0
   20.5982   -4.7313  -13.3336 N   0  0  0  0  0  0  0  0  0  0  0  0
   20.0527   -5.7468  -14.2158 C   0  0  0  0  0  0  0  0  0  0  0  0
   19.3818   -6.8253  -13.4015 C   0  0  0  0  0  0  0  0  0  0  0  0
   18.7948   -7.9327  -14.2064 C   0  0  0  0  0  0  0  0  0  0  0  0
   18.1168   -9.0046  -13.3535 C   0  0  2  0  0  0  0  0  0  0  0  0
   17.4777   -9.8985  -14.2945 N   0  0  0  0  0  0  0  0  0  0  0  0
   17.0567   -8.2548  -12.6006 C   0  0  0  0  0  0  0  0  0  0  0  0
   16.1962   -7.6611  -13.2973 O   0  0  0  0  0  0  0  0  0  0  0  0
   20.9551   -2.6011  -12.0772 N   0  0  0  0  0  0  0  0  0  0  0  0
   13.1509  -10.0536   -8.5820 C   0  0  0  0  0  0  0  0  0  0  0  0
   12.9481   -8.6643   -8.4866 O   0  0  0  0  0  0  0  0  0  0  0  0
   11.9928   -8.2306   -7.7968 C   0  0  0  0  0  0  0  0  0  0  0  0
   13.8368   -7.7394   -9.1713 C   0  0  0  0  0  0  0  0  0  0  0  0
   14.9961   -8.3194   -9.9020 C   0  0  1  0  0  0  0  0  0  0  0  0
   15.9440   -7.3712  -10.5663 N   0  0  0  0  0  0  0  0  0  0  0  0
   17.0083   -8.2045  -11.2069 C   0  0  0  0  0  0  0  0  0  0  0  0
   16.6160   -6.3902   -9.7036 O   0  0  0  0  0  0  0  0  0  0  0  0
   16.0677   -5.1723   -9.3357 O   0  0  0  0  0  0  0  0  0  0  0  0
  2  1  1  1
  2  9  1  0
  2  3  1  0
  3  4  1  0
  4  8  1  0
  4  5  2  0
  5  6  1  0
  7  6  1  0
  8  7  2  0
  9 10  2  0
 12 14  1  0
 12 11  1  0
 13 12  2  0
 15 16  1  0
 15 14  1  0
 16 17  1  0
 18 17  1  6
 19  9  1  0
 19 18  1  0
 20 28  1  0
 20 18  1  0
 21 20  2  0
 22 23  1  0
 23 24  2  0
 25 23  1  0
 25 26  1  0
 27 26  1  6
 27 29  1  0
 27 28  1  0
 29 30  1  0
 31 29  2  0
M  END
$$$$
