LLW.pdb
     RDKit          3D

 31 32  0  0  1  0  0  0  0  0999 V2000
    9.7270  -19.8396   17.6776 C   0  0  0  0  0  0  0  0  0  0  0  0
   11.1352  -19.6799   18.1856 C   0  0  1  0  0  0  0  0  0  0  0  0
   12.0823  -19.7663   16.9913 C   0  0  0  0  0  0  0  0  0  0  0  0
   11.3558  -18.4253   18.9685 C   0  0  0  0  0  0  0  0  0  0  0  0
   10.5758  -18.3049   20.2267 C   0  0  2  0  0  0  0  0  0  0  0  0
    9.1962  -18.7116   20.0872 N   0  0  0  0  0  0  0  0  0  0  0  0
   10.6574  -17.0138   20.9277 C   0  0  0  0  0  0  0  0  0  0  0  0
   11.7835  -16.4105   21.0778 O   0  0  0  0  0  0  0  0  0  0  0  0
    8.5249  -13.4442   19.7880 C   0  0  0  0  0  0  0  0  0  0  0  0
    7.6483  -14.4253   20.6025 C   0  0  2  0  0  0  0  0  0  0  0  0
    6.2628  -13.8658   20.5383 C   0  0  0  0  0  0  0  0  0  0  0  0
    8.2418  -14.4862   21.9570 C   0  0  0  0  0  0  0  0  0  0  0  0
    9.5979  -15.0935   22.0946 C   0  0  2  0  0  0  0  0  0  0  0  0
    9.4872  -16.4169   21.4513 N   0  0  0  0  0  0  0  0  0  0  0  0
    9.9443  -15.2715   23.5253 C   0  0  0  0  0  0  0  0  0  0  0  0
   10.4671  -14.2900   24.1575 O   0  0  0  0  0  0  0  0  0  0  0  0
    9.7525  -16.4380   24.2954 N   0  0  0  0  0  0  0  0  0  0  0  0
   10.2227  -16.5173   25.6620 C   0  0  1  0  0  0  0  0  0  0  0  0
    9.1289  -16.4354   26.6627 C   0  0  0  0  0  0  0  0  0  0  0  0
    8.0278  -15.5103   26.3587 C   0  0  0  0  0  0  0  0  0  0  0  0
    6.8123  -15.9760   25.8303 C   0  0  0  0  0  0  0  0  0  0  0  0
    5.9562  -14.9503   25.6772 N   0  0  0  0  0  0  0  0  0  0  0  0
    6.5547  -13.8180   26.0827 C   0  0  0  0  0  0  0  0  0  0  0  0
    6.1161  -12.5172   26.1194 C   0  0  0  0  0  0  0  0  0  0  0  0
    6.9945  -11.5681   26.5880 C   0  0  0  0  0  0  0  0  0  0  0  0
    8.2555  -11.8889   27.0033 C   0  0  0  0  0  0  0  0  0  0  0  0
    8.7012  -13.1898   26.9694 C   0  0  0  0  0  0  0  0  0  0  0  0
    7.8239  -14.1655   26.4988 C   0  0  0  0  0  0  0  0  0  0  0  0
   11.0551  -17.6954   25.8565 C   0  0  0  0  0  0  0  0  0  0  0  0
   11.7045  -18.0139   27.0437 O   0  0  0  0  0  0  0  0  0  0  0  0
   11.2278  -18.5019   24.9099 O   0  0  0  0  0  0  0  0  0  0  0  0
  2  1  1  6
  3  2  1  0
  4  2  1  0
  5  6  1  6
  5  4  1  0
  7  5  1  0
  8  7  2  0
 10  9  1  6
 10 12  1  0
 11 10  1  0
 13 12  1  1
 13 15  1  0
 13 14  1  0
 14  7  1  0
 15 17  1  0
 16 15  2  0
 17 18  1  0
 18 19  1  1
 18 29  1  0
 19 20  1  0
 20 21  2  0
 22 21  1  0
 23 22  1  0
 24 23  2  0
 25 24  1  0
 26 27  1  0
 26 25  2  0
 27 28  2  0
 28 23  1  0
 28 20  1  0
 29 31  2  0
 29 30  1  0
M  END
$$$$
