LLW.pdb
     RDKit          3D

 31 32  0  0  1  0  0  0  0  0999 V2000
   13.0809  -20.2736   17.5232 C   0  0  0  0  0  0  0  0  0  0  0  0
   11.7062  -19.7752   17.8817 C   0  0  1  0  0  0  0  0  0  0  0  0
   10.8860  -20.9634   18.3780 C   0  0  0  0  0  0  0  0  0  0  0  0
   11.7092  -18.6592   18.8769 C   0  0  0  0  0  0  0  0  0  0  0  0
   10.3725  -18.1708   19.3018 C   0  0  2  0  0  0  0  0  0  0  0  0
    9.4508  -17.9938   18.2031 N   0  0  0  0  0  0  0  0  0  0  0  0
   10.3545  -16.9880   20.1769 C   0  0  0  0  0  0  0  0  0  0  0  0
   11.4446  -16.3903   20.5069 O   0  0  0  0  0  0  0  0  0  0  0  0
    8.4589  -12.9930   19.7357 C   0  0  0  0  0  0  0  0  0  0  0  0
    7.4968  -14.1716   20.0179 C   0  0  2  0  0  0  0  0  0  0  0  0
    6.1209  -13.6063   19.8611 C   0  0  0  0  0  0  0  0  0  0  0  0
    7.8266  -14.6612   21.3752 C   0  0  0  0  0  0  0  0  0  0  0  0
    9.1493  -15.3232   21.5725 C   0  0  2  0  0  0  0  0  0  0  0  0
    9.1261  -16.4916   20.6715 N   0  0  0  0  0  0  0  0  0  0  0  0
    9.2938  -15.7873   22.9733 C   0  0  0  0  0  0  0  0  0  0  0  0
    8.6462  -16.8254   23.3465 O   0  0  0  0  0  0  0  0  0  0  0  0
   10.0944  -15.1966   23.9737 N   0  0  0  0  0  0  0  0  0  0  0  0
   10.0713  -15.6860   25.3356 C   0  0  1  0  0  0  0  0  0  0  0  0
    8.7263  -16.1391   25.7717 C   0  0  0  0  0  0  0  0  0  0  0  0
    7.6824  -15.1081   25.8612 C   0  0  0  0  0  0  0  0  0  0  0  0
    6.3480  -15.3940   25.5274 C   0  0  0  0  0  0  0  0  0  0  0  0
    5.5824  -14.3068   25.7282 N   0  0  0  0  0  0  0  0  0  0  0  0
    6.3554  -13.3064   26.1825 C   0  0  0  0  0  0  0  0  0  0  0  0
    6.0608  -12.0096   26.5251 C   0  0  0  0  0  0  0  0  0  0  0  0
    7.1015  -11.2177   26.9516 C   0  0  0  0  0  0  0  0  0  0  0  0
    8.3818  -11.6858   27.0364 C   0  0  0  0  0  0  0  0  0  0  0  0
    8.6838  -12.9837   26.6950 C   0  0  0  0  0  0  0  0  0  0  0  0
    7.6412  -13.8014   26.2619 C   0  0  0  0  0  0  0  0  0  0  0  0
   11.0854  -16.7108   25.5357 C   0  0  0  0  0  0  0  0  0  0  0  0
   11.8967  -17.2233   24.5298 O   0  0  0  0  0  0  0  0  0  0  0  0
   11.2678  -17.1946   26.6798 O   0  0  0  0  0  0  0  0  0  0  0  0
  2  1  1  1
  3  2  1  0
  4  2  1  0
  5  6  1  6
  5  4  1  0
  7  5  1  0
  8  7  2  0
 10  9  1  1
 10 12  1  0
 11 10  1  0
 13 12  1  1
 13 15  1  0
 13 14  1  0
 14  7  1  0
 15 17  1  0
 16 15  2  0
 17 18  1  0
 18 19  1  6
 18 29  1  0
 19 20  1  0
 20 21  2  0
 22 21  1  0
 23 22  1  0
 24 23  2  0
 25 24  1  0
 26 27  1  0
 26 25  2  0
 27 28  2  0
 28 23  1  0
 28 20  1  0
 29 31  2  0
 29 30  1  0
M  END
$$$$
