LLW.pdb
     RDKit          3D

 31 32  0  0  1  0  0  0  0  0999 V2000
   11.3232  -20.1691   17.1221 C   0  0  0  0  0  0  0  0  0  0  0  0
   10.4573  -19.9747   18.3382 C   0  0  1  0  0  0  0  0  0  0  0  0
    9.5747  -21.2106   18.4939 C   0  0  0  0  0  0  0  0  0  0  0  0
   11.2272  -19.6918   19.5884 C   0  0  0  0  0  0  0  0  0  0  0  0
   10.4333  -19.1711   20.7306 C   0  0  2  0  0  0  0  0  0  0  0  0
    9.1130  -19.7511   20.8229 N   0  0  0  0  0  0  0  0  0  0  0  0
   10.3567  -17.7076   20.8625 C   0  0  0  0  0  0  0  0  0  0  0  0
   11.3765  -16.9647   20.6125 O   0  0  0  0  0  0  0  0  0  0  0  0
    6.0927  -13.5299   20.5883 C   0  0  0  0  0  0  0  0  0  0  0  0
    7.5512  -13.7142   21.0713 C   0  0  2  0  0  0  0  0  0  0  0  0
    8.3843  -12.8937   20.1386 C   0  0  0  0  0  0  0  0  0  0  0  0
    7.8182  -15.1696   21.0408 C   0  0  0  0  0  0  0  0  0  0  0  0
    9.1469  -15.6425   21.5286 C   0  0  2  0  0  0  0  0  0  0  0  0
    9.1493  -17.0956   21.2719 N   0  0  0  0  0  0  0  0  0  0  0  0
    9.2808  -15.4018   22.9855 C   0  0  0  0  0  0  0  0  0  0  0  0
    8.2746  -14.9411   23.6271 O   0  0  0  0  0  0  0  0  0  0  0  0
   10.4289  -15.6350   23.7716 N   0  0  0  0  0  0  0  0  0  0  0  0
   10.3388  -15.7468   25.2119 C   0  0  1  0  0  0  0  0  0  0  0  0
    9.0331  -16.2792   25.6768 C   0  0  0  0  0  0  0  0  0  0  0  0
    7.9360  -15.3094   25.8058 C   0  0  0  0  0  0  0  0  0  0  0  0
    6.6188  -15.6516   25.4573 C   0  0  0  0  0  0  0  0  0  0  0  0
    5.7967  -14.6155   25.7004 N   0  0  0  0  0  0  0  0  0  0  0  0
    6.5154  -13.5951   26.1971 C   0  0  0  0  0  0  0  0  0  0  0  0
    6.1525  -12.3308   26.5917 C   0  0  0  0  0  0  0  0  0  0  0  0
    7.1497  -11.5031   27.0528 C   0  0  0  0  0  0  0  0  0  0  0  0
    8.4529  -11.9059   27.1216 C   0  0  0  0  0  0  0  0  0  0  0  0
    8.8233  -13.1710   26.7282 C   0  0  0  0  0  0  0  0  0  0  0  0
    7.8257  -14.0242   26.2594 C   0  0  0  0  0  0  0  0  0  0  0  0
   11.4604  -16.5064   25.7443 C   0  0  0  0  0  0  0  0  0  0  0  0
   11.8094  -16.5580   27.0890 O   0  0  0  0  0  0  0  0  0  0  0  0
   12.1904  -17.1702   24.9680 O   0  0  0  0  0  0  0  0  0  0  0  0
  2  1  1  6
  3  2  1  0
  4  2  1  0
  5  6  1  6
  5  4  1  0
  7  5  1  0
  8  7  2  0
 10  9  1  6
 10 12  1  0
 11 10  1  0
 13 12  1  1
 13 15  1  0
 13 14  1  0
 14  7  1  0
 15 17  1  0
 16 15  2  0
 17 18  1  0
 18 19  1  6
 18 29  1  0
 19 20  1  0
 20 21  2  0
 22 21  1  0
 23 22  1  0
 24 23  2  0
 25 24  1  0
 26 27  1  0
 26 25  2  0
 27 28  2  0
 28 23  1  0
 28 20  1  0
 29 31  2  0
 29 30  1  0
M  END
$$$$
