LLW.pdb
     RDKit          3D

 31 32  0  0  1  0  0  0  0  0999 V2000
   10.7521  -19.9310   16.0669 C   0  0  0  0  0  0  0  0  0  0  0  0
   10.2493  -19.8399   17.4830 C   0  0  1  0  0  0  0  0  0  0  0  0
   10.8591  -20.9923   18.2773 C   0  0  0  0  0  0  0  0  0  0  0  0
   10.5200  -18.5223   18.1360 C   0  0  0  0  0  0  0  0  0  0  0  0
   10.0371  -18.3843   19.5338 C   0  0  2  0  0  0  0  0  0  0  0  0
    8.6531  -18.7640   19.7025 N   0  0  0  0  0  0  0  0  0  0  0  0
   10.2947  -17.0938   20.1920 C   0  0  0  0  0  0  0  0  0  0  0  0
   11.4746  -16.5817   20.2092 O   0  0  0  0  0  0  0  0  0  0  0  0
    8.5767  -13.0773   19.4497 C   0  0  0  0  0  0  0  0  0  0  0  0
    7.6364  -14.0797   20.1609 C   0  0  2  0  0  0  0  0  0  0  0  0
    6.3030  -13.4040   20.2127 C   0  0  0  0  0  0  0  0  0  0  0  0
    8.2510  -14.3637   21.4771 C   0  0  0  0  0  0  0  0  0  0  0  0
    9.5385  -15.1179   21.4943 C   0  0  2  0  0  0  0  0  0  0  0  0
    9.2376  -16.3961   20.8211 N   0  0  0  0  0  0  0  0  0  0  0  0
    9.9641  -15.3868   22.8889 C   0  0  0  0  0  0  0  0  0  0  0  0
   10.7524  -14.5579   23.4614 O   0  0  0  0  0  0  0  0  0  0  0  0
    9.5822  -16.4877   23.6844 N   0  0  0  0  0  0  0  0  0  0  0  0
   10.1283  -16.6765   25.0115 C   0  0  1  0  0  0  0  0  0  0  0  0
    9.9013  -15.5150   25.9081 C   0  0  0  0  0  0  0  0  0  0  0  0
    8.5094  -15.0703   26.0681 C   0  0  0  0  0  0  0  0  0  0  0  0
    7.4389  -15.9702   25.9344 C   0  0  0  0  0  0  0  0  0  0  0  0
    6.2756  -15.3359   26.1636 N   0  0  0  0  0  0  0  0  0  0  0  0
    6.5292  -14.0469   26.4444 C   0  0  0  0  0  0  0  0  0  0  0  0
    5.6951  -12.9961   26.7375 C   0  0  0  0  0  0  0  0  0  0  0  0
    6.2792  -11.7723   26.9688 C   0  0  0  0  0  0  0  0  0  0  0  0
    7.6319  -11.5920   26.9129 C   0  0  0  0  0  0  0  0  0  0  0  0
    8.4731  -12.6403   26.6201 C   0  0  0  0  0  0  0  0  0  0  0  0
    7.8988  -13.8883   26.3842 C   0  0  0  0  0  0  0  0  0  0  0  0
    9.6512  -17.9209   25.5965 C   0  0  0  0  0  0  0  0  0  0  0  0
   10.0958  -18.4445   26.8051 O   0  0  0  0  0  0  0  0  0  0  0  0
    8.7821  -18.6004   24.9973 O   0  0  0  0  0  0  0  0  0  0  0  0
  2  1  1  6
  3  2  1  0
  4  2  1  0
  5  6  1  6
  5  4  1  0
  7  5  1  0
  8  7  2  0
 10  9  1  6
 10 12  1  0
 11 10  1  0
 13 12  1  1
 13 15  1  0
 13 14  1  0
 14  7  1  0
 15 17  1  0
 16 15  2  0
 17 18  1  0
 18 19  1  1
 18 29  1  0
 19 20  1  0
 20 21  2  0
 22 21  1  0
 23 22  1  0
 24 23  2  0
 25 24  1  0
 26 27  1  0
 26 25  2  0
 27 28  2  0
 28 23  1  0
 28 20  1  0
 29 31  2  0
 29 30  1  0
M  END
$$$$
