LLW.pdb
     RDKit          3D

 31 32  0  0  1  0  0  0  0  0999 V2000
    7.9109  -20.3578   16.6479 C   0  0  0  0  0  0  0  0  0  0  0  0
    7.9433  -20.1439   18.1377 C   0  0  1  0  0  0  0  0  0  0  0  0
    8.3647  -21.4556   18.7956 C   0  0  0  0  0  0  0  0  0  0  0  0
    8.8202  -19.0111   18.5660 C   0  0  0  0  0  0  0  0  0  0  0  0
    8.8223  -18.7118   20.0208 C   0  0  2  0  0  0  0  0  0  0  0  0
    7.5067  -18.7556   20.6171 N   0  0  0  0  0  0  0  0  0  0  0  0
    9.5298  -17.4910   20.4380 C   0  0  0  0  0  0  0  0  0  0  0  0
   10.7703  -17.3116   20.1489 O   0  0  0  0  0  0  0  0  0  0  0  0
    8.9627  -13.4406   19.2367 C   0  0  0  0  0  0  0  0  0  0  0  0
    7.8912  -13.9537   20.2283 C   0  0  2  0  0  0  0  0  0  0  0  0
    6.8351  -12.8948   20.2536 C   0  0  0  0  0  0  0  0  0  0  0  0
    8.5890  -14.1792   21.5139 C   0  0  0  0  0  0  0  0  0  0  0  0
    9.5906  -15.2836   21.5762 C   0  0  2  0  0  0  0  0  0  0  0  0
    8.8474  -16.4922   21.1705 N   0  0  0  0  0  0  0  0  0  0  0  0
   10.0876  -15.4562   22.9625 C   0  0  0  0  0  0  0  0  0  0  0  0
   10.9752  -14.6468   23.4022 O   0  0  0  0  0  0  0  0  0  0  0  0
    9.6758  -16.4420   23.8840 N   0  0  0  0  0  0  0  0  0  0  0  0
   10.2284  -16.4934   25.2208 C   0  0  1  0  0  0  0  0  0  0  0  0
    9.7124  -15.4211   26.1087 C   0  0  0  0  0  0  0  0  0  0  0  0
    8.2786  -15.1145   26.0044 C   0  0  0  0  0  0  0  0  0  0  0  0
    7.3487  -16.1028   25.6409 C   0  0  0  0  0  0  0  0  0  0  0  0
    6.1058  -15.5895   25.6541 N   0  0  0  0  0  0  0  0  0  0  0  0
    6.1713  -14.2963   26.0118 C   0  0  0  0  0  0  0  0  0  0  0  0
    5.1963  -13.3412   26.1626 C   0  0  0  0  0  0  0  0  0  0  0  0
    5.6004  -12.0801   26.5349 C   0  0  0  0  0  0  0  0  0  0  0  0
    6.9139  -11.7732   26.7495 C   0  0  0  0  0  0  0  0  0  0  0  0
    7.8956  -12.7251   26.6004 C   0  0  0  0  0  0  0  0  0  0  0  0
    7.5043  -14.0093   26.2249 C   0  0  0  0  0  0  0  0  0  0  0  0
   10.0558  -17.8162   25.8029 C   0  0  0  0  0  0  0  0  0  0  0  0
    9.3901  -18.8683   25.1843 O   0  0  0  0  0  0  0  0  0  0  0  0
   10.5210  -18.0631   26.9425 O   0  0  0  0  0  0  0  0  0  0  0  0
  2  1  1  6
  3  2  1  0
  4  2  1  0
  5  6  1  6
  5  4  1  0
  7  5  1  0
  8  7  2  0
 10  9  1  6
 10 12  1  0
 11 10  1  0
 13 12  1  1
 13 15  1  0
 13 14  1  0
 14  7  1  0
 15 17  1  0
 16 15  2  0
 17 18  1  0
 18 19  1  1
 18 29  1  0
 19 20  1  0
 20 21  2  0
 22 21  1  0
 23 22  1  0
 24 23  2  0
 25 24  1  0
 26 27  1  0
 26 25  2  0
 27 28  2  0
 28 23  1  0
 28 20  1  0
 29 31  2  0
 29 30  1  0
M  END
$$$$
