LLW.pdb
     RDKit          3D

 31 32  0  0  1  0  0  0  0  0999 V2000
   11.2216  -21.0816   17.0131 C   0  0  0  0  0  0  0  0  0  0  0  0
   10.5794  -20.7537   18.3346 C   0  0  1  0  0  0  0  0  0  0  0  0
   10.4216  -22.0533   19.1201 C   0  0  0  0  0  0  0  0  0  0  0  0
   11.3192  -19.7231   19.1260 C   0  0  0  0  0  0  0  0  0  0  0  0
   10.6741  -19.2991   20.3949 C   0  0  2  0  0  0  0  0  0  0  0  0
    9.3500  -19.8486   20.5765 N   0  0  0  0  0  0  0  0  0  0  0  0
   10.6691  -17.8551   20.6772 C   0  0  0  0  0  0  0  0  0  0  0  0
   11.7437  -17.1555   20.5755 O   0  0  0  0  0  0  0  0  0  0  0  0
    6.3419  -13.6465   21.0885 C   0  0  0  0  0  0  0  0  0  0  0  0
    7.8577  -13.8427   21.3297 C   0  0  2  0  0  0  0  0  0  0  0  0
    8.5352  -12.9313   20.3563 C   0  0  0  0  0  0  0  0  0  0  0  0
    8.1261  -15.2851   21.1349 C   0  0  0  0  0  0  0  0  0  0  0  0
    9.5132  -15.7739   21.3875 C   0  0  2  0  0  0  0  0  0  0  0  0
    9.4710  -17.2142   21.0695 N   0  0  0  0  0  0  0  0  0  0  0  0
    9.8739  -15.5975   22.8148 C   0  0  0  0  0  0  0  0  0  0  0  0
   10.4418  -14.5094   23.1751 O   0  0  0  0  0  0  0  0  0  0  0  0
    9.6505  -16.5227   23.8564 N   0  0  0  0  0  0  0  0  0  0  0  0
   10.2382  -16.3313   25.1652 C   0  0  1  0  0  0  0  0  0  0  0  0
    9.8283  -15.0582   25.8100 C   0  0  0  0  0  0  0  0  0  0  0  0
    8.3839  -14.7979   25.8915 C   0  0  0  0  0  0  0  0  0  0  0  0
    7.4472  -15.8196   25.6627 C   0  0  0  0  0  0  0  0  0  0  0  0
    6.2007  -15.3451   25.8335 N   0  0  0  0  0  0  0  0  0  0  0  0
    6.2701  -14.0456   26.1667 C   0  0  0  0  0  0  0  0  0  0  0  0
    5.2924  -13.1192   26.4345 C   0  0  0  0  0  0  0  0  0  0  0  0
    5.7003  -11.8410   26.7381 C   0  0  0  0  0  0  0  0  0  0  0  0
    7.0198  -11.4904   26.7757 C   0  0  0  0  0  0  0  0  0  0  0  0
    8.0042  -12.4134   26.5087 C   0  0  0  0  0  0  0  0  0  0  0  0
    7.6094  -13.7142   26.2005 C   0  0  0  0  0  0  0  0  0  0  0  0
    9.9879  -17.4828   26.0196 C   0  0  0  0  0  0  0  0  0  0  0  0
    9.3046  -18.6259   25.6207 O   0  0  0  0  0  0  0  0  0  0  0  0
   10.3966  -17.4809   27.2066 O   0  0  0  0  0  0  0  0  0  0  0  0
  2  1  1  6
  3  2  1  0
  4  2  1  0
  5  6  1  6
  5  4  1  0
  7  5  1  0
  8  7  2  0
 10  9  1  6
 10 12  1  0
 11 10  1  0
 13 12  1  1
 13 15  1  0
 13 14  1  0
 14  7  1  0
 15 17  1  0
 16 15  2  0
 17 18  1  0
 18 19  1  1
 18 29  1  0
 19 20  1  0
 20 21  2  0
 22 21  1  0
 23 22  1  0
 24 23  2  0
 25 24  1  0
 26 27  1  0
 26 25  2  0
 27 28  2  0
 28 23  1  0
 28 20  1  0
 29 31  2  0
 29 30  1  0
M  END
$$$$
