LLW.pdb
     RDKit          3D

 31 32  0  0  1  0  0  0  0  0999 V2000
   10.8410  -19.6391   16.2624 C   0  0  0  0  0  0  0  0  0  0  0  0
   10.3464  -19.6239   17.6842 C   0  0  1  0  0  0  0  0  0  0  0  0
   10.9868  -20.7976   18.4211 C   0  0  0  0  0  0  0  0  0  0  0  0
   10.5929  -18.3319   18.3953 C   0  0  0  0  0  0  0  0  0  0  0  0
   10.1311  -18.2740   19.8057 C   0  0  2  0  0  0  0  0  0  0  0  0
    8.8217  -18.8520   20.0046 N   0  0  0  0  0  0  0  0  0  0  0  0
   10.2153  -16.9637   20.4698 C   0  0  0  0  0  0  0  0  0  0  0  0
   11.3342  -16.3352   20.5578 O   0  0  0  0  0  0  0  0  0  0  0  0
    8.1643  -13.1422   19.5618 C   0  0  0  0  0  0  0  0  0  0  0  0
    7.2867  -14.2355   20.2167 C   0  0  2  0  0  0  0  0  0  0  0  0
    5.8887  -13.7064   20.1634 C   0  0  0  0  0  0  0  0  0  0  0  0
    7.8303  -14.4447   21.5773 C   0  0  0  0  0  0  0  0  0  0  0  0
    9.1810  -15.0677   21.6975 C   0  0  2  0  0  0  0  0  0  0  0  0
    9.0557  -16.3758   21.0263 N   0  0  0  0  0  0  0  0  0  0  0  0
    9.5300  -15.2797   23.1229 C   0  0  0  0  0  0  0  0  0  0  0  0
    9.9838  -14.2923   23.7977 O   0  0  0  0  0  0  0  0  0  0  0  0
    9.4103  -16.4860   23.8448 N   0  0  0  0  0  0  0  0  0  0  0  0
    9.9000  -16.5965   25.2024 C   0  0  1  0  0  0  0  0  0  0  0  0
    8.8137  -16.6820   26.2110 C   0  0  0  0  0  0  0  0  0  0  0  0
    7.7169  -15.7122   26.0796 C   0  0  0  0  0  0  0  0  0  0  0  0
    6.4527  -16.1043   25.6087 C   0  0  0  0  0  0  0  0  0  0  0  0
    5.6144  -15.0528   25.6170 N   0  0  0  0  0  0  0  0  0  0  0  0
    6.2715  -13.9742   26.0747 C   0  0  0  0  0  0  0  0  0  0  0  0
    5.8709  -12.6743   26.2634 C   0  0  0  0  0  0  0  0  0  0  0  0
    6.8072  -11.7892   26.7452 C   0  0  0  0  0  0  0  0  0  0  0  0
    8.0875  -12.1706   27.0291 C   0  0  0  0  0  0  0  0  0  0  0  0
    8.4953  -13.4711   26.8427 C   0  0  0  0  0  0  0  0  0  0  0  0
    7.5594  -14.3825   26.3563 C   0  0  0  0  0  0  0  0  0  0  0  0
   10.8474  -17.6948   25.3241 C   0  0  0  0  0  0  0  0  0  0  0  0
   11.6342  -17.9358   26.4446 O   0  0  0  0  0  0  0  0  0  0  0  0
   10.9975  -18.4991   24.3720 O   0  0  0  0  0  0  0  0  0  0  0  0
  2  1  1  6
  3  2  1  0
  4  2  1  0
  5  6  1  6
  5  4  1  0
  7  5  1  0
  8  7  2  0
 10  9  1  1
 10 12  1  0
 11 10  1  0
 13 12  1  1
 13 15  1  0
 13 14  1  0
 14  7  1  0
 15 17  1  0
 16 15  2  0
 17 18  1  0
 18 19  1  1
 18 29  1  0
 19 20  1  0
 20 21  2  0
 22 21  1  0
 23 22  1  0
 24 23  2  0
 25 24  1  0
 26 27  1  0
 26 25  2  0
 27 28  2  0
 28 23  1  0
 28 20  1  0
 29 31  2  0
 29 30  1  0
M  END
$$$$
