LLW.pdb
     RDKit          3D

 31 32  0  0  1  0  0  0  0  0999 V2000
    8.1007  -20.2083   18.1422 C   0  0  0  0  0  0  0  0  0  0  0  0
    9.5504  -19.8031   18.1651 C   0  0  1  0  0  0  0  0  0  0  0  0
   10.1122  -19.9731   16.7558 C   0  0  0  0  0  0  0  0  0  0  0  0
    9.7824  -18.4196   18.6828 C   0  0  0  0  0  0  0  0  0  0  0  0
    9.4551  -18.2040   20.1154 C   0  0  2  0  0  0  0  0  0  0  0  0
    8.0487  -18.3550   20.4113 N   0  0  0  0  0  0  0  0  0  0  0  0
    9.9747  -16.9714   20.7283 C   0  0  0  0  0  0  0  0  0  0  0  0
   11.2229  -16.6693   20.6552 O   0  0  0  0  0  0  0  0  0  0  0  0
    7.2062  -12.5009   20.3602 C   0  0  0  0  0  0  0  0  0  0  0  0
    8.2023  -13.6850   20.3681 C   0  0  2  0  0  0  0  0  0  0  0  0
    7.4266  -14.8590   19.8611 C   0  0  0  0  0  0  0  0  0  0  0  0
    8.6924  -13.8063   21.7595 C   0  0  0  0  0  0  0  0  0  0  0  0
    9.6640  -14.8980   22.0610 C   0  0  2  0  0  0  0  0  0  0  0  0
    9.0990  -16.0974   21.4133 N   0  0  0  0  0  0  0  0  0  0  0  0
    9.7514  -15.1258   23.5235 C   0  0  0  0  0  0  0  0  0  0  0  0
    9.6749  -14.1183   24.3079 O   0  0  0  0  0  0  0  0  0  0  0  0
    9.9105  -16.3698   24.1701 N   0  0  0  0  0  0  0  0  0  0  0  0
   10.1391  -16.4468   25.5972 C   0  0  1  0  0  0  0  0  0  0  0  0
    8.8897  -16.6150   26.3816 C   0  0  0  0  0  0  0  0  0  0  0  0
    7.8606  -15.5797   26.2087 C   0  0  0  0  0  0  0  0  0  0  0  0
    6.5717  -15.9050   25.7540 C   0  0  0  0  0  0  0  0  0  0  0  0
    5.8064  -14.7999   25.7173 N   0  0  0  0  0  0  0  0  0  0  0  0
    6.5358  -13.7498   26.1294 C   0  0  0  0  0  0  0  0  0  0  0  0
    6.2243  -12.4190   26.2629 C   0  0  0  0  0  0  0  0  0  0  0  0
    7.2192  -11.5796   26.7074 C   0  0  0  0  0  0  0  0  0  0  0  0
    8.4715  -12.0343   27.0079 C   0  0  0  0  0  0  0  0  0  0  0  0
    8.7902  -13.3661   26.8768 C   0  0  0  0  0  0  0  0  0  0  0  0
    7.7938  -14.2319   26.4289 C   0  0  0  0  0  0  0  0  0  0  0  0
   11.1239  -17.4719   25.9101 C   0  0  0  0  0  0  0  0  0  0  0  0
   11.7076  -18.3159   24.9722 O   0  0  0  0  0  0  0  0  0  0  0  0
   11.4946  -17.6407   27.0976 O   0  0  0  0  0  0  0  0  0  0  0  0
  2  1  1  6
  3  2  1  0
  4  2  1  0
  5  6  1  6
  5  4  1  0
  7  5  1  0
  8  7  2  0
 10  9  1  1
 10 12  1  0
 11 10  1  0
 13 12  1  1
 13 15  1  0
 13 14  1  0
 14  7  1  0
 15 17  1  0
 16 15  2  0
 17 18  1  0
 18 19  1  1
 18 29  1  0
 19 20  1  0
 20 21  2  0
 22 21  1  0
 23 22  1  0
 24 23  2  0
 25 24  1  0
 26 27  1  0
 26 25  2  0
 27 28  2  0
 28 23  1  0
 28 20  1  0
 29 31  2  0
 29 30  1  0
M  END
$$$$
