LLW.pdb
     RDKit          3D

 31 32  0  0  1  0  0  0  0  0999 V2000
    5.6216  -18.9874   18.7406 C   0  0  0  0  0  0  0  0  0  0  0  0
    6.8853  -19.7835   18.5518 C   0  0  1  0  0  0  0  0  0  0  0  0
    6.8998  -20.3172   17.1215 C   0  0  0  0  0  0  0  0  0  0  0  0
    8.1323  -19.0193   18.8627 C   0  0  0  0  0  0  0  0  0  0  0  0
    8.3333  -18.6673   20.2916 C   0  0  2  0  0  0  0  0  0  0  0  0
    7.1080  -18.6566   21.0575 N   0  0  0  0  0  0  0  0  0  0  0  0
    9.1140  -17.4500   20.5633 C   0  0  0  0  0  0  0  0  0  0  0  0
   10.2803  -17.2810   20.0478 O   0  0  0  0  0  0  0  0  0  0  0  0
    8.8484  -13.5334   19.3548 C   0  0  0  0  0  0  0  0  0  0  0  0
    7.8079  -13.8990   20.4403 C   0  0  2  0  0  0  0  0  0  0  0  0
    6.8428  -12.7567   20.4650 C   0  0  0  0  0  0  0  0  0  0  0  0
    8.5696  -14.1083   21.6920 C   0  0  0  0  0  0  0  0  0  0  0  0
    9.4531  -15.3080   21.7753 C   0  0  2  0  0  0  0  0  0  0  0  0
    8.5862  -16.4431   21.4045 N   0  0  0  0  0  0  0  0  0  0  0  0
    9.9422  -15.4973   23.1621 C   0  0  0  0  0  0  0  0  0  0  0  0
   10.8677  -14.7291   23.5975 O   0  0  0  0  0  0  0  0  0  0  0  0
    9.4845  -16.4580   24.0886 N   0  0  0  0  0  0  0  0  0  0  0  0
   10.1373  -16.6326   25.3686 C   0  0  1  0  0  0  0  0  0  0  0  0
    9.2904  -16.2242   26.5177 C   0  0  0  0  0  0  0  0  0  0  0  0
    8.1061  -15.4114   26.2054 C   0  0  0  0  0  0  0  0  0  0  0  0
    6.9357  -15.9982   25.6960 C   0  0  0  0  0  0  0  0  0  0  0  0
    5.9871  -15.0595   25.5307 N   0  0  0  0  0  0  0  0  0  0  0  0
    6.4804  -13.8688   25.9096 C   0  0  0  0  0  0  0  0  0  0  0  0
    5.9230  -12.6139   25.9254 C   0  0  0  0  0  0  0  0  0  0  0  0
    6.7125  -11.5783   26.3687 C   0  0  0  0  0  0  0  0  0  0  0  0
    8.0005  -11.7725   26.7795 C   0  0  0  0  0  0  0  0  0  0  0  0
    8.5649  -13.0269   26.7665 C   0  0  0  0  0  0  0  0  0  0  0  0
    7.7790  -14.0888   26.3217 C   0  0  0  0  0  0  0  0  0  0  0  0
   10.6386  -17.9914   25.5139 C   0  0  0  0  0  0  0  0  0  0  0  0
   11.4266  -18.4313   26.5713 O   0  0  0  0  0  0  0  0  0  0  0  0
   10.3670  -18.8542   24.6434 O   0  0  0  0  0  0  0  0  0  0  0  0
  2  1  1  6
  3  2  1  0
  4  2  1  0
  5  6  1  6
  5  4  1  0
  7  5  1  0
  8  7  2  0
 10  9  1  6
 10 12  1  0
 11 10  1  0
 13 12  1  1
 13 15  1  0
 13 14  1  0
 14  7  1  0
 15 17  1  0
 16 15  2  0
 17 18  1  0
 18 19  1  1
 18 29  1  0
 19 20  1  0
 20 21  2  0
 22 21  1  0
 23 22  1  0
 24 23  2  0
 25 24  1  0
 26 27  1  0
 26 25  2  0
 27 28  2  0
 28 23  1  0
 28 20  1  0
 29 31  2  0
 29 30  1  0
M  END
$$$$
