RVS.pdb
     RDKit          3D

 25 24  0  0  1  0  0  0  0  0999 V2000
   15.3240   -9.6510  -10.0351 N   0  0  0  0  0  0  0  0  0  0  0  0
   13.9982  -10.1648  -10.0311 C   0  0  0  0  0  0  0  0  0  0  0  0
   13.1299   -9.8217   -9.1309 N   0  0  0  0  0  0  0  0  0  0  0  0
   13.5414  -11.0962  -11.0256 N   0  0  0  0  0  0  0  0  0  0  0  0
   14.3062  -11.4317  -12.1628 C   0  0  0  0  0  0  0  0  0  0  0  0
   14.6925  -10.4201  -13.1467 C   0  0  0  0  0  0  0  0  0  0  0  0
   16.0751  -10.1847  -13.5588 C   0  0  0  0  0  0  0  0  0  0  0  0
   16.4809  -10.5360  -14.9337 C   0  0  2  0  0  0  0  0  0  0  0  0
   16.6795  -11.9363  -15.1873 N   0  0  0  0  0  0  0  0  0  0  0  0
   17.7892   -9.8781  -15.3023 C   0  0  0  0  0  0  0  0  0  0  0  0
   18.7756  -10.5910  -15.4912 O   0  0  0  0  0  0  0  0  0  0  0  0
   12.1629  -10.2152   -9.1038 C   0  0  0  0  0  0  0  0  0  0  0  0
   17.8315   -6.3676  -17.5065 C   0  0  1  0  0  0  0  0  0  0  0  0
   18.9686   -7.3112  -17.3154 C   0  0  0  0  0  0  0  0  0  0  0  0
   18.9562   -8.4660  -18.2810 C   0  0  1  0  0  0  0  0  0  0  0  0
   19.0997   -7.8047  -15.8801 N   0  0  0  0  0  0  0  0  0  0  0  0
   17.9116   -8.4827  -15.4351 C   0  0  0  0  0  0  0  0  0  0  0  0
   19.4336   -6.6828  -14.9624 O   0  0  0  0  0  0  0  0  0  0  0  0
   18.5001   -5.9799  -14.4795 O   0  0  0  0  0  0  0  0  0  0  0  0
   21.8155   -7.0121  -12.0508 C   0  0  0  0  0  0  0  0  0  0  0  0
   22.1827   -5.8143  -12.6568 C   0  0  2  0  0  0  0  0  0  0  0  0
   21.0902   -5.3785  -13.5861 N   0  0  0  0  0  0  0  0  0  0  0  0
   20.7488   -6.3475  -14.5903 C   0  0  0  0  0  0  0  0  0  0  0  0
   21.3253   -4.0312  -14.1558 O   0  0  0  0  0  0  0  0  0  0  0  0
   21.5988   -3.8137  -15.3570 O   0  0  0  0  0  0  0  0  0  0  0  0
  2  1  1  0
  3  2  2  0
  4  2  1  0
  5  4  1  0
  6  5  1  0
  7  6  1  0
  8 10  1  0
  8  7  1  0
  8  9  1  1
 10 11  2  0
 13 12  1  6
 14 13  1  0
 15 13  1  0
 16 10  1  0
 15 16  1  6
 17 22  1  0
 17 15  1  0
 18 17  2  0
 19 20  1  0
 21 20  1  1
 21 22  1  0
 23 21  1  0
 24 23  2  0
 25 23  1  0
M  END
$$$$
