RVS.pdb
     RDKit          3D

 25 24  0  0  1  0  0  0  0  0999 V2000
   28.9041  -18.6923  -17.5977 N   0  0  0  0  0  0  0  0  0  0  0  0
   28.1481  -17.5137  -17.8453 C   0  0  0  0  0  0  0  0  0  0  0  0
   28.3052  -16.8090  -18.9226 N   0  0  0  0  0  0  0  0  0  0  0  0
   27.1638  -17.0331  -16.9151 N   0  0  0  0  0  0  0  0  0  0  0  0
   26.4034  -17.8960  -16.0978 C   0  0  0  0  0  0  0  0  0  0  0  0
   25.4175  -18.8140  -16.6689 C   0  0  0  0  0  0  0  0  0  0  0  0
   24.3593  -19.4482  -15.8849 C   0  0  0  0  0  0  0  0  0  0  0  0
   24.7323  -20.3248  -14.7577 C   0  0  2  0  0  0  0  0  0  0  0  0
   25.5864  -21.4329  -15.0849 N   0  0  0  0  0  0  0  0  0  0  0  0
   23.5115  -20.9421  -14.1182 C   0  0  0  0  0  0  0  0  0  0  0  0
   23.0844  -22.0064  -14.5674 O   0  0  0  0  0  0  0  0  0  0  0  0
   27.7403  -15.9536  -19.1222 C   0  0  0  0  0  0  0  0  0  0  0  0
   20.3559  -20.8824  -10.2420 C   0  0  1  0  0  0  0  0  0  0  0  0
   21.5215  -20.3055  -10.9690 C   0  0  0  0  0  0  0  0  0  0  0  0
   21.5135  -18.8007  -11.0132 C   0  0  2  0  0  0  0  0  0  0  0  0
   21.7027  -20.8888  -12.3645 N   0  0  0  0  0  0  0  0  0  0  0  0
   22.8528  -20.3391  -13.0308 C   0  0  0  0  0  0  0  0  0  0  0  0
   20.4793  -20.6872  -13.1860 O   0  0  0  0  0  0  0  0  0  0  0  0
   20.3491  -19.6190  -13.8500 O   0  0  0  0  0  0  0  0  0  0  0  0
   16.7720  -22.4716  -15.6223 C   0  0  0  0  0  0  0  0  0  0  0  0
   17.7791  -22.7590  -14.7057 C   0  0  2  0  0  0  0  0  0  0  0  0
   18.2701  -21.4797  -14.0978 N   0  0  0  0  0  0  0  0  0  0  0  0
   19.4367  -21.6285  -13.2727 C   0  0  0  0  0  0  0  0  0  0  0  0
   17.1944  -20.7145  -13.4252 O   0  0  0  0  0  0  0  0  0  0  0  0
   17.0401  -20.6604  -12.1850 O   0  0  0  0  0  0  0  0  0  0  0  0
  2  1  1  0
  3  2  2  0
  4  2  1  0
  5  4  1  0
  6  5  1  0
  7  6  1  0
  8 10  1  0
  8  7  1  0
  8  9  1  6
 10 11  2  0
 13 12  1  1
 14 13  1  0
 15 13  1  0
 16 10  1  0
 15 16  1  6
 17 22  1  0
 17 15  1  0
 18 17  2  0
 19 20  1  0
 21 20  1  6
 21 22  1  0
 23 21  1  0
 24 23  2  0
 25 23  1  0
M  END
$$$$
