RVS.pdb
     RDKit          3D

 25 24  0  0  1  0  0  0  0  0999 V2000
   26.7357  -18.5640  -18.8388 N   0  0  0  0  0  0  0  0  0  0  0  0
   26.0232  -18.8728  -20.0299 C   0  0  0  0  0  0  0  0  0  0  0  0
   26.6247  -19.0500  -21.1652 N   0  0  0  0  0  0  0  0  0  0  0  0
   24.5926  -19.0070  -20.0463 N   0  0  0  0  0  0  0  0  0  0  0  0
   23.8547  -19.4310  -18.9209 C   0  0  0  0  0  0  0  0  0  0  0  0
   24.5194  -19.8255  -17.6785 C   0  0  0  0  0  0  0  0  0  0  0  0
   23.8154  -20.4147  -16.5410 C   0  0  0  0  0  0  0  0  0  0  0  0
   22.4040  -20.0518  -16.3079 C   0  0  2  0  0  0  0  0  0  0  0  0
   22.1386  -18.6488  -16.1473 N   0  0  0  0  0  0  0  0  0  0  0  0
   21.8730  -20.7008  -15.0520 C   0  0  0  0  0  0  0  0  0  0  0  0
   22.1517  -21.8806  -14.8344 O   0  0  0  0  0  0  0  0  0  0  0  0
   26.1068  -19.2382  -22.0524 C   0  0  0  0  0  0  0  0  0  0  0  0
   20.1177  -20.2251  -10.4775 C   0  0  1  0  0  0  0  0  0  0  0  0
   20.6513  -19.6391  -11.7392 C   0  0  0  0  0  0  0  0  0  0  0  0
   20.0898  -18.2774  -12.0504 C   0  0  2  0  0  0  0  0  0  0  0  0
   20.5107  -20.5710  -12.9361 N   0  0  0  0  0  0  0  0  0  0  0  0
   21.0742  -19.9998  -14.1300 C   0  0  0  0  0  0  0  0  0  0  0  0
   19.0866  -20.9388  -13.1569 O   0  0  0  0  0  0  0  0  0  0  0  0
   18.3323  -20.1423  -13.7857 O   0  0  0  0  0  0  0  0  0  0  0  0
   17.9347  -24.6469  -13.5126 C   0  0  0  0  0  0  0  0  0  0  0  0
   16.8951  -23.9939  -12.8570 C   0  0  2  0  0  0  0  0  0  0  0  0
   17.1410  -22.5157  -12.8961 N   0  0  0  0  0  0  0  0  0  0  0  0
   18.5141  -22.1409  -12.7011 C   0  0  0  0  0  0  0  0  0  0  0  0
   16.2170  -21.7573  -12.0207 O   0  0  0  0  0  0  0  0  0  0  0  0
   16.5846  -21.0423  -11.0623 O   0  0  0  0  0  0  0  0  0  0  0  0
  2  1  1  0
  3  2  2  0
  4  2  1  0
  5  4  1  0
  6  5  1  0
  7  6  1  0
  8 10  1  0
  8  7  1  0
  8  9  1  1
 10 11  2  0
 13 12  1  1
 14 13  1  0
 15 13  1  0
 16 10  1  0
 15 16  1  6
 17 22  1  0
 17 15  1  0
 18 17  2  0
 19 20  1  0
 21 20  1  6
 21 22  1  0
 23 21  1  0
 24 23  2  0
 25 23  1  0
M  END
$$$$
