RVS.pdb
     RDKit          3D

 25 24  0  0  1  0  0  0  0  0999 V2000
   18.0910  -22.8740   -8.8828 N   0  0  0  0  0  0  0  0  0  0  0  0
   18.7169  -23.6910   -7.9016 C   0  0  0  0  0  0  0  0  0  0  0  0
   18.2046  -24.8184   -7.5162 N   0  0  0  0  0  0  0  0  0  0  0  0
   19.9558  -23.3151   -7.2779 N   0  0  0  0  0  0  0  0  0  0  0  0
   20.7570  -22.2557   -7.7537 C   0  0  0  0  0  0  0  0  0  0  0  0
   21.0713  -22.1175   -9.1761 C   0  0  0  0  0  0  0  0  0  0  0  0
   21.9478  -21.0762   -9.7092 C   0  0  0  0  0  0  0  0  0  0  0  0
   23.3739  -21.0785   -9.3292 C   0  0  2  0  0  0  0  0  0  0  0  0
   23.6792  -20.5058   -8.0472 N   0  0  0  0  0  0  0  0  0  0  0  0
   24.2046  -20.2972  -10.3191 C   0  0  0  0  0  0  0  0  0  0  0  0
   24.4887  -19.1277  -10.0577 O   0  0  0  0  0  0  0  0  0  0  0  0
   18.6575  -25.4249   -6.7967 C   0  0  0  0  0  0  0  0  0  0  0  0
   27.7599  -19.9628  -13.4931 C   0  0  1  0  0  0  0  0  0  0  0  0
   26.8879  -20.7064  -12.5410 C   0  0  0  0  0  0  0  0  0  0  0  0
   26.9011  -22.1962  -12.7568 C   0  0  2  0  0  0  0  0  0  0  0  0
   25.4604  -20.1761  -12.5005 N   0  0  0  0  0  0  0  0  0  0  0  0
   24.6597  -20.8645  -11.5236 C   0  0  0  0  0  0  0  0  0  0  0  0
   24.8267  -20.2572  -13.8436 O   0  0  0  0  0  0  0  0  0  0  0  0
   24.3819  -21.3682  -14.2517 O   0  0  0  0  0  0  0  0  0  0  0  0
   24.5802  -16.9355  -16.3815 C   0  0  0  0  0  0  0  0  0  0  0  0
   23.5639  -17.8799  -16.4929 C   0  0  1  0  0  0  0  0  0  0  0  0
   24.0668  -19.2035  -16.0005 N   0  0  0  0  0  0  0  0  0  0  0  0
   24.6882  -19.1538  -14.7062 C   0  0  0  0  0  0  0  0  0  0  0  0
   24.8999  -19.9090  -17.0021 O   0  0  0  0  0  0  0  0  0  0  0  0
   26.0972  -20.2247  -16.8238 O   0  0  0  0  0  0  0  0  0  0  0  0
  2  1  1  0
  3  2  2  0
  4  2  1  0
  5  4  1  0
  6  5  1  0
  7  6  1  0
  8 10  1  0
  8  7  1  0
  8  9  1  1
 10 11  2  0
 13 12  1  1
 14 13  1  0
 15 13  1  0
 16 10  1  0
 15 16  1  6
 17 22  1  0
 17 15  1  0
 18 17  2  0
 19 20  1  0
 21 20  1  1
 21 22  1  0
 23 21  1  0
 24 23  2  0
 25 23  1  0
M  END
$$$$
