RVS.pdb
     RDKit          3D

 25 24  0  0  1  0  0  0  0  0999 V2000
   20.4215  -21.3210   -9.9398 N   0  0  0  0  0  0  0  0  0  0  0  0
   21.0446  -21.4920   -8.6732 C   0  0  0  0  0  0  0  0  0  0  0  0
   20.3602  -21.7098   -7.5934 N   0  0  0  0  0  0  0  0  0  0  0  0
   22.4717  -21.4334   -8.5145 N   0  0  0  0  0  0  0  0  0  0  0  0
   23.3207  -20.8417   -9.4736 C   0  0  0  0  0  0  0  0  0  0  0  0
   24.7627  -20.7324   -9.2504 C   0  0  0  0  0  0  0  0  0  0  0  0
   25.6888  -20.1716  -10.2325 C   0  0  0  0  0  0  0  0  0  0  0  0
   26.1062  -21.0034  -11.3780 C   0  0  2  0  0  0  0  0  0  0  0  0
   27.2632  -21.8275  -11.1622 N   0  0  0  0  0  0  0  0  0  0  0  0
   26.4461  -20.1510  -12.5773 C   0  0  0  0  0  0  0  0  0  0  0  0
   27.5390  -19.5839  -12.6075 O   0  0  0  0  0  0  0  0  0  0  0  0
   20.8098  -21.8444   -6.6604 C   0  0  0  0  0  0  0  0  0  0  0  0
   24.2990  -20.6218  -16.3121 C   0  0  1  0  0  0  0  0  0  0  0  0
   25.7019  -20.1686  -16.0973 C   0  0  0  0  0  0  0  0  0  0  0  0
   26.6984  -21.2969  -16.0771 C   0  0  1  0  0  0  0  0  0  0  0  0
   25.8610  -19.2816  -14.8690 N   0  0  0  0  0  0  0  0  0  0  0  0
   25.5548  -19.9878  -13.6538 C   0  0  0  0  0  0  0  0  0  0  0  0
   25.0222  -18.0589  -14.9861 O   0  0  0  0  0  0  0  0  0  0  0  0
   23.8147  -18.0991  -14.6134 O   0  0  0  0  0  0  0  0  0  0  0  0
   26.4028  -14.4686  -16.7488 C   0  0  0  0  0  0  0  0  0  0  0  0
   25.5379  -14.3764  -15.6623 C   0  0  1  0  0  0  0  0  0  0  0  0
   24.7204  -15.6300  -15.5769 N   0  0  0  0  0  0  0  0  0  0  0  0
   25.4968  -16.8360  -15.4958 C   0  0  0  0  0  0  0  0  0  0  0  0
   23.6699  -15.7016  -16.6193 O   0  0  0  0  0  0  0  0  0  0  0  0
   23.5900  -16.6102  -17.4754 O   0  0  0  0  0  0  0  0  0  0  0  0
  2  1  1  0
  3  2  2  0
  4  2  1  0
  5  4  1  0
  6  5  1  0
  7  6  1  0
  8 10  1  0
  8  7  1  0
  8  9  1  1
 10 11  2  0
 13 12  1  6
 14 13  1  0
 15 13  1  0
 16 10  1  0
 15 16  1  1
 17 22  1  0
 17 15  1  0
 18 17  2  0
 19 20  1  0
 21 20  1  1
 21 22  1  0
 23 21  1  0
 24 23  2  0
 25 23  1  0
M  END
$$$$
