RVS.pdb
     RDKit          3D

 25 24  0  0  1  0  0  0  0  0999 V2000
   29.4988  -27.9528  -16.9372 N   0  0  0  0  0  0  0  0  0  0  0  0
   29.8233  -27.9799  -18.3213 C   0  0  0  0  0  0  0  0  0  0  0  0
   30.0280  -29.0907  -18.9586 N   0  0  0  0  0  0  0  0  0  0  0  0
   29.9440  -26.7762  -19.0970 N   0  0  0  0  0  0  0  0  0  0  0  0
   29.4841  -25.5243  -18.6364 C   0  0  0  0  0  0  0  0  0  0  0  0
   28.1756  -25.3813  -17.9975 C   0  0  0  0  0  0  0  0  0  0  0  0
   27.6043  -24.0920  -17.6129 C   0  0  0  0  0  0  0  0  0  0  0  0
   28.4673  -23.0983  -16.9451 C   0  0  2  0  0  0  0  0  0  0  0  0
   29.5110  -23.6350  -16.1160 N   0  0  0  0  0  0  0  0  0  0  0  0
   27.6636  -22.1991  -16.0363 C   0  0  0  0  0  0  0  0  0  0  0  0
   27.5501  -22.5089  -14.8497 O   0  0  0  0  0  0  0  0  0  0  0  0
   30.2206  -29.1230  -19.9846 C   0  0  0  0  0  0  0  0  0  0  0  0
   26.6867  -18.1516  -17.2455 C   0  0  1  0  0  0  0  0  0  0  0  0
   26.8663  -18.6641  -15.8581 C   0  0  0  0  0  0  0  0  0  0  0  0
   28.2796  -18.5429  -15.3540 C   0  0  1  0  0  0  0  0  0  0  0  0
   26.3439  -20.0832  -15.6739 N   0  0  0  0  0  0  0  0  0  0  0  0
   27.0451  -21.0253  -16.5046 C   0  0  0  0  0  0  0  0  0  0  0  0
   24.8809  -20.1473  -15.9345 O   0  0  0  0  0  0  0  0  0  0  0  0
   24.4713  -20.3875  -17.1063 O   0  0  0  0  0  0  0  0  0  0  0  0
   21.9785  -20.0489  -12.8421 C   0  0  0  0  0  0  0  0  0  0  0  0
   21.7821  -20.7897  -14.0039 C   0  0  1  0  0  0  0  0  0  0  0  0
   22.4915  -20.1179  -15.1408 N   0  0  0  0  0  0  0  0  0  0  0  0
   23.9045  -19.9536  -14.9397 C   0  0  0  0  0  0  0  0  0  0  0  0
   21.8304  -18.8626  -15.5678 O   0  0  0  0  0  0  0  0  0  0  0  0
   22.3838  -17.7407  -15.5658 O   0  0  0  0  0  0  0  0  0  0  0  0
  2  1  1  0
  3  2  2  0
  4  2  1  0
  5  4  1  0
  6  5  1  0
  7  6  1  0
  8 10  1  0
  8  7  1  0
  8  9  1  1
 10 11  2  0
 13 12  1  1
 14 13  1  0
 15 13  1  0
 16 10  1  0
 15 16  1  6
 17 22  1  0
 17 15  1  0
 18 17  2  0
 19 20  1  0
 21 20  1  6
 21 22  1  0
 23 21  1  0
 24 23  2  0
 25 23  1  0
M  END
$$$$
