RVS.pdb
     RDKit          3D

 25 24  0  0  1  0  0  0  0  0999 V2000
   34.6781  -36.7983   -5.7164 N   0  0  0  0  0  0  0  0  0  0  0  0
   33.3421  -37.2010   -5.9897 C   0  0  0  0  0  0  0  0  0  0  0  0
   33.0678  -38.3305   -6.5648 N   0  0  0  0  0  0  0  0  0  0  0  0
   32.2151  -36.3789   -5.6443 N   0  0  0  0  0  0  0  0  0  0  0  0
   32.3482  -35.1554   -4.9544 C   0  0  0  0  0  0  0  0  0  0  0  0
   31.1780  -34.3614   -4.5786 C   0  0  0  0  0  0  0  0  0  0  0  0
   29.8215  -34.6631   -5.0318 C   0  0  0  0  0  0  0  0  0  0  0  0
   29.2177  -33.8265   -6.0872 C   0  0  2  0  0  0  0  0  0  0  0  0
   28.9804  -32.4535   -5.7360 N   0  0  0  0  0  0  0  0  0  0  0  0
   27.8712  -34.3652   -6.5082 C   0  0  0  0  0  0  0  0  0  0  0  0
   27.3739  -35.2850   -5.8573 O   0  0  0  0  0  0  0  0  0  0  0  0
   32.0895  -38.6371   -6.7639 C   0  0  0  0  0  0  0  0  0  0  0  0
   25.2340  -31.9771   -8.8014 C   0  0  1  0  0  0  0  0  0  0  0  0
   24.8468  -33.1586   -7.9805 C   0  0  0  0  0  0  0  0  0  0  0  0
   24.5091  -32.8117   -6.5551 C   0  0  1  0  0  0  0  0  0  0  0  0
   25.8698  -34.2859   -8.0373 N   0  0  0  0  0  0  0  0  0  0  0  0
   27.1739  -33.8489   -7.6159 C   0  0  0  0  0  0  0  0  0  0  0  0
   25.9339  -34.8751   -9.4015 O   0  0  0  0  0  0  0  0  0  0  0  0
   26.9902  -34.7423  -10.0837 O   0  0  0  0  0  0  0  0  0  0  0  0
   26.1979  -37.8239  -12.5607 C   0  0  0  0  0  0  0  0  0  0  0  0
   26.1815  -37.2019  -11.3157 C   0  0  2  0  0  0  0  0  0  0  0  0
   24.9696  -36.3248  -11.2204 N   0  0  0  0  0  0  0  0  0  0  0  0
   24.8722  -35.5848   -9.9929 C   0  0  0  0  0  0  0  0  0  0  0  0
   23.7156  -37.0413  -11.5509 O   0  0  0  0  0  0  0  0  0  0  0  0
   22.6795  -37.0046  -10.8508 O   0  0  0  0  0  0  0  0  0  0  0  0
  2  1  1  0
  3  2  2  0
  4  2  1  0
  5  4  1  0
  6  5  1  0
  7  6  1  0
  8 10  1  0
  8  7  1  0
  8  9  1  1
 10 11  2  0
 13 12  1  6
 14 13  1  0
 15 13  1  0
 16 10  1  0
 15 16  1  1
 17 22  1  0
 17 15  1  0
 18 17  2  0
 19 20  1  0
 21 20  1  6
 21 22  1  0
 23 21  1  0
 24 23  2  0
 25 23  1  0
M  END
$$$$
