RVS.pdb
     RDKit          3D

 25 24  0  0  1  0  0  0  0  0999 V2000
   17.5939  -21.6090  -16.1715 N   0  0  0  0  0  0  0  0  0  0  0  0
   18.5367  -22.2503  -15.3219 C   0  0  0  0  0  0  0  0  0  0  0  0
   18.4203  -23.4962  -14.9815 N   0  0  0  0  0  0  0  0  0  0  0  0
   19.6759  -21.5546  -14.7895 N   0  0  0  0  0  0  0  0  0  0  0  0
   20.2949  -20.4803  -15.4628 C   0  0  0  0  0  0  0  0  0  0  0  0
   20.6893  -20.5874  -16.8677 C   0  0  0  0  0  0  0  0  0  0  0  0
   22.0792  -20.5479  -17.3188 C   0  0  0  0  0  0  0  0  0  0  0  0
   22.8203  -19.2740  -17.2400 C   0  0  2  0  0  0  0  0  0  0  0  0
   22.9773  -18.5655  -18.4802 N   0  0  0  0  0  0  0  0  0  0  0  0
   24.2243  -19.4893  -16.7273 C   0  0  0  0  0  0  0  0  0  0  0  0
   25.0632  -19.9718  -17.4891 O   0  0  0  0  0  0  0  0  0  0  0  0
   19.0761  -23.9603  -14.3141 C   0  0  0  0  0  0  0  0  0  0  0  0
   26.0211  -17.1359  -13.7175 C   0  0  1  0  0  0  0  0  0  0  0  0
   26.6733  -18.0719  -14.6759 C   0  0  0  0  0  0  0  0  0  0  0  0
   26.9807  -17.4443  -16.0092 C   0  0  1  0  0  0  0  0  0  0  0  0
   25.9051  -19.3754  -14.8533 N   0  0  0  0  0  0  0  0  0  0  0  0
   24.5980  -19.1561  -15.4124 C   0  0  0  0  0  0  0  0  0  0  0  0
   25.8035  -20.1102  -13.5642 O   0  0  0  0  0  0  0  0  0  0  0  0
   24.6618  -20.3415  -13.0723 O   0  0  0  0  0  0  0  0  0  0  0  0
   28.0089  -22.1262   -9.7183 C   0  0  0  0  0  0  0  0  0  0  0  0
   28.1930  -21.4647  -10.9289 C   0  0  2  0  0  0  0  0  0  0  0  0
   26.8551  -21.1841  -11.5441 N   0  0  0  0  0  0  0  0  0  0  0  0
   26.9196  -20.5735  -12.8429 C   0  0  0  0  0  0  0  0  0  0  0  0
   25.9406  -20.4665  -10.6255 O   0  0  0  0  0  0  0  0  0  0  0  0
   25.9233  -19.2242  -10.4794 O   0  0  0  0  0  0  0  0  0  0  0  0
  2  1  1  0
  3  2  2  0
  4  2  1  0
  5  4  1  0
  6  5  1  0
  7  6  1  0
  8 10  1  0
  8  7  1  0
  8  9  1  6
 10 11  2  0
 13 12  1  1
 14 13  1  0
 15 13  1  0
 16 10  1  0
 15 16  1  6
 17 22  1  0
 17 15  1  0
 18 17  2  0
 19 20  1  0
 21 20  1  6
 21 22  1  0
 23 21  1  0
 24 23  2  0
 25 23  1  0
M  END
$$$$
