RVS.pdb
     RDKit          3D

 25 24  0  0  1  0  0  0  0  0999 V2000
   22.1906  -21.6169   -8.5570 N   0  0  0  0  0  0  0  0  0  0  0  0
   22.6624  -21.1836   -9.8265 C   0  0  0  0  0  0  0  0  0  0  0  0
   22.0838  -21.5356  -10.9324 N   0  0  0  0  0  0  0  0  0  0  0  0
   23.8101  -20.3291   -9.9591 N   0  0  0  0  0  0  0  0  0  0  0  0
   24.9342  -20.4269   -9.1121 C   0  0  0  0  0  0  0  0  0  0  0  0
   26.2960  -20.3410   -9.6403 C   0  0  0  0  0  0  0  0  0  0  0  0
   26.6027  -19.9543  -11.0162 C   0  0  0  0  0  0  0  0  0  0  0  0
   27.0259  -20.9946  -11.9737 C   0  0  2  0  0  0  0  0  0  0  0  0
   28.4107  -21.3731  -11.9127 N   0  0  0  0  0  0  0  0  0  0  0  0
   26.8001  -20.5499  -13.3991 C   0  0  0  0  0  0  0  0  0  0  0  0
   27.6182  -19.7882  -13.9161 O   0  0  0  0  0  0  0  0  0  0  0  0
   22.4836  -21.3138  -11.8714 C   0  0  0  0  0  0  0  0  0  0  0  0
   24.4417  -22.9049  -16.0716 C   0  0  1  0  0  0  0  0  0  0  0  0
   25.5144  -21.9261  -16.4052 C   0  0  0  0  0  0  0  0  0  0  0  0
   26.8937  -22.5292  -16.4105 C   0  0  1  0  0  0  0  0  0  0  0  0
   25.4718  -20.6752  -15.5369 N   0  0  0  0  0  0  0  0  0  0  0  0
   25.6885  -20.9787  -14.1476 C   0  0  0  0  0  0  0  0  0  0  0  0
   24.1865  -19.9487  -15.7168 O   0  0  0  0  0  0  0  0  0  0  0  0
   23.2182  -20.2043  -14.9449 O   0  0  0  0  0  0  0  0  0  0  0  0
   23.2915  -17.5912  -19.0925 C   0  0  0  0  0  0  0  0  0  0  0  0
   22.8482  -17.1103  -17.8640 C   0  0  1  0  0  0  0  0  0  0  0  0
   22.7491  -18.2510  -16.8964 N   0  0  0  0  0  0  0  0  0  0  0  0
   23.9757  -18.9757  -16.7115 C   0  0  0  0  0  0  0  0  0  0  0  0
   21.6006  -19.1437  -17.1779 O   0  0  0  0  0  0  0  0  0  0  0  0
   21.7090  -20.3428  -17.5174 O   0  0  0  0  0  0  0  0  0  0  0  0
  2  1  1  0
  3  2  2  0
  4  2  1  0
  5  4  1  0
  6  5  1  0
  7  6  1  0
  8 10  1  0
  8  7  1  0
  8  9  1  6
 10 11  2  0
 13 12  1  6
 14 13  1  0
 15 13  1  0
 16 10  1  0
 15 16  1  1
 17 22  1  0
 17 15  1  0
 18 17  2  0
 19 20  1  0
 21 20  1  1
 21 22  1  0
 23 21  1  0
 24 23  2  0
 25 23  1  0
M  END
$$$$
