AEW.pdb
     RDKit          3D

 29 30  0  0  1  0  0  0  0  0999 V2000
   30.3589  -23.8543  -16.7816 C   0  0  0  0  0  0  0  0  0  0  0  0
   29.4372  -22.8848  -17.4909 C   0  0  2  0  0  0  0  0  0  0  0  0
   30.1657  -22.3272  -18.6119 N   0  0  0  0  0  0  0  0  0  0  0  0
   28.9385  -21.8151  -16.5860 C   0  0  0  0  0  0  0  0  0  0  0  0
   29.4039  -20.6601  -16.7348 O   0  0  0  0  0  0  0  0  0  0  0  0
   27.9829  -22.0431  -15.5878 N   0  0  0  0  0  0  0  0  0  0  0  0
   27.2415  -20.9209  -14.9561 C   0  0  1  0  0  0  0  0  0  0  0  0
   26.3987  -20.3248  -16.0446 C   0  0  0  0  0  0  0  0  0  0  0  0
   25.4015  -19.3056  -15.5777 C   0  0  0  0  0  0  0  0  0  0  0  0
   24.5543  -18.8999  -16.7432 C   0  0  0  0  0  0  0  0  0  0  0  0
   24.9046  -17.9816  -17.5185 O   0  0  0  0  0  0  0  0  0  0  0  0
   26.4941  -21.4201  -13.7874 C   0  0  0  0  0  0  0  0  0  0  0  0
   25.6697  -22.3673  -13.9781 O   0  0  0  0  0  0  0  0  0  0  0  0
   23.3478  -19.5375  -16.9963 O   0  0  0  0  0  0  0  0  0  0  0  0
   26.5980  -20.9585  -12.4636 N   0  0  0  0  0  0  0  0  0  0  0  0
   25.8075  -21.5219  -11.3496 C   0  0  1  0  0  0  0  0  0  0  0  0
   26.7203  -21.8553  -10.2245 C   0  0  0  0  0  0  0  0  0  0  0  0
   26.8794  -20.8029   -9.2008 C   0  0  0  0  0  0  0  0  0  0  0  0
   26.0307  -19.6888   -9.0950 C   0  0  0  0  0  0  0  0  0  0  0  0
   26.4016  -18.9254   -8.0540 N   0  0  0  0  0  0  0  0  0  0  0  0
   27.4724  -19.4781   -7.4471 C   0  0  0  0  0  0  0  0  0  0  0  0
   28.2106  -19.0718   -6.3550 C   0  0  0  0  0  0  0  0  0  0  0  0
   29.2770  -19.8531   -5.9649 C   0  0  0  0  0  0  0  0  0  0  0  0
   29.5730  -21.0130   -6.6754 C   0  0  0  0  0  0  0  0  0  0  0  0
   28.8300  -21.4104   -7.7645 C   0  0  0  0  0  0  0  0  0  0  0  0
   27.7579  -20.6332   -8.1621 C   0  0  0  0  0  0  0  0  0  0  0  0
   24.6333  -20.7192  -11.0567 C   0  0  0  0  0  0  0  0  0  0  0  0
   23.6707  -21.1552  -10.3323 O   0  0  0  0  0  0  0  0  0  0  0  0
   24.4544  -19.4274  -11.5252 O   0  0  0  0  0  0  0  0  0  0  0  0
  2  4  1  0
  2  1  1  1
  3  2  1  0
  4  5  2  0
  6  4  1  0
  6  7  1  0
  7  8  1  6
  9 10  1  0
  9  8  1  0
 10 11  2  0
 12 15  1  0
 12  7  1  0
 13 12  2  0
 14 10  1  0
 16 17  1  1
 16 15  1  0
 18 17  1  0
 19 18  2  0
 20 19  1  0
 21 26  2  0
 21 20  1  0
 22 21  1  0
 23 22  2  0
 23 24  1  0
 24 25  2  0
 25 26  1  0
 26 18  1  0
 27 16  1  0
 27 29  1  0
 28 27  2  0
M  END
$$$$
