AEW.pdb
     RDKit          3D

 29 30  0  0  1  0  0  0  0  0999 V2000
   18.3149  -10.3653  -16.5573 C   0  0  0  0  0  0  0  0  0  0  0  0
   19.6119  -10.0991  -17.2919 C   0  0  2  0  0  0  0  0  0  0  0  0
   20.4447  -11.2759  -17.1521 N   0  0  0  0  0  0  0  0  0  0  0  0
   20.3065   -8.8840  -16.7892 C   0  0  0  0  0  0  0  0  0  0  0  0
   21.2659   -9.0449  -15.9978 O   0  0  0  0  0  0  0  0  0  0  0  0
   19.9367   -7.5847  -17.1591 N   0  0  0  0  0  0  0  0  0  0  0  0
   20.7001   -6.3998  -16.6887 C   0  0  1  0  0  0  0  0  0  0  0  0
   20.8543   -5.5116  -17.8877 C   0  0  0  0  0  0  0  0  0  0  0  0
   21.5430   -4.2066  -17.6162 C   0  0  0  0  0  0  0  0  0  0  0  0
   21.6212   -3.4343  -18.8961 C   0  0  0  0  0  0  0  0  0  0  0  0
   22.6825   -2.8804  -19.2622 O   0  0  0  0  0  0  0  0  0  0  0  0
   20.0038   -5.7887  -15.5417 C   0  0  0  0  0  0  0  0  0  0  0  0
   18.7673   -6.0430  -15.4018 O   0  0  0  0  0  0  0  0  0  0  0  0
   20.5089   -3.3117  -19.7170 O   0  0  0  0  0  0  0  0  0  0  0  0
   20.5677   -4.9454  -14.5685 N   0  0  0  0  0  0  0  0  0  0  0  0
   19.8512   -4.5393  -13.3417 C   0  0  1  0  0  0  0  0  0  0  0  0
   19.2934   -5.7485  -12.6806 C   0  0  0  0  0  0  0  0  0  0  0  0
   20.1289   -6.3320  -11.6118 C   0  0  0  0  0  0  0  0  0  0  0  0
   20.1201   -5.8752  -10.2836 C   0  0  0  0  0  0  0  0  0  0  0  0
   20.9547   -6.6167   -9.5369 N   0  0  0  0  0  0  0  0  0  0  0  0
   21.5325   -7.5613  -10.3077 C   0  0  0  0  0  0  0  0  0  0  0  0
   22.4532   -8.5438  -10.0076 C   0  0  0  0  0  0  0  0  0  0  0  0
   22.8740   -9.3721  -11.0257 C   0  0  0  0  0  0  0  0  0  0  0  0
   22.3643   -9.1946  -12.3089 C   0  0  0  0  0  0  0  0  0  0  0  0
   21.4454   -8.2108  -12.5985 C   0  0  0  0  0  0  0  0  0  0  0  0
   21.0169   -7.3760  -11.5831 C   0  0  0  0  0  0  0  0  0  0  0  0
   20.6359   -3.6238  -12.5325 C   0  0  0  0  0  0  0  0  0  0  0  0
   21.9043   -3.5059  -12.6694 O   0  0  0  0  0  0  0  0  0  0  0  0
   20.0892   -2.8054  -11.5569 O   0  0  0  0  0  0  0  0  0  0  0  0
  2  4  1  0
  2  1  1  1
  3  2  1  0
  4  5  2  0
  6  4  1  0
  6  7  1  0
  7  8  1  6
  9 10  1  0
  9  8  1  0
 10 11  2  0
 12 15  1  0
 12  7  1  0
 13 12  2  0
 14 10  1  0
 16 17  1  1
 16 15  1  0
 18 17  1  0
 19 18  2  0
 20 19  1  0
 21 26  2  0
 21 20  1  0
 22 21  1  0
 23 22  2  0
 23 24  1  0
 24 25  2  0
 25 26  1  0
 26 18  1  0
 27 16  1  0
 27 29  1  0
 28 27  2  0
M  END
$$$$
