AEW.pdb
     RDKit          3D

 29 30  0  0  1  0  0  0  0  0999 V2000
   29.5104  -16.3424  -16.4315 C   0  0  0  0  0  0  0  0  0  0  0  0
   28.2949  -17.2156  -16.6613 C   0  0  2  0  0  0  0  0  0  0  0  0
   27.4676  -16.5631  -17.6552 N   0  0  0  0  0  0  0  0  0  0  0  0
   27.5352  -17.4670  -15.4078 C   0  0  0  0  0  0  0  0  0  0  0  0
   27.6104  -16.6083  -14.4970 O   0  0  0  0  0  0  0  0  0  0  0  0
   26.7500  -18.6092  -15.2065 N   0  0  0  0  0  0  0  0  0  0  0  0
   25.9397  -18.7832  -13.9732 C   0  0  1  0  0  0  0  0  0  0  0  0
   24.5370  -19.0391  -14.4393 C   0  0  0  0  0  0  0  0  0  0  0  0
   23.5741  -19.4147  -13.3517 C   0  0  0  0  0  0  0  0  0  0  0  0
   22.2293  -19.6482  -13.9664 C   0  0  0  0  0  0  0  0  0  0  0  0
   22.0972  -19.8477  -15.1952 O   0  0  0  0  0  0  0  0  0  0  0  0
   26.5285  -19.8501  -13.1433 C   0  0  0  0  0  0  0  0  0  0  0  0
   27.0701  -20.8298  -13.7434 O   0  0  0  0  0  0  0  0  0  0  0  0
   21.0841  -19.6496  -13.1822 O   0  0  0  0  0  0  0  0  0  0  0  0
   26.5603  -19.9015  -11.7387 N   0  0  0  0  0  0  0  0  0  0  0  0
   27.1415  -21.0329  -10.9869 C   0  0  1  0  0  0  0  0  0  0  0  0
   28.0643  -20.5045   -9.9479 C   0  0  0  0  0  0  0  0  0  0  0  0
   27.4636  -20.2810   -8.6175 C   0  0  0  0  0  0  0  0  0  0  0  0
   26.0785  -20.2539   -8.3862 C   0  0  0  0  0  0  0  0  0  0  0  0
   25.8342  -20.0643   -7.0792 N   0  0  0  0  0  0  0  0  0  0  0  0
   27.0020  -19.9604   -6.4115 C   0  0  0  0  0  0  0  0  0  0  0  0
   27.2714  -19.7567   -5.0741 C   0  0  0  0  0  0  0  0  0  0  0  0
   28.5905  -19.6840   -4.6811 C   0  0  0  0  0  0  0  0  0  0  0  0
   29.5977  -19.8164   -5.6330 C   0  0  0  0  0  0  0  0  0  0  0  0
   29.3186  -20.0196   -6.9660 C   0  0  0  0  0  0  0  0  0  0  0  0
   27.9982  -20.0948   -7.3689 C   0  0  0  0  0  0  0  0  0  0  0  0
   26.1285  -21.9877  -10.5735 C   0  0  0  0  0  0  0  0  0  0  0  0
   26.4246  -23.0868   -9.9855 O   0  0  0  0  0  0  0  0  0  0  0  0
   24.7706  -21.7954  -10.7725 O   0  0  0  0  0  0  0  0  0  0  0  0
  2  4  1  0
  2  1  1  1
  3  2  1  0
  4  5  2  0
  6  4  1  0
  6  7  1  0
  7  8  1  6
  9 10  1  0
  9  8  1  0
 10 11  2  0
 12 15  1  0
 12  7  1  0
 13 12  2  0
 14 10  1  0
 16 17  1  1
 16 15  1  0
 18 17  1  0
 19 18  2  0
 20 19  1  0
 21 26  2  0
 21 20  1  0
 22 21  1  0
 23 22  2  0
 23 24  1  0
 24 25  2  0
 25 26  1  0
 26 18  1  0
 27 16  1  0
 27 29  1  0
 28 27  2  0
M  END
$$$$
