AEW.pdb
     RDKit          3D

 29 30  0  0  1  0  0  0  0  0999 V2000
   24.6565  -16.0796  -14.8725 C   0  0  0  0  0  0  0  0  0  0  0  0
   26.0908  -16.2350  -15.3323 C   0  0  2  0  0  0  0  0  0  0  0  0
   26.2936  -15.3344  -16.4485 N   0  0  0  0  0  0  0  0  0  0  0  0
   26.4155  -17.6376  -15.7050 C   0  0  0  0  0  0  0  0  0  0  0  0
   25.8284  -18.1289  -16.6983 O   0  0  0  0  0  0  0  0  0  0  0  0
   27.3380  -18.4212  -15.0004 N   0  0  0  0  0  0  0  0  0  0  0  0
   27.6481  -19.8133  -15.4173 C   0  0  1  0  0  0  0  0  0  0  0  0
   29.1384  -19.8683  -15.5795 C   0  0  0  0  0  0  0  0  0  0  0  0
   29.6821  -18.9967  -16.6730 C   0  0  0  0  0  0  0  0  0  0  0  0
   29.7217  -19.7922  -17.9404 C   0  0  0  0  0  0  0  0  0  0  0  0
   29.5811  -19.2482  -19.0591 O   0  0  0  0  0  0  0  0  0  0  0  0
   27.0899  -20.7583  -14.4328 C   0  0  0  0  0  0  0  0  0  0  0  0
   27.7378  -21.8283  -14.2127 O   0  0  0  0  0  0  0  0  0  0  0  0
   29.9172  -21.1659  -17.9072 O   0  0  0  0  0  0  0  0  0  0  0  0
   25.9026  -20.6012  -13.6965 N   0  0  0  0  0  0  0  0  0  0  0  0
   25.4386  -21.5851  -12.6967 C   0  0  1  0  0  0  0  0  0  0  0  0
   26.5552  -21.8975  -11.7662 C   0  0  0  0  0  0  0  0  0  0  0  0
   26.5051  -21.2122  -10.4590 C   0  0  0  0  0  0  0  0  0  0  0  0
   25.3530  -20.5870   -9.9545 C   0  0  0  0  0  0  0  0  0  0  0  0
   25.6013  -20.0801   -8.7357 N   0  0  0  0  0  0  0  0  0  0  0  0
   26.8805  -20.3363   -8.3917 C   0  0  0  0  0  0  0  0  0  0  0  0
   27.5998  -20.0184   -7.2584 C   0  0  0  0  0  0  0  0  0  0  0  0
   28.9187  -20.4137   -7.1943 C   0  0  0  0  0  0  0  0  0  0  0  0
   29.4775  -21.1122   -8.2609 C   0  0  0  0  0  0  0  0  0  0  0  0
   28.7511  -21.4249   -9.3881 C   0  0  0  0  0  0  0  0  0  0  0  0
   27.4272  -21.0333   -9.4605 C   0  0  0  0  0  0  0  0  0  0  0  0
   24.1588  -21.2118  -12.1208 C   0  0  0  0  0  0  0  0  0  0  0  0
   23.4613  -22.0261  -11.4196 O   0  0  0  0  0  0  0  0  0  0  0  0
   23.5887  -19.9580  -12.2735 O   0  0  0  0  0  0  0  0  0  0  0  0
  2  4  1  0
  2  1  1  6
  3  2  1  0
  4  5  2  0
  6  4  1  0
  6  7  1  0
  7  8  1  1
  9 10  1  0
  9  8  1  0
 10 11  2  0
 12 15  1  0
 12  7  1  0
 13 12  2  0
 14 10  1  0
 16 17  1  1
 16 15  1  0
 18 17  1  0
 19 18  2  0
 20 19  1  0
 21 26  2  0
 21 20  1  0
 22 21  1  0
 23 22  2  0
 23 24  1  0
 24 25  2  0
 25 26  1  0
 26 18  1  0
 27 16  1  0
 27 29  1  0
 28 27  2  0
M  END
$$$$
