AEW.pdb
     RDKit          3D

 29 30  0  0  1  0  0  0  0  0999 V2000
   42.9447   -9.8126   -3.6029 C   0  0  0  0  0  0  0  0  0  0  0  0
   44.1437  -10.1530   -4.4627 C   0  0  2  0  0  0  0  0  0  0  0  0
   45.2819   -9.4293   -3.9346 N   0  0  0  0  0  0  0  0  0  0  0  0
   43.9190   -9.8322   -5.8974 C   0  0  0  0  0  0  0  0  0  0  0  0
   44.3505   -8.7352   -6.3252 O   0  0  0  0  0  0  0  0  0  0  0  0
   43.2534  -10.6945   -6.7777 N   0  0  0  0  0  0  0  0  0  0  0  0
   42.9201  -10.2776   -8.1645 C   0  0  1  0  0  0  0  0  0  0  0  0
   42.8313  -11.5454   -8.9615 C   0  0  0  0  0  0  0  0  0  0  0  0
   42.3629  -11.3651  -10.3754 C   0  0  0  0  0  0  0  0  0  0  0  0
   42.3389  -12.7045  -11.0433 C   0  0  0  0  0  0  0  0  0  0  0  0
   42.7835  -13.7273  -10.4747 O   0  0  0  0  0  0  0  0  0  0  0  0
   41.6941   -9.4587   -8.1515 C   0  0  0  0  0  0  0  0  0  0  0  0
   40.5840  -10.0609   -8.2862 O   0  0  0  0  0  0  0  0  0  0  0  0
   41.8183  -12.8478  -12.3219 O   0  0  0  0  0  0  0  0  0  0  0  0
   41.6172   -8.0631   -8.0003 N   0  0  0  0  0  0  0  0  0  0  0  0
   40.3367   -7.3344   -7.8881 C   0  0  1  0  0  0  0  0  0  0  0  0
   39.4422   -8.0632   -6.9506 C   0  0  0  0  0  0  0  0  0  0  0  0
   38.2037   -7.3536   -6.5715 C   0  0  0  0  0  0  0  0  0  0  0  0
   36.9665   -7.5608   -7.2031 C   0  0  0  0  0  0  0  0  0  0  0  0
   36.0218   -6.8018   -6.6240 N   0  0  0  0  0  0  0  0  0  0  0  0
   36.5701   -6.0844   -5.6215 C   0  0  0  0  0  0  0  0  0  0  0  0
   36.0184   -5.1696   -4.7488 C   0  0  0  0  0  0  0  0  0  0  0  0
   36.8460   -4.5796   -3.8178 C   0  0  0  0  0  0  0  0  0  0  0  0
   38.1955   -4.9199   -3.7869 C   0  0  0  0  0  0  0  0  0  0  0  0
   38.7369   -5.8344   -4.6625 C   0  0  0  0  0  0  0  0  0  0  0  0
   37.9139   -6.4320   -5.5989 C   0  0  0  0  0  0  0  0  0  0  0  0
   40.5383   -5.9132   -7.6682 C   0  0  0  0  0  0  0  0  0  0  0  0
   39.6043   -5.0547   -7.8472 O   0  0  0  0  0  0  0  0  0  0  0  0
   41.7409   -5.3680   -7.2474 O   0  0  0  0  0  0  0  0  0  0  0  0
  2  4  1  0
  2  1  1  1
  3  2  1  0
  4  5  2  0
  6  4  1  0
  6  7  1  0
  7  8  1  6
  9 10  1  0
  9  8  1  0
 10 11  2  0
 12 15  1  0
 12  7  1  0
 13 12  2  0
 14 10  1  0
 16 17  1  1
 16 15  1  0
 18 17  1  0
 19 18  2  0
 20 19  1  0
 21 26  2  0
 21 20  1  0
 22 21  1  0
 23 22  2  0
 23 24  1  0
 24 25  2  0
 25 26  1  0
 26 18  1  0
 27 16  1  0
 27 29  1  0
 28 27  2  0
M  END
$$$$
