AEW.pdb
     RDKit          3D

 29 30  0  0  1  0  0  0  0  0999 V2000
   29.4493  -17.6948  -16.9036 C   0  0  0  0  0  0  0  0  0  0  0  0
   27.9718  -17.7792  -17.2238 C   0  0  2  0  0  0  0  0  0  0  0  0
   27.6444  -16.6598  -18.0828 N   0  0  0  0  0  0  0  0  0  0  0  0
   27.1280  -17.7842  -15.9991 C   0  0  0  0  0  0  0  0  0  0  0  0
   27.4303  -16.9884  -15.0783 O   0  0  0  0  0  0  0  0  0  0  0  0
   26.0245  -18.6309  -15.8353 N   0  0  0  0  0  0  0  0  0  0  0  0
   25.1992  -18.5956  -14.6001 C   0  0  1  0  0  0  0  0  0  0  0  0
   23.7759  -18.7235  -15.0566 C   0  0  0  0  0  0  0  0  0  0  0  0
   22.7624  -18.7415  -13.9504 C   0  0  0  0  0  0  0  0  0  0  0  0
   21.4087  -18.9654  -14.5487 C   0  0  0  0  0  0  0  0  0  0  0  0
   20.7848  -18.0423  -15.1195 O   0  0  0  0  0  0  0  0  0  0  0  0
   25.6562  -19.6461  -13.6721 C   0  0  0  0  0  0  0  0  0  0  0  0
   25.1056  -19.7002  -12.5288 O   0  0  0  0  0  0  0  0  0  0  0  0
   20.8053  -20.2137  -14.4854 O   0  0  0  0  0  0  0  0  0  0  0  0
   26.6473  -20.6122  -13.9186 N   0  0  0  0  0  0  0  0  0  0  0  0
   26.8936  -21.7606  -13.0221 C   0  0  1  0  0  0  0  0  0  0  0  0
   27.7754  -21.3270  -11.9064 C   0  0  0  0  0  0  0  0  0  0  0  0
   27.0810  -20.9099  -10.6716 C   0  0  0  0  0  0  0  0  0  0  0  0
   25.6840  -20.8144  -10.5616 C   0  0  0  0  0  0  0  0  0  0  0  0
   25.3452  -20.4437   -9.3159 N   0  0  0  0  0  0  0  0  0  0  0  0
   26.4601  -20.2822   -8.5734 C   0  0  0  0  0  0  0  0  0  0  0  0
   26.6311  -19.9072   -7.2569 C   0  0  0  0  0  0  0  0  0  0  0  0
   27.9171  -19.8178   -6.7691 C   0  0  0  0  0  0  0  0  0  0  0  0
   28.9901  -20.1045   -7.6083 C   0  0  0  0  0  0  0  0  0  0  0  0
   28.8091  -20.4781   -8.9212 C   0  0  0  0  0  0  0  0  0  0  0  0
   27.5225  -20.5714   -9.4187 C   0  0  0  0  0  0  0  0  0  0  0  0
   25.6661  -22.4597  -12.6854 C   0  0  0  0  0  0  0  0  0  0  0  0
   24.5277  -22.1065  -13.1550 O   0  0  0  0  0  0  0  0  0  0  0  0
   25.6189  -23.5576  -11.8411 O   0  0  0  0  0  0  0  0  0  0  0  0
  2  4  1  0
  2  1  1  1
  3  2  1  0
  4  5  2  0
  6  4  1  0
  6  7  1  0
  7  8  1  6
  9 10  1  0
  9  8  1  0
 10 11  2  0
 12 15  1  0
 12  7  1  0
 13 12  2  0
 14 10  1  0
 16 17  1  1
 16 15  1  0
 18 17  1  0
 19 18  2  0
 20 19  1  0
 21 26  2  0
 21 20  1  0
 22 21  1  0
 23 22  2  0
 23 24  1  0
 24 25  2  0
 25 26  1  0
 26 18  1  0
 27 16  1  0
 27 29  1  0
 28 27  2  0
M  END
$$$$
