AEW.pdb
     RDKit          3D

 29 30  0  0  1  0  0  0  0  0999 V2000
   28.8548  -17.0924  -15.7028 C   0  0  0  0  0  0  0  0  0  0  0  0
   28.3474  -18.5171  -15.6287 C   0  0  2  0  0  0  0  0  0  0  0  0
   27.7357  -18.8317  -16.9034 N   0  0  0  0  0  0  0  0  0  0  0  0
   27.3915  -18.7184  -14.5074 C   0  0  0  0  0  0  0  0  0  0  0  0
   26.9553  -17.6991  -13.9215 O   0  0  0  0  0  0  0  0  0  0  0  0
   26.9650  -19.9839  -14.0852 N   0  0  0  0  0  0  0  0  0  0  0  0
   25.9039  -20.1390  -13.0565 C   0  0  1  0  0  0  0  0  0  0  0  0
   24.7727  -20.8477  -13.7409 C   0  0  0  0  0  0  0  0  0  0  0  0
   23.6140  -21.1852  -12.8495 C   0  0  0  0  0  0  0  0  0  0  0  0
   22.7118  -19.9934  -12.7698 C   0  0  0  0  0  0  0  0  0  0  0  0
   22.1613  -19.6601  -11.6961 O   0  0  0  0  0  0  0  0  0  0  0  0
   26.4570  -20.8329  -11.8790 C   0  0  0  0  0  0  0  0  0  0  0  0
   27.0557  -21.9359  -12.0746 O   0  0  0  0  0  0  0  0  0  0  0  0
   22.4604  -19.2205  -13.8949 O   0  0  0  0  0  0  0  0  0  0  0  0
   26.3970  -20.3994  -10.5431 N   0  0  0  0  0  0  0  0  0  0  0  0
   26.5220  -21.3173   -9.3919 C   0  0  1  0  0  0  0  0  0  0  0  0
   27.8619  -21.1414   -8.7722 C   0  0  0  0  0  0  0  0  0  0  0  0
   27.9351  -20.1423   -7.6872 C   0  0  0  0  0  0  0  0  0  0  0  0
   27.2452  -18.9191   -7.7111 C   0  0  0  0  0  0  0  0  0  0  0  0
   27.4795  -18.2369   -6.5781 N   0  0  0  0  0  0  0  0  0  0  0  0
   28.3044  -18.9500   -5.7835 C   0  0  0  0  0  0  0  0  0  0  0  0
   28.8332  -18.6751   -4.5394 C   0  0  0  0  0  0  0  0  0  0  0  0
   29.6700  -19.6098   -3.9686 C   0  0  0  0  0  0  0  0  0  0  0  0
   29.9528  -20.7871   -4.6556 C   0  0  0  0  0  0  0  0  0  0  0  0
   29.4199  -21.0524   -5.8973 C   0  0  0  0  0  0  0  0  0  0  0  0
   28.5786  -20.1209   -6.4769 C   0  0  0  0  0  0  0  0  0  0  0  0
   25.3594  -21.2608   -8.5237 C   0  0  0  0  0  0  0  0  0  0  0  0
   25.2875  -21.9298   -7.4334 O   0  0  0  0  0  0  0  0  0  0  0  0
   24.2420  -20.4864   -8.7922 O   0  0  0  0  0  0  0  0  0  0  0  0
  2  4  1  0
  2  1  1  6
  3  2  1  0
  4  5  2  0
  6  4  1  0
  6  7  1  0
  7  8  1  6
  9 10  1  0
  9  8  1  0
 10 11  2  0
 12 15  1  0
 12  7  1  0
 13 12  2  0
 14 10  1  0
 16 17  1  1
 16 15  1  0
 18 17  1  0
 19 18  2  0
 20 19  1  0
 21 26  2  0
 21 20  1  0
 22 21  1  0
 23 22  2  0
 23 24  1  0
 24 25  2  0
 25 26  1  0
 26 18  1  0
 27 16  1  0
 27 29  1  0
 28 27  2  0
M  END
$$$$
