AEW.pdb
     RDKit          3D

 29 30  0  0  1  0  0  0  0  0999 V2000
   30.0842  -21.9890  -18.3589 C   0  0  0  0  0  0  0  0  0  0  0  0
   29.6688  -22.3641  -16.9520 C   0  0  2  0  0  0  0  0  0  0  0  0
   29.3866  -23.7847  -16.9419 N   0  0  0  0  0  0  0  0  0  0  0  0
   28.4977  -21.5781  -16.4805 C   0  0  0  0  0  0  0  0  0  0  0  0
   28.6317  -20.3356  -16.3765 O   0  0  0  0  0  0  0  0  0  0  0  0
   27.2679  -22.1622  -16.1521 N   0  0  0  0  0  0  0  0  0  0  0  0
   26.1243  -21.3414  -15.6760 C   0  0  1  0  0  0  0  0  0  0  0  0
   25.0545  -21.4894  -16.7171 C   0  0  0  0  0  0  0  0  0  0  0  0
   25.0200  -20.3928  -17.7404 C   0  0  0  0  0  0  0  0  0  0  0  0
   25.5714  -20.9244  -19.0265 C   0  0  0  0  0  0  0  0  0  0  0  0
   25.1267  -21.9735  -19.5450 O   0  0  0  0  0  0  0  0  0  0  0  0
   25.7412  -21.7707  -14.3185 C   0  0  0  0  0  0  0  0  0  0  0  0
   26.2035  -22.8771  -13.8998 O   0  0  0  0  0  0  0  0  0  0  0  0
   26.5991  -20.2616  -19.6829 O   0  0  0  0  0  0  0  0  0  0  0  0
   24.9103  -21.0774  -13.4210 N   0  0  0  0  0  0  0  0  0  0  0  0
   24.8521  -21.3834  -11.9767 C   0  0  1  0  0  0  0  0  0  0  0  0
   26.2361  -21.4628  -11.4395 C   0  0  0  0  0  0  0  0  0  0  0  0
   26.4319  -20.8809  -10.0965 C   0  0  0  0  0  0  0  0  0  0  0  0
   25.4245  -20.2037   -9.3900 C   0  0  0  0  0  0  0  0  0  0  0  0
   25.8856  -19.8168   -8.1892 N   0  0  0  0  0  0  0  0  0  0  0  0
   27.1705  -20.2049   -8.0520 C   0  0  0  0  0  0  0  0  0  0  0  0
   28.0665  -20.0383   -7.0165 C   0  0  0  0  0  0  0  0  0  0  0  0
   29.3387  -20.5457   -7.1707 C   0  0  0  0  0  0  0  0  0  0  0  0
   29.6765  -21.2021   -8.3509 C   0  0  0  0  0  0  0  0  0  0  0  0
   28.7749  -21.3635   -9.3791 C   0  0  0  0  0  0  0  0  0  0  0  0
   27.4962  -20.8585   -9.2326 C   0  0  0  0  0  0  0  0  0  0  0  0
   23.9007  -20.5360  -11.2800 C   0  0  0  0  0  0  0  0  0  0  0  0
   23.6619  -19.3318  -11.6464 O   0  0  0  0  0  0  0  0  0  0  0  0
   23.1745  -20.9504  -10.1748 O   0  0  0  0  0  0  0  0  0  0  0  0
  2  4  1  0
  2  1  1  6
  3  2  1  0
  4  5  2  0
  6  4  1  0
  6  7  1  0
  7  8  1  6
  9 10  1  0
  9  8  1  0
 10 11  2  0
 12 15  1  0
 12  7  1  0
 13 12  2  0
 14 10  1  0
 16 17  1  1
 16 15  1  0
 18 17  1  0
 19 18  2  0
 20 19  1  0
 21 26  2  0
 21 20  1  0
 22 21  1  0
 23 22  2  0
 23 24  1  0
 24 25  2  0
 25 26  1  0
 26 18  1  0
 27 16  1  0
 27 29  1  0
 28 27  2  0
M  END
$$$$
