AEW.pdb
     RDKit          3D

 29 30  0  0  1  0  0  0  0  0999 V2000
   29.8296  -26.9082  -15.3322 C   0  0  0  0  0  0  0  0  0  0  0  0
   29.1178  -27.2543  -16.6230 C   0  0  2  0  0  0  0  0  0  0  0  0
   28.7653  -28.6581  -16.5668 N   0  0  0  0  0  0  0  0  0  0  0  0
   29.9446  -26.9534  -17.8220 C   0  0  0  0  0  0  0  0  0  0  0  0
   30.6032  -27.8929  -18.3281 O   0  0  0  0  0  0  0  0  0  0  0  0
   30.0162  -25.6799  -18.4004 N   0  0  0  0  0  0  0  0  0  0  0  0
   30.8819  -25.4131  -19.5783 C   0  0  1  0  0  0  0  0  0  0  0  0
   30.1164  -24.4506  -20.4375 C   0  0  0  0  0  0  0  0  0  0  0  0
   30.7970  -24.0795  -21.7221 C   0  0  0  0  0  0  0  0  0  0  0  0
   30.4888  -25.1286  -22.7444 C   0  0  0  0  0  0  0  0  0  0  0  0
   31.3844  -25.6202  -23.4679 O   0  0  0  0  0  0  0  0  0  0  0  0
   32.1999  -24.9345  -19.1228 C   0  0  0  0  0  0  0  0  0  0  0  0
   32.2208  -24.0420  -18.2194 O   0  0  0  0  0  0  0  0  0  0  0  0
   29.1904  -25.5872  -22.9177 O   0  0  0  0  0  0  0  0  0  0  0  0
   33.4560  -25.3668  -19.5830 N   0  0  0  0  0  0  0  0  0  0  0  0
   34.7318  -24.8308  -19.0651 C   0  0  1  0  0  0  0  0  0  0  0  0
   35.5361  -25.9470  -18.5018 C   0  0  0  0  0  0  0  0  0  0  0  0
   35.0168  -26.5381  -17.2520 C   0  0  0  0  0  0  0  0  0  0  0  0
   34.5845  -27.8701  -17.1448 C   0  0  0  0  0  0  0  0  0  0  0  0
   34.1984  -28.1281  -15.8845 N   0  0  0  0  0  0  0  0  0  0  0  0
   34.3510  -27.0206  -15.1293 C   0  0  0  0  0  0  0  0  0  0  0  0
   34.0900  -26.7848  -13.7954 C   0  0  0  0  0  0  0  0  0  0  0  0
   34.3432  -25.5249  -13.2971 C   0  0  0  0  0  0  0  0  0  0  0  0
   34.8476  -24.5415  -14.1435 C   0  0  0  0  0  0  0  0  0  0  0  0
   35.1051  -24.7867  -15.4739 C   0  0  0  0  0  0  0  0  0  0  0  0
   34.8551  -26.0480  -15.9819 C   0  0  0  0  0  0  0  0  0  0  0  0
   35.3749  -23.9438  -20.0182 C   0  0  0  0  0  0  0  0  0  0  0  0
   34.9386  -23.7927  -21.2133 O   0  0  0  0  0  0  0  0  0  0  0  0
   36.4995  -23.1900  -19.7223 O   0  0  0  0  0  0  0  0  0  0  0  0
  2  4  1  0
  2  1  1  1
  3  2  1  0
  4  5  2  0
  6  4  1  0
  6  7  1  0
  7  8  1  6
  9 10  1  0
  9  8  1  0
 10 11  2  0
 12 15  1  0
 12  7  1  0
 13 12  2  0
 14 10  1  0
 16 17  1  6
 16 15  1  0
 18 17  1  0
 19 18  2  0
 20 19  1  0
 21 26  2  0
 21 20  1  0
 22 21  1  0
 23 22  2  0
 23 24  1  0
 24 25  2  0
 25 26  1  0
 26 18  1  0
 27 16  1  0
 27 29  1  0
 28 27  2  0
M  END
$$$$
