AEW.pdb
     RDKit          3D

 29 30  0  0  1  0  0  0  0  0999 V2000
   30.0609  -22.0146  -14.7445 C   0  0  0  0  0  0  0  0  0  0  0  0
   28.9602  -21.3952  -15.5797 C   0  0  2  0  0  0  0  0  0  0  0  0
   29.5740  -20.4298  -16.4680 N   0  0  0  0  0  0  0  0  0  0  0  0
   27.9044  -20.7641  -14.7438 C   0  0  0  0  0  0  0  0  0  0  0  0
   28.1437  -19.6341  -14.2555 O   0  0  0  0  0  0  0  0  0  0  0  0
   26.6704  -21.3732  -14.4835 N   0  0  0  0  0  0  0  0  0  0  0  0
   25.6065  -20.6702  -13.7207 C   0  0  1  0  0  0  0  0  0  0  0  0
   24.3125  -21.0581  -14.3731 C   0  0  0  0  0  0  0  0  0  0  0  0
   23.0831  -20.5668  -13.6674 C   0  0  0  0  0  0  0  0  0  0  0  0
   22.6185  -19.3120  -14.3383 C   0  0  0  0  0  0  0  0  0  0  0  0
   22.8197  -19.1085  -15.5570 O   0  0  0  0  0  0  0  0  0  0  0  0
   25.7154  -21.0150  -12.2913 C   0  0  0  0  0  0  0  0  0  0  0  0
   26.5890  -21.8751  -11.9594 O   0  0  0  0  0  0  0  0  0  0  0  0
   21.9467  -18.3330  -13.6196 O   0  0  0  0  0  0  0  0  0  0  0  0
   24.9492  -20.4854  -11.2383 N   0  0  0  0  0  0  0  0  0  0  0  0
   25.1066  -20.9136   -9.8329 C   0  0  1  0  0  0  0  0  0  0  0  0
   26.5188  -20.7078   -9.4164 C   0  0  0  0  0  0  0  0  0  0  0  0
   26.7210  -20.3855   -7.9895 C   0  0  0  0  0  0  0  0  0  0  0  0
   25.6823  -20.3640   -7.0443 C   0  0  0  0  0  0  0  0  0  0  0  0
   26.1729  -20.0710   -5.8287 N   0  0  0  0  0  0  0  0  0  0  0  0
   27.5075  -19.8914   -5.9112 C   0  0  0  0  0  0  0  0  0  0  0  0
   28.4446  -19.5727   -4.9504 C   0  0  0  0  0  0  0  0  0  0  0  0
   29.7595  -19.4442   -5.3432 C   0  0  0  0  0  0  0  0  0  0  0  0
   30.0976  -19.6371   -6.6797 C   0  0  0  0  0  0  0  0  0  0  0  0
   29.1548  -19.9551   -7.6316 C   0  0  0  0  0  0  0  0  0  0  0  0
   27.8336  -20.0870   -7.2463 C   0  0  0  0  0  0  0  0  0  0  0  0
   24.0616  -20.3746   -8.9808 C   0  0  0  0  0  0  0  0  0  0  0  0
   23.4106  -19.3140   -9.2853 O   0  0  0  0  0  0  0  0  0  0  0  0
   23.6791  -20.9537   -7.7813 O   0  0  0  0  0  0  0  0  0  0  0  0
  2  4  1  0
  2  1  1  1
  3  2  1  0
  4  5  2  0
  6  4  1  0
  6  7  1  0
  7  8  1  6
  9 10  1  0
  9  8  1  0
 10 11  2  0
 12 15  1  0
 12  7  1  0
 13 12  2  0
 14 10  1  0
 16 17  1  1
 16 15  1  0
 18 17  1  0
 19 18  2  0
 20 19  1  0
 21 26  2  0
 21 20  1  0
 22 21  1  0
 23 22  2  0
 23 24  1  0
 24 25  2  0
 25 26  1  0
 26 18  1  0
 27 16  1  0
 27 29  1  0
 28 27  2  0
M  END
$$$$
