AVK.pdb
     RDKit          3D

 22 21  0  0  1  0  0  0  0  0999 V2000
   18.9147  -15.2459  -15.0252 C   0  0  0  0  0  0  0  0  0  0  0  0
   17.5641  -14.7475  -15.4779 C   0  0  2  0  0  0  0  0  0  0  0  0
   16.9577  -15.5764  -16.4817 N   0  0  0  0  0  0  0  0  0  0  0  0
   17.6463  -13.3482  -15.9877 C   0  0  0  0  0  0  0  0  0  0  0  0
   17.9389  -13.0925  -17.1882 O   0  0  0  0  0  0  0  0  0  0  0  0
   16.3473   -8.6944  -15.4837 C   0  0  0  0  0  0  0  0  0  0  0  0
   16.1732  -10.1712  -15.1916 C   0  0  1  0  0  0  0  0  0  0  0  0
   15.0502  -10.6873  -16.0741 C   0  0  0  0  0  0  0  0  0  0  0  0
   17.4478  -10.8661  -15.6116 C   0  0  2  0  0  0  0  0  0  0  0  0
   17.3996  -12.2149  -15.1509 N   0  0  0  0  0  0  0  0  0  0  0  0
   18.6547  -10.1364  -15.2056 C   0  0  0  0  0  0  0  0  0  0  0  0
   18.8673   -9.9836  -13.9773 O   0  0  0  0  0  0  0  0  0  0  0  0
   19.5840   -9.6005  -16.1334 N   0  0  0  0  0  0  0  0  0  0  0  0
   20.7692   -8.8487  -15.7159 C   0  0  1  0  0  0  0  0  0  0  0  0
   21.6733   -8.5921  -16.9036 C   0  0  0  0  0  0  0  0  0  0  0  0
   22.9809   -7.9453  -16.5267 C   0  0  0  0  0  0  0  0  0  0  0  0
   23.9150   -7.9010  -17.7202 C   0  0  0  0  0  0  0  0  0  0  0  0
   25.2302   -7.2664  -17.2791 C   0  0  0  0  0  0  0  0  0  0  0  0
   26.1632   -7.3581  -18.3590 N   0  0  0  0  0  0  0  0  0  0  0  0
   20.3659   -7.6093  -15.0159 C   0  0  0  0  0  0  0  0  0  0  0  0
   19.4322   -6.9258  -15.5057 O   0  0  0  0  0  0  0  0  0  0  0  0
   20.9417   -7.1374  -13.8503 O   0  0  0  0  0  0  0  0  0  0  0  0
  2  4  1  0
  2  3  1  0
  2  1  1  6
  4  5  2  0
  7  6  1  6
  7  8  1  0
  7  9  1  0
  9 11  1  0
 10  4  1  0
  9 10  1  1
 11 12  2  0
 11 13  1  0
 13 14  1  0
 14 15  1  6
 15 16  1  0
 16 17  1  0
 17 18  1  0
 19 18  1  0
 20 22  1  0
 20 14  1  0
 21 20  2  0
M  END
$$$$
