AVK.pdb
     RDKit          3D

 22 21  0  0  1  0  0  0  0  0999 V2000
   23.6156  -12.8808  -21.1145 C   0  0  0  0  0  0  0  0  0  0  0  0
   24.4675  -13.4320  -19.9974 C   0  0  2  0  0  0  0  0  0  0  0  0
   24.2211  -14.8202  -19.7243 N   0  0  0  0  0  0  0  0  0  0  0  0
   24.2850  -12.6496  -18.7406 C   0  0  0  0  0  0  0  0  0  0  0  0
   23.2213  -12.7128  -18.0649 O   0  0  0  0  0  0  0  0  0  0  0  0
   26.3035   -9.8918  -15.2140 C   0  0  0  0  0  0  0  0  0  0  0  0
   26.4927  -10.8033  -16.4098 C   0  0  1  0  0  0  0  0  0  0  0  0
   26.9430  -12.1578  -15.8913 C   0  0  0  0  0  0  0  0  0  0  0  0
   25.1389  -10.9828  -17.0571 C   0  0  2  0  0  0  0  0  0  0  0  0
   25.3001  -11.7832  -18.2264 N   0  0  0  0  0  0  0  0  0  0  0  0
   24.4468   -9.7102  -17.2922 C   0  0  0  0  0  0  0  0  0  0  0  0
   24.9107   -8.9385  -18.1678 O   0  0  0  0  0  0  0  0  0  0  0  0
   23.2857   -9.3173  -16.5788 N   0  0  0  0  0  0  0  0  0  0  0  0
   22.5625   -8.0784  -16.8725 C   0  0  1  0  0  0  0  0  0  0  0  0
   21.2453   -8.3882  -17.5528 C   0  0  0  0  0  0  0  0  0  0  0  0
   20.4293   -7.1586  -17.8568 C   0  0  0  0  0  0  0  0  0  0  0  0
   19.0946   -7.5435  -18.4644 C   0  0  0  0  0  0  0  0  0  0  0  0
   18.3516   -6.2663  -18.8434 C   0  0  0  0  0  0  0  0  0  0  0  0
   17.1390   -6.6273  -19.5101 N   0  0  0  0  0  0  0  0  0  0  0  0
   22.4034   -7.2767  -15.6393 C   0  0  0  0  0  0  0  0  0  0  0  0
   22.3307   -7.8822  -14.5407 O   0  0  0  0  0  0  0  0  0  0  0  0
   22.3281   -5.8962  -15.5988 O   0  0  0  0  0  0  0  0  0  0  0  0
  2  4  1  0
  2  3  1  0
  2  1  1  6
  4  5  2  0
  7  6  1  1
  7  8  1  0
  7  9  1  0
  9 11  1  0
 10  4  1  0
  9 10  1  6
 11 12  2  0
 11 13  1  0
 13 14  1  0
 14 15  1  1
 15 16  1  0
 16 17  1  0
 17 18  1  0
 19 18  1  0
 20 22  1  0
 20 14  1  0
 21 20  2  0
M  END
$$$$
