AVK.pdb
     RDKit          3D

 22 21  0  0  1  0  0  0  0  0999 V2000
   30.7226  -14.8440  -20.0396 C   0  0  0  0  0  0  0  0  0  0  0  0
   29.9139  -15.6829  -19.0805 C   0  0  2  0  0  0  0  0  0  0  0  0
   30.0758  -17.0955  -19.2826 N   0  0  0  0  0  0  0  0  0  0  0  0
   28.4632  -15.3444  -19.1556 C   0  0  0  0  0  0  0  0  0  0  0  0
   27.7132  -15.8210  -20.0514 O   0  0  0  0  0  0  0  0  0  0  0  0
   26.1192  -15.7890  -16.4835 C   0  0  0  0  0  0  0  0  0  0  0  0
   25.8813  -14.3408  -16.8613 C   0  0  1  0  0  0  0  0  0  0  0  0
   26.6814  -13.4761  -15.9029 C   0  0  0  0  0  0  0  0  0  0  0  0
   26.4469  -14.1391  -18.2482 C   0  0  2  0  0  0  0  0  0  0  0  0
   27.8356  -14.4624  -18.2208 N   0  0  0  0  0  0  0  0  0  0  0  0
   26.1511  -12.8101  -18.7962 C   0  0  0  0  0  0  0  0  0  0  0  0
   26.8760  -11.8490  -18.4381 O   0  0  0  0  0  0  0  0  0  0  0  0
   25.0903  -12.5663  -19.7055 N   0  0  0  0  0  0  0  0  0  0  0  0
   24.8010  -11.2338  -20.2390 C   0  0  1  0  0  0  0  0  0  0  0  0
   24.3772  -11.3299  -21.6898 C   0  0  0  0  0  0  0  0  0  0  0  0
   24.1050   -9.9886  -22.3199 C   0  0  0  0  0  0  0  0  0  0  0  0
   23.6825  -10.1570  -23.7663 C   0  0  0  0  0  0  0  0  0  0  0  0
   23.4177   -8.7748  -24.3548 C   0  0  0  0  0  0  0  0  0  0  0  0
   23.2435   -8.9088  -25.7678 N   0  0  0  0  0  0  0  0  0  0  0  0
   23.8028  -10.5499  -19.3876 C   0  0  0  0  0  0  0  0  0  0  0  0
   22.9998  -11.2557  -18.7274 O   0  0  0  0  0  0  0  0  0  0  0  0
   23.6820   -9.1781  -19.2586 O   0  0  0  0  0  0  0  0  0  0  0  0
  2  4  1  0
  2  3  1  0
  2  1  1  6
  4  5  2  0
  7  6  1  1
  7  8  1  0
  7  9  1  0
  9 11  1  0
 10  4  1  0
  9 10  1  1
 11 12  2  0
 11 13  1  0
 13 14  1  0
 14 15  1  6
 15 16  1  0
 16 17  1  0
 17 18  1  0
 19 18  1  0
 20 22  1  0
 20 14  1  0
 21 20  2  0
M  END
$$$$
