AVK.pdb
     RDKit          3D

 22 21  0  0  1  0  0  0  0  0999 V2000
   19.0004  -13.0884  -19.7880 C   0  0  0  0  0  0  0  0  0  0  0  0
   19.7732  -13.8702  -18.7542 C   0  0  2  0  0  0  0  0  0  0  0  0
   19.0935  -15.0547  -18.3098 N   0  0  0  0  0  0  0  0  0  0  0  0
   20.1013  -13.0250  -17.5698 C   0  0  0  0  0  0  0  0  0  0  0  0
   19.2173  -12.6575  -16.7480 O   0  0  0  0  0  0  0  0  0  0  0  0
   24.1077  -11.8424  -16.8968 C   0  0  0  0  0  0  0  0  0  0  0  0
   23.1960  -12.1918  -15.7378 C   0  0  1  0  0  0  0  0  0  0  0  0
   23.5888  -11.3162  -14.5609 C   0  0  0  0  0  0  0  0  0  0  0  0
   21.7892  -11.8173  -16.1436 C   0  0  2  0  0  0  0  0  0  0  0  0
   21.4326  -12.5810  -17.2939 N   0  0  0  0  0  0  0  0  0  0  0  0
   21.6093  -10.3697  -16.3052 C   0  0  0  0  0  0  0  0  0  0  0  0
   21.9159   -9.8563  -17.4096 O   0  0  0  0  0  0  0  0  0  0  0  0
   21.1082   -9.5323  -15.2761 N   0  0  0  0  0  0  0  0  0  0  0  0
   20.8378   -8.1080  -15.4815 C   0  0  1  0  0  0  0  0  0  0  0  0
   19.3775   -7.8946  -15.8218 C   0  0  0  0  0  0  0  0  0  0  0  0
   19.0453   -6.4608  -16.1444 C   0  0  0  0  0  0  0  0  0  0  0  0
   17.5902   -6.3309  -16.5497 C   0  0  0  0  0  0  0  0  0  0  0  0
   17.3438   -4.8966  -17.0070 C   0  0  0  0  0  0  0  0  0  0  0  0
   16.0067   -4.8023  -17.5053 N   0  0  0  0  0  0  0  0  0  0  0  0
   21.2776   -7.3307  -14.3020 C   0  0  0  0  0  0  0  0  0  0  0  0
   21.2511   -7.8894  -13.1769 O   0  0  0  0  0  0  0  0  0  0  0  0
   21.7220   -6.0214  -14.3398 O   0  0  0  0  0  0  0  0  0  0  0  0
  2  4  1  0
  2  3  1  0
  2  1  1  6
  4  5  2  0
  7  6  1  6
  7  8  1  0
  7  9  1  0
  9 11  1  0
 10  4  1  0
  9 10  1  6
 11 12  2  0
 11 13  1  0
 13 14  1  0
 14 15  1  1
 15 16  1  0
 16 17  1  0
 17 18  1  0
 19 18  1  0
 20 22  1  0
 20 14  1  0
 21 20  2  0
M  END
$$$$
