AVK.pdb
     RDKit          3D

 22 21  0  0  1  0  0  0  0  0999 V2000
   27.6136  -19.6726  -16.1550 C   0  0  0  0  0  0  0  0  0  0  0  0
   27.9800  -20.7010  -15.1130 C   0  0  2  0  0  0  0  0  0  0  0  0
   28.5256  -21.9072  -15.6698 N   0  0  0  0  0  0  0  0  0  0  0  0
   26.8078  -21.0472  -14.2581 C   0  0  0  0  0  0  0  0  0  0  0  0
   25.8892  -21.8108  -14.6643 O   0  0  0  0  0  0  0  0  0  0  0  0
   24.8349  -21.1091   -9.7664 C   0  0  0  0  0  0  0  0  0  0  0  0
   25.9758  -20.6423  -10.6479 C   0  0  1  0  0  0  0  0  0  0  0  0
   27.1687  -21.5414  -10.3740 C   0  0  0  0  0  0  0  0  0  0  0  0
   25.5533  -20.8590  -12.0827 C   0  0  2  0  0  0  0  0  0  0  0  0
   26.6536  -20.5370  -12.9309 N   0  0  0  0  0  0  0  0  0  0  0  0
   24.3092  -20.1584  -12.4221 C   0  0  0  0  0  0  0  0  0  0  0  0
   24.3108  -18.9029  -12.3898 O   0  0  0  0  0  0  0  0  0  0  0  0
   23.1146  -20.8328  -12.7822 N   0  0  0  0  0  0  0  0  0  0  0  0
   21.8856  -20.1213  -13.1391 C   0  0  1  0  0  0  0  0  0  0  0  0
   21.6507  -20.1965  -14.6334 C   0  0  0  0  0  0  0  0  0  0  0  0
   20.4381  -19.4241  -15.0845 C   0  0  0  0  0  0  0  0  0  0  0  0
   20.1653  -19.6746  -16.5547 C   0  0  0  0  0  0  0  0  0  0  0  0
   18.9614  -18.8354  -16.9710 C   0  0  0  0  0  0  0  0  0  0  0  0
   18.8002  -18.9443  -18.3877 N   0  0  0  0  0  0  0  0  0  0  0  0
   20.7486  -20.6393  -12.3468 C   0  0  0  0  0  0  0  0  0  0  0  0
   20.7311  -21.8625  -12.0598 O   0  0  0  0  0  0  0  0  0  0  0  0
   19.6902  -19.8746  -11.8907 O   0  0  0  0  0  0  0  0  0  0  0  0
  2  4  1  0
  2  3  1  0
  2  1  1  6
  4  5  2  0
  7  6  1  1
  7  8  1  0
  7  9  1  0
  9 11  1  0
 10  4  1  0
  9 10  1  6
 11 12  2  0
 11 13  1  0
 13 14  1  0
 14 15  1  6
 15 16  1  0
 16 17  1  0
 17 18  1  0
 19 18  1  0
 20 22  1  0
 20 14  1  0
 21 20  2  0
M  END
$$$$
