AVK.pdb
     RDKit          3D

 22 21  0  0  1  0  0  0  0  0999 V2000
   21.3994  -13.4083  -16.3169 C   0  0  0  0  0  0  0  0  0  0  0  0
   19.9296  -13.6382  -16.0634 C   0  0  2  0  0  0  0  0  0  0  0  0
   19.4619  -14.9110  -16.5363 N   0  0  0  0  0  0  0  0  0  0  0  0
   19.0998  -12.5587  -16.6724 C   0  0  0  0  0  0  0  0  0  0  0  0
   18.8936  -12.4979  -17.9157 O   0  0  0  0  0  0  0  0  0  0  0  0
   15.9049  -12.0884  -16.7066 C   0  0  0  0  0  0  0  0  0  0  0  0
   16.2553  -10.7334  -16.1253 C   0  0  1  0  0  0  0  0  0  0  0  0
   16.1166  -10.8286  -14.6160 C   0  0  0  0  0  0  0  0  0  0  0  0
   17.7101  -10.4715  -16.4403 C   0  0  2  0  0  0  0  0  0  0  0  0
   18.4893  -11.5304  -15.8878 N   0  0  0  0  0  0  0  0  0  0  0  0
   18.1479   -9.1304  -16.0358 C   0  0  0  0  0  0  0  0  0  0  0  0
   18.5597   -8.9733  -14.8597 O   0  0  0  0  0  0  0  0  0  0  0  0
   18.1262   -8.0129  -16.9089 N   0  0  0  0  0  0  0  0  0  0  0  0
   18.5447   -6.6750  -16.4861 C   0  0  1  0  0  0  0  0  0  0  0  0
   18.7106   -5.7718  -17.6904 C   0  0  0  0  0  0  0  0  0  0  0  0
   19.1976   -4.3908  -17.3356 C   0  0  0  0  0  0  0  0  0  0  0  0
   19.2833   -3.5227  -18.5757 C   0  0  0  0  0  0  0  0  0  0  0  0
   19.8916   -2.1801  -18.1827 C   0  0  0  0  0  0  0  0  0  0  0  0
   19.8067   -1.2975  -19.3047 N   0  0  0  0  0  0  0  0  0  0  0  0
   17.5974   -6.1376  -15.4847 C   0  0  0  0  0  0  0  0  0  0  0  0
   18.0590   -5.4638  -14.5299 O   0  0  0  0  0  0  0  0  0  0  0  0
   16.2267   -6.3198  -15.5166 O   0  0  0  0  0  0  0  0  0  0  0  0
  2  4  1  0
  2  3  1  0
  2  1  1  6
  4  5  2  0
  7  6  1  6
  7  8  1  0
  7  9  1  0
  9 11  1  0
 10  4  1  0
  9 10  1  1
 11 12  2  0
 11 13  1  0
 13 14  1  0
 14 15  1  6
 15 16  1  0
 16 17  1  0
 17 18  1  0
 19 18  1  0
 20 22  1  0
 20 14  1  0
 21 20  2  0
M  END
$$$$
