AVK.pdb
     RDKit          3D

 22 21  0  0  1  0  0  0  0  0999 V2000
   27.7502  -18.6678  -15.1246 C   0  0  0  0  0  0  0  0  0  0  0  0
   28.1174  -20.0187  -14.5609 C   0  0  2  0  0  0  0  0  0  0  0  0
   28.7336  -20.8892  -15.5227 N   0  0  0  0  0  0  0  0  0  0  0  0
   26.9277  -20.7036  -13.9775 C   0  0  0  0  0  0  0  0  0  0  0  0
   26.1699  -21.4326  -14.6749 O   0  0  0  0  0  0  0  0  0  0  0  0
   27.0803  -21.4808  -10.2417 C   0  0  0  0  0  0  0  0  0  0  0  0
   25.6122  -21.2210  -10.5138 C   0  0  1  0  0  0  0  0  0  0  0  0
   25.2822  -19.8368   -9.9833 C   0  0  0  0  0  0  0  0  0  0  0  0
   25.4302  -21.1968  -12.0139 C   0  0  2  0  0  0  0  0  0  0  0  0
   26.5742  -20.5767  -12.5975 N   0  0  0  0  0  0  0  0  0  0  0  0
   24.1519  -20.6031  -12.4230 C   0  0  0  0  0  0  0  0  0  0  0  0
   24.0547  -19.3510  -12.4204 O   0  0  0  0  0  0  0  0  0  0  0  0
   23.0306  -21.3764  -12.8181 N   0  0  0  0  0  0  0  0  0  0  0  0
   21.8036  -20.7735  -13.3424 C   0  0  1  0  0  0  0  0  0  0  0  0
   21.5220  -21.2865  -14.7393 C   0  0  0  0  0  0  0  0  0  0  0  0
   20.2395  -20.7518  -15.3220 C   0  0  0  0  0  0  0  0  0  0  0  0
   19.9992  -21.3340  -16.7012 C   0  0  0  0  0  0  0  0  0  0  0  0
   18.7094  -20.7389  -17.2572 C   0  0  0  0  0  0  0  0  0  0  0  0
   18.4378  -21.3465  -18.5229 N   0  0  0  0  0  0  0  0  0  0  0  0
   20.6826  -21.0017  -12.4043 C   0  0  0  0  0  0  0  0  0  0  0  0
   19.6068  -20.3827  -12.6001 O   0  0  0  0  0  0  0  0  0  0  0  0
   20.7248  -21.8535  -11.3153 O   0  0  0  0  0  0  0  0  0  0  0  0
  2  4  1  0
  2  3  1  0
  2  1  1  6
  4  5  2  0
  7  6  1  6
  7  8  1  0
  7  9  1  0
  9 11  1  0
 10  4  1  0
  9 10  1  6
 11 12  2  0
 11 13  1  0
 13 14  1  0
 14 15  1  6
 15 16  1  0
 16 17  1  0
 17 18  1  0
 19 18  1  0
 20 22  1  0
 20 14  1  0
 21 20  2  0
M  END
$$$$
