AVK.pdb
     RDKit          3D

 22 21  0  0  1  0  0  0  0  0999 V2000
   27.6306  -19.1474  -15.6934 C   0  0  0  0  0  0  0  0  0  0  0  0
   28.0246  -20.2822  -14.7800 C   0  0  2  0  0  0  0  0  0  0  0  0
   28.6764  -21.3641  -15.4635 N   0  0  0  0  0  0  0  0  0  0  0  0
   26.8449  -20.8158  -14.0394 C   0  0  0  0  0  0  0  0  0  0  0  0
   26.1096  -21.7211  -14.5208 O   0  0  0  0  0  0  0  0  0  0  0  0
   24.4997  -21.1468   -9.7275 C   0  0  0  0  0  0  0  0  0  0  0  0
   25.6181  -20.5081  -10.5261 C   0  0  1  0  0  0  0  0  0  0  0  0
   26.9248  -21.1376  -10.0758 C   0  0  0  0  0  0  0  0  0  0  0  0
   25.4028  -20.8768  -11.9759 C   0  0  2  0  0  0  0  0  0  0  0  0
   26.4762  -20.3360  -12.7434 N   0  0  0  0  0  0  0  0  0  0  0  0
   24.0695  -20.5072  -12.4655 C   0  0  0  0  0  0  0  0  0  0  0  0
   23.7358  -19.2975  -12.4139 O   0  0  0  0  0  0  0  0  0  0  0  0
   23.1489  -21.4499  -12.9904 N   0  0  0  0  0  0  0  0  0  0  0  0
   21.8158  -21.0701  -13.4621 C   0  0  1  0  0  0  0  0  0  0  0  0
   21.2347  -22.1659  -14.3313 C   0  0  0  0  0  0  0  0  0  0  0  0
   20.2084  -21.6642  -15.3138 C   0  0  0  0  0  0  0  0  0  0  0  0
   20.7966  -21.5990  -16.7096 C   0  0  0  0  0  0  0  0  0  0  0  0
   19.7569  -20.9855  -17.6422 C   0  0  0  0  0  0  0  0  0  0  0  0
   20.3712  -20.7443  -18.9109 N   0  0  0  0  0  0  0  0  0  0  0  0
   20.9500  -20.7199  -12.3147 C   0  0  0  0  0  0  0  0  0  0  0  0
   20.0990  -19.8082  -12.4674 O   0  0  0  0  0  0  0  0  0  0  0  0
   21.0030  -21.3242  -11.0717 O   0  0  0  0  0  0  0  0  0  0  0  0
  2  4  1  0
  2  3  1  0
  2  1  1  6
  4  5  2  0
  7  6  1  1
  7  8  1  0
  7  9  1  0
  9 11  1  0
 10  4  1  0
  9 10  1  6
 11 12  2  0
 11 13  1  0
 13 14  1  0
 14 15  1  1
 15 16  1  0
 16 17  1  0
 17 18  1  0
 19 18  1  0
 20 22  1  0
 20 14  1  0
 21 20  2  0
M  END
$$$$
