AVK.pdb
     RDKit          3D

 22 21  0  0  1  0  0  0  0  0999 V2000
   16.6416   -9.5197  -16.0461 C   0  0  0  0  0  0  0  0  0  0  0  0
   17.9054   -9.9310  -15.3314 C   0  0  2  0  0  0  0  0  0  0  0  0
   18.0241  -11.3514  -15.1551 N   0  0  0  0  0  0  0  0  0  0  0  0
   18.0164   -9.2653  -14.0012 C   0  0  0  0  0  0  0  0  0  0  0  0
   17.3483   -9.6537  -13.0039 O   0  0  0  0  0  0  0  0  0  0  0  0
   21.3994   -8.0657  -12.5635 C   0  0  0  0  0  0  0  0  0  0  0  0
   20.4184   -6.9182  -12.4309 C   0  0  1  0  0  0  0  0  0  0  0  0
   20.6097   -6.0062  -13.6301 C   0  0  0  0  0  0  0  0  0  0  0  0
   19.0276   -7.5038  -12.5125 C   0  0  2  0  0  0  0  0  0  0  0  0
   18.8835   -8.1505  -13.7754 N   0  0  0  0  0  0  0  0  0  0  0  0
   17.9778   -6.5213  -12.2185 C   0  0  0  0  0  0  0  0  0  0  0  0
   17.5009   -5.8623  -13.1754 O   0  0  0  0  0  0  0  0  0  0  0  0
   17.4824   -6.2858  -10.9105 N   0  0  0  0  0  0  0  0  0  0  0  0
   16.3978   -5.3408  -10.6375 C   0  0  1  0  0  0  0  0  0  0  0  0
   15.7148   -5.6887   -9.3313 C   0  0  0  0  0  0  0  0  0  0  0  0
   14.5742   -4.7645   -8.9920 C   0  0  0  0  0  0  0  0  0  0  0  0
   14.0353   -5.0715   -7.6085 C   0  0  0  0  0  0  0  0  0  0  0  0
   12.8478   -4.1526   -7.3393 C   0  0  0  0  0  0  0  0  0  0  0  0
   12.3142   -4.4661   -6.0501 N   0  0  0  0  0  0  0  0  0  0  0  0
   16.9102   -3.9533  -10.6720 C   0  0  0  0  0  0  0  0  0  0  0  0
   18.0620   -3.7325  -10.2208 O   0  0  0  0  0  0  0  0  0  0  0  0
   16.2138   -2.8662  -11.1682 O   0  0  0  0  0  0  0  0  0  0  0  0
  2  4  1  0
  2  3  1  0
  2  1  1  1
  4  5  2  0
  7  6  1  6
  7  8  1  0
  7  9  1  0
  9 11  1  0
 10  4  1  0
  9 10  1  6
 11 12  2  0
 11 13  1  0
 13 14  1  0
 14 15  1  1
 15 16  1  0
 16 17  1  0
 17 18  1  0
 19 18  1  0
 20 22  1  0
 20 14  1  0
 21 20  2  0
M  END
$$$$
