YTE.pdb
     RDKit          3D

 29 29  0  0  1  0  0  0  0  0999 V2000
   26.4599  -20.8482   -6.9759 O   0  0  0  0  0  0  0  0  0  0  0  0
   26.4875  -20.6110   -8.3324 C   0  0  0  0  0  0  0  0  0  0  0  0
   27.6943  -20.4024   -8.9890 C   0  0  0  0  0  0  0  0  0  0  0  0
   27.7251  -20.1632  -10.3618 C   0  0  0  0  0  0  0  0  0  0  0  0
   26.5307  -20.1420  -11.0272 C   0  0  0  0  0  0  0  0  0  0  0  0
   26.4978  -19.8911  -12.4859 C   0  0  0  0  0  0  0  0  0  0  0  0
   25.7982  -21.0056  -13.2283 C   0  0  2  0  0  0  0  0  0  0  0  0
   26.8103  -22.0099  -13.5070 N   0  0  0  0  0  0  0  0  0  0  0  0
   25.1694  -20.4969  -14.4827 C   0  0  0  0  0  0  0  0  0  0  0  0
   25.8106  -20.5001  -15.5754 O   0  0  0  0  0  0  0  0  0  0  0  0
   25.3265  -20.3506  -10.3691 C   0  0  0  0  0  0  0  0  0  0  0  0
   25.2773  -20.5855   -9.0307 C   0  0  0  0  0  0  0  0  0  0  0  0
   24.2604  -21.4408  -16.9360 C   0  0  0  0  0  0  0  0  0  0  0  0
   22.8998  -20.9197  -16.5065 C   0  0  1  0  0  0  0  0  0  0  0  0
   22.1706  -21.9971  -15.9469 O   0  0  0  0  0  0  0  0  0  0  0  0
   22.9903  -19.7878  -15.5502 C   0  0  2  0  0  0  0  0  0  0  0  0
   23.8612  -20.0139  -14.4482 N   0  0  0  0  0  0  0  0  0  0  0  0
   21.6210  -19.3239  -15.2114 C   0  0  0  0  0  0  0  0  0  0  0  0
   20.9956  -19.5236  -14.1683 O   0  0  0  0  0  0  0  0  0  0  0  0
   20.9420  -18.5481  -16.2109 N   0  0  0  0  0  0  0  0  0  0  0  0
   19.6465  -17.9426  -15.9119 C   0  0  1  0  0  0  0  0  0  0  0  0
   19.5857  -16.5396  -16.4689 C   0  0  0  0  0  0  0  0  0  0  0  0
   18.7467  -16.6079  -17.7578 C   0  0  0  0  0  0  0  0  0  0  0  0
   18.6542  -15.2606  -18.3705 C   0  0  0  0  0  0  0  0  0  0  0  0
   19.1779  -14.2570  -17.8269 O   0  0  0  0  0  0  0  0  0  0  0  0
   18.5853  -18.7749  -16.5239 C   0  0  0  0  0  0  0  0  0  0  0  0
   18.8718  -19.6441  -17.3772 O   0  0  0  0  0  0  0  0  0  0  0  0
   17.9747  -15.0619  -19.5754 O   0  0  0  0  0  0  0  0  0  0  0  0
   17.2685  -18.6014  -16.1584 O   0  0  0  0  0  0  0  0  0  0  0  0
  1  2  1  0
  2 12  2  0
  3  2  1  0
  3  4  2  0
  4  5  1  0
  5 11  2  0
  5  6  1  0
  7  8  1  6
  7  6  1  0
  9 10  2  0
  9  7  1  0
 12 11  1  0
 14 13  1  1
 14 16  1  0
 15 14  1  0
 16 17  1  1
 17  9  1  0
 18 19  2  0
 18 16  1  0
 20 18  1  0
 21 20  1  0
 21 22  1  6
 22 23  1  0
 23 24  1  0
 24 28  1  0
 25 24  2  0
 26 21  1  0
 27 26  2  0
 29 26  1  0
M  END
$$$$
