YTE.pdb
     RDKit          3D

 29 29  0  0  1  0  0  0  0  0999 V2000
   35.5644   -8.5938   -6.2402 O   0  0  0  0  0  0  0  0  0  0  0  0
   36.8705   -8.8298   -6.6085 C   0  0  0  0  0  0  0  0  0  0  0  0
   37.5358   -9.9661   -6.1644 C   0  0  0  0  0  0  0  0  0  0  0  0
   38.8571  -10.2078   -6.5364 C   0  0  0  0  0  0  0  0  0  0  0  0
   39.4642   -9.2892   -7.3471 C   0  0  0  0  0  0  0  0  0  0  0  0
   40.8673   -9.4890   -7.7752 C   0  0  0  0  0  0  0  0  0  0  0  0
   41.7788   -9.7453   -6.5978 C   0  0  2  0  0  0  0  0  0  0  0  0
   41.5861   -8.6343   -5.6818 N   0  0  0  0  0  0  0  0  0  0  0  0
   43.2006   -9.8529   -7.0390 C   0  0  0  0  0  0  0  0  0  0  0  0
   43.9253   -8.8192   -7.1451 O   0  0  0  0  0  0  0  0  0  0  0  0
   38.7976   -8.1548   -7.7895 C   0  0  0  0  0  0  0  0  0  0  0  0
   37.5087   -7.9028   -7.4369 C   0  0  0  0  0  0  0  0  0  0  0  0
   45.9097  -11.5456   -5.4278 C   0  0  0  0  0  0  0  0  0  0  0  0
   45.8652  -12.1835   -6.8056 C   0  0  1  0  0  0  0  0  0  0  0  0
   45.3629  -13.5003   -6.6668 O   0  0  0  0  0  0  0  0  0  0  0  0
   45.0538  -11.4064   -7.7760 C   0  0  2  0  0  0  0  0  0  0  0  0
   43.7343  -11.1069   -7.3364 N   0  0  0  0  0  0  0  0  0  0  0  0
   45.1649  -12.0327   -9.1178 C   0  0  0  0  0  0  0  0  0  0  0  0
   44.2707  -12.5712   -9.7730 O   0  0  0  0  0  0  0  0  0  0  0  0
   46.4634  -12.0082   -9.7305 N   0  0  0  0  0  0  0  0  0  0  0  0
   46.6581  -12.5918  -11.0556 C   0  0  1  0  0  0  0  0  0  0  0  0
   48.0866  -12.3960  -11.5067 C   0  0  0  0  0  0  0  0  0  0  0  0
   48.1516  -12.8311  -12.9820 C   0  0  0  0  0  0  0  0  0  0  0  0
   49.5346  -12.6734  -13.4932 C   0  0  0  0  0  0  0  0  0  0  0  0
   50.4636  -12.2659  -12.7528 O   0  0  0  0  0  0  0  0  0  0  0  0
   46.3453  -14.0375  -10.9840 C   0  0  0  0  0  0  0  0  0  0  0  0
   46.7019  -14.7170   -9.9956 O   0  0  0  0  0  0  0  0  0  0  0  0
   49.8501  -12.9698  -14.8219 O   0  0  0  0  0  0  0  0  0  0  0  0
   45.6556  -14.6509  -12.0066 O   0  0  0  0  0  0  0  0  0  0  0  0
  1  2  1  0
  2 12  2  0
  3  2  1  0
  3  4  2  0
  4  5  1  0
  5 11  2  0
  5  6  1  0
  7  8  1  1
  7  6  1  0
  9 10  2  0
  9  7  1  0
 12 11  1  0
 14 13  1  1
 14 16  1  0
 15 14  1  0
 16 17  1  1
 17  9  1  0
 18 19  2  0
 18 16  1  0
 20 18  1  0
 21 20  1  0
 21 22  1  1
 22 23  1  0
 23 24  1  0
 24 28  1  0
 25 24  2  0
 26 21  1  0
 27 26  2  0
 29 26  1  0
M  END
$$$$
