YTE.pdb
     RDKit          3D

 29 29  0  0  1  0  0  0  0  0999 V2000
   28.3191  -19.5486   -4.3378 O   0  0  0  0  0  0  0  0  0  0  0  0
   28.1424  -19.5813   -5.7034 C   0  0  0  0  0  0  0  0  0  0  0  0
   29.1516  -19.1527   -6.5571 C   0  0  0  0  0  0  0  0  0  0  0  0
   28.9757  -19.1856   -7.9394 C   0  0  0  0  0  0  0  0  0  0  0  0
   27.7811  -19.6516   -8.4142 C   0  0  0  0  0  0  0  0  0  0  0  0
   27.5333  -19.7092   -9.8727 C   0  0  0  0  0  0  0  0  0  0  0  0
   26.9507  -21.0400  -10.2876 C   0  0  2  0  0  0  0  0  0  0  0  0
   28.0353  -22.0035  -10.2097 N   0  0  0  0  0  0  0  0  0  0  0  0
   26.3807  -20.9653  -11.6650 C   0  0  0  0  0  0  0  0  0  0  0  0
   27.1286  -21.0744  -12.6817 O   0  0  0  0  0  0  0  0  0  0  0  0
   26.7744  -20.0791   -7.5594 C   0  0  0  0  0  0  0  0  0  0  0  0
   26.9284  -20.0543   -6.2086 C   0  0  0  0  0  0  0  0  0  0  0  0
   25.7373  -22.4684  -14.1354 C   0  0  0  0  0  0  0  0  0  0  0  0
   24.3215  -22.0156  -13.8226 C   0  0  1  0  0  0  0  0  0  0  0  0
   23.6694  -23.0578  -13.1198 O   0  0  0  0  0  0  0  0  0  0  0  0
   24.2778  -20.7480  -13.0511 C   0  0  2  0  0  0  0  0  0  0  0  0
   25.0090  -20.7736  -11.8309 N   0  0  0  0  0  0  0  0  0  0  0  0
   22.8709  -20.2827  -12.9555 C   0  0  0  0  0  0  0  0  0  0  0  0
   22.1590  -20.2407  -11.9502 O   0  0  0  0  0  0  0  0  0  0  0  0
   22.2641  -19.8232  -14.1732 N   0  0  0  0  0  0  0  0  0  0  0  0
   20.9597  -19.1661  -14.1380 C   0  0  1  0  0  0  0  0  0  0  0  0
   20.7397  -18.3756  -15.4065 C   0  0  0  0  0  0  0  0  0  0  0  0
   19.3400  -17.7437  -15.3005 C   0  0  0  0  0  0  0  0  0  0  0  0
   19.0589  -16.9362  -16.5122 C   0  0  0  0  0  0  0  0  0  0  0  0
   19.9186  -16.7912  -17.4161 O   0  0  0  0  0  0  0  0  0  0  0  0
   19.9128  -20.2048  -14.0028 C   0  0  0  0  0  0  0  0  0  0  0  0
   20.0535  -21.3238  -14.5449 O   0  0  0  0  0  0  0  0  0  0  0  0
   17.8249  -16.3038  -16.6867 O   0  0  0  0  0  0  0  0  0  0  0  0
   18.7707  -19.9500  -13.2760 O   0  0  0  0  0  0  0  0  0  0  0  0
  1  2  1  0
  2 12  2  0
  3  2  1  0
  3  4  2  0
  4  5  1  0
  5 11  2  0
  5  6  1  0
  7  8  1  6
  7  6  1  0
  9 10  2  0
  9  7  1  0
 12 11  1  0
 14 13  1  1
 14 16  1  0
 15 14  1  0
 16 17  1  1
 17  9  1  0
 18 19  2  0
 18 16  1  0
 20 18  1  0
 21 20  1  0
 21 22  1  6
 22 23  1  0
 23 24  1  0
 24 28  1  0
 25 24  2  0
 26 21  1  0
 27 26  2  0
 29 26  1  0
M  END
$$$$
