YTE.pdb
     RDKit          3D

 29 29  0  0  1  0  0  0  0  0999 V2000
   29.0124  -18.9255   -3.7048 O   0  0  0  0  0  0  0  0  0  0  0  0
   28.6815  -19.2220   -5.0086 C   0  0  0  0  0  0  0  0  0  0  0  0
   27.6950  -18.4999   -5.6692 C   0  0  0  0  0  0  0  0  0  0  0  0
   27.3589  -18.7973   -6.9887 C   0  0  0  0  0  0  0  0  0  0  0  0
   28.0331  -19.8188   -7.5984 C   0  0  0  0  0  0  0  0  0  0  0  0
   27.7200  -20.1836   -8.9987 C   0  0  0  0  0  0  0  0  0  0  0  0
   26.2419  -20.0670   -9.2886 C   0  0  2  0  0  0  0  0  0  0  0  0
   25.6111  -21.2192   -8.6679 N   0  0  0  0  0  0  0  0  0  0  0  0
   25.9893  -20.0286  -10.7591 C   0  0  0  0  0  0  0  0  0  0  0  0
   26.4381  -19.0796  -11.4683 O   0  0  0  0  0  0  0  0  0  0  0  0
   29.0182  -20.5387   -6.9365 C   0  0  0  0  0  0  0  0  0  0  0  0
   29.3593  -20.2626   -5.6495 C   0  0  0  0  0  0  0  0  0  0  0  0
   27.1889  -20.8013  -13.5314 C   0  0  0  0  0  0  0  0  0  0  0  0
   25.9107  -21.6143  -13.6428 C   0  0  1  0  0  0  0  0  0  0  0  0
   26.2293  -22.9734  -13.4047 O   0  0  0  0  0  0  0  0  0  0  0  0
   24.8477  -21.1491  -12.7167 C   0  0  2  0  0  0  0  0  0  0  0  0
   25.2513  -21.0509  -11.3560 N   0  0  0  0  0  0  0  0  0  0  0  0
   23.6054  -21.9216  -12.9716 C   0  0  0  0  0  0  0  0  0  0  0  0
   23.0872  -22.7733  -12.2469 O   0  0  0  0  0  0  0  0  0  0  0  0
   22.9212  -21.6461  -14.2036 N   0  0  0  0  0  0  0  0  0  0  0  0
   21.4608  -21.6393  -14.2438 C   0  0  1  0  0  0  0  0  0  0  0  0
   20.9170  -20.6261  -13.2640 C   0  0  0  0  0  0  0  0  0  0  0  0
   19.3832  -20.7540  -13.2961 C   0  0  0  0  0  0  0  0  0  0  0  0
   18.7750  -19.7509  -12.3889 C   0  0  0  0  0  0  0  0  0  0  0  0
   18.9769  -18.5211  -12.5434 O   0  0  0  0  0  0  0  0  0  0  0  0
   21.0292  -21.2948  -15.6179 C   0  0  0  0  0  0  0  0  0  0  0  0
   20.0620  -21.8860  -16.1476 O   0  0  0  0  0  0  0  0  0  0  0  0
   17.9576  -20.1429  -11.3253 O   0  0  0  0  0  0  0  0  0  0  0  0
   21.6889  -20.3164  -16.3287 O   0  0  0  0  0  0  0  0  0  0  0  0
  1  2  1  0
  2 12  2  0
  3  2  1  0
  3  4  2  0
  4  5  1  0
  5 11  2  0
  5  6  1  0
  7  8  1  6
  7  6  1  0
  9 10  2  0
  9  7  1  0
 12 11  1  0
 14 13  1  1
 14 16  1  0
 15 14  1  0
 16 17  1  1
 17  9  1  0
 18 19  2  0
 18 16  1  0
 20 18  1  0
 21 20  1  0
 21 22  1  1
 22 23  1  0
 23 24  1  0
 24 28  1  0
 25 24  2  0
 26 21  1  0
 27 26  2  0
 29 26  1  0
M  END
$$$$
