YTE.pdb
     RDKit          3D

 29 29  0  0  1  0  0  0  0  0999 V2000
   30.2394   -5.6645  -20.0891 O   0  0  0  0  0  0  0  0  0  0  0  0
   28.9224   -5.5587  -19.7002 C   0  0  0  0  0  0  0  0  0  0  0  0
   27.9001   -5.6326  -20.6385 C   0  0  0  0  0  0  0  0  0  0  0  0
   26.5665   -5.5268  -20.2475 C   0  0  0  0  0  0  0  0  0  0  0  0
   26.3099   -5.3486  -18.9163 C   0  0  0  0  0  0  0  0  0  0  0  0
   24.9136   -5.2274  -18.4390 C   0  0  0  0  0  0  0  0  0  0  0  0
   24.4031   -6.5308  -17.8705 C   0  0  2  0  0  0  0  0  0  0  0  0
   24.5505   -7.5217  -18.9227 N   0  0  0  0  0  0  0  0  0  0  0  0
   22.9818   -6.4007  -17.4340 C   0  0  0  0  0  0  0  0  0  0  0  0
   22.0511   -6.2867  -18.2859 O   0  0  0  0  0  0  0  0  0  0  0  0
   27.3327   -5.2750  -17.9807 C   0  0  0  0  0  0  0  0  0  0  0  0
   28.6391   -5.3763  -18.3439 C   0  0  0  0  0  0  0  0  0  0  0  0
   21.0352   -8.7674  -15.4288 C   0  0  0  0  0  0  0  0  0  0  0  0
   20.9908   -7.4626  -14.6525 C   0  0  1  0  0  0  0  0  0  0  0  0
   21.8229   -7.5971  -13.5145 O   0  0  0  0  0  0  0  0  0  0  0  0
   21.3951   -6.2906  -15.4690 C   0  0  2  0  0  0  0  0  0  0  0  0
   22.6783   -6.4056  -16.0725 N   0  0  0  0  0  0  0  0  0  0  0  0
   21.1508   -5.0477  -14.6941 C   0  0  0  0  0  0  0  0  0  0  0  0
   21.9882   -4.2498  -14.2682 O   0  0  0  0  0  0  0  0  0  0  0  0
   19.7800   -4.7310  -14.4068 N   0  0  0  0  0  0  0  0  0  0  0  0
   19.3973   -3.3568  -14.0911 C   0  0  1  0  0  0  0  0  0  0  0  0
   19.8616   -2.4222  -15.1835 C   0  0  0  0  0  0  0  0  0  0  0  0
   19.3810   -1.0117  -14.7971 C   0  0  0  0  0  0  0  0  0  0  0  0
   19.8274   -0.0308  -15.8158 C   0  0  0  0  0  0  0  0  0  0  0  0
   19.5106    1.1820  -15.7397 O   0  0  0  0  0  0  0  0  0  0  0  0
   17.9228   -3.2954  -13.9674 C   0  0  0  0  0  0  0  0  0  0  0  0
   17.1954   -4.0495  -14.6514 O   0  0  0  0  0  0  0  0  0  0  0  0
   20.6148   -0.4261  -16.9006 O   0  0  0  0  0  0  0  0  0  0  0  0
   17.3350   -2.4061  -13.0949 O   0  0  0  0  0  0  0  0  0  0  0  0
  1  2  1  0
  2 12  2  0
  3  2  1  0
  3  4  2  0
  4  5  1  0
  5 11  2  0
  5  6  1  0
  7  8  1  6
  7  6  1  0
  9 10  2  0
  9  7  1  0
 12 11  1  0
 14 13  1  6
 14 16  1  0
 15 14  1  0
 16 17  1  1
 17  9  1  0
 18 19  2  0
 18 16  1  0
 20 18  1  0
 21 20  1  0
 21 22  1  6
 22 23  1  0
 23 24  1  0
 24 28  1  0
 25 24  2  0
 26 21  1  0
 27 26  2  0
 29 26  1  0
M  END
$$$$
