YTE.pdb
     RDKit          3D

 29 29  0  0  1  0  0  0  0  0999 V2000
   19.4986  -23.7331   -6.4406 O   0  0  0  0  0  0  0  0  0  0  0  0
   20.2634  -22.9474   -7.2742 C   0  0  0  0  0  0  0  0  0  0  0  0
   20.1988  -23.1083   -8.6530 C   0  0  0  0  0  0  0  0  0  0  0  0
   20.9710  -22.3140   -9.4988 C   0  0  0  0  0  0  0  0  0  0  0  0
   21.7859  -21.3806   -8.9206 C   0  0  0  0  0  0  0  0  0  0  0  0
   22.6318  -20.5078   -9.7660 C   0  0  0  0  0  0  0  0  0  0  0  0
   23.9019  -21.2057  -10.1930 C   0  0  2  0  0  0  0  0  0  0  0  0
   24.8042  -21.1450   -9.0560 N   0  0  0  0  0  0  0  0  0  0  0  0
   24.4910  -20.5490  -11.3970 C   0  0  0  0  0  0  0  0  0  0  0  0
   25.2794  -19.5647  -11.2767 O   0  0  0  0  0  0  0  0  0  0  0  0
   21.8487  -21.2217   -7.5431 C   0  0  0  0  0  0  0  0  0  0  0  0
   21.1028  -21.9874   -6.7027 C   0  0  0  0  0  0  0  0  0  0  0  0
   27.0004  -21.1615  -13.5043 C   0  0  0  0  0  0  0  0  0  0  0  0
   25.8213  -21.2048  -14.4609 C   0  0  1  0  0  0  0  0  0  0  0  0
   25.5470  -22.5609  -14.7630 O   0  0  0  0  0  0  0  0  0  0  0  0
   24.6151  -20.5276  -13.9219 C   0  0  2  0  0  0  0  0  0  0  0  0
   24.1683  -21.0274  -12.6670 N   0  0  0  0  0  0  0  0  0  0  0  0
   23.5866  -20.4392  -14.9892 C   0  0  0  0  0  0  0  0  0  0  0  0
   22.5358  -21.0776  -15.0762 O   0  0  0  0  0  0  0  0  0  0  0  0
   23.8383  -19.4990  -16.0450 N   0  0  0  0  0  0  0  0  0  0  0  0
   22.8277  -19.2668  -17.0743 C   0  0  1  0  0  0  0  0  0  0  0  0
   22.6226  -17.7841  -17.2784 C   0  0  0  0  0  0  0  0  0  0  0  0
   21.3516  -17.3988  -16.5000 C   0  0  0  0  0  0  0  0  0  0  0  0
   21.0074  -15.9814  -16.7674 C   0  0  0  0  0  0  0  0  0  0  0  0
   20.6586  -15.5971  -17.9110 O   0  0  0  0  0  0  0  0  0  0  0  0
   23.2886  -19.8910  -18.3357 C   0  0  0  0  0  0  0  0  0  0  0  0
   24.5090  -19.9555  -18.6044 O   0  0  0  0  0  0  0  0  0  0  0  0
   21.0645  -15.0220  -15.7529 O   0  0  0  0  0  0  0  0  0  0  0  0
   22.3765  -20.4094  -19.2283 O   0  0  0  0  0  0  0  0  0  0  0  0
  1  2  1  0
  2 12  2  0
  3  2  1  0
  3  4  2  0
  4  5  1  0
  5 11  2  0
  5  6  1  0
  7  8  1  1
  7  6  1  0
  9 10  2  0
  9  7  1  0
 12 11  1  0
 14 13  1  1
 14 16  1  0
 15 14  1  0
 16 17  1  1
 17  9  1  0
 18 19  2  0
 18 16  1  0
 20 18  1  0
 21 20  1  0
 21 22  1  6
 22 23  1  0
 23 24  1  0
 24 28  1  0
 25 24  2  0
 26 21  1  0
 27 26  2  0
 29 26  1  0
M  END
$$$$
