YTE.pdb
     RDKit          3D

 29 29  0  0  1  0  0  0  0  0999 V2000
   27.2332  -30.2426  -16.9532 O   0  0  0  0  0  0  0  0  0  0  0  0
   27.1325  -28.8957  -16.6836 C   0  0  0  0  0  0  0  0  0  0  0  0
   25.8953  -28.2631  -16.6951 C   0  0  0  0  0  0  0  0  0  0  0  0
   25.7905  -26.9004  -16.4217 C   0  0  0  0  0  0  0  0  0  0  0  0
   26.9440  -26.2201  -16.1455 C   0  0  0  0  0  0  0  0  0  0  0  0
   26.8981  -24.7703  -15.8489 C   0  0  0  0  0  0  0  0  0  0  0  0
   27.1433  -23.9394  -17.0867 C   0  0  2  0  0  0  0  0  0  0  0  0
   28.5852  -23.8490  -17.2397 N   0  0  0  0  0  0  0  0  0  0  0  0
   26.5196  -22.5899  -16.9540 C   0  0  0  0  0  0  0  0  0  0  0  0
   27.2375  -21.5471  -16.9059 O   0  0  0  0  0  0  0  0  0  0  0  0
   28.1788  -26.8541  -16.1346 C   0  0  0  0  0  0  0  0  0  0  0  0
   28.3000  -28.1825  -16.3987 C   0  0  0  0  0  0  0  0  0  0  0  0
   26.1233  -19.9103  -17.9565 C   0  0  0  0  0  0  0  0  0  0  0  0
   24.6594  -20.3139  -17.9180 C   0  0  1  0  0  0  0  0  0  0  0  0
   24.3132  -20.8421  -19.1855 O   0  0  0  0  0  0  0  0  0  0  0  0
   24.3567  -21.2865  -16.8380 C   0  0  2  0  0  0  0  0  0  0  0  0
   25.1309  -22.4792  -16.8832 N   0  0  0  0  0  0  0  0  0  0  0  0
   22.8861  -21.4699  -16.7440 C   0  0  0  0  0  0  0  0  0  0  0  0
   22.2141  -22.4016  -17.1907 O   0  0  0  0  0  0  0  0  0  0  0  0
   22.1562  -20.4469  -16.0494 N   0  0  0  0  0  0  0  0  0  0  0  0
   20.7222  -20.6015  -15.8162 C   0  0  1  0  0  0  0  0  0  0  0  0
   20.1818  -19.4001  -15.0765 C   0  0  0  0  0  0  0  0  0  0  0  0
   20.8959  -19.3580  -13.7133 C   0  0  0  0  0  0  0  0  0  0  0  0
   20.4727  -18.1527  -12.9601 C   0  0  0  0  0  0  0  0  0  0  0  0
   19.6603  -17.3282  -13.4472 O   0  0  0  0  0  0  0  0  0  0  0  0
   20.0439  -20.7348  -17.1259 C   0  0  0  0  0  0  0  0  0  0  0  0
   20.2668  -19.9140  -18.0437 O   0  0  0  0  0  0  0  0  0  0  0  0
   20.9694  -17.8914  -11.6802 O   0  0  0  0  0  0  0  0  0  0  0  0
   19.1593  -21.7670  -17.3485 O   0  0  0  0  0  0  0  0  0  0  0  0
  1  2  1  0
  2 12  2  0
  3  2  1  0
  3  4  2  0
  4  5  1  0
  5 11  2  0
  5  6  1  0
  7  8  1  1
  7  6  1  0
  9 10  2  0
  9  7  1  0
 12 11  1  0
 14 13  1  6
 14 16  1  0
 15 14  1  0
 16 17  1  6
 17  9  1  0
 18 19  2  0
 18 16  1  0
 20 18  1  0
 21 20  1  0
 21 22  1  6
 22 23  1  0
 23 24  1  0
 24 28  1  0
 25 24  2  0
 26 21  1  0
 27 26  2  0
 29 26  1  0
M  END
$$$$
