YTE.pdb
     RDKit          3D

 29 29  0  0  1  0  0  0  0  0999 V2000
   25.4968  -20.2090   -7.8510 O   0  0  0  0  0  0  0  0  0  0  0  0
   25.8379  -20.0920   -9.1804 C   0  0  0  0  0  0  0  0  0  0  0  0
   27.1635  -20.2024   -9.5823 C   0  0  0  0  0  0  0  0  0  0  0  0
   27.5112  -20.0854  -10.9270 C   0  0  0  0  0  0  0  0  0  0  0  0
   26.5039  -19.8591  -11.8235 C   0  0  0  0  0  0  0  0  0  0  0  0
   26.8100  -19.7238  -13.2657 C   0  0  0  0  0  0  0  0  0  0  0  0
   26.2084  -20.8510  -14.0721 C   0  0  2  0  0  0  0  0  0  0  0  0
   27.3232  -21.6417  -14.5648 N   0  0  0  0  0  0  0  0  0  0  0  0
   25.3754  -20.3195  -15.1907 C   0  0  0  0  0  0  0  0  0  0  0  0
   25.9112  -19.7111  -16.1642 O   0  0  0  0  0  0  0  0  0  0  0  0
   25.1804  -19.7492  -11.4196 C   0  0  0  0  0  0  0  0  0  0  0  0
   24.8227  -19.8607  -10.1125 C   0  0  0  0  0  0  0  0  0  0  0  0
   24.0801  -21.2750  -18.0075 C   0  0  0  0  0  0  0  0  0  0  0  0
   22.8051  -20.9391  -17.2533 C   0  0  1  0  0  0  0  0  0  0  0  0
   22.2130  -22.1520  -16.8244 O   0  0  0  0  0  0  0  0  0  0  0  0
   23.0366  -20.0274  -16.1048 C   0  0  2  0  0  0  0  0  0  0  0  0
   23.9921  -20.4970  -15.1611 N   0  0  0  0  0  0  0  0  0  0  0  0
   21.7277  -19.6022  -15.5471 C   0  0  0  0  0  0  0  0  0  0  0  0
   21.2311  -19.9223  -14.4653 O   0  0  0  0  0  0  0  0  0  0  0  0
   20.9455  -18.7109  -16.3569 N   0  0  0  0  0  0  0  0  0  0  0  0
   19.6283  -18.2736  -15.9006 C   0  0  1  0  0  0  0  0  0  0  0  0
   19.0953  -17.1901  -16.8085 C   0  0  0  0  0  0  0  0  0  0  0  0
   17.7807  -16.6907  -16.1821 C   0  0  0  0  0  0  0  0  0  0  0  0
   17.2404  -15.5621  -16.9780 C   0  0  0  0  0  0  0  0  0  0  0  0
   17.6764  -15.3036  -18.1270 O   0  0  0  0  0  0  0  0  0  0  0  0
   18.7144  -19.4387  -15.9147 C   0  0  0  0  0  0  0  0  0  0  0  0
   18.8357  -20.3315  -16.7831 O   0  0  0  0  0  0  0  0  0  0  0  0
   16.2273  -14.7432  -16.4719 O   0  0  0  0  0  0  0  0  0  0  0  0
   17.7193  -19.5531  -14.9690 O   0  0  0  0  0  0  0  0  0  0  0  0
  1  2  1  0
  2 12  2  0
  3  2  1  0
  3  4  2  0
  4  5  1  0
  5 11  2  0
  5  6  1  0
  7  8  1  6
  7  6  1  0
  9 10  2  0
  9  7  1  0
 12 11  1  0
 14 13  1  1
 14 16  1  0
 15 14  1  0
 16 17  1  1
 17  9  1  0
 18 19  2  0
 18 16  1  0
 20 18  1  0
 21 20  1  0
 21 22  1  6
 22 23  1  0
 23 24  1  0
 24 28  1  0
 25 24  2  0
 26 21  1  0
 27 26  2  0
 29 26  1  0
M  END
$$$$
