YTE.pdb
     RDKit          3D

 29 29  0  0  1  0  0  0  0  0999 V2000
   29.8374   -9.3704  -18.5545 O   0  0  0  0  0  0  0  0  0  0  0  0
   28.5253   -8.9960  -18.3668 C   0  0  0  0  0  0  0  0  0  0  0  0
   28.1085   -8.4653  -17.1520 C   0  0  0  0  0  0  0  0  0  0  0  0
   26.7816   -8.0848  -16.9597 C   0  0  0  0  0  0  0  0  0  0  0  0
   25.9170   -8.2545  -18.0053 C   0  0  0  0  0  0  0  0  0  0  0  0
   24.4942   -7.8708  -17.8621 C   0  0  0  0  0  0  0  0  0  0  0  0
   23.7514   -8.8142  -16.9451 C   0  0  2  0  0  0  0  0  0  0  0  0
   23.9541  -10.1495  -17.4806 N   0  0  0  0  0  0  0  0  0  0  0  0
   22.3023   -8.4627  -16.8805 C   0  0  0  0  0  0  0  0  0  0  0  0
   21.5282   -8.7283  -17.8476 O   0  0  0  0  0  0  0  0  0  0  0  0
   26.3355   -8.7847  -19.2179 C   0  0  0  0  0  0  0  0  0  0  0  0
   27.6259   -9.1613  -19.4235 C   0  0  0  0  0  0  0  0  0  0  0  0
   19.7861   -9.7074  -14.6172 C   0  0  0  0  0  0  0  0  0  0  0  0
   19.7980   -8.2067  -14.3829 C   0  0  1  0  0  0  0  0  0  0  0  0
   20.4446   -7.9575  -13.1479 O   0  0  0  0  0  0  0  0  0  0  0  0
   20.4513   -7.4553  -15.4841 C   0  0  2  0  0  0  0  0  0  0  0  0
   21.7979   -7.8357  -15.7411 N   0  0  0  0  0  0  0  0  0  0  0  0
   20.2120   -6.0023  -15.2933 C   0  0  0  0  0  0  0  0  0  0  0  0
   21.0147   -5.1526  -14.9025 O   0  0  0  0  0  0  0  0  0  0  0  0
   18.8934   -5.5244  -15.6017 N   0  0  0  0  0  0  0  0  0  0  0  0
   18.5726   -4.1081  -15.4416 C   0  0  1  0  0  0  0  0  0  0  0  0
   18.2561   -3.4904  -16.7835 C   0  0  0  0  0  0  0  0  0  0  0  0
   18.0043   -1.9920  -16.5359 C   0  0  0  0  0  0  0  0  0  0  0  0
   17.6436   -1.3246  -17.8101 C   0  0  0  0  0  0  0  0  0  0  0  0
   17.6136   -1.9570  -18.8946 O   0  0  0  0  0  0  0  0  0  0  0  0
   17.4017   -3.9894  -14.5427 C   0  0  0  0  0  0  0  0  0  0  0  0
   16.6596   -4.9746  -14.3316 O   0  0  0  0  0  0  0  0  0  0  0  0
   17.3283    0.0364  -17.8468 O   0  0  0  0  0  0  0  0  0  0  0  0
   17.1171   -2.7905  -13.9268 O   0  0  0  0  0  0  0  0  0  0  0  0
  1  2  1  0
  2 12  2  0
  3  2  1  0
  3  4  2  0
  4  5  1  0
  5 11  2  0
  5  6  1  0
  7  8  1  6
  7  6  1  0
  9 10  2  0
  9  7  1  0
 12 11  1  0
 14 13  1  6
 14 16  1  0
 15 14  1  0
 16 17  1  1
 17  9  1  0
 18 19  2  0
 18 16  1  0
 20 18  1  0
 21 20  1  0
 21 22  1  6
 22 23  1  0
 23 24  1  0
 24 28  1  0
 25 24  2  0
 26 21  1  0
 27 26  2  0
 29 26  1  0
M  END
$$$$
