YTE.pdb
     RDKit          3D

 29 29  0  0  1  0  0  0  0  0999 V2000
   28.5187  -20.2356   -5.4345 O   0  0  0  0  0  0  0  0  0  0  0  0
   28.1296  -20.1557   -6.7534 C   0  0  0  0  0  0  0  0  0  0  0  0
   26.8031  -19.9082   -7.0852 C   0  0  0  0  0  0  0  0  0  0  0  0
   26.4069  -19.8260   -8.4190 C   0  0  0  0  0  0  0  0  0  0  0  0
   27.3681  -19.9980   -9.3761 C   0  0  0  0  0  0  0  0  0  0  0  0
   27.0091  -19.9239  -10.8106 C   0  0  0  0  0  0  0  0  0  0  0  0
   26.2960  -21.1731  -11.2727 C   0  0  2  0  0  0  0  0  0  0  0  0
   27.3303  -22.1514  -11.5619 N   0  0  0  0  0  0  0  0  0  0  0  0
   25.4546  -20.8925  -12.4731 C   0  0  0  0  0  0  0  0  0  0  0  0
   25.9565  -20.9204  -13.6360 O   0  0  0  0  0  0  0  0  0  0  0  0
   28.6925  -20.2453   -9.0423 C   0  0  0  0  0  0  0  0  0  0  0  0
   29.0972  -20.3286   -7.7468 C   0  0  0  0  0  0  0  0  0  0  0  0
   24.2394  -22.2082  -14.7228 C   0  0  0  0  0  0  0  0  0  0  0  0
   22.9309  -21.6717  -14.1687 C   0  0  1  0  0  0  0  0  0  0  0  0
   22.3019  -22.7093  -13.4384 O   0  0  0  0  0  0  0  0  0  0  0  0
   23.1130  -20.4645  -13.3242 C   0  0  2  0  0  0  0  0  0  0  0  0
   24.1012  -20.5972  -12.3093 N   0  0  0  0  0  0  0  0  0  0  0  0
   21.7839  -19.9764  -12.8766 C   0  0  0  0  0  0  0  0  0  0  0  0
   21.2881  -20.0689  -11.7520 O   0  0  0  0  0  0  0  0  0  0  0  0
   20.9785  -19.3151  -13.8646 N   0  0  0  0  0  0  0  0  0  0  0  0
   19.6917  -18.7336  -13.4897 C   0  0  1  0  0  0  0  0  0  0  0  0
   19.0950  -17.9891  -14.6610 C   0  0  0  0  0  0  0  0  0  0  0  0
   19.9992  -16.7707  -14.9218 C   0  0  0  0  0  0  0  0  0  0  0  0
   19.4030  -15.9181  -15.9786 C   0  0  0  0  0  0  0  0  0  0  0  0
   19.2242  -16.3496  -17.1443 O   0  0  0  0  0  0  0  0  0  0  0  0
   18.7847  -19.8272  -13.0719 C   0  0  0  0  0  0  0  0  0  0  0  0
   17.8590  -19.6097  -12.2584 O   0  0  0  0  0  0  0  0  0  0  0  0
   19.0233  -14.5999  -15.7122 O   0  0  0  0  0  0  0  0  0  0  0  0
   18.9500  -21.0982  -13.5764 O   0  0  0  0  0  0  0  0  0  0  0  0
  1  2  1  0
  2 12  2  0
  3  2  1  0
  3  4  2  0
  4  5  1  0
  5 11  2  0
  5  6  1  0
  7  8  1  6
  7  6  1  0
  9 10  2  0
  9  7  1  0
 12 11  1  0
 14 13  1  1
 14 16  1  0
 15 14  1  0
 16 17  1  1
 17  9  1  0
 18 19  2  0
 18 16  1  0
 20 18  1  0
 21 20  1  0
 21 22  1  6
 22 23  1  0
 23 24  1  0
 24 28  1  0
 25 24  2  0
 26 21  1  0
 27 26  2  0
 29 26  1  0
M  END
$$$$
