MMP.pdb
     RDKit          3D

 24 24  0  0  1  0  0  0  0  0999 V2000
   19.9675  -20.5294  -18.2491 C   0  0  0  0  0  0  0  0  0  0  0  0
   19.3982  -22.1505  -17.6960 S   0  0  0  0  0  0  0  0  0  0  0  0
   19.7525  -22.3214  -15.9326 C   0  0  0  0  0  0  0  0  0  0  0  0
   20.7851  -21.3140  -15.4812 C   0  0  0  0  0  0  0  0  0  0  0  0
   21.1651  -21.5384  -14.0609 C   0  0  2  0  0  0  0  0  0  0  0  0
   20.0775  -21.0897  -13.2063 N   0  0  0  0  0  0  0  0  0  0  0  0
   22.4525  -20.9481  -13.6477 C   0  0  0  0  0  0  0  0  0  0  0  0
   22.5110  -19.6951  -13.4011 O   0  0  0  0  0  0  0  0  0  0  0  0
   24.9887  -19.8778   -9.7782 C   0  0  0  0  0  0  0  0  0  0  0  0
   26.0726  -21.2358  -10.1188 S   0  0  0  0  0  0  0  0  0  0  0  0
   26.7885  -21.2439  -11.7641 C   0  0  0  0  0  0  0  0  0  0  0  0
   25.9954  -21.8732  -12.8319 C   0  0  0  0  0  0  0  0  0  0  0  0
   24.9398  -21.0273  -13.4683 C   0  0  2  0  0  0  0  0  0  0  0  0
   23.6674  -21.6614  -13.4915 N   0  0  0  0  0  0  0  0  0  0  0  0
   25.2965  -20.4331  -14.7627 C   0  0  0  0  0  0  0  0  0  0  0  0
   24.6176  -20.8844  -15.7920 O   0  0  0  0  0  0  0  0  0  0  0  0
   26.2455  -19.4576  -15.0820 N   0  0  0  0  0  0  0  0  0  0  0  0
   27.1844  -18.8821  -14.1116 C   0  0  0  0  0  0  0  0  0  0  0  0
   27.1256  -17.4240  -14.4905 C   0  0  0  0  0  0  0  0  0  0  0  0
   26.7081  -17.3702  -15.9298 C   0  0  0  0  0  0  0  0  0  0  0  0
   26.5718  -18.8392  -16.3058 C   0  0  1  0  0  0  0  0  0  0  0  0
   27.7904  -19.3524  -16.9513 C   0  0  0  0  0  0  0  0  0  0  0  0
   28.5278  -20.1322  -16.3117 O   0  0  0  0  0  0  0  0  0  0  0  0
   28.1279  -18.9893  -18.2391 O   0  0  0  0  0  0  0  0  0  0  0  0
  2  1  1  0
  2  3  1  0
  3  4  1  0
  5  6  1  1
  5  4  1  0
  7  5  1  0
  7  8  2  0
 10  9  1  0
 10 11  1  0
 11 12  1  0
 13 12  1  6
 13 15  1  0
 13 14  1  0
 14  7  1  0
 15 16  2  0
 17 21  1  0
 17 15  1  0
 18 17  1  0
 19 18  1  0
 20 19  1  0
 20 21  1  0
 21 22  1  1
 22 23  2  0
 22 24  1  0
M  END
$$$$
