MMP.pdb
     RDKit          3D

 24 24  0  0  1  0  0  0  0  0999 V2000
   24.3374  -16.4044  -17.3370 C   0  0  0  0  0  0  0  0  0  0  0  0
   23.7978  -14.6854  -17.4458 S   0  0  0  0  0  0  0  0  0  0  0  0
   25.2484  -13.6128  -17.3496 C   0  0  0  0  0  0  0  0  0  0  0  0
   24.8797  -12.1688  -17.6031 C   0  0  0  0  0  0  0  0  0  0  0  0
   24.6222  -11.4512  -16.3261 C   0  0  2  0  0  0  0  0  0  0  0  0
   24.1569  -12.4076  -15.3345 N   0  0  0  0  0  0  0  0  0  0  0  0
   23.7154  -10.2914  -16.4218 C   0  0  0  0  0  0  0  0  0  0  0  0
   24.1159   -9.2374  -17.0243 O   0  0  0  0  0  0  0  0  0  0  0  0
   16.2196   -7.6220  -16.4717 C   0  0  0  0  0  0  0  0  0  0  0  0
   17.3700   -8.9644  -16.3767 S   0  0  0  0  0  0  0  0  0  0  0  0
   19.0997   -8.4876  -16.4013 C   0  0  0  0  0  0  0  0  0  0  0  0
   20.0882   -9.5592  -16.2023 C   0  0  0  0  0  0  0  0  0  0  0  0
   21.5214   -9.1412  -16.1239 C   0  0  2  0  0  0  0  0  0  0  0  0
   22.4010  -10.2345  -15.8943 N   0  0  0  0  0  0  0  0  0  0  0  0
   21.8029   -7.9982  -15.2463 C   0  0  0  0  0  0  0  0  0  0  0  0
   22.1156   -8.3061  -14.0089 O   0  0  0  0  0  0  0  0  0  0  0  0
   21.7945   -6.6261  -15.5137 N   0  0  0  0  0  0  0  0  0  0  0  0
   21.2968   -6.0400  -16.7639 C   0  0  0  0  0  0  0  0  0  0  0  0
   22.3564   -5.0015  -17.0318 C   0  0  0  0  0  0  0  0  0  0  0  0
   22.9642   -4.6550  -15.7054 C   0  0  0  0  0  0  0  0  0  0  0  0
   22.1803   -5.5207  -14.7288 C   0  0  1  0  0  0  0  0  0  0  0  0
   21.0664   -4.7799  -14.1159 C   0  0  0  0  0  0  0  0  0  0  0  0
   21.3246   -3.8830  -13.2853 O   0  0  0  0  0  0  0  0  0  0  0  0
   19.7545   -5.0578  -14.4410 O   0  0  0  0  0  0  0  0  0  0  0  0
  2  1  1  0
  2  3  1  0
  3  4  1  0
  5  6  1  1
  5  4  1  0
  7  5  1  0
  7  8  2  0
 10  9  1  0
 10 11  1  0
 11 12  1  0
 13 12  1  1
 13 15  1  0
 13 14  1  0
 14  7  1  0
 15 16  2  0
 17 21  1  0
 17 15  1  0
 18 17  1  0
 19 18  1  0
 20 19  1  0
 20 21  1  0
 21 22  1  6
 22 23  2  0
 22 24  1  0
M  END
$$$$
