MMP.pdb
     RDKit          3D

 24 24  0  0  1  0  0  0  0  0999 V2000
   19.6005  -17.1248  -19.4834 C   0  0  0  0  0  0  0  0  0  0  0  0
   19.3477  -18.9028  -19.3020 S   0  0  0  0  0  0  0  0  0  0  0  0
   19.9701  -19.4173  -17.6857 C   0  0  0  0  0  0  0  0  0  0  0  0
   21.2553  -18.7005  -17.3401 C   0  0  0  0  0  0  0  0  0  0  0  0
   21.3550  -18.4587  -15.8760 C   0  0  2  0  0  0  0  0  0  0  0  0
   20.7510  -17.1719  -15.5695 N   0  0  0  0  0  0  0  0  0  0  0  0
   22.7117  -18.5654  -15.3063 C   0  0  0  0  0  0  0  0  0  0  0  0
   23.6274  -17.7808  -15.7306 O   0  0  0  0  0  0  0  0  0  0  0  0
   24.7119  -20.5813   -9.2073 C   0  0  0  0  0  0  0  0  0  0  0  0
   26.0358  -21.0508  -10.2851 S   0  0  0  0  0  0  0  0  0  0  0  0
   25.9053  -20.4330  -11.9647 C   0  0  0  0  0  0  0  0  0  0  0  0
   24.5528  -20.1323  -12.4599 C   0  0  0  0  0  0  0  0  0  0  0  0
   24.4522  -19.6145  -13.8587 C   0  0  2  0  0  0  0  0  0  0  0  0
   23.1072  -19.4826  -14.3005 N   0  0  0  0  0  0  0  0  0  0  0  0
   25.3065  -20.2843  -14.8473 C   0  0  0  0  0  0  0  0  0  0  0  0
   24.7010  -21.1743  -15.5990 O   0  0  0  0  0  0  0  0  0  0  0  0
   26.6680  -20.1281  -15.1232 N   0  0  0  0  0  0  0  0  0  0  0  0
   27.5918  -19.3657  -14.2750 C   0  0  0  0  0  0  0  0  0  0  0  0
   28.3878  -18.6234  -15.3182 C   0  0  0  0  0  0  0  0  0  0  0  0
   28.3109  -19.4356  -16.5764 C   0  0  0  0  0  0  0  0  0  0  0  0
   27.4734  -20.6375  -16.1618 C   0  0  1  0  0  0  0  0  0  0  0  0
   28.3145  -21.7845  -15.7847 C   0  0  0  0  0  0  0  0  0  0  0  0
   28.3757  -22.1167  -14.5818 O   0  0  0  0  0  0  0  0  0  0  0  0
   29.0294  -22.4917  -16.7296 O   0  0  0  0  0  0  0  0  0  0  0  0
  2  1  1  0
  2  3  1  0
  3  4  1  0
  5  6  1  6
  5  4  1  0
  7  5  1  0
  7  8  2  0
 10  9  1  0
 10 11  1  0
 11 12  1  0
 13 12  1  1
 13 15  1  0
 13 14  1  0
 14  7  1  0
 15 16  2  0
 17 21  1  0
 17 15  1  0
 18 17  1  0
 19 18  1  0
 20 19  1  0
 20 21  1  0
 21 22  1  1
 22 23  2  0
 22 24  1  0
M  END
$$$$
