MMP.pdb
     RDKit          3D

 24 24  0  0  1  0  0  0  0  0999 V2000
   26.3661  -15.1000  -15.1603 C   0  0  0  0  0  0  0  0  0  0  0  0
   27.9063  -15.7275  -15.8616 S   0  0  0  0  0  0  0  0  0  0  0  0
   27.5125  -16.9698  -17.1130 C   0  0  0  0  0  0  0  0  0  0  0  0
   26.9372  -18.2180  -16.4836 C   0  0  0  0  0  0  0  0  0  0  0  0
   27.9196  -18.8554  -15.5668 C   0  0  2  0  0  0  0  0  0  0  0  0
   29.0054  -19.4147  -16.3560 N   0  0  0  0  0  0  0  0  0  0  0  0
   27.3624  -19.8541  -14.6347 C   0  0  0  0  0  0  0  0  0  0  0  0
   27.0018  -20.9938  -15.0877 O   0  0  0  0  0  0  0  0  0  0  0  0
   27.4478  -20.6687   -7.7367 C   0  0  0  0  0  0  0  0  0  0  0  0
   25.7798  -20.6923   -8.3300 S   0  0  0  0  0  0  0  0  0  0  0  0
   25.6023  -20.9921  -10.0902 C   0  0  0  0  0  0  0  0  0  0  0  0
   26.5141  -20.2618  -10.9849 C   0  0  0  0  0  0  0  0  0  0  0  0
   26.3248  -20.4753  -12.4524 C   0  0  2  0  0  0  0  0  0  0  0  0
   27.1855  -19.6639  -13.2413 N   0  0  0  0  0  0  0  0  0  0  0  0
   24.9348  -20.4467  -12.9246 C   0  0  0  0  0  0  0  0  0  0  0  0
   24.4820  -19.2610  -13.2605 O   0  0  0  0  0  0  0  0  0  0  0  0
   24.0079  -21.4818  -13.0783 N   0  0  0  0  0  0  0  0  0  0  0  0
   24.2340  -22.8567  -12.6169 C   0  0  0  0  0  0  0  0  0  0  0  0
   23.6987  -23.6405  -13.7883 C   0  0  0  0  0  0  0  0  0  0  0  0
   22.7018  -22.7573  -14.4773 C   0  0  0  0  0  0  0  0  0  0  0  0
   22.7084  -21.4965  -13.6240 C   0  0  1  0  0  0  0  0  0  0  0  0
   21.6221  -21.5038  -12.6315 C   0  0  0  0  0  0  0  0  0  0  0  0
   21.9062  -21.6915  -11.4293 O   0  0  0  0  0  0  0  0  0  0  0  0
   20.3080  -21.3087  -13.0042 O   0  0  0  0  0  0  0  0  0  0  0  0
  2  1  1  0
  2  3  1  0
  3  4  1  0
  5  6  1  6
  5  4  1  0
  7  5  1  0
  7  8  2  0
 10  9  1  0
 10 11  1  0
 11 12  1  0
 13 12  1  1
 13 15  1  0
 13 14  1  0
 14  7  1  0
 15 16  2  0
 17 21  1  0
 17 15  1  0
 18 17  1  0
 19 18  1  0
 20 19  1  0
 20 21  1  0
 21 22  1  1
 22 23  2  0
 22 24  1  0
M  END
$$$$
