MMP.pdb
     RDKit          3D

 24 24  0  0  1  0  0  0  0  0999 V2000
   26.7996  -19.2266  -21.0194 C   0  0  0  0  0  0  0  0  0  0  0  0
   28.4482  -18.5771  -20.6759 S   0  0  0  0  0  0  0  0  0  0  0  0
   29.1078  -19.4072  -19.2130 C   0  0  0  0  0  0  0  0  0  0  0  0
   27.9969  -19.9550  -18.3465 C   0  0  0  0  0  0  0  0  0  0  0  0
   28.5415  -20.5809  -17.1121 C   0  0  2  0  0  0  0  0  0  0  0  0
   29.2930  -21.7702  -17.4799 N   0  0  0  0  0  0  0  0  0  0  0  0
   27.5504  -20.8750  -16.0595 C   0  0  0  0  0  0  0  0  0  0  0  0
   26.8899  -21.9680  -16.1158 O   0  0  0  0  0  0  0  0  0  0  0  0
   26.8009  -21.7429  -10.4854 C   0  0  0  0  0  0  0  0  0  0  0  0
   25.3030  -20.7990  -10.4965 S   0  0  0  0  0  0  0  0  0  0  0  0
   25.1405  -19.6453  -11.8611 C   0  0  0  0  0  0  0  0  0  0  0  0
   26.2800  -19.5444  -12.7865 C   0  0  0  0  0  0  0  0  0  0  0  0
   26.1418  -20.2498  -14.0973 C   0  0  2  0  0  0  0  0  0  0  0  0
   27.2540  -20.0351  -14.9568 N   0  0  0  0  0  0  0  0  0  0  0  0
   24.8565  -20.0692  -14.7838 C   0  0  0  0  0  0  0  0  0  0  0  0
   24.8221  -19.0916  -15.6595 O   0  0  0  0  0  0  0  0  0  0  0  0
   23.6551  -20.7728  -14.6588 N   0  0  0  0  0  0  0  0  0  0  0  0
   23.4226  -21.8224  -13.6595 C   0  0  0  0  0  0  0  0  0  0  0  0
   22.7007  -22.8516  -14.4918 C   0  0  0  0  0  0  0  0  0  0  0  0
   22.0533  -22.1117  -15.6242 C   0  0  0  0  0  0  0  0  0  0  0  0
   22.4333  -20.6626  -15.3530 C   0  0  1  0  0  0  0  0  0  0  0  0
   21.3726  -19.9474  -14.6260 C   0  0  0  0  0  0  0  0  0  0  0  0
   21.5898  -19.5802  -13.4516 O   0  0  0  0  0  0  0  0  0  0  0  0
   20.1542  -19.6786  -15.2152 O   0  0  0  0  0  0  0  0  0  0  0  0
  2  1  1  0
  2  3  1  0
  3  4  1  0
  5  6  1  6
  5  4  1  0
  7  5  1  0
  7  8  2  0
 10  9  1  0
 10 11  1  0
 11 12  1  0
 13 12  1  1
 13 15  1  0
 13 14  1  0
 14  7  1  0
 15 16  2  0
 17 21  1  0
 17 15  1  0
 18 17  1  0
 19 18  1  0
 20 19  1  0
 20 21  1  0
 21 22  1  1
 22 23  2  0
 22 24  1  0
M  END
$$$$
