MMP.pdb
     RDKit          3D

 24 24  0  0  1  0  0  0  0  0999 V2000
   20.8488  -24.1401  -16.8076 C   0  0  0  0  0  0  0  0  0  0  0  0
   19.8781  -24.4018  -15.3085 S   0  0  0  0  0  0  0  0  0  0  0  0
   19.8641  -22.8707  -14.3494 C   0  0  0  0  0  0  0  0  0  0  0  0
   21.1753  -22.1300  -14.4808 C   0  0  0  0  0  0  0  0  0  0  0  0
   21.1860  -20.9083  -13.6326 C   0  0  2  0  0  0  0  0  0  0  0  0
   20.3739  -19.8850  -14.2713 N   0  0  0  0  0  0  0  0  0  0  0  0
   22.5224  -20.3922  -13.2804 C   0  0  0  0  0  0  0  0  0  0  0  0
   23.0556  -19.4936  -14.0170 O   0  0  0  0  0  0  0  0  0  0  0  0
   26.6677  -19.8587   -7.6310 C   0  0  0  0  0  0  0  0  0  0  0  0
   27.2979  -20.9816   -8.8461 S   0  0  0  0  0  0  0  0  0  0  0  0
   26.6786  -20.7275  -10.5109 C   0  0  0  0  0  0  0  0  0  0  0  0
   25.2482  -20.9891  -10.7360 C   0  0  0  0  0  0  0  0  0  0  0  0
   24.6890  -20.5601  -12.0544 C   0  0  2  0  0  0  0  0  0  0  0  0
   23.2938  -20.8100  -12.1670 N   0  0  0  0  0  0  0  0  0  0  0  0
   25.4377  -21.0036  -13.2369 C   0  0  0  0  0  0  0  0  0  0  0  0
   24.9723  -22.0831  -13.8218 O   0  0  0  0  0  0  0  0  0  0  0  0
   26.5718  -20.4611  -13.8482 N   0  0  0  0  0  0  0  0  0  0  0  0
   27.4738  -19.5049  -13.1952 C   0  0  0  0  0  0  0  0  0  0  0  0
   27.7127  -18.5279  -14.3184 C   0  0  0  0  0  0  0  0  0  0  0  0
   27.4846  -19.2780  -15.5967 C   0  0  0  0  0  0  0  0  0  0  0  0
   27.1428  -20.6821  -15.1177 C   0  0  1  0  0  0  0  0  0  0  0  0
   28.3226  -21.5614  -15.1194 C   0  0  0  0  0  0  0  0  0  0  0  0
   28.8397  -21.8730  -16.2133 O   0  0  0  0  0  0  0  0  0  0  0  0
   28.8612  -22.0422  -13.9435 O   0  0  0  0  0  0  0  0  0  0  0  0
  2  1  1  0
  2  3  1  0
  3  4  1  0
  5  6  1  6
  5  4  1  0
  7  5  1  0
  7  8  2  0
 10  9  1  0
 10 11  1  0
 11 12  1  0
 13 12  1  1
 13 15  1  0
 13 14  1  0
 14  7  1  0
 15 16  2  0
 17 21  1  0
 17 15  1  0
 18 17  1  0
 19 18  1  0
 20 19  1  0
 20 21  1  0
 21 22  1  1
 22 23  2  0
 22 24  1  0
M  END
$$$$
