MMP.pdb
     RDKit          3D

 24 24  0  0  1  0  0  0  0  0999 V2000
   21.0171  -22.5549  -18.1543 C   0  0  0  0  0  0  0  0  0  0  0  0
   19.5100  -21.6013  -17.8763 S   0  0  0  0  0  0  0  0  0  0  0  0
   19.8880  -19.8453  -18.0706 C   0  0  0  0  0  0  0  0  0  0  0  0
   21.2871  -19.5300  -17.5929 C   0  0  0  0  0  0  0  0  0  0  0  0
   21.2723  -19.0187  -16.1964 C   0  0  2  0  0  0  0  0  0  0  0  0
   20.5981  -17.7304  -16.1743 N   0  0  0  0  0  0  0  0  0  0  0  0
   22.5878  -18.9487  -15.5324 C   0  0  0  0  0  0  0  0  0  0  0  0
   23.4460  -18.0942  -15.9417 O   0  0  0  0  0  0  0  0  0  0  0  0
   24.6145  -20.6342   -9.2779 C   0  0  0  0  0  0  0  0  0  0  0  0
   25.9352  -21.1120  -10.3559 S   0  0  0  0  0  0  0  0  0  0  0  0
   25.8020  -20.5036  -12.0387 C   0  0  0  0  0  0  0  0  0  0  0  0
   24.4440  -20.3346  -12.5796 C   0  0  0  0  0  0  0  0  0  0  0  0
   24.3399  -19.7909  -13.9683 C   0  0  2  0  0  0  0  0  0  0  0  0
   23.0020  -19.7633  -14.4487 N   0  0  0  0  0  0  0  0  0  0  0  0
   25.2773  -20.3591  -14.9451 C   0  0  0  0  0  0  0  0  0  0  0  0
   24.7697  -21.2682  -15.7449 O   0  0  0  0  0  0  0  0  0  0  0  0
   26.6307  -20.0884  -15.1667 N   0  0  0  0  0  0  0  0  0  0  0  0
   27.4633  -19.2882  -14.2607 C   0  0  0  0  0  0  0  0  0  0  0  0
   28.2327  -18.4492  -15.2492 C   0  0  0  0  0  0  0  0  0  0  0  0
   28.2615  -19.2189  -16.5359 C   0  0  0  0  0  0  0  0  0  0  0  0
   27.5076  -20.4961  -16.1921 C   0  0  1  0  0  0  0  0  0  0  0  0
   28.4231  -21.5876  -15.8239 C   0  0  0  0  0  0  0  0  0  0  0  0
   28.4695  -21.9581  -14.6315 O   0  0  0  0  0  0  0  0  0  0  0  0
   29.2230  -22.2021  -16.7654 O   0  0  0  0  0  0  0  0  0  0  0  0
  2  1  1  0
  2  3  1  0
  3  4  1  0
  5  6  1  6
  5  4  1  0
  7  5  1  0
  7  8  2  0
 10  9  1  0
 10 11  1  0
 11 12  1  0
 13 12  1  1
 13 15  1  0
 13 14  1  0
 14  7  1  0
 15 16  2  0
 17 21  1  0
 17 15  1  0
 18 17  1  0
 19 18  1  0
 20 19  1  0
 20 21  1  0
 21 22  1  1
 22 23  2  0
 22 24  1  0
M  END
$$$$
