LSK.pdb
     RDKit          3D

 24 23  0  0  1  0  0  0  0  0999 V2000
    9.7710  -13.4344   18.2360 C   0  0  0  0  0  0  0  0  0  0  0  0
    8.3014  -13.7194   18.4452 C   0  0  2  0  0  0  0  0  0  0  0  0
    7.5174  -12.4519   18.3445 C   0  0  0  0  0  0  0  0  0  0  0  0
    8.0660  -14.4532   19.7401 C   0  0  0  0  0  0  0  0  0  0  0  0
    8.8000  -15.7738   19.6929 C   0  0  2  0  0  0  0  0  0  0  0  0
    8.1520  -16.6632   18.7460 N   0  0  0  0  0  0  0  0  0  0  0  0
    8.7941  -16.4362   21.0373 C   0  0  0  0  0  0  0  0  0  0  0  0
    7.7236  -16.7940   21.5979 O   0  0  0  0  0  0  0  0  0  0  0  0
   12.4294  -17.1528   23.1154 O   0  0  0  0  0  0  0  0  0  0  0  0
   11.2982  -17.9451   23.3080 C   0  0  0  0  0  0  0  0  0  0  0  0
   10.0226  -17.1228   23.1334 C   0  0  2  0  0  0  0  0  0  0  0  0
    9.9982  -16.6944   21.7481 N   0  0  0  0  0  0  0  0  0  0  0  0
    9.9395  -16.0132   24.0804 C   0  0  0  0  0  0  0  0  0  0  0  0
   10.5478  -14.9455   23.8334 O   0  0  0  0  0  0  0  0  0  0  0  0
    9.1903  -16.1075   25.2722 N   0  0  0  0  0  0  0  0  0  0  0  0
    9.1700  -14.9535   26.1737 C   0  0  1  0  0  0  0  0  0  0  0  0
    7.8367  -14.2950   25.9551 C   0  0  0  0  0  0  0  0  0  0  0  0
    7.6630  -13.1286   26.8728 C   0  0  0  0  0  0  0  0  0  0  0  0
    6.3046  -12.4743   26.6861 C   0  0  0  0  0  0  0  0  0  0  0  0
    6.3038  -11.2420   27.5987 C   0  0  0  0  0  0  0  0  0  0  0  0
    5.0029  -10.6036   27.4838 N   0  0  0  0  0  0  0  0  0  0  0  0
    9.3905  -15.4737   27.5241 C   0  0  0  0  0  0  0  0  0  0  0  0
    9.3814  -16.8320   27.7724 O   0  0  0  0  0  0  0  0  0  0  0  0
    9.5960  -14.7274   28.5115 O   0  0  0  0  0  0  0  0  0  0  0  0
  2  1  1  1
  2  4  1  0
  3  2  1  0
  5  4  1  0
  5  6  1  6
  7  5  1  0
  7  8  2  0
 10  9  1  0
 11 10  1  1
 11 12  1  0
 12  7  1  0
 13 14  2  0
 13 11  1  0
 15 13  1  0
 16 15  1  0
 16 17  1  1
 17 18  1  0
 19 18  1  0
 20 21  1  0
 20 19  1  0
 22 16  1  0
 23 22  1  0
 24 22  2  0
M  END
$$$$
