LSK.pdb
     RDKit          3D

 24 23  0  0  1  0  0  0  0  0999 V2000
    9.5410  -13.4083   18.8406 C   0  0  0  0  0  0  0  0  0  0  0  0
    8.1261  -13.5207   19.3606 C   0  0  2  0  0  0  0  0  0  0  0  0
    7.4635  -12.1823   19.3277 C   0  0  0  0  0  0  0  0  0  0  0  0
    8.0948  -14.1571   20.7262 C   0  0  0  0  0  0  0  0  0  0  0  0
    8.7765  -15.5042   20.6523 C   0  0  2  0  0  0  0  0  0  0  0  0
    8.0292  -16.3863   19.7744 N   0  0  0  0  0  0  0  0  0  0  0  0
    8.8475  -16.1416   22.0069 C   0  0  0  0  0  0  0  0  0  0  0  0
    7.8103  -16.4139   22.6691 O   0  0  0  0  0  0  0  0  0  0  0  0
   12.5857  -17.2097   23.7020 O   0  0  0  0  0  0  0  0  0  0  0  0
   11.4272  -17.9560   23.9160 C   0  0  0  0  0  0  0  0  0  0  0  0
   10.1953  -17.0528   23.9376 C   0  0  2  0  0  0  0  0  0  0  0  0
   10.0906  -16.4714   22.6131 N   0  0  0  0  0  0  0  0  0  0  0  0
   10.2543  -16.0532   25.0018 C   0  0  0  0  0  0  0  0  0  0  0  0
   10.9217  -15.0067   24.8278 O   0  0  0  0  0  0  0  0  0  0  0  0
    9.5783  -16.2314   26.2273 N   0  0  0  0  0  0  0  0  0  0  0  0
    9.7004  -15.1870   27.2468 C   0  0  1  0  0  0  0  0  0  0  0  0
    8.2994  -14.7051   27.4995 C   0  0  0  0  0  0  0  0  0  0  0  0
    8.1140  -13.3153   26.9828 C   0  0  0  0  0  0  0  0  0  0  0  0
    6.6997  -12.8173   27.2277 C   0  0  0  0  0  0  0  0  0  0  0  0
    6.6495  -11.3972   26.6513 C   0  0  0  0  0  0  0  0  0  0  0  0
    5.3282  -10.8539   26.9201 N   0  0  0  0  0  0  0  0  0  0  0  0
   10.3617  -15.8022   28.3987 C   0  0  0  0  0  0  0  0  0  0  0  0
   10.9049  -15.0266   29.4038 O   0  0  0  0  0  0  0  0  0  0  0  0
   10.4692  -17.0450   28.5331 O   0  0  0  0  0  0  0  0  0  0  0  0
  2  1  1  1
  2  4  1  0
  3  2  1  0
  5  4  1  0
  5  6  1  6
  7  5  1  0
  7  8  2  0
 10  9  1  0
 11 10  1  6
 11 12  1  0
 12  7  1  0
 13 14  2  0
 13 11  1  0
 15 13  1  0
 16 15  1  0
 16 17  1  1
 17 18  1  0
 19 18  1  0
 20 21  1  0
 20 19  1  0
 22 16  1  0
 23 22  1  0
 24 22  2  0
M  END
$$$$
