LSK.pdb
     RDKit          3D

 24 23  0  0  1  0  0  0  0  0999 V2000
    7.1262  -12.6705   26.8304 C   0  0  0  0  0  0  0  0  0  0  0  0
    7.4895  -13.1293   25.4367 C   0  0  2  0  0  0  0  0  0  0  0  0
    8.1638  -12.0215   24.6954 C   0  0  0  0  0  0  0  0  0  0  0  0
    6.2870  -13.6742   24.7100 C   0  0  0  0  0  0  0  0  0  0  0  0
    6.7167  -14.1425   23.3386 C   0  0  2  0  0  0  0  0  0  0  0  0
    5.5625  -14.6163   22.5965 N   0  0  0  0  0  0  0  0  0  0  0  0
    7.7008  -15.2681   23.4428 C   0  0  0  0  0  0  0  0  0  0  0  0
    7.5144  -16.2451   24.2168 O   0  0  0  0  0  0  0  0  0  0  0  0
   11.4763  -15.1871   21.4401 O   0  0  0  0  0  0  0  0  0  0  0  0
   10.6234  -16.2880   21.3664 C   0  0  0  0  0  0  0  0  0  0  0  0
    9.7993  -16.4235   22.6455 C   0  0  2  0  0  0  0  0  0  0  0  0
    8.8956  -15.2896   22.6724 N   0  0  0  0  0  0  0  0  0  0  0  0
   10.6347  -16.5220   23.8403 C   0  0  0  0  0  0  0  0  0  0  0  0
   10.8906  -15.4875   24.5001 O   0  0  0  0  0  0  0  0  0  0  0  0
   11.1656  -17.7541   24.2767 N   0  0  0  0  0  0  0  0  0  0  0  0
   12.0070  -17.7630   25.4754 C   0  0  1  0  0  0  0  0  0  0  0  0
   11.3816  -18.7704   26.3991 C   0  0  0  0  0  0  0  0  0  0  0  0
   12.0972  -18.8054   27.7104 C   0  0  0  0  0  0  0  0  0  0  0  0
   11.6213  -19.9639   28.5704 C   0  0  0  0  0  0  0  0  0  0  0  0
   12.5334  -19.9735   29.8030 C   0  0  0  0  0  0  0  0  0  0  0  0
   12.1744  -21.1254   30.6138 N   0  0  0  0  0  0  0  0  0  0  0  0
   13.3637  -18.0872   25.0317 C   0  0  0  0  0  0  0  0  0  0  0  0
   14.4044  -17.1995   25.2217 O   0  0  0  0  0  0  0  0  0  0  0  0
   13.6498  -19.1693   24.4648 O   0  0  0  0  0  0  0  0  0  0  0  0
  2  1  1  1
  2  4  1  0
  3  2  1  0
  5  4  1  0
  5  6  1  6
  7  5  1  0
  7  8  2  0
 10  9  1  0
 11 10  1  6
 11 12  1  0
 12  7  1  0
 13 14  2  0
 13 11  1  0
 15 13  1  0
 16 15  1  0
 16 17  1  1
 17 18  1  0
 19 18  1  0
 20 21  1  0
 20 19  1  0
 22 16  1  0
 23 22  1  0
 24 22  2  0
M  END
$$$$
