LSK.pdb
     RDKit          3D

 24 23  0  0  1  0  0  0  0  0999 V2000
    7.2464  -12.8979   21.7784 C   0  0  0  0  0  0  0  0  0  0  0  0
    8.0090  -13.6802   20.7338 C   0  0  2  0  0  0  0  0  0  0  0  0
    8.6547  -12.7430   19.7663 C   0  0  0  0  0  0  0  0  0  0  0  0
    7.1260  -14.6999   20.0620 C   0  0  0  0  0  0  0  0  0  0  0  0
    7.9954  -15.6615   19.2846 C   0  0  2  0  0  0  0  0  0  0  0  0
    7.1624  -16.6263   18.5898 N   0  0  0  0  0  0  0  0  0  0  0  0
    8.9146  -16.4106   20.2012 C   0  0  0  0  0  0  0  0  0  0  0  0
    8.4774  -17.1439   21.1283 O   0  0  0  0  0  0  0  0  0  0  0  0
   13.1357  -15.8067   20.2006 O   0  0  0  0  0  0  0  0  0  0  0  0
   12.5890  -17.0877   20.1318 C   0  0  0  0  0  0  0  0  0  0  0  0
   11.2420  -17.1430   20.8503 C   0  0  2  0  0  0  0  0  0  0  0  0
   10.3282  -16.3309   20.0701 N   0  0  0  0  0  0  0  0  0  0  0  0
   11.3363  -16.7229   22.2466 C   0  0  0  0  0  0  0  0  0  0  0  0
   11.2611  -15.5043   22.5298 O   0  0  0  0  0  0  0  0  0  0  0  0
   11.5104  -17.6534   23.2927 N   0  0  0  0  0  0  0  0  0  0  0  0
   11.6381  -17.1458   24.6606 C   0  0  1  0  0  0  0  0  0  0  0  0
   11.1470  -18.2543   25.5490 C   0  0  0  0  0  0  0  0  0  0  0  0
    9.6761  -18.1353   25.7837 C   0  0  0  0  0  0  0  0  0  0  0  0
    9.1801  -19.2038   26.7431 C   0  0  0  0  0  0  0  0  0  0  0  0
    7.6493  -19.1195   26.7094 C   0  0  0  0  0  0  0  0  0  0  0  0
    7.1289  -20.0894   27.6591 N   0  0  0  0  0  0  0  0  0  0  0  0
   13.0443  -16.7824   24.8423 C   0  0  0  0  0  0  0  0  0  0  0  0
   13.4240  -15.8750   25.8115 O   0  0  0  0  0  0  0  0  0  0  0  0
   13.9645  -17.2666   24.1402 O   0  0  0  0  0  0  0  0  0  0  0  0
  2  1  1  1
  2  4  1  0
  3  2  1  0
  5  4  1  0
  5  6  1  1
  7  5  1  0
  7  8  2  0
 10  9  1  0
 11 10  1  6
 11 12  1  0
 12  7  1  0
 13 14  2  0
 13 11  1  0
 15 13  1  0
 16 15  1  0
 16 17  1  1
 17 18  1  0
 19 18  1  0
 20 21  1  0
 20 19  1  0
 22 16  1  0
 23 22  1  0
 24 22  2  0
M  END
$$$$
