LSK.pdb
     RDKit          3D

 24 23  0  0  1  0  0  0  0  0999 V2000
    6.3182  -11.8972   24.8691 C   0  0  0  0  0  0  0  0  0  0  0  0
    6.5831  -12.6579   26.1482 C   0  0  2  0  0  0  0  0  0  0  0  0
    7.0835  -11.7244   27.2016 C   0  0  0  0  0  0  0  0  0  0  0  0
    7.5086  -13.8229   25.9095 C   0  0  0  0  0  0  0  0  0  0  0  0
    6.8373  -14.7937   24.9651 C   0  0  2  0  0  0  0  0  0  0  0  0
    5.6891  -15.3985   25.6156 N   0  0  0  0  0  0  0  0  0  0  0  0
    7.7799  -15.8883   24.5657 C   0  0  0  0  0  0  0  0  0  0  0  0
    7.9199  -16.9315   25.2590 O   0  0  0  0  0  0  0  0  0  0  0  0
   10.5483  -15.3422   21.4031 O   0  0  0  0  0  0  0  0  0  0  0  0
    9.8625  -16.5502   21.5265 C   0  0  0  0  0  0  0  0  0  0  0  0
    9.5111  -16.8288   22.9869 C   0  0  2  0  0  0  0  0  0  0  0  0
    8.5642  -15.8042   23.3828 N   0  0  0  0  0  0  0  0  0  0  0  0
   10.6925  -16.8830   23.8450 C   0  0  0  0  0  0  0  0  0  0  0  0
   11.1101  -15.8322   24.3856 O   0  0  0  0  0  0  0  0  0  0  0  0
   11.3820  -18.0903   24.0852 N   0  0  0  0  0  0  0  0  0  0  0  0
   12.4808  -18.0824   25.0536 C   0  0  1  0  0  0  0  0  0  0  0  0
   12.3659  -19.3798   25.8037 C   0  0  0  0  0  0  0  0  0  0  0  0
   12.1721  -19.1336   27.2648 C   0  0  0  0  0  0  0  0  0  0  0  0
   12.0179  -20.4368   28.0304 C   0  0  0  0  0  0  0  0  0  0  0  0
   11.9609  -20.0481   29.5127 C   0  0  0  0  0  0  0  0  0  0  0  0
   11.6591  -21.2476   30.2764 N   0  0  0  0  0  0  0  0  0  0  0  0
   13.7152  -17.9183   24.2841 C   0  0  0  0  0  0  0  0  0  0  0  0
   13.6862  -17.8202   22.9070 O   0  0  0  0  0  0  0  0  0  0  0  0
   14.8462  -17.8591   24.8240 O   0  0  0  0  0  0  0  0  0  0  0  0
  2  1  1  6
  2  4  1  0
  3  2  1  0
  5  4  1  0
  5  6  1  1
  7  5  1  0
  7  8  2  0
 10  9  1  0
 11 10  1  6
 11 12  1  0
 12  7  1  0
 13 14  2  0
 13 11  1  0
 15 13  1  0
 16 15  1  0
 16 17  1  6
 17 18  1  0
 19 18  1  0
 20 21  1  0
 20 19  1  0
 22 16  1  0
 23 22  1  0
 24 22  2  0
M  END
$$$$
