LSK.pdb
     RDKit          3D

 24 23  0  0  1  0  0  0  0  0999 V2000
    9.4369  -12.2715   19.0335 C   0  0  0  0  0  0  0  0  0  0  0  0
    8.3371  -13.2589   18.7167 C   0  0  2  0  0  0  0  0  0  0  0  0
    7.0388  -12.5391   18.5499 C   0  0  0  0  0  0  0  0  0  0  0  0
    8.2718  -14.3541   19.7498 C   0  0  0  0  0  0  0  0  0  0  0  0
    9.6628  -14.9049   19.9653 C   0  0  2  0  0  0  0  0  0  0  0  0
   10.0767  -15.6658   18.8004 N   0  0  0  0  0  0  0  0  0  0  0  0
    9.6983  -15.8147   21.1559 C   0  0  0  0  0  0  0  0  0  0  0  0
    9.2905  -15.4435   22.2891 O   0  0  0  0  0  0  0  0  0  0  0  0
   11.9551  -19.3242   21.1355 O   0  0  0  0  0  0  0  0  0  0  0  0
   10.6552  -19.4144   21.6323 C   0  0  0  0  0  0  0  0  0  0  0  0
   10.1894  -18.0679   22.1835 C   0  0  2  0  0  0  0  0  0  0  0  0
   10.1945  -17.1441   21.0656 N   0  0  0  0  0  0  0  0  0  0  0  0
   11.0030  -17.6137   23.3090 C   0  0  0  0  0  0  0  0  0  0  0  0
   12.0825  -17.0167   23.0876 O   0  0  0  0  0  0  0  0  0  0  0  0
   10.6077  -17.8280   24.6463 N   0  0  0  0  0  0  0  0  0  0  0  0
   11.4193  -17.2395   25.7140 C   0  0  1  0  0  0  0  0  0  0  0  0
   10.4394  -16.6132   26.6662 C   0  0  0  0  0  0  0  0  0  0  0  0
   11.1322  -16.1242   27.8965 C   0  0  0  0  0  0  0  0  0  0  0  0
   10.1482  -15.5173   28.8822 C   0  0  0  0  0  0  0  0  0  0  0  0
   10.9712  -15.1466   30.1218 C   0  0  0  0  0  0  0  0  0  0  0  0
   10.0809  -14.4964   31.0694 N   0  0  0  0  0  0  0  0  0  0  0  0
   12.2222  -18.3265   26.2765 C   0  0  0  0  0  0  0  0  0  0  0  0
   11.7857  -19.6353   26.2191 O   0  0  0  0  0  0  0  0  0  0  0  0
   13.3305  -18.1318   26.8315 O   0  0  0  0  0  0  0  0  0  0  0  0
  2  1  1  1
  2  4  1  0
  3  2  1  0
  5  4  1  0
  5  6  1  6
  7  5  1  0
  7  8  2  0
 10  9  1  0
 11 10  1  6
 11 12  1  0
 12  7  1  0
 13 14  2  0
 13 11  1  0
 15 13  1  0
 16 15  1  0
 16 17  1  1
 17 18  1  0
 19 18  1  0
 20 21  1  0
 20 19  1  0
 22 16  1  0
 23 22  1  0
 24 22  2  0
M  END
$$$$
