WSS.pdb
     RDKit          3D

 27 28  0  0  1  0  0  0  0  0999 V2000
    6.6814  -17.8373   24.6077 N   0  0  0  0  0  0  0  0  0  0  0  0
    7.1341  -16.6912   23.8874 C   0  0  1  0  0  0  0  0  0  0  0  0
    8.0215  -15.7940   24.7117 C   0  0  0  0  0  0  0  0  0  0  0  0
    7.1876  -14.8713   25.5163 C   0  0  0  0  0  0  0  0  0  0  0  0
    6.0801  -15.1777   26.2759 C   0  0  0  0  0  0  0  0  0  0  0  0
    5.5959  -14.0728   26.8598 N   0  0  0  0  0  0  0  0  0  0  0  0
    6.3808  -13.0483   26.4857 C   0  0  0  0  0  0  0  0  0  0  0  0
    6.3150  -11.7092   26.8070 C   0  0  0  0  0  0  0  0  0  0  0  0
    7.2518  -10.8454   26.2876 C   0  0  0  0  0  0  0  0  0  0  0  0
    8.2470  -11.3028   25.4562 C   0  0  0  0  0  0  0  0  0  0  0  0
    8.3051  -12.6353   25.1419 C   0  0  0  0  0  0  0  0  0  0  0  0
    7.3730  -13.5122   25.6550 C   0  0  0  0  0  0  0  0  0  0  0  0
    7.7557  -17.1094   22.6248 C   0  0  0  0  0  0  0  0  0  0  0  0
    8.3785  -18.2017   22.4802 O   0  0  0  0  0  0  0  0  0  0  0  0
    8.5983  -14.3759   19.4258 O   0  0  0  0  0  0  0  0  0  0  0  0
    7.9690  -15.5870   19.2325 C   0  0  0  0  0  0  0  0  0  0  0  0
    8.4001  -16.6029   20.2731 C   0  0  2  0  0  0  0  0  0  0  0  0
    7.6708  -16.2667   21.4903 N   0  0  0  0  0  0  0  0  0  0  0  0
    9.8381  -16.5265   20.5655 C   0  0  0  0  0  0  0  0  0  0  0  0
   10.3178  -15.5822   21.2183 O   0  0  0  0  0  0  0  0  0  0  0  0
   11.8800  -19.8172   20.7019 O   0  0  0  0  0  0  0  0  0  0  0  0
   12.5041  -18.6836   21.1605 C   0  0  0  0  0  0  0  0  0  0  0  0
   12.1390  -17.5058   20.2702 C   0  0  2  0  0  0  0  0  0  0  0  0
   10.7033  -17.5410   20.1009 N   0  0  0  0  0  0  0  0  0  0  0  0
   12.8823  -17.6401   19.0240 C   0  0  0  0  0  0  0  0  0  0  0  0
   14.1341  -17.6284   18.9957 O   0  0  0  0  0  0  0  0  0  0  0  0
   12.2036  -17.7851   17.8291 O   0  0  0  0  0  0  0  0  0  0  0  0
  2  1  1  1
  3  2  1  0
  4  3  1  0
  5  4  2  0
  6  5  1  0
  7  6  1  0
  7 12  2  0
  8  7  1  0
  9  8  2  0
  9 10  1  0
 10 11  2  0
 11 12  1  0
 12  4  1  0
 13 14  2  0
 13  2  1  0
 16 15  1  0
 17 18  1  0
 17 16  1  6
 18 13  1  0
 19 17  1  0
 20 19  2  0
 22 21  1  0
 23 22  1  1
 23 24  1  0
 24 19  1  0
 25 23  1  0
 26 25  2  0
 27 25  1  0
M  END
$$$$
