WSS.pdb
     RDKit          3D

 27 28  0  0  1  0  0  0  0  0999 V2000
    6.9648  -17.4184   25.0302 N   0  0  0  0  0  0  0  0  0  0  0  0
    7.3795  -16.3529   24.1758 C   0  0  1  0  0  0  0  0  0  0  0  0
    8.4430  -15.4840   24.7969 C   0  0  0  0  0  0  0  0  0  0  0  0
    7.8621  -14.7103   25.9186 C   0  0  0  0  0  0  0  0  0  0  0  0
    7.4683  -15.1777   27.1531 C   0  0  0  0  0  0  0  0  0  0  0  0
    6.9916  -14.1727   27.9009 N   0  0  0  0  0  0  0  0  0  0  0  0
    7.0724  -13.0535   27.1616 C   0  0  0  0  0  0  0  0  0  0  0  0
    6.7156  -11.7564   27.4632 C   0  0  0  0  0  0  0  0  0  0  0  0
    6.9001  -10.7709   26.5207 C   0  0  0  0  0  0  0  0  0  0  0  0
    7.4342  -11.0662   25.2884 C   0  0  0  0  0  0  0  0  0  0  0  0
    7.7862  -12.3580   24.9969 C   0  0  0  0  0  0  0  0  0  0  0  0
    7.6067  -13.3556   25.9316 C   0  0  0  0  0  0  0  0  0  0  0  0
    7.7691  -16.8877   22.8652 C   0  0  0  0  0  0  0  0  0  0  0  0
    8.4194  -17.9630   22.7140 O   0  0  0  0  0  0  0  0  0  0  0  0
    7.9978  -14.5888   19.1799 O   0  0  0  0  0  0  0  0  0  0  0  0
    7.2483  -15.7313   19.3617 C   0  0  0  0  0  0  0  0  0  0  0  0
    7.8840  -16.6484   20.3889 C   0  0  2  0  0  0  0  0  0  0  0  0
    7.4127  -16.1852   21.6888 N   0  0  0  0  0  0  0  0  0  0  0  0
    9.3512  -16.5663   20.3783 C   0  0  0  0  0  0  0  0  0  0  0  0
    9.9594  -15.7394   21.0814 O   0  0  0  0  0  0  0  0  0  0  0  0
   11.6502  -19.2905   20.9769 O   0  0  0  0  0  0  0  0  0  0  0  0
   12.0299  -17.9784   20.8391 C   0  0  0  0  0  0  0  0  0  0  0  0
   11.5418  -17.4449   19.5012 C   0  0  2  0  0  0  0  0  0  0  0  0
   10.0968  -17.4396   19.5569 N   0  0  0  0  0  0  0  0  0  0  0  0
   12.0875  -18.2983   18.4536 C   0  0  0  0  0  0  0  0  0  0  0  0
   11.3502  -18.9663   17.6932 O   0  0  0  0  0  0  0  0  0  0  0  0
   13.4555  -18.3859   18.2790 O   0  0  0  0  0  0  0  0  0  0  0  0
  2  1  1  1
  3  2  1  0
  4  3  1  0
  5  4  2  0
  6  5  1  0
  7  6  1  0
  7 12  2  0
  8  7  1  0
  9  8  2  0
  9 10  1  0
 10 11  2  0
 11 12  1  0
 12  4  1  0
 13 14  2  0
 13  2  1  0
 16 15  1  0
 17 18  1  0
 17 16  1  6
 18 13  1  0
 19 17  1  0
 20 19  2  0
 22 21  1  0
 23 22  1  1
 23 24  1  0
 24 19  1  0
 25 23  1  0
 26 25  2  0
 27 25  1  0
M  END
$$$$
