WSS.pdb
     RDKit          3D

 27 28  0  0  1  0  0  0  0  0999 V2000
    6.6466  -17.7566   24.6253 N   0  0  0  0  0  0  0  0  0  0  0  0
    7.4048  -16.7473   23.9592 C   0  0  1  0  0  0  0  0  0  0  0  0
    8.1391  -15.8406   24.9134 C   0  0  0  0  0  0  0  0  0  0  0  0
    7.1713  -14.9631   25.6116 C   0  0  0  0  0  0  0  0  0  0  0  0
    6.0137  -15.3304   26.2617 C   0  0  0  0  0  0  0  0  0  0  0  0
    5.4040  -14.2515   26.7719 N   0  0  0  0  0  0  0  0  0  0  0  0
    6.1568  -13.1835   26.4586 C   0  0  0  0  0  0  0  0  0  0  0  0
    5.9746  -11.8473   26.7452 C   0  0  0  0  0  0  0  0  0  0  0  0
    6.9031  -10.9317   26.3059 C   0  0  0  0  0  0  0  0  0  0  0  0
    8.0045  -11.3348   25.5881 C   0  0  0  0  0  0  0  0  0  0  0  0
    8.1781  -12.6648   25.3077 C   0  0  0  0  0  0  0  0  0  0  0  0
    7.2557  -13.5932   25.7415 C   0  0  0  0  0  0  0  0  0  0  0  0
    8.2869  -17.3640   22.9607 C   0  0  0  0  0  0  0  0  0  0  0  0
    9.0431  -18.3483   23.2085 O   0  0  0  0  0  0  0  0  0  0  0  0
    8.9392  -15.3109   19.4721 O   0  0  0  0  0  0  0  0  0  0  0  0
    8.9713  -16.6846   19.3627 C   0  0  0  0  0  0  0  0  0  0  0  0
    9.3109  -17.3341   20.6907 C   0  0  2  0  0  0  0  0  0  0  0  0
    8.3152  -16.8524   21.6408 N   0  0  0  0  0  0  0  0  0  0  0  0
   10.6392  -16.9408   21.1809 C   0  0  0  0  0  0  0  0  0  0  0  0
   10.8943  -15.7623   21.4875 O   0  0  0  0  0  0  0  0  0  0  0  0
   12.9274  -19.7276   22.6727 O   0  0  0  0  0  0  0  0  0  0  0  0
   13.3831  -18.4462   22.8603 C   0  0  0  0  0  0  0  0  0  0  0  0
   13.0244  -17.5961   21.6513 C   0  0  2  0  0  0  0  0  0  0  0  0
   11.6550  -17.9126   21.3111 N   0  0  0  0  0  0  0  0  0  0  0  0
   13.9791  -17.8988   20.5928 C   0  0  0  0  0  0  0  0  0  0  0  0
   13.6153  -18.3497   19.4827 O   0  0  0  0  0  0  0  0  0  0  0  0
   15.3288  -17.6888   20.8014 O   0  0  0  0  0  0  0  0  0  0  0  0
  2  1  1  1
  3  2  1  0
  4  3  1  0
  5  4  2  0
  6  5  1  0
  7  6  1  0
  7 12  2  0
  8  7  1  0
  9  8  2  0
  9 10  1  0
 10 11  2  0
 11 12  1  0
 12  4  1  0
 13 14  2  0
 13  2  1  0
 16 15  1  0
 17 18  1  0
 17 16  1  6
 18 13  1  0
 19 17  1  0
 20 19  2  0
 22 21  1  0
 23 22  1  1
 23 24  1  0
 24 19  1  0
 25 23  1  0
 26 25  2  0
 27 25  1  0
M  END
$$$$
