WSS.pdb
     RDKit          3D

 27 28  0  0  1  0  0  0  0  0999 V2000
    6.4538  -17.6452   24.4033 N   0  0  0  0  0  0  0  0  0  0  0  0
    7.3625  -16.6935   23.8505 C   0  0  1  0  0  0  0  0  0  0  0  0
    8.1998  -16.0058   24.8983 C   0  0  0  0  0  0  0  0  0  0  0  0
    7.3679  -15.0295   25.6393 C   0  0  0  0  0  0  0  0  0  0  0  0
    6.3243  -15.2896   26.5000 C   0  0  0  0  0  0  0  0  0  0  0  0
    5.8185  -14.1442   26.9779 N   0  0  0  0  0  0  0  0  0  0  0  0
    6.5258  -13.1393   26.4343 C   0  0  0  0  0  0  0  0  0  0  0  0
    6.4096  -11.7752   26.5971 C   0  0  0  0  0  0  0  0  0  0  0  0
    7.2681  -10.9406   25.9189 C   0  0  0  0  0  0  0  0  0  0  0  0
    8.2352  -11.4516   25.0855 C   0  0  0  0  0  0  0  0  0  0  0  0
    8.3438  -12.8087   24.9294 C   0  0  0  0  0  0  0  0  0  0  0  0
    7.4903  -13.6568   25.6026 C   0  0  0  0  0  0  0  0  0  0  0  0
    8.1671  -17.3255   22.7976 C   0  0  0  0  0  0  0  0  0  0  0  0
    8.6483  -18.4925   22.8909 O   0  0  0  0  0  0  0  0  0  0  0  0
    9.5401  -15.0288   19.5566 O   0  0  0  0  0  0  0  0  0  0  0  0
    9.1749  -16.3433   19.3597 C   0  0  0  0  0  0  0  0  0  0  0  0
    9.3674  -17.1625   20.6216 C   0  0  2  0  0  0  0  0  0  0  0  0
    8.4361  -16.6166   21.6020 N   0  0  0  0  0  0  0  0  0  0  0  0
   10.7274  -17.0399   21.1646 C   0  0  0  0  0  0  0  0  0  0  0  0
   10.9945  -16.2255   22.0665 O   0  0  0  0  0  0  0  0  0  0  0  0
   12.7627  -19.8210   22.1770 O   0  0  0  0  0  0  0  0  0  0  0  0
   13.2619  -18.5571   22.3716 C   0  0  0  0  0  0  0  0  0  0  0  0
   13.1396  -17.7574   21.0837 C   0  0  2  0  0  0  0  0  0  0  0  0
   11.7608  -17.8589   20.6598 N   0  0  0  0  0  0  0  0  0  0  0  0
   14.0919  -18.3042   20.1257 C   0  0  0  0  0  0  0  0  0  0  0  0
   13.7212  -18.8372   19.0550 O   0  0  0  0  0  0  0  0  0  0  0  0
   15.4469  -18.2422   20.3891 O   0  0  0  0  0  0  0  0  0  0  0  0
  2  1  1  1
  3  2  1  0
  4  3  1  0
  5  4  2  0
  6  5  1  0
  7  6  1  0
  7 12  2  0
  8  7  1  0
  9  8  2  0
  9 10  1  0
 10 11  2  0
 11 12  1  0
 12  4  1  0
 13 14  2  0
 13  2  1  0
 16 15  1  0
 17 18  1  0
 17 16  1  6
 18 13  1  0
 19 17  1  0
 20 19  2  0
 22 21  1  0
 23 22  1  1
 23 24  1  0
 24 19  1  0
 25 23  1  0
 26 25  2  0
 27 25  1  0
M  END
$$$$
