WSS.pdb
     RDKit          3D

 27 28  0  0  1  0  0  0  0  0999 V2000
    6.2680  -17.5537   24.4927 N   0  0  0  0  0  0  0  0  0  0  0  0
    7.1272  -16.5588   23.9365 C   0  0  1  0  0  0  0  0  0  0  0  0
    8.0115  -15.9056   24.9677 C   0  0  0  0  0  0  0  0  0  0  0  0
    7.2304  -14.9061   25.7328 C   0  0  0  0  0  0  0  0  0  0  0  0
    6.1310  -15.1254   26.5331 C   0  0  0  0  0  0  0  0  0  0  0  0
    5.7006  -13.9704   27.0594 N   0  0  0  0  0  0  0  0  0  0  0  0
    6.5126  -12.9999   26.6073 C   0  0  0  0  0  0  0  0  0  0  0  0
    6.5024  -11.6425   26.8483 C   0  0  0  0  0  0  0  0  0  0  0  0
    7.4569  -10.8466   26.2576 C   0  0  0  0  0  0  0  0  0  0  0  0
    8.4151  -11.3894   25.4342 C   0  0  0  0  0  0  0  0  0  0  0  0
    8.4181  -12.7395   25.1999 C   0  0  0  0  0  0  0  0  0  0  0  0
    7.4676  -13.5491   25.7850 C   0  0  0  0  0  0  0  0  0  0  0  0
    7.8805  -17.1238   22.8102 C   0  0  0  0  0  0  0  0  0  0  0  0
    8.4732  -18.2412   22.8558 O   0  0  0  0  0  0  0  0  0  0  0  0
    9.0664  -14.6963   19.5286 O   0  0  0  0  0  0  0  0  0  0  0  0
    8.5800  -15.9721   19.3391 C   0  0  0  0  0  0  0  0  0  0  0  0
    8.8670  -16.8538   20.5395 C   0  0  2  0  0  0  0  0  0  0  0  0
    7.9667  -16.4035   21.5944 N   0  0  0  0  0  0  0  0  0  0  0  0
   10.2472  -16.7075   21.0223 C   0  0  0  0  0  0  0  0  0  0  0  0
   10.5811  -15.7576   21.7531 O   0  0  0  0  0  0  0  0  0  0  0  0
   12.4229  -19.8998   21.1541 O   0  0  0  0  0  0  0  0  0  0  0  0
   12.9821  -18.8105   21.7749 C   0  0  0  0  0  0  0  0  0  0  0  0
   12.6210  -17.5470   21.0091 C   0  0  2  0  0  0  0  0  0  0  0  0
   11.2233  -17.6593   20.6556 N   0  0  0  0  0  0  0  0  0  0  0  0
   13.5129  -17.4499   19.8608 C   0  0  0  0  0  0  0  0  0  0  0  0
   13.0800  -17.4375   18.6859 O   0  0  0  0  0  0  0  0  0  0  0  0
   14.8787  -17.3685   20.0541 O   0  0  0  0  0  0  0  0  0  0  0  0
  2  1  1  1
  3  2  1  0
  4  3  1  0
  5  4  2  0
  6  5  1  0
  7  6  1  0
  7 12  2  0
  8  7  1  0
  9  8  2  0
  9 10  1  0
 10 11  2  0
 11 12  1  0
 12  4  1  0
 13 14  2  0
 13  2  1  0
 16 15  1  0
 17 18  1  0
 17 16  1  6
 18 13  1  0
 19 17  1  0
 20 19  2  0
 22 21  1  0
 23 22  1  6
 23 24  1  0
 24 19  1  0
 25 23  1  0
 26 25  2  0
 27 25  1  0
M  END
$$$$
