WSS.pdb
     RDKit          3D

 27 28  0  0  1  0  0  0  0  0999 V2000
    6.5795  -17.3691   24.4717 N   0  0  0  0  0  0  0  0  0  0  0  0
    7.0785  -16.2190   23.7893 C   0  0  1  0  0  0  0  0  0  0  0  0
    8.0527  -15.4224   24.6189 C   0  0  0  0  0  0  0  0  0  0  0  0
    7.3136  -14.6150   25.6171 C   0  0  0  0  0  0  0  0  0  0  0  0
    6.3916  -15.0524   26.5424 C   0  0  0  0  0  0  0  0  0  0  0  0
    5.9406  -14.0229   27.2725 N   0  0  0  0  0  0  0  0  0  0  0  0
    6.5627  -12.9176   26.8289 C   0  0  0  0  0  0  0  0  0  0  0  0
    6.4555  -11.6062   27.2407 C   0  0  0  0  0  0  0  0  0  0  0  0
    7.2119  -10.6406   26.6171 C   0  0  0  0  0  0  0  0  0  0  0  0
    8.0687  -10.9696   25.5932 C   0  0  0  0  0  0  0  0  0  0  0  0
    8.1693  -12.2754   25.1900 C   0  0  0  0  0  0  0  0  0  0  0  0
    7.4173  -13.2533   25.8058 C   0  0  0  0  0  0  0  0  0  0  0  0
    7.6239  -16.6114   22.4840 C   0  0  0  0  0  0  0  0  0  0  0  0
    8.2748  -17.6796   22.2906 O   0  0  0  0  0  0  0  0  0  0  0  0
    8.0043  -13.7808   19.3817 O   0  0  0  0  0  0  0  0  0  0  0  0
    7.5687  -15.0577   19.0992 C   0  0  0  0  0  0  0  0  0  0  0  0
    8.1075  -16.0575   20.1045 C   0  0  2  0  0  0  0  0  0  0  0  0
    7.4275  -15.7704   21.3621 N   0  0  0  0  0  0  0  0  0  0  0  0
    9.5531  -15.9073   20.3212 C   0  0  0  0  0  0  0  0  0  0  0  0
   10.0004  -15.2517   21.2794 O   0  0  0  0  0  0  0  0  0  0  0  0
   12.9788  -18.4256   21.1449 O   0  0  0  0  0  0  0  0  0  0  0  0
   11.7179  -18.0125   20.7922 C   0  0  0  0  0  0  0  0  0  0  0  0
   11.8173  -16.8726   19.7904 C   0  0  2  0  0  0  0  0  0  0  0  0
   10.4632  -16.5158   19.4296 N   0  0  0  0  0  0  0  0  0  0  0  0
   12.6239  -17.3332   18.6675 C   0  0  0  0  0  0  0  0  0  0  0  0
   12.1567  -18.0847   17.7815 O   0  0  0  0  0  0  0  0  0  0  0  0
   13.9443  -16.9401   18.5604 O   0  0  0  0  0  0  0  0  0  0  0  0
  2  1  1  1
  3  2  1  0
  4  3  1  0
  5  4  2  0
  6  5  1  0
  7  6  1  0
  7 12  2  0
  8  7  1  0
  9  8  2  0
  9 10  1  0
 10 11  2  0
 11 12  1  0
 12  4  1  0
 13 14  2  0
 13  2  1  0
 16 15  1  0
 17 18  1  0
 17 16  1  6
 18 13  1  0
 19 17  1  0
 20 19  2  0
 22 21  1  0
 23 22  1  1
 23 24  1  0
 24 19  1  0
 25 23  1  0
 26 25  2  0
 27 25  1  0
M  END
$$$$
