YEP.pdb
     RDKit          3D

 29 30  0  0  1  0  0  0  0  0999 V2000
    8.6454  -13.9501   14.9219 O   0  0  0  0  0  0  0  0  0  0  0  0
    8.1806  -13.9953   16.2429 C   0  0  0  0  0  0  0  0  0  0  0  0
    8.4925  -13.0319   17.1653 C   0  0  0  0  0  0  0  0  0  0  0  0
    8.0096  -13.1183   18.4611 C   0  0  0  0  0  0  0  0  0  0  0  0
    7.2020  -14.1700   18.8696 C   0  0  0  0  0  0  0  0  0  0  0  0
    6.6767  -14.2747   20.2583 C   0  0  0  0  0  0  0  0  0  0  0  0
    7.8527  -14.5771   21.1530 C   0  0  2  0  0  0  0  0  0  0  0  0
    8.4210  -15.8275   20.7278 N   0  0  0  0  0  0  0  0  0  0  0  0
    7.4349  -14.6968   22.5849 C   0  0  0  0  0  0  0  0  0  0  0  0
    6.9010  -13.7197   23.1702 O   0  0  0  0  0  0  0  0  0  0  0  0
    6.9103  -15.1237   17.9046 C   0  0  0  0  0  0  0  0  0  0  0  0
    7.3872  -15.0428   16.6163 C   0  0  0  0  0  0  0  0  0  0  0  0
    7.6570  -15.9267   23.2482 N   0  0  0  0  0  0  0  0  0  0  0  0
    7.4179  -16.1113   24.6684 C   0  0  1  0  0  0  0  0  0  0  0  0
    7.3471  -17.6096   24.8865 C   0  0  0  0  0  0  0  0  0  0  0  0
    7.0990  -17.8074   26.3791 C   0  0  0  0  0  0  0  0  0  0  0  0
    7.0713  -19.2569   26.7184 C   0  0  0  0  0  0  0  0  0  0  0  0
    6.7985  -20.1226   25.8515 O   0  0  0  0  0  0  0  0  0  0  0  0
    8.4424  -15.4381   25.4857 C   0  0  0  0  0  0  0  0  0  0  0  0
    9.5511  -16.0353   25.7154 O   0  0  0  0  0  0  0  0  0  0  0  0
    7.3480  -19.6836   28.0070 O   0  0  0  0  0  0  0  0  0  0  0  0
    8.3010  -14.1427   26.0565 N   0  0  0  0  0  0  0  0  0  0  0  0
    7.3634  -13.0975   25.7044 C   0  0  0  0  0  0  0  0  0  0  0  0
    6.9754  -12.5664   27.0925 C   0  0  0  0  0  0  0  0  0  0  0  0
    8.4029  -12.3321   27.6225 C   0  0  0  0  0  0  0  0  0  0  0  0
    9.1408  -13.5743   27.1140 C   0  0  1  0  0  0  0  0  0  0  0  0
    9.2932  -14.4833   28.2653 C   0  0  0  0  0  0  0  0  0  0  0  0
    8.5074  -15.4415   28.4031 O   0  0  0  0  0  0  0  0  0  0  0  0
   10.2914  -14.2990   29.2013 O   0  0  0  0  0  0  0  0  0  0  0  0
  2  1  1  0
  2 12  2  0
  3  2  1  0
  4  3  2  0
  4  5  1  0
  5 11  2  0
  6  5  1  0
  7  9  1  0
  7  6  1  0
  7  8  1  6
  9 10  2  0
 11 12  1  0
 13 14  1  0
 13  9  1  0
 14 19  1  0
 15 16  1  0
 14 15  1  6
 16 17  1  0
 17 21  1  0
 17 18  2  0
 19 20  2  0
 22 19  1  0
 22 26  1  0
 23 24  1  0
 23 22  1  0
 25 24  1  0
 25 26  1  0
 26 27  1  1
 27 28  2  0
 27 29  1  0
M  END
$$$$
