YEP.pdb
     RDKit          3D

 29 30  0  0  1  0  0  0  0  0999 V2000
    9.2546  -12.6597   16.3588 O   0  0  0  0  0  0  0  0  0  0  0  0
    8.5719  -13.1266   17.4898 C   0  0  0  0  0  0  0  0  0  0  0  0
    7.4403  -13.8933   17.4009 C   0  0  0  0  0  0  0  0  0  0  0  0
    6.7984  -14.3326   18.5474 C   0  0  0  0  0  0  0  0  0  0  0  0
    7.2702  -14.0173   19.8136 C   0  0  0  0  0  0  0  0  0  0  0  0
    6.5903  -14.4828   21.0530 C   0  0  0  0  0  0  0  0  0  0  0  0
    7.2457  -15.7804   21.4549 C   0  0  2  0  0  0  0  0  0  0  0  0
    6.6468  -16.8352   20.6830 N   0  0  0  0  0  0  0  0  0  0  0  0
    7.0429  -16.0690   22.9092 C   0  0  0  0  0  0  0  0  0  0  0  0
    5.8852  -16.2738   23.3563 O   0  0  0  0  0  0  0  0  0  0  0  0
    8.4184  -13.2391   19.8587 C   0  0  0  0  0  0  0  0  0  0  0  0
    9.0600  -12.8001   18.7232 C   0  0  0  0  0  0  0  0  0  0  0  0
    8.1793  -16.1034   23.7513 N   0  0  0  0  0  0  0  0  0  0  0  0
    8.0916  -16.3061   25.1864 C   0  0  1  0  0  0  0  0  0  0  0  0
    8.5037  -17.7444   25.4288 C   0  0  0  0  0  0  0  0  0  0  0  0
    7.4992  -18.6050   24.6679 C   0  0  0  0  0  0  0  0  0  0  0  0
    7.7865  -20.0515   24.8731 C   0  0  0  0  0  0  0  0  0  0  0  0
    8.8669  -20.5610   24.4876 O   0  0  0  0  0  0  0  0  0  0  0  0
    8.9006  -15.3219   25.9264 C   0  0  0  0  0  0  0  0  0  0  0  0
   10.1620  -15.5077   26.0401 O   0  0  0  0  0  0  0  0  0  0  0  0
    6.8610  -20.8711   25.4982 O   0  0  0  0  0  0  0  0  0  0  0  0
    8.3846  -14.1477   26.5419 N   0  0  0  0  0  0  0  0  0  0  0  0
    7.1365  -13.4633   26.2785 C   0  0  0  0  0  0  0  0  0  0  0  0
    6.6917  -13.0978   27.7026 C   0  0  0  0  0  0  0  0  0  0  0  0
    7.9978  -12.4143   28.1502 C   0  0  0  0  0  0  0  0  0  0  0  0
    9.0634  -13.3439   27.5617 C   0  0  1  0  0  0  0  0  0  0  0  0
    9.5807  -14.1616   28.6747 C   0  0  0  0  0  0  0  0  0  0  0  0
    9.1803  -15.3338   28.8170 O   0  0  0  0  0  0  0  0  0  0  0  0
   10.5038  -13.6584   29.5697 O   0  0  0  0  0  0  0  0  0  0  0  0
  2  1  1  0
  2 12  2  0
  3  2  1  0
  4  3  2  0
  4  5  1  0
  5 11  2  0
  6  5  1  0
  7  9  1  0
  7  6  1  0
  7  8  1  6
  9 10  2  0
 11 12  1  0
 13 14  1  0
 13  9  1  0
 14 19  1  0
 15 16  1  0
 14 15  1  6
 16 17  1  0
 17 21  1  0
 17 18  2  0
 19 20  2  0
 22 19  1  0
 22 26  1  0
 23 24  1  0
 23 22  1  0
 25 24  1  0
 25 26  1  0
 26 27  1  1
 27 28  2  0
 27 29  1  0
M  END
$$$$
