YEP.pdb
     RDKit          3D

 29 30  0  0  1  0  0  0  0  0999 V2000
   10.7894  -15.9997   31.2207 O   0  0  0  0  0  0  0  0  0  0  0  0
   10.5732  -15.5687   29.9051 C   0  0  0  0  0  0  0  0  0  0  0  0
    9.9464  -14.3864   29.6126 C   0  0  0  0  0  0  0  0  0  0  0  0
    9.7544  -14.0010   28.2957 C   0  0  0  0  0  0  0  0  0  0  0  0
   10.1838  -14.7869   27.2359 C   0  0  0  0  0  0  0  0  0  0  0  0
    9.9839  -14.3845   25.8170 C   0  0  0  0  0  0  0  0  0  0  0  0
    8.8220  -15.1889   25.2899 C   0  0  2  0  0  0  0  0  0  0  0  0
    9.1347  -16.5816   25.4625 N   0  0  0  0  0  0  0  0  0  0  0  0
    8.5855  -14.9219   23.8366 C   0  0  0  0  0  0  0  0  0  0  0  0
    7.7082  -14.0933   23.4819 O   0  0  0  0  0  0  0  0  0  0  0  0
   10.8136  -15.9758   27.5761 C   0  0  0  0  0  0  0  0  0  0  0  0
   11.0069  -16.3635   28.8822 C   0  0  0  0  0  0  0  0  0  0  0  0
    9.3697  -15.6219   22.8895 N   0  0  0  0  0  0  0  0  0  0  0  0
    9.9689  -14.9801   21.7331 C   0  0  1  0  0  0  0  0  0  0  0  0
   11.3690  -15.5500   21.6206 C   0  0  0  0  0  0  0  0  0  0  0  0
   12.0278  -14.8232   20.4518 C   0  0  0  0  0  0  0  0  0  0  0  0
   13.4138  -15.3232   20.2376 C   0  0  0  0  0  0  0  0  0  0  0  0
   14.2965  -14.5929   19.7250 O   0  0  0  0  0  0  0  0  0  0  0  0
    9.1511  -15.1659   20.5218 C   0  0  0  0  0  0  0  0  0  0  0  0
    8.9252  -16.3515   20.0953 O   0  0  0  0  0  0  0  0  0  0  0  0
   13.7606  -16.6139   20.6021 O   0  0  0  0  0  0  0  0  0  0  0  0
    8.5730  -14.1093   19.7646 N   0  0  0  0  0  0  0  0  0  0  0  0
    8.5195  -12.6971   20.0784 C   0  0  0  0  0  0  0  0  0  0  0  0
    8.8015  -12.0760   18.7021 C   0  0  0  0  0  0  0  0  0  0  0  0
    7.7277  -12.8476   17.9114 C   0  0  0  0  0  0  0  0  0  0  0  0
    7.8473  -14.2565   18.5004 C   0  0  1  0  0  0  0  0  0  0  0  0
    8.5845  -15.0711   17.5165 C   0  0  0  0  0  0  0  0  0  0  0  0
    9.7967  -15.3039   17.6927 O   0  0  0  0  0  0  0  0  0  0  0  0
    7.9619  -15.5862   16.3969 O   0  0  0  0  0  0  0  0  0  0  0  0
  2  1  1  0
  2 12  2  0
  3  2  1  0
  4  3  2  0
  4  5  1  0
  5 11  2  0
  6  5  1  0
  7  9  1  0
  7  6  1  0
  7  8  1  6
  9 10  2  0
 11 12  1  0
 13 14  1  0
 13  9  1  0
 14 19  1  0
 15 16  1  0
 14 15  1  6
 16 17  1  0
 17 21  1  0
 17 18  2  0
 19 20  2  0
 22 19  1  0
 22 26  1  0
 23 24  1  0
 23 22  1  0
 25 24  1  0
 25 26  1  0
 26 27  1  6
 27 28  2  0
 27 29  1  0
M  END
$$$$
