YEP.pdb
     RDKit          3D

 29 30  0  0  1  0  0  0  0  0999 V2000
    8.1744  -11.9950   21.2235 O   0  0  0  0  0  0  0  0  0  0  0  0
    7.7968  -12.9986   20.3216 C   0  0  0  0  0  0  0  0  0  0  0  0
    6.8804  -13.9657   20.6395 C   0  0  0  0  0  0  0  0  0  0  0  0
    6.5377  -14.9389   19.7147 C   0  0  0  0  0  0  0  0  0  0  0  0
    7.1017  -14.9715   18.4474 C   0  0  0  0  0  0  0  0  0  0  0  0
    6.7423  -16.0111   17.4449 C   0  0  0  0  0  0  0  0  0  0  0  0
    7.7422  -17.1306   17.5926 C   0  0  2  0  0  0  0  0  0  0  0  0
    7.3524  -18.1910   16.7033 N   0  0  0  0  0  0  0  0  0  0  0  0
    7.7706  -17.6583   18.9926 C   0  0  0  0  0  0  0  0  0  0  0  0
    7.1501  -18.7136   19.2818 O   0  0  0  0  0  0  0  0  0  0  0  0
    8.0249  -13.9741   18.1665 C   0  0  0  0  0  0  0  0  0  0  0  0
    8.3690  -13.0052   19.0811 C   0  0  0  0  0  0  0  0  0  0  0  0
    8.5073  -16.9417   19.9651 N   0  0  0  0  0  0  0  0  0  0  0  0
    8.9874  -17.5466   21.1947 C   0  0  1  0  0  0  0  0  0  0  0  0
    9.9450  -18.6429   20.7720 C   0  0  0  0  0  0  0  0  0  0  0  0
   10.3024  -19.4048   22.0448 C   0  0  0  0  0  0  0  0  0  0  0  0
   11.3082  -20.4642   21.7568 C   0  0  0  0  0  0  0  0  0  0  0  0
   11.6309  -21.3085   22.6277 O   0  0  0  0  0  0  0  0  0  0  0  0
    9.5866  -16.5471   22.0961 C   0  0  0  0  0  0  0  0  0  0  0  0
   10.7789  -16.1383   21.8726 O   0  0  0  0  0  0  0  0  0  0  0  0
   11.9133  -20.5409   20.5130 O   0  0  0  0  0  0  0  0  0  0  0  0
    8.9337  -15.9801   23.2256 N   0  0  0  0  0  0  0  0  0  0  0  0
    7.5194  -15.9548   23.5334 C   0  0  0  0  0  0  0  0  0  0  0  0
    7.5389  -16.2336   25.0438 C   0  0  0  0  0  0  0  0  0  0  0  0
    8.5490  -15.1383   25.4357 C   0  0  0  0  0  0  0  0  0  0  0  0
    9.5828  -15.2389   24.3100 C   0  0  1  0  0  0  0  0  0  0  0  0
   10.7499  -15.9515   24.8627 C   0  0  0  0  0  0  0  0  0  0  0  0
   10.8255  -17.1910   24.7512 O   0  0  0  0  0  0  0  0  0  0  0  0
   11.7684  -15.2758   25.5050 O   0  0  0  0  0  0  0  0  0  0  0  0
  2  1  1  0
  2 12  2  0
  3  2  1  0
  4  3  2  0
  4  5  1  0
  5 11  2  0
  6  5  1  0
  7  9  1  0
  7  6  1  0
  7  8  1  6
  9 10  2  0
 11 12  1  0
 13 14  1  0
 13  9  1  0
 14 19  1  0
 15 16  1  0
 14 15  1  6
 16 17  1  0
 17 21  1  0
 17 18  2  0
 19 20  2  0
 22 19  1  0
 22 26  1  0
 23 24  1  0
 23 22  1  0
 25 24  1  0
 25 26  1  0
 26 27  1  1
 27 28  2  0
 27 29  1  0
M  END
$$$$
