DYS.pdb
     RDKit          3D

 27 27  0  0  1  0  0  0  0  0999 V2000
   22.2739   -9.3134  -18.7449 N   0  0  0  0  0  0  0  0  0  0  0  0
   20.9515   -8.6788  -18.6178 C   0  0  1  0  0  0  0  0  0  0  0  0
   20.0339   -9.7333  -18.1057 C   0  0  0  0  0  0  0  0  0  0  0  0
   19.8563  -10.9167  -18.9425 C   0  0  0  0  0  0  0  0  0  0  0  0
   20.0820  -10.9843  -20.1727 O   0  0  0  0  0  0  0  0  0  0  0  0
   21.0614   -7.4738  -17.7661 C   0  0  0  0  0  0  0  0  0  0  0  0
   20.0602   -6.8282  -17.4246 O   0  0  0  0  0  0  0  0  0  0  0  0
   19.3913  -12.1227  -18.3708 O   0  0  0  0  0  0  0  0  0  0  0  0
   20.5317   -9.0668  -11.1392 O   0  0  0  0  0  0  0  0  0  0  0  0
   21.2174   -8.4105  -12.1502 C   0  0  0  0  0  0  0  0  0  0  0  0
   20.9592   -7.0835  -12.4112 C   0  0  0  0  0  0  0  0  0  0  0  0
   21.6384   -6.4460  -13.4076 C   0  0  0  0  0  0  0  0  0  0  0  0
   22.5985   -7.0386  -14.2071 C   0  0  0  0  0  0  0  0  0  0  0  0
   23.3185   -6.3292  -15.2774 C   0  0  0  0  0  0  0  0  0  0  0  0
   22.5154   -5.8780  -16.4277 C   0  0  2  0  0  0  0  0  0  0  0  0
   22.3347   -7.0475  -17.3310 N   0  0  0  0  0  0  0  0  0  0  0  0
   22.9570   -4.7784  -17.2431 C   0  0  0  0  0  0  0  0  0  0  0  0
   23.8011   -5.0150  -18.1842 O   0  0  0  0  0  0  0  0  0  0  0  0
   22.8498   -8.3887  -13.9292 C   0  0  0  0  0  0  0  0  0  0  0  0
   22.1670   -9.0390  -12.9236 C   0  0  0  0  0  0  0  0  0  0  0  0
   21.9246   -1.9359  -20.4318 O   0  0  0  0  0  0  0  0  0  0  0  0
   21.8041   -2.8770  -19.4114 C   0  0  0  0  0  0  0  0  0  0  0  0
   22.7226   -2.4896  -18.2565 C   0  0  2  0  0  0  0  0  0  0  0  0
   22.5630   -3.4078  -17.1448 N   0  0  0  0  0  0  0  0  0  0  0  0
   22.3711   -1.1284  -17.8110 C   0  0  0  0  0  0  0  0  0  0  0  0
   21.4874   -0.9100  -16.7446 O   0  0  0  0  0  0  0  0  0  0  0  0
   22.8591   -0.1412  -18.3815 O   0  0  0  0  0  0  0  0  0  0  0  0
  2  1  1  1
  2  6  1  0
  3  2  1  0
  4  8  1  0
  4  3  1  0
  5  4  2  0
  6 16  1  0
  6  7  2  0
  9 10  1  0
 10 11  2  0
 11 12  1  0
 13 12  2  0
 13 14  1  0
 15 14  1  1
 15 17  1  0
 16 15  1  0
 17 18  2  0
 19 13  1  0
 20 10  1  0
 20 19  2  0
 21 22  1  0
 23 22  1  6
 23 25  1  0
 24 17  1  0
 24 23  1  0
 25 26  1  0
 27 25  2  0
M  END
$$$$
