DYS.pdb
     RDKit          3D

 27 27  0  0  1  0  0  0  0  0999 V2000
   20.0167  -13.9477  -19.3236 N   0  0  0  0  0  0  0  0  0  0  0  0
   20.4472  -12.6131  -19.7724 C   0  0  1  0  0  0  0  0  0  0  0  0
   19.7554  -12.3689  -21.0677 C   0  0  0  0  0  0  0  0  0  0  0  0
   20.0502  -13.2945  -22.1580 C   0  0  0  0  0  0  0  0  0  0  0  0
   19.2091  -13.9769  -22.7870 O   0  0  0  0  0  0  0  0  0  0  0  0
   20.1647  -11.6202  -18.7123 C   0  0  0  0  0  0  0  0  0  0  0  0
   19.0587  -11.5628  -18.1563 O   0  0  0  0  0  0  0  0  0  0  0  0
   21.3844  -13.4794  -22.5863 O   0  0  0  0  0  0  0  0  0  0  0  0
   22.1028   -5.7270  -12.2794 O   0  0  0  0  0  0  0  0  0  0  0  0
   22.0817   -6.7016  -13.2656 C   0  0  0  0  0  0  0  0  0  0  0  0
   21.5221   -7.9329  -13.0079 C   0  0  0  0  0  0  0  0  0  0  0  0
   21.5057   -8.8856  -13.9839 C   0  0  0  0  0  0  0  0  0  0  0  0
   22.0211   -8.7155  -15.2558 C   0  0  0  0  0  0  0  0  0  0  0  0
   21.9919   -9.7599  -16.2931 C   0  0  0  0  0  0  0  0  0  0  0  0
   20.9403   -9.6431  -17.3189 C   0  0  2  0  0  0  0  0  0  0  0  0
   21.1766  -10.7164  -18.3233 N   0  0  0  0  0  0  0  0  0  0  0  0
   20.7600   -8.4156  -18.0465 C   0  0  0  0  0  0  0  0  0  0  0  0
   21.5470   -8.1679  -19.0331 O   0  0  0  0  0  0  0  0  0  0  0  0
   22.5869   -7.4577  -15.5024 C   0  0  0  0  0  0  0  0  0  0  0  0
   22.6067   -6.4904  -14.5205 C   0  0  0  0  0  0  0  0  0  0  0  0
   17.4658   -5.9731  -18.0327 O   0  0  0  0  0  0  0  0  0  0  0  0
   18.3800   -5.8399  -19.0758 C   0  0  0  0  0  0  0  0  0  0  0  0
   19.7811   -6.1581  -18.5626 C   0  0  2  0  0  0  0  0  0  0  0  0
   19.7821   -7.3995  -17.8120 N   0  0  0  0  0  0  0  0  0  0  0  0
   20.2199   -5.0613  -17.6797 C   0  0  0  0  0  0  0  0  0  0  0  0
   20.6981   -3.8489  -18.1968 O   0  0  0  0  0  0  0  0  0  0  0  0
   20.1720   -5.1968  -16.4478 O   0  0  0  0  0  0  0  0  0  0  0  0
  2  1  1  1
  2  6  1  0
  3  2  1  0
  4  8  1  0
  4  3  1  0
  5  4  2  0
  6 16  1  0
  6  7  2  0
  9 10  1  0
 10 11  2  0
 11 12  1  0
 13 12  2  0
 13 14  1  0
 15 14  1  1
 15 17  1  0
 16 15  1  0
 17 18  2  0
 19 13  1  0
 20 10  1  0
 20 19  2  0
 21 22  1  0
 23 22  1  1
 23 25  1  0
 24 17  1  0
 24 23  1  0
 25 26  1  0
 27 25  2  0
M  END
$$$$
