DYS.pdb
     RDKit          3D

 27 27  0  0  1  0  0  0  0  0999 V2000
   23.8472   -8.9521  -19.5728 N   0  0  0  0  0  0  0  0  0  0  0  0
   23.7144   -7.6177  -18.9649 C   0  0  1  0  0  0  0  0  0  0  0  0
   23.7314   -6.6457  -20.0924 C   0  0  0  0  0  0  0  0  0  0  0  0
   24.9550   -6.5775  -20.8864 C   0  0  0  0  0  0  0  0  0  0  0  0
   25.0304   -6.7158  -22.1289 O   0  0  0  0  0  0  0  0  0  0  0  0
   22.5006   -7.5782  -18.1196 C   0  0  0  0  0  0  0  0  0  0  0  0
   21.3868   -7.8815  -18.5703 O   0  0  0  0  0  0  0  0  0  0  0  0
   26.1953   -6.3366  -20.2531 O   0  0  0  0  0  0  0  0  0  0  0  0
   21.9112  -13.5838  -14.8263 O   0  0  0  0  0  0  0  0  0  0  0  0
   21.9115  -12.1982  -14.7695 C   0  0  0  0  0  0  0  0  0  0  0  0
   20.8154  -11.4888  -15.2066 C   0  0  0  0  0  0  0  0  0  0  0  0
   20.8246  -10.1262  -15.1471 C   0  0  0  0  0  0  0  0  0  0  0  0
   21.8775   -9.3683  -14.6685 C   0  0  0  0  0  0  0  0  0  0  0  0
   21.8639   -7.8971  -14.6144 C   0  0  0  0  0  0  0  0  0  0  0  0
   21.4463   -7.1945  -15.8407 C   0  0  2  0  0  0  0  0  0  0  0  0
   22.6109   -7.1864  -16.7681 N   0  0  0  0  0  0  0  0  0  0  0  0
   20.9460   -5.8474  -15.7787 C   0  0  0  0  0  0  0  0  0  0  0  0
   21.6975   -4.9386  -15.2654 O   0  0  0  0  0  0  0  0  0  0  0  0
   22.9851  -10.1044  -14.2276 C   0  0  0  0  0  0  0  0  0  0  0  0
   22.9824  -11.4818  -14.2850 C   0  0  0  0  0  0  0  0  0  0  0  0
   17.6606   -4.3909  -17.7989 O   0  0  0  0  0  0  0  0  0  0  0  0
   18.6635   -3.4931  -17.4391 C   0  0  0  0  0  0  0  0  0  0  0  0
   19.3219   -3.9636  -16.1457 C   0  0  2  0  0  0  0  0  0  0  0  0
   19.6787   -5.3670  -16.2336 N   0  0  0  0  0  0  0  0  0  0  0  0
   18.3678   -3.7780  -15.0366 C   0  0  0  0  0  0  0  0  0  0  0  0
   17.9186   -2.5044  -14.6597 O   0  0  0  0  0  0  0  0  0  0  0  0
   17.9419   -4.7604  -14.4109 O   0  0  0  0  0  0  0  0  0  0  0  0
  2  1  1  6
  2  6  1  0
  3  2  1  0
  4  8  1  0
  4  3  1  0
  5  4  2  0
  6 16  1  0
  6  7  2  0
  9 10  1  0
 10 11  2  0
 11 12  1  0
 13 12  2  0
 13 14  1  0
 15 14  1  1
 15 17  1  0
 16 15  1  0
 17 18  2  0
 19 13  1  0
 20 10  1  0
 20 19  2  0
 21 22  1  0
 23 22  1  6
 23 25  1  0
 24 17  1  0
 24 23  1  0
 25 26  1  0
 27 25  2  0
M  END
$$$$
