DYS.pdb
     RDKit          3D

 27 27  0  0  1  0  0  0  0  0999 V2000
   32.2969    3.6388  -11.2867 N   0  0  0  0  0  0  0  0  0  0  0  0
   32.0008    3.3840   -9.8672 C   0  0  1  0  0  0  0  0  0  0  0  0
   32.8981    4.2819   -9.0895 C   0  0  0  0  0  0  0  0  0  0  0  0
   34.3211    3.9539   -9.0897 C   0  0  0  0  0  0  0  0  0  0  0  0
   34.8072    2.8021   -9.1654 O   0  0  0  0  0  0  0  0  0  0  0  0
   30.5542    3.5756   -9.6219 C   0  0  0  0  0  0  0  0  0  0  0  0
   29.9077    4.4533  -10.2113 O   0  0  0  0  0  0  0  0  0  0  0  0
   35.2835    4.9850   -8.9985 O   0  0  0  0  0  0  0  0  0  0  0  0
   22.3751    0.9517   -7.0777 O   0  0  0  0  0  0  0  0  0  0  0  0
   23.7234    1.0828   -7.3743 C   0  0  0  0  0  0  0  0  0  0  0  0
   24.6727    0.7563   -6.4320 C   0  0  0  0  0  0  0  0  0  0  0  0
   25.9967    0.8884   -6.7324 C   0  0  0  0  0  0  0  0  0  0  0  0
   26.4855    1.3381   -7.9452 C   0  0  0  0  0  0  0  0  0  0  0  0
   27.9204    1.4725   -8.2460 C   0  0  0  0  0  0  0  0  0  0  0  0
   28.4299    2.8418   -8.4383 C   0  0  2  0  0  0  0  0  0  0  0  0
   29.8928    2.7408   -8.6957 N   0  0  0  0  0  0  0  0  0  0  0  0
   28.2481    3.8408   -7.4195 C   0  0  0  0  0  0  0  0  0  0  0  0
   29.0528    3.8451   -6.4163 O   0  0  0  0  0  0  0  0  0  0  0  0
   25.5074    1.6662   -8.8932 C   0  0  0  0  0  0  0  0  0  0  0  0
   24.1676    1.5350   -8.5962 C   0  0  0  0  0  0  0  0  0  0  0  0
   27.4550    8.0738   -5.6202 O   0  0  0  0  0  0  0  0  0  0  0  0
   27.5222    7.2126   -6.7135 C   0  0  0  0  0  0  0  0  0  0  0  0
   27.1729    5.7974   -6.2633 C   0  0  2  0  0  0  0  0  0  0  0  0
   27.2572    4.8704   -7.3760 N   0  0  0  0  0  0  0  0  0  0  0  0
   25.7944    5.7962   -5.7392 C   0  0  0  0  0  0  0  0  0  0  0  0
   25.5324    5.8276   -4.3621 O   0  0  0  0  0  0  0  0  0  0  0  0
   24.8315    5.7671   -6.5203 O   0  0  0  0  0  0  0  0  0  0  0  0
  2  1  1  6
  2  6  1  0
  3  2  1  0
  4  8  1  0
  4  3  1  0
  5  4  2  0
  6 16  1  0
  6  7  2  0
  9 10  1  0
 10 11  2  0
 11 12  1  0
 13 12  2  0
 13 14  1  0
 15 14  1  1
 15 17  1  0
 16 15  1  0
 17 18  2  0
 19 13  1  0
 20 10  1  0
 20 19  2  0
 21 22  1  0
 23 22  1  6
 23 25  1  0
 24 17  1  0
 24 23  1  0
 25 26  1  0
 27 25  2  0
M  END
$$$$
