GDL.pdb
     RDKit          3D

 21 20  0  0  1  0  0  0  0  0999 V2000
    5.6646  -19.8502   23.5038 N   0  0  0  0  0  0  0  0  0  0  0  0
    5.7199  -18.4375   23.2330 C   0  0  0  0  0  0  0  0  0  0  0  0
    7.1104  -17.9359   23.1334 C   0  0  0  0  0  0  0  0  0  0  0  0
    8.0471  -18.7011   23.4750 O   0  0  0  0  0  0  0  0  0  0  0  0
    7.4088  -16.6447   22.6736 N   0  0  0  0  0  0  0  0  0  0  0  0
    8.7372  -16.1245   22.4879 C   0  0  1  0  0  0  0  0  0  0  0  0
    8.7953  -15.0295   21.4702 C   0  0  0  0  0  0  0  0  0  0  0  0
    8.6963  -15.4958   20.0792 C   0  0  0  0  0  0  0  0  0  0  0  0
    8.0830  -14.9072   19.1645 O   0  0  0  0  0  0  0  0  0  0  0  0
    9.1528  -15.5108   23.8022 C   0  0  0  0  0  0  0  0  0  0  0  0
   10.3135  -15.0466   23.9550 O   0  0  0  0  0  0  0  0  0  0  0  0
    9.3368  -16.6862   19.7592 O   0  0  0  0  0  0  0  0  0  0  0  0
    7.8043  -11.8201   25.3940 C   0  0  0  0  0  0  0  0  0  0  0  0
    6.9634  -12.9641   25.8327 C   0  0  2  0  0  0  0  0  0  0  0  0
    5.6295  -12.4390   26.4191 C   0  0  0  0  0  0  0  0  0  0  0  0
    7.5404  -14.0068   26.6968 C   0  0  0  0  0  0  0  0  0  0  0  0
    8.6459  -14.8097   26.1945 C   0  0  2  0  0  0  0  0  0  0  0  0
    8.2680  -15.4344   24.8969 N   0  0  0  0  0  0  0  0  0  0  0  0
    9.2492  -15.8087   27.0604 C   0  0  0  0  0  0  0  0  0  0  0  0
    9.2600  -17.1570   26.6230 O   0  0  0  0  0  0  0  0  0  0  0  0
    9.7707  -15.6251   28.1643 O   0  0  0  0  0  0  0  0  0  0  0  0
  1  2  1  0
  3  2  1  0
  4  3  2  0
  5  3  1  0
  6  5  1  0
  6  7  1  6
  8  7  1  0
  8 12  1  0
  9  8  2  0
 10  6  1  0
 10 18  1  0
 11 10  2  0
 14 13  1  1
 14 16  1  0
 14 15  1  0
 17 18  1  0
 17 16  1  1
 19 17  1  0
 20 19  1  0
 21 19  2  0
M  END
$$$$
