GDL.pdb
     RDKit          3D

 21 20  0  0  1  0  0  0  0  0999 V2000
    5.0396  -19.5382   23.0845 N   0  0  0  0  0  0  0  0  0  0  0  0
    5.6015  -18.2691   22.7028 C   0  0  0  0  0  0  0  0  0  0  0  0
    7.0459  -18.1735   23.0180 C   0  0  0  0  0  0  0  0  0  0  0  0
    7.5016  -18.8816   23.9510 O   0  0  0  0  0  0  0  0  0  0  0  0
    7.9110  -17.3241   22.3125 N   0  0  0  0  0  0  0  0  0  0  0  0
    9.3032  -17.1297   22.6187 C   0  0  1  0  0  0  0  0  0  0  0  0
   10.0752  -16.5548   21.4734 C   0  0  0  0  0  0  0  0  0  0  0  0
   11.5290  -16.5124   21.6895 C   0  0  0  0  0  0  0  0  0  0  0  0
   12.2938  -15.6201   21.2676 O   0  0  0  0  0  0  0  0  0  0  0  0
    9.3670  -16.1131   23.7320 C   0  0  0  0  0  0  0  0  0  0  0  0
   10.4761  -15.6821   24.1444 O   0  0  0  0  0  0  0  0  0  0  0  0
   12.0948  -17.5485   22.4218 O   0  0  0  0  0  0  0  0  0  0  0  0
    5.4376  -12.4067   26.8857 C   0  0  0  0  0  0  0  0  0  0  0  0
    6.8131  -12.8649   26.5595 C   0  0  2  0  0  0  0  0  0  0  0  0
    7.7440  -11.6402   26.3789 C   0  0  0  0  0  0  0  0  0  0  0  0
    7.0211  -13.8439   25.4802 C   0  0  0  0  0  0  0  0  0  0  0  0
    8.2394  -14.6408   25.4733 C   0  0  2  0  0  0  0  0  0  0  0  0
    8.2010  -15.6127   24.3460 N   0  0  0  0  0  0  0  0  0  0  0  0
    8.6509  -15.3199   26.6902 C   0  0  0  0  0  0  0  0  0  0  0  0
    8.2170  -16.6540   26.8934 O   0  0  0  0  0  0  0  0  0  0  0  0
    9.3539  -14.8671   27.5985 O   0  0  0  0  0  0  0  0  0  0  0  0
  1  2  1  0
  3  2  1  0
  4  3  2  0
  5  3  1  0
  6  5  1  0
  6  7  1  6
  8  7  1  0
  8 12  1  0
  9  8  2  0
 10  6  1  0
 10 18  1  0
 11 10  2  0
 14 13  1  6
 14 16  1  0
 14 15  1  0
 17 18  1  0
 17 16  1  1
 19 17  1  0
 20 19  1  0
 21 19  2  0
M  END
$$$$
