GDL.pdb
     RDKit          3D

 21 20  0  0  1  0  0  0  0  0999 V2000
    8.2050  -13.4763   18.0876 N   0  0  0  0  0  0  0  0  0  0  0  0
    8.2919  -12.9987   19.4427 C   0  0  0  0  0  0  0  0  0  0  0  0
    8.1111  -14.0830   20.4361 C   0  0  0  0  0  0  0  0  0  0  0  0
    6.9557  -14.2985   20.8811 O   0  0  0  0  0  0  0  0  0  0  0  0
    9.1815  -14.8680   20.8897 N   0  0  0  0  0  0  0  0  0  0  0  0
    9.0720  -15.9280   21.8562 C   0  0  1  0  0  0  0  0  0  0  0  0
   10.1877  -16.9200   21.7594 C   0  0  0  0  0  0  0  0  0  0  0  0
   10.1813  -17.7129   20.5211 C   0  0  0  0  0  0  0  0  0  0  0  0
    9.1923  -18.3200   20.0601 O   0  0  0  0  0  0  0  0  0  0  0  0
    9.1836  -15.2890   23.2186 C   0  0  0  0  0  0  0  0  0  0  0  0
   10.2588  -14.7465   23.5867 O   0  0  0  0  0  0  0  0  0  0  0  0
   11.3713  -17.7915   19.8088 O   0  0  0  0  0  0  0  0  0  0  0  0
    5.8081  -12.2166   27.1509 C   0  0  0  0  0  0  0  0  0  0  0  0
    7.0567  -12.8513   26.6543 C   0  0  2  0  0  0  0  0  0  0  0  0
    7.8955  -11.8128   25.8688 C   0  0  0  0  0  0  0  0  0  0  0  0
    6.9880  -14.1280   25.9248 C   0  0  0  0  0  0  0  0  0  0  0  0
    8.2256  -14.7783   25.5193 C   0  0  2  0  0  0  0  0  0  0  0  0
    8.1009  -15.2750   24.1212 N   0  0  0  0  0  0  0  0  0  0  0  0
    8.7885  -15.8214   26.3600 C   0  0  0  0  0  0  0  0  0  0  0  0
    9.8220  -15.4695   27.2641 O   0  0  0  0  0  0  0  0  0  0  0  0
    8.4694  -17.0138   26.3874 O   0  0  0  0  0  0  0  0  0  0  0  0
  1  2  1  0
  3  2  1  0
  4  3  2  0
  5  3  1  0
  6  5  1  0
  6  7  1  6
  8  7  1  0
  8 12  1  0
  9  8  2  0
 10  6  1  0
 10 18  1  0
 11 10  2  0
 14 13  1  6
 14 16  1  0
 14 15  1  0
 17 18  1  0
 17 16  1  1
 19 17  1  0
 20 19  1  0
 21 19  2  0
M  END
$$$$
