GDL.pdb
     RDKit          3D

 21 20  0  0  1  0  0  0  0  0999 V2000
   13.1223  -17.1667   19.9194 N   0  0  0  0  0  0  0  0  0  0  0  0
   12.3906  -17.4976   21.1141 C   0  0  0  0  0  0  0  0  0  0  0  0
   11.1557  -16.6925   21.2609 C   0  0  0  0  0  0  0  0  0  0  0  0
   11.1635  -15.5062   20.8459 O   0  0  0  0  0  0  0  0  0  0  0  0
    9.9898  -17.2106   21.8439 N   0  0  0  0  0  0  0  0  0  0  0  0
    8.7546  -16.4884   21.9939 C   0  0  1  0  0  0  0  0  0  0  0  0
    7.5581  -17.3857   22.0336 C   0  0  0  0  0  0  0  0  0  0  0  0
    7.1879  -17.9521   20.7281 C   0  0  0  0  0  0  0  0  0  0  0  0
    7.5518  -17.5055   19.6203 O   0  0  0  0  0  0  0  0  0  0  0  0
    8.8148  -15.7946   23.3325 C   0  0  0  0  0  0  0  0  0  0  0  0
    9.6461  -16.1571   24.2062 O   0  0  0  0  0  0  0  0  0  0  0  0
    6.3678  -19.0734   20.7296 O   0  0  0  0  0  0  0  0  0  0  0  0
    7.7518  -12.3605   27.3584 C   0  0  0  0  0  0  0  0  0  0  0  0
    7.0622  -11.9714   26.1008 C   0  0  2  0  0  0  0  0  0  0  0  0
    5.6040  -11.5517   26.4115 C   0  0  0  0  0  0  0  0  0  0  0  0
    7.1118  -12.8658   24.9328 C   0  0  0  0  0  0  0  0  0  0  0  0
    8.0017  -14.0175   24.9611 C   0  0  2  0  0  0  0  0  0  0  0  0
    7.9526  -14.7264   23.6526 N   0  0  0  0  0  0  0  0  0  0  0  0
    7.8832  -14.9803   26.0431 C   0  0  0  0  0  0  0  0  0  0  0  0
    6.8422  -15.9400   25.9760 O   0  0  0  0  0  0  0  0  0  0  0  0
    8.5982  -15.0710   27.0455 O   0  0  0  0  0  0  0  0  0  0  0  0
  1  2  1  0
  3  2  1  0
  4  3  2  0
  5  3  1  0
  6  5  1  0
  6  7  1  1
  8  7  1  0
  8 12  1  0
  9  8  2  0
 10  6  1  0
 10 18  1  0
 11 10  2  0
 14 13  1  1
 14 16  1  0
 14 15  1  0
 17 18  1  0
 17 16  1  6
 19 17  1  0
 20 19  1  0
 21 19  2  0
M  END
$$$$
