GDL.pdb
     RDKit          3D

 21 20  0  0  1  0  0  0  0  0999 V2000
    5.3943  -19.3579   22.5575 N   0  0  0  0  0  0  0  0  0  0  0  0
    5.7140  -18.2095   23.3642 C   0  0  0  0  0  0  0  0  0  0  0  0
    7.1625  -17.8986   23.3548 C   0  0  0  0  0  0  0  0  0  0  0  0
    7.9531  -18.7205   23.8830 O   0  0  0  0  0  0  0  0  0  0  0  0
    7.6721  -16.7252   22.7791 N   0  0  0  0  0  0  0  0  0  0  0  0
    9.0651  -16.3686   22.7356 C   0  0  1  0  0  0  0  0  0  0  0  0
    9.3888  -15.4253   21.6204 C   0  0  0  0  0  0  0  0  0  0  0  0
    9.6908  -16.0866   20.3423 C   0  0  0  0  0  0  0  0  0  0  0  0
   10.8214  -16.4758   19.9826 O   0  0  0  0  0  0  0  0  0  0  0  0
    9.3678  -15.6351   24.0190 C   0  0  0  0  0  0  0  0  0  0  0  0
   10.5390  -15.2512   24.2777 O   0  0  0  0  0  0  0  0  0  0  0  0
    8.6325  -16.2938   19.4665 O   0  0  0  0  0  0  0  0  0  0  0  0
    7.8032  -11.8057   25.5905 C   0  0  0  0  0  0  0  0  0  0  0  0
    6.9601  -12.9726   25.9595 C   0  0  2  0  0  0  0  0  0  0  0  0
    5.6029  -12.4812   26.5214 C   0  0  0  0  0  0  0  0  0  0  0  0
    7.5194  -14.0414   26.8029 C   0  0  0  0  0  0  0  0  0  0  0  0
    8.6617  -14.8015   26.3164 C   0  0  2  0  0  0  0  0  0  0  0  0
    8.3628  -15.3546   24.9667 N   0  0  0  0  0  0  0  0  0  0  0  0
    9.2321  -15.8419   27.1555 C   0  0  0  0  0  0  0  0  0  0  0  0
    9.1166  -17.1880   26.7266 O   0  0  0  0  0  0  0  0  0  0  0  0
    9.8240  -15.6964   28.2291 O   0  0  0  0  0  0  0  0  0  0  0  0
  1  2  1  0
  3  2  1  0
  4  3  2  0
  5  3  1  0
  6  5  1  0
  6  7  1  6
  8  7  1  0
  8 12  1  0
  9  8  2  0
 10  6  1  0
 10 18  1  0
 11 10  2  0
 14 13  1  1
 14 16  1  0
 14 15  1  0
 17 18  1  0
 17 16  1  1
 19 17  1  0
 20 19  1  0
 21 19  2  0
M  END
$$$$
