GDL.pdb
     RDKit          3D

 21 20  0  0  1  0  0  0  0  0999 V2000
    7.6000  -12.3929   18.9875 N   0  0  0  0  0  0  0  0  0  0  0  0
    8.5606  -13.3748   19.4178 C   0  0  0  0  0  0  0  0  0  0  0  0
    8.0624  -14.1952   20.5464 C   0  0  0  0  0  0  0  0  0  0  0  0
    6.9353  -13.9223   21.0310 O   0  0  0  0  0  0  0  0  0  0  0  0
    8.8046  -15.2570   21.0843 N   0  0  0  0  0  0  0  0  0  0  0  0
    8.3471  -16.1337   22.1291 C   0  0  1  0  0  0  0  0  0  0  0  0
    8.9218  -17.5110   22.0250 C   0  0  0  0  0  0  0  0  0  0  0  0
    8.2375  -18.3760   21.0527 C   0  0  0  0  0  0  0  0  0  0  0  0
    8.7947  -18.9945   20.1220 O   0  0  0  0  0  0  0  0  0  0  0  0
    8.8467  -15.5580   23.4314 C   0  0  0  0  0  0  0  0  0  0  0  0
   10.0456  -15.1925   23.5532 O   0  0  0  0  0  0  0  0  0  0  0  0
    6.8612  -18.5149   21.1814 O   0  0  0  0  0  0  0  0  0  0  0  0
    8.0733  -11.7661   25.4574 C   0  0  0  0  0  0  0  0  0  0  0  0
    7.0540  -12.8023   25.7665 C   0  0  2  0  0  0  0  0  0  0  0  0
    5.8395  -12.1485   26.4712 C   0  0  0  0  0  0  0  0  0  0  0  0
    7.4547  -14.0399   26.4553 C   0  0  0  0  0  0  0  0  0  0  0  0
    8.4796  -14.8826   25.8564 C   0  0  2  0  0  0  0  0  0  0  0  0
    8.0003  -15.4090   24.5487 N   0  0  0  0  0  0  0  0  0  0  0  0
    9.0553  -15.9645   26.6372 C   0  0  0  0  0  0  0  0  0  0  0  0
    8.7441  -17.2973   26.2682 O   0  0  0  0  0  0  0  0  0  0  0  0
    9.8058  -15.8661   27.6126 O   0  0  0  0  0  0  0  0  0  0  0  0
  1  2  1  0
  3  2  1  0
  4  3  2  0
  5  3  1  0
  6  5  1  0
  6  7  1  6
  8  7  1  0
  8 12  1  0
  9  8  2  0
 10  6  1  0
 10 18  1  0
 11 10  2  0
 14 13  1  1
 14 16  1  0
 14 15  1  0
 17 18  1  0
 17 16  1  1
 19 17  1  0
 20 19  1  0
 21 19  2  0
M  END
$$$$
