HHS.pdb
     RDKit          3D

 27 28  0  0  1  0  0  0  0  0999 V2000
    8.2459  -17.4389   14.3417 N   0  0  0  0  0  0  0  0  0  0  0  0
    9.0285  -16.6984   15.3003 C   0  0  1  0  0  0  0  0  0  0  0  0
    8.2397  -15.4468   15.6416 C   0  0  0  0  0  0  0  0  0  0  0  0
    8.1818  -14.4971   14.5055 C   0  0  0  0  0  0  0  0  0  0  0  0
    8.7037  -14.7101   13.2320 C   0  0  0  0  0  0  0  0  0  0  0  0
    8.4582  -13.6350   12.4886 N   0  0  0  0  0  0  0  0  0  0  0  0
    7.7946  -12.7262   13.2296 C   0  0  0  0  0  0  0  0  0  0  0  0
    7.6360  -13.2688   14.4532 N   0  0  0  0  0  0  0  0  0  0  0  0
    9.2167  -17.4592   16.5665 C   0  0  0  0  0  0  0  0  0  0  0  0
    8.2266  -18.0572   17.0746 O   0  0  0  0  0  0  0  0  0  0  0  0
   10.4526  -17.5579   17.2490 N   0  0  0  0  0  0  0  0  0  0  0  0
   10.7131  -18.3132   18.4271 C   0  0  1  0  0  0  0  0  0  0  0  0
   11.5234  -19.5444   18.2742 C   0  0  0  0  0  0  0  0  0  0  0  0
   10.8470  -20.6834   17.6216 C   0  0  0  0  0  0  0  0  0  0  0  0
    9.7876  -21.4646   18.0264 C   0  0  0  0  0  0  0  0  0  0  0  0
    9.5500  -22.3996   17.0647 N   0  0  0  0  0  0  0  0  0  0  0  0
   10.4363  -22.2184   16.0722 C   0  0  0  0  0  0  0  0  0  0  0  0
   11.2050  -21.1993   16.4049 N   0  0  0  0  0  0  0  0  0  0  0  0
   11.3224  -17.3763   19.4357 C   0  0  0  0  0  0  0  0  0  0  0  0
   12.1805  -16.5116   19.1238 O   0  0  0  0  0  0  0  0  0  0  0  0
   11.0490  -15.6177   24.0114 O   0  0  0  0  0  0  0  0  0  0  0  0
   10.5342  -16.3570   22.9769 C   0  0  0  0  0  0  0  0  0  0  0  0
   11.4844  -16.5183   21.8130 C   0  0  2  0  0  0  0  0  0  0  0  0
   10.9549  -17.4219   20.8078 N   0  0  0  0  0  0  0  0  0  0  0  0
   12.8462  -16.8339   22.2127 C   0  0  0  0  0  0  0  0  0  0  0  0
   13.3141  -17.9761   22.0324 O   0  0  0  0  0  0  0  0  0  0  0  0
   13.6468  -15.8761   22.7990 O   0  0  0  0  0  0  0  0  0  0  0  0
  2  1  1  6
  3  2  1  0
  4  3  1  0
  5  4  2  0
  6  7  1  0
  6  5  1  0
  7  8  2  0
  8  4  1  0
  9  2  1  0
  9 10  2  0
 11  9  1  0
 12 11  1  0
 12 13  1  6
 13 14  1  0
 14 18  1  0
 14 15  2  0
 15 16  1  0
 17 16  1  0
 18 17  2  0
 19 12  1  0
 20 19  2  0
 22 21  1  0
 23 22  1  1
 23 24  1  0
 24 19  1  0
 25 23  1  0
 25 27  1  0
 26 25  2  0
M  END
$$$$
