HHS.pdb
     RDKit          3D

 27 28  0  0  1  0  0  0  0  0999 V2000
   13.9454  -14.0214   17.2772 N   0  0  0  0  0  0  0  0  0  0  0  0
   13.4329  -15.1693   17.9840 C   0  0  1  0  0  0  0  0  0  0  0  0
   14.6334  -15.9387   18.5056 C   0  0  0  0  0  0  0  0  0  0  0  0
   15.3404  -16.6677   17.4263 C   0  0  0  0  0  0  0  0  0  0  0  0
   14.9557  -16.7266   16.0890 C   0  0  0  0  0  0  0  0  0  0  0  0
   15.8357  -17.4732   15.4280 N   0  0  0  0  0  0  0  0  0  0  0  0
   16.7821  -17.9050   16.2842 C   0  0  0  0  0  0  0  0  0  0  0  0
   16.4635  -17.4047   17.4946 N   0  0  0  0  0  0  0  0  0  0  0  0
   12.6170  -14.7728   19.1649 C   0  0  0  0  0  0  0  0  0  0  0  0
   12.9590  -13.7560   19.8321 O   0  0  0  0  0  0  0  0  0  0  0  0
   11.4644  -15.4721   19.5956 N   0  0  0  0  0  0  0  0  0  0  0  0
   10.6350  -15.1394   20.7036 C   0  0  1  0  0  0  0  0  0  0  0  0
    9.1697  -15.1939   20.4903 C   0  0  0  0  0  0  0  0  0  0  0  0
    8.6501  -14.3732   19.3780 C   0  0  0  0  0  0  0  0  0  0  0  0
    8.3704  -13.0273   19.2949 C   0  0  0  0  0  0  0  0  0  0  0  0
    7.8964  -12.7625   18.0456 N   0  0  0  0  0  0  0  0  0  0  0  0
    7.8746  -13.9112   17.3504 C   0  0  0  0  0  0  0  0  0  0  0  0
    8.3224  -14.8658   18.1431 N   0  0  0  0  0  0  0  0  0  0  0  0
   11.0550  -16.0112   21.8569 C   0  0  0  0  0  0  0  0  0  0  0  0
   11.6686  -17.0969   21.6956 O   0  0  0  0  0  0  0  0  0  0  0  0
   10.7811  -16.6771   26.7357 O   0  0  0  0  0  0  0  0  0  0  0  0
   10.5672  -15.8882   25.6341 C   0  0  0  0  0  0  0  0  0  0  0  0
   11.0306  -16.5138   24.3390 C   0  0  2  0  0  0  0  0  0  0  0  0
   10.7762  -15.6477   23.2022 N   0  0  0  0  0  0  0  0  0  0  0  0
   10.5541  -17.8738   24.1462 C   0  0  0  0  0  0  0  0  0  0  0  0
    9.4606  -18.0921   23.5872 O   0  0  0  0  0  0  0  0  0  0  0  0
   11.3025  -18.9489   24.5779 O   0  0  0  0  0  0  0  0  0  0  0  0
  2  1  1  1
  3  2  1  0
  4  3  1  0
  5  4  2  0
  6  7  1  0
  6  5  1  0
  7  8  2  0
  8  4  1  0
  9  2  1  0
  9 10  2  0
 11  9  1  0
 12 11  1  0
 12 13  1  6
 13 14  1  0
 14 18  1  0
 14 15  2  0
 15 16  1  0
 17 16  1  0
 18 17  2  0
 19 12  1  0
 20 19  2  0
 22 21  1  0
 23 22  1  1
 23 24  1  0
 24 19  1  0
 25 23  1  0
 25 27  1  0
 26 25  2  0
M  END
$$$$
