HHS.pdb
     RDKit          3D

 27 28  0  0  1  0  0  0  0  0999 V2000
   11.0016  -15.3689   14.2228 N   0  0  0  0  0  0  0  0  0  0  0  0
   11.1535  -14.7505   15.5167 C   0  0  1  0  0  0  0  0  0  0  0  0
    9.9506  -15.1621   16.3466 C   0  0  0  0  0  0  0  0  0  0  0  0
    8.6912  -14.5735   15.8333 C   0  0  0  0  0  0  0  0  0  0  0  0
    8.1057  -13.3862   16.2657 C   0  0  0  0  0  0  0  0  0  0  0  0
    6.9879  -13.1885   15.5726 N   0  0  0  0  0  0  0  0  0  0  0  0
    6.8208  -14.2034   14.7024 C   0  0  0  0  0  0  0  0  0  0  0  0
    7.8669  -15.0356   14.8761 N   0  0  0  0  0  0  0  0  0  0  0  0
   12.3669  -15.2425   16.2259 C   0  0  0  0  0  0  0  0  0  0  0  0
   12.7310  -16.4405   16.0578 O   0  0  0  0  0  0  0  0  0  0  0  0
   13.1520  -14.4424   17.0900 N   0  0  0  0  0  0  0  0  0  0  0  0
   14.4328  -14.7692   17.6182 C   0  0  1  0  0  0  0  0  0  0  0  0
   15.2858  -13.6431   18.0656 C   0  0  0  0  0  0  0  0  0  0  0  0
   16.6803  -13.9882   18.4076 C   0  0  0  0  0  0  0  0  0  0  0  0
   17.7819  -14.2140   17.6127 C   0  0  0  0  0  0  0  0  0  0  0  0
   18.8395  -14.5128   18.4176 N   0  0  0  0  0  0  0  0  0  0  0  0
   18.4217  -14.4784   19.6933 C   0  0  0  0  0  0  0  0  0  0  0  0
   17.1398  -14.1668   19.6850 N   0  0  0  0  0  0  0  0  0  0  0  0
   14.2213  -15.7704   18.7223 C   0  0  0  0  0  0  0  0  0  0  0  0
   13.3145  -15.6451   19.5845 O   0  0  0  0  0  0  0  0  0  0  0  0
   13.5146  -19.2277   18.4086 O   0  0  0  0  0  0  0  0  0  0  0  0
   14.5231  -19.2677   19.3375 C   0  0  0  0  0  0  0  0  0  0  0  0
   14.8882  -17.9125   19.8974 C   0  0  2  0  0  0  0  0  0  0  0  0
   15.0450  -16.9216   18.8482 N   0  0  0  0  0  0  0  0  0  0  0  0
   16.0043  -17.9486   20.8284 C   0  0  0  0  0  0  0  0  0  0  0  0
   17.0065  -17.2280   20.6492 O   0  0  0  0  0  0  0  0  0  0  0  0
   15.9760  -18.7808   21.9280 O   0  0  0  0  0  0  0  0  0  0  0  0
  2  1  1  6
  3  2  1  0
  4  3  1  0
  5  4  2  0
  6  7  1  0
  6  5  1  0
  7  8  2  0
  8  4  1  0
  9  2  1  0
  9 10  2  0
 11  9  1  0
 12 11  1  0
 12 13  1  1
 13 14  1  0
 14 18  1  0
 14 15  2  0
 15 16  1  0
 17 16  1  0
 18 17  2  0
 19 12  1  0
 20 19  2  0
 22 21  1  0
 23 22  1  6
 23 24  1  0
 24 19  1  0
 25 23  1  0
 25 27  1  0
 26 25  2  0
M  END
$$$$
