HHS.pdb
     RDKit          3D

 27 28  0  0  1  0  0  0  0  0999 V2000
   10.1569  -15.9162   17.0711 N   0  0  0  0  0  0  0  0  0  0  0  0
   10.8218  -14.9155   17.8687 C   0  0  1  0  0  0  0  0  0  0  0  0
    9.9094  -14.6091   19.0430 C   0  0  0  0  0  0  0  0  0  0  0  0
    8.7565  -13.7657   18.6482 C   0  0  0  0  0  0  0  0  0  0  0  0
    8.4882  -13.2930   17.3660 C   0  0  0  0  0  0  0  0  0  0  0  0
    7.3707  -12.5729   17.4057 N   0  0  0  0  0  0  0  0  0  0  0  0
    6.8983  -12.5573   18.6673 C   0  0  0  0  0  0  0  0  0  0  0  0
    7.7548  -13.2882   19.4082 N   0  0  0  0  0  0  0  0  0  0  0  0
   12.1066  -15.4184   18.4289 C   0  0  0  0  0  0  0  0  0  0  0  0
   12.2603  -16.6623   18.5876 O   0  0  0  0  0  0  0  0  0  0  0  0
   13.1845  -14.5801   18.8011 N   0  0  0  0  0  0  0  0  0  0  0  0
   14.4480  -14.9973   19.3069 C   0  0  1  0  0  0  0  0  0  0  0  0
   15.6500  -14.3298   18.7545 C   0  0  0  0  0  0  0  0  0  0  0  0
   16.0208  -14.7091   17.3763 C   0  0  0  0  0  0  0  0  0  0  0  0
   16.1709  -15.9424   16.7822 C   0  0  0  0  0  0  0  0  0  0  0  0
   16.5383  -15.7531   15.4842 N   0  0  0  0  0  0  0  0  0  0  0  0
   16.6205  -14.4321   15.2575 C   0  0  0  0  0  0  0  0  0  0  0  0
   16.3129  -13.8144   16.3818 N   0  0  0  0  0  0  0  0  0  0  0  0
   14.3933  -14.8770   20.8066 C   0  0  0  0  0  0  0  0  0  0  0  0
   13.3888  -14.4241   21.4126 O   0  0  0  0  0  0  0  0  0  0  0  0
   13.1886  -17.0723   23.1952 O   0  0  0  0  0  0  0  0  0  0  0  0
   14.4465  -17.2317   22.6719 C   0  0  0  0  0  0  0  0  0  0  0  0
   15.3389  -16.0262   22.8558 C   0  0  2  0  0  0  0  0  0  0  0  0
   15.4866  -15.2735   21.6234 N   0  0  0  0  0  0  0  0  0  0  0  0
   16.6056  -16.3325   23.5002 C   0  0  0  0  0  0  0  0  0  0  0  0
   17.4782  -16.9966   22.9057 O   0  0  0  0  0  0  0  0  0  0  0  0
   16.8667  -15.8942   24.7816 O   0  0  0  0  0  0  0  0  0  0  0  0
  2  1  1  6
  3  2  1  0
  4  3  1  0
  5  4  2  0
  6  7  1  0
  6  5  1  0
  7  8  2  0
  8  4  1  0
  9  2  1  0
  9 10  2  0
 11  9  1  0
 12 11  1  0
 12 13  1  6
 13 14  1  0
 14 18  1  0
 14 15  2  0
 15 16  1  0
 17 16  1  0
 18 17  2  0
 19 12  1  0
 20 19  2  0
 22 21  1  0
 23 22  1  6
 23 24  1  0
 24 19  1  0
 25 23  1  0
 25 27  1  0
 26 25  2  0
M  END
$$$$
