HHS.pdb
     RDKit          3D

 27 28  0  0  1  0  0  0  0  0999 V2000
   11.1026  -13.6868   19.9198 N   0  0  0  0  0  0  0  0  0  0  0  0
    9.8403  -14.1736   20.4192 C   0  0  1  0  0  0  0  0  0  0  0  0
    9.4345  -15.3379   19.5333 C   0  0  0  0  0  0  0  0  0  0  0  0
    8.8110  -14.8848   18.2676 C   0  0  0  0  0  0  0  0  0  0  0  0
    8.7470  -13.5709   17.8102 C   0  0  0  0  0  0  0  0  0  0  0  0
    8.1131  -13.5601   16.6411 N   0  0  0  0  0  0  0  0  0  0  0  0
    7.7599  -14.8193   16.3170 C   0  0  0  0  0  0  0  0  0  0  0  0
    8.1931  -15.6105   17.3186 N   0  0  0  0  0  0  0  0  0  0  0  0
    9.9599  -14.6977   21.8079 C   0  0  0  0  0  0  0  0  0  0  0  0
   11.1079  -14.9534   22.2693 O   0  0  0  0  0  0  0  0  0  0  0  0
    8.8534  -14.9318   22.6587 N   0  0  0  0  0  0  0  0  0  0  0  0
    8.9024  -15.3486   24.0189 C   0  0  1  0  0  0  0  0  0  0  0  0
    7.6384  -15.2871   24.7897 C   0  0  0  0  0  0  0  0  0  0  0  0
    7.2304  -13.9450   25.2512 C   0  0  0  0  0  0  0  0  0  0  0  0
    7.8965  -12.7397   25.2431 C   0  0  0  0  0  0  0  0  0  0  0  0
    7.0851  -11.7957   25.7964 N   0  0  0  0  0  0  0  0  0  0  0  0
    5.9310  -12.3853   26.1483 C   0  0  0  0  0  0  0  0  0  0  0  0
    6.0195  -13.6609   25.8238 N   0  0  0  0  0  0  0  0  0  0  0  0
    9.4940  -16.7327   24.0435 C   0  0  0  0  0  0  0  0  0  0  0  0
    9.1609  -17.6253   23.2227 O   0  0  0  0  0  0  0  0  0  0  0  0
   13.0346  -19.7059   24.5506 O   0  0  0  0  0  0  0  0  0  0  0  0
   12.4374  -18.4730   24.4809 C   0  0  0  0  0  0  0  0  0  0  0  0
   11.0543  -18.4321   25.0882 C   0  0  2  0  0  0  0  0  0  0  0  0
   10.4701  -17.1057   25.0066 N   0  0  0  0  0  0  0  0  0  0  0  0
   10.9858  -19.0118   26.4198 C   0  0  0  0  0  0  0  0  0  0  0  0
   10.5797  -18.3377   27.3876 O   0  0  0  0  0  0  0  0  0  0  0  0
   11.3686  -20.3187   26.6382 O   0  0  0  0  0  0  0  0  0  0  0  0
  2  1  1  6
  3  2  1  0
  4  3  1  0
  5  4  2  0
  6  7  1  0
  6  5  1  0
  7  8  2  0
  8  4  1  0
  9  2  1  0
  9 10  2  0
 11  9  1  0
 12 11  1  0
 12 13  1  6
 13 14  1  0
 14 18  1  0
 14 15  2  0
 15 16  1  0
 17 16  1  0
 18 17  2  0
 19 12  1  0
 20 19  2  0
 22 21  1  0
 23 22  1  1
 23 24  1  0
 24 19  1  0
 25 23  1  0
 25 27  1  0
 26 25  2  0
M  END
$$$$
