HHS.pdb
     RDKit          3D

 27 28  0  0  1  0  0  0  0  0999 V2000
   10.1793  -18.2857   16.5182 N   0  0  0  0  0  0  0  0  0  0  0  0
    9.5397  -18.4008   17.8056 C   0  0  1  0  0  0  0  0  0  0  0  0
    9.8397  -19.7958   18.3244 C   0  0  0  0  0  0  0  0  0  0  0  0
    9.1372  -20.8433   17.5462 C   0  0  0  0  0  0  0  0  0  0  0  0
    9.7326  -21.7637   16.6873 C   0  0  0  0  0  0  0  0  0  0  0  0
    8.7822  -22.5388   16.1727 N   0  0  0  0  0  0  0  0  0  0  0  0
    7.5865  -22.1588   16.6639 C   0  0  0  0  0  0  0  0  0  0  0  0
    7.8232  -21.1262   17.4973 N   0  0  0  0  0  0  0  0  0  0  0  0
   10.1005  -17.4348   18.7903 C   0  0  0  0  0  0  0  0  0  0  0  0
   11.3098  -17.0849   18.6845 O   0  0  0  0  0  0  0  0  0  0  0  0
    9.3549  -16.8735   19.8544 N   0  0  0  0  0  0  0  0  0  0  0  0
    9.7786  -15.8363   20.7324 C   0  0  1  0  0  0  0  0  0  0  0  0
    8.7731  -14.8128   21.1028 C   0  0  0  0  0  0  0  0  0  0  0  0
    8.1734  -14.0637   19.9803 C   0  0  0  0  0  0  0  0  0  0  0  0
    6.9342  -13.4805   19.8358 C   0  0  0  0  0  0  0  0  0  0  0  0
    6.8653  -12.9173   18.5974 N   0  0  0  0  0  0  0  0  0  0  0  0
    8.0315  -13.1367   17.9687 C   0  0  0  0  0  0  0  0  0  0  0  0
    8.8063  -13.8173   18.7914 N   0  0  0  0  0  0  0  0  0  0  0  0
   10.3687  -16.4930   21.9517 C   0  0  0  0  0  0  0  0  0  0  0  0
    9.6592  -16.9542   22.8819 O   0  0  0  0  0  0  0  0  0  0  0  0
   13.9067  -18.6500   21.9331 O   0  0  0  0  0  0  0  0  0  0  0  0
   12.9012  -18.6720   22.8659 C   0  0  0  0  0  0  0  0  0  0  0  0
   12.3919  -17.3004   23.2435 C   0  0  2  0  0  0  0  0  0  0  0  0
   11.7740  -16.6268   22.1158 N   0  0  0  0  0  0  0  0  0  0  0  0
   13.3766  -16.4837   23.9345 C   0  0  0  0  0  0  0  0  0  0  0  0
   13.9050  -16.8821   24.9919 O   0  0  0  0  0  0  0  0  0  0  0  0
   13.7452  -15.2526   23.4338 O   0  0  0  0  0  0  0  0  0  0  0  0
  2  1  1  6
  3  2  1  0
  4  3  1  0
  5  4  2  0
  6  7  1  0
  6  5  1  0
  7  8  2  0
  8  4  1  0
  9  2  1  0
  9 10  2  0
 11  9  1  0
 12 11  1  0
 12 13  1  1
 13 14  1  0
 14 18  1  0
 14 15  2  0
 15 16  1  0
 17 16  1  0
 18 17  2  0
 19 12  1  0
 20 19  2  0
 22 21  1  0
 23 22  1  6
 23 24  1  0
 24 19  1  0
 25 23  1  0
 25 27  1  0
 26 25  2  0
M  END
$$$$
