HHS.pdb
     RDKit          3D

 27 28  0  0  1  0  0  0  0  0999 V2000
   10.1501  -15.6318   17.7978 N   0  0  0  0  0  0  0  0  0  0  0  0
   11.0001  -14.5807   18.3002 C   0  0  1  0  0  0  0  0  0  0  0  0
   10.3953  -14.1128   19.6118 C   0  0  0  0  0  0  0  0  0  0  0  0
    8.9805  -13.6994   19.4575 C   0  0  0  0  0  0  0  0  0  0  0  0
    8.5215  -12.6050   18.7288 C   0  0  0  0  0  0  0  0  0  0  0  0
    7.1959  -12.5579   18.8256 N   0  0  0  0  0  0  0  0  0  0  0  0
    6.7710  -13.5819   19.5911 C   0  0  0  0  0  0  0  0  0  0  0  0
    7.8710  -14.2647   19.9660 N   0  0  0  0  0  0  0  0  0  0  0  0
   12.3726  -15.0748   18.5996 C   0  0  0  0  0  0  0  0  0  0  0  0
   12.5263  -16.2763   18.9582 O   0  0  0  0  0  0  0  0  0  0  0  0
   13.5352  -14.2730   18.5069 N   0  0  0  0  0  0  0  0  0  0  0  0
   14.8765  -14.6949   18.7287 C   0  0  1  0  0  0  0  0  0  0  0  0
   15.9342  -14.0273   17.9342 C   0  0  0  0  0  0  0  0  0  0  0  0
   16.0449  -14.4519   16.5242 C   0  0  0  0  0  0  0  0  0  0  0  0
   16.0230  -15.7021   15.9470 C   0  0  0  0  0  0  0  0  0  0  0  0
   16.1759  -15.5575   14.6011 N   0  0  0  0  0  0  0  0  0  0  0  0
   16.2927  -14.2479   14.3281 C   0  0  0  0  0  0  0  0  0  0  0  0
   16.2146  -13.5936   15.4709 N   0  0  0  0  0  0  0  0  0  0  0  0
   15.1447  -14.5813   20.2057 C   0  0  0  0  0  0  0  0  0  0  0  0
   15.0397  -13.4951   20.8306 O   0  0  0  0  0  0  0  0  0  0  0  0
   14.7918  -17.8196   22.8510 O   0  0  0  0  0  0  0  0  0  0  0  0
   14.7717  -16.4869   23.1753 C   0  0  0  0  0  0  0  0  0  0  0  0
   15.7769  -15.6592   22.4085 C   0  0  2  0  0  0  0  0  0  0  0  0
   15.5348  -15.7087   20.9781 N   0  0  0  0  0  0  0  0  0  0  0  0
   17.1573  -15.9378   22.7701 C   0  0  0  0  0  0  0  0  0  0  0  0
   17.5405  -15.8276   23.9520 O   0  0  0  0  0  0  0  0  0  0  0  0
   18.0696  -16.3293   21.8127 O   0  0  0  0  0  0  0  0  0  0  0  0
  2  1  1  1
  3  2  1  0
  4  3  1  0
  5  4  2  0
  6  7  1  0
  6  5  1  0
  7  8  2  0
  8  4  1  0
  9  2  1  0
  9 10  2  0
 11  9  1  0
 12 11  1  0
 12 13  1  6
 13 14  1  0
 14 18  1  0
 14 15  2  0
 15 16  1  0
 17 16  1  0
 18 17  2  0
 19 12  1  0
 20 19  2  0
 22 21  1  0
 23 22  1  1
 23 24  1  0
 24 19  1  0
 25 23  1  0
 25 27  1  0
 26 25  2  0
M  END
$$$$
