HHS.pdb
     RDKit          3D

 27 28  0  0  1  0  0  0  0  0999 V2000
    9.0573  -17.5976   12.7126 N   0  0  0  0  0  0  0  0  0  0  0  0
   10.4478  -17.5552   13.0928 C   0  0  1  0  0  0  0  0  0  0  0  0
   10.7119  -16.1663   13.6462 C   0  0  0  0  0  0  0  0  0  0  0  0
   10.5932  -15.1190   12.6045 C   0  0  0  0  0  0  0  0  0  0  0  0
   11.6280  -14.3206   12.1236 C   0  0  0  0  0  0  0  0  0  0  0  0
   11.1358  -13.5015   11.1986 N   0  0  0  0  0  0  0  0  0  0  0  0
    9.8164  -13.7351   11.0568 C   0  0  0  0  0  0  0  0  0  0  0  0
    9.5052  -14.7222   11.9203 N   0  0  0  0  0  0  0  0  0  0  0  0
   10.7544  -18.5274   14.1783 C   0  0  0  0  0  0  0  0  0  0  0  0
    9.8475  -18.8292   15.0043 O   0  0  0  0  0  0  0  0  0  0  0  0
   12.0162  -19.1457   14.3476 N   0  0  0  0  0  0  0  0  0  0  0  0
   12.3459  -20.1548   15.2959 C   0  0  1  0  0  0  0  0  0  0  0  0
   12.9916  -21.3835   14.7772 C   0  0  0  0  0  0  0  0  0  0  0  0
   12.2751  -22.0763   13.6874 C   0  0  0  0  0  0  0  0  0  0  0  0
   10.9295  -22.2432   13.4465 C   0  0  0  0  0  0  0  0  0  0  0  0
   10.7838  -22.9756   12.3072 N   0  0  0  0  0  0  0  0  0  0  0  0
   12.0063  -23.2681   11.8346 C   0  0  0  0  0  0  0  0  0  0  0  0
   12.8898  -22.7333   12.6553 N   0  0  0  0  0  0  0  0  0  0  0  0
   13.1796  -19.5074   16.3692 C   0  0  0  0  0  0  0  0  0  0  0  0
   14.0378  -18.6232   16.1180 O   0  0  0  0  0  0  0  0  0  0  0  0
   12.8281  -20.6841   20.4982 O   0  0  0  0  0  0  0  0  0  0  0  0
   13.0600  -19.3802   20.1409 C   0  0  0  0  0  0  0  0  0  0  0  0
   13.7712  -19.2300   18.8161 C   0  0  2  0  0  0  0  0  0  0  0  0
   13.0381  -19.8665   17.7369 N   0  0  0  0  0  0  0  0  0  0  0  0
   15.1742  -19.6085   18.8624 C   0  0  0  0  0  0  0  0  0  0  0  0
   15.6315  -20.4559   18.0695 O   0  0  0  0  0  0  0  0  0  0  0  0
   16.0265  -19.0375   19.7842 O   0  0  0  0  0  0  0  0  0  0  0  0
  2  1  1  1
  3  2  1  0
  4  3  1  0
  5  4  2  0
  6  7  1  0
  6  5  1  0
  7  8  2  0
  8  4  1  0
  9  2  1  0
  9 10  2  0
 11  9  1  0
 12 11  1  0
 12 13  1  6
 13 14  1  0
 14 18  1  0
 14 15  2  0
 15 16  1  0
 17 16  1  0
 18 17  2  0
 19 12  1  0
 20 19  2  0
 22 21  1  0
 23 22  1  1
 23 24  1  0
 24 19  1  0
 25 23  1  0
 25 27  1  0
 26 25  2  0
M  END
$$$$
