HHS.pdb
     RDKit          3D

 27 28  0  0  1  0  0  0  0  0999 V2000
    7.9505  -16.9588   19.7710 N   0  0  0  0  0  0  0  0  0  0  0  0
    8.8973  -16.5288   20.7702 C   0  0  1  0  0  0  0  0  0  0  0  0
    8.2502  -15.3829   21.5274 C   0  0  0  0  0  0  0  0  0  0  0  0
    8.2519  -14.1252   20.7437 C   0  0  0  0  0  0  0  0  0  0  0  0
    8.8057  -13.9491   19.4780 C   0  0  0  0  0  0  0  0  0  0  0  0
    8.6115  -12.6881   19.1027 N   0  0  0  0  0  0  0  0  0  0  0  0
    7.9507  -12.0326   20.0769 C   0  0  0  0  0  0  0  0  0  0  0  0
    7.7410  -12.9235   21.0665 N   0  0  0  0  0  0  0  0  0  0  0  0
    9.1841  -17.6041   21.7595 C   0  0  0  0  0  0  0  0  0  0  0  0
    8.2948  -17.9151   22.6012 O   0  0  0  0  0  0  0  0  0  0  0  0
   10.4081  -18.3123   21.8195 N   0  0  0  0  0  0  0  0  0  0  0  0
   10.7426  -19.3522   22.7321 C   0  0  1  0  0  0  0  0  0  0  0  0
   11.6435  -20.4198   22.2382 C   0  0  0  0  0  0  0  0  0  0  0  0
   11.0532  -21.3616   21.2659 C   0  0  0  0  0  0  0  0  0  0  0  0
    9.7594  -21.5155   20.8200 C   0  0  0  0  0  0  0  0  0  0  0  0
    9.7318  -22.5421   19.9250 N   0  0  0  0  0  0  0  0  0  0  0  0
   10.9770  -23.0300   19.8042 C   0  0  0  0  0  0  0  0  0  0  0  0
   11.7597  -22.3278   20.6009 N   0  0  0  0  0  0  0  0  0  0  0  0
   11.2914  -18.7009   23.9735 C   0  0  0  0  0  0  0  0  0  0  0  0
   11.7428  -17.5272   23.9785 O   0  0  0  0  0  0  0  0  0  0  0  0
    9.6102  -17.6997   27.0595 O   0  0  0  0  0  0  0  0  0  0  0  0
   10.9205  -17.4872   26.7139 C   0  0  0  0  0  0  0  0  0  0  0  0
   11.6997  -18.7591   26.4723 C   0  0  2  0  0  0  0  0  0  0  0  0
   11.3282  -19.3872   25.2174 N   0  0  0  0  0  0  0  0  0  0  0  0
   11.6854  -19.6742   27.6020 C   0  0  0  0  0  0  0  0  0  0  0  0
   12.1206  -19.3179   28.7154 O   0  0  0  0  0  0  0  0  0  0  0  0
   11.1900  -20.9539   27.4640 O   0  0  0  0  0  0  0  0  0  0  0  0
  2  1  1  6
  3  2  1  0
  4  3  1  0
  5  4  2  0
  6  7  1  0
  6  5  1  0
  7  8  2  0
  8  4  1  0
  9  2  1  0
  9 10  2  0
 11  9  1  0
 12 11  1  0
 12 13  1  6
 13 14  1  0
 14 18  1  0
 14 15  2  0
 15 16  1  0
 17 16  1  0
 18 17  2  0
 19 12  1  0
 20 19  2  0
 22 21  1  0
 23 22  1  1
 23 24  1  0
 24 19  1  0
 25 23  1  0
 25 27  1  0
 26 25  2  0
M  END
$$$$
