QFE.pdb
     RDKit          3D

 30 30  0  0  1  0  0  0  0  0999 V2000
    7.9043  -12.7514   17.9054 N   0  0  0  0  0  0  0  0  0  0  0  0
    7.9811  -14.0056   17.2540 C   0  0  0  0  0  0  0  0  0  0  0  0
    7.3226  -14.1819   16.2083 O   0  0  0  0  0  0  0  0  0  0  0  0
    8.8198  -15.1084   17.7806 C   0  0  0  0  0  0  0  0  0  0  0  0
    9.5498  -14.6682   19.0064 C   0  0  0  0  0  0  0  0  0  0  0  0
    9.6144  -15.7000   20.0800 C   0  0  2  0  0  0  0  0  0  0  0  0
    8.5855  -16.7099   19.9681 N   0  0  0  0  0  0  0  0  0  0  0  0
    9.5251  -14.9817   21.3935 C   0  0  0  0  0  0  0  0  0  0  0  0
   10.4441  -14.1215   21.5929 O   0  0  0  0  0  0  0  0  0  0  0  0
    8.5095  -15.2286   22.3428 N   0  0  0  0  0  0  0  0  0  0  0  0
    8.4666  -14.5221   23.5822 C   0  0  1  0  0  0  0  0  0  0  0  0
    7.0796  -14.0477   23.9456 C   0  0  0  0  0  0  0  0  0  0  0  0
    7.0354  -13.3280   25.2241 C   0  0  0  0  0  0  0  0  0  0  0  0
    6.3502  -13.8644   26.2824 C   0  0  0  0  0  0  0  0  0  0  0  0
    6.3293  -13.1560   27.4760 C   0  0  0  0  0  0  0  0  0  0  0  0
    6.9701  -11.9455   27.6221 C   0  0  0  0  0  0  0  0  0  0  0  0
    7.6577  -11.4099   26.5557 C   0  0  0  0  0  0  0  0  0  0  0  0
    7.6804  -12.1219   25.3511 C   0  0  0  0  0  0  0  0  0  0  0  0
    8.9558  -15.3542   24.7239 C   0  0  0  0  0  0  0  0  0  0  0  0
    8.9564  -14.8794   25.8711 O   0  0  0  0  0  0  0  0  0  0  0  0
    9.4119  -16.6569   24.5226 N   0  0  0  0  0  0  0  0  0  0  0  0
    9.8472  -17.5680   25.5799 C   0  0  1  0  0  0  0  0  0  0  0  0
    9.4402  -18.9624   25.3172 C   0  0  0  0  0  0  0  0  0  0  0  0
   10.2047  -19.5429   24.1613 C   0  0  0  0  0  0  0  0  0  0  0  0
    9.8652  -20.9819   23.9522 C   0  0  0  0  0  0  0  0  0  0  0  0
   10.7431  -21.7255   23.4586 O   0  0  0  0  0  0  0  0  0  0  0  0
   11.2890  -17.3416   25.7500 C   0  0  0  0  0  0  0  0  0  0  0  0
   11.9785  -17.8173   26.8627 O   0  0  0  0  0  0  0  0  0  0  0  0
    8.6399  -21.5152   24.2772 O   0  0  0  0  0  0  0  0  0  0  0  0
   11.9683  -16.7154   24.9128 O   0  0  0  0  0  0  0  0  0  0  0  0
  2  1  1  0
  3  2  2  0
  4  2  1  0
  5  4  1  0
  6  5  1  0
  6  7  1  6
  8  6  1  0
  8  9  2  0
 10  8  1  0
 11 10  1  0
 11 12  1  1
 13 14  2  0
 13 12  1  0
 15 14  1  0
 16 15  2  0
 17 16  1  0
 17 18  2  0
 18 13  1  0
 19 11  1  0
 20 19  2  0
 21 19  1  0
 22 23  1  6
 22 21  1  0
 24 25  1  0
 24 23  1  0
 25 29  1  0
 26 25  2  0
 27 22  1  0
 27 28  1  0
 30 27  2  0
M  END
$$$$
