QFE.pdb
     RDKit          3D

 30 30  0  0  1  0  0  0  0  0999 V2000
    8.9501  -12.6690   16.7839 N   0  0  0  0  0  0  0  0  0  0  0  0
    8.1048  -13.7868   16.5854 C   0  0  0  0  0  0  0  0  0  0  0  0
    7.3955  -13.8302   15.5593 O   0  0  0  0  0  0  0  0  0  0  0  0
    8.0422  -14.9008   17.5612 C   0  0  0  0  0  0  0  0  0  0  0  0
    8.9648  -14.6428   18.7065 C   0  0  0  0  0  0  0  0  0  0  0  0
    8.9741  -15.7210   19.7354 C   0  0  2  0  0  0  0  0  0  0  0  0
    7.8832  -16.6595   19.5932 N   0  0  0  0  0  0  0  0  0  0  0  0
    8.9412  -15.0546   21.0786 C   0  0  0  0  0  0  0  0  0  0  0  0
    9.9251  -14.2787   21.3117 O   0  0  0  0  0  0  0  0  0  0  0  0
    7.9089  -15.2610   22.0195 N   0  0  0  0  0  0  0  0  0  0  0  0
    8.0024  -14.7444   23.3467 C   0  0  1  0  0  0  0  0  0  0  0  0
    6.7070  -14.1464   23.8419 C   0  0  0  0  0  0  0  0  0  0  0  0
    6.8221  -13.5551   25.1805 C   0  0  0  0  0  0  0  0  0  0  0  0
    7.4690  -12.3581   25.3411 C   0  0  0  0  0  0  0  0  0  0  0  0
    7.5593  -11.8289   26.6213 C   0  0  0  0  0  0  0  0  0  0  0  0
    7.0233  -12.4665   27.7183 C   0  0  0  0  0  0  0  0  0  0  0  0
    6.3738  -13.6697   27.5523 C   0  0  0  0  0  0  0  0  0  0  0  0
    6.2813  -14.2055   26.2628 C   0  0  0  0  0  0  0  0  0  0  0  0
    8.4040  -15.7929   24.3340 C   0  0  0  0  0  0  0  0  0  0  0  0
    7.6448  -16.7506   24.5526 O   0  0  0  0  0  0  0  0  0  0  0  0
    9.6189  -15.7139   25.0147 N   0  0  0  0  0  0  0  0  0  0  0  0
   10.3083  -16.8427   25.6377 C   0  0  1  0  0  0  0  0  0  0  0  0
   11.5065  -17.2522   24.8789 C   0  0  0  0  0  0  0  0  0  0  0  0
   12.6912  -16.3980   25.2318 C   0  0  0  0  0  0  0  0  0  0  0  0
   13.8278  -16.6289   24.2913 C   0  0  0  0  0  0  0  0  0  0  0  0
   14.8607  -15.9372   24.4393 O   0  0  0  0  0  0  0  0  0  0  0  0
   10.5348  -16.4635   27.0391 C   0  0  0  0  0  0  0  0  0  0  0  0
   10.9261  -17.3968   27.9960 O   0  0  0  0  0  0  0  0  0  0  0  0
   13.7838  -17.5609   23.2810 O   0  0  0  0  0  0  0  0  0  0  0  0
   10.3896  -15.2934   27.4444 O   0  0  0  0  0  0  0  0  0  0  0  0
  2  1  1  0
  3  2  2  0
  4  2  1  0
  5  4  1  0
  6  5  1  0
  6  7  1  6
  8  6  1  0
  8  9  2  0
 10  8  1  0
 11 10  1  0
 11 12  1  1
 13 14  2  0
 13 12  1  0
 15 14  1  0
 16 15  2  0
 17 16  1  0
 17 18  2  0
 18 13  1  0
 19 11  1  0
 20 19  2  0
 21 19  1  0
 22 23  1  6
 22 21  1  0
 24 25  1  0
 24 23  1  0
 25 29  1  0
 26 25  2  0
 27 22  1  0
 27 28  1  0
 30 27  2  0
M  END
$$$$
