QFE.pdb
     RDKit          3D

 30 30  0  0  1  0  0  0  0  0999 V2000
   10.3060  -20.5937   20.9113 N   0  0  0  0  0  0  0  0  0  0  0  0
    9.7769  -20.3820   19.6157 C   0  0  0  0  0  0  0  0  0  0  0  0
    9.7093  -21.3480   18.8281 O   0  0  0  0  0  0  0  0  0  0  0  0
    9.3039  -19.0484   19.1742 C   0  0  0  0  0  0  0  0  0  0  0  0
    9.4156  -18.0608   20.2885 C   0  0  0  0  0  0  0  0  0  0  0  0
    8.8868  -16.7072   19.9574 C   0  0  2  0  0  0  0  0  0  0  0  0
    9.5489  -16.0928   18.8282 N   0  0  0  0  0  0  0  0  0  0  0  0
    9.0242  -15.8624   21.1889 C   0  0  0  0  0  0  0  0  0  0  0  0
   10.2219  -15.7057   21.5956 O   0  0  0  0  0  0  0  0  0  0  0  0
    7.9234  -15.2807   21.8548 N   0  0  0  0  0  0  0  0  0  0  0  0
    8.0698  -14.6768   23.1397 C   0  0  1  0  0  0  0  0  0  0  0  0
    6.8090  -14.0003   23.6231 C   0  0  0  0  0  0  0  0  0  0  0  0
    6.9679  -13.3587   24.9338 C   0  0  0  0  0  0  0  0  0  0  0  0
    6.1800  -13.7529   25.9831 C   0  0  0  0  0  0  0  0  0  0  0  0
    6.3574  -13.1239   27.2079 C   0  0  0  0  0  0  0  0  0  0  0  0
    7.2912  -12.1284   27.3930 C   0  0  0  0  0  0  0  0  0  0  0  0
    8.0810  -11.7352   26.3354 C   0  0  0  0  0  0  0  0  0  0  0  0
    7.9044  -12.3676   25.0995 C   0  0  0  0  0  0  0  0  0  0  0  0
    8.4623  -15.6677   24.1882 C   0  0  0  0  0  0  0  0  0  0  0  0
    7.7258  -16.6406   24.4171 O   0  0  0  0  0  0  0  0  0  0  0  0
    9.6435  -15.5183   24.9146 N   0  0  0  0  0  0  0  0  0  0  0  0
   10.2206  -16.5299   25.7984 C   0  0  1  0  0  0  0  0  0  0  0  0
   11.6625  -16.7286   25.5522 C   0  0  0  0  0  0  0  0  0  0  0  0
   11.9036  -17.3408   24.2014 C   0  0  0  0  0  0  0  0  0  0  0  0
   13.3623  -17.5243   23.9398 C   0  0  0  0  0  0  0  0  0  0  0  0
   14.1668  -17.1662   24.8296 O   0  0  0  0  0  0  0  0  0  0  0  0
    9.8509  -16.1403   27.1661 C   0  0  0  0  0  0  0  0  0  0  0  0
    9.5513  -14.8208   27.4958 O   0  0  0  0  0  0  0  0  0  0  0  0
   13.8498  -18.0650   22.7731 O   0  0  0  0  0  0  0  0  0  0  0  0
    9.7862  -16.9649   28.0990 O   0  0  0  0  0  0  0  0  0  0  0  0
  2  1  1  0
  3  2  2  0
  4  2  1  0
  5  4  1  0
  6  5  1  0
  6  7  1  6
  8  6  1  0
  8  9  2  0
 10  8  1  0
 11 10  1  0
 11 12  1  1
 13 14  2  0
 13 12  1  0
 15 14  1  0
 16 15  2  0
 17 16  1  0
 17 18  2  0
 18 13  1  0
 19 11  1  0
 20 19  2  0
 21 19  1  0
 22 23  1  1
 22 21  1  0
 24 25  1  0
 24 23  1  0
 25 29  1  0
 26 25  2  0
 27 22  1  0
 27 28  1  0
 30 27  2  0
M  END
$$$$
