QFE.pdb
     RDKit          3D

 30 30  0  0  1  0  0  0  0  0999 V2000
    8.3651  -12.5257   17.1885 N   0  0  0  0  0  0  0  0  0  0  0  0
    8.1279  -13.9078   16.9960 C   0  0  0  0  0  0  0  0  0  0  0  0
    8.5142  -14.4427   15.9365 O   0  0  0  0  0  0  0  0  0  0  0  0
    7.4358  -14.7303   18.0165 C   0  0  0  0  0  0  0  0  0  0  0  0
    8.0165  -14.4797   19.3691 C   0  0  0  0  0  0  0  0  0  0  0  0
    8.1583  -15.7042   20.2069 C   0  0  2  0  0  0  0  0  0  0  0  0
    6.9364  -16.4698   20.3159 N   0  0  0  0  0  0  0  0  0  0  0  0
    8.6429  -15.2660   21.5569 C   0  0  0  0  0  0  0  0  0  0  0  0
    9.8076  -14.7484   21.5619 O   0  0  0  0  0  0  0  0  0  0  0  0
    7.8802  -15.4091   22.7365 N   0  0  0  0  0  0  0  0  0  0  0  0
    8.4249  -15.0825   24.0147 C   0  0  1  0  0  0  0  0  0  0  0  0
    7.3666  -14.8234   25.0606 C   0  0  0  0  0  0  0  0  0  0  0  0
    7.9220  -14.3534   26.3355 C   0  0  0  0  0  0  0  0  0  0  0  0
    8.3276  -15.2631   27.2764 C   0  0  0  0  0  0  0  0  0  0  0  0
    8.8474  -14.7827   28.4706 C   0  0  0  0  0  0  0  0  0  0  0  0
    8.9645  -13.4351   28.7305 C   0  0  0  0  0  0  0  0  0  0  0  0
    8.5556  -12.5242   27.7818 C   0  0  0  0  0  0  0  0  0  0  0  0
    8.0311  -13.0056   26.5770 C   0  0  0  0  0  0  0  0  0  0  0  0
    9.3072  -16.1661   24.5465 C   0  0  0  0  0  0  0  0  0  0  0  0
    8.8688  -17.3244   24.6343 O   0  0  0  0  0  0  0  0  0  0  0  0
   10.6164  -15.8982   24.9459 N   0  0  0  0  0  0  0  0  0  0  0  0
   11.6596  -16.9045   25.1371 C   0  0  1  0  0  0  0  0  0  0  0  0
   12.9226  -16.5323   24.4698 C   0  0  0  0  0  0  0  0  0  0  0  0
   13.9981  -17.5467   24.7380 C   0  0  0  0  0  0  0  0  0  0  0  0
   15.2847  -17.1609   24.0857 C   0  0  0  0  0  0  0  0  0  0  0  0
   15.6324  -15.9595   24.1404 O   0  0  0  0  0  0  0  0  0  0  0  0
   11.7439  -17.1396   26.5851 C   0  0  0  0  0  0  0  0  0  0  0  0
   11.9522  -16.0973   27.4851 O   0  0  0  0  0  0  0  0  0  0  0  0
   16.0926  -18.0638   23.4350 O   0  0  0  0  0  0  0  0  0  0  0  0
   11.6341  -18.2775   27.0826 O   0  0  0  0  0  0  0  0  0  0  0  0
  2  1  1  0
  3  2  2  0
  4  2  1  0
  5  4  1  0
  6  5  1  0
  6  7  1  1
  8  6  1  0
  8  9  2  0
 10  8  1  0
 11 10  1  0
 11 12  1  1
 13 14  2  0
 13 12  1  0
 15 14  1  0
 16 15  2  0
 17 16  1  0
 17 18  2  0
 18 13  1  0
 19 11  1  0
 20 19  2  0
 21 19  1  0
 22 23  1  1
 22 21  1  0
 24 25  1  0
 24 23  1  0
 25 29  1  0
 26 25  2  0
 27 22  1  0
 27 28  1  0
 30 27  2  0
M  END
$$$$
