QFE.pdb
     RDKit          3D

 30 30  0  0  1  0  0  0  0  0999 V2000
    8.4865  -20.2002   21.5992 N   0  0  0  0  0  0  0  0  0  0  0  0
    9.2535  -20.1209   20.4122 C   0  0  0  0  0  0  0  0  0  0  0  0
    9.8707  -21.1347   20.0258 O   0  0  0  0  0  0  0  0  0  0  0  0
    9.3410  -18.8702   19.6217 C   0  0  0  0  0  0  0  0  0  0  0  0
    8.4559  -17.8202   20.2080 C   0  0  0  0  0  0  0  0  0  0  0  0
    8.9336  -16.4264   19.9832 C   0  0  2  0  0  0  0  0  0  0  0  0
   10.1814  -16.3576   19.2557 N   0  0  0  0  0  0  0  0  0  0  0  0
    9.0567  -15.7758   21.3288 C   0  0  0  0  0  0  0  0  0  0  0  0
   10.2057  -15.8849   21.8694 O   0  0  0  0  0  0  0  0  0  0  0  0
    7.9929  -15.0934   21.9583 N   0  0  0  0  0  0  0  0  0  0  0  0
    8.1346  -14.5510   23.2709 C   0  0  1  0  0  0  0  0  0  0  0  0
    6.9788  -13.6663   23.6739 C   0  0  0  0  0  0  0  0  0  0  0  0
    7.0803  -13.1831   25.0563 C   0  0  0  0  0  0  0  0  0  0  0  0
    8.0953  -12.3316   25.4055 C   0  0  0  0  0  0  0  0  0  0  0  0
    8.1606  -11.8952   26.7217 C   0  0  0  0  0  0  0  0  0  0  0  0
    7.2449  -12.2902   27.6719 C   0  0  0  0  0  0  0  0  0  0  0  0
    6.2262  -13.1463   27.3165 C   0  0  0  0  0  0  0  0  0  0  0  0
    6.1580  -13.5878   25.9902 C   0  0  0  0  0  0  0  0  0  0  0  0
    8.2518  -15.6168   24.3129 C   0  0  0  0  0  0  0  0  0  0  0  0
    7.2655  -16.3218   24.5808 O   0  0  0  0  0  0  0  0  0  0  0  0
    9.4517  -15.8334   24.9901 N   0  0  0  0  0  0  0  0  0  0  0  0
    9.7359  -16.9805   25.8510 C   0  0  1  0  0  0  0  0  0  0  0  0
   10.7651  -17.8685   25.2753 C   0  0  0  0  0  0  0  0  0  0  0  0
   12.0905  -17.1684   25.1719 C   0  0  0  0  0  0  0  0  0  0  0  0
   13.0169  -17.8909   24.2501 C   0  0  0  0  0  0  0  0  0  0  0  0
   14.1981  -17.4844   24.1693 O   0  0  0  0  0  0  0  0  0  0  0  0
   10.0325  -16.4325   27.1816 C   0  0  0  0  0  0  0  0  0  0  0  0
   10.1610  -17.2533   28.2994 O   0  0  0  0  0  0  0  0  0  0  0  0
   12.6268  -18.9726   23.4958 O   0  0  0  0  0  0  0  0  0  0  0  0
   10.1842  -15.2111   27.3803 O   0  0  0  0  0  0  0  0  0  0  0  0
  2  1  1  0
  3  2  2  0
  4  2  1  0
  5  4  1  0
  6  5  1  0
  6  7  1  1
  8  6  1  0
  8  9  2  0
 10  8  1  0
 11 10  1  0
 11 12  1  1
 13 14  2  0
 13 12  1  0
 15 14  1  0
 16 15  2  0
 17 16  1  0
 17 18  2  0
 18 13  1  0
 19 11  1  0
 20 19  2  0
 21 19  1  0
 22 23  1  6
 22 21  1  0
 24 25  1  0
 24 23  1  0
 25 29  1  0
 26 25  2  0
 27 22  1  0
 27 28  1  0
 30 27  2  0
M  END
$$$$
