QFE.pdb
     RDKit          3D

 30 30  0  0  1  0  0  0  0  0999 V2000
    6.5126  -18.6368   19.4681 N   0  0  0  0  0  0  0  0  0  0  0  0
    7.5634  -19.4255   18.9416 C   0  0  0  0  0  0  0  0  0  0  0  0
    7.3218  -20.1869   17.9825 O   0  0  0  0  0  0  0  0  0  0  0  0
    8.9358  -19.3692   19.4985 C   0  0  0  0  0  0  0  0  0  0  0  0
    9.0046  -18.3814   20.6160 C   0  0  0  0  0  0  0  0  0  0  0  0
    9.1064  -16.9631   20.1694 C   0  0  2  0  0  0  0  0  0  0  0  0
   10.2263  -16.7178   19.2882 N   0  0  0  0  0  0  0  0  0  0  0  0
    9.1933  -16.1135   21.4022 C   0  0  0  0  0  0  0  0  0  0  0  0
   10.3716  -15.9672   21.8655 O   0  0  0  0  0  0  0  0  0  0  0  0
    8.0679  -15.5170   22.0117 N   0  0  0  0  0  0  0  0  0  0  0  0
    8.1796  -14.8218   23.2531 C   0  0  1  0  0  0  0  0  0  0  0  0
    6.9186  -14.0825   23.6331 C   0  0  0  0  0  0  0  0  0  0  0  0
    7.0272  -13.3859   24.9206 C   0  0  0  0  0  0  0  0  0  0  0  0
    6.2117  -13.7485   25.9602 C   0  0  0  0  0  0  0  0  0  0  0  0
    6.3417  -13.0677   27.1630 C   0  0  0  0  0  0  0  0  0  0  0  0
    7.2558  -12.0520   27.3361 C   0  0  0  0  0  0  0  0  0  0  0  0
    8.0735  -11.6907   26.2884 C   0  0  0  0  0  0  0  0  0  0  0  0
    7.9446  -12.3753   25.0746 C   0  0  0  0  0  0  0  0  0  0  0  0
    8.5053  -15.7397   24.3874 C   0  0  0  0  0  0  0  0  0  0  0  0
    7.7693  -16.7126   24.6181 O   0  0  0  0  0  0  0  0  0  0  0  0
    9.6237  -15.5221   25.1919 N   0  0  0  0  0  0  0  0  0  0  0  0
   10.2426  -16.5228   26.0597 C   0  0  1  0  0  0  0  0  0  0  0  0
   11.6874  -16.6725   25.7965 C   0  0  0  0  0  0  0  0  0  0  0  0
   11.9495  -17.7854   24.8216 C   0  0  0  0  0  0  0  0  0  0  0  0
   13.4079  -17.9222   24.5315 C   0  0  0  0  0  0  0  0  0  0  0  0
   14.1952  -17.1322   25.1002 O   0  0  0  0  0  0  0  0  0  0  0  0
    9.8753  -16.1583   27.4349 C   0  0  0  0  0  0  0  0  0  0  0  0
    9.8935  -17.0909   28.4692 O   0  0  0  0  0  0  0  0  0  0  0  0
   13.9132  -18.8713   23.6740 O   0  0  0  0  0  0  0  0  0  0  0  0
    9.5296  -15.0020   27.7478 O   0  0  0  0  0  0  0  0  0  0  0  0
  2  1  1  0
  3  2  2  0
  4  2  1  0
  5  4  1  0
  6  5  1  0
  6  7  1  6
  8  6  1  0
  8  9  2  0
 10  8  1  0
 11 10  1  0
 11 12  1  1
 13 14  2  0
 13 12  1  0
 15 14  1  0
 16 15  2  0
 17 16  1  0
 17 18  2  0
 18 13  1  0
 19 11  1  0
 20 19  2  0
 21 19  1  0
 22 23  1  1
 22 21  1  0
 24 25  1  0
 24 23  1  0
 25 29  1  0
 26 25  2  0
 27 22  1  0
 27 28  1  0
 30 27  2  0
M  END
$$$$
