QFE.pdb
     RDKit          3D

 30 30  0  0  1  0  0  0  0  0999 V2000
    6.6790  -17.8756   18.9257 N   0  0  0  0  0  0  0  0  0  0  0  0
    7.9706  -17.3257   18.7444 C   0  0  0  0  0  0  0  0  0  0  0  0
    8.8502  -18.0228   18.1981 O   0  0  0  0  0  0  0  0  0  0  0  0
    8.3018  -15.9499   19.1852 C   0  0  0  0  0  0  0  0  0  0  0  0
    7.0998  -15.2875   19.7732 C   0  0  0  0  0  0  0  0  0  0  0  0
    7.3807  -13.9678   20.4064 C   0  0  2  0  0  0  0  0  0  0  0  0
    8.1686  -13.0873   19.5728 N   0  0  0  0  0  0  0  0  0  0  0  0
    8.0712  -14.2377   21.7101 C   0  0  0  0  0  0  0  0  0  0  0  0
    9.3413  -14.1400   21.6696 O   0  0  0  0  0  0  0  0  0  0  0  0
    7.3818  -14.5743   22.8954 N   0  0  0  0  0  0  0  0  0  0  0  0
    8.0827  -14.8377   24.1105 C   0  0  1  0  0  0  0  0  0  0  0  0
    7.1917  -14.7952   25.3292 C   0  0  0  0  0  0  0  0  0  0  0  0
    6.9077  -13.4293   25.7857 C   0  0  0  0  0  0  0  0  0  0  0  0
    5.6247  -13.0743   26.1101 C   0  0  0  0  0  0  0  0  0  0  0  0
    5.3930  -11.7741   26.5375 C   0  0  0  0  0  0  0  0  0  0  0  0
    6.4045  -10.8450   26.6426 C   0  0  0  0  0  0  0  0  0  0  0  0
    7.6928  -11.2062   26.3155 C   0  0  0  0  0  0  0  0  0  0  0  0
    7.9293  -12.5164   25.8842 C   0  0  0  0  0  0  0  0  0  0  0  0
    8.7452  -16.1779   24.1013 C   0  0  0  0  0  0  0  0  0  0  0  0
    8.5177  -16.9668   23.1700 O   0  0  0  0  0  0  0  0  0  0  0  0
    9.6162  -16.5581   25.1223 N   0  0  0  0  0  0  0  0  0  0  0  0
   10.7776  -17.4302   24.9552 C   0  0  1  0  0  0  0  0  0  0  0  0
   11.6337  -17.0095   23.8286 C   0  0  0  0  0  0  0  0  0  0  0  0
   12.8730  -17.8547   23.7429 C   0  0  0  0  0  0  0  0  0  0  0  0
   13.8555  -17.2830   22.7746 C   0  0  0  0  0  0  0  0  0  0  0  0
   13.6461  -17.4610   21.5533 O   0  0  0  0  0  0  0  0  0  0  0  0
   11.4329  -17.4986   26.2685 C   0  0  0  0  0  0  0  0  0  0  0  0
   12.1735  -18.6111   26.6602 O   0  0  0  0  0  0  0  0  0  0  0  0
   14.9681  -16.5769   23.1683 O   0  0  0  0  0  0  0  0  0  0  0  0
   11.3617  -16.5701   27.0976 O   0  0  0  0  0  0  0  0  0  0  0  0
  2  1  1  0
  3  2  2  0
  4  2  1  0
  5  4  1  0
  6  5  1  0
  6  7  1  6
  8  6  1  0
  8  9  2  0
 10  8  1  0
 11 10  1  0
 11 12  1  1
 13 14  2  0
 13 12  1  0
 15 14  1  0
 16 15  2  0
 17 16  1  0
 17 18  2  0
 18 13  1  0
 19 11  1  0
 20 19  2  0
 21 19  1  0
 22 23  1  6
 22 21  1  0
 24 25  1  0
 24 23  1  0
 25 29  1  0
 26 25  2  0
 27 22  1  0
 27 28  1  0
 30 27  2  0
M  END
$$$$
