FHG.pdb
     RDKit          3D

 26 27  0  0  1  0  0  0  0  0999 V2000
    5.9234  -16.6094   24.6312 N   0  0  0  0  0  0  0  0  0  0  0  0
    6.9811  -15.6792   24.4237 C   0  0  1  0  0  0  0  0  0  0  0  0
    7.6585  -15.2152   25.6725 C   0  0  0  0  0  0  0  0  0  0  0  0
    7.2807  -13.8960   26.1415 C   0  0  0  0  0  0  0  0  0  0  0  0
    8.0408  -12.7530   25.9325 C   0  0  0  0  0  0  0  0  0  0  0  0
    7.6230  -11.5294   26.4056 C   0  0  0  0  0  0  0  0  0  0  0  0
    6.4356  -11.4265   27.0974 C   0  0  0  0  0  0  0  0  0  0  0  0
    5.6638  -12.5492   27.3169 C   0  0  0  0  0  0  0  0  0  0  0  0
    6.0824  -13.7769   26.8425 C   0  0  0  0  0  0  0  0  0  0  0  0
    8.0074  -16.3097   23.5619 C   0  0  0  0  0  0  0  0  0  0  0  0
    8.0172  -17.5561   23.4490 O   0  0  0  0  0  0  0  0  0  0  0  0
    8.9819  -15.5629   22.8573 N   0  0  0  0  0  0  0  0  0  0  0  0
    9.7712  -16.2272   21.8427 C   0  0  1  0  0  0  0  0  0  0  0  0
   10.0502  -15.2659   20.7082 C   0  0  0  0  0  0  0  0  0  0  0  0
    8.8351  -14.7208   20.0801 C   0  0  0  0  0  0  0  0  0  0  0  0
    7.7667  -15.4701   19.5769 C   0  0  0  0  0  0  0  0  0  0  0  0
    6.8363  -14.6632   19.0803 N   0  0  0  0  0  0  0  0  0  0  0  0
    7.2574  -13.3963   19.2398 C   0  0  0  0  0  0  0  0  0  0  0  0
    8.4578  -13.4418   19.8407 N   0  0  0  0  0  0  0  0  0  0  0  0
   11.0770  -16.6866   22.3898 C   0  0  0  0  0  0  0  0  0  0  0  0
   11.8338  -17.3901   21.6843 O   0  0  0  0  0  0  0  0  0  0  0  0
   11.5123  -16.3574   23.7007 N   0  0  0  0  0  0  0  0  0  0  0  0
   12.6926  -17.0036   24.2944 C   0  0  0  0  0  0  0  0  0  0  0  0
   13.9078  -16.2361   24.0078 C   0  0  0  0  0  0  0  0  0  0  0  0
   15.0910  -16.6078   24.6226 O   0  0  0  0  0  0  0  0  0  0  0  0
   13.9099  -15.2562   23.2256 O   0  0  0  0  0  0  0  0  0  0  0  0
  2  1  1  1
  2 10  1  0
  3  2  1  0
  4  9  1  0
  4  3  1  0
  5  4  2  0
  6  7  2  0
  6  5  1  0
  7  8  1  0
  8  9  2  0
 10 11  2  0
 10 12  1  0
 12 13  1  0
 13 14  1  6
 14 15  1  0
 15 16  2  0
 15 19  1  0
 16 17  1  0
 17 18  1  0
 19 18  2  0
 20 21  2  0
 20 13  1  0
 22 20  1  0
 23 22  1  0
 23 24  1  0
 24 25  1  0
 26 24  2  0
M  END
$$$$
