FHG.pdb
     RDKit          3D

 26 27  0  0  1  0  0  0  0  0999 V2000
    5.8569  -17.5273   24.9665 N   0  0  0  0  0  0  0  0  0  0  0  0
    6.5577  -16.2893   24.9093 C   0  0  1  0  0  0  0  0  0  0  0  0
    6.9513  -15.7328   26.2393 C   0  0  0  0  0  0  0  0  0  0  0  0
    6.8552  -14.2920   26.3730 C   0  0  0  0  0  0  0  0  0  0  0  0
    6.3351  -13.6511   27.4895 C   0  0  0  0  0  0  0  0  0  0  0  0
    6.2730  -12.2771   27.5515 C   0  0  0  0  0  0  0  0  0  0  0  0
    6.7307  -11.5179   26.4965 C   0  0  0  0  0  0  0  0  0  0  0  0
    7.2516  -12.1333   25.3767 C   0  0  0  0  0  0  0  0  0  0  0  0
    7.3142  -13.5116   25.3138 C   0  0  0  0  0  0  0  0  0  0  0  0
    7.7940  -16.4782   24.1160 C   0  0  0  0  0  0  0  0  0  0  0  0
    8.3313  -17.6084   24.0968 O   0  0  0  0  0  0  0  0  0  0  0  0
    8.3978  -15.4337   23.3756 N   0  0  0  0  0  0  0  0  0  0  0  0
    9.4817  -15.7546   22.4724 C   0  0  1  0  0  0  0  0  0  0  0  0
    9.3543  -14.9250   21.2137 C   0  0  0  0  0  0  0  0  0  0  0  0
    8.1803  -15.2675   20.3937 C   0  0  0  0  0  0  0  0  0  0  0  0
    8.1663  -16.1572   19.3147 C   0  0  0  0  0  0  0  0  0  0  0  0
    6.9445  -16.2329   18.8002 N   0  0  0  0  0  0  0  0  0  0  0  0
    6.1447  -15.4166   19.5087 C   0  0  0  0  0  0  0  0  0  0  0  0
    6.8958  -14.8421   20.4624 N   0  0  0  0  0  0  0  0  0  0  0  0
   10.8036  -15.4578   23.0889 C   0  0  0  0  0  0  0  0  0  0  0  0
   11.1770  -14.2707   23.2179 O   0  0  0  0  0  0  0  0  0  0  0  0
   11.6778  -16.4790   23.5463 N   0  0  0  0  0  0  0  0  0  0  0  0
   13.0081  -16.1564   24.0841 C   0  0  0  0  0  0  0  0  0  0  0  0
   13.7850  -17.3760   24.3225 C   0  0  0  0  0  0  0  0  0  0  0  0
   15.0925  -17.2580   24.7612 O   0  0  0  0  0  0  0  0  0  0  0  0
   13.3043  -18.5200   24.1423 O   0  0  0  0  0  0  0  0  0  0  0  0
  2  1  1  1
  2 10  1  0
  3  2  1  0
  4  9  1  0
  4  3  1  0
  5  4  2  0
  6  7  2  0
  6  5  1  0
  7  8  1  0
  8  9  2  0
 10 11  2  0
 10 12  1  0
 12 13  1  0
 13 14  1  6
 14 15  1  0
 15 16  2  0
 15 19  1  0
 16 17  1  0
 17 18  1  0
 19 18  2  0
 20 21  2  0
 20 13  1  0
 22 20  1  0
 23 22  1  0
 23 24  1  0
 24 25  1  0
 26 24  2  0
M  END
$$$$
