FHG.pdb
     RDKit          3D

 26 27  0  0  1  0  0  0  0  0999 V2000
    6.4380  -16.3865   25.6278 N   0  0  0  0  0  0  0  0  0  0  0  0
    6.4906  -15.9211   24.2832 C   0  0  1  0  0  0  0  0  0  0  0  0
    6.3601  -14.4403   24.1296 C   0  0  0  0  0  0  0  0  0  0  0  0
    6.6730  -13.6545   25.3076 C   0  0  0  0  0  0  0  0  0  0  0  0
    5.7793  -13.4256   26.3454 C   0  0  0  0  0  0  0  0  0  0  0  0
    6.1417  -12.6688   27.4369 C   0  0  0  0  0  0  0  0  0  0  0  0
    7.4063  -12.1263   27.5106 C   0  0  0  0  0  0  0  0  0  0  0  0
    8.3110  -12.3407   26.4910 C   0  0  0  0  0  0  0  0  0  0  0  0
    7.9482  -13.0997   25.3957 C   0  0  0  0  0  0  0  0  0  0  0  0
    7.7869  -16.3232   23.6905 C   0  0  0  0  0  0  0  0  0  0  0  0
    8.1922  -17.4945   23.8648 O   0  0  0  0  0  0  0  0  0  0  0  0
    8.5914  -15.4389   22.9327 N   0  0  0  0  0  0  0  0  0  0  0  0
    9.7566  -15.9634   22.2538 C   0  0  1  0  0  0  0  0  0  0  0  0
   10.2297  -14.9680   21.2173 C   0  0  0  0  0  0  0  0  0  0  0  0
    9.1757  -14.5378   20.2835 C   0  0  0  0  0  0  0  0  0  0  0  0
    8.0189  -15.2572   19.9663 C   0  0  0  0  0  0  0  0  0  0  0  0
    7.2848  -14.5798   19.0915 N   0  0  0  0  0  0  0  0  0  0  0  0
    7.9226  -13.4282   18.8180 C   0  0  0  0  0  0  0  0  0  0  0  0
    9.0561  -13.4127   19.5383 N   0  0  0  0  0  0  0  0  0  0  0  0
   10.8743  -16.2031   23.2073 C   0  0  0  0  0  0  0  0  0  0  0  0
   12.0121  -15.7456   22.9593 O   0  0  0  0  0  0  0  0  0  0  0  0
   10.7062  -16.9411   24.4087 N   0  0  0  0  0  0  0  0  0  0  0  0
   11.8539  -17.2619   25.2707 C   0  0  0  0  0  0  0  0  0  0  0  0
   11.4299  -18.0443   26.4352 C   0  0  0  0  0  0  0  0  0  0  0  0
   12.3666  -18.3552   27.4058 O   0  0  0  0  0  0  0  0  0  0  0  0
   10.2490  -18.4399   26.5799 O   0  0  0  0  0  0  0  0  0  0  0  0
  2  1  1  1
  2 10  1  0
  3  2  1  0
  4  9  1  0
  4  3  1  0
  5  4  2  0
  6  7  2  0
  6  5  1  0
  7  8  1  0
  8  9  2  0
 10 11  2  0
 10 12  1  0
 12 13  1  0
 13 14  1  6
 14 15  1  0
 15 16  2  0
 15 19  1  0
 16 17  1  0
 17 18  1  0
 19 18  2  0
 20 21  2  0
 20 13  1  0
 22 20  1  0
 23 22  1  0
 23 24  1  0
 24 25  1  0
 26 24  2  0
M  END
$$$$
