FHG.pdb
     RDKit          3D

 26 27  0  0  1  0  0  0  0  0999 V2000
    5.6248  -16.7497   24.5034 N   0  0  0  0  0  0  0  0  0  0  0  0
    6.6390  -15.7511   24.5400 C   0  0  1  0  0  0  0  0  0  0  0  0
    7.1896  -15.4701   25.9007 C   0  0  0  0  0  0  0  0  0  0  0  0
    6.9959  -14.1197   26.3925 C   0  0  0  0  0  0  0  0  0  0  0  0
    5.8353  -13.6822   27.0166 C   0  0  0  0  0  0  0  0  0  0  0  0
    5.7171  -12.3843   27.4604 C   0  0  0  0  0  0  0  0  0  0  0  0
    6.7590  -11.4990   27.2880 C   0  0  0  0  0  0  0  0  0  0  0  0
    7.9219  -11.9118   26.6705 C   0  0  0  0  0  0  0  0  0  0  0  0
    8.0411  -13.2136   26.2250 C   0  0  0  0  0  0  0  0  0  0  0  0
    7.7639  -16.1830   23.6790 C   0  0  0  0  0  0  0  0  0  0  0  0
    7.9771  -17.4078   23.5348 O   0  0  0  0  0  0  0  0  0  0  0  0
    8.6123  -15.2692   23.0090 N   0  0  0  0  0  0  0  0  0  0  0  0
    9.6847  -15.7864   22.1868 C   0  0  1  0  0  0  0  0  0  0  0  0
   10.0219  -14.7840   21.1049 C   0  0  0  0  0  0  0  0  0  0  0  0
    8.9309  -14.5614   20.1415 C   0  0  0  0  0  0  0  0  0  0  0  0
    7.7568  -15.3153   20.0451 C   0  0  0  0  0  0  0  0  0  0  0  0
    6.9895  -14.8438   19.0693 N   0  0  0  0  0  0  0  0  0  0  0  0
    7.6221  -13.7955   18.5136 C   0  0  0  0  0  0  0  0  0  0  0  0
    8.7861  -13.6344   19.1641 N   0  0  0  0  0  0  0  0  0  0  0  0
   10.9134  -16.0277   22.9915 C   0  0  0  0  0  0  0  0  0  0  0  0
   11.2522  -15.2049   23.8710 O   0  0  0  0  0  0  0  0  0  0  0  0
   11.7351  -17.1705   22.8039 N   0  0  0  0  0  0  0  0  0  0  0  0
   12.8439  -17.4686   23.7231 C   0  0  0  0  0  0  0  0  0  0  0  0
   13.4930  -18.7331   23.3657 C   0  0  0  0  0  0  0  0  0  0  0  0
   14.8514  -18.7327   23.0995 O   0  0  0  0  0  0  0  0  0  0  0  0
   12.8588  -19.8123   23.2935 O   0  0  0  0  0  0  0  0  0  0  0  0
  2  1  1  1
  2 10  1  0
  3  2  1  0
  4  9  1  0
  4  3  1  0
  5  4  2  0
  6  7  2  0
  6  5  1  0
  7  8  1  0
  8  9  2  0
 10 11  2  0
 10 12  1  0
 12 13  1  0
 13 14  1  6
 14 15  1  0
 15 16  2  0
 15 19  1  0
 16 17  1  0
 17 18  1  0
 19 18  2  0
 20 21  2  0
 20 13  1  0
 22 20  1  0
 23 22  1  0
 23 24  1  0
 24 25  1  0
 26 24  2  0
M  END
$$$$
