FHG.pdb
     RDKit          3D

 26 27  0  0  1  0  0  0  0  0999 V2000
    5.6139  -17.1776   24.2107 N   0  0  0  0  0  0  0  0  0  0  0  0
    6.4827  -16.0535   24.3041 C   0  0  1  0  0  0  0  0  0  0  0  0
    6.7805  -15.6089   25.6995 C   0  0  0  0  0  0  0  0  0  0  0  0
    6.8600  -14.1749   25.9006 C   0  0  0  0  0  0  0  0  0  0  0  0
    7.9501  -13.4001   25.5275 C   0  0  0  0  0  0  0  0  0  0  0  0
    7.9605  -12.0411   25.7479 C   0  0  0  0  0  0  0  0  0  0  0  0
    6.8793  -11.4314   26.3464 C   0  0  0  0  0  0  0  0  0  0  0  0
    5.7849  -12.1816   26.7255 C   0  0  0  0  0  0  0  0  0  0  0  0
    5.7738  -13.5448   26.5047 C   0  0  0  0  0  0  0  0  0  0  0  0
    7.7701  -16.3914   23.6544 C   0  0  0  0  0  0  0  0  0  0  0  0
    8.1107  -17.5934   23.5799 O   0  0  0  0  0  0  0  0  0  0  0  0
    8.6362  -15.4120   23.1119 N   0  0  0  0  0  0  0  0  0  0  0  0
    9.7521  -15.8415   22.2971 C   0  0  1  0  0  0  0  0  0  0  0  0
   10.0638  -14.7798   21.2652 C   0  0  0  0  0  0  0  0  0  0  0  0
    8.8943  -14.3575   20.4766 C   0  0  0  0  0  0  0  0  0  0  0  0
    8.0279  -15.2049   19.7784 C   0  0  0  0  0  0  0  0  0  0  0  0
    7.0810  -14.4951   19.1761 N   0  0  0  0  0  0  0  0  0  0  0  0
    7.2944  -13.1972   19.4551 C   0  0  0  0  0  0  0  0  0  0  0  0
    8.3848  -13.1254   20.2360 N   0  0  0  0  0  0  0  0  0  0  0  0
   10.9722  -16.0551   23.1224 C   0  0  0  0  0  0  0  0  0  0  0  0
   12.0619  -16.3158   22.5655 O   0  0  0  0  0  0  0  0  0  0  0  0
   10.9570  -15.9752   24.5401 N   0  0  0  0  0  0  0  0  0  0  0  0
   12.1797  -16.1964   25.3271 C   0  0  0  0  0  0  0  0  0  0  0  0
   12.2867  -17.5976   25.7430 C   0  0  0  0  0  0  0  0  0  0  0  0
   13.2556  -17.9458   26.6682 O   0  0  0  0  0  0  0  0  0  0  0  0
   11.5307  -18.4888   25.2887 O   0  0  0  0  0  0  0  0  0  0  0  0
  2  1  1  1
  2 10  1  0
  3  2  1  0
  4  9  1  0
  4  3  1  0
  5  4  2  0
  6  7  2  0
  6  5  1  0
  7  8  1  0
  8  9  2  0
 10 11  2  0
 10 12  1  0
 12 13  1  0
 13 14  1  6
 14 15  1  0
 15 16  2  0
 15 19  1  0
 16 17  1  0
 17 18  1  0
 19 18  2  0
 20 21  2  0
 20 13  1  0
 22 20  1  0
 23 22  1  0
 23 24  1  0
 24 25  1  0
 26 24  2  0
M  END
$$$$
