FHG.pdb
     RDKit          3D

 26 27  0  0  1  0  0  0  0  0999 V2000
    5.4189  -17.4984   24.0949 N   0  0  0  0  0  0  0  0  0  0  0  0
    6.1311  -16.3072   24.4123 C   0  0  1  0  0  0  0  0  0  0  0  0
    6.2733  -16.0358   25.8751 C   0  0  0  0  0  0  0  0  0  0  0  0
    6.7848  -14.7250   26.2260 C   0  0  0  0  0  0  0  0  0  0  0  0
    8.1355  -14.4297   26.3532 C   0  0  0  0  0  0  0  0  0  0  0  0
    8.5537  -13.1619   26.6897 C   0  0  0  0  0  0  0  0  0  0  0  0
    7.6273  -12.1648   26.9055 C   0  0  0  0  0  0  0  0  0  0  0  0
    6.2796  -12.4354   26.7846 C   0  0  0  0  0  0  0  0  0  0  0  0
    5.8594  -13.7070   26.4471 C   0  0  0  0  0  0  0  0  0  0  0  0
    7.4926  -16.3985   23.8364 C   0  0  0  0  0  0  0  0  0  0  0  0
    8.0891  -17.4983   23.8705 O   0  0  0  0  0  0  0  0  0  0  0  0
    8.1522  -15.2936   23.2469 N   0  0  0  0  0  0  0  0  0  0  0  0
    9.3670  -15.5254   22.4958 C   0  0  1  0  0  0  0  0  0  0  0  0
    9.6486  -14.3332   21.6079 C   0  0  0  0  0  0  0  0  0  0  0  0
    8.6964  -14.1844   20.4947 C   0  0  0  0  0  0  0  0  0  0  0  0
    7.8933  -15.1984   19.9628 C   0  0  0  0  0  0  0  0  0  0  0  0
    7.1534  -14.7216   18.9687 N   0  0  0  0  0  0  0  0  0  0  0  0
    7.4430  -13.4164   18.8249 C   0  0  0  0  0  0  0  0  0  0  0  0
    8.3699  -13.1040   19.7452 N   0  0  0  0  0  0  0  0  0  0  0  0
   10.5337  -15.7125   23.4010 C   0  0  0  0  0  0  0  0  0  0  0  0
   10.9876  -14.7372   24.0399 O   0  0  0  0  0  0  0  0  0  0  0  0
   11.1680  -16.9707   23.5767 N   0  0  0  0  0  0  0  0  0  0  0  0
   12.2731  -17.1380   24.5326 C   0  0  0  0  0  0  0  0  0  0  0  0
   13.5387  -16.6793   23.9533 C   0  0  0  0  0  0  0  0  0  0  0  0
   14.3633  -15.8670   24.7125 O   0  0  0  0  0  0  0  0  0  0  0  0
   13.8975  -16.9983   22.7950 O   0  0  0  0  0  0  0  0  0  0  0  0
  2  1  1  1
  2 10  1  0
  3  2  1  0
  4  9  1  0
  4  3  1  0
  5  4  2  0
  6  7  2  0
  6  5  1  0
  7  8  1  0
  8  9  2  0
 10 11  2  0
 10 12  1  0
 12 13  1  0
 13 14  1  6
 14 15  1  0
 15 16  2  0
 15 19  1  0
 16 17  1  0
 17 18  1  0
 19 18  2  0
 20 21  2  0
 20 13  1  0
 22 20  1  0
 23 22  1  0
 23 24  1  0
 24 25  1  0
 26 24  2  0
M  END
$$$$
