FHG.pdb
     RDKit          3D

 26 27  0  0  1  0  0  0  0  0999 V2000
    5.4488  -17.6351   24.1293 N   0  0  0  0  0  0  0  0  0  0  0  0
    6.0702  -16.3731   24.3490 C   0  0  1  0  0  0  0  0  0  0  0  0
    6.1392  -15.9520   25.7813 C   0  0  0  0  0  0  0  0  0  0  0  0
    6.4985  -14.5664   26.0142 C   0  0  0  0  0  0  0  0  0  0  0  0
    5.7351  -13.4869   25.5902 C   0  0  0  0  0  0  0  0  0  0  0  0
    6.1349  -12.1943   25.8450 C   0  0  0  0  0  0  0  0  0  0  0  0
    7.3073  -11.9575   26.5295 C   0  0  0  0  0  0  0  0  0  0  0  0
    8.0819  -13.0150   26.9604 C   0  0  0  0  0  0  0  0  0  0  0  0
    7.6814  -14.3119   26.7052 C   0  0  0  0  0  0  0  0  0  0  0  0
    7.4556  -16.4274   23.8280 C   0  0  0  0  0  0  0  0  0  0  0  0
    8.0716  -17.5163   23.8654 O   0  0  0  0  0  0  0  0  0  0  0  0
    8.1171  -15.2987   23.2876 N   0  0  0  0  0  0  0  0  0  0  0  0
    9.3451  -15.4970   22.5485 C   0  0  1  0  0  0  0  0  0  0  0  0
    9.6479  -14.2618   21.7290 C   0  0  0  0  0  0  0  0  0  0  0  0
    8.6890  -14.0245   20.6371 C   0  0  0  0  0  0  0  0  0  0  0  0
    7.8711  -14.9898   20.0412 C   0  0  0  0  0  0  0  0  0  0  0  0
    7.1288  -14.4359   19.0896 N   0  0  0  0  0  0  0  0  0  0  0  0
    7.4313  -13.1268   19.0366 C   0  0  0  0  0  0  0  0  0  0  0  0
    8.3685  -12.8902   19.9691 N   0  0  0  0  0  0  0  0  0  0  0  0
   10.4937  -15.7360   23.4645 C   0  0  0  0  0  0  0  0  0  0  0  0
   11.6496  -15.8432   22.9976 O   0  0  0  0  0  0  0  0  0  0  0  0
   10.3359  -15.8503   24.8711 N   0  0  0  0  0  0  0  0  0  0  0  0
   11.4999  -16.0056   25.7565 C   0  0  0  0  0  0  0  0  0  0  0  0
   11.7474  -17.4199   26.0507 C   0  0  0  0  0  0  0  0  0  0  0  0
   11.0117  -18.3792   25.3765 O   0  0  0  0  0  0  0  0  0  0  0  0
   12.6019  -17.7876   26.8914 O   0  0  0  0  0  0  0  0  0  0  0  0
  2  1  1  1
  2 10  1  0
  3  2  1  0
  4  9  1  0
  4  3  1  0
  5  4  2  0
  6  7  2  0
  6  5  1  0
  7  8  1  0
  8  9  2  0
 10 11  2  0
 10 12  1  0
 12 13  1  0
 13 14  1  1
 14 15  1  0
 15 16  2  0
 15 19  1  0
 16 17  1  0
 17 18  1  0
 19 18  2  0
 20 21  2  0
 20 13  1  0
 22 20  1  0
 23 22  1  0
 23 24  1  0
 24 25  1  0
 26 24  2  0
M  END
$$$$
