FHG.pdb
     RDKit          3D

 26 27  0  0  1  0  0  0  0  0999 V2000
    5.8439  -16.6755   24.6426 N   0  0  0  0  0  0  0  0  0  0  0  0
    6.7876  -15.6159   24.5253 C   0  0  1  0  0  0  0  0  0  0  0  0
    7.3168  -15.1043   25.8260 C   0  0  0  0  0  0  0  0  0  0  0  0
    6.9244  -13.7535   26.1786 C   0  0  0  0  0  0  0  0  0  0  0  0
    7.7334  -12.6399   25.9966 C   0  0  0  0  0  0  0  0  0  0  0  0
    7.2982  -11.3835   26.3538 C   0  0  0  0  0  0  0  0  0  0  0  0
    6.0441  -11.2177   26.9004 C   0  0  0  0  0  0  0  0  0  0  0  0
    5.2229  -12.3102   27.0904 C   0  0  0  0  0  0  0  0  0  0  0  0
    5.6588  -13.5709   26.7323 C   0  0  0  0  0  0  0  0  0  0  0  0
    7.9400  -16.0909   23.7254 C   0  0  0  0  0  0  0  0  0  0  0  0
    8.2386  -17.3058   23.7607 O   0  0  0  0  0  0  0  0  0  0  0  0
    8.7221  -15.2292   22.9195 N   0  0  0  0  0  0  0  0  0  0  0  0
    9.7185  -15.8064   22.0434 C   0  0  1  0  0  0  0  0  0  0  0  0
   10.0944  -14.8041   20.9743 C   0  0  0  0  0  0  0  0  0  0  0  0
    8.9851  -14.4566   20.0705 C   0  0  0  0  0  0  0  0  0  0  0  0
    7.7217  -15.0565   20.0562 C   0  0  0  0  0  0  0  0  0  0  0  0
    6.9636  -14.5034   19.1168 N   0  0  0  0  0  0  0  0  0  0  0  0
    7.6894  -13.5509   18.5053 C   0  0  0  0  0  0  0  0  0  0  0  0
    8.9007  -13.5308   19.0850 N   0  0  0  0  0  0  0  0  0  0  0  0
   10.9530  -16.1661   22.7933 C   0  0  0  0  0  0  0  0  0  0  0  0
   11.6486  -15.2660   23.3142 O   0  0  0  0  0  0  0  0  0  0  0  0
   11.3867  -17.5093   22.9479 N   0  0  0  0  0  0  0  0  0  0  0  0
   12.6085  -17.8318   23.7004 C   0  0  0  0  0  0  0  0  0  0  0  0
   12.8739  -19.2729   23.6728 C   0  0  0  0  0  0  0  0  0  0  0  0
   14.0304  -19.7488   24.2662 O   0  0  0  0  0  0  0  0  0  0  0  0
   12.0889  -20.0863   23.1303 O   0  0  0  0  0  0  0  0  0  0  0  0
  2  1  1  1
  2 10  1  0
  3  2  1  0
  4  9  1  0
  4  3  1  0
  5  4  2  0
  6  7  2  0
  6  5  1  0
  7  8  1  0
  8  9  2  0
 10 11  2  0
 10 12  1  0
 12 13  1  0
 13 14  1  6
 14 15  1  0
 15 16  2  0
 15 19  1  0
 16 17  1  0
 17 18  1  0
 19 18  2  0
 20 21  2  0
 20 13  1  0
 22 20  1  0
 23 22  1  0
 23 24  1  0
 24 25  1  0
 26 24  2  0
M  END
$$$$
