NTT.pdb
     RDKit          3D

 23 22  0  0  1  0  0  0  0  0999 V2000
   13.0047  -18.3654   17.3864 N   0  0  0  0  0  0  0  0  0  0  0  0
   12.9561  -17.5143   18.5239 C   0  0  0  0  0  0  0  0  0  0  0  0
   14.0425  -17.3434   19.1504 O   0  0  0  0  0  0  0  0  0  0  0  0
   11.6904  -16.8623   18.9494 C   0  0  0  0  0  0  0  0  0  0  0  0
   11.4781  -17.1414   20.4037 C   0  0  2  0  0  0  0  0  0  0  0  0
   10.8534  -18.4598   20.5087 N   0  0  0  0  0  0  0  0  0  0  0  0
   10.6746  -16.1099   21.0844 C   0  0  0  0  0  0  0  0  0  0  0  0
   11.0543  -14.9271   21.0273 O   0  0  0  0  0  0  0  0  0  0  0  0
    6.6483  -15.6357   21.1575 C   0  0  0  0  0  0  0  0  0  0  0  0
    7.2431  -15.6763   22.5322 C   0  0  1  0  0  0  0  0  0  0  0  0
    6.9578  -16.9188   23.0988 O   0  0  0  0  0  0  0  0  0  0  0  0
    8.7333  -15.4373   22.5401 C   0  0  2  0  0  0  0  0  0  0  0  0
    9.4734  -16.4048   21.8112 N   0  0  0  0  0  0  0  0  0  0  0  0
    9.1743  -15.3126   23.9653 C   0  0  0  0  0  0  0  0  0  0  0  0
   10.0587  -16.0171   24.4719 O   0  0  0  0  0  0  0  0  0  0  0  0
    8.9033  -11.7912   26.4651 C   0  0  0  0  0  0  0  0  0  0  0  0
    8.2583  -13.0905   26.8879 C   0  0  1  0  0  0  0  0  0  0  0  0
    6.9213  -13.0315   26.4957 O   0  0  0  0  0  0  0  0  0  0  0  0
    8.8776  -14.2801   26.2026 C   0  0  2  0  0  0  0  0  0  0  0  0
    8.5524  -14.3366   24.7920 N   0  0  0  0  0  0  0  0  0  0  0  0
    8.3803  -15.5084   26.8720 C   0  0  0  0  0  0  0  0  0  0  0  0
    8.7156  -15.7882   28.1881 O   0  0  0  0  0  0  0  0  0  0  0  0
    7.6435  -16.3343   26.2780 O   0  0  0  0  0  0  0  0  0  0  0  0
  2  4  1  0
  2  1  1  0
  3  2  2  0
  5  4  1  0
  5  6  1  6
  7  5  1  0
  7  8  2  0
 10  9  1  6
 10 12  1  0
 11 10  1  0
 12 13  1  1
 12 14  1  0
 13  7  1  0
 14 20  1  0
 14 15  2  0
 17 16  1  6
 18 17  1  0
 19 17  1  0
 19 20  1  6
 21 22  1  0
 21 19  1  0
 23 21  2  0
M  END
$$$$
