NTT.pdb
     RDKit          3D

 23 22  0  0  1  0  0  0  0  0999 V2000
   14.0087  -16.4135   16.7674 N   0  0  0  0  0  0  0  0  0  0  0  0
   14.0217  -17.0019   18.0613 C   0  0  0  0  0  0  0  0  0  0  0  0
   14.6722  -18.0803   18.1868 O   0  0  0  0  0  0  0  0  0  0  0  0
   13.3057  -16.3764   19.2034 C   0  0  0  0  0  0  0  0  0  0  0  0
   12.5533  -15.1864   18.6975 C   0  0  2  0  0  0  0  0  0  0  0  0
   13.5399  -14.2060   18.2450 N   0  0  0  0  0  0  0  0  0  0  0  0
   11.6385  -14.6064   19.6974 C   0  0  0  0  0  0  0  0  0  0  0  0
   12.0978  -13.8022   20.5274 O   0  0  0  0  0  0  0  0  0  0  0  0
    8.0537  -12.9872   19.1766 C   0  0  0  0  0  0  0  0  0  0  0  0
    7.9995  -14.0459   20.2356 C   0  0  1  0  0  0  0  0  0  0  0  0
    7.3596  -15.1664   19.7054 O   0  0  0  0  0  0  0  0  0  0  0  0
    9.3618  -14.4309   20.7585 C   0  0  2  0  0  0  0  0  0  0  0  0
   10.2412  -14.9251   19.7597 N   0  0  0  0  0  0  0  0  0  0  0  0
    9.1682  -15.3861   21.8949 C   0  0  0  0  0  0  0  0  0  0  0  0
    9.4821  -16.5836   21.8431 O   0  0  0  0  0  0  0  0  0  0  0  0
    9.1598  -14.3575   26.0114 C   0  0  0  0  0  0  0  0  0  0  0  0
    7.9798  -15.1313   25.4711 C   0  0  1  0  0  0  0  0  0  0  0  0
    6.9713  -14.2065   25.2021 O   0  0  0  0  0  0  0  0  0  0  0  0
    8.3056  -15.8327   24.1788 C   0  0  2  0  0  0  0  0  0  0  0  0
    8.5943  -14.9052   23.1041 N   0  0  0  0  0  0  0  0  0  0  0  0
    7.1407  -16.6733   23.8040 C   0  0  0  0  0  0  0  0  0  0  0  0
    6.7212  -17.7139   24.6188 O   0  0  0  0  0  0  0  0  0  0  0  0
    6.4957  -16.4765   22.7442 O   0  0  0  0  0  0  0  0  0  0  0  0
  2  4  1  0
  2  1  1  0
  3  2  2  0
  5  4  1  0
  5  6  1  1
  7  5  1  0
  7  8  2  0
 10  9  1  6
 10 12  1  0
 11 10  1  0
 12 13  1  6
 12 14  1  0
 13  7  1  0
 14 20  1  0
 14 15  2  0
 17 16  1  6
 18 17  1  0
 19 17  1  0
 19 20  1  6
 21 22  1  0
 21 19  1  0
 23 21  2  0
M  END
$$$$
