NTT.pdb
     RDKit          3D

 23 22  0  0  1  0  0  0  0  0999 V2000
   14.3288  -17.0675   19.0117 N   0  0  0  0  0  0  0  0  0  0  0  0
   12.9831  -17.4973   19.1695 C   0  0  0  0  0  0  0  0  0  0  0  0
   12.7566  -18.7291   18.9870 O   0  0  0  0  0  0  0  0  0  0  0  0
   11.9029  -16.5427   19.5304 C   0  0  0  0  0  0  0  0  0  0  0  0
   11.4314  -16.8606   20.9141 C   0  0  2  0  0  0  0  0  0  0  0  0
   10.7736  -18.1660   20.8622 N   0  0  0  0  0  0  0  0  0  0  0  0
   10.5393  -15.8310   21.4773 C   0  0  0  0  0  0  0  0  0  0  0  0
   10.9225  -14.6479   21.4771 O   0  0  0  0  0  0  0  0  0  0  0  0
    6.5475  -15.4114   20.8733 C   0  0  0  0  0  0  0  0  0  0  0  0
    6.9141  -15.4289   22.3261 C   0  0  1  0  0  0  0  0  0  0  0  0
    6.5747  -16.6762   22.8507 O   0  0  0  0  0  0  0  0  0  0  0  0
    8.3766  -15.1484   22.5713 C   0  0  2  0  0  0  0  0  0  0  0  0
    9.2479  -16.1280   22.0268 N   0  0  0  0  0  0  0  0  0  0  0  0
    8.5684  -14.9449   24.0421 C   0  0  0  0  0  0  0  0  0  0  0  0
    9.3607  -15.6071   24.7268 O   0  0  0  0  0  0  0  0  0  0  0  0
    7.5606  -11.3319   26.2998 C   0  0  0  0  0  0  0  0  0  0  0  0
    7.0188  -12.6944   26.6645 C   0  0  1  0  0  0  0  0  0  0  0  0
    5.7699  -12.8156   26.0558 O   0  0  0  0  0  0  0  0  0  0  0  0
    7.8864  -13.8084   26.1403 C   0  0  2  0  0  0  0  0  0  0  0  0
    7.8061  -13.9405   24.7000 N   0  0  0  0  0  0  0  0  0  0  0  0
    7.4447  -15.0750   26.7763 C   0  0  0  0  0  0  0  0  0  0  0  0
    7.6021  -15.2812   28.1385 O   0  0  0  0  0  0  0  0  0  0  0  0
    6.9162  -16.0006   26.1116 O   0  0  0  0  0  0  0  0  0  0  0  0
  2  4  1  0
  2  1  1  0
  3  2  2  0
  5  4  1  0
  5  6  1  6
  7  5  1  0
  7  8  2  0
 10  9  1  6
 10 12  1  0
 11 10  1  0
 12 13  1  1
 12 14  1  0
 13  7  1  0
 14 20  1  0
 14 15  2  0
 17 16  1  6
 18 17  1  0
 19 17  1  0
 19 20  1  6
 21 22  1  0
 21 19  1  0
 23 21  2  0
M  END
$$$$
