NTT.pdb
     RDKit          3D

 23 22  0  0  1  0  0  0  0  0999 V2000
   13.7412  -15.9530   18.7499 N   0  0  0  0  0  0  0  0  0  0  0  0
   12.6463  -16.8399   18.5628 C   0  0  0  0  0  0  0  0  0  0  0  0
   12.9022  -17.9457   18.0027 O   0  0  0  0  0  0  0  0  0  0  0  0
   11.2741  -16.4797   19.0051 C   0  0  0  0  0  0  0  0  0  0  0  0
   11.2565  -16.4241   20.4999 C   0  0  2  0  0  0  0  0  0  0  0  0
   11.1088  -17.7957   20.9863 N   0  0  0  0  0  0  0  0  0  0  0  0
   10.2020  -15.5461   21.0387 C   0  0  0  0  0  0  0  0  0  0  0  0
   10.1653  -14.3615   20.6622 O   0  0  0  0  0  0  0  0  0  0  0  0
    6.3024  -15.9044   21.2902 C   0  0  0  0  0  0  0  0  0  0  0  0
    6.8767  -15.6693   22.6541 C   0  0  1  0  0  0  0  0  0  0  0  0
    6.8457  -16.8733   23.3582 O   0  0  0  0  0  0  0  0  0  0  0  0
    8.2860  -15.1304   22.6185 C   0  0  2  0  0  0  0  0  0  0  0  0
    9.2140  -15.9927   21.9781 N   0  0  0  0  0  0  0  0  0  0  0  0
    8.6820  -14.7780   24.0186 C   0  0  0  0  0  0  0  0  0  0  0  0
    9.7233  -15.1795   24.5567 O   0  0  0  0  0  0  0  0  0  0  0  0
    7.3890  -11.2776   26.2531 C   0  0  0  0  0  0  0  0  0  0  0  0
    7.1889  -12.6755   26.7905 C   0  0  1  0  0  0  0  0  0  0  0  0
    5.8958  -13.0668   26.4445 O   0  0  0  0  0  0  0  0  0  0  0  0
    8.1408  -13.6634   26.1691 C   0  0  2  0  0  0  0  0  0  0  0  0
    7.8253  -13.9377   24.7821 N   0  0  0  0  0  0  0  0  0  0  0  0
    8.0703  -14.9248   26.9488 C   0  0  0  0  0  0  0  0  0  0  0  0
    8.5412  -14.9845   28.2517 O   0  0  0  0  0  0  0  0  0  0  0  0
    7.5860  -15.9772   26.4633 O   0  0  0  0  0  0  0  0  0  0  0  0
  2  4  1  0
  2  1  1  0
  3  2  2  0
  5  4  1  0
  5  6  1  1
  7  5  1  0
  7  8  2  0
 10  9  1  6
 10 12  1  0
 11 10  1  0
 12 13  1  1
 12 14  1  0
 13  7  1  0
 14 20  1  0
 14 15  2  0
 17 16  1  6
 18 17  1  0
 19 17  1  0
 19 20  1  6
 21 22  1  0
 21 19  1  0
 23 21  2  0
M  END
$$$$
