NTT.pdb
     RDKit          3D

 23 22  0  0  1  0  0  0  0  0999 V2000
   10.0521  -19.3900   15.1546 N   0  0  0  0  0  0  0  0  0  0  0  0
    9.0183  -18.4160   15.0985 C   0  0  0  0  0  0  0  0  0  0  0  0
    8.5504  -18.1519   13.9525 O   0  0  0  0  0  0  0  0  0  0  0  0
    8.5178  -17.7467   16.3272 C   0  0  0  0  0  0  0  0  0  0  0  0
    8.7555  -16.2755   16.1966 C   0  0  2  0  0  0  0  0  0  0  0  0
    9.6715  -16.0791   15.0732 N   0  0  0  0  0  0  0  0  0  0  0  0
    9.2762  -15.6571   17.4293 C   0  0  0  0  0  0  0  0  0  0  0  0
   10.4643  -15.2905   17.4543 O   0  0  0  0  0  0  0  0  0  0  0  0
    7.5980  -12.8441   19.6957 C   0  0  0  0  0  0  0  0  0  0  0  0
    8.0230  -14.0108   20.5344 C   0  0  1  0  0  0  0  0  0  0  0  0
    6.8819  -14.7156   20.9186 O   0  0  0  0  0  0  0  0  0  0  0  0
    8.9823  -14.9335   19.8231 C   0  0  2  0  0  0  0  0  0  0  0  0
    8.4774  -15.4571   18.6040 N   0  0  0  0  0  0  0  0  0  0  0  0
    9.4033  -15.9972   20.7889 C   0  0  0  0  0  0  0  0  0  0  0  0
    9.0408  -17.1790   20.7058 O   0  0  0  0  0  0  0  0  0  0  0  0
   12.7585  -17.8007   23.7426 C   0  0  0  0  0  0  0  0  0  0  0  0
   12.2521  -16.7987   22.7313 C   0  0  1  0  0  0  0  0  0  0  0  0
   12.6081  -17.2738   21.4694 O   0  0  0  0  0  0  0  0  0  0  0  0
   10.7515  -16.6737   22.7597 C   0  0  2  0  0  0  0  0  0  0  0  0
   10.2655  -15.6445   21.8635 N   0  0  0  0  0  0  0  0  0  0  0  0
   10.3420  -16.3499   24.1495 C   0  0  0  0  0  0  0  0  0  0  0  0
   10.3979  -17.3079   25.1504 O   0  0  0  0  0  0  0  0  0  0  0  0
    9.9328  -15.2063   24.4698 O   0  0  0  0  0  0  0  0  0  0  0  0
  2  4  1  0
  2  1  1  0
  3  2  2  0
  5  4  1  0
  5  6  1  6
  7  5  1  0
  7  8  2  0
 10  9  1  6
 10 12  1  0
 11 10  1  0
 12 13  1  6
 12 14  1  0
 13  7  1  0
 14 20  1  0
 14 15  2  0
 17 16  1  1
 18 17  1  0
 19 17  1  0
 19 20  1  6
 21 22  1  0
 21 19  1  0
 23 21  2  0
M  END
$$$$
