NTT.pdb
     RDKit          3D

 23 22  0  0  1  0  0  0  0  0999 V2000
   14.0848  -18.5759   19.0823 N   0  0  0  0  0  0  0  0  0  0  0  0
   14.4396  -17.5863   20.0391 C   0  0  0  0  0  0  0  0  0  0  0  0
   15.6293  -17.6156   20.4701 O   0  0  0  0  0  0  0  0  0  0  0  0
   13.4578  -16.5725   20.5046 C   0  0  0  0  0  0  0  0  0  0  0  0
   12.1503  -16.8310   19.8252 C   0  0  2  0  0  0  0  0  0  0  0  0
   12.3162  -16.4868   18.4133 N   0  0  0  0  0  0  0  0  0  0  0  0
   11.0239  -16.0963   20.4290 C   0  0  0  0  0  0  0  0  0  0  0  0
   10.9067  -14.8826   20.1844 O   0  0  0  0  0  0  0  0  0  0  0  0
    7.2683  -16.9272   20.2019 C   0  0  0  0  0  0  0  0  0  0  0  0
    7.6263  -16.7436   21.6453 C   0  0  1  0  0  0  0  0  0  0  0  0
    7.6702  -17.9995   22.2511 O   0  0  0  0  0  0  0  0  0  0  0  0
    8.9418  -16.0308   21.8433 C   0  0  2  0  0  0  0  0  0  0  0  0
   10.0543  -16.7145   21.2867 N   0  0  0  0  0  0  0  0  0  0  0  0
    9.0987  -15.7467   23.3048 C   0  0  0  0  0  0  0  0  0  0  0  0
   10.0236  -16.1989   23.9942 O   0  0  0  0  0  0  0  0  0  0  0  0
    7.5035  -12.2834   25.3345 C   0  0  0  0  0  0  0  0  0  0  0  0
    7.2285  -13.6731   25.8602 C   0  0  1  0  0  0  0  0  0  0  0  0
    5.9849  -14.0613   25.3627 O   0  0  0  0  0  0  0  0  0  0  0  0
    8.2424  -14.6745   25.3727 C   0  0  2  0  0  0  0  0  0  0  0  0
    8.1412  -14.9144   23.9477 N   0  0  0  0  0  0  0  0  0  0  0  0
    8.0210  -15.9478   26.1033 C   0  0  0  0  0  0  0  0  0  0  0  0
    8.1857  -16.0183   27.4784 O   0  0  0  0  0  0  0  0  0  0  0  0
    7.6790  -17.0008   25.5100 O   0  0  0  0  0  0  0  0  0  0  0  0
  2  4  1  0
  2  1  1  0
  3  2  2  0
  5  4  1  0
  5  6  1  6
  7  5  1  0
  7  8  2  0
 10  9  1  6
 10 12  1  0
 11 10  1  0
 12 13  1  1
 12 14  1  0
 13  7  1  0
 14 20  1  0
 14 15  2  0
 17 16  1  6
 18 17  1  0
 19 17  1  0
 19 20  1  6
 21 22  1  0
 21 19  1  0
 23 21  2  0
M  END
$$$$
