NTT.pdb
     RDKit          3D

 23 22  0  0  1  0  0  0  0  0999 V2000
   15.0574  -16.1663   18.9111 N   0  0  0  0  0  0  0  0  0  0  0  0
   13.8760  -16.9216   19.1443 C   0  0  0  0  0  0  0  0  0  0  0  0
   13.8393  -18.0844   18.6456 O   0  0  0  0  0  0  0  0  0  0  0  0
   12.7460  -16.3672   19.9343 C   0  0  0  0  0  0  0  0  0  0  0  0
   12.7757  -16.9792   21.2990 C   0  0  2  0  0  0  0  0  0  0  0  0
   12.3992  -18.3853   21.1554 N   0  0  0  0  0  0  0  0  0  0  0  0
   11.9073  -16.2863   22.2680 C   0  0  0  0  0  0  0  0  0  0  0  0
   12.1048  -15.0779   22.4851 O   0  0  0  0  0  0  0  0  0  0  0  0
    7.8474  -16.9212   22.7374 C   0  0  0  0  0  0  0  0  0  0  0  0
    8.6225  -16.9233   24.0197 C   0  0  1  0  0  0  0  0  0  0  0  0
    8.7587  -18.2435   24.4495 O   0  0  0  0  0  0  0  0  0  0  0  0
    9.9822  -16.2813   23.8910 C   0  0  2  0  0  0  0  0  0  0  0  0
   10.8431  -16.9397   22.9741 N   0  0  0  0  0  0  0  0  0  0  0  0
   10.5685  -16.1603   25.2632 C   0  0  0  0  0  0  0  0  0  0  0  0
   11.5879  -16.7632   25.6273 O   0  0  0  0  0  0  0  0  0  0  0  0
   10.6362  -12.7437   27.8052 C   0  0  0  0  0  0  0  0  0  0  0  0
    9.9552  -14.0033   28.2875 C   0  0  1  0  0  0  0  0  0  0  0  0
    8.5958  -13.8676   28.0076 O   0  0  0  0  0  0  0  0  0  0  0  0
   10.4459  -15.2272   27.5597 C   0  0  2  0  0  0  0  0  0  0  0  0
    9.9303  -15.3107   26.2085 N   0  0  0  0  0  0  0  0  0  0  0  0
   10.0145  -16.4233   28.3260 C   0  0  0  0  0  0  0  0  0  0  0  0
    9.1738  -17.3685   27.7580 O   0  0  0  0  0  0  0  0  0  0  0  0
   10.3906  -16.6239   29.5076 O   0  0  0  0  0  0  0  0  0  0  0  0
  2  4  1  0
  2  1  1  0
  3  2  2  0
  5  4  1  0
  5  6  1  6
  7  5  1  0
  7  8  2  0
 10  9  1  6
 10 12  1  0
 11 10  1  0
 12 13  1  6
 12 14  1  0
 13  7  1  0
 14 20  1  0
 14 15  2  0
 17 16  1  6
 18 17  1  0
 19 17  1  0
 19 20  1  6
 21 22  1  0
 21 19  1  0
 23 21  2  0
M  END
$$$$
