NTT.pdb
     RDKit          3D

 23 22  0  0  1  0  0  0  0  0999 V2000
    9.9107  -15.7260   12.3518 N   0  0  0  0  0  0  0  0  0  0  0  0
    8.8330  -15.5129   13.2538 C   0  0  0  0  0  0  0  0  0  0  0  0
    7.6918  -15.9099   12.8769 O   0  0  0  0  0  0  0  0  0  0  0  0
    9.0437  -14.8567   14.5703 C   0  0  0  0  0  0  0  0  0  0  0  0
    9.0530  -15.9121   15.6306 C   0  0  2  0  0  0  0  0  0  0  0  0
    7.7056  -16.4774   15.6958 N   0  0  0  0  0  0  0  0  0  0  0  0
    9.4909  -15.4129   16.9467 C   0  0  0  0  0  0  0  0  0  0  0  0
   10.6600  -15.0071   17.0694 O   0  0  0  0  0  0  0  0  0  0  0  0
    7.7167  -12.8177   19.2389 C   0  0  0  0  0  0  0  0  0  0  0  0
    8.0696  -14.0180   20.0634 C   0  0  1  0  0  0  0  0  0  0  0  0
    6.8949  -14.7104   20.3582 O   0  0  0  0  0  0  0  0  0  0  0  0
    9.0514  -14.9382   19.3801 C   0  0  2  0  0  0  0  0  0  0  0  0
    8.6323  -15.3722   18.0952 N   0  0  0  0  0  0  0  0  0  0  0  0
    9.3511  -16.0701   20.3130 C   0  0  0  0  0  0  0  0  0  0  0  0
    8.9955  -17.2390   20.1070 O   0  0  0  0  0  0  0  0  0  0  0  0
   12.8356  -16.1779   22.4484 C   0  0  0  0  0  0  0  0  0  0  0  0
   11.8729  -17.3206   22.2239 C   0  0  1  0  0  0  0  0  0  0  0  0
   12.1374  -18.2782   23.2027 O   0  0  0  0  0  0  0  0  0  0  0  0
   10.4380  -16.8932   22.3868 C   0  0  2  0  0  0  0  0  0  0  0  0
   10.0825  -15.8019   21.5030 N   0  0  0  0  0  0  0  0  0  0  0  0
   10.2401  -16.4699   23.7960 C   0  0  0  0  0  0  0  0  0  0  0  0
    9.8753  -15.1681   24.1045 O   0  0  0  0  0  0  0  0  0  0  0  0
   10.3938  -17.2668   24.7547 O   0  0  0  0  0  0  0  0  0  0  0  0
  2  4  1  0
  2  1  1  0
  3  2  2  0
  5  4  1  0
  5  6  1  1
  7  5  1  0
  7  8  2  0
 10  9  1  6
 10 12  1  0
 11 10  1  0
 12 13  1  6
 12 14  1  0
 13  7  1  0
 14 20  1  0
 14 15  2  0
 17 16  1  1
 18 17  1  0
 19 17  1  0
 19 20  1  6
 21 22  1  0
 21 19  1  0
 23 21  2  0
M  END
$$$$
