NTT.pdb
     RDKit          3D

 23 22  0  0  1  0  0  0  0  0999 V2000
   16.7710  -14.4125   18.2423 N   0  0  0  0  0  0  0  0  0  0  0  0
   15.6729  -14.3490   17.3420 C   0  0  0  0  0  0  0  0  0  0  0  0
   15.8776  -14.7748   16.1678 O   0  0  0  0  0  0  0  0  0  0  0  0
   14.3549  -13.8088   17.7656 C   0  0  0  0  0  0  0  0  0  0  0  0
   13.4778  -14.9540   18.1619 C   0  0  2  0  0  0  0  0  0  0  0  0
   12.7253  -15.3591   16.9748 N   0  0  0  0  0  0  0  0  0  0  0  0
   12.5786  -14.6381   19.2865 C   0  0  0  0  0  0  0  0  0  0  0  0
   13.0773  -14.4383   20.4081 O   0  0  0  0  0  0  0  0  0  0  0  0
    8.2145  -14.2370   18.7935 C   0  0  0  0  0  0  0  0  0  0  0  0
    9.0265  -13.5381   19.8411 C   0  0  1  0  0  0  0  0  0  0  0  0
    8.2199  -13.3370   20.9615 O   0  0  0  0  0  0  0  0  0  0  0  0
   10.2698  -14.2989   20.2323 C   0  0  2  0  0  0  0  0  0  0  0  0
   11.1533  -14.5497   19.1499 N   0  0  0  0  0  0  0  0  0  0  0  0
    9.8448  -15.5456   20.9439 C   0  0  0  0  0  0  0  0  0  0  0  0
    9.2286  -16.4701   20.3955 O   0  0  0  0  0  0  0  0  0  0  0  0
   10.7282  -18.4194   21.1558 C   0  0  0  0  0  0  0  0  0  0  0  0
   10.8642  -18.0235   22.6076 C   0  0  1  0  0  0  0  0  0  0  0  0
   12.1485  -17.5057   22.7731 O   0  0  0  0  0  0  0  0  0  0  0  0
    9.8887  -16.9432   22.9943 C   0  0  2  0  0  0  0  0  0  0  0  0
   10.1594  -15.6881   22.3236 N   0  0  0  0  0  0  0  0  0  0  0  0
    9.9777  -16.7458   24.4631 C   0  0  0  0  0  0  0  0  0  0  0  0
    9.5777  -17.7414   25.3415 O   0  0  0  0  0  0  0  0  0  0  0  0
   10.4147  -15.6793   24.9626 O   0  0  0  0  0  0  0  0  0  0  0  0
  2  4  1  0
  2  1  1  0
  3  2  2  0
  5  4  1  0
  5  6  1  6
  7  5  1  0
  7  8  2  0
 10  9  1  6
 10 12  1  0
 11 10  1  0
 12 13  1  6
 12 14  1  0
 13  7  1  0
 14 20  1  0
 14 15  2  0
 17 16  1  6
 18 17  1  0
 19 17  1  0
 19 20  1  6
 21 22  1  0
 21 19  1  0
 23 21  2  0
M  END
$$$$
