GKS.pdb
     RDKit          3D

 20 19  0  0  1  0  0  0  0  0999 V2000
    7.5596  -12.4637   17.8123 N   0  0  0  0  0  0  0  0  0  0  0  0
    8.5089  -13.5396   17.9253 C   0  0  0  0  0  0  0  0  0  0  0  0
    8.2084  -14.3400   19.1454 C   0  0  0  0  0  0  0  0  0  0  0  0
    7.5623  -13.8077   20.0656 O   0  0  0  0  0  0  0  0  0  0  0  0
    8.6654  -15.6847   19.2264 N   0  0  0  0  0  0  0  0  0  0  0  0
    8.4060  -16.4802   20.3726 C   0  0  1  0  0  0  0  0  0  0  0  0
    8.4531  -17.9476   20.2390 C   0  0  0  0  0  0  0  0  0  0  0  0
    7.4142  -18.5579   19.3560 C   0  0  0  0  0  0  0  0  0  0  0  0
    7.4935  -20.0225   19.1404 C   0  0  0  0  0  0  0  0  0  0  0  0
    6.4123  -20.4849   18.1829 C   0  0  0  0  0  0  0  0  0  0  0  0
    6.6386  -21.8946   17.8521 N   0  0  0  0  0  0  0  0  0  0  0  0
    9.2998  -15.9904   21.4979 C   0  0  0  0  0  0  0  0  0  0  0  0
   10.5088  -15.7110   21.3060 O   0  0  0  0  0  0  0  0  0  0  0  0
    7.6902  -14.7575   25.0379 O   0  0  0  0  0  0  0  0  0  0  0  0
    8.9349  -14.2731   24.6782 C   0  0  0  0  0  0  0  0  0  0  0  0
    9.6912  -15.3257   23.8935 C   0  0  2  0  0  0  0  0  0  0  0  0
    8.8224  -15.8214   22.8210 N   0  0  0  0  0  0  0  0  0  0  0  0
   10.1322  -16.4179   24.7751 C   0  0  0  0  0  0  0  0  0  0  0  0
   11.0476  -16.1101   25.7712 O   0  0  0  0  0  0  0  0  0  0  0  0
    9.7183  -17.5952   24.6609 O   0  0  0  0  0  0  0  0  0  0  0  0
  2  1  1  0
  3  4  2  0
  3  2  1  0
  5  3  1  0
  6  5  1  0
  6  7  1  6
  8  7  1  0
  9  8  1  0
 10 11  1  0
 10  9  1  0
 12  6  1  0
 12 13  2  0
 15 14  1  0
 16 15  1  1
 17 16  1  0
 17 12  1  0
 18 19  1  0
 18 16  1  0
 20 18  2  0
M  END
$$$$
