GKS.pdb
     RDKit          3D

 20 19  0  0  1  0  0  0  0  0999 V2000
    5.2912  -19.5078   21.8129 N   0  0  0  0  0  0  0  0  0  0  0  0
    5.4354  -19.2022   23.2119 C   0  0  0  0  0  0  0  0  0  0  0  0
    6.3909  -18.0711   23.3767 C   0  0  0  0  0  0  0  0  0  0  0  0
    7.0902  -17.7328   22.4050 O   0  0  0  0  0  0  0  0  0  0  0  0
    6.4786  -17.4107   24.6336 N   0  0  0  0  0  0  0  0  0  0  0  0
    7.4560  -16.4094   24.8698 C   0  0  1  0  0  0  0  0  0  0  0  0
    7.2359  -15.4535   25.9704 C   0  0  0  0  0  0  0  0  0  0  0  0
    7.3263  -14.0070   25.6084 C   0  0  0  0  0  0  0  0  0  0  0  0
    6.5703  -13.0549   26.4568 C   0  0  0  0  0  0  0  0  0  0  0  0
    6.8801  -11.6227   26.0662 C   0  0  0  0  0  0  0  0  0  0  0  0
    6.1643  -10.7163   26.9685 N   0  0  0  0  0  0  0  0  0  0  0  0
    8.8094  -17.0889   24.9793 C   0  0  0  0  0  0  0  0  0  0  0  0
    9.0230  -18.0029   25.8133 O   0  0  0  0  0  0  0  0  0  0  0  0
   12.0024  -16.0933   22.4416 O   0  0  0  0  0  0  0  0  0  0  0  0
   11.7746  -17.4155   22.7780 C   0  0  0  0  0  0  0  0  0  0  0  0
   11.1528  -17.4972   24.1573 C   0  0  2  0  0  0  0  0  0  0  0  0
    9.9016  -16.7321   24.1507 N   0  0  0  0  0  0  0  0  0  0  0  0
   12.0835  -16.9955   25.1804 C   0  0  0  0  0  0  0  0  0  0  0  0
   13.3306  -17.5975   25.2655 O   0  0  0  0  0  0  0  0  0  0  0  0
   11.7956  -16.0607   25.9638 O   0  0  0  0  0  0  0  0  0  0  0  0
  2  1  1  0
  3  4  2  0
  3  2  1  0
  5  3  1  0
  6  5  1  0
  6  7  1  1
  8  7  1  0
  9  8  1  0
 10 11  1  0
 10  9  1  0
 12  6  1  0
 12 13  2  0
 15 14  1  0
 16 15  1  6
 17 16  1  0
 17 12  1  0
 18 19  1  0
 18 16  1  0
 20 18  2  0
M  END
$$$$
