GKS.pdb
     RDKit          3D

 20 19  0  0  1  0  0  0  0  0999 V2000
    8.8400  -16.5096   18.5922 N   0  0  0  0  0  0  0  0  0  0  0  0
    7.7910  -16.4934   19.5776 C   0  0  0  0  0  0  0  0  0  0  0  0
    8.2798  -15.8163   20.8113 C   0  0  0  0  0  0  0  0  0  0  0  0
    9.5061  -15.6888   20.9774 O   0  0  0  0  0  0  0  0  0  0  0  0
    7.3373  -15.3358   21.7623 N   0  0  0  0  0  0  0  0  0  0  0  0
    7.7605  -14.7547   22.9858 C   0  0  1  0  0  0  0  0  0  0  0  0
    6.7757  -14.0103   23.7918 C   0  0  0  0  0  0  0  0  0  0  0  0
    7.2933  -13.3913   25.0490 C   0  0  0  0  0  0  0  0  0  0  0  0
    6.3218  -12.6313   25.8715 C   0  0  0  0  0  0  0  0  0  0  0  0
    7.0064  -12.0036   27.0703 C   0  0  0  0  0  0  0  0  0  0  0  0
    6.0171  -11.2478   27.8435 N   0  0  0  0  0  0  0  0  0  0  0  0
    8.4557  -15.8296   23.8021 C   0  0  0  0  0  0  0  0  0  0  0  0
    7.9142  -16.9397   24.0283 O   0  0  0  0  0  0  0  0  0  0  0  0
   12.6502  -17.7183   25.0702 O   0  0  0  0  0  0  0  0  0  0  0  0
   11.9094  -16.7268   24.4526 C   0  0  0  0  0  0  0  0  0  0  0  0
   10.4863  -16.7464   24.9725 C   0  0  2  0  0  0  0  0  0  0  0  0
    9.7480  -15.6419   24.3514 N   0  0  0  0  0  0  0  0  0  0  0  0
   10.4652  -16.6480   26.4403 C   0  0  0  0  0  0  0  0  0  0  0  0
   11.0482  -17.6794   27.1622 O   0  0  0  0  0  0  0  0  0  0  0  0
    9.9486  -15.6834   27.0513 O   0  0  0  0  0  0  0  0  0  0  0  0
  2  1  1  0
  3  4  2  0
  3  2  1  0
  5  3  1  0
  6  5  1  0
  6  7  1  1
  8  7  1  0
  9  8  1  0
 10 11  1  0
 10  9  1  0
 12  6  1  0
 12 13  2  0
 15 14  1  0
 16 15  1  6
 17 16  1  0
 17 12  1  0
 18 19  1  0
 18 16  1  0
 20 18  2  0
M  END
$$$$
