GKS.pdb
     RDKit          3D

 20 19  0  0  1  0  0  0  0  0999 V2000
   -3.0687  -22.1934   31.5918 N   0  0  0  0  0  0  0  0  0  0  0  0
   -3.1991  -23.3154   30.6998 C   0  0  0  0  0  0  0  0  0  0  0  0
   -4.3286  -23.0726   29.7593 C   0  0  0  0  0  0  0  0  0  0  0  0
   -5.0736  -22.0965   29.9589 O   0  0  0  0  0  0  0  0  0  0  0  0
   -4.5252  -23.9580   28.6633 N   0  0  0  0  0  0  0  0  0  0  0  0
   -5.6228  -23.7979   27.7783 C   0  0  1  0  0  0  0  0  0  0  0  0
   -5.5149  -24.3447   26.4135 C   0  0  0  0  0  0  0  0  0  0  0  0
   -4.4533  -23.7450   25.5504 C   0  0  0  0  0  0  0  0  0  0  0  0
   -4.4018  -24.1965   24.1393 C   0  0  0  0  0  0  0  0  0  0  0  0
   -3.2183  -23.5794   23.4195 C   0  0  0  0  0  0  0  0  0  0  0  0
   -1.9990  -24.2956   23.8047 N   0  0  0  0  0  0  0  0  0  0  0  0
   -6.8728  -24.2930   28.4837 C   0  0  0  0  0  0  0  0  0  0  0  0
   -6.8861  -25.3754   29.1200 O   0  0  0  0  0  0  0  0  0  0  0  0
   -9.3987  -22.1198   30.5328 O   0  0  0  0  0  0  0  0  0  0  0  0
  -10.1052  -22.8561   29.5990 C   0  0  0  0  0  0  0  0  0  0  0  0
   -9.2856  -24.0515   29.1572 C   0  0  2  0  0  0  0  0  0  0  0  0
   -8.0880  -23.5651   28.4644 N   0  0  0  0  0  0  0  0  0  0  0  0
  -10.0807  -24.9402   28.2955 C   0  0  0  0  0  0  0  0  0  0  0  0
  -11.2172  -25.5182   28.8427 O   0  0  0  0  0  0  0  0  0  0  0  0
   -9.7741  -25.1896   27.1062 O   0  0  0  0  0  0  0  0  0  0  0  0
  2  1  1  0
  3  4  2  0
  3  2  1  0
  5  3  1  0
  6  5  1  0
  6  7  1  6
  8  7  1  0
  9  8  1  0
 10 11  1  0
 10  9  1  0
 12  6  1  0
 12 13  2  0
 15 14  1  0
 16 15  1  6
 17 16  1  0
 17 12  1  0
 18 19  1  0
 18 16  1  0
 20 18  2  0
M  END
$$$$
