GKS.pdb
     RDKit          3D

 20 19  0  0  1  0  0  0  0  0999 V2000
   10.9415  -18.5275   16.6460 N   0  0  0  0  0  0  0  0  0  0  0  0
   11.4655  -19.1901   17.8113 C   0  0  0  0  0  0  0  0  0  0  0  0
   11.1824  -18.3662   19.0197 C   0  0  0  0  0  0  0  0  0  0  0  0
   11.4526  -17.1522   18.9924 O   0  0  0  0  0  0  0  0  0  0  0  0
   10.6136  -18.9853   20.1673 N   0  0  0  0  0  0  0  0  0  0  0  0
   10.4558  -18.2716   21.3837 C   0  0  1  0  0  0  0  0  0  0  0  0
    9.5133  -18.7924   22.3907 C   0  0  0  0  0  0  0  0  0  0  0  0
    8.1339  -19.0926   21.9022 C   0  0  0  0  0  0  0  0  0  0  0  0
    7.1952  -19.7004   22.8755 C   0  0  0  0  0  0  0  0  0  0  0  0
    5.8087  -19.8326   22.2757 C   0  0  0  0  0  0  0  0  0  0  0  0
    4.9414  -20.5321   23.2278 N   0  0  0  0  0  0  0  0  0  0  0  0
   11.8346  -18.0370   21.9744 C   0  0  0  0  0  0  0  0  0  0  0  0
   12.6579  -18.9737   22.1202 O   0  0  0  0  0  0  0  0  0  0  0  0
   15.3483  -14.9325   23.0573 O   0  0  0  0  0  0  0  0  0  0  0  0
   14.0599  -15.1404   22.5989 C   0  0  0  0  0  0  0  0  0  0  0  0
   13.6052  -16.5412   22.9550 C   0  0  2  0  0  0  0  0  0  0  0  0
   12.2679  -16.7544   22.3918 N   0  0  0  0  0  0  0  0  0  0  0  0
   13.6111  -16.7374   24.4131 C   0  0  0  0  0  0  0  0  0  0  0  0
   12.3843  -16.8107   25.0569 O   0  0  0  0  0  0  0  0  0  0  0  0
   14.6656  -16.8389   25.0828 O   0  0  0  0  0  0  0  0  0  0  0  0
  2  1  1  0
  3  4  2  0
  3  2  1  0
  5  3  1  0
  6  5  1  0
  6  7  1  1
  8  7  1  0
  9  8  1  0
 10 11  1  0
 10  9  1  0
 12  6  1  0
 12 13  2  0
 15 14  1  0
 16 15  1  1
 17 16  1  0
 17 12  1  0
 18 19  1  0
 18 16  1  0
 20 18  2  0
M  END
$$$$
