GKS.pdb
     RDKit          3D

 20 19  0  0  1  0  0  0  0  0999 V2000
    4.9678  -19.2748   22.9144 N   0  0  0  0  0  0  0  0  0  0  0  0
    5.6805  -18.9035   24.1085 C   0  0  0  0  0  0  0  0  0  0  0  0
    6.6327  -17.8014   23.7952 C   0  0  0  0  0  0  0  0  0  0  0  0
    6.9921  -17.6390   22.6154 O   0  0  0  0  0  0  0  0  0  0  0  0
    7.1037  -16.9676   24.8472 N   0  0  0  0  0  0  0  0  0  0  0  0
    8.0655  -15.9528   24.6046 C   0  0  1  0  0  0  0  0  0  0  0  0
    8.1583  -14.8270   25.5519 C   0  0  0  0  0  0  0  0  0  0  0  0
    6.9894  -13.8971   25.5794 C   0  0  0  0  0  0  0  0  0  0  0  0
    7.0288  -12.7998   26.5754 C   0  0  0  0  0  0  0  0  0  0  0  0
    5.8383  -11.8759   26.4057 C   0  0  0  0  0  0  0  0  0  0  0  0
    5.8408  -10.8898   27.4900 N   0  0  0  0  0  0  0  0  0  0  0  0
    9.4125  -16.6211   24.3941 C   0  0  0  0  0  0  0  0  0  0  0  0
    9.8802  -17.4385   25.2245 O   0  0  0  0  0  0  0  0  0  0  0  0
   11.8964  -15.6649   21.1576 O   0  0  0  0  0  0  0  0  0  0  0  0
   11.8217  -16.9870   21.5573 C   0  0  0  0  0  0  0  0  0  0  0  0
   11.4824  -17.0619   23.0321 C   0  0  2  0  0  0  0  0  0  0  0  0
   10.2130  -16.3617   23.2544 N   0  0  0  0  0  0  0  0  0  0  0  0
   12.5634  -16.4853   23.8466 C   0  0  0  0  0  0  0  0  0  0  0  0
   13.8337  -17.0245   23.7035 O   0  0  0  0  0  0  0  0  0  0  0  0
   12.3815  -15.5415   24.6508 O   0  0  0  0  0  0  0  0  0  0  0  0
  2  1  1  0
  3  4  2  0
  3  2  1  0
  5  3  1  0
  6  5  1  0
  6  7  1  1
  8  7  1  0
  9  8  1  0
 10 11  1  0
 10  9  1  0
 12  6  1  0
 12 13  2  0
 15 14  1  0
 16 15  1  6
 17 16  1  0
 17 12  1  0
 18 19  1  0
 18 16  1  0
 20 18  2  0
M  END
$$$$
