GKS.pdb
     RDKit          3D

 20 19  0  0  1  0  0  0  0  0999 V2000
    5.8863  -19.8168   23.7461 N   0  0  0  0  0  0  0  0  0  0  0  0
    5.6161  -18.4044   23.8065 C   0  0  0  0  0  0  0  0  0  0  0  0
    6.6300  -17.6704   22.9986 C   0  0  0  0  0  0  0  0  0  0  0  0
    7.5572  -18.3138   22.4752 O   0  0  0  0  0  0  0  0  0  0  0  0
    6.5125  -16.2608   22.8472 N   0  0  0  0  0  0  0  0  0  0  0  0
    7.4587  -15.5228   22.0897 C   0  0  1  0  0  0  0  0  0  0  0  0
    7.0613  -14.2096   21.5502 C   0  0  0  0  0  0  0  0  0  0  0  0
    8.0416  -13.5559   20.6318 C   0  0  0  0  0  0  0  0  0  0  0  0
    7.8356  -13.7574   19.1776 C   0  0  0  0  0  0  0  0  0  0  0  0
    8.8486  -12.9638   18.3754 C   0  0  0  0  0  0  0  0  0  0  0  0
    8.6129  -13.1943   16.9473 N   0  0  0  0  0  0  0  0  0  0  0  0
    8.7412  -15.4326   22.8972 C   0  0  0  0  0  0  0  0  0  0  0  0
    8.7418  -15.0532   24.0942 O   0  0  0  0  0  0  0  0  0  0  0  0
   10.9755  -18.0148   23.7133 O   0  0  0  0  0  0  0  0  0  0  0  0
   11.1193  -16.7519   24.2590 C   0  0  0  0  0  0  0  0  0  0  0  0
   11.2282  -15.7214   23.1535 C   0  0  2  0  0  0  0  0  0  0  0  0
   10.0031  -15.7701   22.3487 N   0  0  0  0  0  0  0  0  0  0  0  0
   12.4222  -15.9641   22.3289 C   0  0  0  0  0  0  0  0  0  0  0  0
   12.2263  -16.2971   20.9964 O   0  0  0  0  0  0  0  0  0  0  0  0
   13.5891  -15.8825   22.7787 O   0  0  0  0  0  0  0  0  0  0  0  0
  2  1  1  0
  3  4  2  0
  3  2  1  0
  5  3  1  0
  6  5  1  0
  6  7  1  1
  8  7  1  0
  9  8  1  0
 10 11  1  0
 10  9  1  0
 12  6  1  0
 12 13  2  0
 15 14  1  0
 16 15  1  1
 17 16  1  0
 17 12  1  0
 18 19  1  0
 18 16  1  0
 20 18  2  0
M  END
$$$$
