GKS.pdb
     RDKit          3D

 20 19  0  0  1  0  0  0  0  0999 V2000
   11.0961  -20.3578   18.3126 N   0  0  0  0  0  0  0  0  0  0  0  0
   11.4866  -21.2195   19.3973 C   0  0  0  0  0  0  0  0  0  0  0  0
   11.9915  -20.3937   20.5297 C   0  0  0  0  0  0  0  0  0  0  0  0
   12.2241  -19.1875   20.3330 O   0  0  0  0  0  0  0  0  0  0  0  0
   12.1936  -21.0019   21.7997 N   0  0  0  0  0  0  0  0  0  0  0  0
   12.6750  -20.2522   22.9042 C   0  0  1  0  0  0  0  0  0  0  0  0
   12.3706  -20.7270   24.2663 C   0  0  0  0  0  0  0  0  0  0  0  0
   12.6987  -19.7831   25.3767 C   0  0  0  0  0  0  0  0  0  0  0  0
   12.4890  -20.2753   26.7593 C   0  0  0  0  0  0  0  0  0  0  0  0
   12.9903  -19.2643   27.7724 C   0  0  0  0  0  0  0  0  0  0  0  0
   12.9446  -19.8646   29.1086 N   0  0  0  0  0  0  0  0  0  0  0  0
   14.1638  -20.0278   22.7081 C   0  0  0  0  0  0  0  0  0  0  0  0
   14.9762  -20.9845   22.6742 O   0  0  0  0  0  0  0  0  0  0  0  0
   15.6334  -16.7057   20.8680 O   0  0  0  0  0  0  0  0  0  0  0  0
   16.3040  -17.9144   20.9183 C   0  0  0  0  0  0  0  0  0  0  0  0
   16.1467  -18.5350   22.2916 C   0  0  2  0  0  0  0  0  0  0  0  0
   14.7172  -18.7330   22.5526 N   0  0  0  0  0  0  0  0  0  0  0  0
   16.7684  -17.6883   23.3217 C   0  0  0  0  0  0  0  0  0  0  0  0
   15.9394  -17.1408   24.2901 O   0  0  0  0  0  0  0  0  0  0  0  0
   17.9979  -17.4481   23.3555 O   0  0  0  0  0  0  0  0  0  0  0  0
  2  1  1  0
  3  4  2  0
  3  2  1  0
  5  3  1  0
  6  5  1  0
  6  7  1  1
  8  7  1  0
  9  8  1  0
 10 11  1  0
 10  9  1  0
 12  6  1  0
 12 13  2  0
 15 14  1  0
 16 15  1  6
 17 16  1  0
 17 12  1  0
 18 19  1  0
 18 16  1  0
 20 18  2  0
M  END
$$$$
