GKS.pdb
     RDKit          3D

 20 19  0  0  1  0  0  0  0  0999 V2000
   -5.0053  -23.5834   23.3139 N   0  0  0  0  0  0  0  0  0  0  0  0
   -3.9982  -24.0123   24.2485 C   0  0  0  0  0  0  0  0  0  0  0  0
   -4.6547  -24.5491   25.4734 C   0  0  0  0  0  0  0  0  0  0  0  0
   -5.8064  -25.0103   25.3813 O   0  0  0  0  0  0  0  0  0  0  0  0
   -3.9518  -24.5207   26.7098 N   0  0  0  0  0  0  0  0  0  0  0  0
   -4.4959  -25.1166   27.8771 C   0  0  1  0  0  0  0  0  0  0  0  0
   -3.6108  -25.9252   28.7352 C   0  0  0  0  0  0  0  0  0  0  0  0
   -4.2755  -26.6571   29.8551 C   0  0  0  0  0  0  0  0  0  0  0  0
   -3.3935  -27.3928   30.7923 C   0  0  0  0  0  0  0  0  0  0  0  0
   -4.2025  -28.0275   31.9069 C   0  0  0  0  0  0  0  0  0  0  0  0
   -3.2876  -28.5164   32.9422 N   0  0  0  0  0  0  0  0  0  0  0  0
   -5.2100  -24.0356   28.6687 C   0  0  0  0  0  0  0  0  0  0  0  0
   -4.5855  -23.0814   29.1941 O   0  0  0  0  0  0  0  0  0  0  0  0
   -8.9086  -21.2737   29.4227 O   0  0  0  0  0  0  0  0  0  0  0  0
   -8.2021  -22.2220   28.7052 C   0  0  0  0  0  0  0  0  0  0  0  0
   -7.2895  -22.9972   29.6338 C   0  0  2  0  0  0  0  0  0  0  0  0
   -6.6140  -24.0424   28.8578 N   0  0  0  0  0  0  0  0  0  0  0  0
   -8.0497  -23.5685   30.7563 C   0  0  0  0  0  0  0  0  0  0  0  0
   -8.2947  -22.7500   31.8495 O   0  0  0  0  0  0  0  0  0  0  0  0
   -8.4764  -24.7469   30.7608 O   0  0  0  0  0  0  0  0  0  0  0  0
  2  1  1  0
  3  4  2  0
  3  2  1  0
  5  3  1  0
  6  5  1  0
  6  7  1  1
  8  7  1  0
  9  8  1  0
 10 11  1  0
 10  9  1  0
 12  6  1  0
 12 13  2  0
 15 14  1  0
 16 15  1  6
 17 16  1  0
 17 12  1  0
 18 19  1  0
 18 16  1  0
 20 18  2  0
M  END
$$$$
