GKS.pdb
     RDKit          3D

 20 19  0  0  1  0  0  0  0  0999 V2000
    4.1076  -18.4587   12.5587 N   0  0  0  0  0  0  0  0  0  0  0  0
    4.1528  -19.6330   13.3897 C   0  0  0  0  0  0  0  0  0  0  0  0
    4.2355  -19.2254   14.8202 C   0  0  0  0  0  0  0  0  0  0  0  0
    4.8606  -18.1901   15.1118 O   0  0  0  0  0  0  0  0  0  0  0  0
    3.6012  -20.0259   15.8105 N   0  0  0  0  0  0  0  0  0  0  0  0
    3.6511  -19.6710   17.1836 C   0  0  1  0  0  0  0  0  0  0  0  0
    2.5409  -20.0853   18.0607 C   0  0  0  0  0  0  0  0  0  0  0  0
    2.6412  -19.6585   19.4888 C   0  0  0  0  0  0  0  0  0  0  0  0
    1.4842  -19.9657   20.3633 C   0  0  0  0  0  0  0  0  0  0  0  0
    1.7230  -19.4550   21.7711 C   0  0  0  0  0  0  0  0  0  0  0  0
    0.5367  -19.7301   22.5865 N   0  0  0  0  0  0  0  0  0  0  0  0
    4.9956  -20.1105   17.7351 C   0  0  0  0  0  0  0  0  0  0  0  0
    5.3953  -21.2963   17.6317 O   0  0  0  0  0  0  0  0  0  0  0  0
    8.1315  -17.5266   18.5548 O   0  0  0  0  0  0  0  0  0  0  0  0
    8.2642  -18.8735   18.2692 C   0  0  0  0  0  0  0  0  0  0  0  0
    7.1557  -19.6558   18.9439 C   0  0  2  0  0  0  0  0  0  0  0  0
    5.8707  -19.2119   18.3938 N   0  0  0  0  0  0  0  0  0  0  0  0
    7.2049  -19.4782   20.4035 C   0  0  0  0  0  0  0  0  0  0  0  0
    8.3349  -19.9319   21.0685 O   0  0  0  0  0  0  0  0  0  0  0  0
    6.2795  -18.9416   21.0564 O   0  0  0  0  0  0  0  0  0  0  0  0
  2  1  1  0
  3  4  2  0
  3  2  1  0
  5  3  1  0
  6  5  1  0
  6  7  1  1
  8  7  1  0
  9  8  1  0
 10 11  1  0
 10  9  1  0
 12  6  1  0
 12 13  2  0
 15 14  1  0
 16 15  1  6
 17 16  1  0
 17 12  1  0
 18 19  1  0
 18 16  1  0
 20 18  2  0
M  END
$$$$
