GKS.pdb
     RDKit          3D

 20 19  0  0  1  0  0  0  0  0999 V2000
    7.6582  -12.1529   19.3403 N   0  0  0  0  0  0  0  0  0  0  0  0
    7.9112  -13.5337   19.0228 C   0  0  0  0  0  0  0  0  0  0  0  0
    7.8789  -14.3439   20.2725 C   0  0  0  0  0  0  0  0  0  0  0  0
    8.4453  -13.9004   21.2875 O   0  0  0  0  0  0  0  0  0  0  0  0
    7.2052  -15.5968   20.2733 N   0  0  0  0  0  0  0  0  0  0  0  0
    7.2862  -16.4729   21.3868 C   0  0  1  0  0  0  0  0  0  0  0  0
    6.4129  -17.6603   21.4159 C   0  0  0  0  0  0  0  0  0  0  0  0
    6.5906  -18.5745   22.5839 C   0  0  0  0  0  0  0  0  0  0  0  0
    5.7049  -19.7617   22.6471 C   0  0  0  0  0  0  0  0  0  0  0  0
    5.8922  -20.5039   23.9562 C   0  0  0  0  0  0  0  0  0  0  0  0
    4.8763  -21.5554   24.0585 N   0  0  0  0  0  0  0  0  0  0  0  0
    8.7445  -16.8441   21.5889 C   0  0  0  0  0  0  0  0  0  0  0  0
    9.5048  -17.0835   20.6187 O   0  0  0  0  0  0  0  0  0  0  0  0
   12.7277  -15.6542   22.6951 O   0  0  0  0  0  0  0  0  0  0  0  0
   11.3592  -15.6823   22.4958 C   0  0  0  0  0  0  0  0  0  0  0  0
   10.7813  -16.9632   23.0623 C   0  0  2  0  0  0  0  0  0  0  0  0
    9.3267  -16.9404   22.8768 N   0  0  0  0  0  0  0  0  0  0  0  0
   11.1392  -17.1150   24.4813 C   0  0  0  0  0  0  0  0  0  0  0  0
   10.1044  -17.1558   25.4045 O   0  0  0  0  0  0  0  0  0  0  0  0
   12.3241  -17.2070   24.8791 O   0  0  0  0  0  0  0  0  0  0  0  0
  2  1  1  0
  3  4  2  0
  3  2  1  0
  5  3  1  0
  6  5  1  0
  6  7  1  6
  8  7  1  0
  9  8  1  0
 10 11  1  0
 10  9  1  0
 12  6  1  0
 12 13  2  0
 15 14  1  0
 16 15  1  1
 17 16  1  0
 17 12  1  0
 18 19  1  0
 18 16  1  0
 20 18  2  0
M  END
$$$$
