PHY.pdb
     RDKit          3D

 30 32  0  0  1  0  0  0  0  0999 V2000
    9.5576  -13.9401   18.5812 N   0  0  0  0  0  0  0  0  0  0  0  0
    8.9825  -13.6805   17.2943 C   0  0  0  0  0  0  0  0  0  0  0  0
    7.5542  -13.2483   17.5159 C   0  0  0  0  0  0  0  0  0  0  0  0
    7.2309  -13.6796   18.9124 C   0  0  0  0  0  0  0  0  0  0  0  0
    8.5597  -13.8135   19.5897 C   0  0  1  0  0  0  0  0  0  0  0  0
    8.6056  -15.0052   20.4944 C   0  0  0  0  0  0  0  0  0  0  0  0
    7.6433  -15.2196   21.2836 O   0  0  0  0  0  0  0  0  0  0  0  0
    9.6809  -15.9045   20.5057 N   0  0  0  0  0  0  0  0  0  0  0  0
    9.7191  -16.9706   21.5759 C   0  0  1  0  0  0  0  0  0  0  0  0
   10.7732  -17.9017   21.0585 C   0  0  0  0  0  0  0  0  0  0  0  0
   10.4079  -18.8398   20.0137 C   0  0  0  0  0  0  0  0  0  0  0  0
   10.7752  -18.6947   18.6662 C   0  0  0  0  0  0  0  0  0  0  0  0
   10.2714  -19.7285   18.0121 N   0  0  0  0  0  0  0  0  0  0  0  0
    9.5999  -20.5340   18.8559 C   0  0  0  0  0  0  0  0  0  0  0  0
    9.7099  -19.9545   20.0592 N   0  0  0  0  0  0  0  0  0  0  0  0
   10.0515  -16.2757   22.8340 C   0  0  0  0  0  0  0  0  0  0  0  0
   10.7713  -15.2013   22.8068 O   0  0  0  0  0  0  0  0  0  0  0  0
    6.0042  -11.3345   28.3090 O   0  0  0  0  0  0  0  0  0  0  0  0
    6.5718  -12.2054   27.3793 C   0  0  0  0  0  0  0  0  0  0  0  0
    7.8641  -12.0509   26.9343 C   0  0  0  0  0  0  0  0  0  0  0  0
    8.4110  -12.9088   26.0238 C   0  0  0  0  0  0  0  0  0  0  0  0
    7.6253  -13.9590   25.5460 C   0  0  0  0  0  0  0  0  0  0  0  0
    8.1548  -14.9064   24.5628 C   0  0  0  0  0  0  0  0  0  0  0  0
    9.2365  -15.7735   25.1529 C   0  0  2  0  0  0  0  0  0  0  0  0
    9.6078  -16.7313   24.0851 N   0  0  0  0  0  0  0  0  0  0  0  0
    8.7686  -16.4894   26.3373 C   0  0  0  0  0  0  0  0  0  0  0  0
    8.9892  -16.0951   27.5036 O   0  0  0  0  0  0  0  0  0  0  0  0
    6.3213  -14.1259   25.9865 C   0  0  0  0  0  0  0  0  0  0  0  0
    5.8135  -13.2400   26.9019 C   0  0  0  0  0  0  0  0  0  0  0  0
    8.0367  -17.6756   26.1737 O   0  0  0  0  0  0  0  0  0  0  0  0
  1  2  1  0
  1  5  1  0
  2  3  1  0
  3  4  1  0
  5  4  1  0
  5  6  1  1
  6  7  2  0
  8  6  1  0
  9  8  1  0
  9 10  1  6
 11 10  1  0
 11 15  1  0
 12 13  1  0
 12 11  2  0
 13 14  1  0
 14 15  2  0
 16  9  1  0
 17 16  2  0
 18 19  1  0
 19 29  2  0
 19 20  1  0
 20 21  2  0
 21 22  1  0
 22 23  1  0
 24 23  1  6
 24 25  1  0
 25 16  1  0
 26 24  1  0
 26 30  1  0
 27 26  2  0
 28 22  2  0
 29 28  1  0
M  END
$$$$
