PHY.pdb
     RDKit          3D

 30 32  0  0  1  0  0  0  0  0999 V2000
    9.3687  -14.0067   18.1873 N   0  0  0  0  0  0  0  0  0  0  0  0
    8.6599  -13.6642   16.9897 C   0  0  0  0  0  0  0  0  0  0  0  0
    7.3703  -12.9984   17.4018 C   0  0  0  0  0  0  0  0  0  0  0  0
    7.1911  -13.3597   18.8434 C   0  0  0  0  0  0  0  0  0  0  0  0
    8.5655  -13.7083   19.3251 C   0  0  1  0  0  0  0  0  0  0  0  0
    8.5490  -14.8844   20.2510 C   0  0  0  0  0  0  0  0  0  0  0  0
    7.7413  -14.8956   21.2218 O   0  0  0  0  0  0  0  0  0  0  0  0
    9.3993  -15.9868   20.0876 N   0  0  0  0  0  0  0  0  0  0  0  0
    9.4021  -17.0603   21.1512 C   0  0  1  0  0  0  0  0  0  0  0  0
   10.2356  -18.1324   20.5175 C   0  0  0  0  0  0  0  0  0  0  0  0
   10.4222  -19.3754   21.2423 C   0  0  0  0  0  0  0  0  0  0  0  0
    9.8722  -19.6353   22.5079 C   0  0  0  0  0  0  0  0  0  0  0  0
   10.2484  -20.8560   22.8525 N   0  0  0  0  0  0  0  0  0  0  0  0
   11.0090  -21.4017   21.8852 C   0  0  0  0  0  0  0  0  0  0  0  0
   11.0871  -20.4668   20.9283 N   0  0  0  0  0  0  0  0  0  0  0  0
    9.9810  -16.4394   22.3577 C   0  0  0  0  0  0  0  0  0  0  0  0
   11.0566  -15.7270   22.2637 O   0  0  0  0  0  0  0  0  0  0  0  0
   10.9967  -14.2611   30.8214 O   0  0  0  0  0  0  0  0  0  0  0  0
   10.4903  -14.6650   29.5864 C   0  0  0  0  0  0  0  0  0  0  0  0
   10.2725  -15.9902   29.2892 C   0  0  0  0  0  0  0  0  0  0  0  0
    9.7762  -16.3758   28.0771 C   0  0  0  0  0  0  0  0  0  0  0  0
    9.4902  -15.3887   27.1324 C   0  0  0  0  0  0  0  0  0  0  0  0
    8.9633  -15.7421   25.8126 C   0  0  0  0  0  0  0  0  0  0  0  0
   10.0697  -16.0305   24.8312 C   0  0  2  0  0  0  0  0  0  0  0  0
    9.4032  -16.5825   23.6286 N   0  0  0  0  0  0  0  0  0  0  0  0
   11.0293  -16.9930   25.3670 C   0  0  0  0  0  0  0  0  0  0  0  0
   12.1903  -16.6789   25.7103 O   0  0  0  0  0  0  0  0  0  0  0  0
    9.7052  -14.0494   27.4194 C   0  0  0  0  0  0  0  0  0  0  0  0
   10.2050  -13.7083   28.6501 C   0  0  0  0  0  0  0  0  0  0  0  0
   10.6442  -18.3351   25.5085 O   0  0  0  0  0  0  0  0  0  0  0  0
  1  2  1  0
  1  5  1  0
  2  3  1  0
  3  4  1  0
  5  4  1  0
  5  6  1  1
  6  7  2  0
  8  6  1  0
  9  8  1  0
  9 10  1  6
 11 10  1  0
 11 15  1  0
 12 13  1  0
 12 11  2  0
 13 14  1  0
 14 15  2  0
 16  9  1  0
 17 16  2  0
 18 19  1  0
 19 29  2  0
 19 20  1  0
 20 21  2  0
 21 22  1  0
 22 23  1  0
 24 23  1  1
 24 25  1  0
 25 16  1  0
 26 24  1  0
 26 30  1  0
 27 26  2  0
 28 22  2  0
 29 28  1  0
M  END
$$$$
