PHY.pdb
     RDKit          3D

 30 32  0  0  1  0  0  0  0  0999 V2000
    9.0209  -14.5364   18.0993 N   0  0  0  0  0  0  0  0  0  0  0  0
    8.5176  -14.1446   16.8158 C   0  0  0  0  0  0  0  0  0  0  0  0
    7.7951  -12.8323   16.9944 C   0  0  0  0  0  0  0  0  0  0  0  0
    7.5492  -12.7226   18.4669 C   0  0  0  0  0  0  0  0  0  0  0  0
    8.5683  -13.6229   19.0940 C   0  0  1  0  0  0  0  0  0  0  0  0
    8.0018  -14.3822   20.2531 C   0  0  0  0  0  0  0  0  0  0  0  0
    7.5136  -13.7467   21.2291 O   0  0  0  0  0  0  0  0  0  0  0  0
    7.9886  -15.7830   20.3049 N   0  0  0  0  0  0  0  0  0  0  0  0
    7.4405  -16.4544   21.5428 C   0  0  1  0  0  0  0  0  0  0  0  0
    7.3577  -17.8884   21.1155 C   0  0  0  0  0  0  0  0  0  0  0  0
    6.9373  -18.8733   22.0945 C   0  0  0  0  0  0  0  0  0  0  0  0
    5.6750  -18.8784   22.7094 C   0  0  0  0  0  0  0  0  0  0  0  0
    5.6483  -19.9121   23.5348 N   0  0  0  0  0  0  0  0  0  0  0  0
    6.8183  -20.5763   23.4906 C   0  0  0  0  0  0  0  0  0  0  0  0
    7.5691  -19.9096   22.6032 N   0  0  0  0  0  0  0  0  0  0  0  0
    8.4046  -16.1710   22.6229 C   0  0  0  0  0  0  0  0  0  0  0  0
    9.6734  -16.1706   22.3713 O   0  0  0  0  0  0  0  0  0  0  0  0
   11.3825  -14.6697   30.7754 O   0  0  0  0  0  0  0  0  0  0  0  0
   10.6170  -14.7189   29.6107 C   0  0  0  0  0  0  0  0  0  0  0  0
   10.5368  -13.6499   28.7488 C   0  0  0  0  0  0  0  0  0  0  0  0
    9.7846  -13.7077   27.6108 C   0  0  0  0  0  0  0  0  0  0  0  0
    9.0893  -14.8859   27.3337 C   0  0  0  0  0  0  0  0  0  0  0  0
    8.2604  -15.0042   26.1324 C   0  0  0  0  0  0  0  0  0  0  0  0
    9.0013  -15.6845   25.0105 C   0  0  2  0  0  0  0  0  0  0  0  0
    8.0007  -15.8887   23.9369 N   0  0  0  0  0  0  0  0  0  0  0  0
    9.5620  -16.9657   25.4327 C   0  0  0  0  0  0  0  0  0  0  0  0
    8.8792  -18.0088   25.5331 O   0  0  0  0  0  0  0  0  0  0  0  0
    9.1618  -15.9707   28.1942 C   0  0  0  0  0  0  0  0  0  0  0  0
    9.9297  -15.8677   29.3257 C   0  0  0  0  0  0  0  0  0  0  0  0
   10.9285  -17.0443   25.7428 O   0  0  0  0  0  0  0  0  0  0  0  0
  1  2  1  0
  1  5  1  0
  2  3  1  0
  3  4  1  0
  5  4  1  0
  5  6  1  1
  6  7  2  0
  8  6  1  0
  9  8  1  0
  9 10  1  6
 11 10  1  0
 11 15  1  0
 12 13  1  0
 12 11  2  0
 13 14  1  0
 14 15  2  0
 16  9  1  0
 17 16  2  0
 18 19  1  0
 19 29  2  0
 19 20  1  0
 20 21  2  0
 21 22  1  0
 22 23  1  0
 24 23  1  1
 24 25  1  0
 25 16  1  0
 26 24  1  0
 26 30  1  0
 27 26  2  0
 28 22  2  0
 29 28  1  0
M  END
$$$$
