GVW.pdb
     RDKit          3D

 26 27  0  0  1  0  0  0  0  0999 V2000
    4.7825  -18.8274   21.1100 N   0  0  0  0  0  0  0  0  0  0  0  0
    5.0864  -17.7177   21.9652 C   0  0  0  0  0  0  0  0  0  0  0  0
    6.3821  -17.1021   21.5301 C   0  0  0  0  0  0  0  0  0  0  0  0
    7.3390  -17.8380   21.2466 O   0  0  0  0  0  0  0  0  0  0  0  0
    8.9089  -13.1056   20.1305 C   0  0  0  0  0  0  0  0  0  0  0  0
    7.5419  -13.7041   20.4609 C   0  0  1  0  0  0  0  0  0  0  0  0
    6.6862  -13.8426   19.2436 C   0  0  0  0  0  0  0  0  0  0  0  0
    7.7527  -15.0313   21.1914 C   0  0  2  0  0  0  0  0  0  0  0  0
    6.4986  -15.6885   21.4481 N   0  0  0  0  0  0  0  0  0  0  0  0
    8.4624  -14.7144   22.4818 C   0  0  0  0  0  0  0  0  0  0  0  0
    8.3124  -13.5828   23.0007 O   0  0  0  0  0  0  0  0  0  0  0  0
    9.2861  -15.6930   23.0902 N   0  0  0  0  0  0  0  0  0  0  0  0
   10.0579  -15.3856   24.2771 C   0  0  1  0  0  0  0  0  0  0  0  0
    9.3159  -15.9988   25.4530 C   0  0  0  0  0  0  0  0  0  0  0  0
    7.9995  -15.3719   25.6337 C   0  0  0  0  0  0  0  0  0  0  0  0
    6.7672  -15.9939   25.4055 C   0  0  0  0  0  0  0  0  0  0  0  0
    5.8147  -15.0999   25.6833 N   0  0  0  0  0  0  0  0  0  0  0  0
    6.3916  -13.9408   26.0766 C   0  0  0  0  0  0  0  0  0  0  0  0
    5.8686  -12.7210   26.4688 C   0  0  0  0  0  0  0  0  0  0  0  0
    6.7199  -11.6992   26.8206 C   0  0  0  0  0  0  0  0  0  0  0  0
    8.0864  -11.8428   26.7982 C   0  0  0  0  0  0  0  0  0  0  0  0
    8.6204  -13.0535   26.4094 C   0  0  0  0  0  0  0  0  0  0  0  0
    7.7586  -14.0865   26.0536 C   0  0  0  0  0  0  0  0  0  0  0  0
   11.3900  -16.0637   24.1370 C   0  0  0  0  0  0  0  0  0  0  0  0
   12.3717  -15.8040   25.0611 O   0  0  0  0  0  0  0  0  0  0  0  0
   11.6325  -16.8604   23.2007 O   0  0  0  0  0  0  0  0  0  0  0  0
  2  1  1  0
  3  4  2  0
  3  2  1  0
  6  5  1  6
  6  8  1  0
  7  6  1  0
  8  9  1  1
  9  3  1  0
 10 11  2  0
 10  8  1  0
 12 10  1  0
 13 12  1  0
 13 14  1  1
 15 23  1  0
 15 14  1  0
 16 15  2  0
 17 16  1  0
 17 18  1  0
 18 19  1  0
 18 23  2  0
 19 20  2  0
 20 21  1  0
 22 21  2  0
 23 22  1  0
 24 13  1  0
 25 24  1  0
 26 24  2  0
M  END
$$$$
