GVW.pdb
     RDKit          3D

 26 27  0  0  1  0  0  0  0  0999 V2000
    6.2986  -13.4617   19.1831 N   0  0  0  0  0  0  0  0  0  0  0  0
    7.6079  -13.4881   19.7665 C   0  0  0  0  0  0  0  0  0  0  0  0
    7.7824  -14.7695   20.5247 C   0  0  0  0  0  0  0  0  0  0  0  0
    6.7928  -15.4823   20.7484 O   0  0  0  0  0  0  0  0  0  0  0  0
   10.5959  -18.4885   21.8499 C   0  0  0  0  0  0  0  0  0  0  0  0
   10.3268  -17.2560   20.9872 C   0  0  1  0  0  0  0  0  0  0  0  0
    9.8982  -17.6274   19.6045 C   0  0  0  0  0  0  0  0  0  0  0  0
    9.3082  -16.3693   21.7054 C   0  0  2  0  0  0  0  0  0  0  0  0
    9.0742  -15.1507   20.9767 N   0  0  0  0  0  0  0  0  0  0  0  0
    9.8693  -16.0739   23.0718 C   0  0  0  0  0  0  0  0  0  0  0  0
   10.8673  -15.3216   23.1738 O   0  0  0  0  0  0  0  0  0  0  0  0
    9.2663  -16.6462   24.2186 N   0  0  0  0  0  0  0  0  0  0  0  0
    9.7655  -16.3564   25.5474 C   0  0  1  0  0  0  0  0  0  0  0  0
    8.5787  -16.4525   26.4916 C   0  0  0  0  0  0  0  0  0  0  0  0
    7.5562  -15.4506   26.1608 C   0  0  0  0  0  0  0  0  0  0  0  0
    6.3070  -15.7242   25.5932 C   0  0  0  0  0  0  0  0  0  0  0  0
    5.6729  -14.5575   25.4499 N   0  0  0  0  0  0  0  0  0  0  0  0
    6.4671  -13.5595   25.9020 C   0  0  0  0  0  0  0  0  0  0  0  0
    6.2951  -12.1884   25.9789 C   0  0  0  0  0  0  0  0  0  0  0  0
    7.3013  -11.4062   26.4969 C   0  0  0  0  0  0  0  0  0  0  0  0
    8.4855  -11.9383   26.9471 C   0  0  0  0  0  0  0  0  0  0  0  0
    8.6696  -13.3034   26.8761 C   0  0  0  0  0  0  0  0  0  0  0  0
    7.6514  -14.0938   26.3519 C   0  0  0  0  0  0  0  0  0  0  0  0
   10.7551  -17.4286   25.9012 C   0  0  0  0  0  0  0  0  0  0  0  0
   11.6008  -17.2316   26.9648 O   0  0  0  0  0  0  0  0  0  0  0  0
   10.8320  -18.4987   25.2538 O   0  0  0  0  0  0  0  0  0  0  0  0
  2  1  1  0
  3  4  2  0
  3  2  1  0
  6  5  1  1
  6  8  1  0
  7  6  1  0
  8  9  1  6
  9  3  1  0
 10 11  2  0
 10  8  1  0
 12 10  1  0
 13 12  1  0
 13 14  1  1
 15 23  1  0
 15 14  1  0
 16 15  2  0
 17 16  1  0
 17 18  1  0
 18 19  1  0
 18 23  2  0
 19 20  2  0
 20 21  1  0
 22 21  2  0
 23 22  1  0
 24 13  1  0
 25 24  1  0
 26 24  2  0
M  END
$$$$
