GVW.pdb
     RDKit          3D

 26 27  0  0  1  0  0  0  0  0999 V2000
    6.4894  -12.8534   18.9123 N   0  0  0  0  0  0  0  0  0  0  0  0
    7.7573  -13.0157   19.5613 C   0  0  0  0  0  0  0  0  0  0  0  0
    7.7019  -14.2182   20.4548 C   0  0  0  0  0  0  0  0  0  0  0  0
    6.6222  -14.5408   20.9723 O   0  0  0  0  0  0  0  0  0  0  0  0
    9.4927  -18.5399   21.7528 C   0  0  0  0  0  0  0  0  0  0  0  0
    9.5621  -17.3204   20.8341 C   0  0  1  0  0  0  0  0  0  0  0  0
    8.9734  -17.6024   19.4897 C   0  0  0  0  0  0  0  0  0  0  0  0
    8.8929  -16.1390   21.5382 C   0  0  2  0  0  0  0  0  0  0  0  0
    8.8820  -14.9710   20.6977 N   0  0  0  0  0  0  0  0  0  0  0  0
    9.6735  -15.8803   22.8002 C   0  0  0  0  0  0  0  0  0  0  0  0
   10.7859  -15.3066   22.7248 O   0  0  0  0  0  0  0  0  0  0  0  0
    9.1447  -16.2859   24.0501 N   0  0  0  0  0  0  0  0  0  0  0  0
    9.8542  -16.0153   25.2838 C   0  0  1  0  0  0  0  0  0  0  0  0
    8.8195  -16.0316   26.3966 C   0  0  0  0  0  0  0  0  0  0  0  0
    7.6755  -15.1698   26.0689 C   0  0  0  0  0  0  0  0  0  0  0  0
    6.4521  -15.6086   25.5510 C   0  0  0  0  0  0  0  0  0  0  0  0
    5.6794  -14.5308   25.3928 N   0  0  0  0  0  0  0  0  0  0  0  0
    6.3614  -13.4310   25.7882 C   0  0  0  0  0  0  0  0  0  0  0  0
    6.0290  -12.0880   25.8287 C   0  0  0  0  0  0  0  0  0  0  0  0
    6.9491  -11.1750   26.2896 C   0  0  0  0  0  0  0  0  0  0  0  0
    8.2009  -11.5473   26.7170 C   0  0  0  0  0  0  0  0  0  0  0  0
    8.5446  -12.8826   26.6817 C   0  0  0  0  0  0  0  0  0  0  0  0
    7.6134  -13.8055   26.2154 C   0  0  0  0  0  0  0  0  0  0  0  0
   10.8217  -17.1420   25.5043 C   0  0  0  0  0  0  0  0  0  0  0  0
   11.8447  -16.9767   26.4050 O   0  0  0  0  0  0  0  0  0  0  0  0
   10.7229  -18.2295   24.8899 O   0  0  0  0  0  0  0  0  0  0  0  0
  2  1  1  0
  3  4  2  0
  3  2  1  0
  6  5  1  1
  6  8  1  0
  7  6  1  0
  8  9  1  6
  9  3  1  0
 10 11  2  0
 10  8  1  0
 12 10  1  0
 13 12  1  0
 13 14  1  1
 15 23  1  0
 15 14  1  0
 16 15  2  0
 17 16  1  0
 17 18  1  0
 18 19  1  0
 18 23  2  0
 19 20  2  0
 20 21  1  0
 22 21  2  0
 23 22  1  0
 24 13  1  0
 25 24  1  0
 26 24  2  0
M  END
$$$$
