SFA.pdb
     RDKit          3D

 23 23  0  0  1  0  0  0  0  0999 V2000
   21.0977  -13.8687  -19.2315 O   0  0  0  0  0  0  0  0  0  0  0  0
   21.1792  -12.9654  -18.2010 C   0  0  0  0  0  0  0  0  0  0  0  0
   22.5940  -12.6158  -17.8070 C   0  0  2  0  0  0  0  0  0  0  0  0
   23.1454  -13.7520  -17.0929 N   0  0  0  0  0  0  0  0  0  0  0  0
   22.6096  -11.4479  -16.8899 C   0  0  0  0  0  0  0  0  0  0  0  0
   22.3292  -11.6897  -15.6773 O   0  0  0  0  0  0  0  0  0  0  0  0
   22.9098  -10.1442  -17.2962 N   0  0  0  0  0  0  0  0  0  0  0  0
   22.9157   -9.0580  -16.3246 C   0  0  1  0  0  0  0  0  0  0  0  0
   24.2640   -8.3592  -16.3398 C   0  0  0  0  0  0  0  0  0  0  0  0
   25.4136   -9.2157  -16.0756 C   0  0  0  0  0  0  0  0  0  0  0  0
   25.7577   -9.6924  -14.8272 C   0  0  0  0  0  0  0  0  0  0  0  0
   26.8333  -10.5130  -14.6147 C   0  0  0  0  0  0  0  0  0  0  0  0
   27.6097  -10.8847  -15.6773 C   0  0  0  0  0  0  0  0  0  0  0  0
   27.2942  -10.4269  -16.9364 C   0  0  0  0  0  0  0  0  0  0  0  0
   26.2114   -9.6047  -17.1293 C   0  0  0  0  0  0  0  0  0  0  0  0
   21.8787   -8.0655  -16.5832 C   0  0  0  0  0  0  0  0  0  0  0  0
   21.7303   -7.5634  -17.7206 O   0  0  0  0  0  0  0  0  0  0  0  0
   18.7840   -6.9589  -14.8486 C   0  0  0  0  0  0  0  0  0  0  0  0
   19.8924   -6.7370  -15.8815 C   0  0  2  0  0  0  0  0  0  0  0  0
   20.9907   -7.6222  -15.5621 N   0  0  0  0  0  0  0  0  0  0  0  0
   20.3227   -5.3201  -15.7449 C   0  0  0  0  0  0  0  0  0  0  0  0
   21.5914   -4.9647  -15.3171 O   0  0  0  0  0  0  0  0  0  0  0  0
   19.5056   -4.3835  -16.0283 O   0  0  0  0  0  0  0  0  0  0  0  0
  2  1  1  0
  3  4  1  1
  3  2  1  0
  5  3  1  0
  6  5  2  0
  7  5  1  0
  8  9  1  6
  8  7  1  0
  9 10  1  0
 10 15  2  0
 11 12  2  0
 11 10  1  0
 12 13  1  0
 13 14  2  0
 15 14  1  0
 16  8  1  0
 17 16  2  0
 19 18  1  1
 19 20  1  0
 20 16  1  0
 21 19  1  0
 21 22  1  0
 23 21  2  0
M  END
$$$$
