SFA.pdb
     RDKit          3D

 23 23  0  0  1  0  0  0  0  0999 V2000
   24.3420   -8.6328  -22.3220 O   0  0  0  0  0  0  0  0  0  0  0  0
   23.6162   -8.3346  -21.1956 C   0  0  0  0  0  0  0  0  0  0  0  0
   24.4082   -8.4386  -19.9146 C   0  0  2  0  0  0  0  0  0  0  0  0
   24.4626   -9.8401  -19.5434 N   0  0  0  0  0  0  0  0  0  0  0  0
   23.7309   -7.7011  -18.8178 C   0  0  0  0  0  0  0  0  0  0  0  0
   22.7135   -8.2656  -18.3140 O   0  0  0  0  0  0  0  0  0  0  0  0
   24.1553   -6.4580  -18.3389 N   0  0  0  0  0  0  0  0  0  0  0  0
   23.4419   -5.8135  -17.2436 C   0  0  1  0  0  0  0  0  0  0  0  0
   24.2477   -5.9329  -15.9619 C   0  0  0  0  0  0  0  0  0  0  0  0
   24.3175   -7.2724  -15.3912 C   0  0  0  0  0  0  0  0  0  0  0  0
   23.3133   -7.8525  -14.6433 C   0  0  0  0  0  0  0  0  0  0  0  0
   23.4010   -9.1223  -14.1378 C   0  0  0  0  0  0  0  0  0  0  0  0
   24.5275   -9.8598  -14.3768 C   0  0  0  0  0  0  0  0  0  0  0  0
   25.5482   -9.3112  -15.1195 C   0  0  0  0  0  0  0  0  0  0  0  0
   25.4417   -8.0360  -15.6179 C   0  0  0  0  0  0  0  0  0  0  0  0
   23.1817   -4.4007  -17.4951 C   0  0  0  0  0  0  0  0  0  0  0  0
   24.0644   -3.6539  -17.9760 O   0  0  0  0  0  0  0  0  0  0  0  0
   20.1508   -2.2168  -17.6123 C   0  0  0  0  0  0  0  0  0  0  0  0
   21.6668   -2.4249  -17.5562 C   0  0  2  0  0  0  0  0  0  0  0  0
   21.9202   -3.8055  -17.2083 N   0  0  0  0  0  0  0  0  0  0  0  0
   22.1794   -1.5269  -16.4873 C   0  0  0  0  0  0  0  0  0  0  0  0
   22.4518   -0.1866  -16.7074 O   0  0  0  0  0  0  0  0  0  0  0  0
   22.3815   -1.9915  -15.3175 O   0  0  0  0  0  0  0  0  0  0  0  0
  2  1  1  0
  3  4  1  1
  3  2  1  0
  5  3  1  0
  6  5  2  0
  7  5  1  0
  8  9  1  1
  8  7  1  0
  9 10  1  0
 10 15  2  0
 11 12  2  0
 11 10  1  0
 12 13  1  0
 13 14  2  0
 15 14  1  0
 16  8  1  0
 17 16  2  0
 19 18  1  1
 19 20  1  0
 20 16  1  0
 21 19  1  0
 21 22  1  0
 23 21  2  0
M  END
$$$$
