SFA.pdb
     RDKit          3D

 23 23  0  0  1  0  0  0  0  0999 V2000
   25.0349  -19.8970  -13.0340 O   0  0  0  0  0  0  0  0  0  0  0  0
   26.3464  -19.8776  -13.4392 C   0  0  0  0  0  0  0  0  0  0  0  0
   27.1495  -21.0635  -12.9623 C   0  0  2  0  0  0  0  0  0  0  0  0
   26.6187  -22.2456  -13.6149 N   0  0  0  0  0  0  0  0  0  0  0  0
   26.9984  -21.2440  -11.4960 C   0  0  0  0  0  0  0  0  0  0  0  0
   26.1218  -22.0823  -11.1267 O   0  0  0  0  0  0  0  0  0  0  0  0
   27.7553  -20.5524  -10.5454 N   0  0  0  0  0  0  0  0  0  0  0  0
   27.4681  -20.7106   -9.1254 C   0  0  1  0  0  0  0  0  0  0  0  0
   28.5190  -19.9862   -8.3025 C   0  0  0  0  0  0  0  0  0  0  0  0
   28.3058  -20.0068   -6.8606 C   0  0  0  0  0  0  0  0  0  0  0  0
   28.6321  -21.0681   -6.0412 C   0  0  0  0  0  0  0  0  0  0  0  0
   28.4380  -21.0485   -4.6856 C   0  0  0  0  0  0  0  0  0  0  0  0
   27.8980  -19.9346   -4.1045 C   0  0  0  0  0  0  0  0  0  0  0  0
   27.5613  -18.8580   -4.8931 C   0  0  0  0  0  0  0  0  0  0  0  0
   27.7635  -18.8967   -6.2509 C   0  0  0  0  0  0  0  0  0  0  0  0
   26.1554  -20.1939   -8.7554 C   0  0  0  0  0  0  0  0  0  0  0  0
   25.8524  -18.9943   -8.9479 O   0  0  0  0  0  0  0  0  0  0  0  0
   22.8793  -20.9219   -8.9367 C   0  0  0  0  0  0  0  0  0  0  0  0
   23.8568  -20.4854   -7.8419 C   0  0  2  0  0  0  0  0  0  0  0  0
   25.1611  -21.0225   -8.1614 N   0  0  0  0  0  0  0  0  0  0  0  0
   23.3602  -21.0740   -6.5697 C   0  0  0  0  0  0  0  0  0  0  0  0
   24.0615  -22.0455   -5.8745 O   0  0  0  0  0  0  0  0  0  0  0  0
   22.2482  -20.6811   -6.0857 O   0  0  0  0  0  0  0  0  0  0  0  0
  2  1  1  0
  3  4  1  6
  3  2  1  0
  5  3  1  0
  6  5  2  0
  7  5  1  0
  8  9  1  1
  8  7  1  0
  9 10  1  0
 10 15  2  0
 11 12  2  0
 11 10  1  0
 12 13  1  0
 13 14  2  0
 15 14  1  0
 16  8  1  0
 17 16  2  0
 19 18  1  6
 19 20  1  0
 20 16  1  0
 21 19  1  0
 21 22  1  0
 23 21  2  0
M  END
$$$$
