SFA.pdb
     RDKit          3D

 23 23  0  0  1  0  0  0  0  0999 V2000
   16.5320  -14.0065  -18.6365 O   0  0  0  0  0  0  0  0  0  0  0  0
   17.5889  -13.5422  -17.8936 C   0  0  0  0  0  0  0  0  0  0  0  0
   18.9197  -13.6390  -18.5996 C   0  0  2  0  0  0  0  0  0  0  0  0
   19.3846  -15.0078  -18.4766 N   0  0  0  0  0  0  0  0  0  0  0  0
   19.9225  -12.7556  -17.9519 C   0  0  0  0  0  0  0  0  0  0  0  0
   20.5825  -13.2692  -16.9989 O   0  0  0  0  0  0  0  0  0  0  0  0
   20.1573  -11.4323  -18.3375 N   0  0  0  0  0  0  0  0  0  0  0  0
   21.1671  -10.6379  -17.6496 C   0  0  1  0  0  0  0  0  0  0  0  0
   22.1224  -10.0295  -18.6613 C   0  0  0  0  0  0  0  0  0  0  0  0
   22.9226  -10.9852  -19.4171 C   0  0  0  0  0  0  0  0  0  0  0  0
   22.5152  -11.5836  -20.5919 C   0  0  0  0  0  0  0  0  0  0  0  0
   23.2997  -12.4628  -21.2899 C   0  0  0  0  0  0  0  0  0  0  0  0
   24.5441  -12.7707  -20.8137 C   0  0  0  0  0  0  0  0  0  0  0  0
   24.9814  -12.1913  -19.6443 C   0  0  0  0  0  0  0  0  0  0  0  0
   24.1801  -11.3119  -18.9585 C   0  0  0  0  0  0  0  0  0  0  0  0
   20.5902   -9.5604  -16.8539 C   0  0  0  0  0  0  0  0  0  0  0  0
   19.8809   -8.6729  -17.3805 O   0  0  0  0  0  0  0  0  0  0  0  0
   20.1305   -8.8931  -13.2047 C   0  0  0  0  0  0  0  0  0  0  0  0
   20.1201   -8.4554  -14.6720 C   0  0  2  0  0  0  0  0  0  0  0  0
   20.8035   -9.4656  -15.4491 N   0  0  0  0  0  0  0  0  0  0  0  0
   20.8657   -7.1703  -14.7371 C   0  0  0  0  0  0  0  0  0  0  0  0
   22.0877   -7.0497  -15.3781 O   0  0  0  0  0  0  0  0  0  0  0  0
   20.3761   -6.1295  -14.1874 O   0  0  0  0  0  0  0  0  0  0  0  0
  2  1  1  0
  3  4  1  1
  3  2  1  0
  5  3  1  0
  6  5  2  0
  7  5  1  0
  8  9  1  6
  8  7  1  0
  9 10  1  0
 10 15  2  0
 11 12  2  0
 11 10  1  0
 12 13  1  0
 13 14  2  0
 15 14  1  0
 16  8  1  0
 17 16  2  0
 19 18  1  1
 19 20  1  0
 20 16  1  0
 21 19  1  0
 21 22  1  0
 23 21  2  0
M  END
$$$$
