SFA.pdb
     RDKit          3D

 23 23  0  0  1  0  0  0  0  0999 V2000
   13.4222   -7.0141   -7.1631 O   0  0  0  0  0  0  0  0  0  0  0  0
   14.1862   -6.6421   -8.2412 C   0  0  0  0  0  0  0  0  0  0  0  0
   14.9782   -5.3762   -8.0195 C   0  0  2  0  0  0  0  0  0  0  0  0
   14.0386   -4.2718   -7.9718 N   0  0  0  0  0  0  0  0  0  0  0  0
   15.9098   -5.1354   -9.1507 C   0  0  0  0  0  0  0  0  0  0  0  0
   15.4401   -4.4765  -10.1268 O   0  0  0  0  0  0  0  0  0  0  0  0
   17.2319   -5.5893   -9.1792 N   0  0  0  0  0  0  0  0  0  0  0  0
   18.0266   -5.4522  -10.3932 C   0  0  1  0  0  0  0  0  0  0  0  0
   19.5051   -5.5152  -10.0521 C   0  0  0  0  0  0  0  0  0  0  0  0
   20.4135   -5.3350  -11.1778 C   0  0  0  0  0  0  0  0  0  0  0  0
   21.1149   -6.3579  -11.7827 C   0  0  0  0  0  0  0  0  0  0  0  0
   21.9457   -6.1588  -12.8531 C   0  0  0  0  0  0  0  0  0  0  0  0
   22.0966   -4.8958  -13.3554 C   0  0  0  0  0  0  0  0  0  0  0  0
   21.4112   -3.8526  -12.7754 C   0  0  0  0  0  0  0  0  0  0  0  0
   20.5826   -4.0723  -11.7025 C   0  0  0  0  0  0  0  0  0  0  0  0
   17.7354   -6.4887  -11.3769 C   0  0  0  0  0  0  0  0  0  0  0  0
   17.7533   -7.7017  -11.0662 O   0  0  0  0  0  0  0  0  0  0  0  0
   15.8551   -6.7937  -14.4583 C   0  0  0  0  0  0  0  0  0  0  0  0
   17.0929   -7.2258  -13.6675 C   0  0  2  0  0  0  0  0  0  0  0  0
   17.4188   -6.1745  -12.7293 N   0  0  0  0  0  0  0  0  0  0  0  0
   18.1929   -7.3874  -14.6552 C   0  0  0  0  0  0  0  0  0  0  0  0
   18.4661   -8.5956  -15.2751 O   0  0  0  0  0  0  0  0  0  0  0  0
   18.9224   -6.3857  -14.9550 O   0  0  0  0  0  0  0  0  0  0  0  0
  2  1  1  0
  3  4  1  6
  3  2  1  0
  5  3  1  0
  6  5  2  0
  7  5  1  0
  8  9  1  1
  8  7  1  0
  9 10  1  0
 10 15  2  0
 11 12  2  0
 11 10  1  0
 12 13  1  0
 13 14  2  0
 15 14  1  0
 16  8  1  0
 17 16  2  0
 19 18  1  6
 19 20  1  0
 20 16  1  0
 21 19  1  0
 21 22  1  0
 23 21  2  0
M  END
$$$$
