SFA.pdb
     RDKit          3D

 23 23  0  0  1  0  0  0  0  0999 V2000
   18.7388   -9.3317  -19.5169 O   0  0  0  0  0  0  0  0  0  0  0  0
   18.7619   -8.7369  -18.2799 C   0  0  0  0  0  0  0  0  0  0  0  0
   20.0737   -8.8978  -17.5503 C   0  0  2  0  0  0  0  0  0  0  0  0
   20.1111  -10.2410  -17.0032 N   0  0  0  0  0  0  0  0  0  0  0  0
   20.1654   -7.9404  -16.4187 C   0  0  0  0  0  0  0  0  0  0  0  0
   19.4905   -8.2340  -15.3863 O   0  0  0  0  0  0  0  0  0  0  0  0
   20.9366   -6.7746  -16.4473 N   0  0  0  0  0  0  0  0  0  0  0  0
   21.0391   -5.9358  -15.2598 C   0  0  1  0  0  0  0  0  0  0  0  0
   22.4467   -6.0108  -14.6949 C   0  0  0  0  0  0  0  0  0  0  0  0
   22.9220   -7.3524  -14.3800 C   0  0  0  0  0  0  0  0  0  0  0  0
   23.7977   -8.0719  -15.1672 C   0  0  0  0  0  0  0  0  0  0  0  0
   24.2420   -9.3236  -14.8330 C   0  0  0  0  0  0  0  0  0  0  0  0
   23.8071   -9.8982  -13.6708 C   0  0  0  0  0  0  0  0  0  0  0  0
   22.9331   -9.2076  -12.8624 C   0  0  0  0  0  0  0  0  0  0  0  0
   22.4989   -7.9533  -13.2147 C   0  0  0  0  0  0  0  0  0  0  0  0
   20.7239   -4.5376  -15.5292 C   0  0  0  0  0  0  0  0  0  0  0  0
   21.2047   -3.9435  -16.5212 O   0  0  0  0  0  0  0  0  0  0  0  0
   18.1946   -2.0745  -14.3390 C   0  0  0  0  0  0  0  0  0  0  0  0
   19.5280   -2.4156  -15.0099 C   0  0  2  0  0  0  0  0  0  0  0  0
   19.8602   -3.7848  -14.6835 N   0  0  0  0  0  0  0  0  0  0  0  0
   20.5419   -1.4931  -14.4329 C   0  0  0  0  0  0  0  0  0  0  0  0
   21.5950   -1.9385  -13.6510 O   0  0  0  0  0  0  0  0  0  0  0  0
   20.4538   -0.2411  -14.6565 O   0  0  0  0  0  0  0  0  0  0  0  0
  2  1  1  0
  3  4  1  1
  3  2  1  0
  5  3  1  0
  6  5  2  0
  7  5  1  0
  8  9  1  6
  8  7  1  0
  9 10  1  0
 10 15  2  0
 11 12  2  0
 11 10  1  0
 12 13  1  0
 13 14  2  0
 15 14  1  0
 16  8  1  0
 17 16  2  0
 19 18  1  1
 19 20  1  0
 20 16  1  0
 21 19  1  0
 21 22  1  0
 23 21  2  0
M  END
$$$$
