DSK.pdb
     RDKit          3D

 24 23  0  0  1  0  0  0  0  0999 V2000
   17.1863  -11.5095  -16.0175 N   0  0  0  0  0  0  0  0  0  0  0  0
   18.3973  -10.8925  -16.5798 C   0  0  1  0  0  0  0  0  0  0  0  0
   18.0854  -10.6149  -18.0082 C   0  0  0  0  0  0  0  0  0  0  0  0
   17.7807  -11.7495  -18.8592 C   0  0  0  0  0  0  0  0  0  0  0  0
   16.7456  -11.8443  -19.5431 O   0  0  0  0  0  0  0  0  0  0  0  0
   18.7720   -9.7002  -15.7798 C   0  0  0  0  0  0  0  0  0  0  0  0
   18.0097   -8.7378  -15.5373 O   0  0  0  0  0  0  0  0  0  0  0  0
   18.6780  -12.8071  -18.9355 O   0  0  0  0  0  0  0  0  0  0  0  0
   22.5480   -9.5627  -14.2356 O   0  0  0  0  0  0  0  0  0  0  0  0
   21.5815   -8.9102  -13.4531 C   0  0  0  0  0  0  0  0  0  0  0  0
   20.4998   -8.4470  -14.4173 C   0  0  2  0  0  0  0  0  0  0  0  0
   20.0873   -9.5578  -15.2033 N   0  0  0  0  0  0  0  0  0  0  0  0
   21.0154   -7.3104  -15.1848 C   0  0  0  0  0  0  0  0  0  0  0  0
   21.6059   -7.5271  -16.2734 O   0  0  0  0  0  0  0  0  0  0  0  0
   20.8930   -5.9579  -14.7785 N   0  0  0  0  0  0  0  0  0  0  0  0
   21.4657   -4.8544  -15.5896 C   0  0  1  0  0  0  0  0  0  0  0  0
   20.4062   -3.8001  -15.7667 C   0  0  0  0  0  0  0  0  0  0  0  0
   19.3994   -4.1251  -16.8101 C   0  0  0  0  0  0  0  0  0  0  0  0
   18.3398   -3.0301  -16.8023 C   0  0  0  0  0  0  0  0  0  0  0  0
   17.2405   -3.3339  -17.7966 C   0  0  0  0  0  0  0  0  0  0  0  0
   16.2513   -2.2679  -17.6756 N   0  0  0  0  0  0  0  0  0  0  0  0
   22.6002   -4.3387  -14.8206 C   0  0  0  0  0  0  0  0  0  0  0  0
   22.6774   -4.5380  -13.5908 O   0  0  0  0  0  0  0  0  0  0  0  0
   23.6024   -3.6279  -15.4371 O   0  0  0  0  0  0  0  0  0  0  0  0
  2  1  1  1
  2  3  1  0
  3  4  1  0
  4  5  2  0
  4  8  1  0
  6  2  1  0
  7  6  2  0
  9 10  1  0
 11 10  1  1
 11 13  1  0
 11 12  1  0
 12  6  1  0
 13 14  2  0
 15 16  1  0
 15 13  1  0
 17 18  1  0
 16 17  1  1
 19 20  1  0
 19 18  1  0
 20 21  1  0
 22 24  1  0
 22 16  1  0
 23 22  2  0
M  END
$$$$
