DSK.pdb
     RDKit          3D

 24 23  0  0  1  0  0  0  0  0999 V2000
   21.9502  -10.3054  -15.2218 N   0  0  0  0  0  0  0  0  0  0  0  0
   21.3399   -9.3402  -16.1490 C   0  0  1  0  0  0  0  0  0  0  0  0
   20.4098  -10.1292  -17.0016 C   0  0  0  0  0  0  0  0  0  0  0  0
   20.9710  -11.2278  -17.7649 C   0  0  0  0  0  0  0  0  0  0  0  0
   21.9260  -11.1069  -18.5533 O   0  0  0  0  0  0  0  0  0  0  0  0
   20.7031   -8.2405  -15.3827 C   0  0  0  0  0  0  0  0  0  0  0  0
   19.6086   -8.3321  -14.7829 O   0  0  0  0  0  0  0  0  0  0  0  0
   20.4315  -12.5006  -17.6287 O   0  0  0  0  0  0  0  0  0  0  0  0
   22.9405   -4.9587  -14.6010 O   0  0  0  0  0  0  0  0  0  0  0  0
   21.9117   -5.2468  -13.6895 C   0  0  0  0  0  0  0  0  0  0  0  0
   20.7867   -5.8670  -14.5044 C   0  0  2  0  0  0  0  0  0  0  0  0
   21.3197   -6.9407  -15.2692 N   0  0  0  0  0  0  0  0  0  0  0  0
   20.1459   -4.8113  -15.2928 C   0  0  0  0  0  0  0  0  0  0  0  0
   20.6594   -4.4718  -16.3891 O   0  0  0  0  0  0  0  0  0  0  0  0
   18.9652   -4.1330  -14.8990 N   0  0  0  0  0  0  0  0  0  0  0  0
   18.3851   -3.0488  -15.7307 C   0  0  1  0  0  0  0  0  0  0  0  0
   16.8874   -3.0959  -15.5894 C   0  0  0  0  0  0  0  0  0  0  0  0
   16.1781   -2.0090  -16.3130 C   0  0  0  0  0  0  0  0  0  0  0  0
   14.6837   -2.1718  -16.0641 C   0  0  0  0  0  0  0  0  0  0  0  0
   13.8881   -1.1724  -16.8750 C   0  0  0  0  0  0  0  0  0  0  0  0
   12.4801   -1.3982  -16.5652 N   0  0  0  0  0  0  0  0  0  0  0  0
   18.9268   -1.7985  -15.1943 C   0  0  0  0  0  0  0  0  0  0  0  0
   19.1650   -1.6807  -13.9747 O   0  0  0  0  0  0  0  0  0  0  0  0
   19.1858   -0.7321  -16.0222 O   0  0  0  0  0  0  0  0  0  0  0  0
  2  1  1  1
  2  3  1  0
  3  4  1  0
  4  5  2  0
  4  8  1  0
  6  2  1  0
  7  6  2  0
  9 10  1  0
 11 10  1  6
 11 13  1  0
 11 12  1  0
 12  6  1  0
 13 14  2  0
 15 16  1  0
 15 13  1  0
 17 18  1  0
 16 17  1  1
 19 20  1  0
 19 18  1  0
 20 21  1  0
 22 24  1  0
 22 16  1  0
 23 22  2  0
M  END
$$$$
