DSK.pdb
     RDKit          3D

 24 23  0  0  1  0  0  0  0  0999 V2000
   20.5222   -7.3837  -12.9197 N   0  0  0  0  0  0  0  0  0  0  0  0
   20.8386   -7.0594  -14.3192 C   0  0  1  0  0  0  0  0  0  0  0  0
   22.1357   -6.3308  -14.2834 C   0  0  0  0  0  0  0  0  0  0  0  0
   22.1481   -5.0165  -13.6696 C   0  0  0  0  0  0  0  0  0  0  0  0
   21.1410   -4.4679  -13.1868 O   0  0  0  0  0  0  0  0  0  0  0  0
   20.8417   -8.2994  -15.1343 C   0  0  0  0  0  0  0  0  0  0  0  0
   21.8424   -8.7562  -15.7310 O   0  0  0  0  0  0  0  0  0  0  0  0
   23.3390   -4.3047  -13.6023 O   0  0  0  0  0  0  0  0  0  0  0  0
   18.4805  -11.4921  -14.2679 O   0  0  0  0  0  0  0  0  0  0  0  0
   18.3249  -11.0643  -15.5965 C   0  0  0  0  0  0  0  0  0  0  0  0
   19.6189  -10.3549  -15.9661 C   0  0  2  0  0  0  0  0  0  0  0  0
   19.6508   -9.0965  -15.3047 N   0  0  0  0  0  0  0  0  0  0  0  0
   19.7097  -10.2825  -17.4266 C   0  0  0  0  0  0  0  0  0  0  0  0
   19.1151   -9.3531  -18.0295 O   0  0  0  0  0  0  0  0  0  0  0  0
   20.4347  -11.2042  -18.2230 N   0  0  0  0  0  0  0  0  0  0  0  0
   20.4970  -11.0651  -19.6996 C   0  0  1  0  0  0  0  0  0  0  0  0
   21.6210  -11.9275  -20.2077 C   0  0  0  0  0  0  0  0  0  0  0  0
   21.7733  -11.9121  -21.6856 C   0  0  0  0  0  0  0  0  0  0  0  0
   22.8871  -12.8834  -22.0565 C   0  0  0  0  0  0  0  0  0  0  0  0
   23.0917  -12.9254  -23.5552 C   0  0  0  0  0  0  0  0  0  0  0  0
   24.2194  -13.8170  -23.8055 N   0  0  0  0  0  0  0  0  0  0  0  0
   19.2036  -11.5341  -20.2013 C   0  0  0  0  0  0  0  0  0  0  0  0
   18.7851  -11.1684  -21.3190 O   0  0  0  0  0  0  0  0  0  0  0  0
   18.4267  -12.3869  -19.4537 O   0  0  0  0  0  0  0  0  0  0  0  0
  2  1  1  1
  2  3  1  0
  3  4  1  0
  4  5  2  0
  4  8  1  0
  6  2  1  0
  7  6  2  0
  9 10  1  0
 11 10  1  6
 11 13  1  0
 11 12  1  0
 12  6  1  0
 13 14  2  0
 15 16  1  0
 15 13  1  0
 17 18  1  0
 16 17  1  6
 19 20  1  0
 19 18  1  0
 20 21  1  0
 22 24  1  0
 22 16  1  0
 23 22  2  0
M  END
$$$$
