DSK.pdb
     RDKit          3D

 24 23  0  0  1  0  0  0  0  0999 V2000
   24.5058   -9.2686  -18.7774 N   0  0  0  0  0  0  0  0  0  0  0  0
   23.3596  -10.1905  -18.7685 C   0  0  1  0  0  0  0  0  0  0  0  0
   23.9373  -11.5547  -18.6279 C   0  0  0  0  0  0  0  0  0  0  0  0
   24.7967  -12.0306  -19.6953 C   0  0  0  0  0  0  0  0  0  0  0  0
   24.5567  -11.8631  -20.9047 O   0  0  0  0  0  0  0  0  0  0  0  0
   22.4099   -9.8014  -17.6967 C   0  0  0  0  0  0  0  0  0  0  0  0
   21.3758  -10.4391  -17.3965 O   0  0  0  0  0  0  0  0  0  0  0  0
   25.9625  -12.7168  -19.3797 O   0  0  0  0  0  0  0  0  0  0  0  0
   21.5950   -6.7836  -14.0016 O   0  0  0  0  0  0  0  0  0  0  0  0
   22.3579   -6.9928  -15.1619 C   0  0  0  0  0  0  0  0  0  0  0  0
   21.7308   -8.1839  -15.8707 C   0  0  2  0  0  0  0  0  0  0  0  0
   22.6158   -8.6193  -16.8950 N   0  0  0  0  0  0  0  0  0  0  0  0
   20.3960   -7.7990  -16.3363 C   0  0  0  0  0  0  0  0  0  0  0  0
   20.2908   -7.0956  -17.3731 O   0  0  0  0  0  0  0  0  0  0  0  0
   19.1917   -8.1711  -15.6877 N   0  0  0  0  0  0  0  0  0  0  0  0
   17.8681   -7.7941  -16.2439 C   0  0  1  0  0  0  0  0  0  0  0  0
   16.8406   -8.7554  -15.7095 C   0  0  0  0  0  0  0  0  0  0  0  0
   15.4449   -8.4244  -16.0971 C   0  0  0  0  0  0  0  0  0  0  0  0
   14.5101   -9.3664  -15.3484 C   0  0  0  0  0  0  0  0  0  0  0  0
   13.0622   -9.0204  -15.6196 C   0  0  0  0  0  0  0  0  0  0  0  0
   12.2513   -9.8964  -14.7803 N   0  0  0  0  0  0  0  0  0  0  0  0
   17.6098   -6.4310  -15.7753 C   0  0  0  0  0  0  0  0  0  0  0  0
   18.0314   -6.0506  -14.6637 O   0  0  0  0  0  0  0  0  0  0  0  0
   16.9010   -5.5437  -16.5500 O   0  0  0  0  0  0  0  0  0  0  0  0
  2  1  1  1
  2  3  1  0
  3  4  1  0
  4  5  2  0
  4  8  1  0
  6  2  1  0
  7  6  2  0
  9 10  1  0
 11 10  1  6
 11 13  1  0
 11 12  1  0
 12  6  1  0
 13 14  2  0
 15 16  1  0
 15 13  1  0
 17 18  1  0
 16 17  1  1
 19 20  1  0
 19 18  1  0
 20 21  1  0
 22 24  1  0
 22 16  1  0
 23 22  2  0
M  END
$$$$
