DSK.pdb
     RDKit          3D

 24 23  0  0  1  0  0  0  0  0999 V2000
   17.3506  -12.6868  -14.8854 N   0  0  0  0  0  0  0  0  0  0  0  0
   16.7542  -11.3424  -14.8624 C   0  0  1  0  0  0  0  0  0  0  0  0
   15.2899  -11.5453  -15.0338 C   0  0  0  0  0  0  0  0  0  0  0  0
   14.8381  -12.1412  -16.2769 C   0  0  0  0  0  0  0  0  0  0  0  0
   15.4188  -11.9932  -17.3673 O   0  0  0  0  0  0  0  0  0  0  0  0
   17.1450  -10.6403  -13.6148 C   0  0  0  0  0  0  0  0  0  0  0  0
   17.1817  -11.1702  -12.4817 O   0  0  0  0  0  0  0  0  0  0  0  0
   13.6934  -12.9280  -16.2812 O   0  0  0  0  0  0  0  0  0  0  0  0
   18.3516   -6.7058  -13.8615 O   0  0  0  0  0  0  0  0  0  0  0  0
   18.9455   -7.4833  -12.8540 C   0  0  0  0  0  0  0  0  0  0  0  0
   17.9082   -8.5223  -12.4555 C   0  0  2  0  0  0  0  0  0  0  0  0
   17.5241   -9.2478  -13.6166 N   0  0  0  0  0  0  0  0  0  0  0  0
   16.8089   -7.8424  -11.7657 C   0  0  0  0  0  0  0  0  0  0  0  0
   15.8526   -7.3868  -12.4431 O   0  0  0  0  0  0  0  0  0  0  0  0
   16.7463   -7.6586  -10.3616 N   0  0  0  0  0  0  0  0  0  0  0  0
   15.6820   -6.8323   -9.7388 C   0  0  1  0  0  0  0  0  0  0  0  0
   14.6954   -7.7555   -9.0756 C   0  0  0  0  0  0  0  0  0  0  0  0
   13.6040   -7.0535   -8.3517 C   0  0  0  0  0  0  0  0  0  0  0  0
   12.6858   -8.1067   -7.7438 C   0  0  0  0  0  0  0  0  0  0  0  0
   11.4674   -7.4652   -7.1165 C   0  0  0  0  0  0  0  0  0  0  0  0
   10.6067   -8.5492   -6.6544 N   0  0  0  0  0  0  0  0  0  0  0  0
   16.3571   -5.9853   -8.7533 C   0  0  0  0  0  0  0  0  0  0  0  0
   17.5183   -6.2483   -8.3785 O   0  0  0  0  0  0  0  0  0  0  0  0
   15.7274   -4.8840   -8.2238 O   0  0  0  0  0  0  0  0  0  0  0  0
  2  1  1  1
  2  3  1  0
  3  4  1  0
  4  5  2  0
  4  8  1  0
  6  2  1  0
  7  6  2  0
  9 10  1  0
 11 10  1  6
 11 13  1  0
 11 12  1  0
 12  6  1  0
 13 14  2  0
 15 16  1  0
 15 13  1  0
 17 18  1  0
 16 17  1  1
 19 20  1  0
 19 18  1  0
 20 21  1  0
 22 24  1  0
 22 16  1  0
 23 22  2  0
M  END
$$$$
