DSK.pdb
     RDKit          3D

 24 23  0  0  1  0  0  0  0  0999 V2000
   16.4248  -12.6707  -12.0398 N   0  0  0  0  0  0  0  0  0  0  0  0
   15.8899  -11.3617  -12.4445 C   0  0  1  0  0  0  0  0  0  0  0  0
   14.4273  -11.5616  -12.6325 C   0  0  0  0  0  0  0  0  0  0  0  0
   14.0002  -12.3364  -13.7822 C   0  0  0  0  0  0  0  0  0  0  0  0
   13.0706  -11.9999  -14.5376 O   0  0  0  0  0  0  0  0  0  0  0  0
   16.2550  -10.3358  -11.4363 C   0  0  0  0  0  0  0  0  0  0  0  0
   15.8814  -10.3473  -10.2420 O   0  0  0  0  0  0  0  0  0  0  0  0
   14.6480  -13.5279  -14.0823 O   0  0  0  0  0  0  0  0  0  0  0  0
   18.2729   -7.0059  -12.7234 O   0  0  0  0  0  0  0  0  0  0  0  0
   18.6064   -7.3928  -11.4151 C   0  0  0  0  0  0  0  0  0  0  0  0
   17.3999   -8.1475  -10.8773 C   0  0  2  0  0  0  0  0  0  0  0  0
   17.0959   -9.2115  -11.7703 N   0  0  0  0  0  0  0  0  0  0  0  0
   16.3088   -7.1925  -10.6672 C   0  0  0  0  0  0  0  0  0  0  0  0
   15.4329   -7.0611  -11.5596 O   0  0  0  0  0  0  0  0  0  0  0  0
   16.1685   -6.3912   -9.5065 N   0  0  0  0  0  0  0  0  0  0  0  0
   15.0754   -5.3941   -9.3854 C   0  0  1  0  0  0  0  0  0  0  0  0
   14.7307   -5.2465   -7.9278 C   0  0  0  0  0  0  0  0  0  0  0  0
   13.7097   -4.2030   -7.6514 C   0  0  0  0  0  0  0  0  0  0  0  0
   13.5742   -4.0624   -6.1402 C   0  0  0  0  0  0  0  0  0  0  0  0
   12.5893   -2.9701   -5.7846 C   0  0  0  0  0  0  0  0  0  0  0  0
   12.4522   -2.9777   -4.3318 N   0  0  0  0  0  0  0  0  0  0  0  0
   15.6103   -4.1446   -9.9305 C   0  0  0  0  0  0  0  0  0  0  0  0
   16.8411   -3.9383   -9.9569 O   0  0  0  0  0  0  0  0  0  0  0  0
   14.7692   -3.1764  -10.4253 O   0  0  0  0  0  0  0  0  0  0  0  0
  2  1  1  1
  2  3  1  0
  3  4  1  0
  4  5  2  0
  4  8  1  0
  6  2  1  0
  7  6  2  0
  9 10  1  0
 11 10  1  6
 11 13  1  0
 11 12  1  0
 12  6  1  0
 13 14  2  0
 15 16  1  0
 15 13  1  0
 17 18  1  0
 16 17  1  1
 19 20  1  0
 19 18  1  0
 20 21  1  0
 22 24  1  0
 22 16  1  0
 23 22  2  0
M  END
$$$$
