DSK.pdb
     RDKit          3D

 24 23  0  0  1  0  0  0  0  0999 V2000
   22.7850  -18.0630  -17.2906 N   0  0  0  0  0  0  0  0  0  0  0  0
   23.4959  -19.2817  -16.8747 C   0  0  1  0  0  0  0  0  0  0  0  0
   24.9441  -18.9428  -16.9222 C   0  0  0  0  0  0  0  0  0  0  0  0
   25.4913  -18.5222  -18.1982 C   0  0  0  0  0  0  0  0  0  0  0  0
   25.2473  -19.0908  -19.2778 O   0  0  0  0  0  0  0  0  0  0  0  0
   23.0017  -19.7236  -15.5470 C   0  0  0  0  0  0  0  0  0  0  0  0
   23.5167  -20.6371  -14.8641 O   0  0  0  0  0  0  0  0  0  0  0  0
   26.3403  -17.4240  -18.2493 O   0  0  0  0  0  0  0  0  0  0  0  0
   19.8802  -17.7063  -14.0471 O   0  0  0  0  0  0  0  0  0  0  0  0
   20.5999  -18.3588  -13.0330 C   0  0  0  0  0  0  0  0  0  0  0  0
   21.2828  -19.5454  -13.6961 C   0  0  2  0  0  0  0  0  0  0  0  0
   21.8519  -19.1122  -14.9251 N   0  0  0  0  0  0  0  0  0  0  0  0
   20.3092  -20.6332  -13.8209 C   0  0  0  0  0  0  0  0  0  0  0  0
   19.5935  -20.6959  -14.8527 O   0  0  0  0  0  0  0  0  0  0  0  0
   20.1138  -21.6391  -12.8415 N   0  0  0  0  0  0  0  0  0  0  0  0
   19.1136  -22.7189  -13.0343 C   0  0  1  0  0  0  0  0  0  0  0  0
   19.3892  -23.8027  -12.0269 C   0  0  0  0  0  0  0  0  0  0  0  0
   18.4991  -24.9856  -12.1539 C   0  0  0  0  0  0  0  0  0  0  0  0
   18.7502  -25.8969  -10.9588 C   0  0  0  0  0  0  0  0  0  0  0  0
   17.8123  -27.0841  -10.9771 C   0  0  0  0  0  0  0  0  0  0  0  0
   18.0311  -27.8181   -9.7350 N   0  0  0  0  0  0  0  0  0  0  0  0
   17.8066  -22.1011  -12.8006 C   0  0  0  0  0  0  0  0  0  0  0  0
   17.7077  -21.0646  -12.1121 O   0  0  0  0  0  0  0  0  0  0  0  0
   16.6646  -22.6480  -13.3359 O   0  0  0  0  0  0  0  0  0  0  0  0
  2  1  1  1
  2  3  1  0
  3  4  1  0
  4  5  2  0
  4  8  1  0
  6  2  1  0
  7  6  2  0
  9 10  1  0
 11 10  1  6
 11 13  1  0
 11 12  1  0
 12  6  1  0
 13 14  2  0
 15 16  1  0
 15 13  1  0
 17 18  1  0
 16 17  1  1
 19 20  1  0
 19 18  1  0
 20 21  1  0
 22 24  1  0
 22 16  1  0
 23 22  2  0
M  END
$$$$
