LND.pdb
     RDKit          3D

 25 24  0  0  1  0  0  0  0  0999 V2000
    9.5768  -12.6823   20.4338 C   0  0  0  0  0  0  0  0  0  0  0  0
    8.3515  -13.3615   19.8444 C   0  0  2  0  0  0  0  0  0  0  0  0
    7.5624  -12.2546   19.1581 C   0  0  0  0  0  0  0  0  0  0  0  0
    7.5484  -14.0697   20.9015 C   0  0  0  0  0  0  0  0  0  0  0  0
    8.4218  -15.0563   21.6301 C   0  0  2  0  0  0  0  0  0  0  0  0
    9.0533  -15.9277   20.6602 N   0  0  0  0  0  0  0  0  0  0  0  0
    7.6942  -15.8624   22.6143 C   0  0  0  0  0  0  0  0  0  0  0  0
    7.0226  -15.2752   23.5139 O   0  0  0  0  0  0  0  0  0  0  0  0
    4.4235  -17.5283   22.5458 N   0  0  0  0  0  0  0  0  0  0  0  0
    5.1581  -18.6986   22.2212 C   0  0  0  0  0  0  0  0  0  0  0  0
    4.8146  -19.3246   21.2066 O   0  0  0  0  0  0  0  0  0  0  0  0
    6.2724  -19.1229   23.0714 C   0  0  0  0  0  0  0  0  0  0  0  0
    7.0498  -18.0415   23.7490 C   0  0  2  0  0  0  0  0  0  0  0  0
    7.6722  -17.2698   22.6526 N   0  0  0  0  0  0  0  0  0  0  0  0
    8.1319  -18.5358   24.6470 C   0  0  0  0  0  0  0  0  0  0  0  0
    7.8424  -19.4253   25.4767 O   0  0  0  0  0  0  0  0  0  0  0  0
    9.4528  -18.0344   24.5862 N   0  0  0  0  0  0  0  0  0  0  0  0
   10.4378  -18.5596   25.5554 C   0  0  1  0  0  0  0  0  0  0  0  0
   11.7991  -18.1439   25.0731 C   0  0  0  0  0  0  0  0  0  0  0  0
   12.4620  -19.0845   24.1844 C   0  0  0  0  0  0  0  0  0  0  0  0
   12.0508  -20.1827   23.8067 O   0  0  0  0  0  0  0  0  0  0  0  0
   10.1349  -17.9387   26.8931 C   0  0  0  0  0  0  0  0  0  0  0  0
   10.5717  -18.5014   28.0643 O   0  0  0  0  0  0  0  0  0  0  0  0
   13.7305  -18.7091   23.6853 O   0  0  0  0  0  0  0  0  0  0  0  0
    9.4645  -16.8751   26.9697 O   0  0  0  0  0  0  0  0  0  0  0  0
  2  1  1  1
  3  2  1  0
  4  5  1  0
  4  2  1  0
  5  6  1  6
  7  5  1  0
  7  8  2  0
 10  9  1  0
 10 12  1  0
 11 10  2  0
 13 12  1  6
 13 14  1  0
 14  7  1  0
 15 16  2  0
 15 13  1  0
 17 15  1  0
 18 17  1  0
 18 19  1  6
 20 19  1  0
 20 21  2  0
 22 18  1  0
 23 22  1  0
 24 20  1  0
 25 22  2  0
M  END
$$$$
