LND.pdb
     RDKit          3D

 25 24  0  0  1  0  0  0  0  0999 V2000
    8.4380  -12.8729   21.6166 C   0  0  0  0  0  0  0  0  0  0  0  0
    8.6377  -13.0746   20.1235 C   0  0  2  0  0  0  0  0  0  0  0  0
    8.2660  -11.7458   19.4792 C   0  0  0  0  0  0  0  0  0  0  0  0
    7.8091  -14.2176   19.6032 C   0  0  0  0  0  0  0  0  0  0  0  0
    8.4328  -15.5263   20.0097 C   0  0  2  0  0  0  0  0  0  0  0  0
    8.6025  -15.5369   21.4485 N   0  0  0  0  0  0  0  0  0  0  0  0
    9.7215  -15.7837   19.3612 C   0  0  0  0  0  0  0  0  0  0  0  0
    9.7971  -15.7221   18.0980 O   0  0  0  0  0  0  0  0  0  0  0  0
   14.7435  -13.9383   18.3901 N   0  0  0  0  0  0  0  0  0  0  0  0
   13.6861  -14.7609   17.9213 C   0  0  0  0  0  0  0  0  0  0  0  0
   13.8509  -15.3384   16.8356 O   0  0  0  0  0  0  0  0  0  0  0  0
   12.4616  -14.9010   18.7123 C   0  0  0  0  0  0  0  0  0  0  0  0
   12.2217  -16.2317   19.3483 C   0  0  2  0  0  0  0  0  0  0  0  0
   10.9178  -16.1021   20.0324 N   0  0  0  0  0  0  0  0  0  0  0  0
   13.2449  -16.6203   20.3602 C   0  0  0  0  0  0  0  0  0  0  0  0
   14.2805  -17.1917   19.9547 O   0  0  0  0  0  0  0  0  0  0  0  0
   13.0780  -16.3644   21.7409 N   0  0  0  0  0  0  0  0  0  0  0  0
   14.0997  -16.8906   22.6708 C   0  0  1  0  0  0  0  0  0  0  0  0
   14.9661  -15.7324   23.0789 C   0  0  0  0  0  0  0  0  0  0  0  0
   16.0622  -15.4224   22.1755 C   0  0  0  0  0  0  0  0  0  0  0  0
   16.3107  -15.9408   21.0858 O   0  0  0  0  0  0  0  0  0  0  0  0
   13.3786  -17.4615   23.8628 C   0  0  0  0  0  0  0  0  0  0  0  0
   12.0115  -17.4327   23.9598 O   0  0  0  0  0  0  0  0  0  0  0  0
   16.9589  -14.4071   22.5810 O   0  0  0  0  0  0  0  0  0  0  0  0
   14.0213  -17.9847   24.8114 O   0  0  0  0  0  0  0  0  0  0  0  0
  2  1  1  1
  3  2  1  0
  4  5  1  0
  4  2  1  0
  5  6  1  1
  7  5  1  0
  7  8  2  0
 10  9  1  0
 10 12  1  0
 11 10  2  0
 13 12  1  1
 13 14  1  0
 14  7  1  0
 15 16  2  0
 15 13  1  0
 17 15  1  0
 18 17  1  0
 18 19  1  1
 20 19  1  0
 20 21  2  0
 22 18  1  0
 23 22  1  0
 24 20  1  0
 25 22  2  0
M  END
$$$$
