LND.pdb
     RDKit          3D

 25 24  0  0  1  0  0  0  0  0999 V2000
    8.9175  -13.9583   18.0596 C   0  0  0  0  0  0  0  0  0  0  0  0
    7.9526  -13.5630   19.1653 C   0  0  2  0  0  0  0  0  0  0  0  0
    7.4642  -12.1675   18.8005 C   0  0  0  0  0  0  0  0  0  0  0  0
    8.6113  -13.6065   20.5173 C   0  0  0  0  0  0  0  0  0  0  0  0
    9.0584  -15.0116   20.8219 C   0  0  2  0  0  0  0  0  0  0  0  0
    7.9592  -15.9190   20.5626 N   0  0  0  0  0  0  0  0  0  0  0  0
    9.5266  -15.1881   22.1993 C   0  0  0  0  0  0  0  0  0  0  0  0
   10.4997  -14.4896   22.6121 O   0  0  0  0  0  0  0  0  0  0  0  0
    6.2431  -14.7441   25.0929 N   0  0  0  0  0  0  0  0  0  0  0  0
    7.5526  -14.9594   25.5961 C   0  0  0  0  0  0  0  0  0  0  0  0
    8.0818  -14.0303   26.2254 O   0  0  0  0  0  0  0  0  0  0  0  0
    8.2248  -16.2396   25.3642 C   0  0  0  0  0  0  0  0  0  0  0  0
    9.4608  -16.2068   24.5252 C   0  0  2  0  0  0  0  0  0  0  0  0
    8.9783  -16.0884   23.1330 N   0  0  0  0  0  0  0  0  0  0  0  0
   10.3026  -17.4327   24.6265 C   0  0  0  0  0  0  0  0  0  0  0  0
    9.9395  -18.4455   23.9895 O   0  0  0  0  0  0  0  0  0  0  0  0
   11.4791  -17.4794   25.4097 N   0  0  0  0  0  0  0  0  0  0  0  0
   12.2522  -18.7395   25.4231 C   0  0  1  0  0  0  0  0  0  0  0  0
   13.6787  -18.3875   25.1073 C   0  0  0  0  0  0  0  0  0  0  0  0
   14.6211  -19.4936   25.1552 C   0  0  0  0  0  0  0  0  0  0  0  0
   14.8355  -20.3396   24.2856 O   0  0  0  0  0  0  0  0  0  0  0  0
   12.1423  -19.3255   26.8055 C   0  0  0  0  0  0  0  0  0  0  0  0
   12.5369  -20.6100   27.0772 O   0  0  0  0  0  0  0  0  0  0  0  0
   15.3914  -19.6283   26.3333 O   0  0  0  0  0  0  0  0  0  0  0  0
   11.6792  -18.6424   27.7571 O   0  0  0  0  0  0  0  0  0  0  0  0
  2  1  1  6
  3  2  1  0
  4  5  1  0
  4  2  1  0
  5  6  1  1
  7  5  1  0
  7  8  2  0
 10  9  1  0
 10 12  1  0
 11 10  2  0
 13 12  1  1
 13 14  1  0
 14  7  1  0
 15 16  2  0
 15 13  1  0
 17 15  1  0
 18 17  1  0
 18 19  1  1
 20 19  1  0
 20 21  2  0
 22 18  1  0
 23 22  1  0
 24 20  1  0
 25 22  2  0
M  END
$$$$
