LND.pdb
     RDKit          3D

 25 24  0  0  1  0  0  0  0  0999 V2000
    9.0838  -12.6748   19.0804 C   0  0  0  0  0  0  0  0  0  0  0  0
    7.6917  -13.2502   19.2824 C   0  0  2  0  0  0  0  0  0  0  0  0
    6.7377  -12.0734   19.1275 C   0  0  0  0  0  0  0  0  0  0  0  0
    7.5600  -13.9250   20.6206 C   0  0  0  0  0  0  0  0  0  0  0  0
    8.6154  -14.9896   20.7612 C   0  0  2  0  0  0  0  0  0  0  0  0
    8.5138  -15.9004   19.6392 N   0  0  0  0  0  0  0  0  0  0  0  0
    8.5201  -15.7423   22.0151 C   0  0  0  0  0  0  0  0  0  0  0  0
    8.5277  -15.1106   23.1133 O   0  0  0  0  0  0  0  0  0  0  0  0
    5.4760  -18.7652   21.4921 N   0  0  0  0  0  0  0  0  0  0  0  0
    5.9636  -18.5480   22.8072 C   0  0  0  0  0  0  0  0  0  0  0  0
    5.1951  -18.0098   23.6190 O   0  0  0  0  0  0  0  0  0  0  0  0
    7.3255  -18.9551   23.1596 C   0  0  0  0  0  0  0  0  0  0  0  0
    8.3121  -17.8596   23.4027 C   0  0  2  0  0  0  0  0  0  0  0  0
    8.4176  -17.1432   22.1140 N   0  0  0  0  0  0  0  0  0  0  0  0
    9.6718  -18.3341   23.7874 C   0  0  0  0  0  0  0  0  0  0  0  0
    9.9803  -19.5132   23.5081 O   0  0  0  0  0  0  0  0  0  0  0  0
   10.6045  -17.5011   24.4478 N   0  0  0  0  0  0  0  0  0  0  0  0
   11.9005  -18.0916   24.8442 C   0  0  1  0  0  0  0  0  0  0  0  0
   12.9536  -17.0444   24.6137 C   0  0  0  0  0  0  0  0  0  0  0  0
   13.4245  -16.9219   23.2436 C   0  0  0  0  0  0  0  0  0  0  0  0
   13.0538  -17.5627   22.2589 O   0  0  0  0  0  0  0  0  0  0  0  0
   11.8116  -18.4440   26.3053 C   0  0  0  0  0  0  0  0  0  0  0  0
   10.8732  -17.8764   27.1276 O   0  0  0  0  0  0  0  0  0  0  0  0
   14.4273  -15.9566   22.9949 O   0  0  0  0  0  0  0  0  0  0  0  0
   12.6069  -19.2780   26.8137 O   0  0  0  0  0  0  0  0  0  0  0  0
  2  1  1  1
  3  2  1  0
  4  5  1  0
  4  2  1  0
  5  6  1  6
  7  5  1  0
  7  8  2  0
 10  9  1  0
 10 12  1  0
 11 10  2  0
 13 12  1  6
 13 14  1  0
 14  7  1  0
 15 16  2  0
 15 13  1  0
 17 15  1  0
 18 17  1  0
 18 19  1  1
 20 19  1  0
 20 21  2  0
 22 18  1  0
 23 22  1  0
 24 20  1  0
 25 22  2  0
M  END
$$$$
