RSA.pdb
     RDKit          3D

 23 22  0  0  1  0  0  0  0  0999 V2000
   18.4886  -25.5424  -13.2145 N   0  0  0  0  0  0  0  0  0  0  0  0
   17.7827  -24.3025  -13.1447 C   0  0  0  0  0  0  0  0  0  0  0  0
   16.5657  -24.3217  -12.7822 N   0  0  0  0  0  0  0  0  0  0  0  0
   18.4458  -23.1118  -13.4750 N   0  0  0  0  0  0  0  0  0  0  0  0
   19.3266  -23.0507  -14.6176 C   0  0  0  0  0  0  0  0  0  0  0  0
   20.7154  -23.4652  -14.2440 C   0  0  0  0  0  0  0  0  0  0  0  0
   21.6762  -22.3543  -14.1475 C   0  0  0  0  0  0  0  0  0  0  0  0
   21.5619  -21.5514  -12.8858 C   0  0  2  0  0  0  0  0  0  0  0  0
   20.3698  -20.7977  -12.8611 N   0  0  0  0  0  0  0  0  0  0  0  0
   22.8006  -20.7377  -12.7832 C   0  0  0  0  0  0  0  0  0  0  0  0
   22.7673  -19.5705  -13.2550 O   0  0  0  0  0  0  0  0  0  0  0  0
   15.9347  -23.5137  -12.6827 O   0  0  0  0  0  0  0  0  0  0  0  0
   26.2915  -22.3964  -11.3969 C   0  0  0  0  0  0  0  0  0  0  0  0
   26.1266  -21.0385  -11.1437 C   0  0  1  0  0  0  0  0  0  0  0  0
   25.2301  -20.3915  -12.1889 N   0  0  0  0  0  0  0  0  0  0  0  0
   24.0058  -21.1693  -12.2013 C   0  0  0  0  0  0  0  0  0  0  0  0
   25.8637  -20.3601  -13.5127 O   0  0  0  0  0  0  0  0  0  0  0  0
   25.6502  -21.3646  -14.2786 C   0  0  0  0  0  0  0  0  0  0  0  0
   28.0300  -17.9784  -15.4620 C   0  0  2  0  0  0  0  0  0  0  0  0
   27.3066  -19.3020  -15.2570 N   0  0  0  0  0  0  0  0  0  0  0  0
   26.6813  -19.2948  -13.9722 C   0  0  0  0  0  0  0  0  0  0  0  0
   28.1481  -20.4721  -15.5136 O   0  0  0  0  0  0  0  0  0  0  0  0
   28.6497  -21.2158  -14.6231 O   0  0  0  0  0  0  0  0  0  0  0  0
  1  2  1  0
  2  3  2  0
  2  4  1  0
  4  5  1  0
  6  5  1  0
  6  7  1  0
  7  8  1  0
  8  9  1  6
 10  8  1  0
 10 15  1  0
 11 10  2  0
 12 13  1  0
 14 13  1  1
 14 15  1  0
 14 16  1  0
 16 17  2  0
 16 20  1  0
 19 18  1  6
 19 21  1  0
 20 19  1  0
 21 23  1  0
 22 21  2  0
M  END
$$$$
