RSA.pdb
     RDKit          3D

 23 22  0  0  1  0  0  0  0  0999 V2000
   27.6315  -13.3061  -17.8438 N   0  0  0  0  0  0  0  0  0  0  0  0
   28.4401  -12.1308  -17.7699 C   0  0  0  0  0  0  0  0  0  0  0  0
   29.1048  -11.7913  -18.7974 N   0  0  0  0  0  0  0  0  0  0  0  0
   28.4771  -11.3929  -16.5781 N   0  0  0  0  0  0  0  0  0  0  0  0
   27.2927  -11.2445  -15.7654 C   0  0  0  0  0  0  0  0  0  0  0  0
   26.3620  -10.2331  -16.3579 C   0  0  0  0  0  0  0  0  0  0  0  0
   25.1781   -9.9401  -15.5339 C   0  0  0  0  0  0  0  0  0  0  0  0
   23.9041  -10.5353  -16.0555 C   0  0  2  0  0  0  0  0  0  0  0  0
   24.1079  -11.1880  -17.2894 N   0  0  0  0  0  0  0  0  0  0  0  0
   22.9069   -9.4352  -16.1045 C   0  0  0  0  0  0  0  0  0  0  0  0
   22.7880   -8.8095  -17.1910 O   0  0  0  0  0  0  0  0  0  0  0  0
   29.7564  -10.9981  -18.8811 O   0  0  0  0  0  0  0  0  0  0  0  0
   20.4919   -8.7461  -12.9079 C   0  0  0  0  0  0  0  0  0  0  0  0
   19.9648   -8.4362  -14.1574 C   0  0  1  0  0  0  0  0  0  0  0  0
   21.0610   -8.0175  -15.1257 N   0  0  0  0  0  0  0  0  0  0  0  0
   22.0868   -9.0387  -15.0332 C   0  0  0  0  0  0  0  0  0  0  0  0
   21.5937   -6.6865  -14.8103 O   0  0  0  0  0  0  0  0  0  0  0  0
   22.5499   -6.6343  -13.9594 C   0  0  0  0  0  0  0  0  0  0  0  0
   21.0238   -3.1594  -15.9891 C   0  0  2  0  0  0  0  0  0  0  0  0
   21.6735   -4.2049  -15.0935 N   0  0  0  0  0  0  0  0  0  0  0  0
   21.1106   -5.4843  -15.3903 C   0  0  0  0  0  0  0  0  0  0  0  0
   21.6533   -3.8499  -13.6734 O   0  0  0  0  0  0  0  0  0  0  0  0
   20.9262   -4.3991  -12.7973 O   0  0  0  0  0  0  0  0  0  0  0  0
  1  2  1  0
  2  3  2  0
  2  4  1  0
  4  5  1  0
  6  5  1  0
  6  7  1  0
  7  8  1  0
  8  9  1  6
 10  8  1  0
 10 15  1  0
 11 10  2  0
 12 13  1  0
 14 13  1  6
 14 15  1  0
 14 16  1  0
 16 17  2  0
 16 20  1  0
 19 18  1  6
 19 21  1  0
 20 19  1  0
 21 23  1  0
 22 21  2  0
M  END
$$$$
