RSA.pdb
     RDKit          3D

 23 22  0  0  1  0  0  0  0  0999 V2000
   28.9688  -21.0916  -16.1359 N   0  0  0  0  0  0  0  0  0  0  0  0
   28.2596  -20.3428  -17.1243 C   0  0  0  0  0  0  0  0  0  0  0  0
   28.5142  -20.5677  -18.3480 N   0  0  0  0  0  0  0  0  0  0  0  0
   27.3127  -19.3906  -16.7204 N   0  0  0  0  0  0  0  0  0  0  0  0
   26.9238  -19.2793  -15.3342 C   0  0  0  0  0  0  0  0  0  0  0  0
   26.1381  -20.4777  -14.9022 C   0  0  0  0  0  0  0  0  0  0  0  0
   24.7084  -20.4242  -15.2481 C   0  0  0  0  0  0  0  0  0  0  0  0
   23.9230  -21.6207  -14.7997 C   0  0  2  0  0  0  0  0  0  0  0  0
   24.3770  -22.7996  -15.4272 N   0  0  0  0  0  0  0  0  0  0  0  0
   22.4915  -21.3098  -15.0477 C   0  0  0  0  0  0  0  0  0  0  0  0
   22.0195  -21.6156  -16.1746 O   0  0  0  0  0  0  0  0  0  0  0  0
   28.0541  -20.1434  -19.1660 O   0  0  0  0  0  0  0  0  0  0  0  0
   20.0858  -20.1204  -12.0078 C   0  0  0  0  0  0  0  0  0  0  0  0
   19.4788  -20.7173  -13.1080 C   0  0  1  0  0  0  0  0  0  0  0  0
   20.2317  -20.3954  -14.3904 N   0  0  0  0  0  0  0  0  0  0  0  0
   21.6242  -20.7013  -14.1233 C   0  0  0  0  0  0  0  0  0  0  0  0
   20.0539  -18.9957  -14.7952 O   0  0  0  0  0  0  0  0  0  0  0  0
   20.5606  -18.1040  -14.0274 C   0  0  0  0  0  0  0  0  0  0  0  0
   18.8558  -17.1730  -17.8380 C   0  0  2  0  0  0  0  0  0  0  0  0
   19.2577  -17.2270  -16.3708 N   0  0  0  0  0  0  0  0  0  0  0  0
   19.3640  -18.5941  -15.9689 C   0  0  0  0  0  0  0  0  0  0  0  0
   18.4108  -16.4059  -15.5037 O   0  0  0  0  0  0  0  0  0  0  0  0
   17.4703  -16.8431  -14.7812 O   0  0  0  0  0  0  0  0  0  0  0  0
  1  2  1  0
  2  3  2  0
  2  4  1  0
  4  5  1  0
  6  5  1  0
  6  7  1  0
  7  8  1  0
  8  9  1  6
 10  8  1  0
 10 15  1  0
 11 10  2  0
 12 13  1  0
 14 13  1  6
 14 15  1  0
 14 16  1  0
 16 17  2  0
 16 20  1  0
 19 18  1  6
 19 21  1  0
 20 19  1  0
 21 23  1  0
 22 21  2  0
M  END
$$$$
