RSA.pdb
     RDKit          3D

 23 22  0  0  1  0  0  0  0  0999 V2000
   20.5053  -22.6233  -13.3513 N   0  0  0  0  0  0  0  0  0  0  0  0
   19.6605  -22.1529  -12.2999 C   0  0  0  0  0  0  0  0  0  0  0  0
   18.6245  -22.8285  -12.0115 N   0  0  0  0  0  0  0  0  0  0  0  0
   19.9948  -20.9712  -11.6229 N   0  0  0  0  0  0  0  0  0  0  0  0
   21.1848  -20.2320  -11.9732 C   0  0  0  0  0  0  0  0  0  0  0  0
   22.4168  -21.0042  -11.6182 C   0  0  0  0  0  0  0  0  0  0  0  0
   23.6773  -20.2864  -11.8681 C   0  0  0  0  0  0  0  0  0  0  0  0
   24.9093  -21.0770  -11.5416 C   0  0  2  0  0  0  0  0  0  0  0  0
   25.1629  -21.0860  -10.1540 N   0  0  0  0  0  0  0  0  0  0  0  0
   26.0114  -20.5084  -12.3598 C   0  0  0  0  0  0  0  0  0  0  0  0
   26.5951  -19.4854  -11.9137 O   0  0  0  0  0  0  0  0  0  0  0  0
   17.9369  -22.6256  -11.2720 O   0  0  0  0  0  0  0  0  0  0  0  0
   26.9813  -22.0632  -16.0864 C   0  0  0  0  0  0  0  0  0  0  0  0
   27.9986  -21.4886  -15.3313 C   0  0  1  0  0  0  0  0  0  0  0  0
   27.4566  -20.3918  -14.4269 N   0  0  0  0  0  0  0  0  0  0  0  0
   26.4524  -21.0229  -13.5918 C   0  0  0  0  0  0  0  0  0  0  0  0
   26.8957  -19.2736  -15.1948 O   0  0  0  0  0  0  0  0  0  0  0  0
   25.6574  -19.3555  -15.5128 C   0  0  0  0  0  0  0  0  0  0  0  0
   27.5250  -15.7407  -15.7651 C   0  0  2  0  0  0  0  0  0  0  0  0
   27.0765  -17.0692  -16.3577 N   0  0  0  0  0  0  0  0  0  0  0  0
   27.6430  -18.1338  -15.5914 C   0  0  0  0  0  0  0  0  0  0  0  0
   27.3079  -17.1721  -17.7996 O   0  0  0  0  0  0  0  0  0  0  0  0
   28.1092  -17.9792  -18.3512 O   0  0  0  0  0  0  0  0  0  0  0  0
  1  2  1  0
  2  3  2  0
  2  4  1  0
  4  5  1  0
  6  5  1  0
  6  7  1  0
  7  8  1  0
  8  9  1  1
 10  8  1  0
 10 15  1  0
 11 10  2  0
 12 13  1  0
 14 13  1  1
 14 15  1  0
 14 16  1  0
 16 17  2  0
 16 20  1  0
 19 18  1  1
 19 21  1  0
 20 19  1  0
 21 23  1  0
 22 21  2  0
M  END
$$$$
