RSA.pdb
     RDKit          3D

 23 22  0  0  1  0  0  0  0  0999 V2000
   21.5501  -16.0149  -20.2966 N   0  0  0  0  0  0  0  0  0  0  0  0
   20.3413  -15.7328  -21.0035 C   0  0  0  0  0  0  0  0  0  0  0  0
   19.7128  -16.7012  -21.5327 N   0  0  0  0  0  0  0  0  0  0  0  0
   19.8873  -14.4090  -21.0927 N   0  0  0  0  0  0  0  0  0  0  0  0
   20.5738  -13.3455  -20.3977 C   0  0  0  0  0  0  0  0  0  0  0  0
   19.9863  -13.1298  -19.0381 C   0  0  0  0  0  0  0  0  0  0  0  0
   20.6548  -12.0849  -18.2458 C   0  0  0  0  0  0  0  0  0  0  0  0
   20.1131  -11.9270  -16.8561 C   0  0  2  0  0  0  0  0  0  0  0  0
   19.1405  -12.9073  -16.5680 N   0  0  0  0  0  0  0  0  0  0  0  0
   19.6223  -10.5292  -16.7448 C   0  0  0  0  0  0  0  0  0  0  0  0
   18.5036  -10.2657  -17.2599 O   0  0  0  0  0  0  0  0  0  0  0  0
   18.8275  -16.6544  -22.0569 O   0  0  0  0  0  0  0  0  0  0  0  0
   18.9827   -8.7631  -13.7794 C   0  0  0  0  0  0  0  0  0  0  0  0
   18.5939   -8.2572  -15.0155 C   0  0  1  0  0  0  0  0  0  0  0  0
   19.7834   -8.1360  -15.9563 N   0  0  0  0  0  0  0  0  0  0  0  0
   20.3091   -9.4790  -16.1102 C   0  0  0  0  0  0  0  0  0  0  0  0
   20.8012   -7.2133  -15.4390 O   0  0  0  0  0  0  0  0  0  0  0  0
   21.6745   -7.7057  -14.6414 C   0  0  0  0  0  0  0  0  0  0  0  0
   21.7131   -3.5917  -15.8854 C   0  0  2  0  0  0  0  0  0  0  0  0
   21.8065   -4.9397  -15.1845 N   0  0  0  0  0  0  0  0  0  0  0  0
   20.8613   -5.8351  -15.7733 C   0  0  0  0  0  0  0  0  0  0  0  0
   21.7231   -4.8456  -13.7260 O   0  0  0  0  0  0  0  0  0  0  0  0
   20.6917   -5.0958  -13.0395 O   0  0  0  0  0  0  0  0  0  0  0  0
  1  2  1  0
  2  3  2  0
  2  4  1  0
  4  5  1  0
  6  5  1  0
  6  7  1  0
  7  8  1  0
  8  9  1  6
 10  8  1  0
 10 15  1  0
 11 10  2  0
 12 13  1  0
 14 13  1  6
 14 15  1  0
 14 16  1  0
 16 17  2  0
 16 20  1  0
 19 18  1  6
 19 21  1  0
 20 19  1  0
 21 23  1  0
 22 21  2  0
M  END
$$$$
