RSA.pdb
     RDKit          3D

 23 22  0  0  1  0  0  0  0  0999 V2000
   13.3201  -12.1489  -14.1311 N   0  0  0  0  0  0  0  0  0  0  0  0
   12.6684  -11.0867  -14.8294 C   0  0  0  0  0  0  0  0  0  0  0  0
   11.4977  -10.7554  -14.4652 N   0  0  0  0  0  0  0  0  0  0  0  0
   13.3319  -10.4467  -15.8861 N   0  0  0  0  0  0  0  0  0  0  0  0
   14.5730  -10.9727  -16.4041 C   0  0  0  0  0  0  0  0  0  0  0  0
   15.7044  -10.6938  -15.4647 C   0  0  0  0  0  0  0  0  0  0  0  0
   16.8430   -9.9895  -16.0764 C   0  0  0  0  0  0  0  0  0  0  0  0
   18.0082  -10.8749  -16.4047 C   0  0  2  0  0  0  0  0  0  0  0  0
   17.9002  -12.1271  -15.7644 N   0  0  0  0  0  0  0  0  0  0  0  0
   19.2352  -10.1141  -16.0541 C   0  0  0  0  0  0  0  0  0  0  0  0
   19.6910  -10.2557  -14.8886 O   0  0  0  0  0  0  0  0  0  0  0  0
   10.9396   -9.9635  -14.8149 O   0  0  0  0  0  0  0  0  0  0  0  0
   23.0595   -7.5962  -17.6696 C   0  0  0  0  0  0  0  0  0  0  0  0
   21.8626   -8.2718  -17.8844 C   0  0  2  0  0  0  0  0  0  0  0  0
   21.1447   -8.5450  -16.5711 N   0  0  0  0  0  0  0  0  0  0  0  0
   19.9259   -9.2491  -16.9213 C   0  0  0  0  0  0  0  0  0  0  0  0
   20.8613   -7.3087  -15.8323 O   0  0  0  0  0  0  0  0  0  0  0  0
   19.8462   -6.6274  -16.2152 C   0  0  0  0  0  0  0  0  0  0  0  0
   21.9906   -5.6746  -12.6715 C   0  0  2  0  0  0  0  0  0  0  0  0
   21.3555   -5.6241  -14.0540 N   0  0  0  0  0  0  0  0  0  0  0  0
   21.6402   -6.8447  -14.7401 C   0  0  0  0  0  0  0  0  0  0  0  0
   21.6924   -4.4144  -14.8065 O   0  0  0  0  0  0  0  0  0  0  0  0
   21.1912   -3.2713  -14.6069 O   0  0  0  0  0  0  0  0  0  0  0  0
  1  2  1  0
  2  3  2  0
  2  4  1  0
  4  5  1  0
  6  5  1  0
  6  7  1  0
  7  8  1  0
  8  9  1  1
 10  8  1  0
 10 15  1  0
 11 10  2  0
 12 13  1  0
 14 13  1  1
 14 15  1  0
 14 16  1  0
 16 17  2  0
 16 20  1  0
 19 18  1  1
 19 21  1  0
 20 19  1  0
 21 23  1  0
 22 21  2  0
M  END
$$$$
