RSA.pdb
     RDKit          3D

 23 22  0  0  1  0  0  0  0  0999 V2000
   16.0438  -15.7486  -18.6700 N   0  0  0  0  0  0  0  0  0  0  0  0
   16.6605  -16.3037  -17.5073 C   0  0  0  0  0  0  0  0  0  0  0  0
   16.7859  -17.5655  -17.4360 N   0  0  0  0  0  0  0  0  0  0  0  0
   17.1053  -15.4495  -16.4880 N   0  0  0  0  0  0  0  0  0  0  0  0
   17.3445  -14.0499  -16.7508 C   0  0  0  0  0  0  0  0  0  0  0  0
   18.7568  -13.8231  -17.1915 C   0  0  0  0  0  0  0  0  0  0  0  0
   19.1013  -12.4114  -17.4259 C   0  0  0  0  0  0  0  0  0  0  0  0
   19.7603  -11.7382  -16.2589 C   0  0  2  0  0  0  0  0  0  0  0  0
   19.0469  -11.9646  -15.0633 N   0  0  0  0  0  0  0  0  0  0  0  0
   19.9074  -10.3045  -16.6196 C   0  0  0  0  0  0  0  0  0  0  0  0
   20.5522  -10.0343  -17.6671 O   0  0  0  0  0  0  0  0  0  0  0  0
   17.2286  -18.1036  -16.6776 O   0  0  0  0  0  0  0  0  0  0  0  0
   17.6074   -7.5358  -14.9081 C   0  0  0  0  0  0  0  0  0  0  0  0
   18.2523   -7.1500  -16.0789 C   0  0  1  0  0  0  0  0  0  0  0  0
   19.6064   -7.8315  -16.2082 N   0  0  0  0  0  0  0  0  0  0  0  0
   19.3834   -9.2274  -15.8829 C   0  0  0  0  0  0  0  0  0  0  0  0
   20.6127   -7.2256  -15.3280 O   0  0  0  0  0  0  0  0  0  0  0  0
   20.5980   -7.5881  -14.0993 C   0  0  0  0  0  0  0  0  0  0  0  0
   23.4987   -4.8400  -15.6873 C   0  0  2  0  0  0  0  0  0  0  0  0
   22.5120   -5.6662  -14.8744 N   0  0  0  0  0  0  0  0  0  0  0  0
   21.5777   -6.2805  -15.7642 C   0  0  0  0  0  0  0  0  0  0  0  0
   21.8987   -4.9234  -13.7720 O   0  0  0  0  0  0  0  0  0  0  0  0
   20.7440   -4.4099  -13.7954 O   0  0  0  0  0  0  0  0  0  0  0  0
  1  2  1  0
  2  3  2  0
  2  4  1  0
  4  5  1  0
  6  5  1  0
  6  7  1  0
  7  8  1  0
  8  9  1  1
 10  8  1  0
 10 15  1  0
 11 10  2  0
 12 13  1  0
 14 13  1  6
 14 15  1  0
 14 16  1  0
 16 17  2  0
 16 20  1  0
 19 18  1  6
 19 21  1  0
 20 19  1  0
 21 23  1  0
 22 21  2  0
M  END
$$$$
