RSA.pdb
     RDKit          3D

 23 22  0  0  1  0  0  0  0  0999 V2000
   12.3482   -8.1421  -14.2481 N   0  0  0  0  0  0  0  0  0  0  0  0
   11.7675   -9.4412  -14.3732 C   0  0  0  0  0  0  0  0  0  0  0  0
   10.5742   -9.5292  -14.7990 N   0  0  0  0  0  0  0  0  0  0  0  0
   12.5226  -10.5706  -14.0261 N   0  0  0  0  0  0  0  0  0  0  0  0
   13.9246  -10.4493  -13.7019 C   0  0  0  0  0  0  0  0  0  0  0  0
   14.7763  -10.7393  -14.8980 C   0  0  0  0  0  0  0  0  0  0  0  0
   16.2212  -10.5770  -14.6692 C   0  0  0  0  0  0  0  0  0  0  0  0
   17.0605  -10.7432  -15.9011 C   0  0  2  0  0  0  0  0  0  0  0  0
   17.1049  -12.0907  -16.3162 N   0  0  0  0  0  0  0  0  0  0  0  0
   18.3899  -10.1547  -15.5952 C   0  0  0  0  0  0  0  0  0  0  0  0
   19.0827  -10.7194  -14.7079 O   0  0  0  0  0  0  0  0  0  0  0  0
   10.0259  -10.3902  -14.9363 O   0  0  0  0  0  0  0  0  0  0  0  0
   20.1635   -7.4421  -18.1332 C   0  0  0  0  0  0  0  0  0  0  0  0
   20.8960   -8.3489  -17.3741 C   0  0  1  0  0  0  0  0  0  0  0  0
   20.2812   -8.5303  -15.9942 N   0  0  0  0  0  0  0  0  0  0  0  0
   18.9336   -9.0175  -16.2185 C   0  0  0  0  0  0  0  0  0  0  0  0
   20.2829   -7.2810  -15.2235 O   0  0  0  0  0  0  0  0  0  0  0  0
   19.2885   -6.4928  -15.3998 C   0  0  0  0  0  0  0  0  0  0  0  0
   22.3450   -5.7323  -12.4975 C   0  0  2  0  0  0  0  0  0  0  0  0
   21.3087   -5.6712  -13.6107 N   0  0  0  0  0  0  0  0  0  0  0  0
   21.3095   -6.9150  -14.3142 C   0  0  0  0  0  0  0  0  0  0  0  0
   21.4421   -4.4917  -14.4675 O   0  0  0  0  0  0  0  0  0  0  0  0
   21.1063   -3.3168  -14.1441 O   0  0  0  0  0  0  0  0  0  0  0  0
  1  2  1  0
  2  3  2  0
  2  4  1  0
  4  5  1  0
  6  5  1  0
  6  7  1  0
  7  8  1  0
  8  9  1  1
 10  8  1  0
 10 15  1  0
 11 10  2  0
 12 13  1  0
 14 13  1  1
 14 15  1  0
 14 16  1  0
 16 17  2  0
 16 20  1  0
 19 18  1  1
 19 21  1  0
 20 19  1  0
 21 23  1  0
 22 21  2  0
M  END
$$$$
