RSA.pdb
     RDKit          3D

 23 22  0  0  1  0  0  0  0  0999 V2000
   25.5637  -12.4832  -15.8731 N   0  0  0  0  0  0  0  0  0  0  0  0
   26.6624  -12.8577  -16.7057 C   0  0  0  0  0  0  0  0  0  0  0  0
   27.6408  -12.0546  -16.8093 N   0  0  0  0  0  0  0  0  0  0  0  0
   26.6303  -14.0878  -17.3781 N   0  0  0  0  0  0  0  0  0  0  0  0
   25.5496  -15.0201  -17.1590 C   0  0  0  0  0  0  0  0  0  0  0  0
   25.3682  -15.2937  -15.6987 C   0  0  0  0  0  0  0  0  0  0  0  0
   26.0132  -16.5299  -15.2272 C   0  0  0  0  0  0  0  0  0  0  0  0
   25.6717  -17.7471  -16.0341 C   0  0  2  0  0  0  0  0  0  0  0  0
   24.4153  -17.6135  -16.6615 N   0  0  0  0  0  0  0  0  0  0  0  0
   25.7749  -18.9111  -15.1166 C   0  0  0  0  0  0  0  0  0  0  0  0
   24.6998  -19.4045  -14.6843 O   0  0  0  0  0  0  0  0  0  0  0  0
   28.4774  -12.1683  -17.3992 O   0  0  0  0  0  0  0  0  0  0  0  0
   28.8385  -21.7550  -14.9246 C   0  0  0  0  0  0  0  0  0  0  0  0
   28.5163  -21.0549  -13.7664 C   0  0  2  0  0  0  0  0  0  0  0  0
   27.0574  -20.6232  -13.7754 N   0  0  0  0  0  0  0  0  0  0  0  0
   26.9781  -19.5034  -14.6939 C   0  0  0  0  0  0  0  0  0  0  0  0
   26.5844  -20.2572  -12.4349 O   0  0  0  0  0  0  0  0  0  0  0  0
   26.6625  -19.0195  -12.1134 C   0  0  0  0  0  0  0  0  0  0  0  0
   24.4388  -19.8884  -10.2919 C   0  0  2  0  0  0  0  0  0  0  0  0
   25.6452  -20.8106  -10.1863 N   0  0  0  0  0  0  0  0  0  0  0  0
   26.0574  -21.1876  -11.5015 C   0  0  0  0  0  0  0  0  0  0  0  0
   25.4415  -21.9347   -9.2708 O   0  0  0  0  0  0  0  0  0  0  0  0
   25.5737  -23.1540   -9.5765 O   0  0  0  0  0  0  0  0  0  0  0  0
  1  2  1  0
  2  3  2  0
  2  4  1  0
  4  5  1  0
  6  5  1  0
  6  7  1  0
  7  8  1  0
  8  9  1  1
 10  8  1  0
 10 15  1  0
 11 10  2  0
 12 13  1  0
 14 13  1  6
 14 15  1  0
 14 16  1  0
 16 17  2  0
 16 20  1  0
 19 18  1  6
 19 21  1  0
 20 19  1  0
 21 23  1  0
 22 21  2  0
M  END
$$$$
