HAL.pdb
     RDKit          3D

 24 24  0  0  1  0  0  0  0  0999 V2000
   23.0403  -20.3511  -15.2803 N   0  0  0  0  0  0  0  0  0  0  0  0
   23.7132  -19.8884  -14.0917 C   0  0  1  0  0  0  0  0  0  0  0  0
   22.7186  -19.5584  -13.0309 C   0  0  0  0  0  0  0  0  0  0  0  0
   21.6126  -18.7066  -13.4951 C   0  0  0  0  0  0  0  0  0  0  0  0
   21.6715  -17.4829  -14.0899 C   0  0  0  0  0  0  0  0  0  0  0  0
   20.4231  -17.0416  -14.3534 N   0  0  0  0  0  0  0  0  0  0  0  0
   19.5923  -17.9837  -13.9257 C   0  0  0  0  0  0  0  0  0  0  0  0
   20.2804  -18.9933  -13.4066 N   0  0  0  0  0  0  0  0  0  0  0  0
   24.8102  -20.7852  -13.6523 C   0  0  0  0  0  0  0  0  0  0  0  0
   24.5951  -22.0036  -13.4059 O   0  0  0  0  0  0  0  0  0  0  0  0
   28.5103  -20.3425  -13.2445 C   0  0  0  0  0  0  0  0  0  0  0  0
   27.2325  -21.1236  -13.0217 C   0  0  2  0  0  0  0  0  0  0  0  0
   26.1351  -20.3362  -13.4861 N   0  0  0  0  0  0  0  0  0  0  0  0
   27.0825  -21.4519  -11.5627 C   0  0  0  0  0  0  0  0  0  0  0  0
   27.1846  -22.6156  -11.1176 O   0  0  0  0  0  0  0  0  0  0  0  0
   27.6965  -18.6225   -6.1087 C   0  0  0  0  0  0  0  0  0  0  0  0
   27.2396  -19.8386   -6.8669 C   0  0  2  0  0  0  0  0  0  0  0  0
   28.0376  -21.0600   -6.3799 C   0  0  0  0  0  0  0  0  0  0  0  0
   27.3671  -19.6631   -8.3295 C   0  0  0  0  0  0  0  0  0  0  0  0
   26.6518  -20.6076   -9.2194 C   0  0  2  0  0  0  0  0  0  0  0  0
   26.8128  -20.4072  -10.6355 N   0  0  0  0  0  0  0  0  0  0  0  0
   25.2066  -20.7384   -8.9040 C   0  0  0  0  0  0  0  0  0  0  0  0
   24.3317  -20.2021   -9.6241 O   0  0  0  0  0  0  0  0  0  0  0  0
   24.7717  -21.4568   -7.8039 O   0  0  0  0  0  0  0  0  0  0  0  0
  2  1  1  6
  3  4  1  0
  3  2  1  0
  4  5  2  0
  6  5  1  0
  7  6  1  0
  8  7  2  0
  8  4  1  0
  9  2  1  0
 10  9  2  0
 12 11  1  1
 12 14  1  0
 12 13  1  0
 13  9  1  0
 14 21  1  0
 15 14  2  0
 17 16  1  1
 18 17  1  0
 19 17  1  0
 20 19  1  1
 20 22  1  0
 21 20  1  0
 22 23  2  0
 22 24  1  0
M  END
$$$$
