HAL.pdb
     RDKit          3D

 24 24  0  0  1  0  0  0  0  0999 V2000
   20.4006  -25.3748  -15.1367 N   0  0  0  0  0  0  0  0  0  0  0  0
   19.6073  -25.9737  -14.0919 C   0  0  1  0  0  0  0  0  0  0  0  0
   18.2018  -26.1603  -14.5538 C   0  0  0  0  0  0  0  0  0  0  0  0
   17.5168  -24.9054  -14.9005 C   0  0  0  0  0  0  0  0  0  0  0  0
   17.3283  -24.3492  -16.1292 C   0  0  0  0  0  0  0  0  0  0  0  0
   16.6530  -23.1866  -16.0066 N   0  0  0  0  0  0  0  0  0  0  0  0
   16.4225  -23.0197  -14.7105 C   0  0  0  0  0  0  0  0  0  0  0  0
   16.9304  -24.0368  -14.0252 N   0  0  0  0  0  0  0  0  0  0  0  0
   20.2302  -27.1850  -13.5040 C   0  0  0  0  0  0  0  0  0  0  0  0
   20.8232  -28.0290  -14.2301 O   0  0  0  0  0  0  0  0  0  0  0  0
   20.8847  -28.3066   -9.9994 C   0  0  0  0  0  0  0  0  0  0  0  0
   20.7785  -28.5957  -11.4819 C   0  0  2  0  0  0  0  0  0  0  0  0
   20.1958  -27.4600  -12.1228 N   0  0  0  0  0  0  0  0  0  0  0  0
   19.9459  -29.8272  -11.7036 C   0  0  0  0  0  0  0  0  0  0  0  0
   18.7345  -29.7783  -12.0084 O   0  0  0  0  0  0  0  0  0  0  0  0
   20.7582  -36.0495  -11.6015 C   0  0  0  0  0  0  0  0  0  0  0  0
   19.9896  -34.8613  -12.1114 C   0  0  2  0  0  0  0  0  0  0  0  0
   19.7878  -35.0107  -13.6289 C   0  0  0  0  0  0  0  0  0  0  0  0
   20.6572  -33.5837  -11.7825 C   0  0  0  0  0  0  0  0  0  0  0  0
   19.8351  -32.3524  -11.7206 C   0  0  2  0  0  0  0  0  0  0  0  0
   20.5449  -31.1100  -11.5652 N   0  0  0  0  0  0  0  0  0  0  0  0
   18.7416  -32.4209  -10.7182 C   0  0  0  0  0  0  0  0  0  0  0  0
   18.9608  -32.2193   -9.5005 O   0  0  0  0  0  0  0  0  0  0  0  0
   17.4403  -32.7098  -11.0906 O   0  0  0  0  0  0  0  0  0  0  0  0
  2  1  1  6
  3  4  1  0
  3  2  1  0
  4  5  2  0
  6  5  1  0
  7  6  1  0
  8  7  2  0
  8  4  1  0
  9  2  1  0
 10  9  2  0
 12 11  1  1
 12 14  1  0
 12 13  1  0
 13  9  1  0
 14 21  1  0
 15 14  2  0
 17 16  1  6
 18 17  1  0
 19 17  1  0
 20 19  1  1
 20 22  1  0
 21 20  1  0
 22 23  2  0
 22 24  1  0
M  END
$$$$
