HAL.pdb
     RDKit          3D

 24 24  0  0  1  0  0  0  0  0999 V2000
   16.6686  -12.1602  -14.9132 N   0  0  0  0  0  0  0  0  0  0  0  0
   17.1603  -11.2393  -15.9080 C   0  0  1  0  0  0  0  0  0  0  0  0
   16.0755  -10.3069  -16.3292 C   0  0  0  0  0  0  0  0  0  0  0  0
   14.8903  -10.9817  -16.8807 C   0  0  0  0  0  0  0  0  0  0  0  0
   13.6653  -11.1530  -16.3109 C   0  0  0  0  0  0  0  0  0  0  0  0
   12.8600  -11.8344  -17.1533 N   0  0  0  0  0  0  0  0  0  0  0  0
   13.5782  -12.0860  -18.2403 C   0  0  0  0  0  0  0  0  0  0  0  0
   14.7998  -11.5851  -18.1023 N   0  0  0  0  0  0  0  0  0  0  0  0
   18.4280  -10.5754  -15.5166 C   0  0  0  0  0  0  0  0  0  0  0  0
   18.5423   -9.9979  -14.4009 O   0  0  0  0  0  0  0  0  0  0  0  0
   21.8373  -10.3749  -17.0499 C   0  0  0  0  0  0  0  0  0  0  0  0
   20.7872   -9.8723  -16.0818 C   0  0  2  0  0  0  0  0  0  0  0  0
   19.5601  -10.5503  -16.3547 N   0  0  0  0  0  0  0  0  0  0  0  0
   20.6269   -8.3851  -16.2290 C   0  0  0  0  0  0  0  0  0  0  0  0
   19.7503   -7.8684  -16.9552 O   0  0  0  0  0  0  0  0  0  0  0  0
   23.5508   -3.2477  -14.4927 C   0  0  0  0  0  0  0  0  0  0  0  0
   22.1782   -3.8371  -14.6690 C   0  0  2  0  0  0  0  0  0  0  0  0
   21.2364   -3.2347  -13.6125 C   0  0  0  0  0  0  0  0  0  0  0  0
   22.1927   -5.3137  -14.5947 C   0  0  0  0  0  0  0  0  0  0  0  0
   21.4902   -6.0812  -15.6499 C   0  0  2  0  0  0  0  0  0  0  0  0
   21.5001   -7.5145  -15.5199 N   0  0  0  0  0  0  0  0  0  0  0  0
   21.9057   -5.7109  -17.0266 C   0  0  0  0  0  0  0  0  0  0  0  0
   22.8976   -6.2474  -17.5741 O   0  0  0  0  0  0  0  0  0  0  0  0
   21.2138   -4.7600  -17.7565 O   0  0  0  0  0  0  0  0  0  0  0  0
  2  1  1  1
  3  4  1  0
  3  2  1  0
  4  5  2  0
  6  5  1  0
  7  6  1  0
  8  7  2  0
  8  4  1  0
  9  2  1  0
 10  9  2  0
 12 11  1  6
 12 14  1  0
 12 13  1  0
 13  9  1  0
 14 21  1  0
 15 14  2  0
 17 16  1  1
 18 17  1  0
 19 17  1  0
 20 19  1  1
 20 22  1  0
 21 20  1  0
 22 23  2  0
 22 24  1  0
M  END
$$$$
