HAL.pdb
     RDKit          3D

 24 24  0  0  1  0  0  0  0  0999 V2000
   17.1788  -11.9892  -14.6590 N   0  0  0  0  0  0  0  0  0  0  0  0
   17.4200  -11.0650  -15.7394 C   0  0  1  0  0  0  0  0  0  0  0  0
   16.1942  -10.9172  -16.5756 C   0  0  0  0  0  0  0  0  0  0  0  0
   15.7275  -12.1762  -17.1766 C   0  0  0  0  0  0  0  0  0  0  0  0
   15.8233  -12.5893  -18.4708 C   0  0  0  0  0  0  0  0  0  0  0  0
   15.2621  -13.8100  -18.6043 N   0  0  0  0  0  0  0  0  0  0  0  0
   14.8197  -14.1549  -17.4018 C   0  0  0  0  0  0  0  0  0  0  0  0
   15.0863  -13.1922  -16.5275 N   0  0  0  0  0  0  0  0  0  0  0  0
   18.0208   -9.7843  -15.2924 C   0  0  0  0  0  0  0  0  0  0  0  0
   17.5191   -9.1284  -14.3387 O   0  0  0  0  0  0  0  0  0  0  0  0
   21.1376   -7.9211  -16.2080 C   0  0  0  0  0  0  0  0  0  0  0  0
   19.7679   -7.9808  -15.5654 C   0  0  2  0  0  0  0  0  0  0  0  0
   19.1676   -9.2336  -15.8974 N   0  0  0  0  0  0  0  0  0  0  0  0
   18.9263   -6.8335  -16.0495 C   0  0  0  0  0  0  0  0  0  0  0  0
   18.1883   -6.9137  -17.0553 O   0  0  0  0  0  0  0  0  0  0  0  0
   15.7102   -2.2707  -14.2640 C   0  0  0  0  0  0  0  0  0  0  0  0
   15.9941   -3.1663  -15.4386 C   0  0  2  0  0  0  0  0  0  0  0  0
   14.6598   -3.6331  -16.0449 C   0  0  0  0  0  0  0  0  0  0  0  0
   16.8465   -4.3164  -15.0686 C   0  0  0  0  0  0  0  0  0  0  0  0
   18.1777   -4.4437  -15.7070 C   0  0  2  0  0  0  0  0  0  0  0  0
   18.9585   -5.5976  -15.3460 N   0  0  0  0  0  0  0  0  0  0  0  0
   19.0153   -3.2245  -15.5765 C   0  0  0  0  0  0  0  0  0  0  0  0
   19.9547   -3.1652  -14.7485 O   0  0  0  0  0  0  0  0  0  0  0  0
   18.7904   -2.1085  -16.3636 O   0  0  0  0  0  0  0  0  0  0  0  0
  2  1  1  1
  3  4  1  0
  3  2  1  0
  4  5  2  0
  6  5  1  0
  7  6  1  0
  8  7  2  0
  8  4  1  0
  9  2  1  0
 10  9  2  0
 12 11  1  6
 12 14  1  0
 12 13  1  0
 13  9  1  0
 14 21  1  0
 15 14  2  0
 17 16  1  1
 18 17  1  0
 19 17  1  0
 20 19  1  1
 20 22  1  0
 21 20  1  0
 22 23  2  0
 22 24  1  0
M  END
$$$$
