HAL.pdb
     RDKit          3D

 24 24  0  0  1  0  0  0  0  0999 V2000
   16.4779  -14.0991  -17.9061 N   0  0  0  0  0  0  0  0  0  0  0  0
   16.4969  -13.5795  -16.5610 C   0  0  1  0  0  0  0  0  0  0  0  0
   17.1593  -14.5495  -15.6423 C   0  0  0  0  0  0  0  0  0  0  0  0
   16.5165  -15.8722  -15.6081 C   0  0  0  0  0  0  0  0  0  0  0  0
   15.1933  -16.1737  -15.4940 C   0  0  0  0  0  0  0  0  0  0  0  0
   15.0272  -17.5135  -15.4972 N   0  0  0  0  0  0  0  0  0  0  0  0
   16.2384  -18.0431  -15.6124 C   0  0  0  0  0  0  0  0  0  0  0  0
   17.1495  -17.0800  -15.6808 N   0  0  0  0  0  0  0  0  0  0  0  0
   17.0179  -12.1931  -16.4753 C   0  0  0  0  0  0  0  0  0  0  0  0
   18.2201  -11.9316  -16.7542 O   0  0  0  0  0  0  0  0  0  0  0  0
   15.4162   -8.8556  -16.0151 C   0  0  0  0  0  0  0  0  0  0  0  0
   16.6406   -9.7455  -15.9785 C   0  0  2  0  0  0  0  0  0  0  0  0
   16.2141  -11.1047  -16.0830 N   0  0  0  0  0  0  0  0  0  0  0  0
   17.4017   -9.5149  -14.7031 C   0  0  0  0  0  0  0  0  0  0  0  0
   17.1237  -10.1011  -13.6346 O   0  0  0  0  0  0  0  0  0  0  0  0
   22.4138   -6.4428  -12.9215 C   0  0  0  0  0  0  0  0  0  0  0  0
   21.6807   -7.7449  -12.7492 C   0  0  2  0  0  0  0  0  0  0  0  0
   22.7074   -8.8774  -12.5781 C   0  0  0  0  0  0  0  0  0  0  0  0
   20.7619   -8.0196  -13.8746 C   0  0  0  0  0  0  0  0  0  0  0  0
   19.3603   -8.3902  -13.5682 C   0  0  2  0  0  0  0  0  0  0  0  0
   18.4864   -8.5946  -14.6933 N   0  0  0  0  0  0  0  0  0  0  0  0
   18.7053   -7.4762  -12.5984 C   0  0  0  0  0  0  0  0  0  0  0  0
   18.0386   -6.4869  -12.9837 O   0  0  0  0  0  0  0  0  0  0  0  0
   18.8062   -7.6821  -11.2334 O   0  0  0  0  0  0  0  0  0  0  0  0
  2  1  1  6
  3  4  1  0
  3  2  1  0
  4  5  2  0
  6  5  1  0
  7  6  1  0
  8  7  2  0
  8  4  1  0
  9  2  1  0
 10  9  2  0
 12 11  1  1
 12 14  1  0
 12 13  1  0
 13  9  1  0
 14 21  1  0
 15 14  2  0
 17 16  1  6
 18 17  1  0
 19 17  1  0
 20 19  1  6
 20 22  1  0
 21 20  1  0
 22 23  2  0
 22 24  1  0
M  END
$$$$
