HAL.pdb
     RDKit          3D

 24 24  0  0  1  0  0  0  0  0999 V2000
   20.2393  -11.7591  -20.0758 N   0  0  0  0  0  0  0  0  0  0  0  0
   19.5156  -10.7469  -19.3469 C   0  0  1  0  0  0  0  0  0  0  0  0
   18.4099  -11.3673  -18.5620 C   0  0  0  0  0  0  0  0  0  0  0  0
   17.4264  -12.0881  -19.3850 C   0  0  0  0  0  0  0  0  0  0  0  0
   16.3086  -11.6052  -19.9950 C   0  0  0  0  0  0  0  0  0  0  0  0
   15.6773  -12.6029  -20.6497 N   0  0  0  0  0  0  0  0  0  0  0  0
   16.3966  -13.6997  -20.4489 C   0  0  0  0  0  0  0  0  0  0  0  0
   17.4512  -13.4181  -19.6934 N   0  0  0  0  0  0  0  0  0  0  0  0
   20.3965   -9.8442  -18.5659 C   0  0  0  0  0  0  0  0  0  0  0  0
   21.1457  -10.2937  -17.6560 O   0  0  0  0  0  0  0  0  0  0  0  0
   21.0361   -6.1442  -18.6642 C   0  0  0  0  0  0  0  0  0  0  0  0
   21.2534   -7.5202  -18.0711 C   0  0  2  0  0  0  0  0  0  0  0  0
   20.4467   -8.4543  -18.7901 N   0  0  0  0  0  0  0  0  0  0  0  0
   20.8959   -7.5094  -16.6113 C   0  0  0  0  0  0  0  0  0  0  0  0
   19.7428   -7.7555  -16.1958 O   0  0  0  0  0  0  0  0  0  0  0  0
   22.9897   -9.4917  -11.3943 C   0  0  0  0  0  0  0  0  0  0  0  0
   22.1308   -8.4268  -12.0194 C   0  0  2  0  0  0  0  0  0  0  0  0
   20.6650   -8.6701  -11.6221 C   0  0  0  0  0  0  0  0  0  0  0  0
   22.2869   -8.3772  -13.4889 C   0  0  0  0  0  0  0  0  0  0  0  0
   21.6859   -7.2404  -14.2254 C   0  0  2  0  0  0  0  0  0  0  0  0
   21.8990   -7.2088  -15.6484 N   0  0  0  0  0  0  0  0  0  0  0  0
   22.0277   -5.9152  -13.6490 C   0  0  0  0  0  0  0  0  0  0  0  0
   21.4119   -5.4578  -12.6575 O   0  0  0  0  0  0  0  0  0  0  0  0
   23.0384   -5.1359  -14.1845 O   0  0  0  0  0  0  0  0  0  0  0  0
  2  1  1  1
  3  4  1  0
  3  2  1  0
  4  5  2  0
  6  5  1  0
  7  6  1  0
  8  7  2  0
  8  4  1  0
  9  2  1  0
 10  9  2  0
 12 11  1  6
 12 14  1  0
 12 13  1  0
 13  9  1  0
 14 21  1  0
 15 14  2  0
 17 16  1  6
 18 17  1  0
 19 17  1  0
 20 19  1  1
 20 22  1  0
 21 20  1  0
 22 23  2  0
 22 24  1  0
M  END
$$$$
