DLC.pdb
     RDKit          3D

 23 22  0  0  1  0  0  0  0  0999 V2000
    8.9812  -17.0530   21.7989 N   0  0  0  0  0  0  0  0  0  0  0  0
   10.2698  -16.6960   22.3077 C   0  0  1  0  0  0  0  0  0  0  0  0
   11.0833  -16.0234   21.2569 C   0  0  0  0  0  0  0  0  0  0  0  0
   11.3234  -16.9638   20.1412 C   0  0  0  0  0  0  0  0  0  0  0  0
   10.3768  -17.2463   19.3696 O   0  0  0  0  0  0  0  0  0  0  0  0
   10.1671  -15.7967   23.5044 C   0  0  0  0  0  0  0  0  0  0  0  0
   11.2033  -15.3276   24.0414 O   0  0  0  0  0  0  0  0  0  0  0  0
   12.5764  -17.5197   19.9575 O   0  0  0  0  0  0  0  0  0  0  0  0
    7.7712  -11.7185   26.3927 C   0  0  0  0  0  0  0  0  0  0  0  0
    7.0657  -13.0646   26.2810 C   0  0  1  0  0  0  0  0  0  0  0  0
    5.6010  -12.6913   25.9593 C   0  0  0  0  0  0  0  0  0  0  0  0
    7.5421  -13.8746   25.1441 C   0  0  0  0  0  0  0  0  0  0  0  0
    8.8353  -14.6033   25.2934 C   0  0  2  0  0  0  0  0  0  0  0  0
    8.9232  -15.4435   24.0709 N   0  0  0  0  0  0  0  0  0  0  0  0
    8.9186  -15.5259   26.4274 C   0  0  0  0  0  0  0  0  0  0  0  0
    9.0377  -15.0980   27.6056 O   0  0  0  0  0  0  0  0  0  0  0  0
    8.8682  -16.9244   26.2621 N   0  0  0  0  0  0  0  0  0  0  0  0
    8.8898  -17.8339   27.3900 C   0  0  1  0  0  0  0  0  0  0  0  0
    7.9627  -19.0114   27.1788 C   0  0  0  0  0  0  0  0  0  0  0  0
    6.4662  -18.4188   26.3448 S   0  0  0  0  0  0  0  0  0  0  0  0
   10.2605  -18.3694   27.5843 C   0  0  0  0  0  0  0  0  0  0  0  0
   10.5392  -19.2582   28.6009 O   0  0  0  0  0  0  0  0  0  0  0  0
   11.1817  -18.0081   26.8115 O   0  0  0  0  0  0  0  0  0  0  0  0
  2  1  1  6
  3  2  1  0
  3  4  1  0
  4  5  2  0
  4  8  1  0
  6  2  1  0
  7  6  2  0
 10  9  1  6
 10 12  1  0
 11 10  1  0
 13 12  1  6
 13 14  1  0
 14  6  1  0
 15 13  1  0
 15 17  1  0
 16 15  2  0
 18 17  1  0
 18 21  1  0
 18 19  1  6
 20 19  1  0
 21 22  1  0
 23 21  2  0
M  END
$$$$
