DLC.pdb
     RDKit          3D

 23 22  0  0  1  0  0  0  0  0999 V2000
   10.0295  -17.8759   18.3427 N   0  0  0  0  0  0  0  0  0  0  0  0
   11.2240  -17.1075   18.5142 C   0  0  1  0  0  0  0  0  0  0  0  0
   11.6231  -16.4610   17.2332 C   0  0  0  0  0  0  0  0  0  0  0  0
   11.9317  -17.5025   16.2298 C   0  0  0  0  0  0  0  0  0  0  0  0
   12.2666  -18.6449   16.6223 O   0  0  0  0  0  0  0  0  0  0  0  0
   11.0622  -16.0540   19.5703 C   0  0  0  0  0  0  0  0  0  0  0  0
   12.0456  -15.3598   19.9355 O   0  0  0  0  0  0  0  0  0  0  0  0
   11.8500  -17.2136   14.8798 O   0  0  0  0  0  0  0  0  0  0  0  0
    6.3445  -13.4088   19.5837 C   0  0  0  0  0  0  0  0  0  0  0  0
    7.8214  -13.7776   19.6543 C   0  0  1  0  0  0  0  0  0  0  0  0
    8.5514  -12.4329   19.4378 C   0  0  0  0  0  0  0  0  0  0  0  0
    8.2342  -14.2591   20.9860 C   0  0  0  0  0  0  0  0  0  0  0  0
    9.6496  -14.6941   21.1683 C   0  0  2  0  0  0  0  0  0  0  0  0
    9.8196  -15.7998   20.1901 N   0  0  0  0  0  0  0  0  0  0  0  0
    9.9784  -15.2572   22.4794 C   0  0  0  0  0  0  0  0  0  0  0  0
    9.7807  -14.6016   23.5360 O   0  0  0  0  0  0  0  0  0  0  0  0
   10.5247  -16.5478   22.6260 N   0  0  0  0  0  0  0  0  0  0  0  0
   10.8340  -17.1095   23.9254 C   0  0  1  0  0  0  0  0  0  0  0  0
   10.3219  -18.5273   24.0599 C   0  0  0  0  0  0  0  0  0  0  0  0
   10.7219  -19.4268   22.5377 S   0  0  0  0  0  0  0  0  0  0  0  0
   12.3041  -17.1408   24.1283 C   0  0  0  0  0  0  0  0  0  0  0  0
   12.8464  -17.4859   25.3481 O   0  0  0  0  0  0  0  0  0  0  0  0
   13.0670  -16.8485   23.1750 O   0  0  0  0  0  0  0  0  0  0  0  0
  2  1  1  6
  3  2  1  0
  3  4  1  0
  4  5  2  0
  4  8  1  0
  6  2  1  0
  7  6  2  0
 10  9  1  1
 10 12  1  0
 11 10  1  0
 13 12  1  1
 13 14  1  0
 14  6  1  0
 15 13  1  0
 15 17  1  0
 16 15  2  0
 18 17  1  0
 18 21  1  0
 18 19  1  6
 20 19  1  0
 21 22  1  0
 23 21  2  0
M  END
$$$$
