DLC.pdb
     RDKit          3D

 23 22  0  0  1  0  0  0  0  0999 V2000
    8.2052  -17.6387   22.2858 N   0  0  0  0  0  0  0  0  0  0  0  0
    9.4836  -17.0366   22.0625 C   0  0  1  0  0  0  0  0  0  0  0  0
    9.6559  -16.6832   20.6259 C   0  0  0  0  0  0  0  0  0  0  0  0
    9.5617  -17.9074   19.8018 C   0  0  0  0  0  0  0  0  0  0  0  0
   10.1654  -18.9404   20.1758 O   0  0  0  0  0  0  0  0  0  0  0  0
    9.6744  -15.8066   22.9004 C   0  0  0  0  0  0  0  0  0  0  0  0
   10.6672  -15.0563   22.7165 O   0  0  0  0  0  0  0  0  0  0  0  0
    8.8166  -17.9059   18.6366 O   0  0  0  0  0  0  0  0  0  0  0  0
    7.4761  -11.2782   25.3341 C   0  0  0  0  0  0  0  0  0  0  0  0
    7.2885  -12.6677   25.9308 C   0  0  1  0  0  0  0  0  0  0  0  0
    5.7883  -12.7153   26.2984 C   0  0  0  0  0  0  0  0  0  0  0  0
    7.5063  -13.7510   24.9537 C   0  0  0  0  0  0  0  0  0  0  0  0
    8.9094  -14.1747   24.6753 C   0  0  2  0  0  0  0  0  0  0  0  0
    8.7628  -15.4432   23.9152 N   0  0  0  0  0  0  0  0  0  0  0  0
    9.7219  -14.4966   25.8502 C   0  0  0  0  0  0  0  0  0  0  0  0
   10.0714  -13.6011   26.6635 O   0  0  0  0  0  0  0  0  0  0  0  0
   10.1487  -15.8100   26.1304 N   0  0  0  0  0  0  0  0  0  0  0  0
   10.8317  -16.1510   27.3620 C   0  0  1  0  0  0  0  0  0  0  0  0
    9.9451  -15.9442   28.5709 C   0  0  0  0  0  0  0  0  0  0  0  0
   10.5673  -14.5167   29.4991 S   0  0  0  0  0  0  0  0  0  0  0  0
   11.2363  -17.5791   27.3395 C   0  0  0  0  0  0  0  0  0  0  0  0
   11.9200  -18.1411   28.3968 O   0  0  0  0  0  0  0  0  0  0  0  0
   10.9522  -18.2875   26.3427 O   0  0  0  0  0  0  0  0  0  0  0  0
  2  1  1  6
  3  2  1  0
  3  4  1  0
  4  5  2  0
  4  8  1  0
  6  2  1  0
  7  6  2  0
 10  9  1  6
 10 12  1  0
 11 10  1  0
 13 12  1  1
 13 14  1  0
 14  6  1  0
 15 13  1  0
 15 17  1  0
 16 15  2  0
 18 17  1  0
 18 21  1  0
 18 19  1  1
 20 19  1  0
 21 22  1  0
 23 21  2  0
M  END
$$$$
