DLC.pdb
     RDKit          3D

 23 22  0  0  1  0  0  0  0  0999 V2000
    6.0333  -18.9839   24.2267 N   0  0  0  0  0  0  0  0  0  0  0  0
    6.8358  -18.3590   25.2328 C   0  0  1  0  0  0  0  0  0  0  0  0
    7.8867  -19.2931   25.7240 C   0  0  0  0  0  0  0  0  0  0  0  0
    8.0199  -19.1591   27.1906 C   0  0  0  0  0  0  0  0  0  0  0  0
    7.0254  -19.3965   27.9158 O   0  0  0  0  0  0  0  0  0  0  0  0
    7.4862  -17.1048   24.7276 C   0  0  0  0  0  0  0  0  0  0  0  0
    8.0282  -17.0791   23.5927 O   0  0  0  0  0  0  0  0  0  0  0  0
    9.2268  -18.7771   27.7474 O   0  0  0  0  0  0  0  0  0  0  0  0
    5.5487  -12.4250   26.6849 C   0  0  0  0  0  0  0  0  0  0  0  0
    6.1270  -13.3443   25.6160 C   0  0  1  0  0  0  0  0  0  0  0  0
    5.9743  -12.5360   24.3078 C   0  0  0  0  0  0  0  0  0  0  0  0
    7.5724  -13.5870   25.7823 C   0  0  0  0  0  0  0  0  0  0  0  0
    8.1947  -14.6913   24.9955 C   0  0  2  0  0  0  0  0  0  0  0  0
    7.5179  -15.9179   25.4913 N   0  0  0  0  0  0  0  0  0  0  0  0
    9.6271  -14.9005   25.2154 C   0  0  0  0  0  0  0  0  0  0  0  0
   10.4844  -14.3690   24.4617 O   0  0  0  0  0  0  0  0  0  0  0  0
   10.1159  -15.6962   26.2706 N   0  0  0  0  0  0  0  0  0  0  0  0
   11.5197  -15.7217   26.6288 C   0  0  1  0  0  0  0  0  0  0  0  0
   11.7154  -15.7475   28.1293 C   0  0  0  0  0  0  0  0  0  0  0  0
   10.6181  -14.5096   28.8707 S   0  0  0  0  0  0  0  0  0  0  0  0
   12.1644  -16.9363   26.0698 C   0  0  0  0  0  0  0  0  0  0  0  0
   13.4889  -17.2207   26.3269 O   0  0  0  0  0  0  0  0  0  0  0  0
   11.4943  -17.7180   25.3513 O   0  0  0  0  0  0  0  0  0  0  0  0
  2  1  1  6
  3  2  1  0
  3  4  1  0
  4  5  2  0
  4  8  1  0
  6  2  1  0
  7  6  2  0
 10  9  1  1
 10 12  1  0
 11 10  1  0
 13 12  1  1
 13 14  1  0
 14  6  1  0
 15 13  1  0
 15 17  1  0
 16 15  2  0
 18 17  1  0
 18 21  1  0
 18 19  1  1
 20 19  1  0
 21 22  1  0
 23 21  2  0
M  END
$$$$
