DLC.pdb
     RDKit          3D

 23 22  0  0  1  0  0  0  0  0999 V2000
    9.1235  -18.0385   17.4683 N   0  0  0  0  0  0  0  0  0  0  0  0
   10.4829  -17.7443   17.8031 C   0  0  1  0  0  0  0  0  0  0  0  0
   11.2028  -17.1741   16.6305 C   0  0  0  0  0  0  0  0  0  0  0  0
   11.2688  -18.1845   15.5527 C   0  0  0  0  0  0  0  0  0  0  0  0
   12.1421  -19.0818   15.6130 O   0  0  0  0  0  0  0  0  0  0  0  0
   10.5788  -16.7876   18.9549 C   0  0  0  0  0  0  0  0  0  0  0  0
   11.6957  -16.3410   19.3228 O   0  0  0  0  0  0  0  0  0  0  0  0
   10.3771  -18.1344   14.4968 O   0  0  0  0  0  0  0  0  0  0  0  0
    6.3249  -13.4469   20.0893 C   0  0  0  0  0  0  0  0  0  0  0  0
    7.7415  -13.9683   19.8810 C   0  0  1  0  0  0  0  0  0  0  0  0
    8.6191  -12.6982   19.9492 C   0  0  0  0  0  0  0  0  0  0  0  0
    8.2019  -14.8447   20.9744 C   0  0  0  0  0  0  0  0  0  0  0  0
    9.5513  -15.4693   20.8537 C   0  0  2  0  0  0  0  0  0  0  0  0
    9.4382  -16.3537   19.6648 N   0  0  0  0  0  0  0  0  0  0  0  0
    9.9547  -16.3327   21.9654 C   0  0  0  0  0  0  0  0  0  0  0  0
    9.4746  -17.4892   22.0969 O   0  0  0  0  0  0  0  0  0  0  0  0
   10.8917  -15.9205   22.9338 N   0  0  0  0  0  0  0  0  0  0  0  0
   11.2644  -16.7636   24.0519 C   0  0  1  0  0  0  0  0  0  0  0  0
   12.7668  -16.8574   24.2073 C   0  0  0  0  0  0  0  0  0  0  0  0
   13.4612  -17.5161   22.6677 S   0  0  0  0  0  0  0  0  0  0  0  0
   10.7152  -16.2061   25.3132 C   0  0  0  0  0  0  0  0  0  0  0  0
    9.9258  -15.0755   25.3067 O   0  0  0  0  0  0  0  0  0  0  0  0
   10.9728  -16.7717   26.4041 O   0  0  0  0  0  0  0  0  0  0  0  0
  2  1  1  6
  3  2  1  0
  3  4  1  0
  4  5  2  0
  4  8  1  0
  6  2  1  0
  7  6  2  0
 10  9  1  1
 10 12  1  0
 11 10  1  0
 13 12  1  1
 13 14  1  0
 14  6  1  0
 15 13  1  0
 15 17  1  0
 16 15  2  0
 18 17  1  0
 18 21  1  0
 18 19  1  1
 20 19  1  0
 21 22  1  0
 23 21  2  0
M  END
$$$$
