DLC.pdb
     RDKit          3D

 23 22  0  0  1  0  0  0  0  0999 V2000
   10.7520  -18.1085   18.8230 N   0  0  0  0  0  0  0  0  0  0  0  0
    9.9757  -18.1686   20.0233 C   0  0  1  0  0  0  0  0  0  0  0  0
   10.3905  -19.3277   20.8615 C   0  0  0  0  0  0  0  0  0  0  0  0
    9.8480  -20.5753   20.2819 C   0  0  0  0  0  0  0  0  0  0  0  0
    8.6095  -20.7677   20.3036 O   0  0  0  0  0  0  0  0  0  0  0  0
   10.0957  -16.9082   20.8285 C   0  0  0  0  0  0  0  0  0  0  0  0
   11.2271  -16.4461   21.1264 O   0  0  0  0  0  0  0  0  0  0  0  0
   10.7001  -21.5118   19.7256 O   0  0  0  0  0  0  0  0  0  0  0  0
    6.4315  -13.2037   19.6750 C   0  0  0  0  0  0  0  0  0  0  0  0
    7.7699  -13.8302   20.0468 C   0  0  1  0  0  0  0  0  0  0  0  0
    8.7991  -12.7199   19.7373 C   0  0  0  0  0  0  0  0  0  0  0  0
    7.8944  -14.1150   21.4887 C   0  0  0  0  0  0  0  0  0  0  0  0
    9.0886  -14.8788   21.9536 C   0  0  2  0  0  0  0  0  0  0  0  0
    8.9626  -16.1973   21.2797 N   0  0  0  0  0  0  0  0  0  0  0  0
    9.1446  -15.1602   23.3895 C   0  0  0  0  0  0  0  0  0  0  0  0
    9.4229  -14.2543   24.2186 O   0  0  0  0  0  0  0  0  0  0  0  0
    8.8908  -16.4436   23.9131 N   0  0  0  0  0  0  0  0  0  0  0  0
    9.0224  -16.7383   25.3257 C   0  0  1  0  0  0  0  0  0  0  0  0
    7.7469  -17.3168   25.8992 C   0  0  0  0  0  0  0  0  0  0  0  0
    6.4267  -16.0887   25.7113 S   0  0  0  0  0  0  0  0  0  0  0  0
   10.1033  -17.7332   25.5383 C   0  0  0  0  0  0  0  0  0  0  0  0
   10.4095  -18.1915   26.8022 O   0  0  0  0  0  0  0  0  0  0  0  0
   10.7500  -18.1651   24.5526 O   0  0  0  0  0  0  0  0  0  0  0  0
  2  1  1  6
  3  2  1  0
  3  4  1  0
  4  5  2  0
  4  8  1  0
  6  2  1  0
  7  6  2  0
 10  9  1  1
 10 12  1  0
 11 10  1  0
 13 12  1  1
 13 14  1  0
 14  6  1  0
 15 13  1  0
 15 17  1  0
 16 15  2  0
 18 17  1  0
 18 21  1  0
 18 19  1  6
 20 19  1  0
 21 22  1  0
 23 21  2  0
M  END
$$$$
