DLC.pdb
     RDKit          3D

 23 22  0  0  1  0  0  0  0  0999 V2000
    9.8858  -18.4870   19.9853 N   0  0  0  0  0  0  0  0  0  0  0  0
   11.0325  -17.6316   19.9994 C   0  0  1  0  0  0  0  0  0  0  0  0
   11.4300  -17.2604   18.6128 C   0  0  0  0  0  0  0  0  0  0  0  0
   11.8254  -18.4766   17.8704 C   0  0  0  0  0  0  0  0  0  0  0  0
   10.9456  -19.1314   17.2632 O   0  0  0  0  0  0  0  0  0  0  0  0
   10.7866  -16.3829   20.7941 C   0  0  0  0  0  0  0  0  0  0  0  0
   11.7340  -15.6000   21.0626 O   0  0  0  0  0  0  0  0  0  0  0  0
   13.1481  -18.8800   17.8502 O   0  0  0  0  0  0  0  0  0  0  0  0
    6.1743  -13.6389   20.0178 C   0  0  0  0  0  0  0  0  0  0  0  0
    7.6325  -13.9928   20.2834 C   0  0  1  0  0  0  0  0  0  0  0  0
    8.3845  -12.6608   20.0637 C   0  0  0  0  0  0  0  0  0  0  0  0
    7.8874  -14.3822   21.6831 C   0  0  0  0  0  0  0  0  0  0  0  0
    9.2705  -14.7991   22.0557 C   0  0  2  0  0  0  0  0  0  0  0  0
    9.5024  -16.0375   21.2678 N   0  0  0  0  0  0  0  0  0  0  0  0
    9.4677  -15.1675   23.4591 C   0  0  0  0  0  0  0  0  0  0  0  0
    8.8220  -14.5971   24.3774 O   0  0  0  0  0  0  0  0  0  0  0  0
   10.3779  -16.1692   23.8512 N   0  0  0  0  0  0  0  0  0  0  0  0
   10.4338  -16.6692   25.2101 C   0  0  1  0  0  0  0  0  0  0  0  0
    9.1649  -17.4006   25.5913 C   0  0  0  0  0  0  0  0  0  0  0  0
    9.3907  -18.1156   27.2418 S   0  0  0  0  0  0  0  0  0  0  0  0
   11.5631  -17.6216   25.3546 C   0  0  0  0  0  0  0  0  0  0  0  0
   12.2923  -18.0316   24.2584 O   0  0  0  0  0  0  0  0  0  0  0  0
   11.8603  -18.0618   26.4922 O   0  0  0  0  0  0  0  0  0  0  0  0
  2  1  1  6
  3  2  1  0
  3  4  1  0
  4  5  2  0
  4  8  1  0
  6  2  1  0
  7  6  2  0
 10  9  1  1
 10 12  1  0
 11 10  1  0
 13 12  1  1
 13 14  1  0
 14  6  1  0
 15 13  1  0
 15 17  1  0
 16 15  2  0
 18 17  1  0
 18 21  1  0
 18 19  1  6
 20 19  1  0
 21 22  1  0
 23 21  2  0
M  END
$$$$
