EDM.pdb
     RDKit          3D

 26 25  0  0  1  0  0  0  0  0999 V2000
    9.9284  -15.3017   18.3099 N   0  0  0  0  0  0  0  0  0  0  0  0
   10.5123  -16.3893   19.1175 C   0  0  1  0  0  0  0  0  0  0  0  0
   11.9525  -16.0344   19.2880 C   0  0  0  0  0  0  0  0  0  0  0  0
   12.2347  -14.6093   19.6178 C   0  0  0  0  0  0  0  0  0  0  0  0
   13.7149  -14.4554   19.8124 C   0  0  0  0  0  0  0  0  0  0  0  0
   14.2715  -14.6329   20.9175 O   0  0  0  0  0  0  0  0  0  0  0  0
    9.8211  -16.3697   20.4370 C   0  0  0  0  0  0  0  0  0  0  0  0
    9.0039  -15.4568   20.7237 O   0  0  0  0  0  0  0  0  0  0  0  0
   14.5182  -14.1023   18.7370 O   0  0  0  0  0  0  0  0  0  0  0  0
   10.0532  -17.3801   21.4307 N   0  0  0  0  0  0  0  0  0  0  0  0
    9.2179  -17.4375   22.5857 C   0  0  1  0  0  0  0  0  0  0  0  0
    9.1005  -18.8649   23.0738 C   0  0  0  0  0  0  0  0  0  0  0  0
    8.2354  -18.8974   24.2555 C   0  0  0  0  0  0  0  0  0  0  0  0
    7.0787  -18.3994   24.1252 O   0  0  0  0  0  0  0  0  0  0  0  0
    9.7302  -16.5879   23.7070 C   0  0  0  0  0  0  0  0  0  0  0  0
   10.8368  -16.8959   24.1911 O   0  0  0  0  0  0  0  0  0  0  0  0
    8.5533  -19.4137   25.4922 O   0  0  0  0  0  0  0  0  0  0  0  0
    5.8020  -12.0752   25.8922 C   0  0  0  0  0  0  0  0  0  0  0  0
    6.7212  -12.1683   27.4400 S   0  0  0  0  0  0  0  0  0  0  0  0
    8.1708  -13.2389   27.1547 C   0  0  0  0  0  0  0  0  0  0  0  0
    7.9645  -13.9211   25.8523 C   0  0  0  0  0  0  0  0  0  0  0  0
    9.1619  -14.7741   25.4357 C   0  0  2  0  0  0  0  0  0  0  0  0
    9.0109  -15.4856   24.2080 N   0  0  0  0  0  0  0  0  0  0  0  0
    9.6316  -15.5431   26.5795 C   0  0  0  0  0  0  0  0  0  0  0  0
   10.6268  -15.1088   27.2121 O   0  0  0  0  0  0  0  0  0  0  0  0
    9.0732  -16.7272   27.0406 O   0  0  0  0  0  0  0  0  0  0  0  0
  2  1  1  6
  3  2  1  0
  3  4  1  0
  5  4  1  0
  5  6  2  0
  7  2  1  0
  7  8  2  0
  9  5  1  0
 10  7  1  0
 11 10  1  0
 11 12  1  1
 13 12  1  0
 13 17  1  0
 14 13  2  0
 15 11  1  0
 16 15  2  0
 18 19  1  0
 19 20  1  0
 20 21  1  0
 22 21  1  1
 22 23  1  0
 22 24  1  0
 23 15  1  0
 24 26  1  0
 25 24  2  0
M  END
$$$$
