EDM.pdb
     RDKit          3D

 26 25  0  0  1  0  0  0  0  0999 V2000
    9.5391  -13.0085   19.5058 N   0  0  0  0  0  0  0  0  0  0  0  0
    8.2645  -13.6645   19.8536 C   0  0  1  0  0  0  0  0  0  0  0  0
    7.7377  -14.2231   18.5731 C   0  0  0  0  0  0  0  0  0  0  0  0
    8.4939  -13.8527   17.3441 C   0  0  0  0  0  0  0  0  0  0  0  0
    7.9062  -14.6041   16.1854 C   0  0  0  0  0  0  0  0  0  0  0  0
    6.9427  -15.3905   16.3110 O   0  0  0  0  0  0  0  0  0  0  0  0
    8.5886  -14.7697   20.7986 C   0  0  0  0  0  0  0  0  0  0  0  0
    7.6793  -15.4937   21.2806 O   0  0  0  0  0  0  0  0  0  0  0  0
    8.4371  -14.4353   14.9142 O   0  0  0  0  0  0  0  0  0  0  0  0
    9.9379  -15.0559   21.1980 N   0  0  0  0  0  0  0  0  0  0  0  0
   10.1787  -15.9914   22.2477 C   0  0  1  0  0  0  0  0  0  0  0  0
   11.6415  -16.3770   22.2771 C   0  0  0  0  0  0  0  0  0  0  0  0
   11.9488  -17.1812   21.0920 C   0  0  0  0  0  0  0  0  0  0  0  0
   11.0935  -18.0545   20.7620 O   0  0  0  0  0  0  0  0  0  0  0  0
    9.7969  -15.4554   23.5925 C   0  0  0  0  0  0  0  0  0  0  0  0
    8.8672  -14.6259   23.6286 O   0  0  0  0  0  0  0  0  0  0  0  0
   13.0728  -17.0834   20.3019 O   0  0  0  0  0  0  0  0  0  0  0  0
    5.7123  -12.4280   26.1924 C   0  0  0  0  0  0  0  0  0  0  0  0
    7.4371  -12.5785   26.6944 S   0  0  0  0  0  0  0  0  0  0  0  0
    8.0754  -14.1427   26.0053 C   0  0  0  0  0  0  0  0  0  0  0  0
    9.4808  -14.2840   26.4628 C   0  0  0  0  0  0  0  0  0  0  0  0
   10.0725  -15.6552   26.1392 C   0  0  2  0  0  0  0  0  0  0  0  0
   10.4456  -15.8563   24.7766 N   0  0  0  0  0  0  0  0  0  0  0  0
    9.2541  -16.6935   26.7495 C   0  0  0  0  0  0  0  0  0  0  0  0
    9.0831  -16.6527   27.9937 O   0  0  0  0  0  0  0  0  0  0  0  0
    8.6380  -17.7375   26.0735 O   0  0  0  0  0  0  0  0  0  0  0  0
  2  1  1  6
  3  2  1  0
  3  4  1  0
  5  4  1  0
  5  6  2  0
  7  2  1  0
  7  8  2  0
  9  5  1  0
 10  7  1  0
 11 10  1  0
 11 12  1  1
 13 12  1  0
 13 17  1  0
 14 13  2  0
 15 11  1  0
 16 15  2  0
 18 19  1  0
 19 20  1  0
 20 21  1  0
 22 21  1  6
 22 23  1  0
 22 24  1  0
 23 15  1  0
 24 26  1  0
 25 24  2  0
M  END
$$$$
