EDM.pdb
     RDKit          3D

 26 25  0  0  1  0  0  0  0  0999 V2000
    8.8269  -16.1107   18.7782 N   0  0  0  0  0  0  0  0  0  0  0  0
    7.8739  -16.5929   19.7956 C   0  0  1  0  0  0  0  0  0  0  0  0
    7.3526  -17.8913   19.2743 C   0  0  0  0  0  0  0  0  0  0  0  0
    7.3924  -18.0591   17.7945 C   0  0  0  0  0  0  0  0  0  0  0  0
    6.7886  -19.3905   17.4553 C   0  0  0  0  0  0  0  0  0  0  0  0
    5.5599  -19.6102   17.5224 O   0  0  0  0  0  0  0  0  0  0  0  0
    8.6511  -16.8192   21.0463 C   0  0  0  0  0  0  0  0  0  0  0  0
    8.1266  -17.3902   22.0374 O   0  0  0  0  0  0  0  0  0  0  0  0
    7.6074  -20.4347   17.0483 O   0  0  0  0  0  0  0  0  0  0  0  0
   10.0186  -16.4007   21.1764 N   0  0  0  0  0  0  0  0  0  0  0  0
   10.6945  -16.5780   22.4201 C   0  0  1  0  0  0  0  0  0  0  0  0
   12.1396  -16.1476   22.2943 C   0  0  0  0  0  0  0  0  0  0  0  0
   12.8033  -16.9854   21.2926 C   0  0  0  0  0  0  0  0  0  0  0  0
   12.6300  -18.2354   21.3941 O   0  0  0  0  0  0  0  0  0  0  0  0
   10.0591  -15.8046   23.5336 C   0  0  0  0  0  0  0  0  0  0  0  0
    9.7132  -14.6334   23.2844 O   0  0  0  0  0  0  0  0  0  0  0  0
   13.5961  -16.5509   20.2533 O   0  0  0  0  0  0  0  0  0  0  0  0
    7.2928  -11.1172   26.3978 C   0  0  0  0  0  0  0  0  0  0  0  0
    7.1421  -12.8791   26.7473 S   0  0  0  0  0  0  0  0  0  0  0  0
    7.8352  -13.7832   25.3221 C   0  0  0  0  0  0  0  0  0  0  0  0
    7.7843  -15.2300   25.6517 C   0  0  0  0  0  0  0  0  0  0  0  0
    9.1642  -15.8188   25.9420 C   0  0  2  0  0  0  0  0  0  0  0  0
    9.8519  -16.3560   24.8129 N   0  0  0  0  0  0  0  0  0  0  0  0
    9.0915  -16.6670   27.1232 C   0  0  0  0  0  0  0  0  0  0  0  0
    8.8943  -17.8965   26.9538 O   0  0  0  0  0  0  0  0  0  0  0  0
    9.2216  -16.2358   28.4361 O   0  0  0  0  0  0  0  0  0  0  0  0
  2  1  1  6
  3  2  1  0
  3  4  1  0
  5  4  1  0
  5  6  2  0
  7  2  1  0
  7  8  2  0
  9  5  1  0
 10  7  1  0
 11 10  1  0
 11 12  1  6
 13 12  1  0
 13 17  1  0
 14 13  2  0
 15 11  1  0
 16 15  2  0
 18 19  1  0
 19 20  1  0
 20 21  1  0
 22 21  1  6
 22 23  1  0
 22 24  1  0
 23 15  1  0
 24 26  1  0
 25 24  2  0
M  END
$$$$
