EDM.pdb
     RDKit          3D

 26 25  0  0  1  0  0  0  0  0999 V2000
    8.7552  -12.9815   18.3444 N   0  0  0  0  0  0  0  0  0  0  0  0
    9.1633  -14.3988   18.3225 C   0  0  1  0  0  0  0  0  0  0  0  0
   10.6558  -14.3865   18.2805 C   0  0  0  0  0  0  0  0  0  0  0  0
   11.3350  -13.8839   19.5074 C   0  0  0  0  0  0  0  0  0  0  0  0
   12.8175  -13.9334   19.2786 C   0  0  0  0  0  0  0  0  0  0  0  0
   13.4433  -13.0115   18.7121 O   0  0  0  0  0  0  0  0  0  0  0  0
    8.6927  -15.0062   19.5988 C   0  0  0  0  0  0  0  0  0  0  0  0
    8.0305  -14.3309   20.4289 O   0  0  0  0  0  0  0  0  0  0  0  0
   13.5438  -15.0369   19.7043 O   0  0  0  0  0  0  0  0  0  0  0  0
    8.9700  -16.3741   19.9362 N   0  0  0  0  0  0  0  0  0  0  0  0
    8.3803  -16.9457   21.1026 C   0  0  1  0  0  0  0  0  0  0  0  0
    8.6092  -18.4412   21.1234 C   0  0  0  0  0  0  0  0  0  0  0  0
    7.9357  -19.0126   22.2919 C   0  0  0  0  0  0  0  0  0  0  0  0
    8.5157  -18.8675   23.4080 O   0  0  0  0  0  0  0  0  0  0  0  0
    8.9262  -16.3594   22.3675 C   0  0  0  0  0  0  0  0  0  0  0  0
   10.1634  -16.3874   22.5169 O   0  0  0  0  0  0  0  0  0  0  0  0
    6.7371  -19.6914   22.2989 O   0  0  0  0  0  0  0  0  0  0  0  0
    6.9795  -11.1046   27.9698 C   0  0  0  0  0  0  0  0  0  0  0  0
    6.4303  -12.1304   26.5931 S   0  0  0  0  0  0  0  0  0  0  0  0
    7.7935  -13.2702   26.1791 C   0  0  0  0  0  0  0  0  0  0  0  0
    7.3607  -14.0648   25.0020 C   0  0  0  0  0  0  0  0  0  0  0  0
    8.4394  -15.0294   24.5111 C   0  0  2  0  0  0  0  0  0  0  0  0
    8.0976  -15.7965   23.3574 N   0  0  0  0  0  0  0  0  0  0  0  0
    8.9845  -15.7651   25.6433 C   0  0  0  0  0  0  0  0  0  0  0  0
   10.0283  -15.3226   26.1853 O   0  0  0  0  0  0  0  0  0  0  0  0
    8.4495  -16.9256   26.1852 O   0  0  0  0  0  0  0  0  0  0  0  0
  2  1  1  1
  3  2  1  0
  3  4  1  0
  5  4  1  0
  5  6  2  0
  7  2  1  0
  7  8  2  0
  9  5  1  0
 10  7  1  0
 11 10  1  0
 11 12  1  1
 13 12  1  0
 13 17  1  0
 14 13  2  0
 15 11  1  0
 16 15  2  0
 18 19  1  0
 19 20  1  0
 20 21  1  0
 22 21  1  1
 22 23  1  0
 22 24  1  0
 23 15  1  0
 24 26  1  0
 25 24  2  0
M  END
$$$$
