EDM.pdb
     RDKit          3D

 26 25  0  0  1  0  0  0  0  0999 V2000
    8.9129  -12.6625   19.5548 N   0  0  0  0  0  0  0  0  0  0  0  0
    7.7544  -13.5681   19.6707 C   0  0  1  0  0  0  0  0  0  0  0  0
    7.4384  -13.9968   18.2758 C   0  0  0  0  0  0  0  0  0  0  0  0
    8.6005  -14.0966   17.3490 C   0  0  0  0  0  0  0  0  0  0  0  0
    8.0871  -14.4690   15.9887 C   0  0  0  0  0  0  0  0  0  0  0  0
    6.8825  -14.7194   15.7682 O   0  0  0  0  0  0  0  0  0  0  0  0
    8.1977  -14.7394   20.4776 C   0  0  0  0  0  0  0  0  0  0  0  0
    7.3925  -15.6593   20.7756 O   0  0  0  0  0  0  0  0  0  0  0  0
    8.9663  -14.5447   14.9174 O   0  0  0  0  0  0  0  0  0  0  0  0
    9.5485  -14.8706   20.9466 N   0  0  0  0  0  0  0  0  0  0  0  0
    9.8980  -15.9660   21.7910 C   0  0  1  0  0  0  0  0  0  0  0  0
   11.2945  -16.4497   21.4664 C   0  0  0  0  0  0  0  0  0  0  0  0
   11.5478  -17.6998   22.1868 C   0  0  0  0  0  0  0  0  0  0  0  0
   10.5628  -18.2140   22.7938 O   0  0  0  0  0  0  0  0  0  0  0  0
    9.8391  -15.6115   23.2444 C   0  0  0  0  0  0  0  0  0  0  0  0
   10.7446  -14.8774   23.6856 O   0  0  0  0  0  0  0  0  0  0  0  0
   12.7478  -18.3708   22.2706 O   0  0  0  0  0  0  0  0  0  0  0  0
    6.4455  -11.0361   25.9432 C   0  0  0  0  0  0  0  0  0  0  0  0
    6.1973  -12.7960   26.2439 S   0  0  0  0  0  0  0  0  0  0  0  0
    7.6952  -13.6675   25.6730 C   0  0  0  0  0  0  0  0  0  0  0  0
    7.5176  -15.1057   25.9963 C   0  0  0  0  0  0  0  0  0  0  0  0
    8.6811  -15.9687   25.5100 C   0  0  2  0  0  0  0  0  0  0  0  0
    8.8156  -16.0755   24.0934 N   0  0  0  0  0  0  0  0  0  0  0  0
    8.7082  -17.2154   26.2618 C   0  0  0  0  0  0  0  0  0  0  0  0
    8.7779  -17.1459   27.5146 O   0  0  0  0  0  0  0  0  0  0  0  0
    8.6636  -18.4898   25.7137 O   0  0  0  0  0  0  0  0  0  0  0  0
  2  1  1  6
  3  2  1  0
  3  4  1  0
  5  4  1  0
  5  6  2  0
  7  2  1  0
  7  8  2  0
  9  5  1  0
 10  7  1  0
 11 10  1  0
 11 12  1  6
 13 12  1  0
 13 17  1  0
 14 13  2  0
 15 11  1  0
 16 15  2  0
 18 19  1  0
 19 20  1  0
 20 21  1  0
 22 21  1  6
 22 23  1  0
 22 24  1  0
 23 15  1  0
 24 26  1  0
 25 24  2  0
M  END
$$$$
