EDM.pdb
     RDKit          3D

 26 25  0  0  1  0  0  0  0  0999 V2000
    8.9596  -15.8593   18.5095 N   0  0  0  0  0  0  0  0  0  0  0  0
    7.8683  -16.1651   19.4537 C   0  0  1  0  0  0  0  0  0  0  0  0
    7.1219  -17.3079   18.8485 C   0  0  0  0  0  0  0  0  0  0  0  0
    7.6863  -17.8535   17.5823 C   0  0  0  0  0  0  0  0  0  0  0  0
    6.7429  -18.8958   17.0570 C   0  0  0  0  0  0  0  0  0  0  0  0
    7.0847  -19.7486   16.2095 O   0  0  0  0  0  0  0  0  0  0  0  0
    8.5058  -16.5901   20.7314 C   0  0  0  0  0  0  0  0  0  0  0  0
    7.8143  -16.7797   21.7655 O   0  0  0  0  0  0  0  0  0  0  0  0
    5.4335  -18.9339   17.5158 O   0  0  0  0  0  0  0  0  0  0  0  0
    9.9222  -16.8002   20.8400 N   0  0  0  0  0  0  0  0  0  0  0  0
   10.4721  -17.2739   22.0681 C   0  0  1  0  0  0  0  0  0  0  0  0
   11.9113  -17.6953   21.8668 C   0  0  0  0  0  0  0  0  0  0  0  0
   12.4554  -18.1661   23.1428 C   0  0  0  0  0  0  0  0  0  0  0  0
   11.6651  -18.8111   23.8927 O   0  0  0  0  0  0  0  0  0  0  0  0
   10.4213  -16.2446   23.1542 C   0  0  0  0  0  0  0  0  0  0  0  0
   11.1391  -15.2355   23.0122 O   0  0  0  0  0  0  0  0  0  0  0  0
   13.7379  -17.9777   23.6084 O   0  0  0  0  0  0  0  0  0  0  0  0
    6.7649  -11.1923   27.3723 C   0  0  0  0  0  0  0  0  0  0  0  0
    6.8921  -12.3280   25.9782 S   0  0  0  0  0  0  0  0  0  0  0  0
    8.1884  -13.5477   26.3796 C   0  0  0  0  0  0  0  0  0  0  0  0
    8.3473  -14.4272   25.1942 C   0  0  0  0  0  0  0  0  0  0  0  0
    9.4092  -15.5070   25.3976 C   0  0  2  0  0  0  0  0  0  0  0  0
    9.6063  -16.3894   24.2936 N   0  0  0  0  0  0  0  0  0  0  0  0
    9.2266  -16.1279   26.7020 C   0  0  0  0  0  0  0  0  0  0  0  0
    8.7907  -17.3060   26.7372 O   0  0  0  0  0  0  0  0  0  0  0  0
    9.4935  -15.5294   27.9255 O   0  0  0  0  0  0  0  0  0  0  0  0
  2  1  1  6
  3  2  1  0
  3  4  1  0
  5  4  1  0
  5  6  2  0
  7  2  1  0
  7  8  2  0
  9  5  1  0
 10  7  1  0
 11 10  1  0
 11 12  1  6
 13 12  1  0
 13 17  1  0
 14 13  2  0
 15 11  1  0
 16 15  2  0
 18 19  1  0
 19 20  1  0
 20 21  1  0
 22 21  1  6
 22 23  1  0
 22 24  1  0
 23 15  1  0
 24 26  1  0
 25 24  2  0
M  END
$$$$
