EDM.pdb
     RDKit          3D

 26 25  0  0  1  0  0  0  0  0999 V2000
    6.2981  -19.5565   20.1411 N   0  0  0  0  0  0  0  0  0  0  0  0
    7.6582  -19.0046   20.2872 C   0  0  1  0  0  0  0  0  0  0  0  0
    7.6309  -17.6809   19.5968 C   0  0  0  0  0  0  0  0  0  0  0  0
    8.6215  -17.5015   18.4987 C   0  0  0  0  0  0  0  0  0  0  0  0
    8.4262  -16.1362   17.9069 C   0  0  0  0  0  0  0  0  0  0  0  0
    9.0505  -15.1311   18.3102 O   0  0  0  0  0  0  0  0  0  0  0  0
    7.8961  -18.8158   21.7456 C   0  0  0  0  0  0  0  0  0  0  0  0
    7.0033  -18.3296   22.4872 O   0  0  0  0  0  0  0  0  0  0  0  0
    7.5215  -15.9579   16.8696 O   0  0  0  0  0  0  0  0  0  0  0  0
    9.1407  -19.1759   22.3647 N   0  0  0  0  0  0  0  0  0  0  0  0
    9.3327  -18.9295   23.7566 C   0  0  1  0  0  0  0  0  0  0  0  0
   10.4761  -19.7696   24.2821 C   0  0  0  0  0  0  0  0  0  0  0  0
   10.6263  -19.5289   25.7192 C   0  0  0  0  0  0  0  0  0  0  0  0
    9.5774  -19.6214   26.4223 O   0  0  0  0  0  0  0  0  0  0  0  0
    9.6212  -17.4899   24.0498 C   0  0  0  0  0  0  0  0  0  0  0  0
    9.9407  -16.7683   23.0850 O   0  0  0  0  0  0  0  0  0  0  0  0
   11.7916  -19.2119   26.3816 O   0  0  0  0  0  0  0  0  0  0  0  0
    6.3248  -11.2105   26.4546 C   0  0  0  0  0  0  0  0  0  0  0  0
    6.3860  -12.8858   25.7921 S   0  0  0  0  0  0  0  0  0  0  0  0
    8.0761  -13.5201   26.0571 C   0  0  0  0  0  0  0  0  0  0  0  0
    8.0910  -14.9346   25.6062 C   0  0  0  0  0  0  0  0  0  0  0  0
    9.4584  -15.5949   25.7773 C   0  0  2  0  0  0  0  0  0  0  0  0
    9.5412  -16.9538   25.3498 N   0  0  0  0  0  0  0  0  0  0  0  0
    9.9785  -15.2977   27.1044 C   0  0  0  0  0  0  0  0  0  0  0  0
   10.1405  -16.2558   27.9013 O   0  0  0  0  0  0  0  0  0  0  0  0
   10.3158  -14.0365   27.5756 O   0  0  0  0  0  0  0  0  0  0  0  0
  2  1  1  1
  3  2  1  0
  3  4  1  0
  5  4  1  0
  5  6  2  0
  7  2  1  0
  7  8  2  0
  9  5  1  0
 10  7  1  0
 11 10  1  0
 11 12  1  6
 13 12  1  0
 13 17  1  0
 14 13  2  0
 15 11  1  0
 16 15  2  0
 18 19  1  0
 19 20  1  0
 20 21  1  0
 22 21  1  1
 22 23  1  0
 22 24  1  0
 23 15  1  0
 24 26  1  0
 25 24  2  0
M  END
$$$$
