EKR.pdb
     RDKit          3D

 30 29  0  0  1  0  0  0  0  0999 V2000
    8.2677  -12.9033   18.0427 N   0  0  0  0  0  0  0  0  0  0  0  0
    8.1318  -14.3548   18.0942 C   0  0  1  0  0  0  0  0  0  0  0  0
    9.4668  -14.9469   17.7739 C   0  0  0  0  0  0  0  0  0  0  0  0
    9.7761  -14.9817   16.2956 C   0  0  0  0  0  0  0  0  0  0  0  0
   11.1177  -15.5763   16.0428 C   0  0  0  0  0  0  0  0  0  0  0  0
   11.2174  -16.8113   15.8460 O   0  0  0  0  0  0  0  0  0  0  0  0
    7.5793  -14.7515   19.4110 C   0  0  0  0  0  0  0  0  0  0  0  0
    7.8899  -14.0954   20.4313 O   0  0  0  0  0  0  0  0  0  0  0  0
   12.2874  -14.8276   16.0118 O   0  0  0  0  0  0  0  0  0  0  0  0
    6.6915  -15.8690   19.5541 N   0  0  0  0  0  0  0  0  0  0  0  0
    6.1455  -16.3521   20.7738 C   0  0  1  0  0  0  0  0  0  0  0  0
    4.8696  -17.1196   20.6954 C   0  0  0  0  0  0  0  0  0  0  0  0
    4.4401  -17.8219   21.9251 C   0  0  0  0  0  0  0  0  0  0  0  0
    3.2778  -18.7531   21.7471 C   0  0  0  0  0  0  0  0  0  0  0  0
    2.6748  -19.3058   22.9891 C   0  0  0  0  0  0  0  0  0  0  0  0
    1.4939  -20.1014   22.8218 N   0  0  0  0  0  0  0  0  0  0  0  0
    7.1372  -16.9346   21.7176 C   0  0  0  0  0  0  0  0  0  0  0  0
    7.9559  -17.7648   21.2804 O   0  0  0  0  0  0  0  0  0  0  0  0
   10.8443  -15.3240   30.6070 N   0  0  0  0  0  0  0  0  0  0  0  0
   10.1593  -14.9148   29.4195 C   0  0  0  0  0  0  0  0  0  0  0  0
    9.2797  -13.9751   29.4927 N   0  0  0  0  0  0  0  0  0  0  0  0
   10.4346  -15.5273   28.1675 N   0  0  0  0  0  0  0  0  0  0  0  0
    9.7676  -15.1317   26.9498 C   0  0  0  0  0  0  0  0  0  0  0  0
    9.4522  -16.2557   26.0475 C   0  0  0  0  0  0  0  0  0  0  0  0
    8.5146  -16.0906   24.9364 C   0  0  0  0  0  0  0  0  0  0  0  0
    8.1331  -17.1960   24.0361 C   0  0  2  0  0  0  0  0  0  0  0  0
    7.1561  -16.5684   23.0663 N   0  0  0  0  0  0  0  0  0  0  0  0
    7.4978  -18.3525   24.6456 C   0  0  0  0  0  0  0  0  0  0  0  0
    6.3055  -18.6192   24.8114 O   0  0  0  0  0  0  0  0  0  0  0  0
    8.3850  -19.3699   25.1465 O   0  0  0  0  0  0  0  0  0  0  0  0
  2  1  1  1
  2  7  1  0
  3  2  1  0
  3  4  1  0
  4  5  1  0
  5  6  2  0
  7  8  2  0
  9  5  1  0
 10  7  1  0
 10 11  1  0
 11 17  1  0
 12 13  1  0
 11 12  1  6
 14 13  1  0
 15 14  1  0
 16 15  1  0
 17 18  2  0
 19 20  1  0
 20 21  2  0
 22 23  1  0
 22 20  1  0
 23 24  1  0
 24 25  1  0
 26 25  1  1
 26 28  1  0
 27 26  1  0
 27 17  1  0
 28 29  2  0
 28 30  1  0
M  END
$$$$
