EKR.pdb
     RDKit          3D

 30 29  0  0  1  0  0  0  0  0999 V2000
    8.1566  -13.1227   16.8537 N   0  0  0  0  0  0  0  0  0  0  0  0
    7.7179  -14.5124   16.9185 C   0  0  1  0  0  0  0  0  0  0  0  0
    8.2608  -15.2160   15.7161 C   0  0  0  0  0  0  0  0  0  0  0  0
    9.7702  -15.2432   15.6593 C   0  0  0  0  0  0  0  0  0  0  0  0
   10.2476  -15.9563   14.4424 C   0  0  0  0  0  0  0  0  0  0  0  0
   10.8410  -15.3126   13.5438 O   0  0  0  0  0  0  0  0  0  0  0  0
    8.1290  -15.0988   18.2161 C   0  0  0  0  0  0  0  0  0  0  0  0
    9.1047  -14.6102   18.8304 O   0  0  0  0  0  0  0  0  0  0  0  0
   10.0705  -17.3193   14.2414 O   0  0  0  0  0  0  0  0  0  0  0  0
    7.4380  -16.2139   18.7960 N   0  0  0  0  0  0  0  0  0  0  0  0
    7.8190  -16.9135   19.9727 C   0  0  1  0  0  0  0  0  0  0  0  0
    7.0909  -18.1771   20.2832 C   0  0  0  0  0  0  0  0  0  0  0  0
    7.5320  -18.9200   21.4846 C   0  0  0  0  0  0  0  0  0  0  0  0
    6.8577  -20.2438   21.6913 C   0  0  0  0  0  0  0  0  0  0  0  0
    7.2715  -21.0185   22.8914 C   0  0  0  0  0  0  0  0  0  0  0  0
    6.6610  -22.3050   23.0580 N   0  0  0  0  0  0  0  0  0  0  0  0
    9.2861  -16.9953   20.2063 C   0  0  0  0  0  0  0  0  0  0  0  0
    9.9878  -17.5933   19.3692 O   0  0  0  0  0  0  0  0  0  0  0  0
   16.7604  -14.7286   19.9727 N   0  0  0  0  0  0  0  0  0  0  0  0
   15.9534  -14.6350   18.7951 C   0  0  0  0  0  0  0  0  0  0  0  0
   16.4896  -14.8631   17.6450 N   0  0  0  0  0  0  0  0  0  0  0  0
   14.5761  -14.2962   18.8764 N   0  0  0  0  0  0  0  0  0  0  0  0
   13.9325  -13.9693   20.1267 C   0  0  0  0  0  0  0  0  0  0  0  0
   13.3890  -15.1385   20.8441 C   0  0  0  0  0  0  0  0  0  0  0  0
   11.9472  -15.3778   20.9127 C   0  0  0  0  0  0  0  0  0  0  0  0
   11.3582  -16.5443   21.5986 C   0  0  2  0  0  0  0  0  0  0  0  0
    9.8731  -16.4213   21.3373 N   0  0  0  0  0  0  0  0  0  0  0  0
   11.5667  -16.6390   23.0339 C   0  0  0  0  0  0  0  0  0  0  0  0
   10.7950  -16.4308   23.9727 O   0  0  0  0  0  0  0  0  0  0  0  0
   12.8834  -17.0406   23.4559 O   0  0  0  0  0  0  0  0  0  0  0  0
  2  1  1  1
  2  7  1  0
  3  2  1  0
  3  4  1  0
  4  5  1  0
  5  6  2  0
  7  8  2  0
  9  5  1  0
 10  7  1  0
 10 11  1  0
 11 17  1  0
 12 13  1  0
 11 12  1  6
 14 13  1  0
 15 14  1  0
 16 15  1  0
 17 18  2  0
 19 20  1  0
 20 21  2  0
 22 23  1  0
 22 20  1  0
 23 24  1  0
 24 25  1  0
 26 25  1  1
 26 28  1  0
 27 26  1  0
 27 17  1  0
 28 29  2  0
 28 30  1  0
M  END
$$$$
