EKR.pdb
     RDKit          3D

 30 29  0  0  1  0  0  0  0  0999 V2000
    8.9212  -18.9083   17.1224 N   0  0  0  0  0  0  0  0  0  0  0  0
   10.3518  -18.6335   17.1987 C   0  0  1  0  0  0  0  0  0  0  0  0
   10.8123  -18.2431   15.8308 C   0  0  0  0  0  0  0  0  0  0  0  0
    9.6989  -18.1774   14.8118 C   0  0  0  0  0  0  0  0  0  0  0  0
   10.0591  -18.9260   13.5759 C   0  0  0  0  0  0  0  0  0  0  0  0
    9.9268  -20.1732   13.5501 O   0  0  0  0  0  0  0  0  0  0  0  0
   10.6032  -17.6183   18.2488 C   0  0  0  0  0  0  0  0  0  0  0  0
   11.7788  -17.2603   18.4894 O   0  0  0  0  0  0  0  0  0  0  0  0
   10.5421  -18.3106   12.4280 O   0  0  0  0  0  0  0  0  0  0  0  0
    9.5350  -17.0265   19.0011 N   0  0  0  0  0  0  0  0  0  0  0  0
    9.6791  -16.1401   20.1024 C   0  0  1  0  0  0  0  0  0  0  0  0
    8.5079  -15.2853   20.4501 C   0  0  0  0  0  0  0  0  0  0  0  0
    8.0660  -14.3147   19.4242 C   0  0  0  0  0  0  0  0  0  0  0  0
    6.8377  -13.5321   19.7829 C   0  0  0  0  0  0  0  0  0  0  0  0
    6.4261  -12.4694   18.8275 C   0  0  0  0  0  0  0  0  0  0  0  0
    5.2215  -11.7606   19.1470 N   0  0  0  0  0  0  0  0  0  0  0  0
   10.3706  -16.7180   21.2862 C   0  0  0  0  0  0  0  0  0  0  0  0
   10.0462  -17.8592   21.6644 O   0  0  0  0  0  0  0  0  0  0  0  0
   16.3102  -13.6221   21.3316 N   0  0  0  0  0  0  0  0  0  0  0  0
   16.7229  -14.9919   21.3228 C   0  0  0  0  0  0  0  0  0  0  0  0
   17.3760  -15.4459   20.3081 N   0  0  0  0  0  0  0  0  0  0  0  0
   16.4241  -15.8536   22.4121 N   0  0  0  0  0  0  0  0  0  0  0  0
   15.9625  -17.2084   22.2225 C   0  0  0  0  0  0  0  0  0  0  0  0
   14.6008  -17.4542   22.7345 C   0  0  0  0  0  0  0  0  0  0  0  0
   13.5739  -16.4135   22.6763 C   0  0  0  0  0  0  0  0  0  0  0  0
   12.1712  -16.6459   23.0717 C   0  0  2  0  0  0  0  0  0  0  0  0
   11.3601  -16.0040   21.9677 N   0  0  0  0  0  0  0  0  0  0  0  0
   11.7435  -16.0852   24.3427 C   0  0  0  0  0  0  0  0  0  0  0  0
   11.0009  -15.1327   24.5907 O   0  0  0  0  0  0  0  0  0  0  0  0
   12.2577  -16.7303   25.5228 O   0  0  0  0  0  0  0  0  0  0  0  0
  2  1  1  6
  2  7  1  0
  3  2  1  0
  3  4  1  0
  4  5  1  0
  5  6  2  0
  7  8  2  0
  9  5  1  0
 10  7  1  0
 10 11  1  0
 11 17  1  0
 12 13  1  0
 11 12  1  1
 14 13  1  0
 15 14  1  0
 16 15  1  0
 17 18  2  0
 19 20  1  0
 20 21  2  0
 22 23  1  0
 22 20  1  0
 23 24  1  0
 24 25  1  0
 26 25  1  6
 26 28  1  0
 27 26  1  0
 27 17  1  0
 28 29  2  0
 28 30  1  0
M  END
$$$$
