EKR.pdb
     RDKit          3D

 30 29  0  0  1  0  0  0  0  0999 V2000
   11.8261  -16.0071   18.4888 N   0  0  0  0  0  0  0  0  0  0  0  0
   12.4732  -15.8696   19.7889 C   0  0  1  0  0  0  0  0  0  0  0  0
   13.5663  -14.8595   19.6469 C   0  0  0  0  0  0  0  0  0  0  0  0
   14.5707  -15.1998   18.5709 C   0  0  0  0  0  0  0  0  0  0  0  0
   15.6825  -14.2096   18.5433 C   0  0  0  0  0  0  0  0  0  0  0  0
   15.6238  -13.2388   17.7510 O   0  0  0  0  0  0  0  0  0  0  0  0
   11.4548  -15.5386   20.8136 C   0  0  0  0  0  0  0  0  0  0  0  0
   11.8001  -15.4345   22.0128 O   0  0  0  0  0  0  0  0  0  0  0  0
   16.8022  -14.3010   19.3605 O   0  0  0  0  0  0  0  0  0  0  0  0
   10.0775  -15.3292   20.4723 N   0  0  0  0  0  0  0  0  0  0  0  0
    9.0524  -14.9011   21.3585 C   0  0  1  0  0  0  0  0  0  0  0  0
    7.8857  -14.1898   20.7619 C   0  0  0  0  0  0  0  0  0  0  0  0
    8.1455  -13.3953   19.5408 C   0  0  0  0  0  0  0  0  0  0  0  0
    7.2582  -13.7199   18.3757 C   0  0  0  0  0  0  0  0  0  0  0  0
    7.5012  -12.9548   17.1238 C   0  0  0  0  0  0  0  0  0  0  0  0
    6.7121  -13.3302   15.9872 N   0  0  0  0  0  0  0  0  0  0  0  0
    8.6793  -15.8868   22.4086 C   0  0  0  0  0  0  0  0  0  0  0  0
    8.4270  -17.0560   22.0622 O   0  0  0  0  0  0  0  0  0  0  0  0
   10.1721  -13.7043   30.3248 N   0  0  0  0  0  0  0  0  0  0  0  0
   10.1259  -15.1003   30.0158 C   0  0  0  0  0  0  0  0  0  0  0  0
   10.3410  -15.9596   30.9525 N   0  0  0  0  0  0  0  0  0  0  0  0
    9.8473  -15.5495   28.6970 N   0  0  0  0  0  0  0  0  0  0  0  0
   10.3946  -14.9029   27.5280 C   0  0  0  0  0  0  0  0  0  0  0  0
    9.9428  -15.4903   26.2521 C   0  0  0  0  0  0  0  0  0  0  0  0
    8.5620  -15.9416   26.0767 C   0  0  0  0  0  0  0  0  0  0  0  0
    8.0429  -16.4605   24.7963 C   0  0  2  0  0  0  0  0  0  0  0  0
    8.6068  -15.5190   23.7550 N   0  0  0  0  0  0  0  0  0  0  0  0
    6.5985  -16.5064   24.6413 C   0  0  0  0  0  0  0  0  0  0  0  0
    5.8317  -15.7539   24.0365 O   0  0  0  0  0  0  0  0  0  0  0  0
    5.9278  -17.6020   25.2916 O   0  0  0  0  0  0  0  0  0  0  0  0
  2  1  1  6
  2  7  1  0
  3  2  1  0
  3  4  1  0
  4  5  1  0
  5  6  2  0
  7  8  2  0
  9  5  1  0
 10  7  1  0
 10 11  1  0
 11 17  1  0
 12 13  1  0
 11 12  1  6
 14 13  1  0
 15 14  1  0
 16 15  1  0
 17 18  2  0
 19 20  1  0
 20 21  2  0
 22 23  1  0
 22 20  1  0
 23 24  1  0
 24 25  1  0
 26 25  1  1
 26 28  1  0
 27 26  1  0
 27 17  1  0
 28 29  2  0
 28 30  1  0
M  END
$$$$
