EKR.pdb
     RDKit          3D

 30 29  0  0  1  0  0  0  0  0999 V2000
   11.1776  -18.8889   21.1329 N   0  0  0  0  0  0  0  0  0  0  0  0
   11.9900  -18.1167   22.0665 C   0  0  1  0  0  0  0  0  0  0  0  0
   13.3876  -18.0885   21.5358 C   0  0  0  0  0  0  0  0  0  0  0  0
   13.4827  -18.4012   20.0609 C   0  0  0  0  0  0  0  0  0  0  0  0
   14.8849  -18.2752   19.5759 C   0  0  0  0  0  0  0  0  0  0  0  0
   15.6300  -19.2845   19.5750 O   0  0  0  0  0  0  0  0  0  0  0  0
   11.3772  -16.7820   22.2656 C   0  0  0  0  0  0  0  0  0  0  0  0
   12.0229  -15.7558   21.9522 O   0  0  0  0  0  0  0  0  0  0  0  0
   15.4256  -17.0813   19.1155 O   0  0  0  0  0  0  0  0  0  0  0  0
   10.0579  -16.6276   22.8066 N   0  0  0  0  0  0  0  0  0  0  0  0
    9.1620  -15.5590   22.5332 C   0  0  1  0  0  0  0  0  0  0  0  0
    8.9711  -15.1749   21.1051 C   0  0  0  0  0  0  0  0  0  0  0  0
    7.9300  -14.1618   20.8231 C   0  0  0  0  0  0  0  0  0  0  0  0
    7.7483  -13.8304   19.3715 C   0  0  0  0  0  0  0  0  0  0  0  0
    6.6118  -12.9327   19.0336 C   0  0  0  0  0  0  0  0  0  0  0  0
    6.4012  -12.6726   17.6395 N   0  0  0  0  0  0  0  0  0  0  0  0
    7.8998  -15.5818   23.3205 C   0  0  0  0  0  0  0  0  0  0  0  0
    6.8719  -16.0322   22.7809 O   0  0  0  0  0  0  0  0  0  0  0  0
    6.5566  -22.8023   26.6617 N   0  0  0  0  0  0  0  0  0  0  0  0
    6.3559  -21.4986   27.2155 C   0  0  0  0  0  0  0  0  0  0  0  0
    6.6223  -21.2961   28.4607 N   0  0  0  0  0  0  0  0  0  0  0  0
    5.8698  -20.4300   26.4155 N   0  0  0  0  0  0  0  0  0  0  0  0
    6.6744  -19.7986   25.3966 C   0  0  0  0  0  0  0  0  0  0  0  0
    7.4202  -18.6166   25.8695 C   0  0  0  0  0  0  0  0  0  0  0  0
    7.2591  -17.3145   25.2217 C   0  0  0  0  0  0  0  0  0  0  0  0
    7.7628  -16.0575   25.8085 C   0  0  2  0  0  0  0  0  0  0  0  0
    7.8565  -15.1078   24.6346 N   0  0  0  0  0  0  0  0  0  0  0  0
    9.0594  -16.1093   26.4633 C   0  0  0  0  0  0  0  0  0  0  0  0
    9.3528  -16.2048   27.6570 O   0  0  0  0  0  0  0  0  0  0  0  0
   10.2076  -16.0395   25.5973 O   0  0  0  0  0  0  0  0  0  0  0  0
  2  1  1  6
  2  7  1  0
  3  2  1  0
  3  4  1  0
  4  5  1  0
  5  6  2  0
  7  8  2  0
  9  5  1  0
 10  7  1  0
 10 11  1  0
 11 17  1  0
 12 13  1  0
 11 12  1  6
 14 13  1  0
 15 14  1  0
 16 15  1  0
 17 18  2  0
 19 20  1  0
 20 21  2  0
 22 23  1  0
 22 20  1  0
 23 24  1  0
 24 25  1  0
 26 25  1  6
 26 28  1  0
 27 26  1  0
 27 17  1  0
 28 29  2  0
 28 30  1  0
M  END
$$$$
