EKR.pdb
     RDKit          3D

 30 29  0  0  1  0  0  0  0  0999 V2000
   10.7033  -17.6578   17.5339 N   0  0  0  0  0  0  0  0  0  0  0  0
    9.8758  -16.5848   18.0743 C   0  0  1  0  0  0  0  0  0  0  0  0
    8.9896  -16.0971   16.9733 C   0  0  0  0  0  0  0  0  0  0  0  0
    9.6721  -16.0370   15.6268 C   0  0  0  0  0  0  0  0  0  0  0  0
    8.7314  -15.5736   14.5696 C   0  0  0  0  0  0  0  0  0  0  0  0
    8.7861  -14.3844   14.1738 O   0  0  0  0  0  0  0  0  0  0  0  0
    9.1578  -17.0735   19.2753 C   0  0  0  0  0  0  0  0  0  0  0  0
    8.4765  -16.2711   19.9535 O   0  0  0  0  0  0  0  0  0  0  0  0
    7.7787  -16.3985   13.9852 O   0  0  0  0  0  0  0  0  0  0  0  0
    9.2166  -18.4464   19.6862 N   0  0  0  0  0  0  0  0  0  0  0  0
    8.6408  -18.9915   20.8655 C   0  0  1  0  0  0  0  0  0  0  0  0
    8.3154  -20.4466   20.8581 C   0  0  0  0  0  0  0  0  0  0  0  0
    7.5082  -20.9411   19.7208 C   0  0  0  0  0  0  0  0  0  0  0  0
    7.3375  -22.4303   19.6679 C   0  0  0  0  0  0  0  0  0  0  0  0
    6.5503  -22.9674   18.5262 C   0  0  0  0  0  0  0  0  0  0  0  0
    6.3927  -24.3916   18.4780 N   0  0  0  0  0  0  0  0  0  0  0  0
    9.2532  -18.5216   22.1374 C   0  0  0  0  0  0  0  0  0  0  0  0
   10.4951  -18.4716   22.2150 O   0  0  0  0  0  0  0  0  0  0  0  0
   10.6492  -13.0432   27.1966 N   0  0  0  0  0  0  0  0  0  0  0  0
    9.7725  -13.6079   28.1760 C   0  0  0  0  0  0  0  0  0  0  0  0
   10.1813  -13.7255   29.3931 N   0  0  0  0  0  0  0  0  0  0  0  0
    8.4644  -14.0381   27.8266 N   0  0  0  0  0  0  0  0  0  0  0  0
    8.1387  -14.5321   26.5098 C   0  0  0  0  0  0  0  0  0  0  0  0
    8.8205  -15.7922   26.1573 C   0  0  0  0  0  0  0  0  0  0  0  0
    8.5196  -16.4879   24.9057 C   0  0  0  0  0  0  0  0  0  0  0  0
    9.0814  -17.8097   24.5661 C   0  0  2  0  0  0  0  0  0  0  0  0
    8.4628  -18.1462   23.2272 N   0  0  0  0  0  0  0  0  0  0  0  0
    8.8053  -18.8992   25.4876 C   0  0  0  0  0  0  0  0  0  0  0  0
    7.8936  -19.7292   25.4993 O   0  0  0  0  0  0  0  0  0  0  0  0
    9.7349  -19.0574   26.5757 O   0  0  0  0  0  0  0  0  0  0  0  0
  2  1  1  6
  2  7  1  0
  3  2  1  0
  3  4  1  0
  4  5  1  0
  5  6  2  0
  7  8  2  0
  9  5  1  0
 10  7  1  0
 10 11  1  0
 11 17  1  0
 12 13  1  0
 11 12  1  6
 14 13  1  0
 15 14  1  0
 16 15  1  0
 17 18  2  0
 19 20  1  0
 20 21  2  0
 22 23  1  0
 22 20  1  0
 23 24  1  0
 24 25  1  0
 26 25  1  1
 26 28  1  0
 27 26  1  0
 27 17  1  0
 28 29  2  0
 28 30  1  0
M  END
$$$$
