EKR.pdb
     RDKit          3D

 30 29  0  0  1  0  0  0  0  0999 V2000
   11.9658  -17.4605   15.2613 N   0  0  0  0  0  0  0  0  0  0  0  0
   11.2177  -17.9044   16.4323 C   0  0  1  0  0  0  0  0  0  0  0  0
   11.6314  -19.3103   16.7286 C   0  0  0  0  0  0  0  0  0  0  0  0
   11.0873  -20.3222   15.7476 C   0  0  0  0  0  0  0  0  0  0  0  0
   11.4832  -21.7057   16.1302 C   0  0  0  0  0  0  0  0  0  0  0  0
   12.6907  -22.0405   16.0693 O   0  0  0  0  0  0  0  0  0  0  0  0
   11.4322  -16.9493   17.5452 C   0  0  0  0  0  0  0  0  0  0  0  0
   12.5729  -16.4674   17.7310 O   0  0  0  0  0  0  0  0  0  0  0  0
   10.5748  -22.6652   16.5591 O   0  0  0  0  0  0  0  0  0  0  0  0
   10.3664  -16.5543   18.4200 N   0  0  0  0  0  0  0  0  0  0  0  0
   10.4912  -15.7296   19.5705 C   0  0  1  0  0  0  0  0  0  0  0  0
    9.3002  -14.9253   19.9679 C   0  0  0  0  0  0  0  0  0  0  0  0
    8.6853  -14.0849   18.9167 C   0  0  0  0  0  0  0  0  0  0  0  0
    7.4085  -13.4069   19.3168 C   0  0  0  0  0  0  0  0  0  0  0  0
    6.7859  -12.5143   18.3033 C   0  0  0  0  0  0  0  0  0  0  0  0
    5.5127  -11.9528   18.6486 N   0  0  0  0  0  0  0  0  0  0  0  0
   11.1995  -16.3575   20.7183 C   0  0  0  0  0  0  0  0  0  0  0  0
   10.8499  -17.4967   21.0799 O   0  0  0  0  0  0  0  0  0  0  0  0
   16.4822  -12.5890   18.9514 N   0  0  0  0  0  0  0  0  0  0  0  0
   16.7445  -13.8663   19.5399 C   0  0  0  0  0  0  0  0  0  0  0  0
   17.1582  -14.8310   18.7912 N   0  0  0  0  0  0  0  0  0  0  0  0
   16.5563  -14.0842   20.9311 N   0  0  0  0  0  0  0  0  0  0  0  0
   16.7046  -15.3861   21.5370 C   0  0  0  0  0  0  0  0  0  0  0  0
   15.4481  -16.1552   21.6187 C   0  0  0  0  0  0  0  0  0  0  0  0
   14.3366  -15.6975   22.4531 C   0  0  0  0  0  0  0  0  0  0  0  0
   13.0233  -16.3702   22.4815 C   0  0  2  0  0  0  0  0  0  0  0  0
   12.2319  -15.6919   21.3849 N   0  0  0  0  0  0  0  0  0  0  0  0
   12.2648  -16.2822   23.7182 C   0  0  0  0  0  0  0  0  0  0  0  0
   11.2592  -15.6262   23.9983 O   0  0  0  0  0  0  0  0  0  0  0  0
   12.7462  -17.0842   24.8129 O   0  0  0  0  0  0  0  0  0  0  0  0
  2  1  1  6
  2  7  1  0
  3  2  1  0
  3  4  1  0
  4  5  1  0
  5  6  2  0
  7  8  2  0
  9  5  1  0
 10  7  1  0
 10 11  1  0
 11 17  1  0
 12 13  1  0
 11 12  1  1
 14 13  1  0
 15 14  1  0
 16 15  1  0
 17 18  2  0
 19 20  1  0
 20 21  2  0
 22 23  1  0
 22 20  1  0
 23 24  1  0
 24 25  1  0
 26 25  1  1
 26 28  1  0
 27 26  1  0
 27 17  1  0
 28 29  2  0
 28 30  1  0
M  END
$$$$
