EKR.pdb
     RDKit          3D

 30 29  0  0  1  0  0  0  0  0999 V2000
    8.6230  -18.2846   19.0131 N   0  0  0  0  0  0  0  0  0  0  0  0
    8.2225  -19.6842   19.1052 C   0  0  1  0  0  0  0  0  0  0  0  0
    9.4015  -20.5196   18.7208 C   0  0  0  0  0  0  0  0  0  0  0  0
   10.7259  -19.9340   19.1513 C   0  0  0  0  0  0  0  0  0  0  0  0
   11.8542  -20.8335   18.7834 C   0  0  0  0  0  0  0  0  0  0  0  0
   12.3490  -21.5893   19.6538 O   0  0  0  0  0  0  0  0  0  0  0  0
    7.6881  -19.9556   20.4607 C   0  0  0  0  0  0  0  0  0  0  0  0
    8.0590  -19.2441   21.4220 O   0  0  0  0  0  0  0  0  0  0  0  0
   12.4004  -20.8848   17.5072 O   0  0  0  0  0  0  0  0  0  0  0  0
    6.7505  -21.0127   20.7073 N   0  0  0  0  0  0  0  0  0  0  0  0
    6.2338  -21.3930   21.9752 C   0  0  1  0  0  0  0  0  0  0  0  0
    4.8911  -22.0410   22.0002 C   0  0  0  0  0  0  0  0  0  0  0  0
    4.4001  -22.5013   23.3181 C   0  0  0  0  0  0  0  0  0  0  0  0
    3.0915  -23.2336   23.2837 C   0  0  0  0  0  0  0  0  0  0  0  0
    2.5193  -23.6310   24.5975 C   0  0  0  0  0  0  0  0  0  0  0  0
    1.3916  -24.5154   24.5573 N   0  0  0  0  0  0  0  0  0  0  0  0
    7.2211  -22.0264   22.8904 C   0  0  0  0  0  0  0  0  0  0  0  0
    7.7955  -23.0658   22.5159 O   0  0  0  0  0  0  0  0  0  0  0  0
   12.9389  -18.8881   29.5291 N   0  0  0  0  0  0  0  0  0  0  0  0
   11.9022  -18.5288   28.6110 C   0  0  0  0  0  0  0  0  0  0  0  0
   11.3911  -17.3466   28.6702 N   0  0  0  0  0  0  0  0  0  0  0  0
   11.4313  -19.4529   27.6401 N   0  0  0  0  0  0  0  0  0  0  0  0
   10.3889  -19.1210   26.6981 C   0  0  0  0  0  0  0  0  0  0  0  0
   10.0451  -20.2186   25.7739 C   0  0  0  0  0  0  0  0  0  0  0  0
    8.8817  -21.0722   26.0166 C   0  0  0  0  0  0  0  0  0  0  0  0
    8.4692  -22.1490   25.0955 C   0  0  2  0  0  0  0  0  0  0  0  0
    7.5022  -21.4782   24.1449 N   0  0  0  0  0  0  0  0  0  0  0  0
    7.8101  -23.3029   25.6843 C   0  0  0  0  0  0  0  0  0  0  0  0
    6.6150  -23.5275   25.8880 O   0  0  0  0  0  0  0  0  0  0  0  0
    8.6725  -24.3752   26.1080 O   0  0  0  0  0  0  0  0  0  0  0  0
  2  1  1  1
  2  7  1  0
  3  2  1  0
  3  4  1  0
  4  5  1  0
  5  6  2  0
  7  8  2  0
  9  5  1  0
 10  7  1  0
 10 11  1  0
 11 17  1  0
 12 13  1  0
 11 12  1  6
 14 13  1  0
 15 14  1  0
 16 15  1  0
 17 18  2  0
 19 20  1  0
 20 21  2  0
 22 23  1  0
 22 20  1  0
 23 24  1  0
 24 25  1  0
 26 25  1  1
 26 28  1  0
 27 26  1  0
 27 17  1  0
 28 29  2  0
 28 30  1  0
M  END
$$$$
