EKR.pdb
     RDKit          3D

 30 29  0  0  1  0  0  0  0  0999 V2000
   12.1467  -18.9744   18.6233 N   0  0  0  0  0  0  0  0  0  0  0  0
   12.6324  -18.7278   19.9766 C   0  0  1  0  0  0  0  0  0  0  0  0
   14.0133  -18.1649   19.8672 C   0  0  0  0  0  0  0  0  0  0  0  0
   14.4984  -18.0201   18.4438 C   0  0  0  0  0  0  0  0  0  0  0  0
   15.8988  -17.5156   18.4038 C   0  0  0  0  0  0  0  0  0  0  0  0
   16.7466  -18.1060   17.6923 O   0  0  0  0  0  0  0  0  0  0  0  0
   11.6676  -17.8632   20.6965 C   0  0  0  0  0  0  0  0  0  0  0  0
   11.9334  -17.4798   21.8585 O   0  0  0  0  0  0  0  0  0  0  0  0
   16.3283  -16.4073   19.1229 O   0  0  0  0  0  0  0  0  0  0  0  0
   10.4321  -17.4463   20.0989 N   0  0  0  0  0  0  0  0  0  0  0  0
    9.4202  -16.6702   20.7258 C   0  0  1  0  0  0  0  0  0  0  0  0
    8.3393  -16.1245   19.8556 C   0  0  0  0  0  0  0  0  0  0  0  0
    7.1513  -15.5692   20.5412 C   0  0  0  0  0  0  0  0  0  0  0  0
    5.8614  -16.2722   20.2384 C   0  0  0  0  0  0  0  0  0  0  0  0
    4.6397  -15.7239   20.8851 C   0  0  0  0  0  0  0  0  0  0  0  0
    3.4349  -16.4814   20.7110 N   0  0  0  0  0  0  0  0  0  0  0  0
    8.9294  -17.2094   22.0226 C   0  0  0  0  0  0  0  0  0  0  0  0
    8.3910  -18.3323   22.0327 O   0  0  0  0  0  0  0  0  0  0  0  0
   11.7663  -18.6871   30.3185 N   0  0  0  0  0  0  0  0  0  0  0  0
   11.6665  -17.3503   29.8188 C   0  0  0  0  0  0  0  0  0  0  0  0
   12.6745  -16.5558   29.9415 N   0  0  0  0  0  0  0  0  0  0  0  0
   10.4776  -16.8895   29.1924 N   0  0  0  0  0  0  0  0  0  0  0  0
   10.4804  -16.2714   27.8877 C   0  0  0  0  0  0  0  0  0  0  0  0
    9.5793  -16.9198   26.9159 C   0  0  0  0  0  0  0  0  0  0  0  0
    9.5413  -16.4883   25.5183 C   0  0  0  0  0  0  0  0  0  0  0  0
    8.5942  -17.0429   24.5317 C   0  0  2  0  0  0  0  0  0  0  0  0
    9.0611  -16.4798   23.2074 N   0  0  0  0  0  0  0  0  0  0  0  0
    7.1906  -16.7075   24.7052 C   0  0  0  0  0  0  0  0  0  0  0  0
    6.5137  -15.8045   24.2088 O   0  0  0  0  0  0  0  0  0  0  0  0
    6.4447  -17.5542   25.5995 O   0  0  0  0  0  0  0  0  0  0  0  0
  2  1  1  6
  2  7  1  0
  3  2  1  0
  3  4  1  0
  4  5  1  0
  5  6  2  0
  7  8  2  0
  9  5  1  0
 10  7  1  0
 10 11  1  0
 11 17  1  0
 12 13  1  0
 11 12  1  6
 14 13  1  0
 15 14  1  0
 16 15  1  0
 17 18  2  0
 19 20  1  0
 20 21  2  0
 22 23  1  0
 22 20  1  0
 23 24  1  0
 24 25  1  0
 26 25  1  1
 26 28  1  0
 27 26  1  0
 27 17  1  0
 28 29  2  0
 28 30  1  0
M  END
$$$$
