EKR.pdb
     RDKit          3D

 30 29  0  0  1  0  0  0  0  0999 V2000
   16.6214  -27.0619   26.0495 N   0  0  0  0  0  0  0  0  0  0  0  0
   16.5329  -26.8119   27.4840 C   0  0  1  0  0  0  0  0  0  0  0  0
   17.2647  -25.5395   27.7685 C   0  0  0  0  0  0  0  0  0  0  0  0
   18.4139  -25.2763   26.8239 C   0  0  0  0  0  0  0  0  0  0  0  0
   19.0435  -23.9557   27.1009 C   0  0  0  0  0  0  0  0  0  0  0  0
   20.1841  -23.9136   27.6216 O   0  0  0  0  0  0  0  0  0  0  0  0
   15.1096  -26.8122   27.8973 C   0  0  0  0  0  0  0  0  0  0  0  0
   14.2812  -26.1310   27.2510 O   0  0  0  0  0  0  0  0  0  0  0  0
   18.4285  -22.7444   26.8102 O   0  0  0  0  0  0  0  0  0  0  0  0
   14.6474  -27.5760   29.0199 N   0  0  0  0  0  0  0  0  0  0  0  0
   13.2928  -27.7469   29.4141 C   0  0  1  0  0  0  0  0  0  0  0  0
   12.8165  -29.1420   29.6376 C   0  0  0  0  0  0  0  0  0  0  0  0
   12.8840  -30.0607   28.4795 C   0  0  0  0  0  0  0  0  0  0  0  0
   12.4245  -31.4613   28.7570 C   0  0  0  0  0  0  0  0  0  0  0  0
   12.4002  -32.3930   27.5981 C   0  0  0  0  0  0  0  0  0  0  0  0
   12.0035  -33.7423   27.8767 N   0  0  0  0  0  0  0  0  0  0  0  0
   12.8099  -26.7788   30.4353 C   0  0  0  0  0  0  0  0  0  0  0  0
   13.5849  -26.4471   31.3519 O   0  0  0  0  0  0  0  0  0  0  0  0
    8.1700  -28.5667   36.4893 N   0  0  0  0  0  0  0  0  0  0  0  0
    7.5126  -27.4230   35.9355 C   0  0  0  0  0  0  0  0  0  0  0  0
    6.2648  -27.2277   36.1944 N   0  0  0  0  0  0  0  0  0  0  0  0
    8.2135  -26.5046   35.1085 N   0  0  0  0  0  0  0  0  0  0  0  0
    9.6259  -26.6302   34.8374 C   0  0  0  0  0  0  0  0  0  0  0  0
   10.1250  -25.6916   33.8142 C   0  0  0  0  0  0  0  0  0  0  0  0
   10.3780  -26.1354   32.4431 C   0  0  0  0  0  0  0  0  0  0  0  0
   11.0203  -25.2790   31.4271 C   0  0  2  0  0  0  0  0  0  0  0  0
   11.5172  -26.2504   30.3791 N   0  0  0  0  0  0  0  0  0  0  0  0
   12.1401  -24.4629   31.8660 C   0  0  0  0  0  0  0  0  0  0  0  0
   13.3090  -24.7689   32.1112 O   0  0  0  0  0  0  0  0  0  0  0  0
   11.8658  -23.0619   32.0528 O   0  0  0  0  0  0  0  0  0  0  0  0
  2  1  1  6
  2  7  1  0
  3  2  1  0
  3  4  1  0
  4  5  1  0
  5  6  2  0
  7  8  2  0
  9  5  1  0
 10  7  1  0
 10 11  1  0
 11 17  1  0
 12 13  1  0
 11 12  1  1
 14 13  1  0
 15 14  1  0
 16 15  1  0
 17 18  2  0
 19 20  1  0
 20 21  2  0
 22 23  1  0
 22 20  1  0
 23 24  1  0
 24 25  1  0
 26 25  1  1
 26 28  1  0
 27 26  1  0
 27 17  1  0
 28 29  2  0
 28 30  1  0
M  END
$$$$
