EKR.pdb
     RDKit          3D

 30 29  0  0  1  0  0  0  0  0999 V2000
   14.2112  -17.2584   16.6405 N   0  0  0  0  0  0  0  0  0  0  0  0
   12.9696  -16.5548   16.9426 C   0  0  1  0  0  0  0  0  0  0  0  0
   12.1040  -16.6194   15.7252 C   0  0  0  0  0  0  0  0  0  0  0  0
   11.8315  -18.0269   15.2486 C   0  0  0  0  0  0  0  0  0  0  0  0
   11.0356  -18.0216   13.9901 C   0  0  0  0  0  0  0  0  0  0  0  0
   10.7673  -16.9291   13.4349 O   0  0  0  0  0  0  0  0  0  0  0  0
   12.3613  -17.1314   18.1650 C   0  0  0  0  0  0  0  0  0  0  0  0
   11.2780  -16.6689   18.5899 O   0  0  0  0  0  0  0  0  0  0  0  0
   10.5644  -19.1793   13.3838 O   0  0  0  0  0  0  0  0  0  0  0  0
   12.9769  -18.2119   18.8797 N   0  0  0  0  0  0  0  0  0  0  0  0
   12.4628  -18.8448   20.0435 C   0  0  1  0  0  0  0  0  0  0  0  0
   13.0251  -20.1784   20.4017 C   0  0  0  0  0  0  0  0  0  0  0  0
   12.3389  -20.9201   21.4828 C   0  0  0  0  0  0  0  0  0  0  0  0
   12.9738  -22.2277   21.8530 C   0  0  0  0  0  0  0  0  0  0  0  0
   12.2408  -23.0648   22.8397 C   0  0  0  0  0  0  0  0  0  0  0  0
   12.8855  -24.2798   23.2444 N   0  0  0  0  0  0  0  0  0  0  0  0
   12.2662  -17.9448   21.2118 C   0  0  0  0  0  0  0  0  0  0  0  0
   13.2428  -17.2969   21.6326 O   0  0  0  0  0  0  0  0  0  0  0  0
    7.7209  -14.1030   18.1672 N   0  0  0  0  0  0  0  0  0  0  0  0
    8.2730  -13.1187   19.0464 C   0  0  0  0  0  0  0  0  0  0  0  0
    8.2884  -11.8834   18.6776 N   0  0  0  0  0  0  0  0  0  0  0  0
    8.8015  -13.4830   20.3139 N   0  0  0  0  0  0  0  0  0  0  0  0
    8.7888  -14.8441   20.7949 C   0  0  0  0  0  0  0  0  0  0  0  0
    9.2542  -14.9916   22.1873 C   0  0  0  0  0  0  0  0  0  0  0  0
    9.4694  -16.3144   22.7743 C   0  0  0  0  0  0  0  0  0  0  0  0
   10.8119  -16.8846   22.9996 C   0  0  2  0  0  0  0  0  0  0  0  0
   11.0197  -17.8245   21.8324 N   0  0  0  0  0  0  0  0  0  0  0  0
   11.0130  -17.6292   24.2315 C   0  0  0  0  0  0  0  0  0  0  0  0
   10.9147  -18.8358   24.4655 O   0  0  0  0  0  0  0  0  0  0  0  0
   11.3901  -16.8533   25.3843 O   0  0  0  0  0  0  0  0  0  0  0  0
  2  1  1  6
  2  7  1  0
  3  2  1  0
  3  4  1  0
  4  5  1  0
  5  6  2  0
  7  8  2  0
  9  5  1  0
 10  7  1  0
 10 11  1  0
 11 17  1  0
 12 13  1  0
 11 12  1  1
 14 13  1  0
 15 14  1  0
 16 15  1  0
 17 18  2  0
 19 20  1  0
 20 21  2  0
 22 23  1  0
 22 20  1  0
 23 24  1  0
 24 25  1  0
 26 25  1  1
 26 28  1  0
 27 26  1  0
 27 17  1  0
 28 29  2  0
 28 30  1  0
M  END
$$$$
