SLR.pdb
     RDKit          3D

 26 25  0  0  1  0  0  0  0  0999 V2000
   27.3778  -16.1505  -14.8673 O   0  0  0  0  0  0  0  0  0  0  0  0
   27.1552  -16.7242  -16.1233 C   0  0  0  0  0  0  0  0  0  0  0  0
   25.8517  -17.4935  -16.0169 C   0  0  2  0  0  0  0  0  0  0  0  0
   24.8525  -16.6510  -15.3902 N   0  0  0  0  0  0  0  0  0  0  0  0
   26.1196  -18.7172  -15.2271 C   0  0  0  0  0  0  0  0  0  0  0  0
   26.9119  -19.5758  -15.6948 O   0  0  0  0  0  0  0  0  0  0  0  0
   25.8482  -20.4483   -9.4106 C   0  0  0  0  0  0  0  0  0  0  0  0
   26.0156  -21.0004  -10.8405 C   0  0  2  0  0  0  0  0  0  0  0  0
   27.3645  -21.6482  -10.9880 C   0  0  0  0  0  0  0  0  0  0  0  0
   25.8504  -19.8663  -11.8109 C   0  0  0  0  0  0  0  0  0  0  0  0
   25.7382  -20.2690  -13.2573 C   0  0  2  0  0  0  0  0  0  0  0  0
   25.5391  -18.9857  -13.9733 N   0  0  0  0  0  0  0  0  0  0  0  0
   24.5678  -21.1011  -13.5753 C   0  0  0  0  0  0  0  0  0  0  0  0
   24.6343  -22.3365  -13.3005 O   0  0  0  0  0  0  0  0  0  0  0  0
   18.4286  -22.6437  -11.0664 N   0  0  0  0  0  0  0  0  0  0  0  0
   19.3710  -22.5404  -10.0158 C   0  0  0  0  0  0  0  0  0  0  0  0
   19.2584  -23.3000   -8.9573 N   0  0  0  0  0  0  0  0  0  0  0  0
   20.4440  -21.5996  -10.1240 N   0  0  0  0  0  0  0  0  0  0  0  0
   20.6121  -20.8342  -11.3448 C   0  0  0  0  0  0  0  0  0  0  0  0
   20.7139  -21.8443  -12.5003 C   0  0  0  0  0  0  0  0  0  0  0  0
   20.9971  -21.1367  -13.7922 C   0  0  0  0  0  0  0  0  0  0  0  0
   22.2483  -21.5678  -14.4834 C   0  0  2  0  0  0  0  0  0  0  0  0
   23.3640  -20.6667  -14.1569 N   0  0  0  0  0  0  0  0  0  0  0  0
   22.1330  -21.7624  -15.9307 C   0  0  0  0  0  0  0  0  0  0  0  0
   22.7977  -20.9251  -16.8528 O   0  0  0  0  0  0  0  0  0  0  0  0
   21.4500  -22.6685  -16.4648 O   0  0  0  0  0  0  0  0  0  0  0  0
  1  2  1  0
  3  2  1  0
  3  5  1  0
  3  4  1  1
  5  6  2  0
  8  7  1  1
  8  9  1  0
 10  8  1  0
 11 10  1  1
 12 11  1  0
 12  5  1  0
 13 11  1  0
 13 14  2  0
 15 16  1  0
 16 17  2  0
 18 16  1  0
 18 19  1  0
 20 19  1  0
 20 21  1  0
 22 21  1  6
 22 23  1  0
 22 24  1  0
 23 13  1  0
 24 26  2  0
 24 25  1  0
M  END
$$$$
