SLR.pdb
     RDKit          3D

 26 25  0  0  1  0  0  0  0  0999 V2000
   26.8154  -25.7128  -17.9176 O   0  0  0  0  0  0  0  0  0  0  0  0
   26.3847  -24.7145  -17.0378 C   0  0  0  0  0  0  0  0  0  0  0  0
   27.5707  -23.7927  -16.8235 C   0  0  2  0  0  0  0  0  0  0  0  0
   28.6288  -24.5266  -16.1581 N   0  0  0  0  0  0  0  0  0  0  0  0
   27.1015  -22.6429  -16.0168 C   0  0  0  0  0  0  0  0  0  0  0  0
   27.3224  -22.6448  -14.7778 O   0  0  0  0  0  0  0  0  0  0  0  0
   27.2542  -16.8076  -16.7784 C   0  0  0  0  0  0  0  0  0  0  0  0
   26.4686  -17.8347  -15.9385 C   0  0  2  0  0  0  0  0  0  0  0  0
   26.8400  -17.7052  -14.4871 C   0  0  0  0  0  0  0  0  0  0  0  0
   26.7788  -19.2098  -16.4562 C   0  0  0  0  0  0  0  0  0  0  0  0
   26.0792  -20.3375  -15.7450 C   0  0  2  0  0  0  0  0  0  0  0  0
   26.4168  -21.5353  -16.5514 N   0  0  0  0  0  0  0  0  0  0  0  0
   24.6111  -20.2463  -15.7422 C   0  0  0  0  0  0  0  0  0  0  0  0
   24.0270  -20.1537  -16.8630 O   0  0  0  0  0  0  0  0  0  0  0  0
   17.8362  -24.2841  -12.9854 N   0  0  0  0  0  0  0  0  0  0  0  0
   19.1488  -24.8115  -12.9480 C   0  0  0  0  0  0  0  0  0  0  0  0
   19.3417  -26.0988  -13.0729 N   0  0  0  0  0  0  0  0  0  0  0  0
   20.2581  -23.9243  -12.7729 N   0  0  0  0  0  0  0  0  0  0  0  0
   20.0269  -22.4990  -12.6340 C   0  0  0  0  0  0  0  0  0  0  0  0
   20.5918  -21.8249  -13.8959 C   0  0  0  0  0  0  0  0  0  0  0  0
   21.6677  -20.8457  -13.5307 C   0  0  0  0  0  0  0  0  0  0  0  0
   22.3079  -20.1548  -14.6891 C   0  0  2  0  0  0  0  0  0  0  0  0
   23.7733  -20.2541  -14.6134 N   0  0  0  0  0  0  0  0  0  0  0  0
   21.8832  -18.7703  -14.9096 C   0  0  0  0  0  0  0  0  0  0  0  0
   20.7176  -18.4533  -15.6403 O   0  0  0  0  0  0  0  0  0  0  0  0
   22.5033  -17.7690  -14.4787 O   0  0  0  0  0  0  0  0  0  0  0  0
  1  2  1  0
  3  2  1  0
  3  5  1  0
  3  4  1  1
  5  6  2  0
  8  7  1  6
  8  9  1  0
 10  8  1  0
 11 10  1  6
 12 11  1  0
 12  5  1  0
 13 11  1  0
 13 14  2  0
 15 16  1  0
 16 17  2  0
 18 16  1  0
 18 19  1  0
 20 19  1  0
 20 21  1  0
 22 21  1  1
 22 23  1  0
 22 24  1  0
 23 13  1  0
 24 26  2  0
 24 25  1  0
M  END
$$$$
