SLR.pdb
     RDKit          3D

 26 25  0  0  1  0  0  0  0  0999 V2000
   28.1936  -20.4134  -18.4318 O   0  0  0  0  0  0  0  0  0  0  0  0
   27.3678  -20.5211  -17.3082 C   0  0  0  0  0  0  0  0  0  0  0  0
   28.1239  -21.3681  -16.3015 C   0  0  2  0  0  0  0  0  0  0  0  0
   28.7114  -22.5046  -16.9828 N   0  0  0  0  0  0  0  0  0  0  0  0
   27.1605  -21.7851  -15.2570 C   0  0  0  0  0  0  0  0  0  0  0  0
   26.7063  -22.9584  -15.2889 O   0  0  0  0  0  0  0  0  0  0  0  0
   25.6665  -19.6080   -9.7343 C   0  0  0  0  0  0  0  0  0  0  0  0
   25.2853  -20.6938  -10.7606 C   0  0  2  0  0  0  0  0  0  0  0  0
   25.4258  -22.0578  -10.1437 C   0  0  0  0  0  0  0  0  0  0  0  0
   26.1759  -20.5478  -11.9609 C   0  0  0  0  0  0  0  0  0  0  0  0
   25.8181  -21.4178  -13.1364 C   0  0  2  0  0  0  0  0  0  0  0  0
   26.7145  -20.9454  -14.2191 N   0  0  0  0  0  0  0  0  0  0  0  0
   24.4457  -21.2434  -13.6358 C   0  0  0  0  0  0  0  0  0  0  0  0
   24.1372  -20.1141  -14.1213 O   0  0  0  0  0  0  0  0  0  0  0  0
   17.5508  -23.7846  -16.7391 N   0  0  0  0  0  0  0  0  0  0  0  0
   18.6288  -24.7005  -16.7799 C   0  0  0  0  0  0  0  0  0  0  0  0
   18.9040  -25.3400  -17.8868 N   0  0  0  0  0  0  0  0  0  0  0  0
   19.4111  -24.9184  -15.6014 N   0  0  0  0  0  0  0  0  0  0  0  0
   19.0153  -24.3029  -14.3488 C   0  0  0  0  0  0  0  0  0  0  0  0
   19.7442  -22.9514  -14.2598 C   0  0  0  0  0  0  0  0  0  0  0  0
   21.2067  -23.1601  -13.9999 C   0  0  0  0  0  0  0  0  0  0  0  0
   22.0236  -21.9108  -13.9678 C   0  0  2  0  0  0  0  0  0  0  0  0
   23.4248  -22.2097  -13.6355 N   0  0  0  0  0  0  0  0  0  0  0  0
   21.4980  -20.8365  -13.1219 C   0  0  0  0  0  0  0  0  0  0  0  0
   20.8490  -19.7067  -13.6655 O   0  0  0  0  0  0  0  0  0  0  0  0
   21.5767  -20.8266  -11.8702 O   0  0  0  0  0  0  0  0  0  0  0  0
  1  2  1  0
  3  2  1  0
  3  5  1  0
  3  4  1  6
  5  6  2  0
  8  7  1  1
  8  9  1  0
 10  8  1  0
 11 10  1  1
 12 11  1  0
 12  5  1  0
 13 11  1  0
 13 14  2  0
 15 16  1  0
 16 17  2  0
 18 16  1  0
 18 19  1  0
 20 19  1  0
 20 21  1  0
 22 21  1  1
 22 23  1  0
 22 24  1  0
 23 13  1  0
 24 26  2  0
 24 25  1  0
M  END
$$$$
