SLR.pdb
     RDKit          3D

 26 25  0  0  1  0  0  0  0  0999 V2000
   19.0163  -14.2649  -14.7955 O   0  0  0  0  0  0  0  0  0  0  0  0
   19.7958  -15.3932  -15.0701 C   0  0  0  0  0  0  0  0  0  0  0  0
   20.7750  -14.9828  -16.1542 C   0  0  2  0  0  0  0  0  0  0  0  0
   20.0615  -14.8326  -17.4069 N   0  0  0  0  0  0  0  0  0  0  0  0
   21.8182  -16.0310  -16.2326 C   0  0  0  0  0  0  0  0  0  0  0  0
   21.6348  -17.0083  -17.0040 O   0  0  0  0  0  0  0  0  0  0  0  0
   26.4748  -15.9804  -17.1261 C   0  0  0  0  0  0  0  0  0  0  0  0
   25.9603  -15.3437  -15.8194 C   0  0  2  0  0  0  0  0  0  0  0  0
   27.1034  -14.7263  -15.0623 C   0  0  0  0  0  0  0  0  0  0  0  0
   25.2839  -16.4088  -15.0051 C   0  0  0  0  0  0  0  0  0  0  0  0
   24.0723  -17.0340  -15.6437 C   0  0  2  0  0  0  0  0  0  0  0  0
   23.0150  -16.0052  -15.4923 N   0  0  0  0  0  0  0  0  0  0  0  0
   23.5715  -18.2387  -14.9645 C   0  0  0  0  0  0  0  0  0  0  0  0
   22.7938  -18.0751  -13.9773 O   0  0  0  0  0  0  0  0  0  0  0  0
   18.7597  -23.5039  -12.1850 N   0  0  0  0  0  0  0  0  0  0  0  0
   18.6036  -22.1297  -11.8856 C   0  0  0  0  0  0  0  0  0  0  0  0
   18.1091  -21.7622  -10.7322 N   0  0  0  0  0  0  0  0  0  0  0  0
   18.9914  -21.1506  -12.8548 N   0  0  0  0  0  0  0  0  0  0  0  0
   19.5104  -21.5751  -14.1412 C   0  0  0  0  0  0  0  0  0  0  0  0
   21.0306  -21.7453  -13.9808 C   0  0  0  0  0  0  0  0  0  0  0  0
   21.7572  -20.6007  -14.6224 C   0  0  0  0  0  0  0  0  0  0  0  0
   23.2445  -20.7305  -14.6379 C   0  0  2  0  0  0  0  0  0  0  0  0
   23.8644  -19.5722  -15.2993 N   0  0  0  0  0  0  0  0  0  0  0  0
   23.7611  -21.9884  -15.1826 C   0  0  0  0  0  0  0  0  0  0  0  0
   23.7087  -23.1961  -14.4534 O   0  0  0  0  0  0  0  0  0  0  0  0
   24.2828  -22.0999  -16.3177 O   0  0  0  0  0  0  0  0  0  0  0  0
  1  2  1  0
  3  2  1  0
  3  5  1  0
  3  4  1  6
  5  6  2  0
  8  7  1  6
  8  9  1  0
 10  8  1  0
 11 10  1  1
 12 11  1  0
 12  5  1  0
 13 11  1  0
 13 14  2  0
 15 16  1  0
 16 17  2  0
 18 16  1  0
 18 19  1  0
 20 19  1  0
 20 21  1  0
 22 21  1  6
 22 23  1  0
 22 24  1  0
 23 13  1  0
 24 26  2  0
 24 25  1  0
M  END
$$$$
