SLR.pdb
     RDKit          3D

 26 25  0  0  1  0  0  0  0  0999 V2000
   29.1034  -18.4525  -15.5427 O   0  0  0  0  0  0  0  0  0  0  0  0
   28.0844  -19.2623  -15.0308 C   0  0  0  0  0  0  0  0  0  0  0  0
   28.7701  -20.4198  -14.3292 C   0  0  2  0  0  0  0  0  0  0  0  0
   29.1791  -21.3989  -15.3167 N   0  0  0  0  0  0  0  0  0  0  0  0
   27.8077  -20.9837  -13.3551 C   0  0  0  0  0  0  0  0  0  0  0  0
   27.0962  -21.9606  -13.7061 O   0  0  0  0  0  0  0  0  0  0  0  0
   24.6554  -20.5448   -8.9505 C   0  0  0  0  0  0  0  0  0  0  0  0
   26.1301  -20.8572   -8.6264 C   0  0  2  0  0  0  0  0  0  0  0  0
   26.5394  -20.1551   -7.3613 C   0  0  0  0  0  0  0  0  0  0  0  0
   26.9758  -20.4182   -9.7872 C   0  0  0  0  0  0  0  0  0  0  0  0
   26.6298  -21.0492  -11.1096 C   0  0  2  0  0  0  0  0  0  0  0  0
   27.6348  -20.4927  -12.0473 N   0  0  0  0  0  0  0  0  0  0  0  0
   25.3142  -20.6696  -11.6469 C   0  0  0  0  0  0  0  0  0  0  0  0
   25.1901  -19.5021  -12.1239 O   0  0  0  0  0  0  0  0  0  0  0  0
   19.6462  -24.8151  -15.4272 N   0  0  0  0  0  0  0  0  0  0  0  0
   19.6207  -23.7913  -16.4037 C   0  0  0  0  0  0  0  0  0  0  0  0
   18.5377  -23.5824  -17.1062 N   0  0  0  0  0  0  0  0  0  0  0  0
   20.7882  -22.9903  -16.6130 N   0  0  0  0  0  0  0  0  0  0  0  0
   21.9462  -23.1656  -15.7571 C   0  0  0  0  0  0  0  0  0  0  0  0
   21.8580  -22.0975  -14.6539 C   0  0  0  0  0  0  0  0  0  0  0  0
   23.0448  -22.1870  -13.7409 C   0  0  0  0  0  0  0  0  0  0  0  0
   23.0322  -21.2260  -12.5983 C   0  0  2  0  0  0  0  0  0  0  0  0
   24.1632  -21.4754  -11.6918 N   0  0  0  0  0  0  0  0  0  0  0  0
   21.7706  -21.1442  -11.8583 C   0  0  0  0  0  0  0  0  0  0  0  0
   20.6766  -20.3851  -12.3276 O   0  0  0  0  0  0  0  0  0  0  0  0
   21.5569  -21.7275  -10.7689 O   0  0  0  0  0  0  0  0  0  0  0  0
  1  2  1  0
  3  2  1  0
  3  5  1  0
  3  4  1  6
  5  6  2  0
  8  7  1  6
  8  9  1  0
 10  8  1  0
 11 10  1  1
 12 11  1  0
 12  5  1  0
 13 11  1  0
 13 14  2  0
 15 16  1  0
 16 17  2  0
 18 16  1  0
 18 19  1  0
 20 19  1  0
 20 21  1  0
 22 21  1  6
 22 23  1  0
 22 24  1  0
 23 13  1  0
 24 26  2  0
 24 25  1  0
M  END
$$$$
