SLR.pdb
     RDKit          3D

 26 25  0  0  1  0  0  0  0  0999 V2000
   11.5874  -23.1915   -4.4510 O   0  0  0  0  0  0  0  0  0  0  0  0
   12.7311  -23.7873   -3.9097 C   0  0  0  0  0  0  0  0  0  0  0  0
   13.7855  -22.6987   -3.8346 C   0  0  2  0  0  0  0  0  0  0  0  0
   14.5855  -22.7278   -5.0429 N   0  0  0  0  0  0  0  0  0  0  0  0
   14.6004  -22.9503   -2.6239 C   0  0  0  0  0  0  0  0  0  0  0  0
   15.7766  -23.3748   -2.7658 O   0  0  0  0  0  0  0  0  0  0  0  0
   16.7524  -21.0295    1.4677 C   0  0  0  0  0  0  0  0  0  0  0  0
   15.3624  -20.5734    0.9804 C   0  0  2  0  0  0  0  0  0  0  0  0
   14.7621  -19.6090    1.9656 C   0  0  0  0  0  0  0  0  0  0  0  0
   14.4946  -21.7875    0.8134 C   0  0  0  0  0  0  0  0  0  0  0  0
   15.0289  -22.8353   -0.1265 C   0  0  2  0  0  0  0  0  0  0  0  0
   14.1400  -22.7433   -1.3100 N   0  0  0  0  0  0  0  0  0  0  0  0
   14.9155  -24.2173    0.3642 C   0  0  0  0  0  0  0  0  0  0  0  0
   13.7558  -24.7246    0.4258 O   0  0  0  0  0  0  0  0  0  0  0  0
   18.5863  -31.2430   -2.0042 N   0  0  0  0  0  0  0  0  0  0  0  0
   17.3205  -30.6596   -2.2490 C   0  0  0  0  0  0  0  0  0  0  0  0
   16.7310  -30.8329   -3.4033 N   0  0  0  0  0  0  0  0  0  0  0  0
   16.6951  -29.8812   -1.2236 N   0  0  0  0  0  0  0  0  0  0  0  0
   17.3428  -29.7333    0.0661 C   0  0  0  0  0  0  0  0  0  0  0  0
   16.4439  -28.8240    0.9210 C   0  0  0  0  0  0  0  0  0  0  0  0
   16.5573  -27.3986    0.4680 C   0  0  0  0  0  0  0  0  0  0  0  0
   15.7773  -26.4177    1.2795 C   0  0  2  0  0  0  0  0  0  0  0  0
   15.9711  -25.0496    0.7754 N   0  0  0  0  0  0  0  0  0  0  0  0
   15.9956  -26.4830    2.7266 C   0  0  0  0  0  0  0  0  0  0  0  0
   15.4678  -27.5279    3.5157 O   0  0  0  0  0  0  0  0  0  0  0  0
   16.6549  -25.6363    3.3758 O   0  0  0  0  0  0  0  0  0  0  0  0
  1  2  1  0
  3  2  1  0
  3  5  1  0
  3  4  1  6
  5  6  2  0
  8  7  1  1
  8  9  1  0
 10  8  1  0
 11 10  1  1
 12 11  1  0
 12  5  1  0
 13 11  1  0
 13 14  2  0
 15 16  1  0
 16 17  2  0
 18 16  1  0
 18 19  1  0
 20 19  1  0
 20 21  1  0
 22 21  1  6
 22 23  1  0
 22 24  1  0
 23 13  1  0
 24 26  2  0
 24 25  1  0
M  END
$$$$
