MEG.pdb
     RDKit          3D

 22 21  0  0  1  0  0  0  0  0999 V2000
   21.8025  -17.7603  -18.7266 C   0  0  0  0  0  0  0  0  0  0  0  0
   20.4881  -16.5399  -19.0581 S   0  0  0  0  0  0  0  0  0  0  0  0
   20.7879  -15.0678  -18.0425 C   0  0  0  0  0  0  0  0  0  0  0  0
   19.6490  -14.0810  -18.1811 C   0  0  0  0  0  0  0  0  0  0  0  0
   19.8804  -12.8322  -17.3762 C   0  0  2  0  0  0  0  0  0  0  0  0
   20.2332  -13.1702  -16.0308 N   0  0  0  0  0  0  0  0  0  0  0  0
   18.7248  -11.9033  -17.4079 C   0  0  0  0  0  0  0  0  0  0  0  0
   18.2013  -11.4852  -18.4640 O   0  0  0  0  0  0  0  0  0  0  0  0
   18.1847  -11.4660  -16.1836 N   0  0  0  0  0  0  0  0  0  0  0  0
   17.0448  -10.5338  -16.0785 C   0  0  1  0  0  0  0  0  0  0  0  0
   16.0128  -11.1123  -15.1682 C   0  0  0  0  0  0  0  0  0  0  0  0
   15.2229  -12.2064  -15.8113 C   0  0  0  0  0  0  0  0  0  0  0  0
   14.2000  -12.7610  -14.8375 C   0  0  0  0  0  0  0  0  0  0  0  0
   12.9959  -12.4749  -15.0348 O   0  0  0  0  0  0  0  0  0  0  0  0
   17.5618   -9.2129  -15.7274 C   0  0  0  0  0  0  0  0  0  0  0  0
   18.3843   -9.1069  -14.7728 O   0  0  0  0  0  0  0  0  0  0  0  0
   14.5711  -13.5492  -13.7744 O   0  0  0  0  0  0  0  0  0  0  0  0
   17.2018   -8.0304  -16.3970 N   0  0  0  0  0  0  0  0  0  0  0  0
   17.6137   -6.7017  -15.9024 C   0  0  0  0  0  0  0  0  0  0  0  0
   18.9926   -6.3978  -16.2844 C   0  0  0  0  0  0  0  0  0  0  0  0
   19.6613   -7.2525  -16.9154 O   0  0  0  0  0  0  0  0  0  0  0  0
   19.6041   -5.1930  -15.9780 O   0  0  0  0  0  0  0  0  0  0  0  0
  2  1  1  0
  3  2  1  0
  4  3  1  0
  4  5  1  0
  5  6  1  1
  7  5  1  0
  8  7  2  0
  9  7  1  0
 10  9  1  0
 10 11  1  1
 11 12  1  0
 12 13  1  0
 13 17  1  0
 14 13  2  0
 15 10  1  0
 16 15  2  0
 18 15  1  0
 19 18  1  0
 20 22  1  0
 20 19  1  0
 21 20  2  0
M  END
$$$$
