MEG.pdb
     RDKit          3D

 22 21  0  0  1  0  0  0  0  0999 V2000
   20.3778  -15.8697  -18.8506 C   0  0  0  0  0  0  0  0  0  0  0  0
   20.5703  -14.0954  -19.2268 S   0  0  0  0  0  0  0  0  0  0  0  0
   20.5284  -13.1609  -17.6734 C   0  0  0  0  0  0  0  0  0  0  0  0
   20.4875  -11.6727  -17.9451 C   0  0  0  0  0  0  0  0  0  0  0  0
   20.3972  -10.8678  -16.6782 C   0  0  2  0  0  0  0  0  0  0  0  0
   19.7828  -11.6429  -15.6436 N   0  0  0  0  0  0  0  0  0  0  0  0
   19.6952   -9.5749  -16.8653 C   0  0  0  0  0  0  0  0  0  0  0  0
   18.8374   -9.3750  -17.7531 O   0  0  0  0  0  0  0  0  0  0  0  0
   20.0094   -8.5119  -15.9974 N   0  0  0  0  0  0  0  0  0  0  0  0
   19.2785   -7.2295  -15.9763 C   0  0  1  0  0  0  0  0  0  0  0  0
   17.8208   -7.4918  -15.7903 C   0  0  0  0  0  0  0  0  0  0  0  0
   17.0094   -6.2373  -15.7420 C   0  0  0  0  0  0  0  0  0  0  0  0
   15.5284   -6.5670  -15.7364 C   0  0  0  0  0  0  0  0  0  0  0  0
   15.2026   -7.7744  -15.6556 O   0  0  0  0  0  0  0  0  0  0  0  0
   19.9166   -6.3525  -14.9970 C   0  0  0  0  0  0  0  0  0  0  0  0
   20.0578   -6.7571  -13.8073 O   0  0  0  0  0  0  0  0  0  0  0  0
   14.5714   -5.5837  -15.8169 O   0  0  0  0  0  0  0  0  0  0  0  0
   20.3974   -5.0661  -15.2973 N   0  0  0  0  0  0  0  0  0  0  0  0
   21.0145   -4.2075  -14.2669 C   0  0  0  0  0  0  0  0  0  0  0  0
   22.3035   -4.7446  -13.8315 C   0  0  0  0  0  0  0  0  0  0  0  0
   22.3376   -5.6017  -12.9150 O   0  0  0  0  0  0  0  0  0  0  0  0
   23.5063   -4.3456  -14.3914 O   0  0  0  0  0  0  0  0  0  0  0  0
  2  1  1  0
  3  2  1  0
  4  3  1  0
  4  5  1  0
  5  6  1  1
  7  5  1  0
  8  7  2  0
  9  7  1  0
 10  9  1  0
 10 11  1  1
 11 12  1  0
 12 13  1  0
 13 17  1  0
 14 13  2  0
 15 10  1  0
 16 15  2  0
 18 15  1  0
 19 18  1  0
 20 22  1  0
 20 19  1  0
 21 20  2  0
M  END
$$$$
