MEG.pdb
     RDKit          3D

 22 21  0  0  1  0  0  0  0  0999 V2000
   28.8498  -19.4618   -4.1737 C   0  0  0  0  0  0  0  0  0  0  0  0
   27.7659  -18.9625   -5.5531 S   0  0  0  0  0  0  0  0  0  0  0  0
   27.8082  -20.2531   -6.8262 C   0  0  0  0  0  0  0  0  0  0  0  0
   26.9893  -19.8435   -8.0310 C   0  0  0  0  0  0  0  0  0  0  0  0
   27.0728  -20.8528   -9.1425 C   0  0  2  0  0  0  0  0  0  0  0  0
   28.4416  -21.1420   -9.4450 N   0  0  0  0  0  0  0  0  0  0  0  0
   26.3341  -20.4340  -10.3583 C   0  0  0  0  0  0  0  0  0  0  0  0
   26.6620  -19.4557  -11.0650 O   0  0  0  0  0  0  0  0  0  0  0  0
   25.2008  -21.1764  -10.7410 N   0  0  0  0  0  0  0  0  0  0  0  0
   24.4118  -20.8969  -11.9570 C   0  0  1  0  0  0  0  0  0  0  0  0
   24.5338  -22.0454  -12.9027 C   0  0  0  0  0  0  0  0  0  0  0  0
   25.8777  -22.1183  -13.5530 C   0  0  0  0  0  0  0  0  0  0  0  0
   26.0095  -21.0415  -14.6139 C   0  0  0  0  0  0  0  0  0  0  0  0
   25.3002  -21.1490  -15.6414 O   0  0  0  0  0  0  0  0  0  0  0  0
   23.0587  -20.5229  -11.5514 C   0  0  0  0  0  0  0  0  0  0  0  0
   22.5999  -20.9616  -10.4577 O   0  0  0  0  0  0  0  0  0  0  0  0
   26.8730  -19.9830  -14.4622 O   0  0  0  0  0  0  0  0  0  0  0  0
   22.2193  -19.6878  -12.3091 N   0  0  0  0  0  0  0  0  0  0  0  0
   20.8567  -19.3413  -11.8586 C   0  0  0  0  0  0  0  0  0  0  0  0
   19.9149  -20.4258  -12.1349 C   0  0  0  0  0  0  0  0  0  0  0  0
   20.3078  -21.4403  -12.7614 O   0  0  0  0  0  0  0  0  0  0  0  0
   18.5901  -20.3854  -11.7316 O   0  0  0  0  0  0  0  0  0  0  0  0
  2  1  1  0
  3  2  1  0
  4  3  1  0
  4  5  1  0
  5  6  1  6
  7  5  1  0
  8  7  2  0
  9  7  1  0
 10  9  1  0
 10 11  1  6
 11 12  1  0
 12 13  1  0
 13 17  1  0
 14 13  2  0
 15 10  1  0
 16 15  2  0
 18 15  1  0
 19 18  1  0
 20 22  1  0
 20 19  1  0
 21 20  2  0
M  END
$$$$
