MEG.pdb
     RDKit          3D

 22 21  0  0  1  0  0  0  0  0999 V2000
   20.1151  -26.4081    1.3250 C   0  0  0  0  0  0  0  0  0  0  0  0
   21.5979  -25.4684    1.8200 S   0  0  0  0  0  0  0  0  0  0  0  0
   21.0739  -23.9024    2.5694 C   0  0  0  0  0  0  0  0  0  0  0  0
   19.6984  -24.0378    3.1856 C   0  0  0  0  0  0  0  0  0  0  0  0
   19.1872  -22.7298    3.7231 C   0  0  2  0  0  0  0  0  0  0  0  0
   20.2546  -21.7799    3.8081 N   0  0  0  0  0  0  0  0  0  0  0  0
   18.4949  -22.8732    5.0267 C   0  0  0  0  0  0  0  0  0  0  0  0
   17.2686  -23.0918    5.1390 O   0  0  0  0  0  0  0  0  0  0  0  0
   19.2569  -22.7572    6.2047 N   0  0  0  0  0  0  0  0  0  0  0  0
   18.7294  -23.0483    7.5524 C   0  0  1  0  0  0  0  0  0  0  0  0
   19.7682  -23.7677    8.3474 C   0  0  0  0  0  0  0  0  0  0  0  0
   19.2798  -24.1781    9.6992 C   0  0  0  0  0  0  0  0  0  0  0  0
   20.0164  -25.4174   10.1723 C   0  0  0  0  0  0  0  0  0  0  0  0
   21.2663  -25.3582   10.2432 O   0  0  0  0  0  0  0  0  0  0  0  0
   18.2123  -21.8059    8.1220 C   0  0  0  0  0  0  0  0  0  0  0  0
   18.8346  -20.7255    7.9113 O   0  0  0  0  0  0  0  0  0  0  0  0
   19.3458  -26.5678   10.5127 O   0  0  0  0  0  0  0  0  0  0  0  0
   17.0436  -21.7307    8.8997 N   0  0  0  0  0  0  0  0  0  0  0  0
   16.6397  -20.4819    9.5758 C   0  0  0  0  0  0  0  0  0  0  0  0
   15.3378  -20.6282   10.2263 C   0  0  0  0  0  0  0  0  0  0  0  0
   14.8393  -19.6513   10.8371 O   0  0  0  0  0  0  0  0  0  0  0  0
   14.6183  -21.8118   10.1994 O   0  0  0  0  0  0  0  0  0  0  0  0
  2  1  1  0
  3  2  1  0
  4  3  1  0
  4  5  1  0
  5  6  1  1
  7  5  1  0
  8  7  2  0
  9  7  1  0
 10  9  1  0
 10 11  1  1
 11 12  1  0
 12 13  1  0
 13 17  1  0
 14 13  2  0
 15 10  1  0
 16 15  2  0
 18 15  1  0
 19 18  1  0
 20 22  1  0
 20 19  1  0
 21 20  2  0
M  END
$$$$
