MEG.pdb
     RDKit          3D

 22 21  0  0  1  0  0  0  0  0999 V2000
   32.1025  -22.4142  -10.0227 C   0  0  0  0  0  0  0  0  0  0  0  0
   30.4801  -21.5981  -10.1920 S   0  0  0  0  0  0  0  0  0  0  0  0
   30.3517  -20.8930  -11.8577 C   0  0  0  0  0  0  0  0  0  0  0  0
   29.0636  -20.1136  -12.0112 C   0  0  0  0  0  0  0  0  0  0  0  0
   27.9176  -20.9907  -12.4335 C   0  0  2  0  0  0  0  0  0  0  0  0
   28.2189  -21.6320  -13.6772 N   0  0  0  0  0  0  0  0  0  0  0  0
   26.6292  -20.2601  -12.5078 C   0  0  0  0  0  0  0  0  0  0  0  0
   26.2033  -19.5134  -11.5994 O   0  0  0  0  0  0  0  0  0  0  0  0
   25.8394  -20.4133  -13.6630 N   0  0  0  0  0  0  0  0  0  0  0  0
   24.5418  -19.7383  -13.8626 C   0  0  1  0  0  0  0  0  0  0  0  0
   24.4266  -19.2940  -15.2830 C   0  0  0  0  0  0  0  0  0  0  0  0
   25.4218  -18.2375  -15.6406 C   0  0  0  0  0  0  0  0  0  0  0  0
   25.2952  -17.8682  -17.1068 C   0  0  0  0  0  0  0  0  0  0  0  0
   26.0543  -16.9739  -17.5479 O   0  0  0  0  0  0  0  0  0  0  0  0
   23.4854  -20.6155  -13.3627 C   0  0  0  0  0  0  0  0  0  0  0  0
   23.7866  -21.7765  -12.9624 O   0  0  0  0  0  0  0  0  0  0  0  0
   24.3838  -18.4865  -17.9291 O   0  0  0  0  0  0  0  0  0  0  0  0
   22.1312  -20.2447  -13.2917 N   0  0  0  0  0  0  0  0  0  0  0  0
   21.0964  -21.1742  -12.7969 C   0  0  0  0  0  0  0  0  0  0  0  0
   19.7968  -20.5119  -12.6882 C   0  0  0  0  0  0  0  0  0  0  0  0
   19.6962  -19.2966  -12.9861 O   0  0  0  0  0  0  0  0  0  0  0  0
   18.6549  -21.1727  -12.2654 O   0  0  0  0  0  0  0  0  0  0  0  0
  2  1  1  0
  3  2  1  0
  4  3  1  0
  4  5  1  0
  5  6  1  6
  7  5  1  0
  8  7  2  0
  9  7  1  0
 10  9  1  0
 10 11  1  6
 11 12  1  0
 12 13  1  0
 13 17  1  0
 14 13  2  0
 15 10  1  0
 16 15  2  0
 18 15  1  0
 19 18  1  0
 20 22  1  0
 20 19  1  0
 21 20  2  0
M  END
$$$$
