MEG.pdb
     RDKit          3D

 22 21  0  0  1  0  0  0  0  0999 V2000
   27.3788  -26.0505  -16.1278 C   0  0  0  0  0  0  0  0  0  0  0  0
   28.7486  -25.2836  -17.0565 S   0  0  0  0  0  0  0  0  0  0  0  0
   28.5661  -23.4809  -16.9845 C   0  0  0  0  0  0  0  0  0  0  0  0
   27.1509  -23.1009  -16.6063 C   0  0  0  0  0  0  0  0  0  0  0  0
   26.9354  -21.6132  -16.6409 C   0  0  2  0  0  0  0  0  0  0  0  0
   27.7323  -20.9754  -15.6374 N   0  0  0  0  0  0  0  0  0  0  0  0
   25.5076  -21.2343  -16.5096 C   0  0  0  0  0  0  0  0  0  0  0  0
   24.5945  -21.7219  -17.2113 O   0  0  0  0  0  0  0  0  0  0  0  0
   25.1572  -20.2728  -15.5427 N   0  0  0  0  0  0  0  0  0  0  0  0
   23.7718  -19.8261  -15.2975 C   0  0  1  0  0  0  0  0  0  0  0  0
   23.4171  -20.0700  -13.8682 C   0  0  0  0  0  0  0  0  0  0  0  0
   23.1893  -21.5166  -13.5680 C   0  0  0  0  0  0  0  0  0  0  0  0
   21.7326  -21.8783  -13.7902 C   0  0  0  0  0  0  0  0  0  0  0  0
   21.3982  -23.0736  -13.6165 O   0  0  0  0  0  0  0  0  0  0  0  0
   23.6389  -18.4534  -15.7805 C   0  0  0  0  0  0  0  0  0  0  0  0
   24.4826  -17.5863  -15.4125 O   0  0  0  0  0  0  0  0  0  0  0  0
   20.8063  -20.9362  -14.1687 O   0  0  0  0  0  0  0  0  0  0  0  0
   22.6183  -18.0263  -16.6478 N   0  0  0  0  0  0  0  0  0  0  0  0
   22.5924  -16.6583  -17.2025 C   0  0  0  0  0  0  0  0  0  0  0  0
   21.5984  -15.8287  -16.5218 C   0  0  0  0  0  0  0  0  0  0  0  0
   21.3610  -16.0231  -15.3045 O   0  0  0  0  0  0  0  0  0  0  0  0
   20.8963  -14.8238  -17.1670 O   0  0  0  0  0  0  0  0  0  0  0  0
  2  1  1  0
  3  2  1  0
  4  3  1  0
  4  5  1  0
  5  6  1  1
  7  5  1  0
  8  7  2  0
  9  7  1  0
 10  9  1  0
 10 11  1  1
 11 12  1  0
 12 13  1  0
 13 17  1  0
 14 13  2  0
 15 10  1  0
 16 15  2  0
 18 15  1  0
 19 18  1  0
 20 22  1  0
 20 19  1  0
 21 20  2  0
M  END
$$$$
