MEG.pdb
     RDKit          3D

 22 21  0  0  1  0  0  0  0  0999 V2000
   15.8335  -10.7887  -18.0673 C   0  0  0  0  0  0  0  0  0  0  0  0
   17.0586  -12.1399  -18.0554 S   0  0  0  0  0  0  0  0  0  0  0  0
   17.5948  -12.4275  -16.3472 C   0  0  0  0  0  0  0  0  0  0  0  0
   18.6119  -11.3900  -15.9236 C   0  0  0  0  0  0  0  0  0  0  0  0
   19.9239  -11.5580  -16.6387 C   0  0  2  0  0  0  0  0  0  0  0  0
   20.5170  -12.8142  -16.2936 N   0  0  0  0  0  0  0  0  0  0  0  0
   20.8635  -10.4378  -16.3905 C   0  0  0  0  0  0  0  0  0  0  0  0
   21.6315  -10.3838  -15.4050 O   0  0  0  0  0  0  0  0  0  0  0  0
   20.8951   -9.3749  -17.3130 N   0  0  0  0  0  0  0  0  0  0  0  0
   21.7589   -8.1871  -17.1635 C   0  0  1  0  0  0  0  0  0  0  0  0
   22.3084   -7.8019  -18.4970 C   0  0  0  0  0  0  0  0  0  0  0  0
   23.3352   -8.7653  -18.9991 C   0  0  0  0  0  0  0  0  0  0  0  0
   23.9069   -8.2857  -20.3202 C   0  0  0  0  0  0  0  0  0  0  0  0
   23.6591   -8.9677  -21.3420 O   0  0  0  0  0  0  0  0  0  0  0  0
   21.0090   -7.1609  -16.4426 C   0  0  0  0  0  0  0  0  0  0  0  0
   19.8823   -6.7956  -16.8855 O   0  0  0  0  0  0  0  0  0  0  0  0
   24.6704   -7.1457  -20.4031 O   0  0  0  0  0  0  0  0  0  0  0  0
   21.4642   -6.5448  -15.2638 N   0  0  0  0  0  0  0  0  0  0  0  0
   20.7175   -5.4427  -14.6253 C   0  0  0  0  0  0  0  0  0  0  0  0
   21.4499   -4.8984  -13.4821 C   0  0  0  0  0  0  0  0  0  0  0  0
   22.4913   -5.4756  -13.0842 O   0  0  0  0  0  0  0  0  0  0  0  0
   21.0421   -3.7590  -12.8078 O   0  0  0  0  0  0  0  0  0  0  0  0
  2  1  1  0
  3  2  1  0
  4  3  1  0
  4  5  1  0
  5  6  1  1
  7  5  1  0
  8  7  2  0
  9  7  1  0
 10  9  1  0
 10 11  1  6
 11 12  1  0
 12 13  1  0
 13 17  1  0
 14 13  2  0
 15 10  1  0
 16 15  2  0
 18 15  1  0
 19 18  1  0
 20 22  1  0
 20 19  1  0
 21 20  2  0
M  END
$$$$
