MEG.pdb
     RDKit          3D

 22 21  0  0  1  0  0  0  0  0999 V2000
   20.7393  -16.3179  -18.8396 C   0  0  0  0  0  0  0  0  0  0  0  0
   22.1547  -15.7294  -19.8281 S   0  0  0  0  0  0  0  0  0  0  0  0
   23.6228  -16.6941  -19.3785 C   0  0  0  0  0  0  0  0  0  0  0  0
   23.2834  -17.7251  -18.3239 C   0  0  0  0  0  0  0  0  0  0  0  0
   24.5028  -18.4537  -17.8308 C   0  0  2  0  0  0  0  0  0  0  0  0
   25.3063  -18.8767  -18.9373 N   0  0  0  0  0  0  0  0  0  0  0  0
   24.1729  -19.5951  -16.9433 C   0  0  0  0  0  0  0  0  0  0  0  0
   23.7279  -20.6881  -17.3573 O   0  0  0  0  0  0  0  0  0  0  0  0
   24.3704  -19.4434  -15.5577 N   0  0  0  0  0  0  0  0  0  0  0  0
   24.1368  -20.5201  -14.5751 C   0  0  1  0  0  0  0  0  0  0  0  0
   25.3505  -20.6852  -13.7217 C   0  0  0  0  0  0  0  0  0  0  0  0
   26.2888  -21.7238  -14.2462 C   0  0  0  0  0  0  0  0  0  0  0  0
   27.1960  -21.1279  -15.3065 C   0  0  0  0  0  0  0  0  0  0  0  0
   27.1328  -19.8906  -15.4960 O   0  0  0  0  0  0  0  0  0  0  0  0
   22.8805  -20.2450  -13.8814 C   0  0  0  0  0  0  0  0  0  0  0  0
   22.5530  -19.0453  -13.6522 O   0  0  0  0  0  0  0  0  0  0  0  0
   28.0589  -21.9087  -16.0377 O   0  0  0  0  0  0  0  0  0  0  0  0
   21.9928  -21.2452  -13.4480 N   0  0  0  0  0  0  0  0  0  0  0  0
   20.7752  -20.9225  -12.6780 C   0  0  0  0  0  0  0  0  0  0  0  0
   19.6228  -20.7396  -13.5602 C   0  0  0  0  0  0  0  0  0  0  0  0
   19.7913  -20.7384  -14.8042 O   0  0  0  0  0  0  0  0  0  0  0  0
   18.3350  -20.5649  -13.0801 O   0  0  0  0  0  0  0  0  0  0  0  0
  2  1  1  0
  3  2  1  0
  4  3  1  0
  4  5  1  0
  5  6  1  6
  7  5  1  0
  8  7  2  0
  9  7  1  0
 10  9  1  0
 10 11  1  1
 11 12  1  0
 12 13  1  0
 13 17  1  0
 14 13  2  0
 15 10  1  0
 16 15  2  0
 18 15  1  0
 19 18  1  0
 20 22  1  0
 20 19  1  0
 21 20  2  0
M  END
$$$$
