MEG.pdb
     RDKit          3D

 22 21  0  0  1  0  0  0  0  0999 V2000
   21.5976  -34.1052   -9.9673 C   0  0  0  0  0  0  0  0  0  0  0  0
   22.6468  -33.7919  -11.4260 S   0  0  0  0  0  0  0  0  0  0  0  0
   23.0064  -32.0169  -11.5167 C   0  0  0  0  0  0  0  0  0  0  0  0
   21.7361  -31.2058  -11.3792 C   0  0  0  0  0  0  0  0  0  0  0  0
   21.4860  -30.3368  -12.5806 C   0  0  2  0  0  0  0  0  0  0  0  0
   22.4373  -30.6306  -13.6091 N   0  0  0  0  0  0  0  0  0  0  0  0
   21.4815  -28.8901  -12.2549 C   0  0  0  0  0  0  0  0  0  0  0  0
   22.5126  -28.2403  -11.9743 O   0  0  0  0  0  0  0  0  0  0  0  0
   20.2504  -28.2073  -12.2609 N   0  0  0  0  0  0  0  0  0  0  0  0
   20.1257  -26.7436  -12.1142 C   0  0  1  0  0  0  0  0  0  0  0  0
   20.4619  -26.0844  -13.4107 C   0  0  0  0  0  0  0  0  0  0  0  0
   20.5523  -24.5967  -13.2962 C   0  0  0  0  0  0  0  0  0  0  0  0
   20.9672  -23.9898  -14.6235 C   0  0  0  0  0  0  0  0  0  0  0  0
   22.0394  -23.3417  -14.6556 O   0  0  0  0  0  0  0  0  0  0  0  0
   18.8102  -26.4483  -11.5508 C   0  0  0  0  0  0  0  0  0  0  0  0
   17.7792  -26.9137  -12.1161 O   0  0  0  0  0  0  0  0  0  0  0  0
   20.2013  -24.1399  -15.7548 O   0  0  0  0  0  0  0  0  0  0  0  0
   18.6119  -25.6701  -10.3970 N   0  0  0  0  0  0  0  0  0  0  0  0
   19.2912  -25.9820   -9.1238 C   0  0  0  0  0  0  0  0  0  0  0  0
   19.0257  -24.9558   -8.1158 C   0  0  0  0  0  0  0  0  0  0  0  0
   18.3183  -23.9633   -8.4164 O   0  0  0  0  0  0  0  0  0  0  0  0
   19.5257  -25.0290   -6.8258 O   0  0  0  0  0  0  0  0  0  0  0  0
  2  1  1  0
  3  2  1  0
  4  3  1  0
  4  5  1  0
  5  6  1  6
  7  5  1  0
  8  7  2  0
  9  7  1  0
 10  9  1  0
 10 11  1  6
 11 12  1  0
 12 13  1  0
 13 17  1  0
 14 13  2  0
 15 10  1  0
 16 15  2  0
 18 15  1  0
 19 18  1  0
 20 22  1  0
 20 19  1  0
 21 20  2  0
M  END
$$$$
