MEG.pdb
     RDKit          3D

 22 21  0  0  1  0  0  0  0  0999 V2000
   29.8217  -12.7471  -18.6640 C   0  0  0  0  0  0  0  0  0  0  0  0
   29.9814  -13.2865  -16.9290 S   0  0  0  0  0  0  0  0  0  0  0  0
   28.4494  -12.8810  -16.0477 C   0  0  0  0  0  0  0  0  0  0  0  0
   27.9467  -11.5115  -16.4505 C   0  0  0  0  0  0  0  0  0  0  0  0
   26.6874  -11.1333  -15.7212 C   0  0  2  0  0  0  0  0  0  0  0  0
   25.7133  -12.1748  -15.8450 N   0  0  0  0  0  0  0  0  0  0  0  0
   26.1346   -9.8300  -16.1629 C   0  0  0  0  0  0  0  0  0  0  0  0
   26.7886   -8.7640  -16.1608 O   0  0  0  0  0  0  0  0  0  0  0  0
   24.8003   -9.7866  -16.6099 N   0  0  0  0  0  0  0  0  0  0  0  0
   24.1479   -8.5650  -17.1211 C   0  0  1  0  0  0  0  0  0  0  0  0
   23.2673   -8.9178  -18.2737 C   0  0  0  0  0  0  0  0  0  0  0  0
   24.0377   -9.3683  -19.4729 C   0  0  0  0  0  0  0  0  0  0  0  0
   24.1250  -10.8827  -19.5054 C   0  0  0  0  0  0  0  0  0  0  0  0
   23.0677  -11.5294  -19.3195 O   0  0  0  0  0  0  0  0  0  0  0  0
   23.5136   -7.8781  -15.9982 C   0  0  0  0  0  0  0  0  0  0  0  0
   23.1250   -8.5538  -15.0024 O   0  0  0  0  0  0  0  0  0  0  0  0
   25.3161  -11.5308  -19.7296 O   0  0  0  0  0  0  0  0  0  0  0  0
   23.3073   -6.4884  -15.9490 N   0  0  0  0  0  0  0  0  0  0  0  0
   22.7085   -5.8335  -14.7690 C   0  0  0  0  0  0  0  0  0  0  0  0
   22.6143   -4.3859  -14.9567 C   0  0  0  0  0  0  0  0  0  0  0  0
   23.0273   -3.8736  -16.0258 O   0  0  0  0  0  0  0  0  0  0  0  0
   22.0830   -3.5412  -13.9957 O   0  0  0  0  0  0  0  0  0  0  0  0
  2  1  1  0
  3  2  1  0
  4  3  1  0
  4  5  1  0
  5  6  1  6
  7  5  1  0
  8  7  2  0
  9  7  1  0
 10  9  1  0
 10 11  1  6
 11 12  1  0
 12 13  1  0
 13 17  1  0
 14 13  2  0
 15 10  1  0
 16 15  2  0
 18 15  1  0
 19 18  1  0
 20 22  1  0
 20 19  1  0
 21 20  2  0
M  END
$$$$
