MEG.pdb
     RDKit          3D

 22 21  0  0  1  0  0  0  0  0999 V2000
   30.6058  -21.4641  -11.2808 C   0  0  0  0  0  0  0  0  0  0  0  0
   30.1370  -20.8024   -9.6470 S   0  0  0  0  0  0  0  0  0  0  0  0
   28.3402  -20.9479   -9.4514 C   0  0  0  0  0  0  0  0  0  0  0  0
   27.6305  -20.5830  -10.7372 C   0  0  0  0  0  0  0  0  0  0  0  0
   26.1374  -20.5337  -10.5659 C   0  0  2  0  0  0  0  0  0  0  0  0
   25.6553  -21.7881  -10.0731 N   0  0  0  0  0  0  0  0  0  0  0  0
   25.4274  -20.1389  -11.8066 C   0  0  0  0  0  0  0  0  0  0  0  0
   25.6509  -19.0740  -12.4232 O   0  0  0  0  0  0  0  0  0  0  0  0
   24.4471  -21.0083  -12.3214 N   0  0  0  0  0  0  0  0  0  0  0  0
   23.6679  -20.7306  -13.5441 C   0  0  1  0  0  0  0  0  0  0  0  0
   24.0347  -21.7183  -14.6016 C   0  0  0  0  0  0  0  0  0  0  0  0
   25.4781  -21.6467  -14.9835 C   0  0  0  0  0  0  0  0  0  0  0  0
   25.6177  -21.3379  -16.4625 C   0  0  0  0  0  0  0  0  0  0  0  0
   25.0859  -22.1311  -17.2740 O   0  0  0  0  0  0  0  0  0  0  0  0
   22.2545  -20.6539  -13.1811 C   0  0  0  0  0  0  0  0  0  0  0  0
   21.8268  -21.3529  -12.2181 O   0  0  0  0  0  0  0  0  0  0  0  0
   26.3010  -20.2307  -16.9056 O   0  0  0  0  0  0  0  0  0  0  0  0
   21.3222  -19.8349  -13.8417 N   0  0  0  0  0  0  0  0  0  0  0  0
   19.9324  -19.6976  -13.3627 C   0  0  0  0  0  0  0  0  0  0  0  0
   19.1302  -20.8672  -13.7204 C   0  0  0  0  0  0  0  0  0  0  0  0
   19.6532  -21.7950  -14.3849 O   0  0  0  0  0  0  0  0  0  0  0  0
   17.8007  -21.0011  -13.3548 O   0  0  0  0  0  0  0  0  0  0  0  0
  2  1  1  0
  3  2  1  0
  4  3  1  0
  4  5  1  0
  5  6  1  6
  7  5  1  0
  8  7  2  0
  9  7  1  0
 10  9  1  0
 10 11  1  6
 11 12  1  0
 12 13  1  0
 13 17  1  0
 14 13  2  0
 15 10  1  0
 16 15  2  0
 18 15  1  0
 19 18  1  0
 20 22  1  0
 20 19  1  0
 21 20  2  0
M  END
$$$$
