AQV.pdb
     RDKit          3D

 22 21  0  0  1  0  0  0  0  0999 V2000
   18.8697  -15.5234  -18.0965 C   0  0  0  0  0  0  0  0  0  0  0  0
   18.7572  -14.8106  -16.7556 C   0  0  2  0  0  0  0  0  0  0  0  0
   17.4021  -14.7651  -16.2872 N   0  0  0  0  0  0  0  0  0  0  0  0
   19.2042  -13.4108  -16.9812 C   0  0  0  0  0  0  0  0  0  0  0  0
   20.3488  -13.2241  -17.4356 O   0  0  0  0  0  0  0  0  0  0  0  0
   15.7198  -10.3986  -19.9384 N   0  0  0  0  0  0  0  0  0  0  0  0
   17.1194  -10.4642  -19.9243 C   0  0  0  0  0  0  0  0  0  0  0  0
   17.7190  -11.1918  -20.7407 O   0  0  0  0  0  0  0  0  0  0  0  0
   17.8907   -9.6750  -18.9462 C   0  0  0  0  0  0  0  0  0  0  0  0
   17.5993  -10.1276  -17.5179 C   0  0  0  0  0  0  0  0  0  0  0  0
   18.7455  -10.9197  -16.9511 C   0  0  2  0  0  0  0  0  0  0  0  0
   18.3760  -12.2959  -16.6978 N   0  0  0  0  0  0  0  0  0  0  0  0
   19.3335  -10.2685  -15.7779 C   0  0  0  0  0  0  0  0  0  0  0  0
   18.8076  -10.3194  -14.6384 O   0  0  0  0  0  0  0  0  0  0  0  0
   23.2635   -9.1274  -16.0004 C   0  0  0  0  0  0  0  0  0  0  0  0
   22.5879   -9.3271  -14.6428 C   0  0  2  0  0  0  0  0  0  0  0  0
   22.6365  -10.8074  -14.3563 C   0  0  0  0  0  0  0  0  0  0  0  0
   21.1554   -8.8709  -14.7980 C   0  0  2  0  0  0  0  0  0  0  0  0
   20.5484   -9.5442  -15.9114 N   0  0  0  0  0  0  0  0  0  0  0  0
   21.0409   -7.4068  -14.9181 C   0  0  0  0  0  0  0  0  0  0  0  0
   20.8052   -6.9190  -16.0509 O   0  0  0  0  0  0  0  0  0  0  0  0
   21.1802   -6.5478  -13.8464 O   0  0  0  0  0  0  0  0  0  0  0  0
  2  4  1  0
  2  1  1  6
  2  3  1  0
  4 12  1  0
  5  4  2  0
  6  7  1  0
  7  8  2  0
  7  9  1  0
  9 10  1  0
 11 10  1  1
 12 11  1  0
 13 11  1  0
 13 19  1  0
 14 13  2  0
 16 15  1  6
 16 17  1  0
 18 19  1  6
 18 16  1  0
 20 18  1  0
 21 20  2  0
 22 20  1  0
M  END
$$$$
