AQV.pdb
     RDKit          3D

 22 21  0  0  1  0  0  0  0  0999 V2000
   20.2553  -12.1241  -18.9404 C   0  0  0  0  0  0  0  0  0  0  0  0
   20.5970  -10.6701  -19.2370 C   0  0  2  0  0  0  0  0  0  0  0  0
   21.6828  -10.5561  -20.1674 N   0  0  0  0  0  0  0  0  0  0  0  0
   21.0387  -10.0681  -17.9515 C   0  0  0  0  0  0  0  0  0  0  0  0
   20.1967   -9.9357  -17.0432 O   0  0  0  0  0  0  0  0  0  0  0  0
   26.8099  -10.4672  -15.8608 N   0  0  0  0  0  0  0  0  0  0  0  0
   25.7822  -11.4197  -15.8446 C   0  0  0  0  0  0  0  0  0  0  0  0
   26.0502  -12.6250  -15.6696 O   0  0  0  0  0  0  0  0  0  0  0  0
   24.3803  -11.0037  -16.0340 C   0  0  0  0  0  0  0  0  0  0  0  0
   24.2699   -9.4900  -16.1964 C   0  0  0  0  0  0  0  0  0  0  0  0
   22.8551   -9.0738  -16.4926 C   0  0  2  0  0  0  0  0  0  0  0  0
   22.3737   -9.6457  -17.7318 N   0  0  0  0  0  0  0  0  0  0  0  0
   22.6904   -7.6190  -16.4411 C   0  0  0  0  0  0  0  0  0  0  0  0
   23.1885   -6.8487  -17.2991 O   0  0  0  0  0  0  0  0  0  0  0  0
   20.0306   -5.6029  -17.0325 C   0  0  0  0  0  0  0  0  0  0  0  0
   20.2931   -5.2810  -15.5604 C   0  0  2  0  0  0  0  0  0  0  0  0
   20.0601   -3.7993  -15.4002 C   0  0  0  0  0  0  0  0  0  0  0  0
   21.7428   -5.6146  -15.2936 C   0  0  2  0  0  0  0  0  0  0  0  0
   21.9404   -7.0337  -15.3860 N   0  0  0  0  0  0  0  0  0  0  0  0
   22.2147   -5.0814  -14.0036 C   0  0  0  0  0  0  0  0  0  0  0  0
   22.0995   -5.8037  -12.9829 O   0  0  0  0  0  0  0  0  0  0  0  0
   22.7765   -3.8281  -13.8642 O   0  0  0  0  0  0  0  0  0  0  0  0
  2  4  1  0
  2  1  1  1
  2  3  1  0
  4 12  1  0
  5  4  2  0
  6  7  1  0
  7  8  2  0
  7  9  1  0
  9 10  1  0
 11 10  1  6
 12 11  1  0
 13 11  1  0
 13 19  1  0
 14 13  2  0
 16 15  1  6
 16 17  1  0
 18 19  1  1
 18 16  1  0
 20 18  1  0
 21 20  2  0
 22 20  1  0
M  END
$$$$
