AQV.pdb
     RDKit          3D

 22 21  0  0  1  0  0  0  0  0999 V2000
   22.0579  -10.9142  -21.2294 C   0  0  0  0  0  0  0  0  0  0  0  0
   22.9810  -10.1758  -20.2695 C   0  0  2  0  0  0  0  0  0  0  0  0
   23.7130  -11.0805  -19.4308 N   0  0  0  0  0  0  0  0  0  0  0  0
   22.1082   -9.3524  -19.3917 C   0  0  0  0  0  0  0  0  0  0  0  0
   21.4355   -8.4441  -19.9152 O   0  0  0  0  0  0  0  0  0  0  0  0
   18.8945  -11.2025  -14.4191 N   0  0  0  0  0  0  0  0  0  0  0  0
   18.7068   -9.8150  -14.3640 C   0  0  0  0  0  0  0  0  0  0  0  0
   17.9095   -9.3247  -13.5399 O   0  0  0  0  0  0  0  0  0  0  0  0
   19.4493   -8.9277  -15.2781 C   0  0  0  0  0  0  0  0  0  0  0  0
   20.3545   -9.7277  -16.2111 C   0  0  0  0  0  0  0  0  0  0  0  0
   21.1551   -8.8213  -17.1057 C   0  0  2  0  0  0  0  0  0  0  0  0
   22.0203   -9.5680  -17.9936 N   0  0  0  0  0  0  0  0  0  0  0  0
   21.8759   -7.7982  -16.3442 C   0  0  0  0  0  0  0  0  0  0  0  0
   22.9782   -8.0195  -15.7843 O   0  0  0  0  0  0  0  0  0  0  0  0
   20.0904   -3.9978  -15.9379 C   0  0  0  0  0  0  0  0  0  0  0  0
   21.6059   -4.1020  -16.1169 C   0  0  2  0  0  0  0  0  0  0  0  0
   21.8626   -4.0683  -17.6030 C   0  0  0  0  0  0  0  0  0  0  0  0
   22.0210   -5.4377  -15.5444 C   0  0  2  0  0  0  0  0  0  0  0  0
   21.3239   -6.4949  -16.2210 N   0  0  0  0  0  0  0  0  0  0  0  0
   21.8325   -5.5074  -14.0847 C   0  0  0  0  0  0  0  0  0  0  0  0
   20.9456   -6.2741  -13.6349 O   0  0  0  0  0  0  0  0  0  0  0  0
   22.5832   -4.7713  -13.1900 O   0  0  0  0  0  0  0  0  0  0  0  0
  2  4  1  0
  2  1  1  6
  2  3  1  0
  4 12  1  0
  5  4  2  0
  6  7  1  0
  7  8  2  0
  7  9  1  0
  9 10  1  0
 11 10  1  1
 12 11  1  0
 13 11  1  0
 13 19  1  0
 14 13  2  0
 16 15  1  6
 16 17  1  0
 18 19  1  6
 18 16  1  0
 20 18  1  0
 21 20  2  0
 22 20  1  0
M  END
$$$$
