AQV.pdb
     RDKit          3D

 22 21  0  0  1  0  0  0  0  0999 V2000
   24.9774  -25.4743  -15.3975 C   0  0  0  0  0  0  0  0  0  0  0  0
   25.2201  -23.9839  -15.5937 C   0  0  2  0  0  0  0  0  0  0  0  0
   26.4980  -23.5793  -15.0827 N   0  0  0  0  0  0  0  0  0  0  0  0
   24.1751  -23.2774  -14.8070 C   0  0  0  0  0  0  0  0  0  0  0  0
   22.9805  -23.5219  -15.0615 O   0  0  0  0  0  0  0  0  0  0  0  0
   24.8746  -20.6136   -9.1508 N   0  0  0  0  0  0  0  0  0  0  0  0
   25.8266  -20.6242  -10.1789 C   0  0  0  0  0  0  0  0  0  0  0  0
   27.0157  -20.3403   -9.9323 O   0  0  0  0  0  0  0  0  0  0  0  0
   25.4294  -20.9704  -11.5561 C   0  0  0  0  0  0  0  0  0  0  0  0
   23.9491  -21.3354  -11.6293 C   0  0  0  0  0  0  0  0  0  0  0  0
   23.5154  -21.5769  -13.0493 C   0  0  2  0  0  0  0  0  0  0  0  0
   24.4943  -22.3451  -13.7882 N   0  0  0  0  0  0  0  0  0  0  0  0
   23.1458  -20.3322  -13.7278 C   0  0  0  0  0  0  0  0  0  0  0  0
   23.9362  -19.3632  -13.8463 O   0  0  0  0  0  0  0  0  0  0  0  0
   20.0829  -20.4408  -16.4399 C   0  0  0  0  0  0  0  0  0  0  0  0
   21.1769  -19.3718  -16.4489 C   0  0  2  0  0  0  0  0  0  0  0  0
   22.3933  -20.0124  -17.0698 C   0  0  0  0  0  0  0  0  0  0  0  0
   21.4512  -19.0175  -15.0056 C   0  0  2  0  0  0  0  0  0  0  0  0
   21.8452  -20.1936  -14.2823 N   0  0  0  0  0  0  0  0  0  0  0  0
   20.3096  -18.3409  -14.3654 C   0  0  0  0  0  0  0  0  0  0  0  0
   19.7138  -18.9329  -13.4319 O   0  0  0  0  0  0  0  0  0  0  0  0
   19.8648  -17.0895  -14.7424 O   0  0  0  0  0  0  0  0  0  0  0  0
  2  4  1  0
  2  1  1  1
  2  3  1  0
  4 12  1  0
  5  4  2  0
  6  7  1  0
  7  8  2  0
  7  9  1  0
  9 10  1  0
 11 10  1  1
 12 11  1  0
 13 11  1  0
 13 19  1  0
 14 13  2  0
 16 15  1  1
 16 17  1  0
 18 19  1  1
 18 16  1  0
 20 18  1  0
 21 20  2  0
 22 20  1  0
M  END
$$$$
