AQV.pdb
     RDKit          3D

 22 21  0  0  1  0  0  0  0  0999 V2000
   29.0883  -18.8258  -15.1325 C   0  0  0  0  0  0  0  0  0  0  0  0
   27.8070  -19.1721  -15.8789 C   0  0  2  0  0  0  0  0  0  0  0  0
   27.4555  -18.1607  -16.8335 N   0  0  0  0  0  0  0  0  0  0  0  0
   26.7253  -19.2274  -14.8606 C   0  0  0  0  0  0  0  0  0  0  0  0
   26.2622  -18.1525  -14.4345 O   0  0  0  0  0  0  0  0  0  0  0  0
   21.6761  -22.5467  -14.8964 N   0  0  0  0  0  0  0  0  0  0  0  0
   21.5913  -21.9731  -13.6207 C   0  0  0  0  0  0  0  0  0  0  0  0
   20.5370  -22.0690  -12.9615 O   0  0  0  0  0  0  0  0  0  0  0  0
   22.7456  -21.2540  -13.0509 C   0  0  0  0  0  0  0  0  0  0  0  0
   23.9155  -21.2218  -14.0308 C   0  0  0  0  0  0  0  0  0  0  0  0
   25.1202  -20.5581  -13.4220 C   0  0  2  0  0  0  0  0  0  0  0  0
   26.2118  -20.4526  -14.3664 N   0  0  0  0  0  0  0  0  0  0  0  0
   25.5207  -21.1969  -12.1660 C   0  0  0  0  0  0  0  0  0  0  0  0
   25.9267  -22.3841  -12.1075 O   0  0  0  0  0  0  0  0  0  0  0  0
   26.1345  -19.1007   -8.3723 C   0  0  0  0  0  0  0  0  0  0  0  0
   26.7088  -20.4196   -8.8919 C   0  0  2  0  0  0  0  0  0  0  0  0
   27.8503  -20.0556   -9.8084 C   0  0  0  0  0  0  0  0  0  0  0  0
   25.6063  -21.0968   -9.6729 C   0  0  2  0  0  0  0  0  0  0  0  0
   25.4554  -20.4620  -10.9518 N   0  0  0  0  0  0  0  0  0  0  0  0
   24.3339  -21.1371   -8.9309 C   0  0  0  0  0  0  0  0  0  0  0  0
   24.2664  -21.8556   -7.9033 O   0  0  0  0  0  0  0  0  0  0  0  0
   23.2148  -20.4238   -9.3111 O   0  0  0  0  0  0  0  0  0  0  0  0
  2  4  1  0
  2  1  1  1
  2  3  1  0
  4 12  1  0
  5  4  2  0
  6  7  1  0
  7  8  2  0
  7  9  1  0
  9 10  1  0
 11 10  1  6
 12 11  1  0
 13 11  1  0
 13 19  1  0
 14 13  2  0
 16 15  1  6
 16 17  1  0
 18 19  1  6
 18 16  1  0
 20 18  1  0
 21 20  2  0
 22 20  1  0
M  END
$$$$
