GNT.pdb
     RDKit          3D

 20 19  0  0  1  0  0  0  0  0999 V2000
    7.9329  -13.4283   15.8720 N   0  0  0  0  0  0  0  0  0  0  0  0
    9.1388  -13.1039   16.6081 C   0  0  0  0  0  0  0  0  0  0  0  0
    9.5364  -14.2332   17.5023 C   0  0  0  0  0  0  0  0  0  0  0  0
    8.7853  -15.2067   17.7261 O   0  0  0  0  0  0  0  0  0  0  0  0
   12.7779  -17.8845   17.8052 N   0  0  0  0  0  0  0  0  0  0  0  0
   13.0006  -16.4759   17.6928 C   0  0  0  0  0  0  0  0  0  0  0  0
   13.4592  -16.0790   16.6058 O   0  0  0  0  0  0  0  0  0  0  0  0
   12.6852  -15.6062   18.8308 C   0  0  0  0  0  0  0  0  0  0  0  0
   11.2409  -15.2951   19.0389 C   0  0  2  0  0  0  0  0  0  0  0  0
   10.8077  -14.2172   18.1286 N   0  0  0  0  0  0  0  0  0  0  0  0
   10.9222  -14.8734   20.4444 C   0  0  0  0  0  0  0  0  0  0  0  0
   11.6245  -14.1051   21.1340 O   0  0  0  0  0  0  0  0  0  0  0  0
    7.7275  -13.2084   21.8610 C   0  0  0  0  0  0  0  0  0  0  0  0
    7.9446  -14.5767   22.4433 C   0  0  1  0  0  0  0  0  0  0  0  0
    7.1252  -15.5408   21.8626 O   0  0  0  0  0  0  0  0  0  0  0  0
    9.4096  -14.9863   22.4363 C   0  0  2  0  0  0  0  0  0  0  0  0
    9.7187  -15.3785   21.0739 N   0  0  0  0  0  0  0  0  0  0  0  0
    9.5075  -16.1891   23.3011 C   0  0  0  0  0  0  0  0  0  0  0  0
    9.2854  -16.1364   24.6728 O   0  0  0  0  0  0  0  0  0  0  0  0
    9.8006  -17.2871   22.7730 O   0  0  0  0  0  0  0  0  0  0  0  0
  1  2  1  0
  2  3  1  0
  3  4  2  0
  5  6  1  0
  6  8  1  0
  7  6  2  0
  9  8  1  1
 10  9  1  0
 10  3  1  0
 11 12  2  0
 11  9  1  0
 14 13  1  6
 14 16  1  0
 15 14  1  0
 16 17  1  6
 16 18  1  0
 17 11  1  0
 18 19  1  0
 20 18  2  0
M  END
$$$$
