GNT.pdb
     RDKit          3D

 20 19  0  0  1  0  0  0  0  0999 V2000
    8.9255  -18.9278   17.1457 N   0  0  0  0  0  0  0  0  0  0  0  0
    7.9903  -18.1183   17.9016 C   0  0  0  0  0  0  0  0  0  0  0  0
    8.7140  -17.1603   18.7913 C   0  0  0  0  0  0  0  0  0  0  0  0
    9.9513  -17.2074   18.9606 O   0  0  0  0  0  0  0  0  0  0  0  0
    6.3205  -12.6214   19.0151 N   0  0  0  0  0  0  0  0  0  0  0  0
    7.6012  -13.2177   19.2396 C   0  0  0  0  0  0  0  0  0  0  0  0
    8.4390  -13.0750   18.3300 O   0  0  0  0  0  0  0  0  0  0  0  0
    7.8465  -13.9416   20.4914 C   0  0  0  0  0  0  0  0  0  0  0  0
    8.6504  -15.1934   20.3792 C   0  0  2  0  0  0  0  0  0  0  0  0
    7.9875  -16.1548   19.4768 N   0  0  0  0  0  0  0  0  0  0  0  0
    8.8757  -15.8732   21.6990 C   0  0  0  0  0  0  0  0  0  0  0  0
    7.9766  -16.1498   22.5202 O   0  0  0  0  0  0  0  0  0  0  0  0
    9.8145  -19.2113   22.6005 C   0  0  0  0  0  0  0  0  0  0  0  0
   10.9322  -18.3066   23.0372 C   0  0  1  0  0  0  0  0  0  0  0  0
   12.0023  -18.3109   22.1467 O   0  0  0  0  0  0  0  0  0  0  0  0
   10.4514  -16.8983   23.3527 C   0  0  2  0  0  0  0  0  0  0  0  0
   10.2238  -16.2477   22.0759 N   0  0  0  0  0  0  0  0  0  0  0  0
   11.5837  -16.2156   24.0282 C   0  0  0  0  0  0  0  0  0  0  0  0
   11.9339  -16.4879   25.3461 O   0  0  0  0  0  0  0  0  0  0  0  0
   12.2433  -15.3659   23.3855 O   0  0  0  0  0  0  0  0  0  0  0  0
  1  2  1  0
  2  3  1  0
  3  4  2  0
  5  6  1  0
  6  8  1  0
  7  6  2  0
  9  8  1  1
 10  9  1  0
 10  3  1  0
 11 12  2  0
 11  9  1  0
 14 13  1  6
 14 16  1  0
 15 14  1  0
 16 17  1  6
 16 18  1  0
 17 11  1  0
 18 19  1  0
 20 18  2  0
M  END
$$$$
