GNT.pdb
     RDKit          3D

 20 19  0  0  1  0  0  0  0  0999 V2000
    7.7375  -14.0613   18.3214 N   0  0  0  0  0  0  0  0  0  0  0  0
    8.6006  -14.1167   19.4847 C   0  0  0  0  0  0  0  0  0  0  0  0
    7.8548  -14.6220   20.6769 C   0  0  0  0  0  0  0  0  0  0  0  0
    6.6194  -14.8098   20.6641 O   0  0  0  0  0  0  0  0  0  0  0  0
    6.0507  -17.7661   24.4923 N   0  0  0  0  0  0  0  0  0  0  0  0
    7.4303  -17.3883   24.4998 C   0  0  0  0  0  0  0  0  0  0  0  0
    8.0431  -17.5731   25.5674 O   0  0  0  0  0  0  0  0  0  0  0  0
    8.0260  -16.8219   23.2851 C   0  0  0  0  0  0  0  0  0  0  0  0
    7.8624  -15.3506   23.0983 C   0  0  2  0  0  0  0  0  0  0  0  0
    8.5572  -14.9042   21.8752 N   0  0  0  0  0  0  0  0  0  0  0  0
    8.3869  -14.5450   24.2519 C   0  0  0  0  0  0  0  0  0  0  0  0
    9.5913  -14.2778   24.4446 O   0  0  0  0  0  0  0  0  0  0  0  0
    6.4460  -11.2189   25.9527 C   0  0  0  0  0  0  0  0  0  0  0  0
    6.7537  -12.4034   26.8249 C   0  0  1  0  0  0  0  0  0  0  0  0
    5.6379  -13.2043   27.0518 O   0  0  0  0  0  0  0  0  0  0  0  0
    7.9441  -13.2044   26.3195 C   0  0  2  0  0  0  0  0  0  0  0  0
    7.4519  -14.0263   25.2298 N   0  0  0  0  0  0  0  0  0  0  0  0
    8.3444  -14.0996   27.4343 C   0  0  0  0  0  0  0  0  0  0  0  0
    8.2350  -15.4833   27.3501 O   0  0  0  0  0  0  0  0  0  0  0  0
    8.7956  -13.5868   28.4849 O   0  0  0  0  0  0  0  0  0  0  0  0
  1  2  1  0
  2  3  1  0
  3  4  2  0
  5  6  1  0
  6  8  1  0
  7  6  2  0
  9  8  1  1
 10  9  1  0
 10  3  1  0
 11 12  2  0
 11  9  1  0
 14 13  1  6
 14 16  1  0
 15 14  1  0
 16 17  1  6
 16 18  1  0
 17 11  1  0
 18 19  1  0
 20 18  2  0
M  END
$$$$
