DQY.pdb
     RDKit          3D

 30 30  0  0  1  0  0  0  0  0999 V2000
    7.4446  -19.6954   19.8041 N   0  0  0  0  0  0  0  0  0  0  0  0
    7.3061  -18.8311   20.9565 C   0  0  1  0  0  0  0  0  0  0  0  0
    7.2617  -19.7107   22.1921 C   0  0  0  0  0  0  0  0  0  0  0  0
    6.0876  -20.6079   22.1195 C   0  0  0  0  0  0  0  0  0  0  0  0
    6.1186  -21.5818   21.3329 O   0  0  0  0  0  0  0  0  0  0  0  0
    8.5028  -17.9538   21.0150 C   0  0  0  0  0  0  0  0  0  0  0  0
    9.6117  -18.3976   20.6906 O   0  0  0  0  0  0  0  0  0  0  0  0
    4.9561  -20.4047   22.8937 O   0  0  0  0  0  0  0  0  0  0  0  0
    8.6523  -12.0655   19.2979 N   0  0  0  0  0  0  0  0  0  0  0  0
    8.2681  -13.3160   18.7223 C   0  0  0  0  0  0  0  0  0  0  0  0
    7.6189  -13.2780   17.6827 O   0  0  0  0  0  0  0  0  0  0  0  0
    8.6660  -14.5320   19.3994 C   0  0  0  0  0  0  0  0  0  0  0  0
    9.3304  -14.4589   20.7132 C   0  0  0  0  0  0  0  0  0  0  0  0
    9.5566  -15.7032   21.4821 C   0  0  2  0  0  0  0  0  0  0  0  0
    8.4135  -16.5940   21.4400 N   0  0  0  0  0  0  0  0  0  0  0  0
   10.1589  -15.5229   22.8017 C   0  0  0  0  0  0  0  0  0  0  0  0
   11.2888  -14.9844   22.9956 O   0  0  0  0  0  0  0  0  0  0  0  0
    4.6192  -12.8983   25.9909 O   0  0  0  0  0  0  0  0  0  0  0  0
    5.9270  -13.3808   26.0295 C   0  0  0  0  0  0  0  0  0  0  0  0
    6.2156  -14.6320   25.5075 C   0  0  0  0  0  0  0  0  0  0  0  0
    7.5165  -15.1195   25.5424 C   0  0  0  0  0  0  0  0  0  0  0  0
    8.5424  -14.3924   26.0850 C   0  0  0  0  0  0  0  0  0  0  0  0
    9.9526  -14.8556   26.1501 C   0  0  0  0  0  0  0  0  0  0  0  0
   10.1914  -16.0715   25.2577 C   0  0  2  0  0  0  0  0  0  0  0  0
    9.4898  -15.9500   24.0102 N   0  0  0  0  0  0  0  0  0  0  0  0
    9.6825  -17.2524   25.9804 C   0  0  0  0  0  0  0  0  0  0  0  0
   10.1357  -17.5129   27.1184 O   0  0  0  0  0  0  0  0  0  0  0  0
    8.2170  -13.1456   26.5977 C   0  0  0  0  0  0  0  0  0  0  0  0
    6.9428  -12.6280   26.5822 C   0  0  0  0  0  0  0  0  0  0  0  0
    8.7149  -18.1160   25.4796 O   0  0  0  0  0  0  0  0  0  0  0  0
  2  1  1  6
  2  6  1  0
  3  2  1  0
  4  3  1  0
  4  5  2  0
  6 15  1  0
  6  7  2  0
  8  4  1  0
 10  9  1  0
 11 10  2  0
 12 10  1  0
 13 12  1  0
 14 13  1  1
 15 14  1  0
 16 14  1  0
 16 17  2  0
 18 19  1  0
 19 29  2  0
 20 19  1  0
 20 21  2  0
 21 22  1  0
 22 28  2  0
 22 23  1  0
 24 23  1  1
 24 25  1  0
 25 16  1  0
 26 24  1  0
 27 26  2  0
 29 28  1  0
 30 26  1  0
M  END
$$$$
