DQY.pdb
     RDKit          3D

 30 30  0  0  1  0  0  0  0  0999 V2000
    7.9721  -19.1186   20.8770 N   0  0  0  0  0  0  0  0  0  0  0  0
    9.2918  -19.0535   20.2865 C   0  0  1  0  0  0  0  0  0  0  0  0
    9.1256  -19.0749   18.7784 C   0  0  0  0  0  0  0  0  0  0  0  0
    8.9553  -20.4707   18.3186 C   0  0  0  0  0  0  0  0  0  0  0  0
    8.5090  -21.3216   19.1217 O   0  0  0  0  0  0  0  0  0  0  0  0
    9.9129  -17.7692   20.6988 C   0  0  0  0  0  0  0  0  0  0  0  0
   11.0708  -17.5026   20.3524 O   0  0  0  0  0  0  0  0  0  0  0  0
    9.2737  -20.8656   17.0288 O   0  0  0  0  0  0  0  0  0  0  0  0
    7.9989  -12.1553   19.9628 N   0  0  0  0  0  0  0  0  0  0  0  0
    7.7805  -13.4526   19.4043 C   0  0  0  0  0  0  0  0  0  0  0  0
    7.0575  -13.5224   18.4163 O   0  0  0  0  0  0  0  0  0  0  0  0
    8.4200  -14.5866   20.0372 C   0  0  0  0  0  0  0  0  0  0  0  0
    9.2115  -14.3938   21.2656 C   0  0  0  0  0  0  0  0  0  0  0  0
    9.7952  -15.5721   21.9450 C   0  0  2  0  0  0  0  0  0  0  0  0
    9.2059  -16.8177   21.4943 N   0  0  0  0  0  0  0  0  0  0  0  0
    9.9545  -15.4449   23.3924 C   0  0  0  0  0  0  0  0  0  0  0  0
   10.5439  -14.4761   23.9565 O   0  0  0  0  0  0  0  0  0  0  0  0
    5.8453  -11.2745   26.1936 O   0  0  0  0  0  0  0  0  0  0  0  0
    6.4631  -12.5223   26.2711 C   0  0  0  0  0  0  0  0  0  0  0  0
    5.8304  -13.6382   25.7461 C   0  0  0  0  0  0  0  0  0  0  0  0
    6.4399  -14.8850   25.8196 C   0  0  0  0  0  0  0  0  0  0  0  0
    7.6671  -15.0520   26.4039 C   0  0  0  0  0  0  0  0  0  0  0  0
    8.3717  -16.3556   26.5115 C   0  0  0  0  0  0  0  0  0  0  0  0
    9.6778  -16.3607   25.7204 C   0  0  2  0  0  0  0  0  0  0  0  0
    9.4324  -16.4358   24.3071 N   0  0  0  0  0  0  0  0  0  0  0  0
   10.4390  -17.5530   26.1384 C   0  0  0  0  0  0  0  0  0  0  0  0
   10.6492  -18.4649   25.3063 O   0  0  0  0  0  0  0  0  0  0  0  0
    8.2704  -13.9141   26.9184 C   0  0  0  0  0  0  0  0  0  0  0  0
    7.7004  -12.6634   26.8654 C   0  0  0  0  0  0  0  0  0  0  0  0
   10.9519  -17.7421   27.4168 O   0  0  0  0  0  0  0  0  0  0  0  0
  2  1  1  1
  2  6  1  0
  3  2  1  0
  4  3  1  0
  4  5  2  0
  6 15  1  0
  6  7  2  0
  8  4  1  0
 10  9  1  0
 11 10  2  0
 12 10  1  0
 13 12  1  0
 14 13  1  1
 15 14  1  0
 16 14  1  0
 16 17  2  0
 18 19  1  0
 19 29  2  0
 20 19  1  0
 20 21  2  0
 21 22  1  0
 22 28  2  0
 22 23  1  0
 24 23  1  1
 24 25  1  0
 25 16  1  0
 26 24  1  0
 27 26  2  0
 29 28  1  0
 30 26  1  0
M  END
$$$$
