DQY.pdb
     RDKit          3D

 30 30  0  0  1  0  0  0  0  0999 V2000
   13.0099  -17.3970   19.3781 N   0  0  0  0  0  0  0  0  0  0  0  0
   12.9604  -17.2184   20.8134 C   0  0  1  0  0  0  0  0  0  0  0  0
   13.4256  -15.8071   21.1205 C   0  0  0  0  0  0  0  0  0  0  0  0
   14.8683  -15.8212   21.4475 C   0  0  0  0  0  0  0  0  0  0  0  0
   15.6565  -16.4188   20.6795 O   0  0  0  0  0  0  0  0  0  0  0  0
   11.5486  -17.3801   21.2445 C   0  0  0  0  0  0  0  0  0  0  0  0
   10.6959  -17.7703   20.4369 O   0  0  0  0  0  0  0  0  0  0  0  0
   15.3743  -15.1947   22.5755 O   0  0  0  0  0  0  0  0  0  0  0  0
    8.2604  -21.4653   22.6156 N   0  0  0  0  0  0  0  0  0  0  0  0
    8.5955  -20.7313   21.4360 C   0  0  0  0  0  0  0  0  0  0  0  0
    8.0506  -21.0711   20.3913 O   0  0  0  0  0  0  0  0  0  0  0  0
    9.5477  -19.6472   21.5519 C   0  0  0  0  0  0  0  0  0  0  0  0
   10.0650  -19.2609   22.8770 C   0  0  0  0  0  0  0  0  0  0  0  0
   10.0875  -17.8310   23.2584 C   0  0  2  0  0  0  0  0  0  0  0  0
   11.1375  -17.0952   22.5815 N   0  0  0  0  0  0  0  0  0  0  0  0
    9.9607  -17.5628   24.6897 C   0  0  0  0  0  0  0  0  0  0  0  0
    9.3223  -18.3042   25.4942 O   0  0  0  0  0  0  0  0  0  0  0  0
    5.5403  -10.9731   27.7198 O   0  0  0  0  0  0  0  0  0  0  0  0
    6.3072  -11.9357   27.0642 C   0  0  0  0  0  0  0  0  0  0  0  0
    5.6908  -13.0443   26.5053 C   0  0  0  0  0  0  0  0  0  0  0  0
    6.4485  -14.0078   25.8503 C   0  0  0  0  0  0  0  0  0  0  0  0
    7.8087  -13.8973   25.7360 C   0  0  0  0  0  0  0  0  0  0  0  0
    8.6733  -14.8899   25.0470 C   0  0  0  0  0  0  0  0  0  0  0  0
    9.7921  -15.3941   25.9557 C   0  0  2  0  0  0  0  0  0  0  0  0
   10.5752  -16.4085   25.3067 N   0  0  0  0  0  0  0  0  0  0  0  0
    9.1563  -15.9734   27.1540 C   0  0  0  0  0  0  0  0  0  0  0  0
    8.7689  -15.2100   28.0680 O   0  0  0  0  0  0  0  0  0  0  0  0
    8.3912  -12.7756   26.3069 C   0  0  0  0  0  0  0  0  0  0  0  0
    7.6766  -11.8006   26.9629 C   0  0  0  0  0  0  0  0  0  0  0  0
    8.9507  -17.3348   27.3467 O   0  0  0  0  0  0  0  0  0  0  0  0
  2  1  1  6
  2  6  1  0
  3  2  1  0
  4  3  1  0
  4  5  2  0
  6 15  1  0
  6  7  2  0
  8  4  1  0
 10  9  1  0
 11 10  2  0
 12 10  1  0
 13 12  1  0
 14 13  1  1
 15 14  1  0
 16 14  1  0
 16 17  2  0
 18 19  1  0
 19 29  2  0
 20 19  1  0
 20 21  2  0
 21 22  1  0
 22 28  2  0
 22 23  1  0
 24 23  1  6
 24 25  1  0
 25 16  1  0
 26 24  1  0
 27 26  2  0
 29 28  1  0
 30 26  1  0
M  END
$$$$
