DQY.pdb
     RDKit          3D

 30 30  0  0  1  0  0  0  0  0999 V2000
   12.2682  -14.6663   17.4072 N   0  0  0  0  0  0  0  0  0  0  0  0
   12.8592  -15.3173   18.5567 C   0  0  1  0  0  0  0  0  0  0  0  0
   14.1180  -14.5539   18.9244 C   0  0  0  0  0  0  0  0  0  0  0  0
   15.1324  -14.7302   17.8621 C   0  0  0  0  0  0  0  0  0  0  0  0
   16.0145  -13.8533   17.7169 O   0  0  0  0  0  0  0  0  0  0  0  0
   11.8864  -15.2380   19.6758 C   0  0  0  0  0  0  0  0  0  0  0  0
   11.5366  -14.1349   20.1146 O   0  0  0  0  0  0  0  0  0  0  0  0
   15.1370  -15.8338   17.0236 O   0  0  0  0  0  0  0  0  0  0  0  0
    8.4780  -19.8055   19.7441 N   0  0  0  0  0  0  0  0  0  0  0  0
    8.1638  -18.5896   19.0617 C   0  0  0  0  0  0  0  0  0  0  0  0
    7.5841  -18.6853   17.9853 O   0  0  0  0  0  0  0  0  0  0  0  0
    8.5486  -17.3386   19.6801 C   0  0  0  0  0  0  0  0  0  0  0  0
    9.2046  -17.3416   21.0001 C   0  0  0  0  0  0  0  0  0  0  0  0
   10.2877  -16.3709   21.2742 C   0  0  2  0  0  0  0  0  0  0  0  0
   11.3333  -16.4119   20.2707 N   0  0  0  0  0  0  0  0  0  0  0  0
   10.7533  -16.3271   22.6591 C   0  0  0  0  0  0  0  0  0  0  0  0
   11.7128  -17.0236   23.1049 O   0  0  0  0  0  0  0  0  0  0  0  0
   10.1759  -15.4704   31.4660 O   0  0  0  0  0  0  0  0  0  0  0  0
   10.0239  -15.2692   30.0945 C   0  0  0  0  0  0  0  0  0  0  0  0
   11.0789  -14.7635   29.3511 C   0  0  0  0  0  0  0  0  0  0  0  0
   10.9348  -14.5603   27.9839 C   0  0  0  0  0  0  0  0  0  0  0  0
    9.7644  -14.8482   27.3337 C   0  0  0  0  0  0  0  0  0  0  0  0
    9.5484  -14.6564   25.8763 C   0  0  0  0  0  0  0  0  0  0  0  0
   10.4056  -15.6092   25.0462 C   0  0  2  0  0  0  0  0  0  0  0  0
   10.1426  -15.4600   23.6420 N   0  0  0  0  0  0  0  0  0  0  0  0
   10.0565  -16.9826   25.4556 C   0  0  0  0  0  0  0  0  0  0  0  0
   10.8406  -17.6152   26.1994 O   0  0  0  0  0  0  0  0  0  0  0  0
    8.7308  -15.3523   28.1087 C   0  0  0  0  0  0  0  0  0  0  0  0
    8.8337  -15.5674   29.4634 C   0  0  0  0  0  0  0  0  0  0  0  0
    8.8946  -17.6404   25.0678 O   0  0  0  0  0  0  0  0  0  0  0  0
  2  1  1  6
  2  6  1  0
  3  2  1  0
  4  3  1  0
  4  5  2  0
  6 15  1  0
  6  7  2  0
  8  4  1  0
 10  9  1  0
 11 10  2  0
 12 10  1  0
 13 12  1  0
 14 13  1  1
 15 14  1  0
 16 14  1  0
 16 17  2  0
 18 19  1  0
 19 29  2  0
 20 19  1  0
 20 21  2  0
 21 22  1  0
 22 28  2  0
 22 23  1  0
 24 23  1  1
 24 25  1  0
 25 16  1  0
 26 24  1  0
 27 26  2  0
 29 28  1  0
 30 26  1  0
M  END
$$$$
