DQY.pdb
     RDKit          3D

 30 30  0  0  1  0  0  0  0  0999 V2000
   14.1531  -15.2281   20.0264 N   0  0  0  0  0  0  0  0  0  0  0  0
   13.1590  -16.2245   20.3630 C   0  0  1  0  0  0  0  0  0  0  0  0
   13.8228  -17.2579   21.2541 C   0  0  0  0  0  0  0  0  0  0  0  0
   14.7334  -18.0977   20.4453 C   0  0  0  0  0  0  0  0  0  0  0  0
   14.2663  -18.7312   19.4713 O   0  0  0  0  0  0  0  0  0  0  0  0
   12.0711  -15.5477   21.1138 C   0  0  0  0  0  0  0  0  0  0  0  0
   12.3456  -14.7993   22.0606 O   0  0  0  0  0  0  0  0  0  0  0  0
   16.0853  -18.2052   20.7313 O   0  0  0  0  0  0  0  0  0  0  0  0
    6.9341  -12.2516   19.0188 N   0  0  0  0  0  0  0  0  0  0  0  0
    7.8607  -13.2388   18.5613 C   0  0  0  0  0  0  0  0  0  0  0  0
    7.7233  -13.6463   17.4129 O   0  0  0  0  0  0  0  0  0  0  0  0
    8.8888  -13.6884   19.4758 C   0  0  0  0  0  0  0  0  0  0  0  0
    8.5461  -14.6147   20.5701 C   0  0  0  0  0  0  0  0  0  0  0  0
    9.6122  -15.0868   21.4817 C   0  0  2  0  0  0  0  0  0  0  0  0
   10.6977  -15.7358   20.7729 N   0  0  0  0  0  0  0  0  0  0  0  0
    9.1480  -15.7801   22.6819 C   0  0  0  0  0  0  0  0  0  0  0  0
    9.2209  -17.0338   22.8470 O   0  0  0  0  0  0  0  0  0  0  0  0
   11.4899  -14.9116   30.1230 O   0  0  0  0  0  0  0  0  0  0  0  0
   10.5263  -14.8807   29.1154 C   0  0  0  0  0  0  0  0  0  0  0  0
   10.0451  -13.6635   28.6592 C   0  0  0  0  0  0  0  0  0  0  0  0
    9.0848  -13.6248   27.6553 C   0  0  0  0  0  0  0  0  0  0  0  0
    8.5885  -14.7695   27.0908 C   0  0  0  0  0  0  0  0  0  0  0  0
    7.5649  -14.7952   26.0142 C   0  0  0  0  0  0  0  0  0  0  0  0
    7.9459  -15.7593   24.8930 C   0  0  2  0  0  0  0  0  0  0  0  0
    8.5647  -15.0675   23.7967 N   0  0  0  0  0  0  0  0  0  0  0  0
    6.7016  -16.3933   24.4181 C   0  0  0  0  0  0  0  0  0  0  0  0
    6.0899  -17.1797   25.1768 O   0  0  0  0  0  0  0  0  0  0  0  0
    9.0926  -15.9687   27.5717 C   0  0  0  0  0  0  0  0  0  0  0  0
   10.0425  -16.0490   28.5632 C   0  0  0  0  0  0  0  0  0  0  0  0
    6.1458  -16.1762   23.1623 O   0  0  0  0  0  0  0  0  0  0  0  0
  2  1  1  1
  2  6  1  0
  3  2  1  0
  4  3  1  0
  4  5  2  0
  6 15  1  0
  6  7  2  0
  8  4  1  0
 10  9  1  0
 11 10  2  0
 12 10  1  0
 13 12  1  0
 14 13  1  6
 15 14  1  0
 16 14  1  0
 16 17  2  0
 18 19  1  0
 19 29  2  0
 20 19  1  0
 20 21  2  0
 21 22  1  0
 22 28  2  0
 22 23  1  0
 24 23  1  1
 24 25  1  0
 25 16  1  0
 26 24  1  0
 27 26  2  0
 29 28  1  0
 30 26  1  0
M  END
$$$$
