DQY.pdb
     RDKit          3D

 30 30  0  0  1  0  0  0  0  0999 V2000
    8.6348  -18.8494   16.7311 N   0  0  0  0  0  0  0  0  0  0  0  0
    9.4695  -17.8372   17.3419 C   0  0  1  0  0  0  0  0  0  0  0  0
    9.0084  -16.4857   16.8288 C   0  0  0  0  0  0  0  0  0  0  0  0
    9.4911  -16.2907   15.4439 C   0  0  0  0  0  0  0  0  0  0  0  0
   10.1026  -17.2264   14.8794 O   0  0  0  0  0  0  0  0  0  0  0  0
    9.2670  -17.9052   18.8114 C   0  0  0  0  0  0  0  0  0  0  0  0
    8.1448  -17.7000   19.2915 O   0  0  0  0  0  0  0  0  0  0  0  0
    9.2881  -15.1065   14.7528 O   0  0  0  0  0  0  0  0  0  0  0  0
   12.2497  -21.7661   22.7860 N   0  0  0  0  0  0  0  0  0  0  0  0
   11.4179  -20.9987   23.6589 C   0  0  0  0  0  0  0  0  0  0  0  0
   11.3631  -21.3501   24.8324 O   0  0  0  0  0  0  0  0  0  0  0  0
   10.7017  -19.8695   23.1043 C   0  0  0  0  0  0  0  0  0  0  0  0
   10.8127  -19.5620   21.6670 C   0  0  0  0  0  0  0  0  0  0  0  0
   10.1660  -18.3420   21.1341 C   0  0  2  0  0  0  0  0  0  0  0  0
   10.3421  -18.2042   19.7017 N   0  0  0  0  0  0  0  0  0  0  0  0
   10.3912  -17.1241   21.9105 C   0  0  0  0  0  0  0  0  0  0  0  0
   11.4816  -16.4796   21.9146 O   0  0  0  0  0  0  0  0  0  0  0  0
    7.1816  -13.0925   17.8802 O   0  0  0  0  0  0  0  0  0  0  0  0
    7.4514  -13.4187   19.2089 C   0  0  0  0  0  0  0  0  0  0  0  0
    6.7011  -14.3954   19.8447 C   0  0  0  0  0  0  0  0  0  0  0  0
    6.9642  -14.7258   21.1687 C   0  0  0  0  0  0  0  0  0  0  0  0
    7.9580  -14.1079   21.8800 C   0  0  0  0  0  0  0  0  0  0  0  0
    8.2902  -14.4173   23.2947 C   0  0  0  0  0  0  0  0  0  0  0  0
    9.5401  -15.2874   23.4061 C   0  0  2  0  0  0  0  0  0  0  0  0
    9.3589  -16.5493   22.7442 N   0  0  0  0  0  0  0  0  0  0  0  0
    9.7795  -15.5294   24.8413 C   0  0  0  0  0  0  0  0  0  0  0  0
   10.0178  -14.5560   25.5923 O   0  0  0  0  0  0  0  0  0  0  0  0
    8.6881  -13.1361   21.2122 C   0  0  0  0  0  0  0  0  0  0  0  0
    8.4587  -12.7808   19.9034 C   0  0  0  0  0  0  0  0  0  0  0  0
    9.7588  -16.7868   25.4342 O   0  0  0  0  0  0  0  0  0  0  0  0
  2  1  1  6
  2  6  1  0
  3  2  1  0
  4  3  1  0
  4  5  2  0
  6 15  1  0
  6  7  2  0
  8  4  1  0
 10  9  1  0
 11 10  2  0
 12 10  1  0
 13 12  1  0
 14 13  1  1
 15 14  1  0
 16 14  1  0
 16 17  2  0
 18 19  1  0
 19 29  2  0
 20 19  1  0
 20 21  2  0
 21 22  1  0
 22 28  2  0
 22 23  1  0
 24 23  1  1
 24 25  1  0
 25 16  1  0
 26 24  1  0
 27 26  2  0
 29 28  1  0
 30 26  1  0
M  END
$$$$
