DQY.pdb
     RDKit          3D

 30 30  0  0  1  0  0  0  0  0999 V2000
    9.2617  -17.7285   19.1829 N   0  0  0  0  0  0  0  0  0  0  0  0
   10.0758  -18.3085   20.2294 C   0  0  1  0  0  0  0  0  0  0  0  0
   11.5102  -17.8725   19.9952 C   0  0  0  0  0  0  0  0  0  0  0  0
   12.2792  -18.9928   19.4101 C   0  0  0  0  0  0  0  0  0  0  0  0
   11.6788  -20.0537   19.1236 O   0  0  0  0  0  0  0  0  0  0  0  0
    9.5996  -17.7699   21.5288 C   0  0  0  0  0  0  0  0  0  0  0  0
    9.3556  -16.5622   21.6459 O   0  0  0  0  0  0  0  0  0  0  0  0
   13.6413  -18.9050   19.1693 O   0  0  0  0  0  0  0  0  0  0  0  0
    6.6154  -21.1046   26.1116 N   0  0  0  0  0  0  0  0  0  0  0  0
    6.7946  -19.8173   26.7062 C   0  0  0  0  0  0  0  0  0  0  0  0
    6.2299  -19.6106   27.7748 O   0  0  0  0  0  0  0  0  0  0  0  0
    7.6216  -18.8525   26.0129 C   0  0  0  0  0  0  0  0  0  0  0  0
    8.1221  -19.1506   24.6589 C   0  0  0  0  0  0  0  0  0  0  0  0
    8.9100  -18.1278   23.9351 C   0  0  2  0  0  0  0  0  0  0  0  0
    9.4115  -18.6139   22.6646 N   0  0  0  0  0  0  0  0  0  0  0  0
    9.8772  -17.3921   24.7475 C   0  0  0  0  0  0  0  0  0  0  0  0
   11.0979  -17.7122   24.8563 O   0  0  0  0  0  0  0  0  0  0  0  0
    4.8523  -12.7626   27.6500 O   0  0  0  0  0  0  0  0  0  0  0  0
    6.1568  -13.0424   27.2443 C   0  0  0  0  0  0  0  0  0  0  0  0
    7.2232  -12.6672   28.0463 C   0  0  0  0  0  0  0  0  0  0  0  0
    8.5261  -12.9427   27.6486 C   0  0  0  0  0  0  0  0  0  0  0  0
    8.7974  -13.5843   26.4696 C   0  0  0  0  0  0  0  0  0  0  0  0
   10.1655  -13.9096   25.9902 C   0  0  0  0  0  0  0  0  0  0  0  0
   10.4846  -15.3941   26.1522 C   0  0  2  0  0  0  0  0  0  0  0  0
    9.5033  -16.2139   25.4978 N   0  0  0  0  0  0  0  0  0  0  0  0
   10.4698  -15.6906   27.5971 C   0  0  0  0  0  0  0  0  0  0  0  0
   11.2620  -15.0823   28.3525 O   0  0  0  0  0  0  0  0  0  0  0  0
    7.7064  -13.9448   25.6930 C   0  0  0  0  0  0  0  0  0  0  0  0
    6.4030  -13.6902   26.0512 C   0  0  0  0  0  0  0  0  0  0  0  0
    9.6216  -16.6160   28.1946 O   0  0  0  0  0  0  0  0  0  0  0  0
  2  1  1  6
  2  6  1  0
  3  2  1  0
  4  3  1  0
  4  5  2  0
  6 15  1  0
  6  7  2  0
  8  4  1  0
 10  9  1  0
 11 10  2  0
 12 10  1  0
 13 12  1  0
 14 13  1  1
 15 14  1  0
 16 14  1  0
 16 17  2  0
 18 19  1  0
 19 29  2  0
 20 19  1  0
 20 21  2  0
 21 22  1  0
 22 28  2  0
 22 23  1  0
 24 23  1  1
 24 25  1  0
 25 16  1  0
 26 24  1  0
 27 26  2  0
 29 28  1  0
 30 26  1  0
M  END
$$$$
