EGI.pdb
     RDKit          3D

 22 21  0  0  1  0  0  0  0  0999 V2000
    9.1676  -18.6356   20.0703 N   0  0  0  0  0  0  0  0  0  0  0  0
    8.6248  -17.3765   19.5149 C   0  0  1  0  0  0  0  0  0  0  0  0
    7.6635  -17.7657   18.4240 C   0  0  0  0  0  0  0  0  0  0  0  0
    8.1678  -17.4962   17.0600 C   0  0  0  0  0  0  0  0  0  0  0  0
    9.1548  -18.4878   16.6250 C   0  0  0  0  0  0  0  0  0  0  0  0
   10.3735  -18.2790   16.7737 O   0  0  0  0  0  0  0  0  0  0  0  0
    7.9074  -16.6802   20.6186 C   0  0  0  0  0  0  0  0  0  0  0  0
    7.6765  -15.4254   20.5186 O   0  0  0  0  0  0  0  0  0  0  0  0
    8.7923  -19.7009   16.0301 O   0  0  0  0  0  0  0  0  0  0  0  0
    7.4788  -17.3691   21.7594 N   0  0  0  0  0  0  0  0  0  0  0  0
    6.8094  -16.5986   22.7973 C   0  0  0  0  0  0  0  0  0  0  0  0
    7.8244  -16.0403   23.7223 C   0  0  0  0  0  0  0  0  0  0  0  0
    9.0678  -16.1227   23.5417 O   0  0  0  0  0  0  0  0  0  0  0  0
    5.8120  -11.7794   26.2952 C   0  0  0  0  0  0  0  0  0  0  0  0
    6.7152  -12.7208   25.5886 C   0  0  0  0  0  0  0  0  0  0  0  0
    7.5997  -13.5758   26.4147 C   0  0  2  0  0  0  0  0  0  0  0  0
    8.4029  -12.8552   27.4557 C   0  0  0  0  0  0  0  0  0  0  0  0
    8.3991  -14.6416   25.7390 C   0  0  2  0  0  0  0  0  0  0  0  0
    7.4053  -15.3622   24.8984 N   0  0  0  0  0  0  0  0  0  0  0  0
    9.0062  -15.5973   26.6742 C   0  0  0  0  0  0  0  0  0  0  0  0
   10.2991  -15.5980   27.1282 O   0  0  0  0  0  0  0  0  0  0  0  0
    8.2738  -16.5523   27.1320 O   0  0  0  0  0  0  0  0  0  0  0  0
  2  1  1  1
  2  3  1  0
  3  4  1  0
  4  5  1  0
  5  9  1  0
  6  5  2  0
  7  2  1  0
  7  8  2  0
 10  7  1  0
 11 10  1  0
 11 12  1  0
 12 13  2  0
 12 19  1  0
 15 14  1  0
 16 15  1  0
 16 17  1  6
 18 16  1  0
 18 20  1  0
 18 19  1  6
 20 21  1  0
 22 20  2  0
M  END
$$$$
