EGI.pdb
     RDKit          3D

 22 21  0  0  1  0  0  0  0  0999 V2000
    9.8371  -19.0199   20.6123 N   0  0  0  0  0  0  0  0  0  0  0  0
   10.3673  -17.6981   20.2119 C   0  0  1  0  0  0  0  0  0  0  0  0
   10.3088  -17.6477   18.7087 C   0  0  0  0  0  0  0  0  0  0  0  0
    9.1061  -18.2905   18.1363 C   0  0  0  0  0  0  0  0  0  0  0  0
    9.1544  -18.3599   16.6736 C   0  0  0  0  0  0  0  0  0  0  0  0
    8.6042  -19.2955   16.0631 O   0  0  0  0  0  0  0  0  0  0  0  0
    9.4722  -16.6655   20.8038 C   0  0  0  0  0  0  0  0  0  0  0  0
    9.7148  -15.4287   20.5825 O   0  0  0  0  0  0  0  0  0  0  0  0
    9.8080  -17.3988   15.8949 O   0  0  0  0  0  0  0  0  0  0  0  0
    8.3716  -17.0195   21.5931 N   0  0  0  0  0  0  0  0  0  0  0  0
    7.6390  -15.9438   22.2450 C   0  0  0  0  0  0  0  0  0  0  0  0
    8.3466  -15.5542   23.4879 C   0  0  0  0  0  0  0  0  0  0  0  0
    9.5260  -15.8953   23.7672 O   0  0  0  0  0  0  0  0  0  0  0  0
    5.6424  -11.5856   26.1736 C   0  0  0  0  0  0  0  0  0  0  0  0
    6.6785  -12.4094   25.5033 C   0  0  0  0  0  0  0  0  0  0  0  0
    7.4428  -13.3657   26.3382 C   0  0  2  0  0  0  0  0  0  0  0  0
    8.0056  -12.8041   27.6095 C   0  0  0  0  0  0  0  0  0  0  0  0
    8.4062  -14.2898   25.6677 C   0  0  2  0  0  0  0  0  0  0  0  0
    7.6838  -14.7446   24.4492 N   0  0  0  0  0  0  0  0  0  0  0  0
    8.7484  -15.4652   26.4787 C   0  0  0  0  0  0  0  0  0  0  0  0
    9.8994  -15.6657   27.1947 O   0  0  0  0  0  0  0  0  0  0  0  0
    7.8996  -16.4315   26.5412 O   0  0  0  0  0  0  0  0  0  0  0  0
  2  1  1  1
  2  3  1  0
  3  4  1  0
  4  5  1  0
  5  9  1  0
  6  5  2  0
  7  2  1  0
  7  8  2  0
 10  7  1  0
 11 10  1  0
 11 12  1  0
 12 13  2  0
 12 19  1  0
 15 14  1  0
 16 15  1  0
 16 17  1  1
 18 16  1  0
 18 20  1  0
 18 19  1  6
 20 21  1  0
 22 20  2  0
M  END
$$$$
