EGI.pdb
     RDKit          3D

 22 21  0  0  1  0  0  0  0  0999 V2000
   10.8251  -18.1724   20.3037 N   0  0  0  0  0  0  0  0  0  0  0  0
    9.4105  -18.0295   19.8950 C   0  0  1  0  0  0  0  0  0  0  0  0
    8.9953  -19.3523   19.3092 C   0  0  0  0  0  0  0  0  0  0  0  0
    8.6245  -19.2818   17.8793 C   0  0  0  0  0  0  0  0  0  0  0  0
    9.3320  -20.2778   17.0706 C   0  0  0  0  0  0  0  0  0  0  0  0
    9.3340  -21.4788   17.4000 O   0  0  0  0  0  0  0  0  0  0  0  0
    8.6236  -17.7331   21.1242 C   0  0  0  0  0  0  0  0  0  0  0  0
    8.6263  -18.5779   22.0854 O   0  0  0  0  0  0  0  0  0  0  0  0
   10.0314  -19.9437   15.9059 O   0  0  0  0  0  0  0  0  0  0  0  0
    7.8851  -16.5506   21.2504 N   0  0  0  0  0  0  0  0  0  0  0  0
    7.1656  -16.3381   22.4979 C   0  0  0  0  0  0  0  0  0  0  0  0
    8.0476  -15.6295   23.4557 C   0  0  0  0  0  0  0  0  0  0  0  0
    9.2608  -15.3697   23.2415 O   0  0  0  0  0  0  0  0  0  0  0  0
    5.6160  -11.7428   26.0183 C   0  0  0  0  0  0  0  0  0  0  0  0
    6.6322  -12.6189   25.3849 C   0  0  0  0  0  0  0  0  0  0  0  0
    7.4735  -13.4518   26.2762 C   0  0  2  0  0  0  0  0  0  0  0  0
    8.1296  -12.7219   27.4097 C   0  0  0  0  0  0  0  0  0  0  0  0
    8.3914  -14.4566   25.6602 C   0  0  2  0  0  0  0  0  0  0  0  0
    7.5260  -15.2009   24.7059 N   0  0  0  0  0  0  0  0  0  0  0  0
    8.9505  -15.4078   26.6294 C   0  0  0  0  0  0  0  0  0  0  0  0
    8.4877  -16.6667   26.9096 O   0  0  0  0  0  0  0  0  0  0  0  0
    9.9839  -15.0499   27.3091 O   0  0  0  0  0  0  0  0  0  0  0  0
  2  1  1  1
  2  3  1  0
  3  4  1  0
  4  5  1  0
  5  9  1  0
  6  5  2  0
  7  2  1  0
  7  8  2  0
 10  7  1  0
 11 10  1  0
 11 12  1  0
 12 13  2  0
 12 19  1  0
 15 14  1  0
 16 15  1  0
 16 17  1  6
 18 16  1  0
 18 20  1  0
 18 19  1  6
 20 21  1  0
 22 20  2  0
M  END
$$$$
