EGI.pdb
     RDKit          3D

 22 21  0  0  1  0  0  0  0  0999 V2000
    8.9592  -16.9397   18.7535 N   0  0  0  0  0  0  0  0  0  0  0  0
    8.4431  -17.8511   19.7982 C   0  0  1  0  0  0  0  0  0  0  0  0
    9.6441  -18.4511   20.4786 C   0  0  0  0  0  0  0  0  0  0  0  0
   10.9051  -17.7251   20.2131 C   0  0  0  0  0  0  0  0  0  0  0  0
   12.0687  -18.3986   20.7954 C   0  0  0  0  0  0  0  0  0  0  0  0
   13.2021  -17.8881   20.7201 O   0  0  0  0  0  0  0  0  0  0  0  0
    7.6589  -17.0245   20.7572 C   0  0  0  0  0  0  0  0  0  0  0  0
    6.9161  -17.6074   21.6209 O   0  0  0  0  0  0  0  0  0  0  0  0
   11.9752  -19.6283   21.4557 O   0  0  0  0  0  0  0  0  0  0  0  0
    7.7199  -15.6262   20.7350 N   0  0  0  0  0  0  0  0  0  0  0  0
    7.0059  -14.9062   21.7794 C   0  0  0  0  0  0  0  0  0  0  0  0
    7.8652  -14.8136   22.9837 C   0  0  0  0  0  0  0  0  0  0  0  0
    9.0882  -15.1122   23.0049 O   0  0  0  0  0  0  0  0  0  0  0  0
    5.9462  -11.4766   27.1421 C   0  0  0  0  0  0  0  0  0  0  0  0
    6.3379  -12.7378   26.4658 C   0  0  0  0  0  0  0  0  0  0  0  0
    7.7246  -12.8413   25.9538 C   0  0  2  0  0  0  0  0  0  0  0  0
    8.1919  -11.6849   25.1216 C   0  0  0  0  0  0  0  0  0  0  0  0
    8.1848  -14.1475   25.3936 C   0  0  2  0  0  0  0  0  0  0  0  0
    7.3084  -14.3635   24.2109 N   0  0  0  0  0  0  0  0  0  0  0  0
    8.0114  -15.2735   26.3202 C   0  0  0  0  0  0  0  0  0  0  0  0
    7.0368  -16.2356   26.2748 O   0  0  0  0  0  0  0  0  0  0  0  0
    8.8450  -15.3964   27.2940 O   0  0  0  0  0  0  0  0  0  0  0  0
  2  1  1  6
  2  3  1  0
  3  4  1  0
  4  5  1  0
  5  9  1  0
  6  5  2  0
  7  2  1  0
  7  8  2  0
 10  7  1  0
 11 10  1  0
 11 12  1  0
 12 13  2  0
 12 19  1  0
 15 14  1  0
 16 15  1  0
 16 17  1  6
 18 16  1  0
 18 20  1  0
 18 19  1  6
 20 21  1  0
 22 20  2  0
M  END
$$$$
