EGI.pdb
     RDKit          3D

 22 21  0  0  1  0  0  0  0  0999 V2000
    9.4022  -17.3355   18.9995 N   0  0  0  0  0  0  0  0  0  0  0  0
    9.2135  -18.3225   20.0853 C   0  0  1  0  0  0  0  0  0  0  0  0
   10.5799  -18.6142   20.6448 C   0  0  0  0  0  0  0  0  0  0  0  0
   11.3327  -17.4049   21.0426 C   0  0  0  0  0  0  0  0  0  0  0  0
   12.6995  -17.7149   21.4695 C   0  0  0  0  0  0  0  0  0  0  0  0
   13.5398  -18.1382   20.6536 O   0  0  0  0  0  0  0  0  0  0  0  0
    8.3521  -17.6833   21.1183 C   0  0  0  0  0  0  0  0  0  0  0  0
    7.9695  -18.3736   22.1256 O   0  0  0  0  0  0  0  0  0  0  0  0
   13.1302  -17.5564   22.7911 O   0  0  0  0  0  0  0  0  0  0  0  0
    7.9558  -16.3449   21.0117 N   0  0  0  0  0  0  0  0  0  0  0  0
    7.1064  -15.8101   22.0659 C   0  0  0  0  0  0  0  0  0  0  0  0
    7.9518  -15.3952   23.2108 C   0  0  0  0  0  0  0  0  0  0  0  0
    9.2044  -15.5174   23.2463 O   0  0  0  0  0  0  0  0  0  0  0  0
    5.5579  -11.4492   26.0792 C   0  0  0  0  0  0  0  0  0  0  0  0
    6.4865  -12.3514   25.3545 C   0  0  0  0  0  0  0  0  0  0  0  0
    7.2840  -13.3070   26.1586 C   0  0  2  0  0  0  0  0  0  0  0  0
    7.9311  -12.7345   27.3841 C   0  0  0  0  0  0  0  0  0  0  0  0
    8.1903  -14.2582   25.4478 C   0  0  2  0  0  0  0  0  0  0  0  0
    7.3452  -14.8190   24.3592 N   0  0  0  0  0  0  0  0  0  0  0  0
    8.6595  -15.3616   26.2957 C   0  0  0  0  0  0  0  0  0  0  0  0
    9.8721  -15.4578   26.9268 O   0  0  0  0  0  0  0  0  0  0  0  0
    7.8735  -16.3641   26.4830 O   0  0  0  0  0  0  0  0  0  0  0  0
  2  1  1  6
  2  3  1  0
  3  4  1  0
  4  5  1  0
  5  9  1  0
  6  5  2  0
  7  2  1  0
  7  8  2  0
 10  7  1  0
 11 10  1  0
 11 12  1  0
 12 13  2  0
 12 19  1  0
 15 14  1  0
 16 15  1  0
 16 17  1  1
 18 16  1  0
 18 20  1  0
 18 19  1  6
 20 21  1  0
 22 20  2  0
M  END
$$$$
