CFD.pdb
     RDKit          3D

 26 26  0  0  1  0  0  0  0  0999 V2000
    7.8937  -16.5468   18.7626 N   0  0  0  0  0  0  0  0  0  0  0  0
    7.1598  -16.9450   19.9438 C   0  0  1  0  0  0  0  0  0  0  0  0
    7.2520  -18.4155   20.2083 C   0  0  0  0  0  0  0  0  0  0  0  0
    6.2588  -19.3931   19.0519 S   0  0  0  0  0  0  0  0  0  0  0  0
    7.6733  -16.2195   21.1551 C   0  0  0  0  0  0  0  0  0  0  0  0
    8.9045  -15.9529   21.2561 O   0  0  0  0  0  0  0  0  0  0  0  0
    6.8053  -15.8204   22.2052 N   0  0  0  0  0  0  0  0  0  0  0  0
    7.3605  -15.1354   23.3678 C   0  0  1  0  0  0  0  0  0  0  0  0
    6.3384  -14.2769   24.0304 C   0  0  0  0  0  0  0  0  0  0  0  0
    6.8081  -13.6696   25.2814 C   0  0  0  0  0  0  0  0  0  0  0  0
    6.6815  -14.3396   26.5038 C   0  0  0  0  0  0  0  0  0  0  0  0
    7.1265  -13.8069   27.6865 C   0  0  0  0  0  0  0  0  0  0  0  0
    7.7231  -12.5746   27.7146 C   0  0  0  0  0  0  0  0  0  0  0  0
    7.8622  -11.8943   26.5366 C   0  0  0  0  0  0  0  0  0  0  0  0
    7.4137  -12.4361   25.3530 C   0  0  0  0  0  0  0  0  0  0  0  0
    7.9742  -16.0902   24.3092 C   0  0  0  0  0  0  0  0  0  0  0  0
    7.2896  -17.0310   24.7465 O   0  0  0  0  0  0  0  0  0  0  0  0
    9.3206  -15.9928   24.7476 N   0  0  0  0  0  0  0  0  0  0  0  0
    9.9587  -17.0963   25.4742 C   0  0  1  0  0  0  0  0  0  0  0  0
   11.0731  -17.6766   24.6220 C   0  0  0  0  0  0  0  0  0  0  0  0
   12.0805  -16.6926   24.2352 C   0  0  0  0  0  0  0  0  0  0  0  0
   11.9999  -15.5083   24.6465 O   0  0  0  0  0  0  0  0  0  0  0  0
   10.4111  -16.6558   26.8011 C   0  0  0  0  0  0  0  0  0  0  0  0
   10.2865  -15.3415   27.2247 O   0  0  0  0  0  0  0  0  0  0  0  0
   13.1343  -17.0538   23.4114 O   0  0  0  0  0  0  0  0  0  0  0  0
   10.9356  -17.4802   27.6100 O   0  0  0  0  0  0  0  0  0  0  0  0
  2  1  1  6
  3  2  1  0
  3  4  1  0
  5  7  1  0
  5  2  1  0
  6  5  2  0
  8  7  1  0
  9 10  1  0
  8  9  1  1
 10 11  2  0
 10 15  1  0
 11 12  1  0
 12 13  2  0
 14 13  1  0
 15 14  2  0
 16 17  2  0
 16  8  1  0
 18 16  1  0
 19 20  1  6
 19 18  1  0
 20 21  1  0
 21 25  1  0
 21 22  2  0
 23 19  1  0
 24 23  1  0
 26 23  2  0
M  END
$$$$
