CFD.pdb
     RDKit          3D

 26 26  0  0  1  0  0  0  0  0999 V2000
   10.8659  -16.3463   19.8314 N   0  0  0  0  0  0  0  0  0  0  0  0
    9.7396  -16.7622   20.6383 C   0  0  1  0  0  0  0  0  0  0  0  0
    9.8010  -18.2119   21.0058 C   0  0  0  0  0  0  0  0  0  0  0  0
   10.6292  -18.4923   22.5917 S   0  0  0  0  0  0  0  0  0  0  0  0
    9.6738  -15.9609   21.9075 C   0  0  0  0  0  0  0  0  0  0  0  0
   10.7355  -15.5135   22.4270 O   0  0  0  0  0  0  0  0  0  0  0  0
    8.4379  -15.6891   22.5509 N   0  0  0  0  0  0  0  0  0  0  0  0
    8.4078  -14.7559   23.6722 C   0  0  1  0  0  0  0  0  0  0  0  0
    7.0414  -14.1973   23.8761 C   0  0  0  0  0  0  0  0  0  0  0  0
    6.9588  -13.2495   24.9939 C   0  0  0  0  0  0  0  0  0  0  0  0
    7.6354  -12.0248   24.9565 C   0  0  0  0  0  0  0  0  0  0  0  0
    7.5637  -11.1110   25.9764 C   0  0  0  0  0  0  0  0  0  0  0  0
    6.8118  -11.3693   27.0914 C   0  0  0  0  0  0  0  0  0  0  0  0
    6.1380  -12.5572   27.1585 C   0  0  0  0  0  0  0  0  0  0  0  0
    6.2142  -13.4694   26.1300 C   0  0  0  0  0  0  0  0  0  0  0  0
    8.9397  -15.3764   24.8996 C   0  0  0  0  0  0  0  0  0  0  0  0
    9.2976  -14.6454   25.8390 O   0  0  0  0  0  0  0  0  0  0  0  0
    9.0660  -16.7800   25.0690 N   0  0  0  0  0  0  0  0  0  0  0  0
    9.4952  -17.3490   26.3515 C   0  0  1  0  0  0  0  0  0  0  0  0
    8.8610  -18.7170   26.5276 C   0  0  0  0  0  0  0  0  0  0  0  0
    9.4579  -19.7469   25.6816 C   0  0  0  0  0  0  0  0  0  0  0  0
    9.1157  -20.9489   25.8098 O   0  0  0  0  0  0  0  0  0  0  0  0
   10.9613  -17.3712   26.4487 C   0  0  0  0  0  0  0  0  0  0  0  0
   11.6192  -17.8234   27.5823 O   0  0  0  0  0  0  0  0  0  0  0  0
   10.4069  -19.4103   24.7299 O   0  0  0  0  0  0  0  0  0  0  0  0
   11.6778  -16.9717   25.4811 O   0  0  0  0  0  0  0  0  0  0  0  0
  2  1  1  1
  3  2  1  0
  3  4  1  0
  5  7  1  0
  5  2  1  0
  6  5  2  0
  8  7  1  0
  9 10  1  0
  8  9  1  1
 10 11  2  0
 10 15  1  0
 11 12  1  0
 12 13  2  0
 14 13  1  0
 15 14  2  0
 16 17  2  0
 16  8  1  0
 18 16  1  0
 19 20  1  6
 19 18  1  0
 20 21  1  0
 21 25  1  0
 21 22  2  0
 23 19  1  0
 24 23  1  0
 26 23  2  0
M  END
$$$$
