CFD.pdb
     RDKit          3D

 26 26  0  0  1  0  0  0  0  0999 V2000
   10.8391  -16.7858   19.5356 N   0  0  0  0  0  0  0  0  0  0  0  0
    9.4762  -16.6764   20.0079 C   0  0  1  0  0  0  0  0  0  0  0  0
    8.7736  -17.9976   20.0446 C   0  0  0  0  0  0  0  0  0  0  0  0
    9.6025  -19.1957   21.1203 S   0  0  0  0  0  0  0  0  0  0  0  0
    9.4412  -16.0901   21.3907 C   0  0  0  0  0  0  0  0  0  0  0  0
   10.4878  -16.0810   22.0990 O   0  0  0  0  0  0  0  0  0  0  0  0
    8.2506  -15.5399   21.9341 N   0  0  0  0  0  0  0  0  0  0  0  0
    8.2945  -14.8986   23.2441 C   0  0  1  0  0  0  0  0  0  0  0  0
    7.2165  -13.8795   23.3851 C   0  0  0  0  0  0  0  0  0  0  0  0
    7.2138  -13.2093   24.6911 C   0  0  0  0  0  0  0  0  0  0  0  0
    6.2560  -13.5212   25.6630 C   0  0  0  0  0  0  0  0  0  0  0  0
    6.2378  -12.9260   26.8983 C   0  0  0  0  0  0  0  0  0  0  0  0
    7.1755  -11.9855   27.2322 C   0  0  0  0  0  0  0  0  0  0  0  0
    8.1255  -11.6588   26.3045 C   0  0  0  0  0  0  0  0  0  0  0  0
    8.1378  -12.2613   25.0666 C   0  0  0  0  0  0  0  0  0  0  0  0
    8.2575  -15.8957   24.3298 C   0  0  0  0  0  0  0  0  0  0  0  0
    7.5481  -16.9075   24.1959 O   0  0  0  0  0  0  0  0  0  0  0  0
    8.9976  -15.7619   25.5335 N   0  0  0  0  0  0  0  0  0  0  0  0
    9.6429  -16.9238   26.1550 C   0  0  1  0  0  0  0  0  0  0  0  0
   10.5816  -17.5694   25.1516 C   0  0  0  0  0  0  0  0  0  0  0  0
   11.3430  -18.6863   25.7042 C   0  0  0  0  0  0  0  0  0  0  0  0
   11.1084  -19.0991   26.8674 O   0  0  0  0  0  0  0  0  0  0  0  0
   10.3060  -16.5440   27.4102 C   0  0  0  0  0  0  0  0  0  0  0  0
   11.4860  -15.8161   27.4308 O   0  0  0  0  0  0  0  0  0  0  0  0
   12.3313  -19.3018   24.9532 O   0  0  0  0  0  0  0  0  0  0  0  0
    9.8079  -16.8758   28.5286 O   0  0  0  0  0  0  0  0  0  0  0  0
  2  1  1  1
  3  2  1  0
  3  4  1  0
  5  7  1  0
  5  2  1  0
  6  5  2  0
  8  7  1  0
  9 10  1  0
  8  9  1  1
 10 11  2  0
 10 15  1  0
 11 12  1  0
 12 13  2  0
 14 13  1  0
 15 14  2  0
 16 17  2  0
 16  8  1  0
 18 16  1  0
 19 20  1  6
 19 18  1  0
 20 21  1  0
 21 25  1  0
 21 22  2  0
 23 19  1  0
 24 23  1  0
 26 23  2  0
M  END
$$$$
