CFD.pdb
     RDKit          3D

 26 26  0  0  1  0  0  0  0  0999 V2000
    7.9329  -12.9238   19.9690 N   0  0  0  0  0  0  0  0  0  0  0  0
    7.4461  -14.1201   20.6204 C   0  0  1  0  0  0  0  0  0  0  0  0
    7.6191  -15.3441   19.7764 C   0  0  0  0  0  0  0  0  0  0  0  0
    6.9884  -16.8384   20.5818 S   0  0  0  0  0  0  0  0  0  0  0  0
    8.1646  -14.3439   21.9207 C   0  0  0  0  0  0  0  0  0  0  0  0
    9.3915  -14.0579   22.0210 O   0  0  0  0  0  0  0  0  0  0  0  0
    7.4980  -14.8763   23.0555 N   0  0  0  0  0  0  0  0  0  0  0  0
    8.2419  -15.0634   24.2967 C   0  0  1  0  0  0  0  0  0  0  0  0
    7.3564  -14.9187   25.4865 C   0  0  0  0  0  0  0  0  0  0  0  0
    7.0936  -13.5217   25.8524 C   0  0  0  0  0  0  0  0  0  0  0  0
    8.1425  -12.6263   26.0918 C   0  0  0  0  0  0  0  0  0  0  0  0
    7.9299  -11.3113   26.4176 C   0  0  0  0  0  0  0  0  0  0  0  0
    6.6572  -10.8168   26.5229 C   0  0  0  0  0  0  0  0  0  0  0  0
    5.6103  -11.6662   26.2946 C   0  0  0  0  0  0  0  0  0  0  0  0
    5.8317  -12.9851   25.9670 C   0  0  0  0  0  0  0  0  0  0  0  0
    8.9646  -16.3487   24.2991 C   0  0  0  0  0  0  0  0  0  0  0  0
    8.3252  -17.4002   24.4737 O   0  0  0  0  0  0  0  0  0  0  0  0
   10.3675  -16.4519   24.1096 N   0  0  0  0  0  0  0  0  0  0  0  0
   11.0454  -17.7508   24.1876 C   0  0  1  0  0  0  0  0  0  0  0  0
   12.2691  -17.7298   23.2894 C   0  0  0  0  0  0  0  0  0  0  0  0
   13.2008  -16.6499   23.6028 C   0  0  0  0  0  0  0  0  0  0  0  0
   13.0623  -15.5197   23.0719 O   0  0  0  0  0  0  0  0  0  0  0  0
   11.3539  -18.0963   25.5822 C   0  0  0  0  0  0  0  0  0  0  0  0
   11.0262  -17.2612   26.6394 O   0  0  0  0  0  0  0  0  0  0  0  0
   14.2464  -16.8595   24.4874 O   0  0  0  0  0  0  0  0  0  0  0  0
   11.9372  -19.1874   25.8622 O   0  0  0  0  0  0  0  0  0  0  0  0
  2  1  1  6
  3  2  1  0
  3  4  1  0
  5  7  1  0
  5  2  1  0
  6  5  2  0
  8  7  1  0
  9 10  1  0
  8  9  1  1
 10 11  2  0
 10 15  1  0
 11 12  1  0
 12 13  2  0
 14 13  1  0
 15 14  2  0
 16 17  2  0
 16  8  1  0
 18 16  1  0
 19 20  1  6
 19 18  1  0
 20 21  1  0
 21 25  1  0
 21 22  2  0
 23 19  1  0
 24 23  1  0
 26 23  2  0
M  END
$$$$
