CFD.pdb
     RDKit          3D

 26 26  0  0  1  0  0  0  0  0999 V2000
    8.3069  -16.8201   18.7191 N   0  0  0  0  0  0  0  0  0  0  0  0
    7.8541  -17.4034   19.9629 C   0  0  1  0  0  0  0  0  0  0  0  0
    8.4174  -18.7708   20.1942 C   0  0  0  0  0  0  0  0  0  0  0  0
    8.1879  -19.8668   18.7710 S   0  0  0  0  0  0  0  0  0  0  0  0
    8.2421  -16.5354   21.1262 C   0  0  0  0  0  0  0  0  0  0  0  0
    9.3751  -15.9759   21.1458 O   0  0  0  0  0  0  0  0  0  0  0  0
    7.3627  -16.3234   22.2204 N   0  0  0  0  0  0  0  0  0  0  0  0
    7.8075  -15.5065   23.3447 C   0  0  1  0  0  0  0  0  0  0  0  0
    6.6507  -14.9593   24.1082 C   0  0  0  0  0  0  0  0  0  0  0  0
    7.0457  -14.0940   25.2262 C   0  0  0  0  0  0  0  0  0  0  0  0
    7.2623  -12.7238   25.0400 C   0  0  0  0  0  0  0  0  0  0  0  0
    7.6144  -11.8863   26.0673 C   0  0  0  0  0  0  0  0  0  0  0  0
    7.7699  -12.3708   27.3387 C   0  0  0  0  0  0  0  0  0  0  0  0
    7.5649  -13.7054   27.5538 C   0  0  0  0  0  0  0  0  0  0  0  0
    7.2108  -14.5399   26.5175 C   0  0  0  0  0  0  0  0  0  0  0  0
    8.7391  -16.2511   24.2119 C   0  0  0  0  0  0  0  0  0  0  0  0
    8.4197  -17.3855   24.6072 O   0  0  0  0  0  0  0  0  0  0  0  0
    9.9964  -15.7372   24.6240 N   0  0  0  0  0  0  0  0  0  0  0  0
   10.9568  -16.5814   25.3436 C   0  0  1  0  0  0  0  0  0  0  0  0
   12.3654  -16.0989   25.0471 C   0  0  0  0  0  0  0  0  0  0  0  0
   13.4033  -16.9384   25.6392 C   0  0  0  0  0  0  0  0  0  0  0  0
   14.3824  -16.4151   26.2273 O   0  0  0  0  0  0  0  0  0  0  0  0
   10.6457  -16.6197   26.7792 C   0  0  0  0  0  0  0  0  0  0  0  0
   10.8793  -17.7446   27.5554 O   0  0  0  0  0  0  0  0  0  0  0  0
   13.3199  -18.3190   25.5587 O   0  0  0  0  0  0  0  0  0  0  0  0
   10.1477  -15.6069   27.3583 O   0  0  0  0  0  0  0  0  0  0  0  0
  2  1  1  6
  3  2  1  0
  3  4  1  0
  5  7  1  0
  5  2  1  0
  6  5  2  0
  8  7  1  0
  9 10  1  0
  8  9  1  1
 10 11  2  0
 10 15  1  0
 11 12  1  0
 12 13  2  0
 14 13  1  0
 15 14  2  0
 16 17  2  0
 16  8  1  0
 18 16  1  0
 19 20  1  1
 19 18  1  0
 20 21  1  0
 21 25  1  0
 21 22  2  0
 23 19  1  0
 24 23  1  0
 26 23  2  0
M  END
$$$$
