CFD.pdb
     RDKit          3D

 26 26  0  0  1  0  0  0  0  0999 V2000
    8.4581  -13.3919   18.4980 N   0  0  0  0  0  0  0  0  0  0  0  0
    7.5540  -14.1359   19.3474 C   0  0  1  0  0  0  0  0  0  0  0  0
    7.5060  -15.5910   18.9992 C   0  0  0  0  0  0  0  0  0  0  0  0
    9.0817  -16.4304   19.3026 S   0  0  0  0  0  0  0  0  0  0  0  0
    7.9612  -14.0137   20.7884 C   0  0  0  0  0  0  0  0  0  0  0  0
    9.1568  -13.7309   21.0845 O   0  0  0  0  0  0  0  0  0  0  0  0
    7.0306  -14.2108   21.8424 N   0  0  0  0  0  0  0  0  0  0  0  0
    7.4892  -14.1207   23.2246 C   0  0  1  0  0  0  0  0  0  0  0  0
    6.4046  -13.6378   24.1252 C   0  0  0  0  0  0  0  0  0  0  0  0
    6.8287  -13.4893   25.5226 C   0  0  0  0  0  0  0  0  0  0  0  0
    7.4692  -12.3261   25.9652 C   0  0  0  0  0  0  0  0  0  0  0  0
    7.8611  -12.1498   27.2675 C   0  0  0  0  0  0  0  0  0  0  0  0
    7.6353  -13.1260   28.2010 C   0  0  0  0  0  0  0  0  0  0  0  0
    7.0111  -14.2747   27.8004 C   0  0  0  0  0  0  0  0  0  0  0  0
    6.6197  -14.4440   26.4912 C   0  0  0  0  0  0  0  0  0  0  0  0
    8.0597  -15.4006   23.6839 C   0  0  0  0  0  0  0  0  0  0  0  0
    7.8320  -16.4323   23.0291 O   0  0  0  0  0  0  0  0  0  0  0  0
    8.8651  -15.5198   24.8465 N   0  0  0  0  0  0  0  0  0  0  0  0
    9.7781  -16.6555   25.0180 C   0  0  1  0  0  0  0  0  0  0  0  0
   10.9615  -16.4903   24.0815 C   0  0  0  0  0  0  0  0  0  0  0  0
   11.2016  -17.6579   23.2379 C   0  0  0  0  0  0  0  0  0  0  0  0
   10.4806  -18.6805   23.3514 O   0  0  0  0  0  0  0  0  0  0  0  0
   10.1683  -16.8041   26.4270 C   0  0  0  0  0  0  0  0  0  0  0  0
   10.4746  -18.0372   26.9821 O   0  0  0  0  0  0  0  0  0  0  0  0
   12.2257  -17.6509   22.3048 O   0  0  0  0  0  0  0  0  0  0  0  0
   10.2383  -15.7908   27.1869 O   0  0  0  0  0  0  0  0  0  0  0  0
  2  1  1  6
  3  2  1  0
  3  4  1  0
  5  7  1  0
  5  2  1  0
  6  5  2  0
  8  7  1  0
  9 10  1  0
  8  9  1  1
 10 11  2  0
 10 15  1  0
 11 12  1  0
 12 13  2  0
 14 13  1  0
 15 14  2  0
 16 17  2  0
 16  8  1  0
 18 16  1  0
 19 20  1  6
 19 18  1  0
 20 21  1  0
 21 25  1  0
 21 22  2  0
 23 19  1  0
 24 23  1  0
 26 23  2  0
M  END
$$$$
