CFD.pdb
     RDKit          3D

 26 26  0  0  1  0  0  0  0  0999 V2000
    7.6175  -14.8014   19.1374 N   0  0  0  0  0  0  0  0  0  0  0  0
    7.0325  -15.5639   20.2185 C   0  0  1  0  0  0  0  0  0  0  0  0
    7.0593  -17.0382   19.9611 C   0  0  0  0  0  0  0  0  0  0  0  0
    8.7199  -17.6452   19.5696 S   0  0  0  0  0  0  0  0  0  0  0  0
    7.7613  -15.3012   21.5058 C   0  0  0  0  0  0  0  0  0  0  0  0
    8.9221  -14.8023   21.4832 O   0  0  0  0  0  0  0  0  0  0  0  0
    7.1777  -15.6026   22.7644 N   0  0  0  0  0  0  0  0  0  0  0  0
    7.8986  -15.2584   23.9854 C   0  0  1  0  0  0  0  0  0  0  0  0
    6.9677  -15.1002   25.1383 C   0  0  0  0  0  0  0  0  0  0  0  0
    6.9070  -13.7280   25.6558 C   0  0  0  0  0  0  0  0  0  0  0  0
    5.8216  -13.2912   26.4241 C   0  0  0  0  0  0  0  0  0  0  0  0
    5.7441  -12.0216   26.9368 C   0  0  0  0  0  0  0  0  0  0  0  0
    6.7469  -11.1168   26.7106 C   0  0  0  0  0  0  0  0  0  0  0  0
    7.8216  -11.5128   25.9638 C   0  0  0  0  0  0  0  0  0  0  0  0
    7.8927  -12.7895   25.4531 C   0  0  0  0  0  0  0  0  0  0  0  0
    8.9680  -16.2333   24.2686 C   0  0  0  0  0  0  0  0  0  0  0  0
    8.7422  -17.4435   24.0967 O   0  0  0  0  0  0  0  0  0  0  0  0
   10.2569  -15.8606   24.7315 N   0  0  0  0  0  0  0  0  0  0  0  0
   11.3454  -16.8419   24.8028 C   0  0  1  0  0  0  0  0  0  0  0  0
   12.5849  -16.2609   24.1463 C   0  0  0  0  0  0  0  0  0  0  0  0
   13.7458  -17.1442   24.2139 C   0  0  0  0  0  0  0  0  0  0  0  0
   13.6954  -18.2959   23.7145 O   0  0  0  0  0  0  0  0  0  0  0  0
   11.5702  -17.2732   26.1894 C   0  0  0  0  0  0  0  0  0  0  0  0
   10.8558  -16.7423   27.2526 O   0  0  0  0  0  0  0  0  0  0  0  0
   14.9136  -16.7226   24.8289 O   0  0  0  0  0  0  0  0  0  0  0  0
   12.4378  -18.1593   26.4565 O   0  0  0  0  0  0  0  0  0  0  0  0
  2  1  1  6
  3  2  1  0
  3  4  1  0
  5  7  1  0
  5  2  1  0
  6  5  2  0
  8  7  1  0
  9 10  1  0
  8  9  1  1
 10 11  2  0
 10 15  1  0
 11 12  1  0
 12 13  2  0
 14 13  1  0
 15 14  2  0
 16 17  2  0
 16  8  1  0
 18 16  1  0
 19 20  1  1
 19 18  1  0
 20 21  1  0
 21 25  1  0
 21 22  2  0
 23 19  1  0
 24 23  1  0
 26 23  2  0
M  END
$$$$
