CFD.pdb
     RDKit          3D

 26 26  0  0  1  0  0  0  0  0999 V2000
   10.2989  -16.4930   18.9852 N   0  0  0  0  0  0  0  0  0  0  0  0
    9.2096  -16.9568   19.8162 C   0  0  1  0  0  0  0  0  0  0  0  0
    9.2373  -18.4389   20.0243 C   0  0  0  0  0  0  0  0  0  0  0  0
    7.8809  -19.0186   21.0748 S   0  0  0  0  0  0  0  0  0  0  0  0
    9.2540  -16.2951   21.1643 C   0  0  0  0  0  0  0  0  0  0  0  0
   10.3489  -16.2098   21.7897 O   0  0  0  0  0  0  0  0  0  0  0  0
    8.0863  -15.7567   21.7662 N   0  0  0  0  0  0  0  0  0  0  0  0
    8.1833  -15.1409   23.0854 C   0  0  1  0  0  0  0  0  0  0  0  0
    7.0224  -14.2454   23.3522 C   0  0  0  0  0  0  0  0  0  0  0  0
    7.0639  -13.6145   24.6770 C   0  0  0  0  0  0  0  0  0  0  0  0
    7.8114  -12.4529   24.9027 C   0  0  0  0  0  0  0  0  0  0  0  0
    7.8560  -11.8300   26.1236 C   0  0  0  0  0  0  0  0  0  0  0  0
    7.1562  -12.3328   27.1880 C   0  0  0  0  0  0  0  0  0  0  0  0
    6.4156  -13.4667   27.0000 C   0  0  0  0  0  0  0  0  0  0  0  0
    6.3751  -14.0860   25.7709 C   0  0  0  0  0  0  0  0  0  0  0  0
    8.3503  -16.1579   24.1400 C   0  0  0  0  0  0  0  0  0  0  0  0
    7.8432  -17.2815   23.9805 O   0  0  0  0  0  0  0  0  0  0  0  0
    9.0680  -15.9211   25.3415 N   0  0  0  0  0  0  0  0  0  0  0  0
    9.6179  -17.0343   26.1232 C   0  0  1  0  0  0  0  0  0  0  0  0
   10.5325  -17.8618   25.2381 C   0  0  0  0  0  0  0  0  0  0  0  0
   11.2837  -18.8786   25.9691 C   0  0  0  0  0  0  0  0  0  0  0  0
   10.8014  -19.3996   27.0056 O   0  0  0  0  0  0  0  0  0  0  0  0
   10.2769  -16.5423   27.3410 C   0  0  0  0  0  0  0  0  0  0  0  0
   11.3872  -15.7132   27.2959 O   0  0  0  0  0  0  0  0  0  0  0  0
   12.5349  -19.2788   25.5287 O   0  0  0  0  0  0  0  0  0  0  0  0
    9.8397  -16.8669   28.4867 O   0  0  0  0  0  0  0  0  0  0  0  0
  2  1  1  6
  3  2  1  0
  3  4  1  0
  5  7  1  0
  5  2  1  0
  6  5  2  0
  8  7  1  0
  9 10  1  0
  8  9  1  1
 10 11  2  0
 10 15  1  0
 11 12  1  0
 12 13  2  0
 14 13  1  0
 15 14  2  0
 16 17  2  0
 16  8  1  0
 18 16  1  0
 19 20  1  6
 19 18  1  0
 20 21  1  0
 21 25  1  0
 21 22  2  0
 23 19  1  0
 24 23  1  0
 26 23  2  0
M  END
$$$$
