CFD.pdb
     RDKit          3D

 26 26  0  0  1  0  0  0  0  0999 V2000
    8.7118  -13.0867   18.4700 N   0  0  0  0  0  0  0  0  0  0  0  0
    8.0482  -14.1360   19.2122 C   0  0  1  0  0  0  0  0  0  0  0  0
    8.4236  -15.5036   18.7332 C   0  0  0  0  0  0  0  0  0  0  0  0
    8.0060  -15.7686   16.9911 S   0  0  0  0  0  0  0  0  0  0  0  0
    8.3848  -14.0443   20.6736 C   0  0  0  0  0  0  0  0  0  0  0  0
    9.5816  -13.8596   21.0350 O   0  0  0  0  0  0  0  0  0  0  0  0
    7.3852  -14.1623   21.6748 N   0  0  0  0  0  0  0  0  0  0  0  0
    7.7579  -14.0043   23.0766 C   0  0  1  0  0  0  0  0  0  0  0  0
    6.7784  -13.1495   23.8049 C   0  0  0  0  0  0  0  0  0  0  0  0
    7.0563  -13.0374   25.2419 C   0  0  0  0  0  0  0  0  0  0  0  0
    6.1188  -13.4515   26.1952 C   0  0  0  0  0  0  0  0  0  0  0  0
    6.3558  -13.3764   27.5438 C   0  0  0  0  0  0  0  0  0  0  0  0
    7.5428  -12.8832   28.0161 C   0  0  0  0  0  0  0  0  0  0  0  0
    8.4801  -12.4705   27.1100 C   0  0  0  0  0  0  0  0  0  0  0  0
    8.2352  -12.5498   25.7574 C   0  0  0  0  0  0  0  0  0  0  0  0
    7.9440  -15.3122   23.7317 C   0  0  0  0  0  0  0  0  0  0  0  0
    7.1966  -16.2551   23.4197 O   0  0  0  0  0  0  0  0  0  0  0  0
    8.9427  -15.5562   24.7104 N   0  0  0  0  0  0  0  0  0  0  0  0
    9.5258  -16.8924   24.8757 C   0  0  1  0  0  0  0  0  0  0  0  0
   10.5661  -17.1203   23.7938 C   0  0  0  0  0  0  0  0  0  0  0  0
   11.3112  -18.3655   23.9579 C   0  0  0  0  0  0  0  0  0  0  0  0
   10.7183  -19.4174   24.3047 O   0  0  0  0  0  0  0  0  0  0  0  0
   10.0538  -17.0674   26.2358 C   0  0  0  0  0  0  0  0  0  0  0  0
    9.8929  -18.2486   26.9439 O   0  0  0  0  0  0  0  0  0  0  0  0
   12.6780  -18.4003   23.7337 O   0  0  0  0  0  0  0  0  0  0  0  0
   10.6835  -16.1271   26.8089 O   0  0  0  0  0  0  0  0  0  0  0  0
  2  1  1  6
  3  2  1  0
  3  4  1  0
  5  7  1  0
  5  2  1  0
  6  5  2  0
  8  7  1  0
  9 10  1  0
  8  9  1  1
 10 11  2  0
 10 15  1  0
 11 12  1  0
 12 13  2  0
 14 13  1  0
 15 14  2  0
 16 17  2  0
 16  8  1  0
 18 16  1  0
 19 20  1  6
 19 18  1  0
 20 21  1  0
 21 25  1  0
 21 22  2  0
 23 19  1  0
 24 23  1  0
 26 23  2  0
M  END
$$$$
