GHY.pdb
     RDKit          3D

 27 28  0  0  1  0  0  0  0  0999 V2000
    4.5833  -16.0462   22.6482 N   0  0  0  0  0  0  0  0  0  0  0  0
    5.2778  -15.7483   21.4357 C   0  0  0  0  0  0  0  0  0  0  0  0
    6.7334  -16.0276   21.5131 C   0  0  0  0  0  0  0  0  0  0  0  0
    7.1861  -17.2163   21.3964 O   0  0  0  0  0  0  0  0  0  0  0  0
    7.6186  -14.9645   21.7179 N   0  0  0  0  0  0  0  0  0  0  0  0
    9.1144  -15.1680   21.7718 C   0  0  1  0  0  0  0  0  0  0  0  0
    9.7099  -13.9949   21.0669 C   0  0  0  0  0  0  0  0  0  0  0  0
    9.5407  -13.8626   19.6298 C   0  0  0  0  0  0  0  0  0  0  0  0
    8.5459  -14.5403   18.9218 C   0  0  0  0  0  0  0  0  0  0  0  0
    8.6463  -14.2155   17.6317 N   0  0  0  0  0  0  0  0  0  0  0  0
    9.6773  -13.3464   17.4805 C   0  0  0  0  0  0  0  0  0  0  0  0
   10.1819  -13.1645   18.6995 N   0  0  0  0  0  0  0  0  0  0  0  0
    9.4256  -15.2369   23.2178 C   0  0  0  0  0  0  0  0  0  0  0  0
    9.8440  -14.1789   23.8098 O   0  0  0  0  0  0  0  0  0  0  0  0
    5.7473  -11.4621   26.0577 O   0  0  0  0  0  0  0  0  0  0  0  0
    6.3247  -12.7110   26.0508 C   0  0  0  0  0  0  0  0  0  0  0  0
    7.4528  -12.9130   26.7993 C   0  0  0  0  0  0  0  0  0  0  0  0
    8.0710  -14.1517   26.8256 C   0  0  0  0  0  0  0  0  0  0  0  0
    7.5185  -15.1701   26.0787 C   0  0  0  0  0  0  0  0  0  0  0  0
    8.1700  -16.4862   26.0851 C   0  0  0  0  0  0  0  0  0  0  0  0
    9.5341  -16.3710   25.4523 C   0  0  2  0  0  0  0  0  0  0  0  0
    9.2922  -16.3773   24.0035 N   0  0  0  0  0  0  0  0  0  0  0  0
   10.4296  -17.4968   25.7608 C   0  0  0  0  0  0  0  0  0  0  0  0
   10.7199  -18.3415   24.8827 O   0  0  0  0  0  0  0  0  0  0  0  0
    6.3880  -14.9550   25.3326 C   0  0  0  0  0  0  0  0  0  0  0  0
    5.7655  -13.7138   25.3042 C   0  0  0  0  0  0  0  0  0  0  0  0
   10.9768  -17.6559   27.0226 O   0  0  0  0  0  0  0  0  0  0  0  0
  1  2  1  0
  2  3  1  0
  3  5  1  0
  4  3  2  0
  5  6  1  0
  6 13  1  0
  6  7  1  1
  7  8  1  0
  8 12  1  0
  9  8  2  0
  9 10  1  0
 10 11  1  0
 12 11  2  0
 13 14  2  0
 15 16  1  0
 16 17  2  0
 17 18  1  0
 19 18  2  0
 19 20  1  0
 21 20  1  1
 22 21  1  0
 22 13  1  0
 23 21  1  0
 24 23  2  0
 25 19  1  0
 26 16  1  0
 26 25  2  0
 27 23  1  0
M  END
$$$$
