GHY.pdb
     RDKit          3D

 27 28  0  0  1  0  0  0  0  0999 V2000
   11.1840  -16.1268   14.7306 N   0  0  0  0  0  0  0  0  0  0  0  0
   10.6080  -16.6145   15.9437 C   0  0  0  0  0  0  0  0  0  0  0  0
   11.1125  -15.9151   17.1517 C   0  0  0  0  0  0  0  0  0  0  0  0
   12.1786  -15.2127   17.1127 O   0  0  0  0  0  0  0  0  0  0  0  0
   10.4018  -16.0325   18.3504 N   0  0  0  0  0  0  0  0  0  0  0  0
   10.8080  -15.2836   19.5978 C   0  0  1  0  0  0  0  0  0  0  0  0
    9.5428  -15.0239   20.3460 C   0  0  0  0  0  0  0  0  0  0  0  0
    8.5241  -14.1728   19.7548 C   0  0  0  0  0  0  0  0  0  0  0  0
    8.7435  -12.8248   19.4633 C   0  0  0  0  0  0  0  0  0  0  0  0
    7.6294  -12.3181   18.9324 N   0  0  0  0  0  0  0  0  0  0  0  0
    6.6922  -13.2975   18.8703 C   0  0  0  0  0  0  0  0  0  0  0  0
    7.2706  -14.3871   19.3720 N   0  0  0  0  0  0  0  0  0  0  0  0
   11.7504  -16.1955   20.2853 C   0  0  0  0  0  0  0  0  0  0  0  0
   11.6032  -17.4610   20.1371 O   0  0  0  0  0  0  0  0  0  0  0  0
   17.1913  -13.1834   17.7065 O   0  0  0  0  0  0  0  0  0  0  0  0
   16.5073  -14.1868   18.3533 C   0  0  0  0  0  0  0  0  0  0  0  0
   17.1148  -14.8187   19.4047 C   0  0  0  0  0  0  0  0  0  0  0  0
   16.4680  -15.8346   20.0879 C   0  0  0  0  0  0  0  0  0  0  0  0
   15.2001  -16.1886   19.6790 C   0  0  0  0  0  0  0  0  0  0  0  0
   14.5059  -17.2735   20.3845 C   0  0  0  0  0  0  0  0  0  0  0  0
   13.8186  -16.7153   21.6055 C   0  0  2  0  0  0  0  0  0  0  0  0
   12.8076  -15.7828   21.0900 N   0  0  0  0  0  0  0  0  0  0  0  0
   14.7118  -15.9584   22.4966 C   0  0  0  0  0  0  0  0  0  0  0  0
   14.5440  -14.7303   22.6765 O   0  0  0  0  0  0  0  0  0  0  0  0
   14.6021  -15.5480   18.6239 C   0  0  0  0  0  0  0  0  0  0  0  0
   15.2481  -14.5286   17.9366 C   0  0  0  0  0  0  0  0  0  0  0  0
   15.7578  -16.5761   23.1606 O   0  0  0  0  0  0  0  0  0  0  0  0
  1  2  1  0
  2  3  1  0
  3  5  1  0
  4  3  2  0
  5  6  1  0
  6 13  1  0
  6  7  1  1
  7  8  1  0
  8 12  1  0
  9  8  2  0
  9 10  1  0
 10 11  1  0
 12 11  2  0
 13 14  2  0
 15 16  1  0
 16 17  2  0
 17 18  1  0
 19 18  2  0
 19 20  1  0
 21 20  1  6
 22 21  1  0
 22 13  1  0
 23 21  1  0
 24 23  2  0
 25 19  1  0
 26 16  1  0
 26 25  2  0
 27 23  1  0
M  END
$$$$
