GHY.pdb
     RDKit          3D

 27 28  0  0  1  0  0  0  0  0999 V2000
    7.5449  -12.5464   18.6066 N   0  0  0  0  0  0  0  0  0  0  0  0
    8.5407  -13.0260   19.5119 C   0  0  0  0  0  0  0  0  0  0  0  0
    8.0908  -14.1948   20.3083 C   0  0  0  0  0  0  0  0  0  0  0  0
    6.9101  -14.6658   20.1831 O   0  0  0  0  0  0  0  0  0  0  0  0
    8.9818  -14.7854   21.2099 N   0  0  0  0  0  0  0  0  0  0  0  0
    8.6762  -16.0972   21.8937 C   0  0  1  0  0  0  0  0  0  0  0  0
    9.3564  -17.1477   21.0803 C   0  0  0  0  0  0  0  0  0  0  0  0
    8.7804  -17.5525   19.8091 C   0  0  0  0  0  0  0  0  0  0  0  0
    9.0846  -16.9132   18.6054 C   0  0  0  0  0  0  0  0  0  0  0  0
    8.4050  -17.5091   17.6241 N   0  0  0  0  0  0  0  0  0  0  0  0
    7.6678  -18.5172   18.1549 C   0  0  0  0  0  0  0  0  0  0  0  0
    7.9234  -18.5059   19.4619 N   0  0  0  0  0  0  0  0  0  0  0  0
    9.2180  -15.9351   23.2621 C   0  0  0  0  0  0  0  0  0  0  0  0
   10.3600  -15.3703   23.4105 O   0  0  0  0  0  0  0  0  0  0  0  0
    6.2211  -10.7006   26.2294 O   0  0  0  0  0  0  0  0  0  0  0  0
    6.6867  -11.9899   26.3475 C   0  0  0  0  0  0  0  0  0  0  0  0
    5.8347  -13.0210   26.0567 C   0  0  0  0  0  0  0  0  0  0  0  0
    6.2556  -14.3361   26.1601 C   0  0  0  0  0  0  0  0  0  0  0  0
    7.5523  -14.5740   26.5628 C   0  0  0  0  0  0  0  0  0  0  0  0
    8.0101  -15.9635   26.6905 C   0  0  0  0  0  0  0  0  0  0  0  0
    9.1714  -16.1943   25.7563 C   0  0  2  0  0  0  0  0  0  0  0  0
    8.5733  -16.3482   24.4237 N   0  0  0  0  0  0  0  0  0  0  0  0
    9.9348  -17.4178   26.0478 C   0  0  0  0  0  0  0  0  0  0  0  0
   10.7637  -17.4452   26.9864 O   0  0  0  0  0  0  0  0  0  0  0  0
    8.3963  -13.5322   26.8514 C   0  0  0  0  0  0  0  0  0  0  0  0
    7.9772  -12.2121   26.7486 C   0  0  0  0  0  0  0  0  0  0  0  0
    9.7609  -18.5696   25.2997 O   0  0  0  0  0  0  0  0  0  0  0  0
  1  2  1  0
  2  3  1  0
  3  5  1  0
  4  3  2  0
  5  6  1  0
  6 13  1  0
  6  7  1  6
  7  8  1  0
  8 12  1  0
  9  8  2  0
  9 10  1  0
 10 11  1  0
 12 11  2  0
 13 14  2  0
 15 16  1  0
 16 17  2  0
 17 18  1  0
 19 18  2  0
 19 20  1  0
 21 20  1  1
 22 21  1  0
 22 13  1  0
 23 21  1  0
 24 23  2  0
 25 19  1  0
 26 16  1  0
 26 25  2  0
 27 23  1  0
M  END
$$$$
