GHY.pdb
     RDKit          3D

 27 28  0  0  1  0  0  0  0  0999 V2000
   11.9479  -24.8269   15.8534 N   0  0  0  0  0  0  0  0  0  0  0  0
   11.9941  -24.1968   17.1349 C   0  0  0  0  0  0  0  0  0  0  0  0
   12.8123  -22.9586   17.1472 C   0  0  0  0  0  0  0  0  0  0  0  0
   13.7520  -22.7781   16.3010 O   0  0  0  0  0  0  0  0  0  0  0  0
   12.5431  -21.9766   18.1058 N   0  0  0  0  0  0  0  0  0  0  0  0
   13.2929  -20.6657   18.1406 C   0  0  1  0  0  0  0  0  0  0  0  0
   12.2589  -19.6016   17.9788 C   0  0  0  0  0  0  0  0  0  0  0  0
   11.6225  -19.4134   16.6861 C   0  0  0  0  0  0  0  0  0  0  0  0
   12.3480  -19.2868   15.4994 C   0  0  0  0  0  0  0  0  0  0  0  0
   11.4890  -19.1275   14.4912 N   0  0  0  0  0  0  0  0  0  0  0  0
   10.2263  -19.1468   14.9877 C   0  0  0  0  0  0  0  0  0  0  0  0
   10.3546  -19.3197   16.3020 N   0  0  0  0  0  0  0  0  0  0  0  0
   13.9730  -20.6645   19.4558 C   0  0  0  0  0  0  0  0  0  0  0  0
   13.2626  -20.7774   20.5178 O   0  0  0  0  0  0  0  0  0  0  0  0
   14.6495  -26.7862   21.1194 O   0  0  0  0  0  0  0  0  0  0  0  0
   15.2459  -25.5515   21.0065 C   0  0  0  0  0  0  0  0  0  0  0  0
   15.4122  -24.8006   22.1388 C   0  0  0  0  0  0  0  0  0  0  0  0
   16.0069  -23.5517   22.0776 C   0  0  0  0  0  0  0  0  0  0  0  0
   16.4243  -23.0899   20.8477 C   0  0  0  0  0  0  0  0  0  0  0  0
   17.0447  -21.7615   20.7637 C   0  0  0  0  0  0  0  0  0  0  0  0
   15.9862  -20.7036   20.9513 C   0  0  2  0  0  0  0  0  0  0  0  0
   15.3481  -20.5550   19.6367 N   0  0  0  0  0  0  0  0  0  0  0  0
   16.5214  -19.3893   21.3395 C   0  0  0  0  0  0  0  0  0  0  0  0
   16.4529  -18.4148   20.5557 O   0  0  0  0  0  0  0  0  0  0  0  0
   16.2520  -23.8517   19.7203 C   0  0  0  0  0  0  0  0  0  0  0  0
   15.6559  -25.1049   19.7784 C   0  0  0  0  0  0  0  0  0  0  0  0
   17.1123  -19.1897   22.5755 O   0  0  0  0  0  0  0  0  0  0  0  0
  1  2  1  0
  2  3  1  0
  3  5  1  0
  4  3  2  0
  5  6  1  0
  6 13  1  0
  6  7  1  1
  7  8  1  0
  8 12  1  0
  9  8  2  0
  9 10  1  0
 10 11  1  0
 12 11  2  0
 13 14  2  0
 15 16  1  0
 16 17  2  0
 17 18  1  0
 19 18  2  0
 19 20  1  0
 21 20  1  6
 22 21  1  0
 22 13  1  0
 23 21  1  0
 24 23  2  0
 25 19  1  0
 26 16  1  0
 26 25  2  0
 27 23  1  0
M  END
$$$$
