GHY.pdb
     RDKit          3D

 27 28  0  0  1  0  0  0  0  0999 V2000
    8.7227  -16.8771   15.7891 N   0  0  0  0  0  0  0  0  0  0  0  0
    9.8136  -17.1148   16.6806 C   0  0  0  0  0  0  0  0  0  0  0  0
    9.3781  -17.5083   18.0437 C   0  0  0  0  0  0  0  0  0  0  0  0
    8.1423  -17.5172   18.3667 O   0  0  0  0  0  0  0  0  0  0  0  0
   10.3445  -17.8747   18.9858 N   0  0  0  0  0  0  0  0  0  0  0  0
    9.9742  -18.3102   20.3840 C   0  0  1  0  0  0  0  0  0  0  0  0
   10.8532  -19.4763   20.6927 C   0  0  0  0  0  0  0  0  0  0  0  0
   10.4882  -20.7958   20.2056 C   0  0  0  0  0  0  0  0  0  0  0  0
    9.1651  -21.2388   20.1467 C   0  0  0  0  0  0  0  0  0  0  0  0
    9.1541  -22.4806   19.6590 N   0  0  0  0  0  0  0  0  0  0  0  0
   10.4314  -22.8576   19.3991 C   0  0  0  0  0  0  0  0  0  0  0  0
   11.1938  -21.8205   19.7408 N   0  0  0  0  0  0  0  0  0  0  0  0
   10.2250  -17.1150   21.2213 C   0  0  0  0  0  0  0  0  0  0  0  0
   11.3532  -16.5139   21.1161 O   0  0  0  0  0  0  0  0  0  0  0  0
    7.7654  -12.6097   17.7453 O   0  0  0  0  0  0  0  0  0  0  0  0
    7.9015  -13.0978   19.0245 C   0  0  0  0  0  0  0  0  0  0  0  0
    8.9848  -12.7030   19.7622 C   0  0  0  0  0  0  0  0  0  0  0  0
    9.1666  -13.1661   21.0544 C   0  0  0  0  0  0  0  0  0  0  0  0
    8.2281  -14.0326   21.5726 C   0  0  0  0  0  0  0  0  0  0  0  0
    8.4136  -14.5436   22.9368 C   0  0  0  0  0  0  0  0  0  0  0  0
    9.6375  -15.4239   22.9779 C   0  0  2  0  0  0  0  0  0  0  0  0
    9.3158  -16.5766   22.1263 N   0  0  0  0  0  0  0  0  0  0  0  0
    9.9573  -15.9351   24.3200 C   0  0  0  0  0  0  0  0  0  0  0  0
   10.3911  -15.1672   25.2094 O   0  0  0  0  0  0  0  0  0  0  0  0
    7.1470  -14.4209   20.8233 C   0  0  0  0  0  0  0  0  0  0  0  0
    6.9617  -13.9581   19.5269 C   0  0  0  0  0  0  0  0  0  0  0  0
    9.7886  -17.2714   24.6399 O   0  0  0  0  0  0  0  0  0  0  0  0
  1  2  1  0
  2  3  1  0
  3  5  1  0
  4  3  2  0
  5  6  1  0
  6 13  1  0
  6  7  1  1
  7  8  1  0
  8 12  1  0
  9  8  2  0
  9 10  1  0
 10 11  1  0
 12 11  2  0
 13 14  2  0
 15 16  1  0
 16 17  2  0
 17 18  1  0
 19 18  2  0
 19 20  1  0
 21 20  1  1
 22 21  1  0
 22 13  1  0
 23 21  1  0
 24 23  2  0
 25 19  1  0
 26 16  1  0
 26 25  2  0
 27 23  1  0
M  END
$$$$
