QGY.pdb
     RDKit          3D

 26 26  0  0  1  0  0  0  0  0999 V2000
    6.6542  -12.7551   17.4662 N   0  0  0  0  0  0  0  0  0  0  0  0
    7.8395  -13.3068   16.8998 C   0  0  0  0  0  0  0  0  0  0  0  0
    7.9593  -13.3251   15.6613 O   0  0  0  0  0  0  0  0  0  0  0  0
    8.8984  -13.8415   17.7629 C   0  0  0  0  0  0  0  0  0  0  0  0
    8.5110  -13.8032   19.1976 C   0  0  0  0  0  0  0  0  0  0  0  0
    9.5691  -14.2795   20.1629 C   0  0  2  0  0  0  0  0  0  0  0  0
   10.4296  -15.2826   19.5460 N   0  0  0  0  0  0  0  0  0  0  0  0
    8.8200  -14.9377   21.2835 C   0  0  0  0  0  0  0  0  0  0  0  0
    8.0163  -14.2658   21.9689 O   0  0  0  0  0  0  0  0  0  0  0  0
    9.0219  -16.3138   21.5641 N   0  0  0  0  0  0  0  0  0  0  0  0
    8.2817  -16.9914   22.6101 C   0  0  0  0  0  0  0  0  0  0  0  0
    8.8890  -16.6777   23.9125 C   0  0  0  0  0  0  0  0  0  0  0  0
   10.0998  -16.2795   23.9869 O   0  0  0  0  0  0  0  0  0  0  0  0
    6.3971  -10.5712   25.9280 O   0  0  0  0  0  0  0  0  0  0  0  0
    6.7253  -11.8818   26.2606 C   0  0  0  0  0  0  0  0  0  0  0  0
    5.9097  -12.9514   25.9360 C   0  0  0  0  0  0  0  0  0  0  0  0
    6.2341  -14.2487   26.2649 C   0  0  0  0  0  0  0  0  0  0  0  0
    7.4197  -14.5222   26.9488 C   0  0  0  0  0  0  0  0  0  0  0  0
    7.7674  -15.9099   27.3054 C   0  0  0  0  0  0  0  0  0  0  0  0
    8.8524  -16.4985   26.4306 C   0  0  2  0  0  0  0  0  0  0  0  0
    8.2034  -16.7882   25.1480 N   0  0  0  0  0  0  0  0  0  0  0  0
    9.4634  -17.7135   26.9933 C   0  0  0  0  0  0  0  0  0  0  0  0
    9.0847  -18.8361   26.5701 O   0  0  0  0  0  0  0  0  0  0  0  0
    8.2189  -13.4567   27.2650 C   0  0  0  0  0  0  0  0  0  0  0  0
    7.8875  -12.1666   26.9331 C   0  0  0  0  0  0  0  0  0  0  0  0
   10.4424  -17.6952   27.9720 O   0  0  0  0  0  0  0  0  0  0  0  0
  2  1  1  0
  2  3  2  0
  4  2  1  0
  5  4  1  0
  6  5  1  0
  6  7  1  6
  8 10  1  0
  8  6  1  0
  9  8  2  0
 11 12  1  0
 11 10  1  0
 12 21  1  0
 13 12  2  0
 15 25  2  0
 15 14  1  0
 16 15  1  0
 17 18  1  0
 17 16  2  0
 18 24  2  0
 19 18  1  0
 20 19  1  1
 20 22  1  0
 21 20  1  0
 22 23  2  0
 22 26  1  0
 24 25  1  0
M  END
$$$$
