QGY.pdb
     RDKit          3D

 26 26  0  0  1  0  0  0  0  0999 V2000
    8.8893  -17.9158   16.6000 N   0  0  0  0  0  0  0  0  0  0  0  0
    8.1981  -16.7397   17.0113 C   0  0  0  0  0  0  0  0  0  0  0  0
    7.9955  -15.8406   16.1752 O   0  0  0  0  0  0  0  0  0  0  0  0
    7.7336  -16.5944   18.3953 C   0  0  0  0  0  0  0  0  0  0  0  0
    7.9860  -17.8234   19.1926 C   0  0  0  0  0  0  0  0  0  0  0  0
    7.5325  -17.7619   20.6309 C   0  0  2  0  0  0  0  0  0  0  0  0
    7.4074  -16.3810   21.0836 N   0  0  0  0  0  0  0  0  0  0  0  0
    8.6282  -18.4114   21.4231 C   0  0  0  0  0  0  0  0  0  0  0  0
    8.9703  -19.5861   21.1578 O   0  0  0  0  0  0  0  0  0  0  0  0
    9.2724  -17.6980   22.4667 N   0  0  0  0  0  0  0  0  0  0  0  0
   10.3199  -18.3031   23.2653 C   0  0  0  0  0  0  0  0  0  0  0  0
   11.3819  -17.3128   23.4994 C   0  0  0  0  0  0  0  0  0  0  0  0
   11.7890  -16.5589   22.5528 O   0  0  0  0  0  0  0  0  0  0  0  0
    8.4457  -13.6064   28.5588 O   0  0  0  0  0  0  0  0  0  0  0  0
    9.6070  -14.1639   28.0331 C   0  0  0  0  0  0  0  0  0  0  0  0
   10.4280  -13.4716   27.1606 C   0  0  0  0  0  0  0  0  0  0  0  0
   11.5776  -14.0229   26.6401 C   0  0  0  0  0  0  0  0  0  0  0  0
   11.9509  -15.3221   26.9877 C   0  0  0  0  0  0  0  0  0  0  0  0
   13.1793  -15.9159   26.4289 C   0  0  0  0  0  0  0  0  0  0  0  0
   13.1038  -16.1535   24.9367 C   0  0  2  0  0  0  0  0  0  0  0  0
   12.0180  -17.1214   24.7515 N   0  0  0  0  0  0  0  0  0  0  0  0
   14.3595  -16.6603   24.3602 C   0  0  0  0  0  0  0  0  0  0  0  0
   15.3299  -15.8705   24.2281 O   0  0  0  0  0  0  0  0  0  0  0  0
   11.1314  -15.9979   27.8514 C   0  0  0  0  0  0  0  0  0  0  0  0
    9.9872  -15.4403   28.3654 C   0  0  0  0  0  0  0  0  0  0  0  0
   14.5397  -17.9702   23.9499 O   0  0  0  0  0  0  0  0  0  0  0  0
  2  1  1  0
  2  3  2  0
  4  2  1  0
  5  4  1  0
  6  5  1  0
  6  7  1  1
  8 10  1  0
  8  6  1  0
  9  8  2  0
 11 12  1  0
 11 10  1  0
 12 21  1  0
 13 12  2  0
 15 25  2  0
 15 14  1  0
 16 15  1  0
 17 18  1  0
 17 16  2  0
 18 24  2  0
 19 18  1  0
 20 19  1  1
 20 22  1  0
 21 20  1  0
 22 23  2  0
 22 26  1  0
 24 25  1  0
M  END
$$$$
