QGY.pdb
     RDKit          3D

 26 26  0  0  1  0  0  0  0  0999 V2000
    1.0923  -18.8894   20.4614 N   0  0  0  0  0  0  0  0  0  0  0  0
    1.4436  -19.6531   21.6118 C   0  0  0  0  0  0  0  0  0  0  0  0
    0.5744  -20.3653   22.1464 O   0  0  0  0  0  0  0  0  0  0  0  0
    2.8060  -19.6001   22.1534 C   0  0  0  0  0  0  0  0  0  0  0  0
    3.6479  -18.6114   21.4300 C   0  0  0  0  0  0  0  0  0  0  0  0
    5.1321  -18.8841   21.4619 C   0  0  2  0  0  0  0  0  0  0  0  0
    5.6074  -19.0438   22.8315 N   0  0  0  0  0  0  0  0  0  0  0  0
    5.7760  -17.6567   20.8885 C   0  0  0  0  0  0  0  0  0  0  0  0
    5.4620  -17.2732   19.7388 O   0  0  0  0  0  0  0  0  0  0  0  0
    6.7351  -16.9352   21.6453 N   0  0  0  0  0  0  0  0  0  0  0  0
    7.3258  -15.7079   21.1493 C   0  0  0  0  0  0  0  0  0  0  0  0
    8.2093  -15.1453   22.1819 C   0  0  0  0  0  0  0  0  0  0  0  0
    8.8143  -14.0379   21.9879 O   0  0  0  0  0  0  0  0  0  0  0  0
    5.1849  -11.5133   26.8015 O   0  0  0  0  0  0  0  0  0  0  0  0
    6.1531  -12.4754   26.5317 C   0  0  0  0  0  0  0  0  0  0  0  0
    7.5069  -12.1946   26.5853 C   0  0  0  0  0  0  0  0  0  0  0  0
    8.4655  -13.1465   26.3183 C   0  0  0  0  0  0  0  0  0  0  0  0
    8.0866  -14.4464   25.9797 C   0  0  0  0  0  0  0  0  0  0  0  0
    9.1110  -15.4664   25.6898 C   0  0  0  0  0  0  0  0  0  0  0  0
    9.6119  -15.4227   24.2628 C   0  0  2  0  0  0  0  0  0  0  0  0
    8.4524  -15.7653   23.4331 N   0  0  0  0  0  0  0  0  0  0  0  0
   10.7292  -16.3456   24.0060 C   0  0  0  0  0  0  0  0  0  0  0  0
   10.5005  -17.4220   23.3962 O   0  0  0  0  0  0  0  0  0  0  0  0
    6.7448  -14.7132   25.9294 C   0  0  0  0  0  0  0  0  0  0  0  0
    5.7960  -13.7579   26.1972 C   0  0  0  0  0  0  0  0  0  0  0  0
   12.0331  -16.0973   24.3995 O   0  0  0  0  0  0  0  0  0  0  0  0
  2  1  1  0
  2  3  2  0
  4  2  1  0
  5  4  1  0
  6  5  1  0
  6  7  1  1
  8 10  1  0
  8  6  1  0
  9  8  2  0
 11 12  1  0
 11 10  1  0
 12 21  1  0
 13 12  2  0
 15 25  2  0
 15 14  1  0
 16 15  1  0
 17 18  1  0
 17 16  2  0
 18 24  2  0
 19 18  1  0
 20 19  1  1
 20 22  1  0
 21 20  1  0
 22 23  2  0
 22 26  1  0
 24 25  1  0
M  END
$$$$
