AVC.pdb
     RDKit          3D

 19 18  0  0  1  0  0  0  0  0999 V2000
   24.0824  -12.0098  -15.4497 C   0  0  0  0  0  0  0  0  0  0  0  0
   22.6603  -11.9855  -15.9536 C   0  0  2  0  0  0  0  0  0  0  0  0
   22.3738  -13.0017  -16.9065 N   0  0  0  0  0  0  0  0  0  0  0  0
   22.2825  -10.6645  -16.5023 C   0  0  0  0  0  0  0  0  0  0  0  0
   22.5362  -10.3186  -17.6866 O   0  0  0  0  0  0  0  0  0  0  0  0
   18.9635   -8.9731  -14.9231 C   0  0  0  0  0  0  0  0  0  0  0  0
   19.6100   -8.6244  -16.2488 C   0  0  2  0  0  0  0  0  0  0  0  0
   19.1743   -9.6215  -17.2624 C   0  0  0  0  0  0  0  0  0  0  0  0
   21.0817   -8.4967  -16.0708 C   0  0  2  0  0  0  0  0  0  0  0  0
   21.6053   -9.7667  -15.6347 N   0  0  0  0  0  0  0  0  0  0  0  0
   21.5381   -7.4542  -15.1741 C   0  0  0  0  0  0  0  0  0  0  0  0
   21.6742   -7.5655  -13.9266 O   0  0  0  0  0  0  0  0  0  0  0  0
   21.8737   -6.1761  -15.7019 N   0  0  0  0  0  0  0  0  0  0  0  0
   22.4398   -5.1291  -14.8721 C   0  0  1  0  0  0  0  0  0  0  0  0
   23.4273   -4.2770  -15.6280 C   0  0  0  0  0  0  0  0  0  0  0  0
   24.7213   -5.2345  -16.4198 S   0  0  0  0  0  0  0  0  0  0  0  0
   21.3599   -4.2820  -14.3402 C   0  0  0  0  0  0  0  0  0  0  0  0
   21.5812   -3.4678  -13.4019 O   0  0  0  0  0  0  0  0  0  0  0  0
   20.0701   -4.3324  -14.8309 O   0  0  0  0  0  0  0  0  0  0  0  0
  2  1  1  6
  2  3  1  0
  4  2  1  0
  5  4  2  0
  7  6  1  1
  7  9  1  0
  8  7  1  0
  9 10  1  1
 10  4  1  0
 11  9  1  0
 11 12  2  0
 13 14  1  0
 13 11  1  0
 14 15  1  6
 16 15  1  0
 17 14  1  0
 18 17  2  0
 19 17  1  0
M  END
$$$$
