AVC.pdb
     RDKit          3D

 19 18  0  0  1  0  0  0  0  0999 V2000
   13.4728  -12.8668  -15.6133 C   0  0  0  0  0  0  0  0  0  0  0  0
   14.7781  -13.5763  -15.3491 C   0  0  2  0  0  0  0  0  0  0  0  0
   14.6602  -14.6772  -14.4563 N   0  0  0  0  0  0  0  0  0  0  0  0
   15.8305  -12.6537  -14.8692 C   0  0  0  0  0  0  0  0  0  0  0  0
   15.9945  -12.3787  -13.6510 O   0  0  0  0  0  0  0  0  0  0  0  0
   19.3829  -13.0323  -15.6181 C   0  0  0  0  0  0  0  0  0  0  0  0
   19.0022  -11.6778  -16.1818 C   0  0  2  0  0  0  0  0  0  0  0  0
   20.1828  -10.7789  -16.0865 C   0  0  0  0  0  0  0  0  0  0  0  0
   17.7686  -11.1846  -15.5117 C   0  0  2  0  0  0  0  0  0  0  0  0
   16.6787  -12.0665  -15.8455 N   0  0  0  0  0  0  0  0  0  0  0  0
   17.3831   -9.8160  -15.7894 C   0  0  0  0  0  0  0  0  0  0  0  0
   16.9079   -9.3925  -16.8767 O   0  0  0  0  0  0  0  0  0  0  0  0
   17.5358   -8.8278  -14.7769 N   0  0  0  0  0  0  0  0  0  0  0  0
   17.3265   -7.4173  -15.0451 C   0  0  1  0  0  0  0  0  0  0  0  0
   16.3333   -6.7997  -14.0940 C   0  0  0  0  0  0  0  0  0  0  0  0
   16.3522   -5.0062  -14.1240 S   0  0  0  0  0  0  0  0  0  0  0  0
   18.6096   -6.7016  -14.9551 C   0  0  0  0  0  0  0  0  0  0  0  0
   18.9313   -5.8423  -15.8213 O   0  0  0  0  0  0  0  0  0  0  0  0
   19.5136   -6.9284  -13.9361 O   0  0  0  0  0  0  0  0  0  0  0  0
  2  1  1  1
  2  3  1  0
  4  2  1  0
  5  4  2  0
  7  6  1  1
  7  9  1  0
  8  7  1  0
  9 10  1  6
 10  4  1  0
 11  9  1  0
 11 12  2  0
 13 14  1  0
 13 11  1  0
 14 15  1  1
 16 15  1  0
 17 14  1  0
 18 17  2  0
 19 17  1  0
M  END
$$$$
