AVC.pdb
     RDKit          3D

 19 18  0  0  1  0  0  0  0  0999 V2000
   27.9167  -16.9813  -15.3903 C   0  0  0  0  0  0  0  0  0  0  0  0
   26.9391  -18.0717  -15.7538 C   0  0  2  0  0  0  0  0  0  0  0  0
   26.0741  -17.7291  -16.8295 N   0  0  0  0  0  0  0  0  0  0  0  0
   26.1395  -18.5180  -14.5917 C   0  0  0  0  0  0  0  0  0  0  0  0
   25.2157  -17.8236  -14.0908 O   0  0  0  0  0  0  0  0  0  0  0  0
   24.2594  -21.5360  -14.5681 C   0  0  0  0  0  0  0  0  0  0  0  0
   25.1959  -21.7057  -13.3885 C   0  0  2  0  0  0  0  0  0  0  0  0
   24.4965  -22.4968  -12.3415 C   0  0  0  0  0  0  0  0  0  0  0  0
   25.6998  -20.3751  -12.9530 C   0  0  2  0  0  0  0  0  0  0  0  0
   26.4478  -19.7883  -14.0363 N   0  0  0  0  0  0  0  0  0  0  0  0
   26.4998  -20.3484  -11.7455 C   0  0  0  0  0  0  0  0  0  0  0  0
   27.6795  -20.7771  -11.6358 O   0  0  0  0  0  0  0  0  0  0  0  0
   25.9483  -19.8000  -10.5539 N   0  0  0  0  0  0  0  0  0  0  0  0
   26.4288  -20.1841   -9.2398 C   0  0  1  0  0  0  0  0  0  0  0  0
   26.9168  -18.9997   -8.4450 C   0  0  0  0  0  0  0  0  0  0  0  0
   27.3581  -19.4186   -6.7575 S   0  0  0  0  0  0  0  0  0  0  0  0
   25.3544  -20.8674   -8.5012 C   0  0  0  0  0  0  0  0  0  0  0  0
   24.1465  -20.7182   -8.8344 O   0  0  0  0  0  0  0  0  0  0  0  0
   25.6066  -21.6934   -7.4238 O   0  0  0  0  0  0  0  0  0  0  0  0
  2  1  1  1
  2  3  1  0
  4  2  1  0
  5  4  2  0
  7  6  1  6
  7  9  1  0
  8  7  1  0
  9 10  1  6
 10  4  1  0
 11  9  1  0
 11 12  2  0
 13 14  1  0
 13 11  1  0
 14 15  1  1
 16 15  1  0
 17 14  1  0
 18 17  2  0
 19 17  1  0
M  END
$$$$
