AVC.pdb
     RDKit          3D

 19 18  0  0  1  0  0  0  0  0999 V2000
   21.7328  -19.5537  -17.3171 C   0  0  0  0  0  0  0  0  0  0  0  0
   22.5649  -19.5594  -16.0583 C   0  0  2  0  0  0  0  0  0  0  0  0
   21.9641  -20.2641  -14.9788 N   0  0  0  0  0  0  0  0  0  0  0  0
   22.9309  -18.1938  -15.6221 C   0  0  0  0  0  0  0  0  0  0  0  0
   22.3062  -17.5740  -14.7208 O   0  0  0  0  0  0  0  0  0  0  0  0
   26.0138  -17.0852  -14.2501 C   0  0  0  0  0  0  0  0  0  0  0  0
   25.8969  -16.2848  -15.5319 C   0  0  2  0  0  0  0  0  0  0  0  0
   26.5443  -14.9626  -15.3226 C   0  0  0  0  0  0  0  0  0  0  0  0
   24.4743  -16.2374  -15.9654 C   0  0  2  0  0  0  0  0  0  0  0  0
   24.0384  -17.5784  -16.2638 N   0  0  0  0  0  0  0  0  0  0  0  0
   24.1662  -15.3706  -17.0846 C   0  0  0  0  0  0  0  0  0  0  0  0
   24.6409  -15.4745  -18.2470 O   0  0  0  0  0  0  0  0  0  0  0  0
   23.2533  -14.2941  -16.9041 N   0  0  0  0  0  0  0  0  0  0  0  0
   22.8866  -13.4095  -17.9942 C   0  0  1  0  0  0  0  0  0  0  0  0
   21.4227  -13.0506  -17.9662 C   0  0  0  0  0  0  0  0  0  0  0  0
   20.3567  -14.4658  -17.6853 S   0  0  0  0  0  0  0  0  0  0  0  0
   23.6985  -12.1834  -17.9300 C   0  0  0  0  0  0  0  0  0  0  0  0
   23.6695  -11.3405  -18.8686 O   0  0  0  0  0  0  0  0  0  0  0  0
   24.5206  -11.8955  -16.8585 O   0  0  0  0  0  0  0  0  0  0  0  0
  2  1  1  6
  2  3  1  0
  4  2  1  0
  5  4  2  0
  7  6  1  1
  7  9  1  0
  8  7  1  0
  9 10  1  6
 10  4  1  0
 11  9  1  0
 11 12  2  0
 13 14  1  0
 13 11  1  0
 14 15  1  1
 16 15  1  0
 17 14  1  0
 18 17  2  0
 19 17  1  0
M  END
$$$$
