AVC.pdb
     RDKit          3D

 19 18  0  0  1  0  0  0  0  0999 V2000
   17.7721  -12.4974  -17.9435 C   0  0  0  0  0  0  0  0  0  0  0  0
   18.7353  -13.1060  -16.9542 C   0  0  2  0  0  0  0  0  0  0  0  0
   18.2053  -14.2247  -16.2540 N   0  0  0  0  0  0  0  0  0  0  0  0
   19.2510  -12.1104  -15.9889 C   0  0  0  0  0  0  0  0  0  0  0  0
   18.6603  -11.8339  -14.9113 O   0  0  0  0  0  0  0  0  0  0  0  0
   22.7052  -11.9386  -14.6193 C   0  0  0  0  0  0  0  0  0  0  0  0
   22.4837  -10.6327  -15.3560 C   0  0  2  0  0  0  0  0  0  0  0  0
   23.2341   -9.5603  -14.6502 C   0  0  0  0  0  0  0  0  0  0  0  0
   21.0247  -10.3899  -15.5184 C   0  0  2  0  0  0  0  0  0  0  0  0
   20.4666  -11.4526  -16.3161 N   0  0  0  0  0  0  0  0  0  0  0  0
   20.6390   -9.1118  -16.0812 C   0  0  0  0  0  0  0  0  0  0  0  0
   20.8575   -8.7331  -17.2628 O   0  0  0  0  0  0  0  0  0  0  0  0
   19.9512   -8.1688  -15.2672 N   0  0  0  0  0  0  0  0  0  0  0  0
   19.5287   -6.8787  -15.7793 C   0  0  1  0  0  0  0  0  0  0  0  0
   18.0600   -6.6295  -15.5486 C   0  0  0  0  0  0  0  0  0  0  0  0
   17.0252   -8.0047  -16.0546 S   0  0  0  0  0  0  0  0  0  0  0  0
   20.3182   -5.8118  -15.1428 C   0  0  0  0  0  0  0  0  0  0  0  0
   21.0825   -6.0666  -14.1717 O   0  0  0  0  0  0  0  0  0  0  0  0
   20.2653   -4.4987  -15.5668 O   0  0  0  0  0  0  0  0  0  0  0  0
  2  1  1  1
  2  3  1  0
  4  2  1  0
  5  4  2  0
  7  6  1  1
  7  9  1  0
  8  7  1  0
  9 10  1  6
 10  4  1  0
 11  9  1  0
 11 12  2  0
 13 14  1  0
 13 11  1  0
 14 15  1  1
 16 15  1  0
 17 14  1  0
 18 17  2  0
 19 17  1  0
M  END
$$$$
