AVC.pdb
     RDKit          3D

 19 18  0  0  1  0  0  0  0  0999 V2000
   16.0093  -12.2366  -11.6337 C   0  0  0  0  0  0  0  0  0  0  0  0
   15.1392  -11.6639  -10.5420 C   0  0  2  0  0  0  0  0  0  0  0  0
   14.0101  -12.4699  -10.2285 N   0  0  0  0  0  0  0  0  0  0  0  0
   14.7003  -10.2830  -10.8414 C   0  0  0  0  0  0  0  0  0  0  0  0
   13.6946  -10.0253  -11.5546 O   0  0  0  0  0  0  0  0  0  0  0  0
   15.6282   -7.4620   -8.0705 C   0  0  0  0  0  0  0  0  0  0  0  0
   14.5688   -7.3343   -9.1469 C   0  0  2  0  0  0  0  0  0  0  0  0
   13.3297   -8.0042   -8.6705 C   0  0  0  0  0  0  0  0  0  0  0  0
   15.1067   -7.8330  -10.4415 C   0  0  2  0  0  0  0  0  0  0  0  0
   15.4640   -9.2209  -10.2882 N   0  0  0  0  0  0  0  0  0  0  0  0
   16.2282   -7.1060  -11.0006 C   0  0  0  0  0  0  0  0  0  0  0  0
   17.4294   -7.2140  -10.6361 O   0  0  0  0  0  0  0  0  0  0  0  0
   16.0032   -6.1778  -12.0555 N   0  0  0  0  0  0  0  0  0  0  0  0
   17.0960   -5.4869  -12.7142 C   0  0  1  0  0  0  0  0  0  0  0  0
   17.0964   -5.7157  -14.2042 C   0  0  0  0  0  0  0  0  0  0  0  0
   17.1589   -7.4524  -14.6492 S   0  0  0  0  0  0  0  0  0  0  0  0
   17.0085   -4.0444  -12.4345 C   0  0  0  0  0  0  0  0  0  0  0  0
   15.9409   -3.5362  -11.9936 O   0  0  0  0  0  0  0  0  0  0  0  0
   18.0710   -3.1858  -12.6361 O   0  0  0  0  0  0  0  0  0  0  0  0
  2  1  1  6
  2  3  1  0
  4  2  1  0
  5  4  2  0
  7  6  1  1
  7  9  1  0
  8  7  1  0
  9 10  1  1
 10  4  1  0
 11  9  1  0
 11 12  2  0
 13 14  1  0
 13 11  1  0
 14 15  1  6
 16 15  1  0
 17 14  1  0
 18 17  2  0
 19 17  1  0
M  END
$$$$
