VLS.pdb
     RDKit          3D

 22 21  0  0  1  0  0  0  0  0999 V2000
    9.3056  -18.1622   21.3161 C   0  0  0  0  0  0  0  0  0  0  0  0
    7.8925  -17.7137   21.3042 C   0  0  2  0  0  0  0  0  0  0  0  0
    7.1195  -18.4475   20.2152 C   0  0  0  0  0  0  0  0  0  0  0  0
    7.6731  -16.2377   21.0920 C   0  0  2  0  0  0  0  0  0  0  0  0
    8.3441  -15.8167   19.8482 N   0  0  0  0  0  0  0  0  0  0  0  0
    8.1686  -15.3813   22.1827 C   0  0  0  0  0  0  0  0  0  0  0  0
    9.3363  -14.9107   22.0771 O   0  0  0  0  0  0  0  0  0  0  0  0
    5.8077  -12.5391   27.1479 C   0  0  0  0  0  0  0  0  0  0  0  0
    7.0871  -12.7660   26.3165 C   0  0  2  0  0  0  0  0  0  0  0  0
    7.5063  -11.4002   25.8654 C   0  0  0  0  0  0  0  0  0  0  0  0
    6.7414  -13.7272   25.2394 C   0  0  0  0  0  0  0  0  0  0  0  0
    7.8378  -14.1827   24.3517 C   0  0  2  0  0  0  0  0  0  0  0  0
    7.3818  -15.0781   23.3236 N   0  0  0  0  0  0  0  0  0  0  0  0
    8.8532  -14.8510   25.2347 C   0  0  0  0  0  0  0  0  0  0  0  0
    9.4075  -14.2634   26.1879 O   0  0  0  0  0  0  0  0  0  0  0  0
    9.5757  -18.9047   24.7206 O   0  0  0  0  0  0  0  0  0  0  0  0
    9.9048  -18.3214   25.9206 C   0  0  0  0  0  0  0  0  0  0  0  0
   10.2816  -16.8584   25.7463 C   0  0  2  0  0  0  0  0  0  0  0  0
    9.2140  -16.2054   24.9960 N   0  0  0  0  0  0  0  0  0  0  0  0
   11.5645  -16.8086   25.0072 C   0  0  0  0  0  0  0  0  0  0  0  0
   11.5395  -16.4126   23.8142 O   0  0  0  0  0  0  0  0  0  0  0  0
   12.7727  -17.1706   25.5548 O   0  0  0  0  0  0  0  0  0  0  0  0
  2  4  1  0
  2  1  1  6
  2  3  1  0
  4  6  1  0
  4  5  1  6
  6 13  1  0
  6  7  2  0
  9  8  1  1
  9 10  1  0
 12 11  1  1
 11  9  1  0
 12 14  1  0
 13 12  1  0
 14 15  2  0
 16 17  1  0
 18 17  1  6
 18 20  1  0
 19 14  1  0
 19 18  1  0
 20 22  1  0
 21 20  2  0
M  END
$$$$
