VLS.pdb
     RDKit          3D

 22 21  0  0  1  0  0  0  0  0999 V2000
    5.5561  -21.5212   24.3604 C   0  0  0  0  0  0  0  0  0  0  0  0
    6.3658  -20.2908   24.1907 C   0  0  2  0  0  0  0  0  0  0  0  0
    7.1679  -20.0132   25.4562 C   0  0  0  0  0  0  0  0  0  0  0  0
    5.5956  -19.0369   23.8646 C   0  0  2  0  0  0  0  0  0  0  0  0
    4.9679  -19.1788   22.5379 N   0  0  0  0  0  0  0  0  0  0  0  0
    6.4049  -17.8066   23.8504 C   0  0  0  0  0  0  0  0  0  0  0  0
    7.1912  -17.6309   22.8773 O   0  0  0  0  0  0  0  0  0  0  0  0
    6.7723  -12.5312   27.0761 C   0  0  0  0  0  0  0  0  0  0  0  0
    7.4122  -13.3600   25.9434 C   0  0  2  0  0  0  0  0  0  0  0  0
    7.3569  -12.4765   24.7346 C   0  0  0  0  0  0  0  0  0  0  0  0
    6.6527  -14.6322   25.8524 C   0  0  0  0  0  0  0  0  0  0  0  0
    7.1208  -15.6393   24.8706 C   0  0  2  0  0  0  0  0  0  0  0  0
    6.3229  -16.8351   24.8808 N   0  0  0  0  0  0  0  0  0  0  0  0
    8.5501  -15.9442   25.2193 C   0  0  0  0  0  0  0  0  0  0  0  0
    8.9028  -16.3004   26.3638 O   0  0  0  0  0  0  0  0  0  0  0  0
   11.6423  -15.3361   22.4382 O   0  0  0  0  0  0  0  0  0  0  0  0
   11.4387  -16.6037   22.9285 C   0  0  0  0  0  0  0  0  0  0  0  0
   10.8119  -16.5733   24.3137 C   0  0  2  0  0  0  0  0  0  0  0  0
    9.5594  -15.8302   24.2243 N   0  0  0  0  0  0  0  0  0  0  0  0
   11.7683  -15.9045   25.2263 C   0  0  0  0  0  0  0  0  0  0  0  0
   12.9244  -16.3891   25.3225 O   0  0  0  0  0  0  0  0  0  0  0  0
   11.4588  -14.7890   25.9684 O   0  0  0  0  0  0  0  0  0  0  0  0
  2  4  1  0
  2  1  1  1
  2  3  1  0
  4  6  1  0
  4  5  1  6
  6 13  1  0
  6  7  2  0
  9  8  1  1
  9 10  1  0
 12 11  1  1
 11  9  1  0
 12 14  1  0
 13 12  1  0
 14 15  2  0
 16 17  1  0
 18 17  1  6
 18 20  1  0
 19 14  1  0
 19 18  1  0
 20 22  1  0
 21 20  2  0
M  END
$$$$
