VLS.pdb
     RDKit          3D

 22 21  0  0  1  0  0  0  0  0999 V2000
    7.7639  -20.5259   24.0402 C   0  0  0  0  0  0  0  0  0  0  0  0
    6.5810  -20.2176   24.8792 C   0  0  2  0  0  0  0  0  0  0  0  0
    5.7543  -21.4782   25.1018 C   0  0  0  0  0  0  0  0  0  0  0  0
    5.6506  -19.1613   24.3406 C   0  0  2  0  0  0  0  0  0  0  0  0
    5.0777  -19.6192   23.0614 N   0  0  0  0  0  0  0  0  0  0  0  0
    6.2804  -17.8505   24.1082 C   0  0  0  0  0  0  0  0  0  0  0  0
    6.7605  -17.6235   22.9618 O   0  0  0  0  0  0  0  0  0  0  0  0
    7.9584  -12.8025   24.8603 C   0  0  0  0  0  0  0  0  0  0  0  0
    6.6244  -13.2151   25.5160 C   0  0  2  0  0  0  0  0  0  0  0  0
    6.3904  -12.2020   26.5947 C   0  0  0  0  0  0  0  0  0  0  0  0
    6.7781  -14.6206   25.9683 C   0  0  0  0  0  0  0  0  0  0  0  0
    7.0976  -15.6389   24.9396 C   0  0  2  0  0  0  0  0  0  0  0  0
    6.3576  -16.8582   25.1190 N   0  0  0  0  0  0  0  0  0  0  0  0
    8.5763  -15.8895   25.0308 C   0  0  0  0  0  0  0  0  0  0  0  0
    9.1353  -16.2427   26.0908 O   0  0  0  0  0  0  0  0  0  0  0  0
   10.7496  -15.4276   21.5615 O   0  0  0  0  0  0  0  0  0  0  0  0
   10.9858  -16.5741   22.2814 C   0  0  0  0  0  0  0  0  0  0  0  0
   10.6933  -16.3756   23.7605 C   0  0  2  0  0  0  0  0  0  0  0  0
    9.3927  -15.7249   23.8784 N   0  0  0  0  0  0  0  0  0  0  0  0
   11.7701  -15.5278   24.3229 C   0  0  0  0  0  0  0  0  0  0  0  0
   11.4469  -14.4142   24.8088 O   0  0  0  0  0  0  0  0  0  0  0  0
   13.0956  -15.8934   24.3406 O   0  0  0  0  0  0  0  0  0  0  0  0
  2  4  1  0
  2  1  1  6
  2  3  1  0
  4  6  1  0
  4  5  1  6
  6 13  1  0
  6  7  2  0
  9  8  1  1
  9 10  1  0
 12 11  1  1
 11  9  1  0
 12 14  1  0
 13 12  1  0
 14 15  2  0
 16 17  1  0
 18 17  1  6
 18 20  1  0
 19 14  1  0
 19 18  1  0
 20 22  1  0
 21 20  2  0
M  END
$$$$
