VLS.pdb
     RDKit          3D

 22 21  0  0  1  0  0  0  0  0999 V2000
    7.4066  -17.4165   19.1214 C   0  0  0  0  0  0  0  0  0  0  0  0
    7.8728  -17.0160   20.4706 C   0  0  2  0  0  0  0  0  0  0  0  0
    6.8889  -17.4991   21.5292 C   0  0  0  0  0  0  0  0  0  0  0  0
    8.0713  -15.5375   20.6854 C   0  0  2  0  0  0  0  0  0  0  0  0
    9.1112  -15.0439   19.7637 N   0  0  0  0  0  0  0  0  0  0  0  0
    8.4688  -15.1647   22.0535 C   0  0  0  0  0  0  0  0  0  0  0  0
    9.6603  -15.3966   22.4038 O   0  0  0  0  0  0  0  0  0  0  0  0
    5.9344  -12.3101   26.9427 C   0  0  0  0  0  0  0  0  0  0  0  0
    7.1750  -13.0722   26.4329 C   0  0  2  0  0  0  0  0  0  0  0  0
    8.3256  -12.1397   26.6590 C   0  0  0  0  0  0  0  0  0  0  0  0
    6.9081  -13.4427   25.0204 C   0  0  0  0  0  0  0  0  0  0  0  0
    7.9448  -14.2313   24.3129 C   0  0  2  0  0  0  0  0  0  0  0  0
    7.5650  -14.5634   22.9667 N   0  0  0  0  0  0  0  0  0  0  0  0
    8.1693  -15.4725   25.1294 C   0  0  0  0  0  0  0  0  0  0  0  0
    7.2339  -16.2136   25.4993 O   0  0  0  0  0  0  0  0  0  0  0  0
   12.0034  -16.9160   25.2950 O   0  0  0  0  0  0  0  0  0  0  0  0
   10.9313  -17.7681   25.4096 C   0  0  0  0  0  0  0  0  0  0  0  0
    9.7761  -17.1162   26.1532 C   0  0  2  0  0  0  0  0  0  0  0  0
    9.4898  -15.8390   25.5084 N   0  0  0  0  0  0  0  0  0  0  0  0
   10.1973  -16.9239   27.5604 C   0  0  0  0  0  0  0  0  0  0  0  0
   10.2547  -15.7476   28.0004 O   0  0  0  0  0  0  0  0  0  0  0  0
   10.5265  -17.9585   28.4042 O   0  0  0  0  0  0  0  0  0  0  0  0
  2  4  1  0
  2  1  1  6
  2  3  1  0
  4  6  1  0
  4  5  1  6
  6 13  1  0
  6  7  2  0
  9  8  1  6
  9 10  1  0
 12 11  1  1
 11  9  1  0
 12 14  1  0
 13 12  1  0
 14 15  2  0
 16 17  1  0
 18 17  1  6
 18 20  1  0
 19 14  1  0
 19 18  1  0
 20 22  1  0
 21 20  2  0
M  END
$$$$
