VLS.pdb
     RDKit          3D

 22 21  0  0  1  0  0  0  0  0999 V2000
    8.0690  -18.8837   22.7648 C   0  0  0  0  0  0  0  0  0  0  0  0
    6.7571  -18.1932   22.7831 C   0  0  2  0  0  0  0  0  0  0  0  0
    5.8240  -18.8146   21.7511 C   0  0  0  0  0  0  0  0  0  0  0  0
    6.7914  -16.7096   22.5199 C   0  0  2  0  0  0  0  0  0  0  0  0
    7.2849  -16.4662   21.1519 N   0  0  0  0  0  0  0  0  0  0  0  0
    7.6394  -15.9419   23.4475 C   0  0  0  0  0  0  0  0  0  0  0  0
    8.8696  -15.8451   23.1768 O   0  0  0  0  0  0  0  0  0  0  0  0
    7.4853  -11.6954   25.0398 C   0  0  0  0  0  0  0  0  0  0  0  0
    6.4528  -12.6190   25.7186 C   0  0  2  0  0  0  0  0  0  0  0  0
    5.6434  -11.7176   26.6002 C   0  0  0  0  0  0  0  0  0  0  0  0
    7.2145  -13.6894   26.4098 C   0  0  0  0  0  0  0  0  0  0  0  0
    7.9607  -14.6521   25.5649 C   0  0  2  0  0  0  0  0  0  0  0  0
    7.1180  -15.3213   24.6117 N   0  0  0  0  0  0  0  0  0  0  0  0
    8.5998  -15.6374   26.5021 C   0  0  0  0  0  0  0  0  0  0  0  0
    7.9340  -16.4192   27.2138 O   0  0  0  0  0  0  0  0  0  0  0  0
   12.7571  -15.9119   26.5093 O   0  0  0  0  0  0  0  0  0  0  0  0
   12.0124  -17.0482   26.7165 C   0  0  0  0  0  0  0  0  0  0  0  0
   10.6851  -16.7320   27.3880 C   0  0  2  0  0  0  0  0  0  0  0  0
   10.0168  -15.7016   26.6002 N   0  0  0  0  0  0  0  0  0  0  0  0
   10.9767  -16.2538   28.7595 C   0  0  0  0  0  0  0  0  0  0  0  0
   10.5916  -15.0987   29.0725 O   0  0  0  0  0  0  0  0  0  0  0  0
   11.6422  -17.0029   29.7011 O   0  0  0  0  0  0  0  0  0  0  0  0
  2  4  1  0
  2  1  1  6
  2  3  1  0
  4  6  1  0
  4  5  1  6
  6 13  1  0
  6  7  2  0
  9  8  1  1
  9 10  1  0
 12 11  1  1
 11  9  1  0
 12 14  1  0
 13 12  1  0
 14 15  2  0
 16 17  1  0
 18 17  1  6
 18 20  1  0
 19 14  1  0
 19 18  1  0
 20 22  1  0
 21 20  2  0
M  END
$$$$
