VLS.pdb
     RDKit          3D

 22 21  0  0  1  0  0  0  0  0999 V2000
    7.8876  -12.2669   20.8522 C   0  0  0  0  0  0  0  0  0  0  0  0
    8.4880  -13.4847   20.2567 C   0  0  2  0  0  0  0  0  0  0  0  0
    7.9502  -13.6978   18.8470 C   0  0  0  0  0  0  0  0  0  0  0  0
    8.2675  -14.7662   21.0187 C   0  0  2  0  0  0  0  0  0  0  0  0
    6.8447  -15.1453   20.9380 N   0  0  0  0  0  0  0  0  0  0  0  0
    8.6366  -14.7038   22.4430 C   0  0  0  0  0  0  0  0  0  0  0  0
    9.8612  -14.5806   22.7285 O   0  0  0  0  0  0  0  0  0  0  0  0
    8.1272  -11.9884   26.0597 C   0  0  0  0  0  0  0  0  0  0  0  0
    6.8168  -12.6548   25.5921 C   0  0  2  0  0  0  0  0  0  0  0  0
    5.7456  -12.0526   26.4492 C   0  0  0  0  0  0  0  0  0  0  0  0
    7.0038  -14.1216   25.7224 C   0  0  0  0  0  0  0  0  0  0  0  0
    8.0357  -14.7578   24.8692 C   0  0  2  0  0  0  0  0  0  0  0  0
    7.6702  -14.7760   23.4789 N   0  0  0  0  0  0  0  0  0  0  0  0
    8.2234  -16.1532   25.3937 C   0  0  0  0  0  0  0  0  0  0  0  0
    7.2783  -16.9622   25.5087 O   0  0  0  0  0  0  0  0  0  0  0  0
   11.6676  -17.9546   24.8128 O   0  0  0  0  0  0  0  0  0  0  0  0
   10.5688  -18.6837   25.1996 C   0  0  0  0  0  0  0  0  0  0  0  0
    9.7564  -17.9523   26.2568 C   0  0  2  0  0  0  0  0  0  0  0  0
    9.5187  -16.5936   25.7809 N   0  0  0  0  0  0  0  0  0  0  0  0
   10.5456  -17.9510   27.5105 C   0  0  0  0  0  0  0  0  0  0  0  0
   10.9164  -16.8408   27.9695 O   0  0  0  0  0  0  0  0  0  0  0  0
   10.8910  -19.0935   28.1933 O   0  0  0  0  0  0  0  0  0  0  0  0
  2  4  1  0
  2  1  1  1
  2  3  1  0
  4  6  1  0
  4  5  1  1
  6 13  1  0
  6  7  2  0
  9  8  1  1
  9 10  1  0
 12 11  1  1
 11  9  1  0
 12 14  1  0
 13 12  1  0
 14 15  2  0
 16 17  1  0
 18 17  1  6
 18 20  1  0
 19 14  1  0
 19 18  1  0
 20 22  1  0
 21 20  2  0
M  END
$$$$
