VLS.pdb
     RDKit          3D

 22 21  0  0  1  0  0  0  0  0999 V2000
    7.9397  -17.7779   20.7528 C   0  0  0  0  0  0  0  0  0  0  0  0
    6.9670  -16.7082   20.4244 C   0  0  2  0  0  0  0  0  0  0  0  0
    6.3835  -16.9395   19.0359 C   0  0  0  0  0  0  0  0  0  0  0  0
    7.5033  -15.3000   20.4559 C   0  0  2  0  0  0  0  0  0  0  0  0
    8.5795  -15.1633   19.4571 N   0  0  0  0  0  0  0  0  0  0  0  0
    8.0430  -14.8786   21.7596 C   0  0  0  0  0  0  0  0  0  0  0  0
    9.2816  -15.0278   21.9596 O   0  0  0  0  0  0  0  0  0  0  0  0
    7.7374  -13.3710   27.0695 C   0  0  0  0  0  0  0  0  0  0  0  0
    7.3205  -12.3498   25.9910 C   0  0  2  0  0  0  0  0  0  0  0  0
    6.3495  -11.4358   26.6740 C   0  0  0  0  0  0  0  0  0  0  0  0
    6.7854  -13.1235   24.8427 C   0  0  0  0  0  0  0  0  0  0  0  0
    7.7473  -13.9293   24.0535 C   0  0  2  0  0  0  0  0  0  0  0  0
    7.2227  -14.3202   22.7734 N   0  0  0  0  0  0  0  0  0  0  0  0
    8.0817  -15.1335   24.8875 C   0  0  0  0  0  0  0  0  0  0  0  0
    7.2081  -15.9074   25.3335 O   0  0  0  0  0  0  0  0  0  0  0  0
   12.0162  -16.2982   24.9111 O   0  0  0  0  0  0  0  0  0  0  0  0
   11.0210  -17.2368   25.0425 C   0  0  0  0  0  0  0  0  0  0  0  0
    9.8317  -16.6863   25.8138 C   0  0  2  0  0  0  0  0  0  0  0  0
    9.4390  -15.4247   25.1947 N   0  0  0  0  0  0  0  0  0  0  0  0
   10.2595  -16.4844   27.2177 C   0  0  0  0  0  0  0  0  0  0  0  0
   10.2007  -15.3196   27.6874 O   0  0  0  0  0  0  0  0  0  0  0  0
   10.7145  -17.4980   28.0278 O   0  0  0  0  0  0  0  0  0  0  0  0
  2  4  1  0
  2  1  1  6
  2  3  1  0
  4  6  1  0
  4  5  1  6
  6 13  1  0
  6  7  2  0
  9  8  1  1
  9 10  1  0
 12 11  1  1
 11  9  1  0
 12 14  1  0
 13 12  1  0
 14 15  2  0
 16 17  1  0
 18 17  1  6
 18 20  1  0
 19 14  1  0
 19 18  1  0
 20 22  1  0
 21 20  2  0
M  END
$$$$
