AIE.pdb
     RDKit          3D

 23 22  0  0  1  0  0  0  0  0999 V2000
    6.7409  -14.6793   19.9763 C   0  0  0  0  0  0  0  0  0  0  0  0
    7.4046  -13.4448   20.5210 C   0  0  2  0  0  0  0  0  0  0  0  0
    8.3275  -12.8817   19.5559 N   0  0  0  0  0  0  0  0  0  0  0  0
    8.0618  -13.6649   21.8219 C   0  0  0  0  0  0  0  0  0  0  0  0
    9.2767  -13.9565   21.8333 O   0  0  0  0  0  0  0  0  0  0  0  0
    6.2657  -11.1180   26.3480 C   0  0  0  0  0  0  0  0  0  0  0  0
    7.1696  -11.6690   25.2587 C   0  0  0  0  0  0  0  0  0  0  0  0
    7.2862  -13.1544   25.4834 C   0  0  2  0  0  0  0  0  0  0  0  0
    8.0213  -13.3758   26.7880 C   0  0  0  0  0  0  0  0  0  0  0  0
    7.9897  -13.8493   24.3332 C   0  0  2  0  0  0  0  0  0  0  0  0
    7.3840  -13.5627   23.0682 N   0  0  0  0  0  0  0  0  0  0  0  0
    7.9821  -15.3119   24.6450 C   0  0  0  0  0  0  0  0  0  0  0  0
    7.0991  -16.0412   24.1245 O   0  0  0  0  0  0  0  0  0  0  0  0
    8.9266  -15.9136   25.5018 N   0  0  0  0  0  0  0  0  0  0  0  0
    9.6427  -17.1538   25.1550 C   0  0  1  0  0  0  0  0  0  0  0  0
   10.3737  -17.0053   23.8661 C   0  0  0  0  0  0  0  0  0  0  0  0
   11.2257  -18.2005   23.5941 C   0  0  0  0  0  0  0  0  0  0  0  0
   11.9561  -18.0288   22.2852 C   0  0  0  0  0  0  0  0  0  0  0  0
   12.2211  -19.0356   21.6095 O   0  0  0  0  0  0  0  0  0  0  0  0
   10.4939  -17.4788   26.3245 C   0  0  0  0  0  0  0  0  0  0  0  0
   11.0689  -16.5291   27.1653 O   0  0  0  0  0  0  0  0  0  0  0  0
   12.3086  -16.7715   21.8744 O   0  0  0  0  0  0  0  0  0  0  0  0
   10.7607  -18.6883   26.6407 O   0  0  0  0  0  0  0  0  0  0  0  0
  2  1  1  6
  2  3  1  0
  4  5  2  0
  4  2  1  0
  6  7  1  0
  7  8  1  0
  8  9  1  1
  8 10  1  0
 10 11  1  6
 11  4  1  0
 12 14  1  0
 12 10  1  0
 13 12  2  0
 15 14  1  0
 15 20  1  0
 15 16  1  6
 16 17  1  0
 18 17  1  0
 18 22  1  0
 19 18  2  0
 20 21  1  0
 23 20  2  0
M  END
$$$$
