AIE.pdb
     RDKit          3D

 23 22  0  0  1  0  0  0  0  0999 V2000
    9.3147  -19.1956   18.1310 C   0  0  0  0  0  0  0  0  0  0  0  0
    9.8080  -17.8031   17.8507 C   0  0  2  0  0  0  0  0  0  0  0  0
   11.0359  -17.8313   17.0816 N   0  0  0  0  0  0  0  0  0  0  0  0
    9.9594  -16.9850   19.0674 C   0  0  0  0  0  0  0  0  0  0  0  0
   11.0416  -17.0382   19.6896 O   0  0  0  0  0  0  0  0  0  0  0  0
    6.8015  -12.4237   19.8665 C   0  0  0  0  0  0  0  0  0  0  0  0
    8.0500  -13.2837   19.7736 C   0  0  0  0  0  0  0  0  0  0  0  0
    7.9760  -14.3005   20.8833 C   0  0  2  0  0  0  0  0  0  0  0  0
    8.0712  -13.5641   22.2022 C   0  0  0  0  0  0  0  0  0  0  0  0
    9.0624  -15.3522   20.7631 C   0  0  2  0  0  0  0  0  0  0  0  0
    8.9359  -16.1358   19.5718 N   0  0  0  0  0  0  0  0  0  0  0  0
    8.9894  -16.1893   22.0003 C   0  0  0  0  0  0  0  0  0  0  0  0
    8.1004  -17.0751   22.0851 O   0  0  0  0  0  0  0  0  0  0  0  0
    9.8785  -16.0285   23.0829 N   0  0  0  0  0  0  0  0  0  0  0  0
   10.2017  -17.1195   24.0192 C   0  0  1  0  0  0  0  0  0  0  0  0
   11.3854  -17.8918   23.5503 C   0  0  0  0  0  0  0  0  0  0  0  0
   11.6782  -19.0312   24.4693 C   0  0  0  0  0  0  0  0  0  0  0  0
   12.9289  -19.7476   24.0238 C   0  0  0  0  0  0  0  0  0  0  0  0
   13.3696  -20.6752   24.7209 O   0  0  0  0  0  0  0  0  0  0  0  0
   10.3533  -16.4874   25.3516 C   0  0  0  0  0  0  0  0  0  0  0  0
   10.2207  -17.1644   26.5614 O   0  0  0  0  0  0  0  0  0  0  0  0
   13.5468  -19.3600   22.8655 O   0  0  0  0  0  0  0  0  0  0  0  0
   10.6220  -15.2437   25.4741 O   0  0  0  0  0  0  0  0  0  0  0  0
  2  1  1  1
  2  3  1  0
  4  5  2  0
  4  2  1  0
  6  7  1  0
  7  8  1  0
  8  9  1  1
  8 10  1  0
 10 11  1  6
 11  4  1  0
 12 14  1  0
 12 10  1  0
 13 12  2  0
 15 14  1  0
 15 20  1  0
 15 16  1  6
 16 17  1  0
 18 17  1  0
 18 22  1  0
 19 18  2  0
 20 21  1  0
 23 20  2  0
M  END
$$$$
