AIE.pdb
     RDKit          3D

 23 22  0  0  1  0  0  0  0  0999 V2000
    7.0559  -17.1204   21.6158 C   0  0  0  0  0  0  0  0  0  0  0  0
    7.1905  -15.6228   21.6098 C   0  0  2  0  0  0  0  0  0  0  0  0
    7.7206  -15.1534   20.3454 N   0  0  0  0  0  0  0  0  0  0  0  0
    7.9784  -15.1061   22.7433 C   0  0  0  0  0  0  0  0  0  0  0  0
    9.2173  -15.0104   22.6125 O   0  0  0  0  0  0  0  0  0  0  0  0
    5.5478  -11.8290   26.5251 C   0  0  0  0  0  0  0  0  0  0  0  0
    6.5541  -12.3155   25.4965 C   0  0  0  0  0  0  0  0  0  0  0  0
    7.2822  -13.4872   26.1029 C   0  0  2  0  0  0  0  0  0  0  0  0
    8.1038  -12.9778   27.2676 C   0  0  0  0  0  0  0  0  0  0  0  0
    8.1541  -14.2010   25.0876 C   0  0  2  0  0  0  0  0  0  0  0  0
    7.4013  -14.7098   23.9814 N   0  0  0  0  0  0  0  0  0  0  0  0
    8.8755  -15.2834   25.8256 C   0  0  0  0  0  0  0  0  0  0  0  0
    8.2273  -16.2846   26.2254 O   0  0  0  0  0  0  0  0  0  0  0  0
   10.2586  -15.2312   26.0949 N   0  0  0  0  0  0  0  0  0  0  0  0
   11.0020  -16.3630   26.6758 C   0  0  1  0  0  0  0  0  0  0  0  0
   12.4193  -16.3613   26.2188 C   0  0  0  0  0  0  0  0  0  0  0  0
   12.6494  -17.4155   25.1872 C   0  0  0  0  0  0  0  0  0  0  0  0
   14.0719  -17.3505   24.6887 C   0  0  0  0  0  0  0  0  0  0  0  0
   14.8392  -16.5037   25.1731 O   0  0  0  0  0  0  0  0  0  0  0  0
   10.8166  -16.2678   28.1436 C   0  0  0  0  0  0  0  0  0  0  0  0
   10.9180  -17.3459   29.0194 O   0  0  0  0  0  0  0  0  0  0  0  0
   14.4822  -18.2233   23.7173 O   0  0  0  0  0  0  0  0  0  0  0  0
   10.5426  -15.1558   28.7114 O   0  0  0  0  0  0  0  0  0  0  0  0
  2  1  1  6
  2  3  1  0
  4  5  2  0
  4  2  1  0
  6  7  1  0
  7  8  1  0
  8  9  1  1
  8 10  1  0
 10 11  1  6
 11  4  1  0
 12 14  1  0
 12 10  1  0
 13 12  2  0
 15 14  1  0
 15 20  1  0
 15 16  1  1
 16 17  1  0
 18 17  1  0
 18 22  1  0
 19 18  2  0
 20 21  1  0
 23 20  2  0
M  END
$$$$
