AIE.pdb
     RDKit          3D

 23 22  0  0  1  0  0  0  0  0999 V2000
    8.0300  -19.3915   17.6405 C   0  0  0  0  0  0  0  0  0  0  0  0
    8.4929  -18.0143   17.2533 C   0  0  2  0  0  0  0  0  0  0  0  0
    9.4003  -18.0687   16.1247 N   0  0  0  0  0  0  0  0  0  0  0  0
    9.0825  -17.2630   18.3760 C   0  0  0  0  0  0  0  0  0  0  0  0
   10.3074  -17.3806   18.5930 O   0  0  0  0  0  0  0  0  0  0  0  0
    6.7496  -12.4565   20.2065 C   0  0  0  0  0  0  0  0  0  0  0  0
    7.7921  -13.4292   19.6828 C   0  0  0  0  0  0  0  0  0  0  0  0
    7.9657  -14.5028   20.7259 C   0  0  2  0  0  0  0  0  0  0  0  0
    8.4754  -13.8491   21.9924 C   0  0  0  0  0  0  0  0  0  0  0  0
    8.9030  -15.6007   20.2603 C   0  0  2  0  0  0  0  0  0  0  0  0
    8.3286  -16.4089   19.2278 N   0  0  0  0  0  0  0  0  0  0  0  0
    9.2620  -16.4018   21.4711 C   0  0  0  0  0  0  0  0  0  0  0  0
    8.4247  -17.2205   21.9303 O   0  0  0  0  0  0  0  0  0  0  0  0
   10.5054  -16.2794   22.1248 N   0  0  0  0  0  0  0  0  0  0  0  0
   10.9749  -17.2449   23.1341 C   0  0  1  0  0  0  0  0  0  0  0  0
   12.4201  -17.5518   22.9471 C   0  0  0  0  0  0  0  0  0  0  0  0
   12.9058  -18.4964   23.9960 C   0  0  0  0  0  0  0  0  0  0  0  0
   14.3759  -18.7744   23.8019 C   0  0  0  0  0  0  0  0  0  0  0  0
   15.1972  -18.1950   24.5301 O   0  0  0  0  0  0  0  0  0  0  0  0
   10.6225  -16.6665   24.4528 C   0  0  0  0  0  0  0  0  0  0  0  0
   10.4750  -17.4090   25.6218 O   0  0  0  0  0  0  0  0  0  0  0  0
   14.7689  -19.6556   22.8310 O   0  0  0  0  0  0  0  0  0  0  0  0
   10.4252  -15.4122   24.6007 O   0  0  0  0  0  0  0  0  0  0  0  0
  2  1  1  1
  2  3  1  0
  4  5  2  0
  4  2  1  0
  6  7  1  0
  7  8  1  0
  8  9  1  1
  8 10  1  0
 10 11  1  6
 11  4  1  0
 12 14  1  0
 12 10  1  0
 13 12  2  0
 15 14  1  0
 15 20  1  0
 15 16  1  1
 16 17  1  0
 18 17  1  0
 18 22  1  0
 19 18  2  0
 20 21  1  0
 23 20  2  0
M  END
$$$$
