AIE.pdb
     RDKit          3D

 23 22  0  0  1  0  0  0  0  0999 V2000
    6.7733  -17.7613   22.4251 C   0  0  0  0  0  0  0  0  0  0  0  0
    6.6018  -16.2881   22.1776 C   0  0  2  0  0  0  0  0  0  0  0  0
    6.8999  -15.9543   20.7992 N   0  0  0  0  0  0  0  0  0  0  0  0
    7.3766  -15.4488   23.1091 C   0  0  0  0  0  0  0  0  0  0  0  0
    8.5312  -15.1032   22.7793 O   0  0  0  0  0  0  0  0  0  0  0  0
    6.7369  -11.3811   25.3576 C   0  0  0  0  0  0  0  0  0  0  0  0
    5.8993  -12.5946   25.7219 C   0  0  0  0  0  0  0  0  0  0  0  0
    6.8209  -13.5962   26.3686 C   0  0  2  0  0  0  0  0  0  0  0  0
    7.6853  -12.8608   27.3701 C   0  0  0  0  0  0  0  0  0  0  0  0
    7.6689  -14.3298   25.3470 C   0  0  2  0  0  0  0  0  0  0  0  0
    6.8780  -15.0105   24.3671 N   0  0  0  0  0  0  0  0  0  0  0  0
    8.5497  -15.2657   26.1117 C   0  0  0  0  0  0  0  0  0  0  0  0
    8.0259  -16.2303   26.7261 O   0  0  0  0  0  0  0  0  0  0  0  0
    9.9502  -15.1140   26.1750 N   0  0  0  0  0  0  0  0  0  0  0  0
   10.8428  -16.1576   26.7093 C   0  0  1  0  0  0  0  0  0  0  0  0
   12.1829  -16.0957   26.0629 C   0  0  0  0  0  0  0  0  0  0  0  0
   13.1226  -17.0738   26.6864 C   0  0  0  0  0  0  0  0  0  0  0  0
   14.4579  -17.0278   25.9858 C   0  0  0  0  0  0  0  0  0  0  0  0
   14.7468  -17.9313   25.1853 O   0  0  0  0  0  0  0  0  0  0  0  0
   10.8481  -15.9810   28.1813 C   0  0  0  0  0  0  0  0  0  0  0  0
   11.1720  -16.9843   29.0913 O   0  0  0  0  0  0  0  0  0  0  0  0
   15.3170  -15.9949   26.2477 O   0  0  0  0  0  0  0  0  0  0  0  0
   10.5449  -14.8625   28.7208 O   0  0  0  0  0  0  0  0  0  0  0  0
  2  1  1  6
  2  3  1  0
  4  5  2  0
  4  2  1  0
  6  7  1  0
  7  8  1  0
  8  9  1  1
  8 10  1  0
 10 11  1  6
 11  4  1  0
 12 14  1  0
 12 10  1  0
 13 12  2  0
 15 14  1  0
 15 20  1  0
 15 16  1  6
 16 17  1  0
 18 17  1  0
 18 22  1  0
 19 18  2  0
 20 21  1  0
 23 20  2  0
M  END
$$$$
