AIE.pdb
     RDKit          3D

 23 22  0  0  1  0  0  0  0  0999 V2000
    6.7908  -14.5717   20.4401 C   0  0  0  0  0  0  0  0  0  0  0  0
    7.2299  -15.5689   21.4763 C   0  0  2  0  0  0  0  0  0  0  0  0
    6.0944  -16.2831   22.0247 N   0  0  0  0  0  0  0  0  0  0  0  0
    8.0513  -14.9723   22.5449 C   0  0  0  0  0  0  0  0  0  0  0  0
    9.1692  -14.5021   22.2441 O   0  0  0  0  0  0  0  0  0  0  0  0
    5.6157  -12.2732   26.6449 C   0  0  0  0  0  0  0  0  0  0  0  0
    6.6113  -12.5821   25.5401 C   0  0  0  0  0  0  0  0  0  0  0  0
    7.4951  -13.6982   26.0340 C   0  0  2  0  0  0  0  0  0  0  0  0
    8.3177  -13.1695   27.1894 C   0  0  0  0  0  0  0  0  0  0  0  0
    8.3839  -14.2475   24.9344 C   0  0  2  0  0  0  0  0  0  0  0  0
    7.6374  -14.9033   23.9040 N   0  0  0  0  0  0  0  0  0  0  0  0
    9.3650  -15.1648   25.5924 C   0  0  0  0  0  0  0  0  0  0  0  0
   10.2150  -14.6814   26.3836 O   0  0  0  0  0  0  0  0  0  0  0  0
    9.3794  -16.5561   25.3638 N   0  0  0  0  0  0  0  0  0  0  0  0
   10.4175  -17.4448   25.9150 C   0  0  1  0  0  0  0  0  0  0  0  0
   11.7653  -17.0729   25.4025 C   0  0  0  0  0  0  0  0  0  0  0  0
   11.8780  -17.3553   23.9410 C   0  0  0  0  0  0  0  0  0  0  0  0
   13.2980  -17.1387   23.4797 C   0  0  0  0  0  0  0  0  0  0  0  0
   14.0588  -18.1161   23.4005 O   0  0  0  0  0  0  0  0  0  0  0  0
   10.2693  -17.3867   27.3889 C   0  0  0  0  0  0  0  0  0  0  0  0
   10.8761  -18.2738   28.2747 O   0  0  0  0  0  0  0  0  0  0  0  0
   13.7134  -15.8741   23.1603 O   0  0  0  0  0  0  0  0  0  0  0  0
    9.5522  -16.4915   27.9532 O   0  0  0  0  0  0  0  0  0  0  0  0
  2  1  1  6
  2  3  1  0
  4  5  2  0
  4  2  1  0
  6  7  1  0
  7  8  1  0
  8  9  1  1
  8 10  1  0
 10 11  1  6
 11  4  1  0
 12 14  1  0
 12 10  1  0
 13 12  2  0
 15 14  1  0
 15 20  1  0
 15 16  1  1
 16 17  1  0
 18 17  1  0
 18 22  1  0
 19 18  2  0
 20 21  1  0
 23 20  2  0
M  END
$$$$
