AIE.pdb
     RDKit          3D

 23 22  0  0  1  0  0  0  0  0999 V2000
    6.6482  -17.2091   21.4978 C   0  0  0  0  0  0  0  0  0  0  0  0
    6.9715  -15.7407   21.5138 C   0  0  2  0  0  0  0  0  0  0  0  0
    7.5975  -15.3325   20.2722 N   0  0  0  0  0  0  0  0  0  0  0  0
    7.7815  -15.3372   22.6773 C   0  0  0  0  0  0  0  0  0  0  0  0
    9.0244  -15.4399   22.6017 O   0  0  0  0  0  0  0  0  0  0  0  0
    5.8198  -11.6407   26.2220 C   0  0  0  0  0  0  0  0  0  0  0  0
    6.8383  -12.3182   25.3214 C   0  0  0  0  0  0  0  0  0  0  0  0
    7.2541  -13.5976   26.0002 C   0  0  2  0  0  0  0  0  0  0  0  0
    8.1158  -13.2386   27.1917 C   0  0  0  0  0  0  0  0  0  0  0  0
    7.9874  -14.5297   25.0546 C   0  0  2  0  0  0  0  0  0  0  0  0
    7.2212  -14.8359   23.8848 N   0  0  0  0  0  0  0  0  0  0  0  0
    8.3332  -15.7545   25.8401 C   0  0  0  0  0  0  0  0  0  0  0  0
    7.4056  -16.5056   26.2373 O   0  0  0  0  0  0  0  0  0  0  0  0
    9.6611  -16.1069   26.1573 N   0  0  0  0  0  0  0  0  0  0  0  0
   10.0262  -17.4192   26.7193 C   0  0  1  0  0  0  0  0  0  0  0  0
   11.1815  -18.0099   25.9885 C   0  0  0  0  0  0  0  0  0  0  0  0
   11.6300  -19.2787   26.6344 C   0  0  0  0  0  0  0  0  0  0  0  0
   12.8302  -19.8335   25.9078 C   0  0  0  0  0  0  0  0  0  0  0  0
   13.9651  -19.5713   26.3365 O   0  0  0  0  0  0  0  0  0  0  0  0
   10.2474  -17.1995   28.1687 C   0  0  0  0  0  0  0  0  0  0  0  0
   10.1750  -18.2003   29.1346 O   0  0  0  0  0  0  0  0  0  0  0  0
   12.6411  -20.6102   24.7967 O   0  0  0  0  0  0  0  0  0  0  0  0
   10.5253  -16.0418   28.6339 O   0  0  0  0  0  0  0  0  0  0  0  0
  2  1  1  6
  2  3  1  0
  4  5  2  0
  4  2  1  0
  6  7  1  0
  7  8  1  0
  8  9  1  1
  8 10  1  0
 10 11  1  6
 11  4  1  0
 12 14  1  0
 12 10  1  0
 13 12  2  0
 15 14  1  0
 15 20  1  0
 15 16  1  6
 16 17  1  0
 18 17  1  0
 18 22  1  0
 19 18  2  0
 20 21  1  0
 23 20  2  0
M  END
$$$$
