AIE.pdb
     RDKit          3D

 23 22  0  0  1  0  0  0  0  0999 V2000
    6.3988  -15.9272   20.8194 C   0  0  0  0  0  0  0  0  0  0  0  0
    7.1905  -14.6681   21.0403 C   0  0  2  0  0  0  0  0  0  0  0  0
    8.1355  -14.4523   19.9630 N   0  0  0  0  0  0  0  0  0  0  0  0
    7.8594  -14.6256   22.3531 C   0  0  0  0  0  0  0  0  0  0  0  0
    9.0439  -15.0156   22.4305 O   0  0  0  0  0  0  0  0  0  0  0  0
    5.9913  -11.2125   26.3854 C   0  0  0  0  0  0  0  0  0  0  0  0
    6.9211  -11.8908   25.3942 C   0  0  0  0  0  0  0  0  0  0  0  0
    7.0801  -13.3221   25.8377 C   0  0  2  0  0  0  0  0  0  0  0  0
    7.7697  -13.3225   27.1851 C   0  0  0  0  0  0  0  0  0  0  0  0
    7.8527  -14.1474   24.8264 C   0  0  2  0  0  0  0  0  0  0  0  0
    7.2258  -14.1628   23.5395 N   0  0  0  0  0  0  0  0  0  0  0  0
    7.9886  -15.5198   25.4051 C   0  0  0  0  0  0  0  0  0  0  0  0
    6.9655  -16.2456   25.4985 O   0  0  0  0  0  0  0  0  0  0  0  0
    9.2203  -16.0394   25.8534 N   0  0  0  0  0  0  0  0  0  0  0  0
    9.3846  -17.4359   26.2939 C   0  0  1  0  0  0  0  0  0  0  0  0
    9.8819  -18.2914   25.1811 C   0  0  0  0  0  0  0  0  0  0  0  0
   11.2661  -17.8991   24.7829 C   0  0  0  0  0  0  0  0  0  0  0  0
   11.7529  -18.7840   23.6622 C   0  0  0  0  0  0  0  0  0  0  0  0
   12.3321  -19.8449   23.9439 O   0  0  0  0  0  0  0  0  0  0  0  0
   10.2605  -17.3905   27.4892 C   0  0  0  0  0  0  0  0  0  0  0  0
   10.8732  -16.2361   27.9703 O   0  0  0  0  0  0  0  0  0  0  0  0
   11.5456  -18.3981   22.3653 O   0  0  0  0  0  0  0  0  0  0  0  0
   10.5151  -18.4415   28.1708 O   0  0  0  0  0  0  0  0  0  0  0  0
  2  1  1  6
  2  3  1  0
  4  5  2  0
  4  2  1  0
  6  7  1  0
  7  8  1  0
  8  9  1  1
  8 10  1  0
 10 11  1  6
 11  4  1  0
 12 14  1  0
 12 10  1  0
 13 12  2  0
 15 14  1  0
 15 20  1  0
 15 16  1  6
 16 17  1  0
 18 17  1  0
 18 22  1  0
 19 18  2  0
 20 21  1  0
 23 20  2  0
M  END
$$$$
