AIE.pdb
     RDKit          3D

 23 22  0  0  1  0  0  0  0  0999 V2000
    6.3070  -16.3893   21.1169 C   0  0  0  0  0  0  0  0  0  0  0  0
    6.7092  -14.9480   21.2649 C   0  0  2  0  0  0  0  0  0  0  0  0
    7.2961  -14.4434   20.0397 N   0  0  0  0  0  0  0  0  0  0  0  0
    7.5944  -14.7079   22.4187 C   0  0  0  0  0  0  0  0  0  0  0  0
    8.8286  -14.8131   22.2543 O   0  0  0  0  0  0  0  0  0  0  0  0
    5.5838  -11.7362   26.6955 C   0  0  0  0  0  0  0  0  0  0  0  0
    6.4881  -12.1460   25.5460 C   0  0  0  0  0  0  0  0  0  0  0  0
    7.2050  -13.4026   25.9673 C   0  0  2  0  0  0  0  0  0  0  0  0
    8.1328  -13.0530   27.1110 C   0  0  0  0  0  0  0  0  0  0  0  0
    7.9663  -14.0347   24.8176 C   0  0  2  0  0  0  0  0  0  0  0  0
    7.1166  -14.3618   23.7130 N   0  0  0  0  0  0  0  0  0  0  0  0
    8.6612  -15.2375   25.3715 C   0  0  0  0  0  0  0  0  0  0  0  0
    7.9698  -16.1967   25.8008 O   0  0  0  0  0  0  0  0  0  0  0  0
   10.0658  -15.3449   25.4344 N   0  0  0  0  0  0  0  0  0  0  0  0
   10.7558  -16.6019   25.7734 C   0  0  1  0  0  0  0  0  0  0  0  0
   12.1090  -16.6516   25.1537 C   0  0  0  0  0  0  0  0  0  0  0  0
   12.8709  -17.8440   25.6289 C   0  0  0  0  0  0  0  0  0  0  0  0
   14.2614  -17.8372   25.0435 C   0  0  0  0  0  0  0  0  0  0  0  0
   14.5832  -16.9192   24.2727 O   0  0  0  0  0  0  0  0  0  0  0  0
   10.7403  -16.6944   27.2530 C   0  0  0  0  0  0  0  0  0  0  0  0
   10.8167  -17.8883   27.9659 O   0  0  0  0  0  0  0  0  0  0  0  0
   15.1329  -18.8395   25.3744 O   0  0  0  0  0  0  0  0  0  0  0  0
   10.6517  -15.6511   27.9863 O   0  0  0  0  0  0  0  0  0  0  0  0
  2  1  1  6
  2  3  1  0
  4  5  2  0
  4  2  1  0
  6  7  1  0
  7  8  1  0
  8  9  1  1
  8 10  1  0
 10 11  1  6
 11  4  1  0
 12 14  1  0
 12 10  1  0
 13 12  2  0
 15 14  1  0
 15 20  1  0
 15 16  1  1
 16 17  1  0
 18 17  1  0
 18 22  1  0
 19 18  2  0
 20 21  1  0
 23 20  2  0
M  END
$$$$
