AIE.pdb
     RDKit          3D

 23 22  0  0  1  0  0  0  0  0999 V2000
    6.4397  -16.4470   21.0639 C   0  0  0  0  0  0  0  0  0  0  0  0
    6.8000  -14.9902   21.1589 C   0  0  2  0  0  0  0  0  0  0  0  0
    7.4613  -14.5382   19.9512 N   0  0  0  0  0  0  0  0  0  0  0  0
    7.5961  -14.6659   22.3562 C   0  0  0  0  0  0  0  0  0  0  0  0
    8.8419  -14.7152   22.2741 O   0  0  0  0  0  0  0  0  0  0  0  0
    5.5159  -11.4917   26.4469 C   0  0  0  0  0  0  0  0  0  0  0  0
    6.4371  -12.0369   25.3692 C   0  0  0  0  0  0  0  0  0  0  0  0
    6.9748  -13.3543   25.8653 C   0  0  2  0  0  0  0  0  0  0  0  0
    7.8178  -13.0849   27.0933 C   0  0  0  0  0  0  0  0  0  0  0  0
    7.7748  -14.0786   24.7994 C   0  0  2  0  0  0  0  0  0  0  0  0
    7.0193  -14.2988   23.6036 N   0  0  0  0  0  0  0  0  0  0  0  0
    8.2483  -15.3580   25.4122 C   0  0  0  0  0  0  0  0  0  0  0  0
    7.3984  -16.2145   25.7677 O   0  0  0  0  0  0  0  0  0  0  0  0
    9.6138  -15.6487   25.6105 N   0  0  0  0  0  0  0  0  0  0  0  0
   10.1007  -16.9946   25.9606 C   0  0  1  0  0  0  0  0  0  0  0  0
   11.1691  -17.4364   25.0220 C   0  0  0  0  0  0  0  0  0  0  0  0
   12.4381  -16.6894   25.2673 C   0  0  0  0  0  0  0  0  0  0  0  0
   13.2470  -16.6114   23.9961 C   0  0  0  0  0  0  0  0  0  0  0  0
   12.8446  -17.2178   22.9908 O   0  0  0  0  0  0  0  0  0  0  0  0
   10.5058  -16.9285   27.3852 C   0  0  0  0  0  0  0  0  0  0  0  0
   10.5145  -15.7618   28.1457 O   0  0  0  0  0  0  0  0  0  0  0  0
   14.4017  -15.8765   23.9805 O   0  0  0  0  0  0  0  0  0  0  0  0
   10.8846  -17.9709   28.0208 O   0  0  0  0  0  0  0  0  0  0  0  0
  2  1  1  6
  2  3  1  0
  4  5  2  0
  4  2  1  0
  6  7  1  0
  7  8  1  0
  8  9  1  1
  8 10  1  0
 10 11  1  6
 11  4  1  0
 12 14  1  0
 12 10  1  0
 13 12  2  0
 15 14  1  0
 15 20  1  0
 15 16  1  6
 16 17  1  0
 18 17  1  0
 18 22  1  0
 19 18  2  0
 20 21  1  0
 23 20  2  0
M  END
$$$$
