ACS.pdb
     RDKit          3D

 18 17  0  0  1  0  0  0  0  0999 V2000
    6.6002  -15.3592   21.3174 C   0  0  0  0  0  0  0  0  0  0  0  0
    7.1322  -13.9484   21.5899 C   0  0  2  0  0  0  0  0  0  0  0  0
    7.9998  -13.5678   20.5014 N   0  0  0  0  0  0  0  0  0  0  0  0
    7.9231  -14.0123   22.8359 C   0  0  0  0  0  0  0  0  0  0  0  0
    9.1418  -14.2905   22.7615 O   0  0  0  0  0  0  0  0  0  0  0  0
    7.3549  -13.7712   24.1065 N   0  0  0  0  0  0  0  0  0  0  0  0
    8.1480  -13.8531   25.3096 C   0  0  1  0  0  0  0  0  0  0  0  0
    7.6259  -12.9363   26.3952 C   0  0  0  0  0  0  0  0  0  0  0  0
    5.8519  -12.6617   26.2354 S   0  0  0  0  0  0  0  0  0  0  0  0
    8.2144  -15.2623   25.7608 C   0  0  0  0  0  0  0  0  0  0  0  0
    7.1578  -15.9381   25.8157 O   0  0  0  0  0  0  0  0  0  0  0  0
   11.6147  -17.6544   25.2900 O   0  0  0  0  0  0  0  0  0  0  0  0
   10.3119  -18.0526   25.4655 C   0  0  0  0  0  0  0  0  0  0  0  0
    9.5703  -17.2327   26.4988 C   0  0  2  0  0  0  0  0  0  0  0  0
    9.4539  -15.8532   26.1296 N   0  0  0  0  0  0  0  0  0  0  0  0
   10.1012  -17.4319   27.8582 C   0  0  0  0  0  0  0  0  0  0  0  0
   10.4597  -16.4478   28.5288 O   0  0  0  0  0  0  0  0  0  0  0  0
   10.1993  -18.6983   28.3809 O   0  0  0  0  0  0  0  0  0  0  0  0
  2  1  1  6
  2  4  1  0
  2  3  1  0
  4  5  2  0
  6  7  1  0
  6  4  1  0
  7  8  1  1
  8  9  1  0
 10  7  1  0
 11 10  2  0
 13 12  1  0
 14 13  1  6
 14 15  1  0
 15 10  1  0
 16 18  1  0
 16 14  1  0
 17 16  2  0
M  END
$$$$
