ACS.pdb
     RDKit          3D

 18 17  0  0  1  0  0  0  0  0999 V2000
    6.0905  -20.9822   22.2348 C   0  0  0  0  0  0  0  0  0  0  0  0
    5.3047  -19.9882   23.0961 C   0  0  2  0  0  0  0  0  0  0  0  0
    4.0227  -19.7573   22.4751 N   0  0  0  0  0  0  0  0  0  0  0  0
    6.0674  -18.7231   23.1101 C   0  0  0  0  0  0  0  0  0  0  0  0
    6.0700  -18.0106   22.0803 O   0  0  0  0  0  0  0  0  0  0  0  0
    6.7929  -18.2890   24.2417 N   0  0  0  0  0  0  0  0  0  0  0  0
    7.5134  -17.0383   24.2351 C   0  0  1  0  0  0  0  0  0  0  0  0
    7.4456  -16.3390   25.5760 C   0  0  0  0  0  0  0  0  0  0  0  0
    8.0850  -17.3803   26.9006 S   0  0  0  0  0  0  0  0  0  0  0  0
    8.9108  -17.2773   23.8063 C   0  0  0  0  0  0  0  0  0  0  0  0
    9.3940  -18.4315   23.9093 O   0  0  0  0  0  0  0  0  0  0  0  0
   12.5653  -15.9241   21.0068 O   0  0  0  0  0  0  0  0  0  0  0  0
   11.3482  -15.6179   21.5650 C   0  0  0  0  0  0  0  0  0  0  0  0
   11.0419  -16.4229   22.8093 C   0  0  2  0  0  0  0  0  0  0  0  0
    9.7049  -16.2204   23.2830 N   0  0  0  0  0  0  0  0  0  0  0  0
   12.0654  -16.2499   23.8543 C   0  0  0  0  0  0  0  0  0  0  0  0
   11.7493  -15.7495   24.9480 O   0  0  0  0  0  0  0  0  0  0  0  0
   13.3615  -16.6398   23.6205 O   0  0  0  0  0  0  0  0  0  0  0  0
  2  1  1  6
  2  4  1  0
  2  3  1  0
  4  5  2  0
  6  7  1  0
  6  4  1  0
  7  8  1  1
  8  9  1  0
 10  7  1  0
 11 10  2  0
 13 12  1  0
 14 13  1  6
 14 15  1  0
 15 10  1  0
 16 18  1  0
 16 14  1  0
 17 16  2  0
M  END
$$$$
