ACS.pdb
     RDKit          3D

 18 17  0  0  1  0  0  0  0  0999 V2000
   -2.8500  -25.8170   26.1958 C   0  0  0  0  0  0  0  0  0  0  0  0
   -4.2908  -26.2228   26.5226 C   0  0  2  0  0  0  0  0  0  0  0  0
   -4.9841  -26.4878   25.2850 N   0  0  0  0  0  0  0  0  0  0  0  0
   -4.9279  -25.0713   27.1939 C   0  0  0  0  0  0  0  0  0  0  0  0
   -4.4293  -24.6453   28.2607 O   0  0  0  0  0  0  0  0  0  0  0  0
   -6.0778  -24.4346   26.6764 N   0  0  0  0  0  0  0  0  0  0  0  0
   -6.6797  -23.3102   27.3523 C   0  0  1  0  0  0  0  0  0  0  0  0
   -7.2295  -22.2916   26.3768 C   0  0  0  0  0  0  0  0  0  0  0  0
   -8.2568  -21.0653   27.2068 S   0  0  0  0  0  0  0  0  0  0  0  0
   -7.7196  -23.7971   28.2880 C   0  0  0  0  0  0  0  0  0  0  0  0
   -8.5898  -24.6006   27.8719 O   0  0  0  0  0  0  0  0  0  0  0  0
   -7.2026  -24.1041   32.4629 O   0  0  0  0  0  0  0  0  0  0  0  0
   -8.0839  -24.7557   31.6350 C   0  0  0  0  0  0  0  0  0  0  0  0
   -8.7014  -23.8522   30.5898 C   0  0  2  0  0  0  0  0  0  0  0  0
   -7.7420  -23.3667   29.6428 N   0  0  0  0  0  0  0  0  0  0  0  0
   -9.5254  -22.7871   31.1864 C   0  0  0  0  0  0  0  0  0  0  0  0
   -9.2821  -21.5976   30.9172 O   0  0  0  0  0  0  0  0  0  0  0  0
  -10.5567  -23.1075   32.0352 O   0  0  0  0  0  0  0  0  0  0  0  0
  2  1  1  6
  2  4  1  0
  2  3  1  0
  4  5  2  0
  6  7  1  0
  6  4  1  0
  7  8  1  6
  8  9  1  0
 10  7  1  0
 11 10  2  0
 13 12  1  0
 14 13  1  1
 14 15  1  0
 15 10  1  0
 16 18  1  0
 16 14  1  0
 17 16  2  0
M  END
$$$$
