ACS.pdb
     RDKit          3D

 18 17  0  0  1  0  0  0  0  0999 V2000
   11.0792  -47.6460   21.3099 C   0  0  0  0  0  0  0  0  0  0  0  0
   10.2716  -46.3799   21.0062 C   0  0  2  0  0  0  0  0  0  0  0  0
    9.0854  -46.3850   21.8279 N   0  0  0  0  0  0  0  0  0  0  0  0
    9.8729  -46.4458   19.5853 C   0  0  0  0  0  0  0  0  0  0  0  0
    9.0093  -47.2846   19.2408 O   0  0  0  0  0  0  0  0  0  0  0  0
   10.4301  -45.5977   18.6026 N   0  0  0  0  0  0  0  0  0  0  0  0
    9.5983  -44.7325   17.8007 C   0  0  1  0  0  0  0  0  0  0  0  0
    8.4269  -45.4758   17.1950 C   0  0  0  0  0  0  0  0  0  0  0  0
    6.8906  -44.5505   17.3723 S   0  0  0  0  0  0  0  0  0  0  0  0
    9.1579  -43.5778   18.6171 C   0  0  0  0  0  0  0  0  0  0  0  0
    9.7713  -43.3091   19.6790 O   0  0  0  0  0  0  0  0  0  0  0  0
    8.8379  -40.5937   15.9870 O   0  0  0  0  0  0  0  0  0  0  0  0
    8.8723  -41.9655   16.0474 C   0  0  0  0  0  0  0  0  0  0  0  0
    7.7248  -42.5580   16.8361 C   0  0  2  0  0  0  0  0  0  0  0  0
    8.0553  -42.7762   18.2131 N   0  0  0  0  0  0  0  0  0  0  0  0
    7.1457  -43.7421   16.1786 C   0  0  0  0  0  0  0  0  0  0  0  0
    7.0517  -43.7729   14.9390 O   0  0  0  0  0  0  0  0  0  0  0  0
    6.7125  -44.8057   16.9321 O   0  0  0  0  0  0  0  0  0  0  0  0
  2  1  1  1
  2  4  1  0
  2  3  1  0
  4  5  2  0
  6  7  1  0
  6  4  1  0
  7  8  1  1
  8  9  1  0
 10  7  1  0
 11 10  2  0
 13 12  1  0
 14 13  1  6
 14 15  1  0
 15 10  1  0
 16 18  1  0
 16 14  1  0
 17 16  2  0
M  END
$$$$
