ACS.pdb
     RDKit          3D

 18 17  0  0  1  0  0  0  0  0999 V2000
    6.8885  -14.8926   20.9304 C   0  0  0  0  0  0  0  0  0  0  0  0
    7.0872  -13.4714   21.4673 C   0  0  2  0  0  0  0  0  0  0  0  0
    7.9634  -12.7602   20.5680 N   0  0  0  0  0  0  0  0  0  0  0  0
    7.7436  -13.5895   22.7855 C   0  0  0  0  0  0  0  0  0  0  0  0
    8.9791  -13.7894   22.8267 O   0  0  0  0  0  0  0  0  0  0  0  0
    7.0286  -13.4853   23.9993 N   0  0  0  0  0  0  0  0  0  0  0  0
    7.6785  -13.6907   25.2716 C   0  0  1  0  0  0  0  0  0  0  0  0
    6.8381  -13.1850   26.4246 C   0  0  0  0  0  0  0  0  0  0  0  0
    6.4469  -11.4352   26.2431 S   0  0  0  0  0  0  0  0  0  0  0  0
    8.0213  -15.1235   25.4239 C   0  0  0  0  0  0  0  0  0  0  0  0
    7.1334  -15.9895   25.2294 O   0  0  0  0  0  0  0  0  0  0  0  0
   11.9468  -16.6072   24.9943 O   0  0  0  0  0  0  0  0  0  0  0  0
   10.7625  -17.2880   24.8511 C   0  0  0  0  0  0  0  0  0  0  0  0
    9.7228  -16.9017   25.8806 C   0  0  2  0  0  0  0  0  0  0  0  0
    9.3363  -15.5253   25.7857 N   0  0  0  0  0  0  0  0  0  0  0  0
   10.1053  -17.3094   27.2433 C   0  0  0  0  0  0  0  0  0  0  0  0
   10.1152  -16.4665   28.1575 O   0  0  0  0  0  0  0  0  0  0  0  0
   10.4490  -18.6140   27.5012 O   0  0  0  0  0  0  0  0  0  0  0  0
  2  1  1  6
  2  4  1  0
  2  3  1  0
  4  5  2  0
  6  7  1  0
  6  4  1  0
  7  8  1  1
  8  9  1  0
 10  7  1  0
 11 10  2  0
 13 12  1  0
 14 13  1  6
 14 15  1  0
 15 10  1  0
 16 18  1  0
 16 14  1  0
 17 16  2  0
M  END
$$$$
