ACS.pdb
     RDKit          3D

 18 17  0  0  1  0  0  0  0  0999 V2000
    6.5689  -16.4075   21.4082 C   0  0  0  0  0  0  0  0  0  0  0  0
    7.1457  -14.9913   21.3129 C   0  0  2  0  0  0  0  0  0  0  0  0
    8.1257  -14.9660   20.2539 N   0  0  0  0  0  0  0  0  0  0  0  0
    7.8177  -14.7053   22.5971 C   0  0  0  0  0  0  0  0  0  0  0  0
    9.0247  -15.0127   22.7263 O   0  0  0  0  0  0  0  0  0  0  0  0
    7.1484  -14.0985   23.6830 N   0  0  0  0  0  0  0  0  0  0  0  0
    7.8456  -13.7689   24.9030 C   0  0  1  0  0  0  0  0  0  0  0  0
    7.1092  -12.7212   25.7104 C   0  0  0  0  0  0  0  0  0  0  0  0
    7.9124  -12.4193   27.2952 S   0  0  0  0  0  0  0  0  0  0  0  0
    8.0813  -15.0046   25.6849 C   0  0  0  0  0  0  0  0  0  0  0  0
    7.1133  -15.7627   25.9384 O   0  0  0  0  0  0  0  0  0  0  0  0
   10.2348  -17.7906   25.0533 O   0  0  0  0  0  0  0  0  0  0  0  0
   10.5780  -17.4714   26.3444 C   0  0  0  0  0  0  0  0  0  0  0  0
    9.6364  -16.4741   26.9839 C   0  0  2  0  0  0  0  0  0  0  0  0
    9.3835  -15.3384   26.1478 N   0  0  0  0  0  0  0  0  0  0  0  0
   10.0469  -16.1139   28.3519 C   0  0  0  0  0  0  0  0  0  0  0  0
   10.1703  -14.9158   28.6616 O   0  0  0  0  0  0  0  0  0  0  0  0
   10.2918  -17.0970   29.2792 O   0  0  0  0  0  0  0  0  0  0  0  0
  2  1  1  1
  2  4  1  0
  2  3  1  0
  4  5  2  0
  6  7  1  0
  6  4  1  0
  7  8  1  1
  8  9  1  0
 10  7  1  0
 11 10  2  0
 13 12  1  0
 14 13  1  6
 14 15  1  0
 15 10  1  0
 16 18  1  0
 16 14  1  0
 17 16  2  0
M  END
$$$$
