ACS.pdb
     RDKit          3D

 18 17  0  0  1  0  0  0  0  0999 V2000
   -6.8392  -26.0541   26.1035 C   0  0  0  0  0  0  0  0  0  0  0  0
   -6.3279  -24.6407   26.4012 C   0  0  2  0  0  0  0  0  0  0  0  0
   -4.9946  -24.5133   25.8641 N   0  0  0  0  0  0  0  0  0  0  0  0
   -6.2707  -24.4966   27.8703 C   0  0  0  0  0  0  0  0  0  0  0  0
   -5.2902  -24.9759   28.4842 O   0  0  0  0  0  0  0  0  0  0  0  0
   -7.2809  -23.8385   28.6063 N   0  0  0  0  0  0  0  0  0  0  0  0
   -7.1621  -23.6417   30.0312 C   0  0  1  0  0  0  0  0  0  0  0  0
   -7.9786  -22.4601   30.5095 C   0  0  0  0  0  0  0  0  0  0  0  0
   -7.2138  -20.8948   30.0481 S   0  0  0  0  0  0  0  0  0  0  0  0
   -7.5342  -24.8914   30.7337 C   0  0  0  0  0  0  0  0  0  0  0  0
   -8.5466  -25.5293   30.3538 O   0  0  0  0  0  0  0  0  0  0  0  0
   -4.7553  -27.3011   32.0310 O   0  0  0  0  0  0  0  0  0  0  0  0
   -5.7725  -27.3128   32.9539 C   0  0  0  0  0  0  0  0  0  0  0  0
   -7.0298  -26.6261   32.4663 C   0  0  2  0  0  0  0  0  0  0  0  0
   -6.7619  -25.3726   31.8262 N   0  0  0  0  0  0  0  0  0  0  0  0
   -8.0627  -26.5398   33.5129 C   0  0  0  0  0  0  0  0  0  0  0  0
   -8.5009  -25.4272   33.8542 O   0  0  0  0  0  0  0  0  0  0  0  0
   -8.5381  -27.6830   34.1077 O   0  0  0  0  0  0  0  0  0  0  0  0
  2  1  1  1
  2  4  1  0
  2  3  1  0
  4  5  2  0
  6  7  1  0
  6  4  1  0
  7  8  1  1
  8  9  1  0
 10  7  1  0
 11 10  2  0
 13 12  1  0
 14 13  1  1
 14 15  1  0
 15 10  1  0
 16 18  1  0
 16 14  1  0
 17 16  2  0
M  END
$$$$
