ACS.pdb
     RDKit          3D

 18 17  0  0  1  0  0  0  0  0999 V2000
    6.4534  -15.5928   20.8870 C   0  0  0  0  0  0  0  0  0  0  0  0
    6.9736  -14.1792   21.1675 C   0  0  2  0  0  0  0  0  0  0  0  0
    7.9100  -13.8213   20.1296 N   0  0  0  0  0  0  0  0  0  0  0  0
    7.6838  -14.2233   22.4621 C   0  0  0  0  0  0  0  0  0  0  0  0
    8.8390  -14.7054   22.4986 O   0  0  0  0  0  0  0  0  0  0  0  0
    7.1075  -13.7419   23.6585 N   0  0  0  0  0  0  0  0  0  0  0  0
    7.8354  -13.7691   24.9046 C   0  0  1  0  0  0  0  0  0  0  0  0
    7.1754  -12.9131   25.9644 C   0  0  0  0  0  0  0  0  0  0  0  0
    8.0295  -13.0399   27.5463 S   0  0  0  0  0  0  0  0  0  0  0  0
    7.9978  -15.1725   25.3495 C   0  0  0  0  0  0  0  0  0  0  0  0
    6.9915  -15.9220   25.3913 O   0  0  0  0  0  0  0  0  0  0  0  0
   11.4635  -17.4793   25.0532 O   0  0  0  0  0  0  0  0  0  0  0  0
   10.1982  -17.9172   25.3596 C   0  0  0  0  0  0  0  0  0  0  0  0
    9.4505  -16.9831   26.2861 C   0  0  2  0  0  0  0  0  0  0  0  0
    9.2728  -15.6759   25.7271 N   0  0  0  0  0  0  0  0  0  0  0  0
   10.0207  -16.9662   27.6441 C   0  0  0  0  0  0  0  0  0  0  0  0
   10.3133  -15.8803   28.1748 O   0  0  0  0  0  0  0  0  0  0  0  0
   10.2275  -18.1443   28.3192 O   0  0  0  0  0  0  0  0  0  0  0  0
  2  1  1  6
  2  4  1  0
  2  3  1  0
  4  5  2  0
  6  7  1  0
  6  4  1  0
  7  8  1  1
  8  9  1  0
 10  7  1  0
 11 10  2  0
 13 12  1  0
 14 13  1  6
 14 15  1  0
 15 10  1  0
 16 18  1  0
 16 14  1  0
 17 16  2  0
M  END
$$$$
