SIP.pdb
     RDKit          3D

 22 22  0  0  1  0  0  0  0  0999 V2000
    5.9423  -17.1828   21.8700 O   0  0  0  0  0  0  0  0  0  0  0  0
    6.5464  -16.6362   20.7418 C   0  0  0  0  0  0  0  0  0  0  0  0
    6.7843  -15.1810   21.0208 C   0  0  2  0  0  0  0  0  0  0  0  0
    7.4430  -14.5886   19.8621 N   0  0  0  0  0  0  0  0  0  0  0  0
    7.5620  -14.9049   22.2407 C   0  0  0  0  0  0  0  0  0  0  0  0
    8.8129  -14.9670   22.1887 O   0  0  0  0  0  0  0  0  0  0  0  0
    5.9081  -11.5059   26.2878 C   0  0  0  0  0  0  0  0  0  0  0  0
    6.6264  -12.2470   25.1544 C   0  0  0  0  0  0  0  0  0  0  0  0
    7.0498  -13.5564   25.7179 C   0  0  2  0  0  0  0  0  0  0  0  0
    8.0332  -13.3237   26.8219 C   0  0  0  0  0  0  0  0  0  0  0  0
    7.6987  -14.4924   24.7160 C   0  0  2  0  0  0  0  0  0  0  0  0
    6.9846  -14.5657   23.4910 N   0  0  0  0  0  0  0  0  0  0  0  0
    8.1357  -15.7376   25.3421 C   0  0  0  0  0  0  0  0  0  0  0  0
    7.1783  -16.4973   25.7403 O   0  0  0  0  0  0  0  0  0  0  0  0
    9.4393  -16.1827   25.5500 N   0  0  0  0  0  0  0  0  0  0  0  0
   10.6236  -15.3168   25.4218 C   0  0  0  0  0  0  0  0  0  0  0  0
   11.7974  -16.2296   25.2764 C   0  0  0  0  0  0  0  0  0  0  0  0
   11.1850  -17.6035   25.0230 C   0  0  0  0  0  0  0  0  0  0  0  0
    9.9478  -17.4694   25.9301 C   0  0  1  0  0  0  0  0  0  0  0  0
   10.3569  -17.5017   27.3438 C   0  0  0  0  0  0  0  0  0  0  0  0
   10.6840  -18.6529   28.0195 O   0  0  0  0  0  0  0  0  0  0  0  0
   10.4127  -16.4153   27.9768 O   0  0  0  0  0  0  0  0  0  0  0  0
  2  3  1  0
  2  1  1  0
  3  4  1  6
  5  3  1  0
  6  5  2  0
  8  9  1  0
  8  7  1  0
  9 11  1  0
  9 10  1  1
 11 13  1  0
 11 12  1  6
 12  5  1  0
 13 15  1  0
 14 13  2  0
 15 19  1  0
 15 16  1  0
 16 17  1  0
 18 17  1  0
 19 20  1  1
 19 18  1  0
 20 22  2  0
 20 21  1  0
M  END
$$$$
