SIP.pdb
     RDKit          3D

 22 22  0  0  1  0  0  0  0  0999 V2000
    6.5245  -17.2704   20.0206 O   0  0  0  0  0  0  0  0  0  0  0  0
    6.5714  -16.8391   21.3428 C   0  0  0  0  0  0  0  0  0  0  0  0
    6.8681  -15.3682   21.3248 C   0  0  2  0  0  0  0  0  0  0  0  0
    7.4877  -15.0360   20.0468 N   0  0  0  0  0  0  0  0  0  0  0  0
    7.7126  -14.8946   22.4346 C   0  0  0  0  0  0  0  0  0  0  0  0
    8.9581  -14.9009   22.2934 O   0  0  0  0  0  0  0  0  0  0  0  0
    6.0722  -11.6135   26.6421 C   0  0  0  0  0  0  0  0  0  0  0  0
    6.8226  -12.2643   25.4745 C   0  0  0  0  0  0  0  0  0  0  0  0
    7.2934  -13.5853   25.9689 C   0  0  2  0  0  0  0  0  0  0  0  0
    8.3233  -13.3750   27.0343 C   0  0  0  0  0  0  0  0  0  0  0  0
    7.9102  -14.4723   24.9041 C   0  0  2  0  0  0  0  0  0  0  0  0
    7.2062  -14.4216   23.6721 N   0  0  0  0  0  0  0  0  0  0  0  0
    8.2848  -15.7793   25.4380 C   0  0  0  0  0  0  0  0  0  0  0  0
    7.2903  -16.5252   25.7647 O   0  0  0  0  0  0  0  0  0  0  0  0
    9.5652  -16.2945   25.6272 N   0  0  0  0  0  0  0  0  0  0  0  0
   10.7916  -15.4882   25.5059 C   0  0  0  0  0  0  0  0  0  0  0  0
   11.9159  -16.4570   25.3340 C   0  0  0  0  0  0  0  0  0  0  0  0
   11.2318  -17.7926   25.0597 C   0  0  0  0  0  0  0  0  0  0  0  0
   10.0095  -17.6126   25.9790 C   0  0  1  0  0  0  0  0  0  0  0  0
   10.4263  -17.6931   27.3886 C   0  0  0  0  0  0  0  0  0  0  0  0
   10.7443  -18.8680   28.0266 O   0  0  0  0  0  0  0  0  0  0  0  0
   10.4977  -16.6273   28.0543 O   0  0  0  0  0  0  0  0  0  0  0  0
  2  3  1  0
  2  1  1  0
  3  4  1  6
  5  3  1  0
  6  5  2  0
  8  9  1  0
  8  7  1  0
  9 11  1  0
  9 10  1  1
 11 13  1  0
 11 12  1  6
 12  5  1  0
 13 15  1  0
 14 13  2  0
 15 19  1  0
 15 16  1  0
 16 17  1  0
 18 17  1  0
 19 20  1  1
 19 18  1  0
 20 22  2  0
 20 21  1  0
M  END
$$$$
