SIP.pdb
     RDKit          3D

 22 22  0  0  1  0  0  0  0  0999 V2000
    7.9816  -19.8571   24.2041 O   0  0  0  0  0  0  0  0  0  0  0  0
    7.2994  -19.8082   25.4160 C   0  0  0  0  0  0  0  0  0  0  0  0
    5.9693  -19.1637   25.1566 C   0  0  2  0  0  0  0  0  0  0  0  0
    5.2041  -20.0243   24.2613 N   0  0  0  0  0  0  0  0  0  0  0  0
    6.0406  -17.7989   24.6077 C   0  0  0  0  0  0  0  0  0  0  0  0
    5.7885  -17.6206   23.3928 O   0  0  0  0  0  0  0  0  0  0  0  0
    6.8812  -11.9433   26.4065 C   0  0  0  0  0  0  0  0  0  0  0  0
    6.9332  -12.9311   25.2354 C   0  0  0  0  0  0  0  0  0  0  0  0
    6.8002  -14.2873   25.8304 C   0  0  2  0  0  0  0  0  0  0  0  0
    7.9204  -14.5143   26.7966 C   0  0  0  0  0  0  0  0  0  0  0  0
    6.8267  -15.4216   24.8235 C   0  0  2  0  0  0  0  0  0  0  0  0
    6.3781  -16.6523   25.3714 N   0  0  0  0  0  0  0  0  0  0  0  0
    8.0566  -15.4179   24.0356 C   0  0  0  0  0  0  0  0  0  0  0  0
    8.9771  -16.1954   24.4831 O   0  0  0  0  0  0  0  0  0  0  0  0
    8.3361  -14.6861   22.8836 N   0  0  0  0  0  0  0  0  0  0  0  0
    7.8350  -13.3217   22.6463 C   0  0  0  0  0  0  0  0  0  0  0  0
    7.9626  -13.0770   21.1780 C   0  0  0  0  0  0  0  0  0  0  0  0
    8.2595  -14.4508   20.5853 C   0  0  0  0  0  0  0  0  0  0  0  0
    9.1262  -15.0075   21.7300 C   0  0  1  0  0  0  0  0  0  0  0  0
   10.4297  -14.3236   21.7501 C   0  0  0  0  0  0  0  0  0  0  0  0
   11.4158  -14.5287   20.8150 O   0  0  0  0  0  0  0  0  0  0  0  0
   10.6613  -13.5017   22.6747 O   0  0  0  0  0  0  0  0  0  0  0  0
  2  3  1  0
  2  1  1  0
  3  4  1  6
  5  3  1  0
  6  5  2  0
  8  9  1  0
  8  7  1  0
  9 11  1  0
  9 10  1  1
 11 13  1  0
 11 12  1  1
 12  5  1  0
 13 15  1  0
 14 13  2  0
 15 19  1  0
 15 16  1  0
 16 17  1  0
 18 17  1  0
 19 20  1  1
 19 18  1  0
 20 22  2  0
 20 21  1  0
M  END
$$$$
