SIP.pdb
     RDKit          3D

 22 22  0  0  1  0  0  0  0  0999 V2000
    8.5916  -18.4453   21.0231 O   0  0  0  0  0  0  0  0  0  0  0  0
    9.4710  -17.7991   21.8865 C   0  0  0  0  0  0  0  0  0  0  0  0
    9.3574  -16.3261   21.6231 C   0  0  2  0  0  0  0  0  0  0  0  0
   10.3748  -15.9498   20.6481 N   0  0  0  0  0  0  0  0  0  0  0  0
    9.4642  -15.4745   22.8200 C   0  0  0  0  0  0  0  0  0  0  0  0
   10.5982  -15.0895   23.1902 O   0  0  0  0  0  0  0  0  0  0  0  0
    6.0566  -12.2779   26.8316 C   0  0  0  0  0  0  0  0  0  0  0  0
    7.3527  -13.0745   26.6438 C   0  0  0  0  0  0  0  0  0  0  0  0
    7.2016  -13.8172   25.3645 C   0  0  2  0  0  0  0  0  0  0  0  0
    6.0784  -14.7981   25.4931 C   0  0  0  0  0  0  0  0  0  0  0  0
    8.4356  -14.5875   24.9344 C   0  0  2  0  0  0  0  0  0  0  0  0
    8.3544  -15.0503   23.5946 N   0  0  0  0  0  0  0  0  0  0  0  0
    8.8790  -15.5204   25.9671 C   0  0  0  0  0  0  0  0  0  0  0  0
    8.6128  -16.7534   25.7199 O   0  0  0  0  0  0  0  0  0  0  0  0
    9.5414  -15.2314   27.1582 N   0  0  0  0  0  0  0  0  0  0  0  0
    9.2731  -14.0297   27.9661 C   0  0  0  0  0  0  0  0  0  0  0  0
   10.4495  -13.8611   28.8714 C   0  0  0  0  0  0  0  0  0  0  0  0
   11.4971  -14.8239   28.3214 C   0  0  0  0  0  0  0  0  0  0  0  0
   10.5516  -15.9548   27.8756 C   0  0  1  0  0  0  0  0  0  0  0  0
   10.0008  -16.6418   29.0554 C   0  0  0  0  0  0  0  0  0  0  0  0
    8.6683  -16.6356   29.3916 O   0  0  0  0  0  0  0  0  0  0  0  0
   10.7908  -17.2738   29.8041 O   0  0  0  0  0  0  0  0  0  0  0  0
  2  3  1  0
  2  1  1  0
  3  4  1  6
  5  3  1  0
  6  5  2  0
  8  9  1  0
  8  7  1  0
  9 11  1  0
  9 10  1  1
 11 13  1  0
 11 12  1  6
 12  5  1  0
 13 15  1  0
 14 13  2  0
 15 19  1  0
 15 16  1  0
 16 17  1  0
 18 17  1  0
 19 20  1  1
 19 18  1  0
 20 22  2  0
 20 21  1  0
M  END
$$$$
