SIP.pdb
     RDKit          3D

 22 22  0  0  1  0  0  0  0  0999 V2000
    7.9142  -17.9097   21.0674 O   0  0  0  0  0  0  0  0  0  0  0  0
    8.9939  -17.3684   21.7586 C   0  0  0  0  0  0  0  0  0  0  0  0
    8.8699  -15.8746   21.6860 C   0  0  2  0  0  0  0  0  0  0  0  0
    9.7747  -15.3842   20.6525 N   0  0  0  0  0  0  0  0  0  0  0  0
    9.1229  -15.1713   22.9550 C   0  0  0  0  0  0  0  0  0  0  0  0
   10.3051  -14.9033   23.2739 O   0  0  0  0  0  0  0  0  0  0  0  0
    5.4580  -12.0517   25.9682 C   0  0  0  0  0  0  0  0  0  0  0  0
    6.7493  -12.4967   25.2722 C   0  0  0  0  0  0  0  0  0  0  0  0
    7.1160  -13.8053   25.8757 C   0  0  2  0  0  0  0  0  0  0  0  0
    7.4350  -13.6084   27.3247 C   0  0  0  0  0  0  0  0  0  0  0  0
    8.3107  -14.4826   25.2315 C   0  0  2  0  0  0  0  0  0  0  0  0
    8.1045  -14.7669   23.8557 N   0  0  0  0  0  0  0  0  0  0  0  0
    8.8628  -15.5326   26.0837 C   0  0  0  0  0  0  0  0  0  0  0  0
    8.5070  -16.7240   25.7580 O   0  0  0  0  0  0  0  0  0  0  0  0
    9.7100  -15.3912   27.1805 N   0  0  0  0  0  0  0  0  0  0  0  0
    9.7274  -14.1992   28.0453 C   0  0  0  0  0  0  0  0  0  0  0  0
   11.0240  -14.2372   28.7867 C   0  0  0  0  0  0  0  0  0  0  0  0
   11.8392  -15.3139   28.0774 C   0  0  0  0  0  0  0  0  0  0  0  0
   10.6891  -16.2799   27.7374 C   0  0  1  0  0  0  0  0  0  0  0  0
   10.2030  -16.9321   28.9644 C   0  0  0  0  0  0  0  0  0  0  0  0
    8.9599  -16.7113   29.5073 O   0  0  0  0  0  0  0  0  0  0  0  0
   10.9652  -17.7403   29.5560 O   0  0  0  0  0  0  0  0  0  0  0  0
  2  3  1  0
  2  1  1  0
  3  4  1  6
  5  3  1  0
  6  5  2  0
  8  9  1  0
  8  7  1  0
  9 11  1  0
  9 10  1  1
 11 13  1  0
 11 12  1  6
 12  5  1  0
 13 15  1  0
 14 13  2  0
 15 19  1  0
 15 16  1  0
 16 17  1  0
 18 17  1  0
 19 20  1  1
 19 18  1  0
 20 22  2  0
 20 21  1  0
M  END
$$$$
