SIP.pdb
     RDKit          3D

 22 22  0  0  1  0  0  0  0  0999 V2000
    7.9150  -20.1624   27.0855 O   0  0  0  0  0  0  0  0  0  0  0  0
    7.8819  -19.0279   26.2803 C   0  0  0  0  0  0  0  0  0  0  0  0
    6.4510  -18.5856   26.1867 C   0  0  2  0  0  0  0  0  0  0  0  0
    5.6568  -19.6927   25.6661 N   0  0  0  0  0  0  0  0  0  0  0  0
    6.2296  -17.3780   25.3732 C   0  0  0  0  0  0  0  0  0  0  0  0
    5.8164  -17.5073   24.1969 O   0  0  0  0  0  0  0  0  0  0  0  0
    6.3701  -11.9928   27.2927 C   0  0  0  0  0  0  0  0  0  0  0  0
    5.9559  -13.1391   26.3631 C   0  0  0  0  0  0  0  0  0  0  0  0
    7.2184  -13.7333   25.8493 C   0  0  2  0  0  0  0  0  0  0  0  0
    7.8985  -12.7472   24.9519 C   0  0  0  0  0  0  0  0  0  0  0  0
    7.0352  -15.0177   25.0632 C   0  0  2  0  0  0  0  0  0  0  0  0
    6.4528  -16.0562   25.8368 N   0  0  0  0  0  0  0  0  0  0  0  0
    8.2097  -15.3289   24.2526 C   0  0  0  0  0  0  0  0  0  0  0  0
    9.1122  -16.0103   24.8636 O   0  0  0  0  0  0  0  0  0  0  0  0
    8.4545  -14.9800   22.9263 N   0  0  0  0  0  0  0  0  0  0  0  0
    7.8782  -13.7887   22.2800 C   0  0  0  0  0  0  0  0  0  0  0  0
    8.0011  -14.0090   20.8074 C   0  0  0  0  0  0  0  0  0  0  0  0
    8.3794  -15.4805   20.6707 C   0  0  0  0  0  0  0  0  0  0  0  0
    9.2690  -15.6015   21.9219 C   0  0  1  0  0  0  0  0  0  0  0  0
   10.5313  -14.8738   21.7117 C   0  0  0  0  0  0  0  0  0  0  0  0
   11.5423  -15.3163   20.8927 O   0  0  0  0  0  0  0  0  0  0  0  0
   10.7013  -13.7819   22.3142 O   0  0  0  0  0  0  0  0  0  0  0  0
  2  3  1  0
  2  1  1  0
  3  4  1  6
  5  3  1  0
  6  5  2  0
  8  9  1  0
  8  7  1  0
  9 11  1  0
  9 10  1  6
 11 13  1  0
 11 12  1  1
 12  5  1  0
 13 15  1  0
 14 13  2  0
 15 19  1  0
 15 16  1  0
 16 17  1  0
 18 17  1  0
 19 20  1  6
 19 18  1  0
 20 22  2  0
 20 21  1  0
M  END
$$$$
