SIP.pdb
     RDKit          3D

 22 22  0  0  1  0  0  0  0  0999 V2000
    7.0733  -17.5024   21.3098 O   0  0  0  0  0  0  0  0  0  0  0  0
    6.0447  -16.5684   21.3893 C   0  0  0  0  0  0  0  0  0  0  0  0
    6.6759  -15.2073   21.4201 C   0  0  2  0  0  0  0  0  0  0  0  0
    7.3848  -14.9966   20.1629 N   0  0  0  0  0  0  0  0  0  0  0  0
    7.5819  -14.9721   22.5572 C   0  0  0  0  0  0  0  0  0  0  0  0
    8.8087  -15.1817   22.4077 O   0  0  0  0  0  0  0  0  0  0  0  0
    6.0713  -11.7131   26.7219 C   0  0  0  0  0  0  0  0  0  0  0  0
    6.9202  -12.2995   25.5880 C   0  0  0  0  0  0  0  0  0  0  0  0
    7.4302  -13.6051   26.0843 C   0  0  2  0  0  0  0  0  0  0  0  0
    8.5432  -13.3632   27.0553 C   0  0  0  0  0  0  0  0  0  0  0  0
    7.9589  -14.5267   25.0016 C   0  0  2  0  0  0  0  0  0  0  0  0
    7.1562  -14.5148   23.8305 N   0  0  0  0  0  0  0  0  0  0  0  0
    8.3777  -15.8163   25.5449 C   0  0  0  0  0  0  0  0  0  0  0  0
    7.4092  -16.5920   25.8801 O   0  0  0  0  0  0  0  0  0  0  0  0
    9.6749  -16.2875   25.7348 N   0  0  0  0  0  0  0  0  0  0  0  0
   10.8718  -15.4355   25.6330 C   0  0  0  0  0  0  0  0  0  0  0  0
   12.0316  -16.3602   25.4543 C   0  0  0  0  0  0  0  0  0  0  0  0
   11.3982  -17.7156   25.1564 C   0  0  0  0  0  0  0  0  0  0  0  0
   10.1647  -17.5936   26.0703 C   0  0  1  0  0  0  0  0  0  0  0  0
   10.5759  -17.6795   27.4812 C   0  0  0  0  0  0  0  0  0  0  0  0
   10.9165  -18.8538   28.1088 O   0  0  0  0  0  0  0  0  0  0  0  0
   10.6203  -16.6195   28.1583 O   0  0  0  0  0  0  0  0  0  0  0  0
  2  3  1  0
  2  1  1  0
  3  4  1  6
  5  3  1  0
  6  5  2  0
  8  9  1  0
  8  7  1  0
  9 11  1  0
  9 10  1  1
 11 13  1  0
 11 12  1  6
 12  5  1  0
 13 15  1  0
 14 13  2  0
 15 19  1  0
 15 16  1  0
 16 17  1  0
 18 17  1  0
 19 20  1  1
 19 18  1  0
 20 22  2  0
 20 21  1  0
M  END
$$$$
