SIP.pdb
     RDKit          3D

 22 22  0  0  1  0  0  0  0  0999 V2000
    8.7634  -17.6431   22.0573 O   0  0  0  0  0  0  0  0  0  0  0  0
    7.7541  -16.8267   21.5559 C   0  0  0  0  0  0  0  0  0  0  0  0
    8.2845  -15.4232   21.5281 C   0  0  2  0  0  0  0  0  0  0  0  0
    9.4019  -15.3684   20.5922 N   0  0  0  0  0  0  0  0  0  0  0  0
    8.6961  -14.8922   22.8388 C   0  0  0  0  0  0  0  0  0  0  0  0
    9.9138  -14.8895   23.1360 O   0  0  0  0  0  0  0  0  0  0  0  0
    5.3329  -11.7671   26.2033 C   0  0  0  0  0  0  0  0  0  0  0  0
    6.5221  -12.2271   25.3524 C   0  0  0  0  0  0  0  0  0  0  0  0
    6.9831  -13.5113   25.9437 C   0  0  2  0  0  0  0  0  0  0  0  0
    7.4725  -13.2655   27.3366 C   0  0  0  0  0  0  0  0  0  0  0  0
    8.1024  -14.1907   25.1779 C   0  0  2  0  0  0  0  0  0  0  0  0
    7.7955  -14.3726   23.8036 N   0  0  0  0  0  0  0  0  0  0  0  0
    8.6611  -15.3173   25.9211 C   0  0  0  0  0  0  0  0  0  0  0  0
    8.1964  -16.4649   25.5760 O   0  0  0  0  0  0  0  0  0  0  0  0
    9.6164  -15.2881   26.9346 N   0  0  0  0  0  0  0  0  0  0  0  0
    9.8228  -14.1321   27.8235 C   0  0  0  0  0  0  0  0  0  0  0  0
   11.1741  -14.3092   28.4357 C   0  0  0  0  0  0  0  0  0  0  0  0
   11.8182  -15.4289   27.6244 C   0  0  0  0  0  0  0  0  0  0  0  0
   10.5584  -16.2778   27.3723 C   0  0  1  0  0  0  0  0  0  0  0  0
   10.1318  -16.9257   28.6235 C   0  0  0  0  0  0  0  0  0  0  0  0
   10.8259  -17.9429   29.2336 O   0  0  0  0  0  0  0  0  0  0  0  0
    9.0704  -16.5299   29.1719 O   0  0  0  0  0  0  0  0  0  0  0  0
  2  3  1  0
  2  1  1  0
  3  4  1  6
  5  3  1  0
  6  5  2  0
  8  9  1  0
  8  7  1  0
  9 11  1  0
  9 10  1  1
 11 13  1  0
 11 12  1  6
 12  5  1  0
 13 15  1  0
 14 13  2  0
 15 19  1  0
 15 16  1  0
 16 17  1  0
 18 17  1  0
 19 20  1  1
 19 18  1  0
 20 22  2  0
 20 21  1  0
M  END
$$$$
