VCP.pdb
     RDKit          3D

 21 21  0  0  1  0  0  0  0  0999 V2000
   11.4570  -15.8314   21.0896 C   0  0  0  0  0  0  0  0  0  0  0  0
   11.0504  -17.2732   21.2867 C   0  0  2  0  0  0  0  0  0  0  0  0
   11.9043  -18.1466   20.4314 C   0  0  0  0  0  0  0  0  0  0  0  0
    9.5625  -17.4581   21.0075 C   0  0  2  0  0  0  0  0  0  0  0  0
    9.3488  -17.1435   19.6227 N   0  0  0  0  0  0  0  0  0  0  0  0
    8.8514  -16.5260   21.9208 C   0  0  0  0  0  0  0  0  0  0  0  0
    8.5027  -15.4218   21.4406 O   0  0  0  0  0  0  0  0  0  0  0  0
    8.5552  -16.8044   23.2575 N   0  0  0  0  0  0  0  0  0  0  0  0
    7.8113  -15.9464   24.1604 C   0  0  1  0  0  0  0  0  0  0  0  0
    6.5361  -16.6012   24.6273 C   0  0  0  0  0  0  0  0  0  0  0  0
    6.9963  -17.9251   25.8120 S   0  0  0  0  0  0  0  0  0  0  0  0
    8.7100  -15.5756   25.2788 C   0  0  0  0  0  0  0  0  0  0  0  0
    9.8126  -16.1713   25.3789 O   0  0  0  0  0  0  0  0  0  0  0  0
    8.4048  -14.5862   26.2492 N   0  0  0  0  0  0  0  0  0  0  0  0
    7.1621  -13.8705   26.4465 C   0  0  0  0  0  0  0  0  0  0  0  0
    7.5829  -12.5357   27.0201 C   0  0  0  0  0  0  0  0  0  0  0  0
    8.9331  -12.7323   27.6369 C   0  0  0  0  0  0  0  0  0  0  0  0
    9.3308  -14.1017   27.2465 C   0  0  1  0  0  0  0  0  0  0  0  0
    9.3604  -14.9841   28.4436 C   0  0  0  0  0  0  0  0  0  0  0  0
    8.4821  -15.8693   28.5675 O   0  0  0  0  0  0  0  0  0  0  0  0
   10.3286  -14.8561   29.4229 O   0  0  0  0  0  0  0  0  0  0  0  0
  2  1  1  6
  3  2  1  0
  4  2  1  0
  4  5  1  6
  6  4  1  0
  7  6  2  0
  8  6  1  0
  9 12  1  0
  9  8  1  0
 10 11  1  0
  9 10  1  1
 12 14  1  0
 13 12  2  0
 14 18  1  0
 14 15  1  0
 15 16  1  0
 17 16  1  0
 18 17  1  0
 19 21  1  0
 18 19  1  1
 20 19  2  0
M  END
$$$$
