VCP.pdb
     RDKit          3D

 21 21  0  0  1  0  0  0  0  0999 V2000
   11.4391  -15.7237   21.2434 C   0  0  0  0  0  0  0  0  0  0  0  0
   11.0746  -17.1855   21.3592 C   0  0  2  0  0  0  0  0  0  0  0  0
   12.0328  -17.9968   20.5547 C   0  0  0  0  0  0  0  0  0  0  0  0
    9.6246  -17.4153   20.9459 C   0  0  2  0  0  0  0  0  0  0  0  0
    9.5387  -17.1515   19.5368 N   0  0  0  0  0  0  0  0  0  0  0  0
    8.8097  -16.4712   21.7539 C   0  0  0  0  0  0  0  0  0  0  0  0
    8.5091  -15.3804   21.2142 O   0  0  0  0  0  0  0  0  0  0  0  0
    8.3681  -16.7247   23.0550 N   0  0  0  0  0  0  0  0  0  0  0  0
    7.5442  -15.8432   23.8605 C   0  0  1  0  0  0  0  0  0  0  0  0
    6.2728  -16.5207   24.3051 C   0  0  0  0  0  0  0  0  0  0  0  0
    6.7266  -17.7750   25.5656 S   0  0  0  0  0  0  0  0  0  0  0  0
    8.3670  -15.3633   24.9957 C   0  0  0  0  0  0  0  0  0  0  0  0
    9.5123  -15.8580   25.1517 O   0  0  0  0  0  0  0  0  0  0  0  0
    7.9435  -14.3762   25.9230 N   0  0  0  0  0  0  0  0  0  0  0  0
    6.6405  -13.7585   26.0495 C   0  0  0  0  0  0  0  0  0  0  0  0
    6.9289  -12.3790   26.5986 C   0  0  0  0  0  0  0  0  0  0  0  0
    8.2636  -12.4487   27.2737 C   0  0  0  0  0  0  0  0  0  0  0  0
    8.7855  -13.7914   26.9408 C   0  0  1  0  0  0  0  0  0  0  0  0
    8.8356  -14.6359   28.1643 C   0  0  0  0  0  0  0  0  0  0  0  0
    8.0388  -15.5971   28.2720 O   0  0  0  0  0  0  0  0  0  0  0  0
    9.7357  -14.3913   29.1855 O   0  0  0  0  0  0  0  0  0  0  0  0
  2  1  1  6
  3  2  1  0
  4  2  1  0
  4  5  1  6
  6  4  1  0
  7  6  2  0
  8  6  1  0
  9 12  1  0
  9  8  1  0
 10 11  1  0
  9 10  1  1
 12 14  1  0
 13 12  2  0
 14 18  1  0
 14 15  1  0
 15 16  1  0
 17 16  1  0
 18 17  1  0
 19 21  1  0
 18 19  1  1
 20 19  2  0
M  END
$$$$
