VCP.pdb
     RDKit          3D

 21 21  0  0  1  0  0  0  0  0999 V2000
    7.6329  -21.3067   23.0044 C   0  0  0  0  0  0  0  0  0  0  0  0
    7.5155  -19.8767   22.5306 C   0  0  2  0  0  0  0  0  0  0  0  0
    8.8649  -19.3741   22.1435 C   0  0  0  0  0  0  0  0  0  0  0  0
    6.8520  -19.0079   23.5941 C   0  0  2  0  0  0  0  0  0  0  0  0
    5.5093  -19.4903   23.7583 N   0  0  0  0  0  0  0  0  0  0  0  0
    6.8988  -17.6150   23.0786 C   0  0  0  0  0  0  0  0  0  0  0  0
    6.1690  -17.3529   22.0936 O   0  0  0  0  0  0  0  0  0  0  0  0
    7.6941  -16.6007   23.6180 N   0  0  0  0  0  0  0  0  0  0  0  0
    7.7459  -15.2255   23.1590 C   0  0  1  0  0  0  0  0  0  0  0  0
    8.1558  -14.2845   24.2634 C   0  0  0  0  0  0  0  0  0  0  0  0
    6.7862  -14.2350   25.4839 S   0  0  0  0  0  0  0  0  0  0  0  0
    8.6549  -15.1704   21.9900 C   0  0  0  0  0  0  0  0  0  0  0  0
    9.4146  -16.1499   21.7801 O   0  0  0  0  0  0  0  0  0  0  0  0
    8.7235  -14.0777   21.0872 N   0  0  0  0  0  0  0  0  0  0  0  0
    8.0936  -12.7789   21.1950 C   0  0  0  0  0  0  0  0  0  0  0  0
    7.8708  -12.3480   19.7623 C   0  0  0  0  0  0  0  0  0  0  0  0
    8.8456  -13.1119   18.9206 C   0  0  0  0  0  0  0  0  0  0  0  0
    9.4653  -14.0826   19.8477 C   0  0  1  0  0  0  0  0  0  0  0  0
   10.8965  -13.7391   20.0626 C   0  0  0  0  0  0  0  0  0  0  0  0
   11.2359  -13.1966   21.1400 O   0  0  0  0  0  0  0  0  0  0  0  0
   11.8629  -14.0013   19.1084 O   0  0  0  0  0  0  0  0  0  0  0  0
  2  1  1  1
  3  2  1  0
  4  2  1  0
  4  5  1  6
  6  4  1  0
  7  6  2  0
  8  6  1  0
  9 12  1  0
  9  8  1  0
 10 11  1  0
  9 10  1  1
 12 14  1  0
 13 12  2  0
 14 18  1  0
 14 15  1  0
 15 16  1  0
 17 16  1  0
 18 17  1  0
 19 21  1  0
 18 19  1  1
 20 19  2  0
M  END
$$$$
