VCP.pdb
     RDKit          3D

 21 21  0  0  1  0  0  0  0  0999 V2000
    7.1053  -12.6857   19.8980 C   0  0  0  0  0  0  0  0  0  0  0  0
    8.4506  -13.3712   19.8399 C   0  0  2  0  0  0  0  0  0  0  0  0
    9.1185  -13.0359   18.5496 C   0  0  0  0  0  0  0  0  0  0  0  0
    8.3002  -14.8749   20.0459 C   0  0  2  0  0  0  0  0  0  0  0  0
    7.5842  -15.3884   18.9118 N   0  0  0  0  0  0  0  0  0  0  0  0
    7.5516  -15.0452   21.3183 C   0  0  0  0  0  0  0  0  0  0  0  0
    6.3075  -14.9013   21.2648 O   0  0  0  0  0  0  0  0  0  0  0  0
    8.1434  -15.3505   22.5466 N   0  0  0  0  0  0  0  0  0  0  0  0
    7.4442  -15.5435   23.8030 C   0  0  1  0  0  0  0  0  0  0  0  0
    7.1629  -17.0011   24.0660 C   0  0  0  0  0  0  0  0  0  0  0  0
    6.7057  -17.1652   25.8358 S   0  0  0  0  0  0  0  0  0  0  0  0
    8.2506  -14.9115   24.8736 C   0  0  0  0  0  0  0  0  0  0  0  0
    9.4963  -15.0809   24.8593 O   0  0  0  0  0  0  0  0  0  0  0  0
    7.7046  -14.1230   25.9196 N   0  0  0  0  0  0  0  0  0  0  0  0
    6.3236  -13.7489   26.1393 C   0  0  0  0  0  0  0  0  0  0  0  0
    6.4026  -12.4142   26.8465 C   0  0  0  0  0  0  0  0  0  0  0  0
    7.7535  -12.3400   27.4881 C   0  0  0  0  0  0  0  0  0  0  0  0
    8.4750  -13.5295   26.9877 C   0  0  1  0  0  0  0  0  0  0  0  0
    8.7044  -14.4907   28.0994 C   0  0  0  0  0  0  0  0  0  0  0  0
    8.0860  -15.5806   28.0974 O   0  0  0  0  0  0  0  0  0  0  0  0
    9.5802  -14.2168   29.1342 O   0  0  0  0  0  0  0  0  0  0  0  0
  2  1  1  6
  3  2  1  0
  4  2  1  0
  4  5  1  6
  6  4  1  0
  7  6  2  0
  8  6  1  0
  9 12  1  0
  9  8  1  0
 10 11  1  0
  9 10  1  1
 12 14  1  0
 13 12  2  0
 14 18  1  0
 14 15  1  0
 15 16  1  0
 17 16  1  0
 18 17  1  0
 19 21  1  0
 18 19  1  1
 20 19  2  0
M  END
$$$$
