VCP.pdb
     RDKit          3D

 21 21  0  0  1  0  0  0  0  0999 V2000
   11.7283  -15.8841   21.7202 C   0  0  0  0  0  0  0  0  0  0  0  0
   11.1331  -17.2685   21.6094 C   0  0  2  0  0  0  0  0  0  0  0  0
   11.9015  -18.0555   20.6026 C   0  0  0  0  0  0  0  0  0  0  0  0
    9.6460  -17.1925   21.2795 C   0  0  2  0  0  0  0  0  0  0  0  0
    9.5322  -16.6323   19.9621 N   0  0  0  0  0  0  0  0  0  0  0  0
    9.0348  -16.3278   22.3221 C   0  0  0  0  0  0  0  0  0  0  0  0
    8.9655  -15.1020   22.0692 O   0  0  0  0  0  0  0  0  0  0  0  0
    8.5427  -16.7936   23.5440 N   0  0  0  0  0  0  0  0  0  0  0  0
    7.8312  -16.0037   24.5312 C   0  0  1  0  0  0  0  0  0  0  0  0
    6.6754  -16.7665   25.1273 C   0  0  0  0  0  0  0  0  0  0  0  0
    6.0746  -15.8153   26.5773 S   0  0  0  0  0  0  0  0  0  0  0  0
    8.8116  -15.5578   25.5490 C   0  0  0  0  0  0  0  0  0  0  0  0
    9.8900  -16.1952   25.6561 O   0  0  0  0  0  0  0  0  0  0  0  0
    8.6108  -14.4517   26.4151 N   0  0  0  0  0  0  0  0  0  0  0  0
    7.4442  -13.6037   26.5381 C   0  0  0  0  0  0  0  0  0  0  0  0
    7.9958  -12.2650   26.9757 C   0  0  0  0  0  0  0  0  0  0  0  0
    9.3261  -12.5281   27.6108 C   0  0  0  0  0  0  0  0  0  0  0  0
    9.5874  -13.9615   27.3599 C   0  0  1  0  0  0  0  0  0  0  0  0
    9.5423  -14.7188   28.6394 C   0  0  0  0  0  0  0  0  0  0  0  0
    8.6324  -15.5625   28.8141 O   0  0  0  0  0  0  0  0  0  0  0  0
   10.4751  -14.5190   29.6408 O   0  0  0  0  0  0  0  0  0  0  0  0
  2  1  1  6
  3  2  1  0
  4  2  1  0
  4  5  1  6
  6  4  1  0
  7  6  2  0
  8  6  1  0
  9 12  1  0
  9  8  1  0
 10 11  1  0
  9 10  1  1
 12 14  1  0
 13 12  2  0
 14 18  1  0
 14 15  1  0
 15 16  1  0
 17 16  1  0
 18 17  1  0
 19 21  1  0
 18 19  1  1
 20 19  2  0
M  END
$$$$
