VCP.pdb
     RDKit          3D

 21 21  0  0  1  0  0  0  0  0999 V2000
   10.9925  -17.3960   22.1250 C   0  0  0  0  0  0  0  0  0  0  0  0
    9.5198  -17.4533   21.7916 C   0  0  2  0  0  0  0  0  0  0  0  0
    9.3059  -18.4135   20.6710 C   0  0  0  0  0  0  0  0  0  0  0  0
    8.9823  -16.0609   21.4780 C   0  0  2  0  0  0  0  0  0  0  0  0
    9.8384  -15.4922   20.4749 N   0  0  0  0  0  0  0  0  0  0  0  0
    9.0210  -15.3049   22.7567 C   0  0  0  0  0  0  0  0  0  0  0  0
   10.0879  -14.7041   23.0251 O   0  0  0  0  0  0  0  0  0  0  0  0
    7.9572  -15.2270   23.6593 N   0  0  0  0  0  0  0  0  0  0  0  0
    7.9500  -14.4802   24.9031 C   0  0  1  0  0  0  0  0  0  0  0  0
    6.5476  -14.2485   25.4058 C   0  0  0  0  0  0  0  0  0  0  0  0
    6.6749  -13.5778   27.1093 S   0  0  0  0  0  0  0  0  0  0  0  0
    8.7963  -15.2100   25.8763 C   0  0  0  0  0  0  0  0  0  0  0  0
    9.0279  -16.4280   25.6679 O   0  0  0  0  0  0  0  0  0  0  0  0
    9.3652  -14.6197   27.0346 N   0  0  0  0  0  0  0  0  0  0  0  0
    9.0502  -13.3449   27.6436 C   0  0  0  0  0  0  0  0  0  0  0  0
   10.3433  -12.9092   28.2963 C   0  0  0  0  0  0  0  0  0  0  0  0
   11.1572  -14.1460   28.5200 C   0  0  0  0  0  0  0  0  0  0  0  0
   10.4081  -15.2201   27.8337 C   0  0  1  0  0  0  0  0  0  0  0  0
    9.8547  -16.1731   28.8328 C   0  0  0  0  0  0  0  0  0  0  0  0
   10.6450  -16.8077   29.5696 O   0  0  0  0  0  0  0  0  0  0  0  0
    8.4941  -16.3788   28.9720 O   0  0  0  0  0  0  0  0  0  0  0  0
  2  1  1  6
  3  2  1  0
  4  2  1  0
  4  5  1  6
  6  4  1  0
  7  6  2  0
  8  6  1  0
  9 12  1  0
  9  8  1  0
 10 11  1  0
  9 10  1  1
 12 14  1  0
 13 12  2  0
 14 18  1  0
 14 15  1  0
 15 16  1  0
 17 16  1  0
 18 17  1  0
 19 21  1  0
 18 19  1  1
 20 19  2  0
M  END
$$$$
