VCP.pdb
     RDKit          3D

 21 21  0  0  1  0  0  0  0  0999 V2000
    8.5077  -13.2381   18.1722 C   0  0  0  0  0  0  0  0  0  0  0  0
    7.7595  -13.5810   19.4393 C   0  0  2  0  0  0  0  0  0  0  0  0
    7.9698  -12.4986   20.4432 C   0  0  0  0  0  0  0  0  0  0  0  0
    8.1799  -14.9509   19.9612 C   0  0  2  0  0  0  0  0  0  0  0  0
    7.8188  -15.9150   18.9598 N   0  0  0  0  0  0  0  0  0  0  0  0
    7.4449  -15.1509   21.2372 C   0  0  0  0  0  0  0  0  0  0  0  0
    6.1937  -15.1841   21.1685 O   0  0  0  0  0  0  0  0  0  0  0  0
    8.0565  -15.3009   22.4844 N   0  0  0  0  0  0  0  0  0  0  0  0
    7.3730  -15.4990   23.7486 C   0  0  1  0  0  0  0  0  0  0  0  0
    7.0183  -16.9477   23.9692 C   0  0  0  0  0  0  0  0  0  0  0  0
    6.5610  -17.1418   25.7359 S   0  0  0  0  0  0  0  0  0  0  0  0
    8.2335  -14.9480   24.8219 C   0  0  0  0  0  0  0  0  0  0  0  0
    9.4576  -15.2348   24.8094 O   0  0  0  0  0  0  0  0  0  0  0  0
    7.7627  -14.1131   25.8682 N   0  0  0  0  0  0  0  0  0  0  0  0
    6.4244  -13.6049   26.0826 C   0  0  0  0  0  0  0  0  0  0  0  0
    6.6313  -12.2870   26.7954 C   0  0  0  0  0  0  0  0  0  0  0  0
    7.9795  -12.3490   27.4440 C   0  0  0  0  0  0  0  0  0  0  0  0
    8.5824  -13.6023   26.9424 C   0  0  1  0  0  0  0  0  0  0  0  0
    8.7097  -14.5855   28.0514 C   0  0  0  0  0  0  0  0  0  0  0  0
    7.9730  -15.5992   28.0521 O   0  0  0  0  0  0  0  0  0  0  0  0
    9.6171  -14.4134   29.0809 O   0  0  0  0  0  0  0  0  0  0  0  0
  2  1  1  6
  3  2  1  0
  4  2  1  0
  4  5  1  6
  6  4  1  0
  7  6  2  0
  8  6  1  0
  9 12  1  0
  9  8  1  0
 10 11  1  0
  9 10  1  1
 12 14  1  0
 13 12  2  0
 14 18  1  0
 14 15  1  0
 15 16  1  0
 17 16  1  0
 18 17  1  0
 19 21  1  0
 18 19  1  1
 20 19  2  0
M  END
$$$$
