VCP.pdb
     RDKit          3D

 21 21  0  0  1  0  0  0  0  0999 V2000
    7.2625  -21.3666   23.0707 C   0  0  0  0  0  0  0  0  0  0  0  0
    7.2100  -19.9014   22.7055 C   0  0  2  0  0  0  0  0  0  0  0  0
    8.5920  -19.4124   22.4326 C   0  0  0  0  0  0  0  0  0  0  0  0
    6.5112  -19.0972   23.7968 C   0  0  2  0  0  0  0  0  0  0  0  0
    5.1784  -19.6178   23.9192 N   0  0  0  0  0  0  0  0  0  0  0  0
    6.5317  -17.6817   23.3450 C   0  0  0  0  0  0  0  0  0  0  0  0
    5.8267  -17.3972   22.3482 O   0  0  0  0  0  0  0  0  0  0  0  0
    7.2771  -16.6698   23.9553 N   0  0  0  0  0  0  0  0  0  0  0  0
    7.3802  -15.2963   23.4995 C   0  0  1  0  0  0  0  0  0  0  0  0
    7.8002  -14.3699   24.6123 C   0  0  0  0  0  0  0  0  0  0  0  0
    6.4075  -14.2699   25.8034 S   0  0  0  0  0  0  0  0  0  0  0  0
    8.3107  -15.2687   22.3465 C   0  0  0  0  0  0  0  0  0  0  0  0
    9.1075  -16.2303   22.2016 O   0  0  0  0  0  0  0  0  0  0  0  0
    8.3606  -14.2214   21.3902 N   0  0  0  0  0  0  0  0  0  0  0  0
    7.6496  -12.9606   21.3967 C   0  0  0  0  0  0  0  0  0  0  0  0
    7.4759  -12.6183   19.9337 C   0  0  0  0  0  0  0  0  0  0  0  0
    8.5367  -13.3620   19.1829 C   0  0  0  0  0  0  0  0  0  0  0  0
    9.1644  -14.2435   20.1902 C   0  0  1  0  0  0  0  0  0  0  0  0
   10.5596  -13.8010   20.4553 C   0  0  0  0  0  0  0  0  0  0  0  0
   10.8175  -13.2187   21.5346 O   0  0  0  0  0  0  0  0  0  0  0  0
   11.5797  -14.0136   19.5459 O   0  0  0  0  0  0  0  0  0  0  0  0
  2  1  1  1
  3  2  1  0
  4  2  1  0
  4  5  1  6
  6  4  1  0
  7  6  2  0
  8  6  1  0
  9 12  1  0
  9  8  1  0
 10 11  1  0
  9 10  1  1
 12 14  1  0
 13 12  2  0
 14 18  1  0
 14 15  1  0
 15 16  1  0
 17 16  1  0
 18 17  1  0
 19 21  1  0
 18 19  1  1
 20 19  2  0
M  END
$$$$
