FHM.pdb
     RDKit          3D

 30 31  0  0  1  0  0  0  0  0999 V2000
   17.4094  -18.4516    3.2800 N   0  0  0  0  0  0  0  0  0  0  0  0
   17.6431  -18.5782    4.7148 C   0  0  1  0  0  0  0  0  0  0  0  0
   18.1506  -19.8994    5.1083 C   0  0  0  0  0  0  0  0  0  0  0  0
   17.2555  -21.0037    4.7156 C   0  0  0  0  0  0  0  0  0  0  0  0
   16.0193  -21.2068    5.2898 C   0  0  0  0  0  0  0  0  0  0  0  0
   15.1781  -22.2426    4.9460 C   0  0  0  0  0  0  0  0  0  0  0  0
   15.5729  -23.1419    3.9719 C   0  0  0  0  0  0  0  0  0  0  0  0
   16.7979  -22.9736    3.3743 C   0  0  0  0  0  0  0  0  0  0  0  0
   17.6242  -21.9260    3.7380 C   0  0  0  0  0  0  0  0  0  0  0  0
   18.3667  -17.4481    5.2699 C   0  0  0  0  0  0  0  0  0  0  0  0
   19.4386  -17.0167    4.7228 O   0  0  0  0  0  0  0  0  0  0  0  0
   17.9350  -16.7644    6.4278 N   0  0  0  0  0  0  0  0  0  0  0  0
   18.7219  -15.6819    7.0190 C   0  0  1  0  0  0  0  0  0  0  0  0
   17.8966  -14.4825    7.3247 C   0  0  0  0  0  0  0  0  0  0  0  0
   18.7321  -13.2492    7.2242 C   0  0  0  0  0  0  0  0  0  0  0  0
   20.0775  -13.1593    6.8600 C   0  0  0  0  0  0  0  0  0  0  0  0
   20.4571  -11.8698    6.8928 N   0  0  0  0  0  0  0  0  0  0  0  0
   19.4021  -11.1263    7.2657 C   0  0  0  0  0  0  0  0  0  0  0  0
   18.3581  -11.9795    7.4639 N   0  0  0  0  0  0  0  0  0  0  0  0
   19.6731  -16.1045    8.0428 C   0  0  0  0  0  0  0  0  0  0  0  0
   19.6252  -17.2654    8.5117 O   0  0  0  0  0  0  0  0  0  0  0  0
   25.1775  -18.8568    9.3457 C   0  0  0  0  0  0  0  0  0  0  0  0
   23.4999  -19.3616    8.9081 S   0  0  0  0  0  0  0  0  0  0  0  0
   22.3537  -18.0871    9.4601 C   0  0  0  0  0  0  0  0  0  0  0  0
   22.6629  -16.7154    8.9187 C   0  0  0  0  0  0  0  0  0  0  0  0
   21.7154  -15.6652    9.4591 C   0  0  2  0  0  0  0  0  0  0  0  0
   20.6916  -15.2538    8.5638 N   0  0  0  0  0  0  0  0  0  0  0  0
   22.4888  -14.5865   10.0685 C   0  0  0  0  0  0  0  0  0  0  0  0
   22.4317  -13.4296    9.5928 O   0  0  0  0  0  0  0  0  0  0  0  0
   23.2969  -14.8009   11.1719 O   0  0  0  0  0  0  0  0  0  0  0  0
  2  1  1  6
  2  3  1  0
  3  4  1  0
  4  5  2  0
  5  6  1  0
  7  6  2  0
  8  7  1  0
  9  4  1  0
  9  8  2  0
 10 11  2  0
 10  2  1  0
 12 10  1  0
 13 12  1  0
 14 15  1  0
 13 14  1  1
 15 19  1  0
 15 16  2  0
 16 17  1  0
 18 17  1  0
 19 18  2  0
 20 21  2  0
 20 13  1  0
 23 22  1  0
 24 23  1  0
 24 25  1  0
 26 25  1  6
 26 27  1  0
 27 20  1  0
 28 26  1  0
 29 28  2  0
 30 28  1  0
M  END
$$$$
