FHM.pdb
     RDKit          3D

 30 31  0  0  1  0  0  0  0  0999 V2000
   20.9091  -15.8891  -17.7594 N   0  0  0  0  0  0  0  0  0  0  0  0
   19.7682  -15.2846  -18.4393 C   0  0  1  0  0  0  0  0  0  0  0  0
   18.9850  -16.2440  -19.2293 C   0  0  0  0  0  0  0  0  0  0  0  0
   19.7366  -16.8076  -20.3661 C   0  0  0  0  0  0  0  0  0  0  0  0
   20.3357  -18.0481  -20.3272 C   0  0  0  0  0  0  0  0  0  0  0  0
   21.0549  -18.5824  -21.3742 C   0  0  0  0  0  0  0  0  0  0  0  0
   21.1971  -17.8531  -22.5410 C   0  0  0  0  0  0  0  0  0  0  0  0
   20.6139  -16.6122  -22.6202 C   0  0  0  0  0  0  0  0  0  0  0  0
   19.8978  -16.0981  -21.5547 C   0  0  0  0  0  0  0  0  0  0  0  0
   18.9900  -14.4177  -17.5723 C   0  0  0  0  0  0  0  0  0  0  0  0
   18.7324  -14.7496  -16.3649 O   0  0  0  0  0  0  0  0  0  0  0  0
   18.4817  -13.1719  -18.0018 N   0  0  0  0  0  0  0  0  0  0  0  0
   17.6018  -12.3675  -17.1538 C   0  0  1  0  0  0  0  0  0  0  0  0
   17.7857  -10.9072  -17.3700 C   0  0  0  0  0  0  0  0  0  0  0  0
   16.9549  -10.1386  -16.3962 C   0  0  0  0  0  0  0  0  0  0  0  0
   15.7413   -9.4906  -16.6374 C   0  0  0  0  0  0  0  0  0  0  0  0
   15.3164   -8.9142  -15.4993 N   0  0  0  0  0  0  0  0  0  0  0  0
   16.2150   -9.1690  -14.5335 C   0  0  0  0  0  0  0  0  0  0  0  0
   17.2075   -9.9160  -15.0939 N   0  0  0  0  0  0  0  0  0  0  0  0
   16.2273  -12.8515  -17.0639 C   0  0  0  0  0  0  0  0  0  0  0  0
   15.6196  -13.2281  -18.0928 O   0  0  0  0  0  0  0  0  0  0  0  0
   10.4397  -17.0445  -14.3281 C   0  0  0  0  0  0  0  0  0  0  0  0
   12.1553  -16.5588  -14.0428 S   0  0  0  0  0  0  0  0  0  0  0  0
   12.4725  -15.0225  -14.9272 C   0  0  0  0  0  0  0  0  0  0  0  0
   13.9275  -14.6331  -14.9671 C   0  0  0  0  0  0  0  0  0  0  0  0
   14.1477  -13.3374  -15.7190 C   0  0  2  0  0  0  0  0  0  0  0  0
   15.5032  -12.9283  -15.8383 N   0  0  0  0  0  0  0  0  0  0  0  0
   13.2271  -12.3235  -15.2113 C   0  0  0  0  0  0  0  0  0  0  0  0
   13.5855  -11.5604  -14.2855 O   0  0  0  0  0  0  0  0  0  0  0  0
   11.9506  -12.1736  -15.7255 O   0  0  0  0  0  0  0  0  0  0  0  0
  2  1  1  1
  2  3  1  0
  3  4  1  0
  4  5  2  0
  5  6  1  0
  7  6  2  0
  8  7  1  0
  9  4  1  0
  9  8  2  0
 10 11  2  0
 10  2  1  0
 12 10  1  0
 13 12  1  0
 14 15  1  0
 13 14  1  6
 15 19  1  0
 15 16  2  0
 16 17  1  0
 18 17  1  0
 19 18  2  0
 20 21  2  0
 20 13  1  0
 23 22  1  0
 24 23  1  0
 24 25  1  0
 26 25  1  1
 26 27  1  0
 27 20  1  0
 28 26  1  0
 29 28  2  0
 30 28  1  0
M  END
$$$$
