FHM.pdb
     RDKit          3D

 30 31  0  0  1  0  0  0  0  0999 V2000
   28.7757  -21.9510  -12.7045 N   0  0  0  0  0  0  0  0  0  0  0  0
   27.6795  -21.4214  -11.8999 C   0  0  1  0  0  0  0  0  0  0  0  0
   28.0598  -20.2548  -11.0924 C   0  0  0  0  0  0  0  0  0  0  0  0
   29.0157  -20.5814  -10.0179 C   0  0  0  0  0  0  0  0  0  0  0  0
   28.6395  -20.7334   -8.7009 C   0  0  0  0  0  0  0  0  0  0  0  0
   29.5220  -21.0224   -7.6828 C   0  0  0  0  0  0  0  0  0  0  0  0
   30.8659  -21.1744   -7.9731 C   0  0  0  0  0  0  0  0  0  0  0  0
   31.2814  -21.0317   -9.2744 C   0  0  0  0  0  0  0  0  0  0  0  0
   30.3756  -20.7407  -10.2780 C   0  0  0  0  0  0  0  0  0  0  0  0
   26.4467  -21.2757  -12.6535 C   0  0  0  0  0  0  0  0  0  0  0  0
   26.3705  -20.4755  -13.6475 O   0  0  0  0  0  0  0  0  0  0  0  0
   25.2757  -22.0011  -12.3417 N   0  0  0  0  0  0  0  0  0  0  0  0
   24.0761  -21.9186  -13.1753 C   0  0  1  0  0  0  0  0  0  0  0  0
   23.5472  -23.2598  -13.5420 C   0  0  0  0  0  0  0  0  0  0  0  0
   24.3254  -23.8197  -14.6866 C   0  0  0  0  0  0  0  0  0  0  0  0
   25.4076  -23.2346  -15.3478 C   0  0  0  0  0  0  0  0  0  0  0  0
   25.8265  -24.0605  -16.3227 N   0  0  0  0  0  0  0  0  0  0  0  0
   25.0509  -25.1575  -16.3118 C   0  0  0  0  0  0  0  0  0  0  0  0
   24.1412  -24.9974  -15.3099 N   0  0  0  0  0  0  0  0  0  0  0  0
   23.1001  -20.9208  -12.7472 C   0  0  0  0  0  0  0  0  0  0  0  0
   22.8010  -20.8057  -11.5360 O   0  0  0  0  0  0  0  0  0  0  0  0
   20.0287  -18.3975  -18.4789 C   0  0  0  0  0  0  0  0  0  0  0  0
   20.3676  -17.5008  -16.9486 S   0  0  0  0  0  0  0  0  0  0  0  0
   20.7595  -18.6940  -15.6580 C   0  0  0  0  0  0  0  0  0  0  0  0
   21.0969  -18.0654  -14.3309 C   0  0  0  0  0  0  0  0  0  0  0  0
   21.4322  -19.1031  -13.2804 C   0  0  2  0  0  0  0  0  0  0  0  0
   22.4403  -20.0346  -13.6482 N   0  0  0  0  0  0  0  0  0  0  0  0
   20.1953  -19.6853  -12.7664 C   0  0  0  0  0  0  0  0  0  0  0  0
   19.8657  -20.8470  -13.0974 O   0  0  0  0  0  0  0  0  0  0  0  0
   19.3597  -18.9866  -11.9119 O   0  0  0  0  0  0  0  0  0  0  0  0
  2  1  1  6
  2  3  1  0
  3  4  1  0
  4  5  2  0
  5  6  1  0
  7  6  2  0
  8  7  1  0
  9  4  1  0
  9  8  2  0
 10 11  2  0
 10  2  1  0
 12 10  1  0
 13 12  1  0
 14 15  1  0
 13 14  1  1
 15 19  1  0
 15 16  2  0
 16 17  1  0
 18 17  1  0
 19 18  2  0
 20 21  2  0
 20 13  1  0
 23 22  1  0
 24 23  1  0
 24 25  1  0
 26 25  1  6
 26 27  1  0
 27 20  1  0
 28 26  1  0
 29 28  2  0
 30 28  1  0
M  END
$$$$
