FHM.pdb
     RDKit          3D

 30 31  0  0  1  0  0  0  0  0999 V2000
   26.9088  -18.1207   -7.7302 N   0  0  0  0  0  0  0  0  0  0  0  0
   27.0566  -19.5334   -8.0643 C   0  0  1  0  0  0  0  0  0  0  0  0
   26.8439  -20.4286   -6.9192 C   0  0  0  0  0  0  0  0  0  0  0  0
   27.7518  -20.1506   -5.7908 C   0  0  0  0  0  0  0  0  0  0  0  0
   29.1200  -20.2919   -5.8773 C   0  0  0  0  0  0  0  0  0  0  0  0
   29.9806  -20.0519   -4.8283 C   0  0  0  0  0  0  0  0  0  0  0  0
   29.4676  -19.6444   -3.6100 C   0  0  0  0  0  0  0  0  0  0  0  0
   28.1088  -19.4908   -3.4829 C   0  0  0  0  0  0  0  0  0  0  0  0
   27.2662  -19.7388   -4.5511 C   0  0  0  0  0  0  0  0  0  0  0  0
   26.3483  -19.9028   -9.2770 C   0  0  0  0  0  0  0  0  0  0  0  0
   25.2476  -19.3371   -9.5976 O   0  0  0  0  0  0  0  0  0  0  0  0
   26.8268  -20.8913  -10.1650 N   0  0  0  0  0  0  0  0  0  0  0  0
   26.5527  -20.8318  -11.6010 C   0  0  1  0  0  0  0  0  0  0  0  0
   27.6466  -21.4303  -12.4123 C   0  0  0  0  0  0  0  0  0  0  0  0
   27.2782  -21.4107  -13.8590 C   0  0  0  0  0  0  0  0  0  0  0  0
   26.1193  -20.8859  -14.4357 C   0  0  0  0  0  0  0  0  0  0  0  0
   26.1692  -21.0672  -15.7671 N   0  0  0  0  0  0  0  0  0  0  0  0
   27.3207  -21.6909  -16.0675 C   0  0  0  0  0  0  0  0  0  0  0  0
   27.9864  -21.8935  -14.8957 N   0  0  0  0  0  0  0  0  0  0  0  0
   25.1864  -21.1808  -11.9788 C   0  0  0  0  0  0  0  0  0  0  0  0
   24.7261  -22.3157  -11.7144 O   0  0  0  0  0  0  0  0  0  0  0  0
   19.0966  -19.8059  -10.3097 C   0  0  0  0  0  0  0  0  0  0  0  0
   20.7883  -19.6377  -10.9185 S   0  0  0  0  0  0  0  0  0  0  0  0
   20.7417  -19.4925  -12.7128 C   0  0  0  0  0  0  0  0  0  0  0  0
   22.1031  -19.3868  -13.3498 C   0  0  0  0  0  0  0  0  0  0  0  0
   22.9721  -20.5857  -13.0337 C   0  0  2  0  0  0  0  0  0  0  0  0
   24.3073  -20.2835  -12.6529 N   0  0  0  0  0  0  0  0  0  0  0  0
   22.8304  -21.5771  -14.0969 C   0  0  0  0  0  0  0  0  0  0  0  0
   23.5278  -21.4872  -15.1330 O   0  0  0  0  0  0  0  0  0  0  0  0
   21.9374  -22.6302  -13.9987 O   0  0  0  0  0  0  0  0  0  0  0  0
  2  1  1  1
  2  3  1  0
  3  4  1  0
  4  5  2  0
  5  6  1  0
  7  6  2  0
  8  7  1  0
  9  4  1  0
  9  8  2  0
 10 11  2  0
 10  2  1  0
 12 10  1  0
 13 12  1  0
 14 15  1  0
 13 14  1  6
 15 19  1  0
 15 16  2  0
 16 17  1  0
 18 17  1  0
 19 18  2  0
 20 21  2  0
 20 13  1  0
 23 22  1  0
 24 23  1  0
 24 25  1  0
 26 25  1  6
 26 27  1  0
 27 20  1  0
 28 26  1  0
 29 28  2  0
 30 28  1  0
M  END
$$$$
