FHM.pdb
     RDKit          3D

 30 31  0  0  1  0  0  0  0  0999 V2000
   24.1601   -9.9270  -17.6957 N   0  0  0  0  0  0  0  0  0  0  0  0
   24.0789   -9.3771  -16.3465 C   0  0  1  0  0  0  0  0  0  0  0  0
   25.2936   -8.6607  -15.9350 C   0  0  0  0  0  0  0  0  0  0  0  0
   26.5209   -9.4623  -16.0964 C   0  0  0  0  0  0  0  0  0  0  0  0
   26.7404  -10.6417  -15.4180 C   0  0  0  0  0  0  0  0  0  0  0  0
   27.8879  -11.3939  -15.5451 C   0  0  0  0  0  0  0  0  0  0  0  0
   28.8902  -10.9634  -16.3956 C   0  0  0  0  0  0  0  0  0  0  0  0
   28.7097   -9.7929  -17.0910 C   0  0  0  0  0  0  0  0  0  0  0  0
   27.5488   -9.0556  -16.9452 C   0  0  0  0  0  0  0  0  0  0  0  0
   22.8330   -8.6735  -16.0987 C   0  0  0  0  0  0  0  0  0  0  0  0
   22.2799   -7.9681  -17.0101 O   0  0  0  0  0  0  0  0  0  0  0  0
   22.1640   -8.7281  -14.8560 N   0  0  0  0  0  0  0  0  0  0  0  0
   20.9089   -8.0121  -14.6270 C   0  0  1  0  0  0  0  0  0  0  0  0
   20.0244   -8.7138  -13.6583 C   0  0  0  0  0  0  0  0  0  0  0  0
   19.3722   -9.8838  -14.3178 C   0  0  0  0  0  0  0  0  0  0  0  0
   19.5061  -10.2970  -15.6452 C   0  0  0  0  0  0  0  0  0  0  0  0
   18.7538  -11.3938  -15.8428 N   0  0  0  0  0  0  0  0  0  0  0  0
   18.1399  -11.7009  -14.6878 C   0  0  0  0  0  0  0  0  0  0  0  0
   18.5261  -10.7730  -13.7675 N   0  0  0  0  0  0  0  0  0  0  0  0
   21.0483   -6.5680  -14.4644 C   0  0  0  0  0  0  0  0  0  0  0  0
   22.0507   -6.0894  -13.8849 O   0  0  0  0  0  0  0  0  0  0  0  0
   23.2211   -0.0304  -16.8933 C   0  0  0  0  0  0  0  0  0  0  0  0
   23.1805   -1.8348  -16.8375 S   0  0  0  0  0  0  0  0  0  0  0  0
   21.7258   -2.3487  -15.9088 C   0  0  0  0  0  0  0  0  0  0  0  0
   21.5880   -3.8430  -15.7724 C   0  0  0  0  0  0  0  0  0  0  0  0
   20.3056   -4.2325  -15.0679 C   0  0  2  0  0  0  0  0  0  0  0  0
   20.0849   -5.6303  -14.9390 N   0  0  0  0  0  0  0  0  0  0  0  0
   19.1951   -3.4699  -15.6323 C   0  0  0  0  0  0  0  0  0  0  0  0
   18.3030   -4.0555  -16.2873 O   0  0  0  0  0  0  0  0  0  0  0  0
   19.0921   -2.0994  -15.4666 O   0  0  0  0  0  0  0  0  0  0  0  0
  2  1  1  6
  2  3  1  0
  3  4  1  0
  4  5  2  0
  5  6  1  0
  7  6  2  0
  8  7  1  0
  9  4  1  0
  9  8  2  0
 10 11  2  0
 10  2  1  0
 12 10  1  0
 13 12  1  0
 14 15  1  0
 13 14  1  1
 15 19  1  0
 15 16  2  0
 16 17  1  0
 18 17  1  0
 19 18  2  0
 20 21  2  0
 20 13  1  0
 23 22  1  0
 24 23  1  0
 24 25  1  0
 26 25  1  6
 26 27  1  0
 27 20  1  0
 28 26  1  0
 29 28  2  0
 30 28  1  0
M  END
$$$$
