FHM.pdb
     RDKit          3D

 30 31  0  0  1  0  0  0  0  0999 V2000
   29.1114  -25.4205  -17.2733 N   0  0  0  0  0  0  0  0  0  0  0  0
   27.7615  -24.8941  -17.1004 C   0  0  1  0  0  0  0  0  0  0  0  0
   26.7871  -25.9129  -16.6874 C   0  0  0  0  0  0  0  0  0  0  0  0
   26.3664  -26.7933  -17.7933 C   0  0  0  0  0  0  0  0  0  0  0  0
   27.0211  -27.9638  -18.1098 C   0  0  0  0  0  0  0  0  0  0  0  0
   26.6510  -28.7891  -19.1494 C   0  0  0  0  0  0  0  0  0  0  0  0
   25.5641  -28.4463  -19.9334 C   0  0  0  0  0  0  0  0  0  0  0  0
   24.8837  -27.2874  -19.6498 C   0  0  0  0  0  0  0  0  0  0  0  0
   25.2760  -26.4758  -18.6011 C   0  0  0  0  0  0  0  0  0  0  0  0
   27.7310  -23.6626  -16.3314 C   0  0  0  0  0  0  0  0  0  0  0  0
   28.5576  -23.4584  -15.3779 O   0  0  0  0  0  0  0  0  0  0  0  0
   26.8033  -22.6292  -16.5888 N   0  0  0  0  0  0  0  0  0  0  0  0
   26.8308  -21.3694  -15.8454 C   0  0  1  0  0  0  0  0  0  0  0  0
   26.6683  -20.1850  -16.7307 C   0  0  0  0  0  0  0  0  0  0  0  0
   26.5932  -18.9405  -15.9093 C   0  0  0  0  0  0  0  0  0  0  0  0
   27.2997  -18.6475  -14.7406 C   0  0  0  0  0  0  0  0  0  0  0  0
   26.9468  -17.4243  -14.3079 N   0  0  0  0  0  0  0  0  0  0  0  0
   26.0371  -16.9196  -15.1581 C   0  0  0  0  0  0  0  0  0  0  0  0
   25.8315  -17.8537  -16.1288 N   0  0  0  0  0  0  0  0  0  0  0  0
   26.0621  -21.3737  -14.6042 C   0  0  0  0  0  0  0  0  0  0  0  0
   24.8657  -21.7456  -14.6010 O   0  0  0  0  0  0  0  0  0  0  0  0
   25.5190  -19.5238   -6.8879 C   0  0  0  0  0  0  0  0  0  0  0  0
   26.5516  -19.3284   -8.3563 S   0  0  0  0  0  0  0  0  0  0  0  0
   25.7654  -20.1869   -9.7303 C   0  0  0  0  0  0  0  0  0  0  0  0
   26.5983  -20.2160  -10.9856 C   0  0  0  0  0  0  0  0  0  0  0  0
   25.8571  -20.8502  -12.1437 C   0  0  2  0  0  0  0  0  0  0  0  0
   26.6016  -20.9688  -13.3482 N   0  0  0  0  0  0  0  0  0  0  0  0
   24.5436  -20.2251  -12.2751 C   0  0  0  0  0  0  0  0  0  0  0  0
   23.5251  -20.8132  -11.8456 O   0  0  0  0  0  0  0  0  0  0  0  0
   24.3816  -18.9847  -12.8680 O   0  0  0  0  0  0  0  0  0  0  0  0
  2  1  1  1
  2  3  1  0
  3  4  1  0
  4  5  2  0
  5  6  1  0
  7  6  2  0
  8  7  1  0
  9  4  1  0
  9  8  2  0
 10 11  2  0
 10  2  1  0
 12 10  1  0
 13 12  1  0
 14 15  1  0
 13 14  1  6
 15 19  1  0
 15 16  2  0
 16 17  1  0
 18 17  1  0
 19 18  2  0
 20 21  2  0
 20 13  1  0
 23 22  1  0
 24 23  1  0
 24 25  1  0
 26 25  1  1
 26 27  1  0
 27 20  1  0
 28 26  1  0
 29 28  2  0
 30 28  1  0
M  END
$$$$
