FHM.pdb
     RDKit          3D

 30 31  0  0  1  0  0  0  0  0999 V2000
   21.2698  -20.5733  -16.8704 N   0  0  0  0  0  0  0  0  0  0  0  0
   22.2903  -19.7030  -16.2956 C   0  0  1  0  0  0  0  0  0  0  0  0
   21.7918  -18.3624  -15.9607 C   0  0  0  0  0  0  0  0  0  0  0  0
   21.4634  -17.5534  -17.1493 C   0  0  0  0  0  0  0  0  0  0  0  0
   20.1750  -17.3853  -17.6088 C   0  0  0  0  0  0  0  0  0  0  0  0
   19.8528  -16.6465  -18.7264 C   0  0  0  0  0  0  0  0  0  0  0  0
   20.8607  -16.0281  -19.4442 C   0  0  0  0  0  0  0  0  0  0  0  0
   22.1586  -16.1704  -19.0182 C   0  0  0  0  0  0  0  0  0  0  0  0
   22.4558  -16.9181  -17.8935 C   0  0  0  0  0  0  0  0  0  0  0  0
   23.0627  -20.3532  -15.2519 C   0  0  0  0  0  0  0  0  0  0  0  0
   22.4987  -21.0975  -14.3788 O   0  0  0  0  0  0  0  0  0  0  0  0
   24.4634  -20.2089  -15.1418 N   0  0  0  0  0  0  0  0  0  0  0  0
   25.2228  -20.8703  -14.0804 C   0  0  1  0  0  0  0  0  0  0  0  0
   26.3838  -21.6368  -14.6073 C   0  0  0  0  0  0  0  0  0  0  0  0
   25.9050  -22.8239  -15.3761 C   0  0  0  0  0  0  0  0  0  0  0  0
   25.8008  -22.9550  -16.7627 C   0  0  0  0  0  0  0  0  0  0  0  0
   25.3263  -24.1788  -17.0546 N   0  0  0  0  0  0  0  0  0  0  0  0
   25.1213  -24.8401  -15.9032 C   0  0  0  0  0  0  0  0  0  0  0  0
   25.4784  -24.0029  -14.8890 N   0  0  0  0  0  0  0  0  0  0  0  0
   25.4579  -20.0523  -12.8943 C   0  0  0  0  0  0  0  0  0  0  0  0
   25.1393  -18.8406  -12.8869 O   0  0  0  0  0  0  0  0  0  0  0  0
   21.1383  -20.5800   -9.8245 C   0  0  0  0  0  0  0  0  0  0  0  0
   22.0499  -20.2521   -8.3007 S   0  0  0  0  0  0  0  0  0  0  0  0
   23.7786  -19.9652   -8.7153 C   0  0  0  0  0  0  0  0  0  0  0  0
   24.1560  -20.4240  -10.1000 C   0  0  0  0  0  0  0  0  0  0  0  0
   25.6301  -20.2235  -10.3821 C   0  0  2  0  0  0  0  0  0  0  0  0
   26.0467  -20.5585  -11.6986 N   0  0  0  0  0  0  0  0  0  0  0  0
   26.4126  -20.8214   -9.3035 C   0  0  0  0  0  0  0  0  0  0  0  0
   26.7657  -22.0205   -9.3773 O   0  0  0  0  0  0  0  0  0  0  0  0
   26.7839  -20.0979   -8.1833 O   0  0  0  0  0  0  0  0  0  0  0  0
  2  1  1  1
  2  3  1  0
  3  4  1  0
  4  5  2  0
  5  6  1  0
  7  6  2  0
  8  7  1  0
  9  4  1  0
  9  8  2  0
 10 11  2  0
 10  2  1  0
 12 10  1  0
 13 12  1  0
 14 15  1  0
 13 14  1  6
 15 19  1  0
 15 16  2  0
 16 17  1  0
 18 17  1  0
 19 18  2  0
 20 21  2  0
 20 13  1  0
 23 22  1  0
 24 23  1  0
 24 25  1  0
 26 25  1  1
 26 27  1  0
 27 20  1  0
 28 26  1  0
 29 28  2  0
 30 28  1  0
M  END
$$$$
