FHM.pdb
     RDKit          3D

 30 31  0  0  1  0  0  0  0  0999 V2000
   25.0689  -20.1053   -7.7682 N   0  0  0  0  0  0  0  0  0  0  0  0
   26.3285  -20.2765   -8.4848 C   0  0  1  0  0  0  0  0  0  0  0  0
   27.3050  -21.0993   -7.7586 C   0  0  0  0  0  0  0  0  0  0  0  0
   27.7143  -20.5098   -6.4703 C   0  0  0  0  0  0  0  0  0  0  0  0
   27.0701  -20.7825   -5.2829 C   0  0  0  0  0  0  0  0  0  0  0  0
   27.4295  -20.2279   -4.0738 C   0  0  0  0  0  0  0  0  0  0  0  0
   28.4937  -19.3458   -4.0220 C   0  0  0  0  0  0  0  0  0  0  0  0
   29.1630  -19.0484   -5.1839 C   0  0  0  0  0  0  0  0  0  0  0  0
   28.7819  -19.6180   -6.3850 C   0  0  0  0  0  0  0  0  0  0  0  0
   26.1393  -20.6302   -9.8805 C   0  0  0  0  0  0  0  0  0  0  0  0
   24.9961  -20.9964  -10.3202 O   0  0  0  0  0  0  0  0  0  0  0  0
   27.1894  -20.5877  -10.8239 N   0  0  0  0  0  0  0  0  0  0  0  0
   27.0177  -19.9659  -12.1371 C   0  0  1  0  0  0  0  0  0  0  0  0
   28.3083  -19.5153  -12.7241 C   0  0  0  0  0  0  0  0  0  0  0  0
   28.0835  -18.9784  -14.0991 C   0  0  0  0  0  0  0  0  0  0  0  0
   26.8884  -18.9612  -14.8218 C   0  0  0  0  0  0  0  0  0  0  0  0
   27.1070  -18.3919  -16.0202 N   0  0  0  0  0  0  0  0  0  0  0  0
   28.4020  -18.0420  -16.0939 C   0  0  0  0  0  0  0  0  0  0  0  0
   28.9847  -18.4049  -14.9166 N   0  0  0  0  0  0  0  0  0  0  0  0
   26.0968  -20.6636  -13.0296 C   0  0  0  0  0  0  0  0  0  0  0  0
   26.2247  -21.8924  -13.2375 O   0  0  0  0  0  0  0  0  0  0  0  0
   19.1081  -23.1304  -13.1262 C   0  0  0  0  0  0  0  0  0  0  0  0
   20.5590  -22.4214  -12.3182 S   0  0  0  0  0  0  0  0  0  0  0  0
   21.7148  -21.8765  -13.5871 C   0  0  0  0  0  0  0  0  0  0  0  0
   22.9288  -21.1705  -13.0411 C   0  0  0  0  0  0  0  0  0  0  0  0
   23.8322  -20.6601  -14.1438 C   0  0  2  0  0  0  0  0  0  0  0  0
   25.0208  -20.0168  -13.7051 N   0  0  0  0  0  0  0  0  0  0  0  0
   23.0344  -19.9140  -15.1134 C   0  0  0  0  0  0  0  0  0  0  0  0
   22.0567  -20.4612  -15.6725 O   0  0  0  0  0  0  0  0  0  0  0  0
   23.3255  -18.6012  -15.4423 O   0  0  0  0  0  0  0  0  0  0  0  0
  2  1  1  1
  2  3  1  0
  3  4  1  0
  4  5  2  0
  5  6  1  0
  7  6  2  0
  8  7  1  0
  9  4  1  0
  9  8  2  0
 10 11  2  0
 10  2  1  0
 12 10  1  0
 13 12  1  0
 14 15  1  0
 13 14  1  6
 15 19  1  0
 15 16  2  0
 16 17  1  0
 18 17  1  0
 19 18  2  0
 20 21  2  0
 20 13  1  0
 23 22  1  0
 24 23  1  0
 24 25  1  0
 26 25  1  1
 26 27  1  0
 27 20  1  0
 28 26  1  0
 29 28  2  0
 30 28  1  0
M  END
$$$$
