FHM.pdb
     RDKit          3D

 30 31  0  0  1  0  0  0  0  0999 V2000
   24.6320  -19.4336  -18.0214 N   0  0  0  0  0  0  0  0  0  0  0  0
   24.2703  -18.7597  -16.7787 C   0  0  1  0  0  0  0  0  0  0  0  0
   24.0666  -17.3136  -16.9378 C   0  0  0  0  0  0  0  0  0  0  0  0
   25.2281  -16.6277  -17.5338 C   0  0  0  0  0  0  0  0  0  0  0  0
   25.1177  -15.7419  -18.5839 C   0  0  0  0  0  0  0  0  0  0  0  0
   26.1940  -15.1052  -19.1626 C   0  0  0  0  0  0  0  0  0  0  0  0
   27.4669  -15.3511  -18.6803 C   0  0  0  0  0  0  0  0  0  0  0  0
   27.6195  -16.2270  -17.6335 C   0  0  0  0  0  0  0  0  0  0  0  0
   26.5229  -16.8539  -17.0706 C   0  0  0  0  0  0  0  0  0  0  0  0
   23.2269  -19.4533  -16.0445 C   0  0  0  0  0  0  0  0  0  0  0  0
   22.3898  -20.2116  -16.6435 O   0  0  0  0  0  0  0  0  0  0  0  0
   23.0778  -19.3379  -14.6448 N   0  0  0  0  0  0  0  0  0  0  0  0
   22.0646  -20.0999  -13.9146 C   0  0  1  0  0  0  0  0  0  0  0  0
   22.4950  -20.4344  -12.5305 C   0  0  0  0  0  0  0  0  0  0  0  0
   23.6446  -21.3863  -12.5697 C   0  0  0  0  0  0  0  0  0  0  0  0
   24.2204  -21.9803  -13.6951 C   0  0  0  0  0  0  0  0  0  0  0  0
   25.2328  -22.7743  -13.3043 N   0  0  0  0  0  0  0  0  0  0  0  0
   25.3284  -22.7119  -11.9656 C   0  0  0  0  0  0  0  0  0  0  0  0
   24.3552  -21.8625  -11.5316 N   0  0  0  0  0  0  0  0  0  0  0  0
   20.6971  -19.6160  -14.0797 C   0  0  0  0  0  0  0  0  0  0  0  0
   20.4255  -18.4075  -13.8917 O   0  0  0  0  0  0  0  0  0  0  0  0
   16.7141  -17.9838  -18.9818 C   0  0  0  0  0  0  0  0  0  0  0  0
   16.0087  -19.4151  -18.1364 S   0  0  0  0  0  0  0  0  0  0  0  0
   16.5449  -19.3894  -16.4175 C   0  0  0  0  0  0  0  0  0  0  0  0
   17.8911  -20.0271  -16.1909 C   0  0  0  0  0  0  0  0  0  0  0  0
   18.2900  -20.0066  -14.7304 C   0  0  2  0  0  0  0  0  0  0  0  0
   19.6092  -20.4573  -14.4556 N   0  0  0  0  0  0  0  0  0  0  0  0
   17.2346  -20.6273  -13.9340 C   0  0  0  0  0  0  0  0  0  0  0  0
   17.3750  -21.7983  -13.5134 O   0  0  0  0  0  0  0  0  0  0  0  0
   16.0647  -19.9562  -13.6226 O   0  0  0  0  0  0  0  0  0  0  0  0
  2  1  1  6
  2  3  1  0
  3  4  1  0
  4  5  2  0
  5  6  1  0
  7  6  2  0
  8  7  1  0
  9  4  1  0
  9  8  2  0
 10 11  2  0
 10  2  1  0
 12 10  1  0
 13 12  1  0
 14 15  1  0
 13 14  1  1
 15 19  1  0
 15 16  2  0
 16 17  1  0
 18 17  1  0
 19 18  2  0
 20 21  2  0
 20 13  1  0
 23 22  1  0
 24 23  1  0
 24 25  1  0
 26 25  1  6
 26 27  1  0
 27 20  1  0
 28 26  1  0
 29 28  2  0
 30 28  1  0
M  END
$$$$
