FHM.pdb
     RDKit          3D

 30 31  0  0  1  0  0  0  0  0999 V2000
   18.9115  -11.0763  -20.6944 N   0  0  0  0  0  0  0  0  0  0  0  0
   20.0833  -10.4149  -20.1300 C   0  0  1  0  0  0  0  0  0  0  0  0
   21.0208   -9.9215  -21.1476 C   0  0  0  0  0  0  0  0  0  0  0  0
   21.4756  -10.9745  -22.0746 C   0  0  0  0  0  0  0  0  0  0  0  0
   22.3920  -11.9407  -21.7197 C   0  0  0  0  0  0  0  0  0  0  0  0
   22.8393  -12.9214  -22.5782 C   0  0  0  0  0  0  0  0  0  0  0  0
   22.3561  -12.9605  -23.8738 C   0  0  0  0  0  0  0  0  0  0  0  0
   21.4402  -12.0154  -24.2665 C   0  0  0  0  0  0  0  0  0  0  0  0
   21.0078  -11.0409  -23.3857 C   0  0  0  0  0  0  0  0  0  0  0  0
   19.7452   -9.4618  -19.0878 C   0  0  0  0  0  0  0  0  0  0  0  0
   18.8208   -8.5954  -19.2593 O   0  0  0  0  0  0  0  0  0  0  0  0
   20.4037   -9.4367  -17.8387 N   0  0  0  0  0  0  0  0  0  0  0  0
   20.0273   -8.4876  -16.7907 C   0  0  1  0  0  0  0  0  0  0  0  0
   20.1472   -9.0713  -15.4276 C   0  0  0  0  0  0  0  0  0  0  0  0
   19.1053  -10.1222  -15.2291 C   0  0  0  0  0  0  0  0  0  0  0  0
   18.0958  -10.4991  -16.1178 C   0  0  0  0  0  0  0  0  0  0  0  0
   17.3651  -11.4819  -15.5626 N   0  0  0  0  0  0  0  0  0  0  0  0
   17.8696  -11.7507  -14.3468 C   0  0  0  0  0  0  0  0  0  0  0  0
   18.9294  -10.9153  -14.1570 N   0  0  0  0  0  0  0  0  0  0  0  0
   20.5440   -7.1347  -16.9750 C   0  0  0  0  0  0  0  0  0  0  0  0
   21.5761   -6.9381  -17.6576 O   0  0  0  0  0  0  0  0  0  0  0  0
   21.5175   -0.8241  -20.4017 C   0  0  0  0  0  0  0  0  0  0  0  0
   21.1728   -2.5881  -20.2280 S   0  0  0  0  0  0  0  0  0  0  0  0
   20.8746   -2.9470  -18.4887 C   0  0  0  0  0  0  0  0  0  0  0  0
   20.5138   -4.3846  -18.2176 C   0  0  0  0  0  0  0  0  0  0  0  0
   20.2572   -4.6376  -16.7470 C   0  0  2  0  0  0  0  0  0  0  0  0
   19.9299   -5.9787  -16.4104 N   0  0  0  0  0  0  0  0  0  0  0  0
   19.3432   -3.6197  -16.2354 C   0  0  0  0  0  0  0  0  0  0  0  0
   18.2074   -3.9488  -15.8237 O   0  0  0  0  0  0  0  0  0  0  0  0
   19.6935   -2.2812  -16.1888 O   0  0  0  0  0  0  0  0  0  0  0  0
  2  1  1  6
  2  3  1  0
  3  4  1  0
  4  5  2  0
  5  6  1  0
  7  6  2  0
  8  7  1  0
  9  4  1  0
  9  8  2  0
 10 11  2  0
 10  2  1  0
 12 10  1  0
 13 12  1  0
 14 15  1  0
 13 14  1  1
 15 19  1  0
 15 16  2  0
 16 17  1  0
 18 17  1  0
 19 18  2  0
 20 21  2  0
 20 13  1  0
 23 22  1  0
 24 23  1  0
 24 25  1  0
 26 25  1  6
 26 27  1  0
 27 20  1  0
 28 26  1  0
 29 28  2  0
 30 28  1  0
M  END
$$$$
