FTA.pdb
     RDKit          3D

 24 24  0  0  1  0  0  0  0  0999 V2000
   20.5725  -12.5014  -18.2354 N   0  0  0  0  0  0  0  0  0  0  0  0
   19.5775  -12.5971  -17.2118 C   0  0  1  0  0  0  0  0  0  0  0  0
   19.8018  -13.9303  -16.5106 C   0  0  0  0  0  0  0  0  0  0  0  0
   19.5699  -15.0506  -17.4479 C   0  0  0  0  0  0  0  0  0  0  0  0
   18.2434  -15.3149  -17.7916 C   0  0  0  0  0  0  0  0  0  0  0  0
   17.9849  -16.3517  -18.6626 C   0  0  0  0  0  0  0  0  0  0  0  0
   18.9899  -17.1286  -19.1994 C   0  0  0  0  0  0  0  0  0  0  0  0
   20.2987  -16.8760  -18.8670 C   0  0  0  0  0  0  0  0  0  0  0  0
   20.5672  -15.8320  -17.9892 C   0  0  0  0  0  0  0  0  0  0  0  0
   19.7361  -11.5230  -16.2188 C   0  0  0  0  0  0  0  0  0  0  0  0
   19.0101  -11.5751  -15.1718 O   0  0  0  0  0  0  0  0  0  0  0  0
   22.5655  -10.6421  -14.1750 C   0  0  0  0  0  0  0  0  0  0  0  0
   22.1953   -9.3996  -14.9171 C   0  0  1  0  0  0  0  0  0  0  0  0
   23.0040   -9.3113  -16.0854 O   0  0  0  0  0  0  0  0  0  0  0  0
   20.7229   -9.4374  -15.3602 C   0  0  2  0  0  0  0  0  0  0  0  0
   20.6619  -10.4639  -16.4091 N   0  0  0  0  0  0  0  0  0  0  0  0
   20.3066   -8.1427  -15.9060 C   0  0  0  0  0  0  0  0  0  0  0  0
   20.5159   -7.8174  -17.1190 O   0  0  0  0  0  0  0  0  0  0  0  0
   18.1548   -5.2196  -14.8647 C   0  0  0  0  0  0  0  0  0  0  0  0
   19.1717   -5.9133  -15.7426 C   0  0  2  0  0  0  0  0  0  0  0  0
   19.6382   -7.1490  -15.1508 N   0  0  0  0  0  0  0  0  0  0  0  0
   20.2885   -5.0223  -16.1044 C   0  0  0  0  0  0  0  0  0  0  0  0
   21.3824   -5.1008  -15.5007 O   0  0  0  0  0  0  0  0  0  0  0  0
   20.1981   -4.0702  -17.1068 O   0  0  0  0  0  0  0  0  0  0  0  0
  2  1  1  6
  2 10  1  0
  3  2  1  0
  4  3  1  0
  5  4  2  0
  6  5  1  0
  7  6  2  0
  7  8  1  0
  8  9  2  0
  9  4  1  0
 10 11  2  0
 10 16  1  0
 13 14  1  0
 13 12  1  6
 15 13  1  0
 15 16  1  6
 17 21  1  0
 17 15  1  0
 18 17  2  0
 20 19  1  1
 20 22  1  0
 20 21  1  0
 22 24  1  0
 23 22  2  0
M  END
$$$$
