FTA.pdb
     RDKit          3D

 24 24  0  0  1  0  0  0  0  0999 V2000
   24.1190  -12.9114  -15.0646 N   0  0  0  0  0  0  0  0  0  0  0  0
   24.4590  -11.5604  -15.3902 C   0  0  1  0  0  0  0  0  0  0  0  0
   25.0830  -11.5917  -16.7791 C   0  0  0  0  0  0  0  0  0  0  0  0
   26.4183  -12.2256  -16.7296 C   0  0  0  0  0  0  0  0  0  0  0  0
   26.5709  -13.4198  -17.4354 C   0  0  0  0  0  0  0  0  0  0  0  0
   27.8005  -14.0426  -17.4139 C   0  0  0  0  0  0  0  0  0  0  0  0
   28.8748  -13.5248  -16.7214 C   0  0  0  0  0  0  0  0  0  0  0  0
   28.7342  -12.3497  -16.0237 C   0  0  0  0  0  0  0  0  0  0  0  0
   27.4971  -11.7158  -16.0407 C   0  0  0  0  0  0  0  0  0  0  0  0
   23.2582  -10.7118  -15.4448 C   0  0  0  0  0  0  0  0  0  0  0  0
   22.3377  -11.0433  -16.2626 O   0  0  0  0  0  0  0  0  0  0  0  0
   20.6615  -10.6042  -13.3801 C   0  0  0  0  0  0  0  0  0  0  0  0
   21.1055   -9.1779  -13.3928 C   0  0  1  0  0  0  0  0  0  0  0  0
   22.0088   -8.9745  -12.3115 O   0  0  0  0  0  0  0  0  0  0  0  0
   21.8440   -8.8397  -14.6990 C   0  0  2  0  0  0  0  0  0  0  0  0
   23.1191   -9.5649  -14.6200 N   0  0  0  0  0  0  0  0  0  0  0  0
   22.0959   -7.3998  -14.8007 C   0  0  0  0  0  0  0  0  0  0  0  0
   23.2207   -6.8837  -14.5016 O   0  0  0  0  0  0  0  0  0  0  0  0
   20.2866   -4.2949  -16.0128 C   0  0  0  0  0  0  0  0  0  0  0  0
   21.4319   -5.0529  -15.3806 C   0  0  2  0  0  0  0  0  0  0  0  0
   21.1305   -6.4614  -15.2391 N   0  0  0  0  0  0  0  0  0  0  0  0
   21.8543   -4.4512  -14.1034 C   0  0  0  0  0  0  0  0  0  0  0  0
   21.4503   -4.9234  -13.0165 O   0  0  0  0  0  0  0  0  0  0  0  0
   22.7007   -3.3567  -14.0298 O   0  0  0  0  0  0  0  0  0  0  0  0
  2  1  1  6
  2 10  1  0
  3  2  1  0
  4  3  1  0
  5  4  2  0
  6  5  1  0
  7  6  2  0
  7  8  1  0
  8  9  2  0
  9  4  1  0
 10 11  2  0
 10 16  1  0
 13 14  1  0
 13 12  1  6
 15 13  1  0
 15 16  1  1
 17 21  1  0
 17 15  1  0
 18 17  2  0
 20 19  1  1
 20 22  1  0
 20 21  1  0
 22 24  1  0
 23 22  2  0
M  END
$$$$
