FTA.pdb
     RDKit          3D

 24 24  0  0  1  0  0  0  0  0999 V2000
   18.9236  -11.7956  -18.6852 N   0  0  0  0  0  0  0  0  0  0  0  0
   18.9859  -11.1221  -17.4246 C   0  0  1  0  0  0  0  0  0  0  0  0
   19.8705  -11.9711  -16.5211 C   0  0  0  0  0  0  0  0  0  0  0  0
   19.2040  -13.2530  -16.2050 C   0  0  0  0  0  0  0  0  0  0  0  0
   18.2859  -13.2387  -15.1541 C   0  0  0  0  0  0  0  0  0  0  0  0
   17.6434  -14.4138  -14.8276 C   0  0  0  0  0  0  0  0  0  0  0  0
   17.8792  -15.5927  -15.5031 C   0  0  0  0  0  0  0  0  0  0  0  0
   18.7813  -15.6165  -16.5390 C   0  0  0  0  0  0  0  0  0  0  0  0
   19.4332  -14.4353  -16.8741 C   0  0  0  0  0  0  0  0  0  0  0  0
   19.6092   -9.7965  -17.5639 C   0  0  0  0  0  0  0  0  0  0  0  0
   20.5394   -9.6692  -18.4267 O   0  0  0  0  0  0  0  0  0  0  0  0
   18.1310   -6.8560  -18.8198 C   0  0  0  0  0  0  0  0  0  0  0  0
   18.6675   -6.4720  -17.4796 C   0  0  1  0  0  0  0  0  0  0  0  0
   17.6260   -6.6072  -16.5185 O   0  0  0  0  0  0  0  0  0  0  0  0
   19.8235   -7.3961  -17.0607 C   0  0  2  0  0  0  0  0  0  0  0  0
   19.1959   -8.6927  -16.7727 N   0  0  0  0  0  0  0  0  0  0  0  0
   20.4909   -6.8885  -15.8589 C   0  0  0  0  0  0  0  0  0  0  0  0
   20.0600   -7.1352  -14.6865 O   0  0  0  0  0  0  0  0  0  0  0  0
   23.6111   -4.9343  -14.9572 C   0  0  0  0  0  0  0  0  0  0  0  0
   22.2664   -5.5679  -14.6805 C   0  0  2  0  0  0  0  0  0  0  0  0
   21.6619   -6.0932  -15.8861 N   0  0  0  0  0  0  0  0  0  0  0  0
   21.3600   -4.6507  -13.9671 C   0  0  0  0  0  0  0  0  0  0  0  0
   20.5725   -3.9153  -14.6047 O   0  0  0  0  0  0  0  0  0  0  0  0
   21.3252   -4.5492  -12.5857 O   0  0  0  0  0  0  0  0  0  0  0  0
  2  1  1  6
  2 10  1  0
  3  2  1  0
  4  3  1  0
  5  4  2  0
  6  5  1  0
  7  6  2  0
  7  8  1  0
  8  9  2  0
  9  4  1  0
 10 11  2  0
 10 16  1  0
 13 14  1  0
 13 12  1  6
 15 13  1  0
 15 16  1  1
 17 21  1  0
 17 15  1  0
 18 17  2  0
 20 19  1  6
 20 22  1  0
 20 21  1  0
 22 24  1  0
 23 22  2  0
M  END
$$$$
