FTA.pdb
     RDKit          3D

 24 24  0  0  1  0  0  0  0  0999 V2000
   13.3427  -21.7892   -8.1264 N   0  0  0  0  0  0  0  0  0  0  0  0
   13.1323  -22.7145   -7.0558 C   0  0  1  0  0  0  0  0  0  0  0  0
   14.1328  -23.8453   -7.2553 C   0  0  0  0  0  0  0  0  0  0  0  0
   13.7130  -24.7124   -8.3774 C   0  0  0  0  0  0  0  0  0  0  0  0
   12.6926  -25.6273   -8.1138 C   0  0  0  0  0  0  0  0  0  0  0  0
   12.2728  -26.4544   -9.1336 C   0  0  0  0  0  0  0  0  0  0  0  0
   12.8266  -26.4047  -10.3955 C   0  0  0  0  0  0  0  0  0  0  0  0
   13.8315  -25.5073  -10.6645 C   0  0  0  0  0  0  0  0  0  0  0  0
   14.2602  -24.6699   -9.6411 C   0  0  0  0  0  0  0  0  0  0  0  0
   13.4028  -22.0859   -5.7533 C   0  0  0  0  0  0  0  0  0  0  0  0
   14.3048  -21.1856   -5.7082 O   0  0  0  0  0  0  0  0  0  0  0  0
   11.2394  -20.0706   -3.7852 C   0  0  0  0  0  0  0  0  0  0  0  0
   11.7140  -21.1352   -2.8508 C   0  0  1  0  0  0  0  0  0  0  0  0
   10.7345  -22.1672   -2.8040 O   0  0  0  0  0  0  0  0  0  0  0  0
   13.0336  -21.7545   -3.3419 C   0  0  2  0  0  0  0  0  0  0  0  0
   12.6901  -22.4597   -4.5839 N   0  0  0  0  0  0  0  0  0  0  0  0
   13.5636  -22.7047   -2.3603 C   0  0  0  0  0  0  0  0  0  0  0  0
   13.3357  -23.9553   -2.4331 O   0  0  0  0  0  0  0  0  0  0  0  0
   16.0561  -22.8286    0.4484 C   0  0  0  0  0  0  0  0  0  0  0  0
   14.7969  -23.2817   -0.2553 C   0  0  2  0  0  0  0  0  0  0  0  0
   14.3705  -22.3300   -1.2590 N   0  0  0  0  0  0  0  0  0  0  0  0
   13.7161  -23.5978    0.6954 C   0  0  0  0  0  0  0  0  0  0  0  0
   12.8266  -22.7533    0.9465 O   0  0  0  0  0  0  0  0  0  0  0  0
   13.6213  -24.8148    1.3507 O   0  0  0  0  0  0  0  0  0  0  0  0
  2  1  1  6
  2 10  1  0
  3  2  1  0
  4  3  1  0
  5  4  2  0
  6  5  1  0
  7  6  2  0
  7  8  1  0
  8  9  2  0
  9  4  1  0
 10 11  2  0
 10 16  1  0
 13 14  1  0
 13 12  1  6
 15 13  1  0
 15 16  1  6
 17 21  1  0
 17 15  1  0
 18 17  2  0
 20 19  1  1
 20 22  1  0
 20 21  1  0
 22 24  1  0
 23 22  2  0
M  END
$$$$
