FTA.pdb
     RDKit          3D

 24 24  0  0  1  0  0  0  0  0999 V2000
   23.9756  -14.5354  -18.6889 N   0  0  0  0  0  0  0  0  0  0  0  0
   23.8168  -13.5457  -17.6681 C   0  0  1  0  0  0  0  0  0  0  0  0
   25.2186  -13.1059  -17.2669 C   0  0  0  0  0  0  0  0  0  0  0  0
   25.9704  -14.2426  -16.6925 C   0  0  0  0  0  0  0  0  0  0  0  0
   25.6953  -14.5673  -15.3633 C   0  0  0  0  0  0  0  0  0  0  0  0
   26.3756  -15.6206  -14.7905 C   0  0  0  0  0  0  0  0  0  0  0  0
   27.3117  -16.3563  -15.4862 C   0  0  0  0  0  0  0  0  0  0  0  0
   27.5892  -16.0442  -16.7950 C   0  0  0  0  0  0  0  0  0  0  0  0
   26.9071  -14.9833  -17.3795 C   0  0  0  0  0  0  0  0  0  0  0  0
   23.0949  -12.3701  -18.1798 C   0  0  0  0  0  0  0  0  0  0  0  0
   23.3758  -11.9714  -19.3580 O   0  0  0  0  0  0  0  0  0  0  0  0
   19.7644  -12.0140  -19.1532 C   0  0  0  0  0  0  0  0  0  0  0  0
   19.9643  -10.9552  -18.1185 C   0  0  1  0  0  0  0  0  0  0  0  0
   19.5656  -11.4751  -16.8547 O   0  0  0  0  0  0  0  0  0  0  0  0
   21.4448  -10.5500  -18.0201 C   0  0  2  0  0  0  0  0  0  0  0  0
   22.1184  -11.6981  -17.3987 N   0  0  0  0  0  0  0  0  0  0  0  0
   21.6080   -9.3619  -17.1781 C   0  0  0  0  0  0  0  0  0  0  0  0
   21.7786   -9.4394  -15.9187 O   0  0  0  0  0  0  0  0  0  0  0  0
   21.9166   -5.6089  -17.5888 C   0  0  0  0  0  0  0  0  0  0  0  0
   21.6946   -6.8840  -16.8072 C   0  0  2  0  0  0  0  0  0  0  0  0
   21.5972   -8.0368  -17.6768 N   0  0  0  0  0  0  0  0  0  0  0  0
   20.5376   -6.7816  -15.9001 C   0  0  0  0  0  0  0  0  0  0  0  0
   19.4406   -7.2981  -16.2121 O   0  0  0  0  0  0  0  0  0  0  0  0
   20.5920   -6.1257  -14.6809 O   0  0  0  0  0  0  0  0  0  0  0  0
  2  1  1  6
  2 10  1  0
  3  2  1  0
  4  3  1  0
  5  4  2  0
  6  5  1  0
  7  6  2  0
  7  8  1  0
  8  9  2  0
  9  4  1  0
 10 11  2  0
 10 16  1  0
 13 14  1  0
 13 12  1  6
 15 13  1  0
 15 16  1  1
 17 21  1  0
 17 15  1  0
 18 17  2  0
 20 19  1  6
 20 22  1  0
 20 21  1  0
 22 24  1  0
 23 22  2  0
M  END
$$$$
