FTA.pdb
     RDKit          3D

 24 24  0  0  1  0  0  0  0  0999 V2000
   18.6481  -12.5520  -16.5099 N   0  0  0  0  0  0  0  0  0  0  0  0
   19.0070  -11.2773  -17.0511 C   0  0  1  0  0  0  0  0  0  0  0  0
   17.9619  -10.9433  -18.1073 C   0  0  0  0  0  0  0  0  0  0  0  0
   18.0922  -11.8526  -19.2664 C   0  0  0  0  0  0  0  0  0  0  0  0
   16.9106  -12.3989  -19.7693 C   0  0  0  0  0  0  0  0  0  0  0  0
   16.9894  -13.2521  -20.8493 C   0  0  0  0  0  0  0  0  0  0  0  0
   18.1909  -13.5787  -21.4419 C   0  0  0  0  0  0  0  0  0  0  0  0
   19.3593  -13.0459  -20.9537 C   0  0  0  0  0  0  0  0  0  0  0  0
   19.2879  -12.1847  -19.8649 C   0  0  0  0  0  0  0  0  0  0  0  0
   18.9643  -10.2327  -16.0157 C   0  0  0  0  0  0  0  0  0  0  0  0
   18.1578  -10.3990  -15.0422 O   0  0  0  0  0  0  0  0  0  0  0  0
   21.2972   -9.1714  -13.6120 C   0  0  0  0  0  0  0  0  0  0  0  0
   20.9493   -7.9202  -14.3501 C   0  0  1  0  0  0  0  0  0  0  0  0
   21.9400   -7.6910  -15.3464 O   0  0  0  0  0  0  0  0  0  0  0  0
   19.5887   -8.0536  -15.0550 C   0  0  2  0  0  0  0  0  0  0  0  0
   19.7882   -9.0789  -16.0879 N   0  0  0  0  0  0  0  0  0  0  0  0
   19.1958   -6.7877  -15.6797 C   0  0  0  0  0  0  0  0  0  0  0  0
   19.6626   -6.4101  -16.8026 O   0  0  0  0  0  0  0  0  0  0  0  0
   16.3722   -4.3964  -15.5462 C   0  0  0  0  0  0  0  0  0  0  0  0
   17.8353   -4.6851  -15.7952 C   0  0  2  0  0  0  0  0  0  0  0  0
   18.2714   -5.8813  -15.1067 N   0  0  0  0  0  0  0  0  0  0  0  0
   18.6889   -3.5268  -15.4767 C   0  0  0  0  0  0  0  0  0  0  0  0
   18.5256   -2.4372  -16.0713 O   0  0  0  0  0  0  0  0  0  0  0  0
   19.6961   -3.5720  -14.5263 O   0  0  0  0  0  0  0  0  0  0  0  0
  2  1  1  1
  2 10  1  0
  3  2  1  0
  4  3  1  0
  5  4  2  0
  6  5  1  0
  7  6  2  0
  7  8  1  0
  8  9  2  0
  9  4  1  0
 10 11  2  0
 10 16  1  0
 13 14  1  0
 13 12  1  6
 15 13  1  0
 15 16  1  6
 17 21  1  0
 17 15  1  0
 18 17  2  0
 20 19  1  1
 20 22  1  0
 20 21  1  0
 22 24  1  0
 23 22  2  0
M  END
$$$$
