FTA.pdb
     RDKit          3D

 24 24  0  0  1  0  0  0  0  0999 V2000
   19.9210  -12.6853  -17.5328 N   0  0  0  0  0  0  0  0  0  0  0  0
   19.9604  -11.3049  -17.9062 C   0  0  1  0  0  0  0  0  0  0  0  0
   18.8218  -11.0890  -18.8944 C   0  0  0  0  0  0  0  0  0  0  0  0
   19.1688  -11.6616  -20.2131 C   0  0  0  0  0  0  0  0  0  0  0  0
   18.4114  -12.7530  -20.6406 C   0  0  0  0  0  0  0  0  0  0  0  0
   18.7039  -13.3161  -21.8644 C   0  0  0  0  0  0  0  0  0  0  0  0
   19.7141  -12.8368  -22.6715 C   0  0  0  0  0  0  0  0  0  0  0  0
   20.4650  -11.7629  -22.2592 C   0  0  0  0  0  0  0  0  0  0  0  0
   20.1760  -11.1896  -21.0261 C   0  0  0  0  0  0  0  0  0  0  0  0
   19.7294  -10.4357  -16.7417 C   0  0  0  0  0  0  0  0  0  0  0  0
   18.8831  -10.8266  -15.8718 O   0  0  0  0  0  0  0  0  0  0  0  0
   21.7089   -9.5610  -13.9482 C   0  0  0  0  0  0  0  0  0  0  0  0
   21.3554   -8.2622  -14.5960 C   0  0  1  0  0  0  0  0  0  0  0  0
   22.4058   -7.8983  -15.4852 O   0  0  0  0  0  0  0  0  0  0  0  0
   20.0603   -8.3874  -15.4165 C   0  0  2  0  0  0  0  0  0  0  0  0
   20.4198   -9.2056  -16.5824 N   0  0  0  0  0  0  0  0  0  0  0  0
   19.5905   -7.0715  -15.8579 C   0  0  0  0  0  0  0  0  0  0  0  0
   19.9658   -6.5490  -16.9566 O   0  0  0  0  0  0  0  0  0  0  0  0
   17.0009   -4.5110  -14.8566 C   0  0  0  0  0  0  0  0  0  0  0  0
   18.2377   -4.9777  -15.5904 C   0  0  2  0  0  0  0  0  0  0  0  0
   18.6853   -6.2711  -15.1197 N   0  0  0  0  0  0  0  0  0  0  0  0
   19.3168   -3.9749  -15.5476 C   0  0  0  0  0  0  0  0  0  0  0  0
   20.2716   -4.1056  -14.7485 O   0  0  0  0  0  0  0  0  0  0  0  0
   19.3394   -2.8575  -16.3664 O   0  0  0  0  0  0  0  0  0  0  0  0
  2  1  1  1
  2 10  1  0
  3  2  1  0
  4  3  1  0
  5  4  2  0
  6  5  1  0
  7  6  2  0
  7  8  1  0
  8  9  2  0
  9  4  1  0
 10 11  2  0
 10 16  1  0
 13 14  1  0
 13 12  1  6
 15 13  1  0
 15 16  1  6
 17 21  1  0
 17 15  1  0
 18 17  2  0
 20 19  1  1
 20 22  1  0
 20 21  1  0
 22 24  1  0
 23 22  2  0
M  END
$$$$
