FTA.pdb
     RDKit          3D

 24 24  0  0  1  0  0  0  0  0999 V2000
   28.3482  -21.2263   -8.9608 N   0  0  0  0  0  0  0  0  0  0  0  0
   26.9675  -20.8654   -8.8603 C   0  0  1  0  0  0  0  0  0  0  0  0
   26.9100  -19.5946   -8.0230 C   0  0  0  0  0  0  0  0  0  0  0  0
   27.4703  -19.8393   -6.6763 C   0  0  0  0  0  0  0  0  0  0  0  0
   28.5899  -19.0870   -6.3180 C   0  0  0  0  0  0  0  0  0  0  0  0
   29.1427  -19.2859   -5.0709 C   0  0  0  0  0  0  0  0  0  0  0  0
   28.6265  -20.1983   -4.1750 C   0  0  0  0  0  0  0  0  0  0  0  0
   27.5247  -20.9435   -4.5189 C   0  0  0  0  0  0  0  0  0  0  0  0
   26.9616  -20.7485   -5.7748 C   0  0  0  0  0  0  0  0  0  0  0  0
   26.4011  -20.5688  -10.1855 C   0  0  0  0  0  0  0  0  0  0  0  0
   27.1640  -20.0128  -11.0427 O   0  0  0  0  0  0  0  0  0  0  0  0
   26.9203  -21.2246  -12.5820 C   0  0  0  0  0  0  0  0  0  0  0  0
   25.4628  -21.4796  -12.7875 C   0  0  1  0  0  0  0  0  0  0  0  0
   25.1881  -22.8357  -12.4526 O   0  0  0  0  0  0  0  0  0  0  0  0
   24.6099  -20.5826  -11.8744 C   0  0  2  0  0  0  0  0  0  0  0  0
   25.0559  -20.8874  -10.5084 N   0  0  0  0  0  0  0  0  0  0  0  0
   23.1853  -20.8963  -12.0143 C   0  0  0  0  0  0  0  0  0  0  0  0
   22.5148  -21.4432  -11.0804 O   0  0  0  0  0  0  0  0  0  0  0  0
   20.7111  -22.3592  -13.0117 C   0  0  0  0  0  0  0  0  0  0  0  0
   21.0122  -20.8992  -13.2645 C   0  0  2  0  0  0  0  0  0  0  0  0
   22.4300  -20.6209  -13.1798 N   0  0  0  0  0  0  0  0  0  0  0  0
   20.2258  -20.0132  -12.3879 C   0  0  0  0  0  0  0  0  0  0  0  0
   20.8007  -19.1948  -11.6347 O   0  0  0  0  0  0  0  0  0  0  0  0
   18.8411  -20.0315  -12.3452 O   0  0  0  0  0  0  0  0  0  0  0  0
  2  1  1  6
  2 10  1  0
  3  2  1  0
  4  3  1  0
  5  4  2  0
  6  5  1  0
  7  6  2  0
  7  8  1  0
  8  9  2  0
  9  4  1  0
 10 11  2  0
 10 16  1  0
 13 14  1  0
 13 12  1  1
 15 13  1  0
 15 16  1  1
 17 21  1  0
 17 15  1  0
 18 17  2  0
 20 19  1  1
 20 22  1  0
 20 21  1  0
 22 24  1  0
 23 22  2  0
M  END
$$$$
