CPA.pdb
     RDKit          3D

 19 19  0  0  1  0  0  0  0  0999 V2000
   24.3384  -12.5452  -18.4827 N   0  0  0  0  0  0  0  0  0  0  0  0
   24.0939  -11.9739  -17.1831 C   0  0  1  0  0  0  0  0  0  0  0  0
   25.4523  -11.6536  -16.5396 C   0  0  0  0  0  0  0  0  0  0  0  0
   26.2163  -13.1869  -15.9617 S   0  0  0  0  0  0  0  0  0  0  0  0
   23.2417  -10.7631  -17.2045 C   0  0  0  0  0  0  0  0  0  0  0  0
   23.5379   -9.8651  -18.0502 O   0  0  0  0  0  0  0  0  0  0  0  0
   22.1276  -10.5285  -16.3606 N   0  0  0  0  0  0  0  0  0  0  0  0
   21.6475  -11.4785  -15.3592 C   0  0  0  0  0  0  0  0  0  0  0  0
   20.2433  -11.0996  -15.0276 C   0  0  0  0  0  0  0  0  0  0  0  0
   20.0249   -9.7361  -15.5938 C   0  0  0  0  0  0  0  0  0  0  0  0
   21.2933   -9.3431  -16.3430 C   0  0  1  0  0  0  0  0  0  0  0  0
   21.9959   -8.2565  -15.6329 C   0  0  0  0  0  0  0  0  0  0  0  0
   22.7604   -8.5428  -14.6861 O   0  0  0  0  0  0  0  0  0  0  0  0
   22.8052   -4.6461  -16.1104 C   0  0  0  0  0  0  0  0  0  0  0  0
   22.6467   -5.8832  -15.2537 C   0  0  2  0  0  0  0  0  0  0  0  0
   21.8549   -6.8863  -15.9639 N   0  0  0  0  0  0  0  0  0  0  0  0
   21.9258   -5.4705  -13.9960 C   0  0  0  0  0  0  0  0  0  0  0  0
   22.4859   -4.7429  -13.1389 O   0  0  0  0  0  0  0  0  0  0  0  0
   20.6235   -5.8710  -13.7292 O   0  0  0  0  0  0  0  0  0  0  0  0
  2  1  1  6
  3  4  1  0
  3  2  1  0
  5  2  1  0
  5  6  2  0
  7  5  1  0
  8  7  1  0
  9 10  1  0
  9  8  1  0
 10 11  1  0
 11  7  1  0
 11 12  1  1
 13 12  2  0
 15 14  1  6
 15 16  1  0
 15 17  1  0
 16 12  1  0
 17 18  2  0
 17 19  1  0
M  END
$$$$
