CPA.pdb
     RDKit          3D

 19 19  0  0  1  0  0  0  0  0999 V2000
   16.2032  -20.0840    2.8793 N   0  0  0  0  0  0  0  0  0  0  0  0
   17.5205  -19.9837    3.4533 C   0  0  1  0  0  0  0  0  0  0  0  0
   17.9629  -18.5137    3.3782 C   0  0  0  0  0  0  0  0  0  0  0  0
   19.7653  -18.4256    3.4872 S   0  0  0  0  0  0  0  0  0  0  0  0
   17.6125  -20.4733    4.8478 C   0  0  0  0  0  0  0  0  0  0  0  0
   16.6286  -20.2282    5.6102 O   0  0  0  0  0  0  0  0  0  0  0  0
   18.7054  -21.1898    5.3958 N   0  0  0  0  0  0  0  0  0  0  0  0
   19.8593  -21.6385    4.6192 C   0  0  0  0  0  0  0  0  0  0  0  0
   20.5275  -22.7174    5.4033 C   0  0  0  0  0  0  0  0  0  0  0  0
   19.9510  -22.6638    6.7789 C   0  0  0  0  0  0  0  0  0  0  0  0
   18.8663  -21.5924    6.7791 C   0  0  1  0  0  0  0  0  0  0  0  0
   19.2897  -20.4302    7.5846 C   0  0  0  0  0  0  0  0  0  0  0  0
   20.0326  -19.5686    7.0663 O   0  0  0  0  0  0  0  0  0  0  0  0
   18.3172  -18.6026   10.6525 C   0  0  0  0  0  0  0  0  0  0  0  0
   19.3622  -19.0419    9.6503 C   0  0  2  0  0  0  0  0  0  0  0  0
   18.8993  -20.2278    8.9313 N   0  0  0  0  0  0  0  0  0  0  0  0
   20.6131  -19.3767   10.4216 C   0  0  0  0  0  0  0  0  0  0  0  0
   21.0031  -20.5652   10.5365 O   0  0  0  0  0  0  0  0  0  0  0  0
   21.3840  -18.3979   11.0342 O   0  0  0  0  0  0  0  0  0  0  0  0
  2  1  1  1
  3  4  1  0
  3  2  1  0
  5  2  1  0
  5  6  2  0
  7  5  1  0
  8  7  1  0
  9 10  1  0
  9  8  1  0
 10 11  1  0
 11  7  1  0
 11 12  1  1
 13 12  2  0
 15 14  1  1
 15 16  1  0
 15 17  1  0
 16 12  1  0
 17 18  2  0
 17 19  1  0
M  END
$$$$
