CPA.pdb
     RDKit          3D

 19 19  0  0  1  0  0  0  0  0999 V2000
   14.6848  -12.9852  -10.8404 N   0  0  0  0  0  0  0  0  0  0  0  0
   14.6682  -11.7183  -11.5258 C   0  0  1  0  0  0  0  0  0  0  0  0
   13.2073  -11.2533  -11.6335 C   0  0  0  0  0  0  0  0  0  0  0  0
   12.3305  -12.3057  -12.8134 S   0  0  0  0  0  0  0  0  0  0  0  0
   15.4909  -10.6698  -10.8804 C   0  0  0  0  0  0  0  0  0  0  0  0
   15.5778  -10.7034   -9.6152 O   0  0  0  0  0  0  0  0  0  0  0  0
   16.1852   -9.6375  -11.5591 N   0  0  0  0  0  0  0  0  0  0  0  0
   16.2237   -9.4987  -13.0134 C   0  0  0  0  0  0  0  0  0  0  0  0
   17.3876   -8.6261  -13.3437 C   0  0  0  0  0  0  0  0  0  0  0  0
   17.8238   -7.9950  -12.0635 C   0  0  0  0  0  0  0  0  0  0  0  0
   16.9562   -8.5716  -10.9502 C   0  0  1  0  0  0  0  0  0  0  0  0
   16.0410   -7.5404  -10.4232 C   0  0  0  0  0  0  0  0  0  0  0  0
   15.0615   -7.1855  -11.1142 O   0  0  0  0  0  0  0  0  0  0  0  0
   15.2642   -5.8684   -7.1735 C   0  0  0  0  0  0  0  0  0  0  0  0
   15.2018   -5.9709   -8.6818 C   0  0  2  0  0  0  0  0  0  0  0  0
   16.2072   -6.9178   -9.1616 N   0  0  0  0  0  0  0  0  0  0  0  0
   15.4937   -4.6011   -9.2387 C   0  0  0  0  0  0  0  0  0  0  0  0
   14.7016   -3.6445   -9.0507 O   0  0  0  0  0  0  0  0  0  0  0  0
   16.6391   -4.3357   -9.9770 O   0  0  0  0  0  0  0  0  0  0  0  0
  2  1  1  1
  3  4  1  0
  3  2  1  0
  5  2  1  0
  5  6  2  0
  7  5  1  0
  8  7  1  0
  9 10  1  0
  9  8  1  0
 10 11  1  0
 11  7  1  0
 11 12  1  6
 13 12  2  0
 15 14  1  1
 15 16  1  0
 15 17  1  0
 16 12  1  0
 17 18  2  0
 17 19  1  0
M  END
$$$$
