CPA.pdb
     RDKit          3D

 19 19  0  0  1  0  0  0  0  0999 V2000
   28.6741  -21.2807  -15.6919 N   0  0  0  0  0  0  0  0  0  0  0  0
   27.9474  -20.4390  -14.7762 C   0  0  1  0  0  0  0  0  0  0  0  0
   27.8557  -19.0332  -15.3907 C   0  0  0  0  0  0  0  0  0  0  0  0
   27.0542  -17.9180  -14.2150 S   0  0  0  0  0  0  0  0  0  0  0  0
   26.5943  -20.9374  -14.4393 C   0  0  0  0  0  0  0  0  0  0  0  0
   25.9230  -21.4616  -15.3794 O   0  0  0  0  0  0  0  0  0  0  0  0
   25.9927  -20.8762  -13.1576 N   0  0  0  0  0  0  0  0  0  0  0  0
   26.5739  -20.1737  -12.0155 C   0  0  0  0  0  0  0  0  0  0  0  0
   25.9241  -20.7144  -10.7864 C   0  0  0  0  0  0  0  0  0  0  0  0
   24.7351  -21.4937  -11.2408 C   0  0  0  0  0  0  0  0  0  0  0  0
   24.7351  -21.4812  -12.7653 C   0  0  1  0  0  0  0  0  0  0  0  0
   23.6155  -20.6649  -13.2742 C   0  0  0  0  0  0  0  0  0  0  0  0
   23.7285  -19.4200  -13.2911 O   0  0  0  0  0  0  0  0  0  0  0  0
   20.9730  -20.7698  -15.6779 C   0  0  0  0  0  0  0  0  0  0  0  0
   21.3640  -20.3310  -14.2837 C   0  0  2  0  0  0  0  0  0  0  0  0
   22.4007  -21.2147  -13.7527 N   0  0  0  0  0  0  0  0  0  0  0  0
   20.1321  -20.4241  -13.4203 C   0  0  0  0  0  0  0  0  0  0  0  0
   20.0337  -21.3012  -12.5265 O   0  0  0  0  0  0  0  0  0  0  0  0
   19.0605  -19.5543  -13.5710 O   0  0  0  0  0  0  0  0  0  0  0  0
  2  1  1  6
  3  4  1  0
  3  2  1  0
  5  2  1  0
  5  6  2  0
  7  5  1  0
  8  7  1  0
  9 10  1  0
  9  8  1  0
 10 11  1  0
 11  7  1  0
 11 12  1  1
 13 12  2  0
 15 14  1  6
 15 16  1  0
 15 17  1  0
 16 12  1  0
 17 18  2  0
 17 19  1  0
M  END
$$$$
