CPA.pdb
     RDKit          3D

 19 19  0  0  1  0  0  0  0  0999 V2000
   24.5178  -15.1815  -17.9837 N   0  0  0  0  0  0  0  0  0  0  0  0
   24.7762  -13.8236  -18.3889 C   0  0  1  0  0  0  0  0  0  0  0  0
   24.0184  -13.5649  -19.7008 C   0  0  0  0  0  0  0  0  0  0  0  0
   24.4195  -11.9093  -20.3063 S   0  0  0  0  0  0  0  0  0  0  0  0
   24.4048  -12.8085  -17.3768 C   0  0  0  0  0  0  0  0  0  0  0  0
   23.2788  -12.9464  -16.8090 O   0  0  0  0  0  0  0  0  0  0  0  0
   25.2023  -11.7014  -16.9937 N   0  0  0  0  0  0  0  0  0  0  0  0
   26.4960  -11.3807  -17.5930 C   0  0  0  0  0  0  0  0  0  0  0  0
   27.2109  -10.4776  -16.6451 C   0  0  0  0  0  0  0  0  0  0  0  0
   26.1977  -10.0144  -15.6519 C   0  0  0  0  0  0  0  0  0  0  0  0
   24.8864  -10.7235  -15.9713 C   0  0  1  0  0  0  0  0  0  0  0  0
   23.8959   -9.7636  -16.4968 C   0  0  0  0  0  0  0  0  0  0  0  0
   23.9193   -9.4684  -17.7113 O   0  0  0  0  0  0  0  0  0  0  0  0
   20.5802   -8.4201  -15.5644 C   0  0  0  0  0  0  0  0  0  0  0  0
   21.8843   -8.3064  -16.3233 C   0  0  2  0  0  0  0  0  0  0  0  0
   22.9037   -9.1460  -15.6960 N   0  0  0  0  0  0  0  0  0  0  0  0
   22.3147   -6.8631  -16.2650 C   0  0  0  0  0  0  0  0  0  0  0  0
   23.3401   -6.5195  -15.6260 O   0  0  0  0  0  0  0  0  0  0  0  0
   21.6057   -5.8573  -16.9079 O   0  0  0  0  0  0  0  0  0  0  0  0
  2  1  1  1
  3  4  1  0
  3  2  1  0
  5  2  1  0
  5  6  2  0
  7  5  1  0
  8  7  1  0
  9 10  1  0
  9  8  1  0
 10 11  1  0
 11  7  1  0
 11 12  1  6
 13 12  2  0
 15 14  1  1
 15 16  1  0
 15 17  1  0
 16 12  1  0
 17 18  2  0
 17 19  1  0
M  END
$$$$
