CPA.pdb
     RDKit          3D

 19 19  0  0  1  0  0  0  0  0999 V2000
   16.7501  -10.8202  -15.6375 N   0  0  0  0  0  0  0  0  0  0  0  0
   17.8122  -10.1484  -16.3415 C   0  0  1  0  0  0  0  0  0  0  0  0
   17.1803   -9.2716  -17.4342 C   0  0  0  0  0  0  0  0  0  0  0  0
   16.9315  -10.2621  -18.9260 S   0  0  0  0  0  0  0  0  0  0  0  0
   18.6901   -9.3295  -15.4748 C   0  0  0  0  0  0  0  0  0  0  0  0
   18.1254   -8.6307  -14.5792 O   0  0  0  0  0  0  0  0  0  0  0  0
   20.1029   -9.2643  -15.5650 N   0  0  0  0  0  0  0  0  0  0  0  0
   20.8857   -9.9229  -16.6087 C   0  0  0  0  0  0  0  0  0  0  0  0
   22.2899  -10.0184  -16.1145 C   0  0  0  0  0  0  0  0  0  0  0  0
   22.3849   -9.1216  -14.9253 C   0  0  0  0  0  0  0  0  0  0  0  0
   20.9929   -8.5563  -14.6660 C   0  0  1  0  0  0  0  0  0  0  0  0
   20.9573   -7.1130  -14.9727 C   0  0  0  0  0  0  0  0  0  0  0  0
   21.6150   -6.3231  -14.2611 O   0  0  0  0  0  0  0  0  0  0  0  0
   20.0411   -4.8224  -17.7446 C   0  0  0  0  0  0  0  0  0  0  0  0
   20.2381   -5.1151  -16.2733 C   0  0  2  0  0  0  0  0  0  0  0  0
   20.2110   -6.5585  -16.0417 N   0  0  0  0  0  0  0  0  0  0  0  0
   19.1008   -4.4641  -15.5286 C   0  0  0  0  0  0  0  0  0  0  0  0
   19.0874   -3.2249  -15.3238 O   0  0  0  0  0  0  0  0  0  0  0  0
   18.0270   -5.1958  -15.0396 O   0  0  0  0  0  0  0  0  0  0  0  0
  2  1  1  1
  3  4  1  0
  3  2  1  0
  5  2  1  0
  5  6  2  0
  7  5  1  0
  8  7  1  0
  9 10  1  0
  9  8  1  0
 10 11  1  0
 11  7  1  0
 11 12  1  6
 13 12  2  0
 15 14  1  6
 15 16  1  0
 15 17  1  0
 16 12  1  0
 17 18  2  0
 17 19  1  0
M  END
$$$$
