CPA.pdb
     RDKit          3D

 19 19  0  0  1  0  0  0  0  0999 V2000
   19.7410  -11.6852  -19.4963 N   0  0  0  0  0  0  0  0  0  0  0  0
   19.8687  -10.2549  -19.6092 C   0  0  1  0  0  0  0  0  0  0  0  0
   18.4924   -9.6297  -19.3317 C   0  0  0  0  0  0  0  0  0  0  0  0
   17.4474   -9.8107  -20.7959 S   0  0  0  0  0  0  0  0  0  0  0  0
   20.8872   -9.6649  -18.7108 C   0  0  0  0  0  0  0  0  0  0  0  0
   21.0954  -10.2574  -17.6085 O   0  0  0  0  0  0  0  0  0  0  0  0
   21.6440   -8.4979  -18.9822 N   0  0  0  0  0  0  0  0  0  0  0  0
   21.5316   -7.7200  -20.2142 C   0  0  0  0  0  0  0  0  0  0  0  0
   22.7664   -6.8908  -20.3280 C   0  0  0  0  0  0  0  0  0  0  0  0
   23.4400   -6.9450  -18.9973 C   0  0  0  0  0  0  0  0  0  0  0  0
   22.6328   -7.8897  -18.1138 C   0  0  1  0  0  0  0  0  0  0  0  0
   21.9514   -7.1374  -17.0422 C   0  0  0  0  0  0  0  0  0  0  0  0
   20.8914   -6.5289  -17.3050 O   0  0  0  0  0  0  0  0  0  0  0  0
   21.3418   -7.3574  -13.5522 C   0  0  0  0  0  0  0  0  0  0  0  0
   21.6291   -6.3981  -14.6865 C   0  0  2  0  0  0  0  0  0  0  0  0
   22.4329   -7.0613  -15.7120 N   0  0  0  0  0  0  0  0  0  0  0  0
   22.4028   -5.2396  -14.1112 C   0  0  0  0  0  0  0  0  0  0  0  0
   21.8594   -4.4276  -13.3217 O   0  0  0  0  0  0  0  0  0  0  0  0
   23.7373   -5.0184  -14.4237 O   0  0  0  0  0  0  0  0  0  0  0  0
  2  1  1  1
  3  4  1  0
  3  2  1  0
  5  2  1  0
  5  6  2  0
  7  5  1  0
  8  7  1  0
  9 10  1  0
  9  8  1  0
 10 11  1  0
 11  7  1  0
 11 12  1  1
 13 12  2  0
 15 14  1  1
 15 16  1  0
 15 17  1  0
 16 12  1  0
 17 18  2  0
 17 19  1  0
M  END
$$$$
