CPA.pdb
     RDKit          3D

 19 19  0  0  1  0  0  0  0  0999 V2000
   27.9568  -19.2189  -16.3139 N   0  0  0  0  0  0  0  0  0  0  0  0
   27.2568  -18.9678  -15.0802 C   0  0  1  0  0  0  0  0  0  0  0  0
   26.5306  -17.6195  -15.2098 C   0  0  0  0  0  0  0  0  0  0  0  0
   27.5188  -16.3296  -14.4174 S   0  0  0  0  0  0  0  0  0  0  0  0
   26.2968  -20.0298  -14.7016 C   0  0  0  0  0  0  0  0  0  0  0  0
   25.7306  -20.6581  -15.6471 O   0  0  0  0  0  0  0  0  0  0  0  0
   25.9619  -20.3986  -13.3749 N   0  0  0  0  0  0  0  0  0  0  0  0
   26.4561  -19.7074  -12.1859 C   0  0  0  0  0  0  0  0  0  0  0  0
   26.2818  -20.6350  -11.0306 C   0  0  0  0  0  0  0  0  0  0  0  0
   25.3859  -21.7335  -11.4978 C   0  0  0  0  0  0  0  0  0  0  0  0
   25.0984  -21.4924  -12.9755 C   0  0  1  0  0  0  0  0  0  0  0  0
   23.6880  -21.1029  -13.1695 C   0  0  0  0  0  0  0  0  0  0  0  0
   23.3579  -19.9087  -13.0027 O   0  0  0  0  0  0  0  0  0  0  0  0
   20.6947  -22.3758  -14.9237 C   0  0  0  0  0  0  0  0  0  0  0  0
   21.3294  -21.5173  -13.8515 C   0  0  2  0  0  0  0  0  0  0  0  0
   22.6684  -22.0143  -13.5393 N   0  0  0  0  0  0  0  0  0  0  0  0
   20.4584  -21.6116  -12.6251 C   0  0  0  0  0  0  0  0  0  0  0  0
   19.3778  -20.9758  -12.5490 O   0  0  0  0  0  0  0  0  0  0  0  0
   20.8061  -22.3971  -11.5343 O   0  0  0  0  0  0  0  0  0  0  0  0
  2  1  1  6
  3  4  1  0
  3  2  1  0
  5  2  1  0
  5  6  2  0
  7  5  1  0
  8  7  1  0
  9 10  1  0
  9  8  1  0
 10 11  1  0
 11  7  1  0
 11 12  1  1
 13 12  2  0
 15 14  1  6
 15 16  1  0
 15 17  1  0
 16 12  1  0
 17 18  2  0
 17 19  1  0
M  END
$$$$
