CPA.pdb
     RDKit          3D

 19 19  0  0  1  0  0  0  0  0999 V2000
   28.3957  -35.6438   -5.6229 N   0  0  0  0  0  0  0  0  0  0  0  0
   29.5720  -35.0229   -5.0699 C   0  0  1  0  0  0  0  0  0  0  0  0
   29.1889  -34.3905   -3.7226 C   0  0  0  0  0  0  0  0  0  0  0  0
   28.1340  -32.9519   -4.0159 S   0  0  0  0  0  0  0  0  0  0  0  0
   30.7172  -35.9449   -4.8933 C   0  0  0  0  0  0  0  0  0  0  0  0
   30.4749  -37.0676   -4.3546 O   0  0  0  0  0  0  0  0  0  0  0  0
   32.0548  -35.6750   -5.2758 N   0  0  0  0  0  0  0  0  0  0  0  0
   32.4887  -34.4292   -5.9047 C   0  0  0  0  0  0  0  0  0  0  0  0
   33.8003  -34.6991   -6.5620 C   0  0  0  0  0  0  0  0  0  0  0  0
   34.2795  -36.0103   -6.0342 C   0  0  0  0  0  0  0  0  0  0  0  0
   33.1925  -36.5594   -5.1171 C   0  0  1  0  0  0  0  0  0  0  0  0
   33.6429  -36.5354   -3.7117 C   0  0  0  0  0  0  0  0  0  0  0  0
   33.2977  -35.5839   -2.9780 O   0  0  0  0  0  0  0  0  0  0  0  0
   33.5113  -36.7666   -1.0240 C   0  0  0  0  0  0  0  0  0  0  0  0
   34.5507  -37.6501   -1.6786 C   0  0  2  0  0  0  0  0  0  0  0  0
   34.4560  -37.5412   -3.1335 N   0  0  0  0  0  0  0  0  0  0  0  0
   34.2635  -39.0692   -1.2599 C   0  0  0  0  0  0  0  0  0  0  0  0
   33.8396  -39.9141   -2.0871 O   0  0  0  0  0  0  0  0  0  0  0  0
   34.4520  -39.5038    0.0451 O   0  0  0  0  0  0  0  0  0  0  0  0
  2  1  1  1
  3  4  1  0
  3  2  1  0
  5  2  1  0
  5  6  2  0
  7  5  1  0
  8  7  1  0
  9 10  1  0
  9  8  1  0
 10 11  1  0
 11  7  1  0
 11 12  1  1
 13 12  2  0
 15 14  1  1
 15 16  1  0
 15 17  1  0
 16 12  1  0
 17 18  2  0
 17 19  1  0
M  END
$$$$
