CPA.pdb
     RDKit          3D

 19 19  0  0  1  0  0  0  0  0999 V2000
   18.7628  -11.8689  -16.3135 N   0  0  0  0  0  0  0  0  0  0  0  0
   18.5461  -10.4715  -16.5881 C   0  0  1  0  0  0  0  0  0  0  0  0
   17.2970  -10.0214  -15.8139 C   0  0  0  0  0  0  0  0  0  0  0  0
   16.8945   -8.3181  -16.2669 S   0  0  0  0  0  0  0  0  0  0  0  0
   19.6962   -9.6024  -16.2500 C   0  0  0  0  0  0  0  0  0  0  0  0
   20.2385   -9.7795  -15.1169 O   0  0  0  0  0  0  0  0  0  0  0  0
   20.2370   -8.5941  -17.0863 N   0  0  0  0  0  0  0  0  0  0  0  0
   19.7224   -8.2736  -18.4161 C   0  0  0  0  0  0  0  0  0  0  0  0
   20.7958   -7.5312  -19.1385 C   0  0  0  0  0  0  0  0  0  0  0  0
   21.8058   -7.1372  -18.1127 C   0  0  0  0  0  0  0  0  0  0  0  0
   21.3608   -7.7310  -16.7808 C   0  0  1  0  0  0  0  0  0  0  0  0
   20.9257   -6.6628  -15.8597 C   0  0  0  0  0  0  0  0  0  0  0  0
   19.7528   -6.2365  -15.9329 O   0  0  0  0  0  0  0  0  0  0  0  0
   21.8677   -5.3064  -12.5724 C   0  0  0  0  0  0  0  0  0  0  0  0
   21.2189   -5.1209  -13.9267 C   0  0  2  0  0  0  0  0  0  0  0  0
   21.7697   -6.0813  -14.8817 N   0  0  0  0  0  0  0  0  0  0  0  0
   21.5290   -3.7194  -14.3863 C   0  0  0  0  0  0  0  0  0  0  0  0
   22.3477   -3.5100  -15.3156 O   0  0  0  0  0  0  0  0  0  0  0  0
   20.9309   -2.6068  -13.8101 O   0  0  0  0  0  0  0  0  0  0  0  0
  2  1  1  1
  3  4  1  0
  3  2  1  0
  5  2  1  0
  5  6  2  0
  7  5  1  0
  8  7  1  0
  9 10  1  0
  9  8  1  0
 10 11  1  0
 11  7  1  0
 11 12  1  1
 13 12  2  0
 15 14  1  1
 15 16  1  0
 15 17  1  0
 16 12  1  0
 17 18  2  0
 17 19  1  0
M  END
$$$$
