VIM.pdb
     RDKit          3D

 24 23  0  0  1  0  0  0  0  0999 V2000
    8.5616  -19.3491   25.7548 C   0  0  0  0  0  0  0  0  0  0  0  0
    7.2849  -18.9693   26.4741 C   0  0  2  0  0  0  0  0  0  0  0  0
    6.6392  -20.1847   27.0897 C   0  0  0  0  0  0  0  0  0  0  0  0
    6.3825  -18.2914   25.4600 C   0  0  2  0  0  0  0  0  0  0  0  0
    6.0667  -19.2081   24.3865 N   0  0  0  0  0  0  0  0  0  0  0  0
    6.9473  -17.0182   24.9714 C   0  0  0  0  0  0  0  0  0  0  0  0
    7.5388  -17.0317   23.8632 O   0  0  0  0  0  0  0  0  0  0  0  0
    4.6043  -12.5666   26.4894 C   0  0  0  0  0  0  0  0  0  0  0  0
    5.2833  -13.4454   25.4609 C   0  0  0  0  0  0  0  0  0  0  0  0
    6.7701  -13.3359   25.6601 C   0  0  2  0  0  0  0  0  0  0  0  0
    7.2588  -12.0965   24.9430 C   0  0  0  0  0  0  0  0  0  0  0  0
    7.5050  -14.5662   25.1669 C   0  0  2  0  0  0  0  0  0  0  0  0
    6.8684  -15.7809   25.6656 N   0  0  0  0  0  0  0  0  0  0  0  0
    8.9213  -14.5667   25.5715 C   0  0  0  0  0  0  0  0  0  0  0  0
    9.3190  -13.7773   26.4512 O   0  0  0  0  0  0  0  0  0  0  0  0
   12.1919  -16.4710   29.9224 C   0  0  0  0  0  0  0  0  0  0  0  0
   10.8227  -15.4050   29.4515 S   0  0  0  0  0  0  0  0  0  0  0  0
   10.9856  -14.7743   27.7537 C   0  0  0  0  0  0  0  0  0  0  0  0
   11.3291  -15.8682   26.7978 C   0  0  0  0  0  0  0  0  0  0  0  0
   11.2529  -15.5010   25.3518 C   0  0  2  0  0  0  0  0  0  0  0  0
    9.8359  -15.4558   24.9703 N   0  0  0  0  0  0  0  0  0  0  0  0
   11.9403  -16.4434   24.4684 C   0  0  0  0  0  0  0  0  0  0  0  0
   13.3282  -16.4581   24.3984 O   0  0  0  0  0  0  0  0  0  0  0  0
   11.2656  -17.2436   23.7697 O   0  0  0  0  0  0  0  0  0  0  0  0
  2  1  1  6
  3  2  1  0
  4  2  1  0
  4  6  1  0
  4  5  1  6
  6  7  2  0
  8  9  1  0
 10  9  1  0
 10 12  1  0
 10 11  1  6
 12 13  1  1
 13  6  1  0
 14 12  1  0
 14 15  2  0
 16 17  1  0
 17 18  1  0
 18 19  1  0
 20 19  1  1
 20 21  1  0
 20 22  1  0
 21 14  1  0
 22 24  2  0
 22 23  1  0
M  END
$$$$
