VIM.pdb
     RDKit          3D

 24 23  0  0  1  0  0  0  0  0999 V2000
   12.6845  -19.5423   19.7240 C   0  0  0  0  0  0  0  0  0  0  0  0
   12.0989  -18.7300   20.8593 C   0  0  2  0  0  0  0  0  0  0  0  0
   10.9780  -19.4832   21.5296 C   0  0  0  0  0  0  0  0  0  0  0  0
   11.6340  -17.4097   20.2739 C   0  0  2  0  0  0  0  0  0  0  0  0
   12.7410  -16.7347   19.6325 N   0  0  0  0  0  0  0  0  0  0  0  0
   10.9550  -16.5624   21.2737 C   0  0  0  0  0  0  0  0  0  0  0  0
   11.6647  -16.0309   22.1637 O   0  0  0  0  0  0  0  0  0  0  0  0
    6.8944  -13.1809   19.9951 C   0  0  0  0  0  0  0  0  0  0  0  0
    8.1547  -13.7469   20.6134 C   0  0  0  0  0  0  0  0  0  0  0  0
    7.7530  -14.7036   21.7022 C   0  0  2  0  0  0  0  0  0  0  0  0
    7.0143  -13.9287   22.7714 C   0  0  0  0  0  0  0  0  0  0  0  0
    8.9445  -15.4305   22.2928 C   0  0  2  0  0  0  0  0  0  0  0  0
    9.5575  -16.3064   21.2996 N   0  0  0  0  0  0  0  0  0  0  0  0
    8.5780  -16.2292   23.4750 C   0  0  0  0  0  0  0  0  0  0  0  0
    7.9720  -17.3100   23.3341 O   0  0  0  0  0  0  0  0  0  0  0  0
   10.0280  -12.5669   27.9578 C   0  0  0  0  0  0  0  0  0  0  0  0
   10.7743  -14.1225   28.4637 S   0  0  0  0  0  0  0  0  0  0  0  0
   10.4515  -15.4650   27.2804 C   0  0  0  0  0  0  0  0  0  0  0  0
    8.9904  -15.7481   27.1646 C   0  0  0  0  0  0  0  0  0  0  0  0
    8.5883  -16.5571   25.9749 C   0  0  2  0  0  0  0  0  0  0  0  0
    8.9075  -15.7805   24.7705 N   0  0  0  0  0  0  0  0  0  0  0  0
    7.1644  -16.8926   25.9455 C   0  0  0  0  0  0  0  0  0  0  0  0
    6.7129  -18.0927   26.4813 O   0  0  0  0  0  0  0  0  0  0  0  0
    6.3475  -16.0855   25.4305 O   0  0  0  0  0  0  0  0  0  0  0  0
  2  1  1  6
  3  2  1  0
  4  2  1  0
  4  6  1  0
  4  5  1  1
  6  7  2  0
  8  9  1  0
 10  9  1  0
 10 12  1  0
 10 11  1  1
 12 13  1  6
 13  6  1  0
 14 12  1  0
 14 15  2  0
 16 17  1  0
 17 18  1  0
 18 19  1  0
 20 19  1  1
 20 21  1  0
 20 22  1  0
 21 14  1  0
 22 24  2  0
 22 23  1  0
M  END
$$$$
