VIM.pdb
     RDKit          3D

 24 23  0  0  1  0  0  0  0  0999 V2000
    5.9633  -18.8477   21.5049 C   0  0  0  0  0  0  0  0  0  0  0  0
    6.9049  -18.3128   22.5627 C   0  0  2  0  0  0  0  0  0  0  0  0
    6.4094  -18.6638   23.9427 C   0  0  0  0  0  0  0  0  0  0  0  0
    7.0095  -16.8134   22.3544 C   0  0  2  0  0  0  0  0  0  0  0  0
    7.5025  -16.5311   21.0241 N   0  0  0  0  0  0  0  0  0  0  0  0
    7.8088  -16.1566   23.4072 C   0  0  0  0  0  0  0  0  0  0  0  0
    9.0598  -16.2212   23.3129 O   0  0  0  0  0  0  0  0  0  0  0  0
    5.9030  -11.8275   26.1071 C   0  0  0  0  0  0  0  0  0  0  0  0
    6.9010  -12.6902   25.3649 C   0  0  0  0  0  0  0  0  0  0  0  0
    7.3615  -13.7789   26.2949 C   0  0  2  0  0  0  0  0  0  0  0  0
    8.2401  -13.1588   27.3593 C   0  0  0  0  0  0  0  0  0  0  0  0
    8.1013  -14.8807   25.5631 C   0  0  2  0  0  0  0  0  0  0  0  0
    7.2629  -15.4576   24.5174 N   0  0  0  0  0  0  0  0  0  0  0  0
    8.5402  -15.9537   26.4719 C   0  0  0  0  0  0  0  0  0  0  0  0
    7.6968  -16.6913   27.0194 O   0  0  0  0  0  0  0  0  0  0  0  0
   12.8468  -19.7425   24.4111 C   0  0  0  0  0  0  0  0  0  0  0  0
   13.3561  -19.8969   26.1285 S   0  0  0  0  0  0  0  0  0  0  0  0
   12.1804  -19.1150   27.2745 C   0  0  0  0  0  0  0  0  0  0  0  0
   11.4617  -17.9792   26.6251 C   0  0  0  0  0  0  0  0  0  0  0  0
   10.4090  -17.3273   27.4609 C   0  0  2  0  0  0  0  0  0  0  0  0
    9.9118  -16.1553   26.7297 N   0  0  0  0  0  0  0  0  0  0  0  0
   10.8876  -16.8865   28.7715 C   0  0  0  0  0  0  0  0  0  0  0  0
   11.1451  -17.8129   29.7748 O   0  0  0  0  0  0  0  0  0  0  0  0
   11.0657  -15.6592   28.9862 O   0  0  0  0  0  0  0  0  0  0  0  0
  2  1  1  6
  3  2  1  0
  4  2  1  0
  4  6  1  0
  4  5  1  6
  6  7  2  0
  8  9  1  0
 10  9  1  0
 10 12  1  0
 10 11  1  1
 12 13  1  6
 13  6  1  0
 14 12  1  0
 14 15  2  0
 16 17  1  0
 17 18  1  0
 18 19  1  0
 20 19  1  6
 20 21  1  0
 20 22  1  0
 21 14  1  0
 22 24  2  0
 22 23  1  0
M  END
$$$$
