VIM.pdb
     RDKit          3D

 24 23  0  0  1  0  0  0  0  0999 V2000
    5.7215  -11.8263   26.7641 C   0  0  0  0  0  0  0  0  0  0  0  0
    6.8132  -12.7543   26.2756 C   0  0  2  0  0  0  0  0  0  0  0  0
    7.8551  -11.9886   25.5003 C   0  0  0  0  0  0  0  0  0  0  0  0
    6.1472  -13.8287   25.4362 C   0  0  2  0  0  0  0  0  0  0  0  0
    5.3123  -14.6638   26.2717 N   0  0  0  0  0  0  0  0  0  0  0  0
    7.1224  -14.6083   24.6489 C   0  0  0  0  0  0  0  0  0  0  0  0
    7.5806  -15.6578   25.1653 O   0  0  0  0  0  0  0  0  0  0  0  0
    7.6285  -13.2229   19.4526 C   0  0  0  0  0  0  0  0  0  0  0  0
    7.3966  -14.2713   20.5195 C   0  0  0  0  0  0  0  0  0  0  0  0
    8.7098  -14.5449   21.2000 C   0  0  2  0  0  0  0  0  0  0  0  0
    9.4926  -15.5242   20.3530 C   0  0  0  0  0  0  0  0  0  0  0  0
    8.5244  -15.0797   22.6059 C   0  0  2  0  0  0  0  0  0  0  0  0
    7.5778  -14.2553   23.3500 N   0  0  0  0  0  0  0  0  0  0  0  0
    9.7947  -15.1402   23.3492 C   0  0  0  0  0  0  0  0  0  0  0  0
   10.4347  -14.0943   23.5768 O   0  0  0  0  0  0  0  0  0  0  0  0
   10.3260  -13.3361   28.3465 C   0  0  0  0  0  0  0  0  0  0  0  0
   10.4924  -15.0783   28.7588 S   0  0  0  0  0  0  0  0  0  0  0  0
   11.2812  -16.0345   27.4283 C   0  0  0  0  0  0  0  0  0  0  0  0
   10.5499  -15.8749   26.1368 C   0  0  0  0  0  0  0  0  0  0  0  0
   11.2204  -16.4746   24.9442 C   0  0  2  0  0  0  0  0  0  0  0  0
   10.2961  -16.3757   23.8078 N   0  0  0  0  0  0  0  0  0  0  0  0
   11.5884  -17.8797   25.1207 C   0  0  0  0  0  0  0  0  0  0  0  0
   10.8501  -18.8833   24.5052 O   0  0  0  0  0  0  0  0  0  0  0  0
   12.5810  -18.1758   25.8355 O   0  0  0  0  0  0  0  0  0  0  0  0
  2  1  1  6
  3  2  1  0
  4  2  1  0
  4  6  1  0
  4  5  1  1
  6  7  2  0
  8  9  1  0
 10  9  1  0
 10 12  1  0
 10 11  1  6
 12 13  1  1
 13  6  1  0
 14 12  1  0
 14 15  2  0
 16 17  1  0
 17 18  1  0
 18 19  1  0
 20 19  1  1
 20 21  1  0
 20 22  1  0
 21 14  1  0
 22 24  2  0
 22 23  1  0
M  END
$$$$
