VIM.pdb
     RDKit          3D

 24 23  0  0  1  0  0  0  0  0999 V2000
    7.6179  -12.9339   19.9929 C   0  0  0  0  0  0  0  0  0  0  0  0
    8.6737  -13.7958   19.3341 C   0  0  2  0  0  0  0  0  0  0  0  0
    8.9397  -13.3281   17.9257 C   0  0  0  0  0  0  0  0  0  0  0  0
    8.1761  -15.2286   19.3790 C   0  0  2  0  0  0  0  0  0  0  0  0
    7.1152  -15.4153   18.4135 N   0  0  0  0  0  0  0  0  0  0  0  0
    7.7839  -15.6423   20.7404 C   0  0  0  0  0  0  0  0  0  0  0  0
    6.7036  -15.1916   21.1966 O   0  0  0  0  0  0  0  0  0  0  0  0
    7.7372  -20.6748   22.3186 C   0  0  0  0  0  0  0  0  0  0  0  0
    7.4420  -19.2065   22.0990 C   0  0  0  0  0  0  0  0  0  0  0  0
    8.2553  -18.4131   23.0845 C   0  0  2  0  0  0  0  0  0  0  0  0
    7.8483  -18.8254   24.4823 C   0  0  0  0  0  0  0  0  0  0  0  0
    8.0851  -16.9192   22.8946 C   0  0  2  0  0  0  0  0  0  0  0  0
    8.5413  -16.5132   21.5693 N   0  0  0  0  0  0  0  0  0  0  0  0
    8.8157  -16.1431   23.9114 C   0  0  0  0  0  0  0  0  0  0  0  0
   10.0578  -16.0496   23.8512 O   0  0  0  0  0  0  0  0  0  0  0  0
    5.2109  -11.7501   27.1188 C   0  0  0  0  0  0  0  0  0  0  0  0
    6.8848  -11.3834   27.6633 S   0  0  0  0  0  0  0  0  0  0  0  0
    7.9968  -12.8130   27.5008 C   0  0  0  0  0  0  0  0  0  0  0  0
    7.8859  -13.4373   26.1494 C   0  0  0  0  0  0  0  0  0  0  0  0
    8.7866  -14.6045   25.9086 C   0  0  2  0  0  0  0  0  0  0  0  0
    8.1200  -15.5020   24.9570 N   0  0  0  0  0  0  0  0  0  0  0  0
    9.1016  -15.3642   27.1188 C   0  0  0  0  0  0  0  0  0  0  0  0
   10.0651  -14.9037   28.0080 O   0  0  0  0  0  0  0  0  0  0  0  0
    8.4929  -16.4409   27.3512 O   0  0  0  0  0  0  0  0  0  0  0  0
  2  1  1  6
  3  2  1  0
  4  2  1  0
  4  6  1  0
  4  5  1  6
  6  7  2  0
  8  9  1  0
 10  9  1  0
 10 12  1  0
 10 11  1  1
 12 13  1  6
 13  6  1  0
 14 12  1  0
 14 15  2  0
 16 17  1  0
 17 18  1  0
 18 19  1  0
 20 19  1  1
 20 21  1  0
 20 22  1  0
 21 14  1  0
 22 24  2  0
 22 23  1  0
M  END
$$$$
