VIM.pdb
     RDKit          3D

 24 23  0  0  1  0  0  0  0  0999 V2000
    6.7555  -14.1111   20.6144 C   0  0  0  0  0  0  0  0  0  0  0  0
    7.7050  -15.0796   19.9420 C   0  0  2  0  0  0  0  0  0  0  0  0
    7.0565  -15.7096   18.7356 C   0  0  0  0  0  0  0  0  0  0  0  0
    8.1067  -16.1095   20.9814 C   0  0  2  0  0  0  0  0  0  0  0  0
    6.9982  -16.9984   21.2526 N   0  0  0  0  0  0  0  0  0  0  0  0
    8.6480  -15.4874   22.2056 C   0  0  0  0  0  0  0  0  0  0  0  0
    9.5958  -14.6734   22.0740 O   0  0  0  0  0  0  0  0  0  0  0  0
    6.0458  -12.5043   25.4648 C   0  0  0  0  0  0  0  0  0  0  0  0
    7.1289  -13.1758   24.6480 C   0  0  0  0  0  0  0  0  0  0  0  0
    7.6753  -14.3249   25.4500 C   0  0  2  0  0  0  0  0  0  0  0  0
    8.2258  -13.7816   26.7505 C   0  0  0  0  0  0  0  0  0  0  0  0
    8.7416  -15.0929   24.6950 C   0  0  2  0  0  0  0  0  0  0  0  0
    8.1724  -15.7442   23.5198 N   0  0  0  0  0  0  0  0  0  0  0  0
    9.3950  -16.1097   25.5370 C   0  0  0  0  0  0  0  0  0  0  0  0
    8.7215  -17.0331   26.0358 O   0  0  0  0  0  0  0  0  0  0  0  0
    9.4555  -13.4897   29.6548 C   0  0  0  0  0  0  0  0  0  0  0  0
   11.0660  -14.2259   29.9665 S   0  0  0  0  0  0  0  0  0  0  0  0
   11.7770  -14.9959   28.4805 C   0  0  0  0  0  0  0  0  0  0  0  0
   11.0884  -16.2786   28.1502 C   0  0  0  0  0  0  0  0  0  0  0  0
   11.4309  -16.8637   26.8191 C   0  0  2  0  0  0  0  0  0  0  0  0
   10.7817  -16.0481   25.7854 N   0  0  0  0  0  0  0  0  0  0  0  0
   10.9945  -18.2508   26.6562 C   0  0  0  0  0  0  0  0  0  0  0  0
   11.9132  -19.2457   26.3444 O   0  0  0  0  0  0  0  0  0  0  0  0
    9.7780  -18.5393   26.8007 O   0  0  0  0  0  0  0  0  0  0  0  0
  2  1  1  1
  3  2  1  0
  4  2  1  0
  4  6  1  0
  4  5  1  1
  6  7  2  0
  8  9  1  0
 10  9  1  0
 10 12  1  0
 10 11  1  1
 12 13  1  6
 13  6  1  0
 14 12  1  0
 14 15  2  0
 16 17  1  0
 17 18  1  0
 18 19  1  0
 20 19  1  1
 20 21  1  0
 20 22  1  0
 21 14  1  0
 22 24  2  0
 22 23  1  0
M  END
$$$$
