VIM.pdb
     RDKit          3D

 24 23  0  0  1  0  0  0  0  0999 V2000
   10.4667  -20.7101   19.8732 C   0  0  0  0  0  0  0  0  0  0  0  0
   10.5667  -19.4736   20.7408 C   0  0  2  0  0  0  0  0  0  0  0  0
    9.7180  -19.6216   21.9781 C   0  0  0  0  0  0  0  0  0  0  0  0
   10.1402  -18.2920   19.8898 C   0  0  2  0  0  0  0  0  0  0  0  0
   10.9876  -18.1910   18.7218 N   0  0  0  0  0  0  0  0  0  0  0  0
   10.0872  -17.0358   20.6630 C   0  0  0  0  0  0  0  0  0  0  0  0
   11.1781  -16.4812   20.9469 O   0  0  0  0  0  0  0  0  0  0  0  0
    6.8636  -12.9497   19.5331 C   0  0  0  0  0  0  0  0  0  0  0  0
    8.0938  -13.6894   20.0132 C   0  0  0  0  0  0  0  0  0  0  0  0
    7.8061  -14.2354   21.3848 C   0  0  2  0  0  0  0  0  0  0  0  0
    7.6328  -13.0717   22.3362 C   0  0  0  0  0  0  0  0  0  0  0  0
    8.8986  -15.1671   21.8699 C   0  0  2  0  0  0  0  0  0  0  0  0
    8.8907  -16.4111   21.1073 N   0  0  0  0  0  0  0  0  0  0  0  0
    8.7642  -15.4824   23.3025 C   0  0  0  0  0  0  0  0  0  0  0  0
    7.7722  -16.1182   23.7109 O   0  0  0  0  0  0  0  0  0  0  0  0
    5.5342  -11.7733   26.5589 C   0  0  0  0  0  0  0  0  0  0  0  0
    7.2339  -12.2424   26.9108 S   0  0  0  0  0  0  0  0  0  0  0  0
    7.7337  -13.7534   26.0312 C   0  0  0  0  0  0  0  0  0  0  0  0
    9.1498  -14.1159   26.3342 C   0  0  0  0  0  0  0  0  0  0  0  0
    9.6525  -15.3496   25.6584 C   0  0  2  0  0  0  0  0  0  0  0  0
    9.7517  -15.0698   24.2206 N   0  0  0  0  0  0  0  0  0  0  0  0
    8.7888  -16.5160   25.8446 C   0  0  0  0  0  0  0  0  0  0  0  0
    8.0599  -17.0293   24.7787 O   0  0  0  0  0  0  0  0  0  0  0  0
    8.7093  -17.0540   26.9796 O   0  0  0  0  0  0  0  0  0  0  0  0
  2  1  1  6
  3  2  1  0
  4  2  1  0
  4  6  1  0
  4  5  1  6
  6  7  2  0
  8  9  1  0
 10  9  1  0
 10 12  1  0
 10 11  1  1
 12 13  1  6
 13  6  1  0
 14 12  1  0
 14 15  2  0
 16 17  1  0
 17 18  1  0
 18 19  1  0
 20 19  1  1
 20 21  1  0
 20 22  1  0
 21 14  1  0
 22 24  2  0
 22 23  1  0
M  END
$$$$
