VIM.pdb
     RDKit          3D

 24 23  0  0  1  0  0  0  0  0999 V2000
    8.4823  -19.3641   25.9498 C   0  0  0  0  0  0  0  0  0  0  0  0
    7.1663  -19.0296   26.6193 C   0  0  2  0  0  0  0  0  0  0  0  0
    6.5560  -20.2614   27.2383 C   0  0  0  0  0  0  0  0  0  0  0  0
    6.2687  -18.4130   25.5627 C   0  0  2  0  0  0  0  0  0  0  0  0
    5.9629  -19.3900   24.5407 N   0  0  0  0  0  0  0  0  0  0  0  0
    6.8328  -17.1675   25.0067 C   0  0  0  0  0  0  0  0  0  0  0  0
    7.5355  -17.2597   23.9694 O   0  0  0  0  0  0  0  0  0  0  0  0
    4.6832  -12.4136   26.2451 C   0  0  0  0  0  0  0  0  0  0  0  0
    5.3586  -13.3666   25.2824 C   0  0  0  0  0  0  0  0  0  0  0  0
    6.8183  -13.4353   25.6385 C   0  0  2  0  0  0  0  0  0  0  0  0
    7.5178  -12.2439   25.0215 C   0  0  0  0  0  0  0  0  0  0  0  0
    7.4582  -14.7302   25.1798 C   0  0  2  0  0  0  0  0  0  0  0  0
    6.6367  -15.8742   25.5616 N   0  0  0  0  0  0  0  0  0  0  0  0
    8.8123  -14.9069   25.7321 C   0  0  0  0  0  0  0  0  0  0  0  0
    8.9726  -15.0317   26.9626 O   0  0  0  0  0  0  0  0  0  0  0  0
   11.2490  -16.3015   29.7798 C   0  0  0  0  0  0  0  0  0  0  0  0
   10.8075  -14.5919   29.4403 S   0  0  0  0  0  0  0  0  0  0  0  0
   10.9111  -14.1862   27.6707 C   0  0  0  0  0  0  0  0  0  0  0  0
   11.2116  -15.3975   26.8518 C   0  0  0  0  0  0  0  0  0  0  0  0
   11.2949  -15.1683   25.3780 C   0  0  2  0  0  0  0  0  0  0  0  0
    9.9341  -14.9363   24.8783 N   0  0  0  0  0  0  0  0  0  0  0  0
   11.8741  -16.2910   24.6397 C   0  0  0  0  0  0  0  0  0  0  0  0
   13.2210  -16.6039   24.7774 O   0  0  0  0  0  0  0  0  0  0  0  0
   11.1432  -16.9744   23.8764 O   0  0  0  0  0  0  0  0  0  0  0  0
  2  1  1  6
  3  2  1  0
  4  2  1  0
  4  6  1  0
  4  5  1  6
  6  7  2  0
  8  9  1  0
 10  9  1  0
 10 12  1  0
 10 11  1  6
 12 13  1  1
 13  6  1  0
 14 12  1  0
 14 15  2  0
 16 17  1  0
 17 18  1  0
 18 19  1  0
 20 19  1  1
 20 21  1  0
 20 22  1  0
 21 14  1  0
 22 24  2  0
 22 23  1  0
M  END
$$$$
