SHY.pdb
     RDKit          3D

 29 30  0  0  1  0  0  0  0  0999 V2000
   11.2421  -20.2657   21.7128 O   0  0  0  0  0  0  0  0  0  0  0  0
   10.2746  -20.0221   20.7512 C   0  0  0  0  0  0  0  0  0  0  0  0
   10.6104  -18.8230   19.8922 C   0  0  2  0  0  0  0  0  0  0  0  0
   11.9744  -18.9761   19.4377 N   0  0  0  0  0  0  0  0  0  0  0  0
   10.5344  -17.6139   20.7705 C   0  0  0  0  0  0  0  0  0  0  0  0
   11.5564  -17.1293   21.3216 O   0  0  0  0  0  0  0  0  0  0  0  0
    9.2790  -16.9695   21.0089 N   0  0  0  0  0  0  0  0  0  0  0  0
    9.1860  -15.8301   21.8998 C   0  0  1  0  0  0  0  0  0  0  0  0
    7.9197  -15.0336   21.6663 C   0  0  0  0  0  0  0  0  0  0  0  0
    7.9640  -14.2196   20.4470 C   0  0  0  0  0  0  0  0  0  0  0  0
    9.0900  -14.0797   19.6404 C   0  0  0  0  0  0  0  0  0  0  0  0
    8.7488  -13.2728   18.6374 N   0  0  0  0  0  0  0  0  0  0  0  0
    7.4632  -12.9180   18.8028 C   0  0  0  0  0  0  0  0  0  0  0  0
    6.9650  -13.4992   19.9224 N   0  0  0  0  0  0  0  0  0  0  0  0
    9.2294  -16.3000   23.3211 C   0  0  0  0  0  0  0  0  0  0  0  0
    8.7060  -17.4036   23.6215 O   0  0  0  0  0  0  0  0  0  0  0  0
    5.9580  -10.6318   27.1119 O   0  0  0  0  0  0  0  0  0  0  0  0
    6.4576  -11.8981   26.8032 C   0  0  0  0  0  0  0  0  0  0  0  0
    5.6445  -12.9325   26.4032 C   0  0  0  0  0  0  0  0  0  0  0  0
    6.1567  -14.1749   26.1029 C   0  0  0  0  0  0  0  0  0  0  0  0
    7.5285  -14.4356   26.1927 C   0  0  0  0  0  0  0  0  0  0  0  0
    8.0396  -15.7836   25.8851 C   0  0  0  0  0  0  0  0  0  0  0  0
    9.5417  -15.7416   25.7474 C   0  0  2  0  0  0  0  0  0  0  0  0
    9.8412  -15.5429   24.3428 N   0  0  0  0  0  0  0  0  0  0  0  0
   10.1170  -17.0337   26.1714 C   0  0  0  0  0  0  0  0  0  0  0  0
   10.8060  -17.9081   25.3459 O   0  0  0  0  0  0  0  0  0  0  0  0
    8.3476  -13.4075   26.5920 C   0  0  0  0  0  0  0  0  0  0  0  0
    7.8084  -12.1523   26.8927 C   0  0  0  0  0  0  0  0  0  0  0  0
    9.9942  -17.4171   27.3765 O   0  0  0  0  0  0  0  0  0  0  0  0
  2  1  1  0
  3  2  1  0
  3  4  1  1
  5  3  1  0
  5  7  1  0
  6  5  2  0
  8  7  1  0
  8  9  1  1
 10  9  1  0
 11 10  2  0
 12 13  1  0
 12 11  1  0
 13 14  2  0
 14 10  1  0
 15  8  1  0
 16 15  2  0
 17 18  1  0
 18 19  2  0
 18 28  1  0
 19 20  1  0
 20 21  2  0
 21 22  1  0
 23 22  1  6
 23 24  1  0
 23 25  1  0
 24 15  1  0
 25 26  1  0
 27 21  1  0
 28 27  2  0
 29 25  2  0
M  END
$$$$
