SHY.pdb
     RDKit          3D

 29 30  0  0  1  0  0  0  0  0999 V2000
   10.6353  -13.9857   18.4170 O   0  0  0  0  0  0  0  0  0  0  0  0
    9.6922  -14.8667   17.9127 C   0  0  0  0  0  0  0  0  0  0  0  0
    8.2775  -14.3766   18.1289 C   0  0  2  0  0  0  0  0  0  0  0  0
    8.2739  -12.9441   17.9325 N   0  0  0  0  0  0  0  0  0  0  0  0
    7.9228  -14.6622   19.5542 C   0  0  0  0  0  0  0  0  0  0  0  0
    7.7125  -13.7394   20.3831 O   0  0  0  0  0  0  0  0  0  0  0  0
    7.8126  -16.0121   20.0166 N   0  0  0  0  0  0  0  0  0  0  0  0
    7.5225  -16.2998   21.4073 C   0  0  1  0  0  0  0  0  0  0  0  0
    6.9031  -17.6704   21.5822 C   0  0  0  0  0  0  0  0  0  0  0  0
    6.6778  -18.0292   22.9864 C   0  0  0  0  0  0  0  0  0  0  0  0
    5.6144  -17.5600   23.7526 C   0  0  0  0  0  0  0  0  0  0  0  0
    5.7440  -18.0986   24.9638 N   0  0  0  0  0  0  0  0  0  0  0  0
    6.8414  -18.8742   24.9632 C   0  0  0  0  0  0  0  0  0  0  0  0
    7.4298  -18.8394   23.7416 N   0  0  0  0  0  0  0  0  0  0  0  0
    8.7831  -16.2116   22.2110 C   0  0  0  0  0  0  0  0  0  0  0  0
    9.8195  -16.7921   21.7975 O   0  0  0  0  0  0  0  0  0  0  0  0
    5.0914  -12.8248   27.1834 O   0  0  0  0  0  0  0  0  0  0  0  0
    6.3183  -13.0926   26.5740 C   0  0  0  0  0  0  0  0  0  0  0  0
    6.5397  -12.8683   25.2355 C   0  0  0  0  0  0  0  0  0  0  0  0
    7.7576  -13.1389   24.6528 C   0  0  0  0  0  0  0  0  0  0  0  0
    8.8218  -13.6542   25.4012 C   0  0  0  0  0  0  0  0  0  0  0  0
   10.1050  -13.9531   24.7401 C   0  0  0  0  0  0  0  0  0  0  0  0
   10.0781  -15.3550   24.1822 C   0  0  2  0  0  0  0  0  0  0  0  0
    8.8498  -15.4948   23.4247 N   0  0  0  0  0  0  0  0  0  0  0  0
   10.0599  -16.3315   25.2896 C   0  0  0  0  0  0  0  0  0  0  0  0
    9.0183  -17.2030   25.5660 O   0  0  0  0  0  0  0  0  0  0  0  0
    8.6086  -13.8815   26.7392 C   0  0  0  0  0  0  0  0  0  0  0  0
    7.3642  -13.6000   27.3128 C   0  0  0  0  0  0  0  0  0  0  0  0
   11.0528  -16.4141   26.0780 O   0  0  0  0  0  0  0  0  0  0  0  0
  2  1  1  0
  3  2  1  0
  3  4  1  1
  5  3  1  0
  5  7  1  0
  6  5  2  0
  8  7  1  0
  8  9  1  6
 10  9  1  0
 11 10  2  0
 12 13  1  0
 12 11  1  0
 13 14  2  0
 14 10  1  0
 15  8  1  0
 16 15  2  0
 17 18  1  0
 18 19  2  0
 18 28  1  0
 19 20  1  0
 20 21  2  0
 21 22  1  0
 23 22  1  1
 23 24  1  0
 23 25  1  0
 24 15  1  0
 25 26  1  0
 27 21  1  0
 28 27  2  0
 29 25  2  0
M  END
$$$$
