SHY.pdb
     RDKit          3D

 29 30  0  0  1  0  0  0  0  0999 V2000
    9.0443  -12.0248   18.7489 O   0  0  0  0  0  0  0  0  0  0  0  0
    8.1677  -12.7135   17.9260 C   0  0  0  0  0  0  0  0  0  0  0  0
    8.7716  -13.9922   17.3888 C   0  0  2  0  0  0  0  0  0  0  0  0
    7.7428  -14.6862   16.6468 N   0  0  0  0  0  0  0  0  0  0  0  0
    9.1552  -14.8301   18.5677 C   0  0  0  0  0  0  0  0  0  0  0  0
    8.3119  -15.5280   19.1879 O   0  0  0  0  0  0  0  0  0  0  0  0
   10.5108  -14.8588   19.0255 N   0  0  0  0  0  0  0  0  0  0  0  0
   10.8994  -15.6930   20.1453 C   0  0  1  0  0  0  0  0  0  0  0  0
   12.3612  -16.0821   20.0780 C   0  0  0  0  0  0  0  0  0  0  0  0
   12.7407  -17.0835   21.0802 C   0  0  0  0  0  0  0  0  0  0  0  0
   11.8313  -17.8543   21.7991 C   0  0  0  0  0  0  0  0  0  0  0  0
   12.5433  -18.6407   22.6043 N   0  0  0  0  0  0  0  0  0  0  0  0
   13.8458  -18.3785   22.4031 C   0  0  0  0  0  0  0  0  0  0  0  0
   13.9814  -17.4137   21.4594 N   0  0  0  0  0  0  0  0  0  0  0  0
   10.6309  -14.9678   21.4277 C   0  0  0  0  0  0  0  0  0  0  0  0
   10.7024  -13.7122   21.4523 O   0  0  0  0  0  0  0  0  0  0  0  0
    5.6604  -11.6715   27.4331 O   0  0  0  0  0  0  0  0  0  0  0  0
    6.3271  -12.3444   26.4078 C   0  0  0  0  0  0  0  0  0  0  0  0
    7.2773  -11.7341   25.6233 C   0  0  0  0  0  0  0  0  0  0  0  0
    7.9243  -12.4152   24.6166 C   0  0  0  0  0  0  0  0  0  0  0  0
    7.6402  -13.7593   24.3506 C   0  0  0  0  0  0  0  0  0  0  0  0
    8.3358  -14.4511   23.2504 C   0  0  0  0  0  0  0  0  0  0  0  0
    9.6574  -14.9903   23.7404 C   0  0  2  0  0  0  0  0  0  0  0  0
   10.2979  -15.6482   22.6183 N   0  0  0  0  0  0  0  0  0  0  0  0
    9.4246  -15.9914   24.8005 C   0  0  0  0  0  0  0  0  0  0  0  0
    9.4347  -17.3649   24.6152 O   0  0  0  0  0  0  0  0  0  0  0  0
    6.6917  -14.3763   25.1297 C   0  0  0  0  0  0  0  0  0  0  0  0
    6.0455  -13.6675   26.1479 C   0  0  0  0  0  0  0  0  0  0  0  0
    9.1905  -15.6117   25.9901 O   0  0  0  0  0  0  0  0  0  0  0  0
  2  1  1  0
  3  2  1  0
  3  4  1  6
  5  3  1  0
  5  7  1  0
  6  5  2  0
  8  7  1  0
  8  9  1  6
 10  9  1  0
 11 10  2  0
 12 13  1  0
 12 11  1  0
 13 14  2  0
 14 10  1  0
 15  8  1  0
 16 15  2  0
 17 18  1  0
 18 19  2  0
 18 28  1  0
 19 20  1  0
 20 21  2  0
 21 22  1  0
 23 22  1  6
 23 24  1  0
 23 25  1  0
 24 15  1  0
 25 26  1  0
 27 21  1  0
 28 27  2  0
 29 25  2  0
M  END
$$$$
