SHY.pdb
     RDKit          3D

 29 30  0  0  1  0  0  0  0  0999 V2000
    6.7444  -13.1564   21.8691 O   0  0  0  0  0  0  0  0  0  0  0  0
    7.5971  -13.3595   20.7959 C   0  0  0  0  0  0  0  0  0  0  0  0
    7.4671  -14.7508   20.2165 C   0  0  2  0  0  0  0  0  0  0  0  0
    6.0611  -15.0052   19.9957 N   0  0  0  0  0  0  0  0  0  0  0  0
    7.9673  -15.7096   21.2507 C   0  0  0  0  0  0  0  0  0  0  0  0
    7.1863  -16.4534   21.8985 O   0  0  0  0  0  0  0  0  0  0  0  0
    9.3672  -15.8057   21.5326 N   0  0  0  0  0  0  0  0  0  0  0  0
    9.8837  -16.8619   22.3801 C   0  0  1  0  0  0  0  0  0  0  0  0
   11.2397  -17.3474   21.9129 C   0  0  0  0  0  0  0  0  0  0  0  0
   11.7531  -18.4751   22.6977 C   0  0  0  0  0  0  0  0  0  0  0  0
   12.8618  -18.4037   23.5366 C   0  0  0  0  0  0  0  0  0  0  0  0
   13.0193  -19.6129   24.0720 N   0  0  0  0  0  0  0  0  0  0  0  0
   12.0524  -20.4136   23.5926 C   0  0  0  0  0  0  0  0  0  0  0  0
   11.2600  -19.7190   22.7385 N   0  0  0  0  0  0  0  0  0  0  0  0
    9.9849  -16.3687   23.7905 C   0  0  0  0  0  0  0  0  0  0  0  0
   10.7525  -15.4077   24.0537 O   0  0  0  0  0  0  0  0  0  0  0  0
    7.0985  -10.7058   25.9198 O   0  0  0  0  0  0  0  0  0  0  0  0
    7.3534  -12.0601   26.1418 C   0  0  0  0  0  0  0  0  0  0  0  0
    8.6292  -12.5578   26.2677 C   0  0  0  0  0  0  0  0  0  0  0  0
    8.8601  -13.8974   26.4867 C   0  0  0  0  0  0  0  0  0  0  0  0
    7.8032  -14.8087   26.5903 C   0  0  0  0  0  0  0  0  0  0  0  0
    8.0879  -16.2394   26.8028 C   0  0  0  0  0  0  0  0  0  0  0  0
    9.4419  -16.5814   26.2311 C   0  0  2  0  0  0  0  0  0  0  0  0
    9.2441  -16.9484   24.8424 N   0  0  0  0  0  0  0  0  0  0  0  0
   10.0060  -17.7429   26.9473 C   0  0  0  0  0  0  0  0  0  0  0  0
   10.6217  -17.6915   28.1879 O   0  0  0  0  0  0  0  0  0  0  0  0
    6.5256  -14.3195   26.4653 C   0  0  0  0  0  0  0  0  0  0  0  0
    6.3114  -12.9552   26.2432 C   0  0  0  0  0  0  0  0  0  0  0  0
    9.9478  -18.8993   26.4242 O   0  0  0  0  0  0  0  0  0  0  0  0
  2  1  1  0
  3  2  1  0
  3  4  1  1
  5  3  1  0
  5  7  1  0
  6  5  2  0
  8  7  1  0
  8  9  1  6
 10  9  1  0
 11 10  2  0
 12 13  1  0
 12 11  1  0
 13 14  2  0
 14 10  1  0
 15  8  1  0
 16 15  2  0
 17 18  1  0
 18 19  2  0
 18 28  1  0
 19 20  1  0
 20 21  2  0
 21 22  1  0
 23 22  1  1
 23 24  1  0
 23 25  1  0
 24 15  1  0
 25 26  1  0
 27 21  1  0
 28 27  2  0
 29 25  2  0
M  END
$$$$
