SHY.pdb
     RDKit          3D

 29 30  0  0  1  0  0  0  0  0999 V2000
   11.2699  -20.3827   21.5767 O   0  0  0  0  0  0  0  0  0  0  0  0
   10.0376  -20.1979   20.9707 C   0  0  0  0  0  0  0  0  0  0  0  0
   10.0429  -19.0327   20.0060 C   0  0  2  0  0  0  0  0  0  0  0  0
   11.2457  -19.1273   19.2094 N   0  0  0  0  0  0  0  0  0  0  0  0
   10.1109  -17.7812   20.8236 C   0  0  0  0  0  0  0  0  0  0  0  0
   11.2073  -17.2337   21.1081 O   0  0  0  0  0  0  0  0  0  0  0  0
    8.9128  -17.1673   21.3091 N   0  0  0  0  0  0  0  0  0  0  0  0
    8.9640  -15.9265   22.0566 C   0  0  1  0  0  0  0  0  0  0  0  0
    7.7604  -15.0508   21.7788 C   0  0  0  0  0  0  0  0  0  0  0  0
    7.9228  -14.2022   20.5936 C   0  0  0  0  0  0  0  0  0  0  0  0
    9.0841  -14.1416   19.8282 C   0  0  0  0  0  0  0  0  0  0  0  0
    8.8547  -13.2710   18.8468 N   0  0  0  0  0  0  0  0  0  0  0  0
    7.6032  -12.8018   18.9858 C   0  0  0  0  0  0  0  0  0  0  0  0
    7.0144  -13.3722   20.0664 N   0  0  0  0  0  0  0  0  0  0  0  0
    9.0397  -16.2267   23.5218 C   0  0  0  0  0  0  0  0  0  0  0  0
    8.3898  -17.1983   23.9862 O   0  0  0  0  0  0  0  0  0  0  0  0
    5.7789  -10.7196   26.4624 O   0  0  0  0  0  0  0  0  0  0  0  0
    6.4016  -11.9674   26.4015 C   0  0  0  0  0  0  0  0  0  0  0  0
    5.7636  -13.0854   25.9179 C   0  0  0  0  0  0  0  0  0  0  0  0
    6.3954  -14.3078   25.8658 C   0  0  0  0  0  0  0  0  0  0  0  0
    7.7153  -14.4619   26.3040 C   0  0  0  0  0  0  0  0  0  0  0  0
    8.3531  -15.7900   26.2545 C   0  0  0  0  0  0  0  0  0  0  0  0
    9.7979  -15.6481   25.8428 C   0  0  2  0  0  0  0  0  0  0  0  0
    9.8203  -15.4524   24.4064 N   0  0  0  0  0  0  0  0  0  0  0  0
   10.5300  -16.8910   26.1582 C   0  0  0  0  0  0  0  0  0  0  0  0
   11.1873  -17.6852   25.2319 O   0  0  0  0  0  0  0  0  0  0  0  0
    8.3596  -13.3497   26.7889 C   0  0  0  0  0  0  0  0  0  0  0  0
    7.7010  -12.1165   26.8336 C   0  0  0  0  0  0  0  0  0  0  0  0
   10.5873  -17.3056   27.3578 O   0  0  0  0  0  0  0  0  0  0  0  0
  2  1  1  0
  3  2  1  0
  3  4  1  6
  5  3  1  0
  5  7  1  0
  6  5  2  0
  8  7  1  0
  8  9  1  1
 10  9  1  0
 11 10  2  0
 12 13  1  0
 12 11  1  0
 13 14  2  0
 14 10  1  0
 15  8  1  0
 16 15  2  0
 17 18  1  0
 18 19  2  0
 18 28  1  0
 19 20  1  0
 20 21  2  0
 21 22  1  0
 23 22  1  6
 23 24  1  0
 23 25  1  0
 24 15  1  0
 25 26  1  0
 27 21  1  0
 28 27  2  0
 29 25  2  0
M  END
$$$$
