SHY.pdb
     RDKit          3D

 29 30  0  0  1  0  0  0  0  0999 V2000
   13.3859  -17.5700   16.3077 O   0  0  0  0  0  0  0  0  0  0  0  0
   12.0821  -17.4995   15.8438 C   0  0  0  0  0  0  0  0  0  0  0  0
   11.5609  -16.0797   15.8142 C   0  0  2  0  0  0  0  0  0  0  0  0
   12.4692  -15.2949   15.0083 N   0  0  0  0  0  0  0  0  0  0  0  0
   11.6028  -15.5632   17.2180 C   0  0  0  0  0  0  0  0  0  0  0  0
   12.5878  -14.9151   17.6570 O   0  0  0  0  0  0  0  0  0  0  0  0
   10.5075  -15.7971   18.1088 N   0  0  0  0  0  0  0  0  0  0  0  0
   10.5150  -15.2565   19.4536 C   0  0  1  0  0  0  0  0  0  0  0  0
    9.1320  -15.2588   20.0700 C   0  0  0  0  0  0  0  0  0  0  0  0
    8.1648  -14.4450   19.3259 C   0  0  0  0  0  0  0  0  0  0  0  0
    8.0140  -13.0701   19.4838 C   0  0  0  0  0  0  0  0  0  0  0  0
    7.0500  -12.6889   18.6478 N   0  0  0  0  0  0  0  0  0  0  0  0
    6.6107  -13.7753   17.9901 C   0  0  0  0  0  0  0  0  0  0  0  0
    7.2948  -14.8716   18.4022 N   0  0  0  0  0  0  0  0  0  0  0  0
   11.4483  -16.0553   20.3100 C   0  0  0  0  0  0  0  0  0  0  0  0
   11.5823  -17.2870   20.0927 O   0  0  0  0  0  0  0  0  0  0  0  0
   17.1072  -14.5329   17.4560 O   0  0  0  0  0  0  0  0  0  0  0  0
   16.4395  -14.7281   18.6662 C   0  0  0  0  0  0  0  0  0  0  0  0
   16.7584  -15.7532   19.5256 C   0  0  0  0  0  0  0  0  0  0  0  0
   16.0879  -15.9290   20.7153 C   0  0  0  0  0  0  0  0  0  0  0  0
   15.0524  -15.0696   21.0988 C   0  0  0  0  0  0  0  0  0  0  0  0
   14.3412  -15.3008   22.3691 C   0  0  0  0  0  0  0  0  0  0  0  0
   13.1622  -16.2134   22.1360 C   0  0  2  0  0  0  0  0  0  0  0  0
   12.1883  -15.4709   21.3598 N   0  0  0  0  0  0  0  0  0  0  0  0
   12.5512  -16.5781   23.4298 C   0  0  0  0  0  0  0  0  0  0  0  0
   11.2507  -16.2838   23.8077 O   0  0  0  0  0  0  0  0  0  0  0  0
   14.7274  -14.0431   20.2455 C   0  0  0  0  0  0  0  0  0  0  0  0
   15.4204  -13.8808   19.0414 C   0  0  0  0  0  0  0  0  0  0  0  0
   13.2325  -17.2094   24.2967 O   0  0  0  0  0  0  0  0  0  0  0  0
  2  1  1  0
  3  2  1  0
  3  4  1  6
  5  3  1  0
  5  7  1  0
  6  5  2  0
  8  7  1  0
  8  9  1  1
 10  9  1  0
 11 10  2  0
 12 13  1  0
 12 11  1  0
 13 14  2  0
 14 10  1  0
 15  8  1  0
 16 15  2  0
 17 18  1  0
 18 19  2  0
 18 28  1  0
 19 20  1  0
 20 21  2  0
 21 22  1  0
 23 22  1  1
 23 24  1  0
 23 25  1  0
 24 15  1  0
 25 26  1  0
 27 21  1  0
 28 27  2  0
 29 25  2  0
M  END
$$$$
