SHY.pdb
     RDKit          3D

 29 30  0  0  1  0  0  0  0  0999 V2000
    9.3735  -12.6727   18.9521 O   0  0  0  0  0  0  0  0  0  0  0  0
    8.4022  -12.9097   17.9927 C   0  0  0  0  0  0  0  0  0  0  0  0
    8.5329  -14.2834   17.3729 C   0  0  2  0  0  0  0  0  0  0  0  0
    7.3745  -14.4994   16.5351 N   0  0  0  0  0  0  0  0  0  0  0  0
    8.5040  -15.2781   18.4904 C   0  0  0  0  0  0  0  0  0  0  0  0
    7.4298  -15.6108   19.0546 O   0  0  0  0  0  0  0  0  0  0  0  0
    9.7154  -15.8844   18.9519 N   0  0  0  0  0  0  0  0  0  0  0  0
    9.7138  -16.7659   20.1024 C   0  0  1  0  0  0  0  0  0  0  0  0
   10.9440  -17.6478   20.1388 C   0  0  0  0  0  0  0  0  0  0  0  0
   10.9344  -18.6101   21.2457 C   0  0  0  0  0  0  0  0  0  0  0  0
    9.8085  -18.9183   22.0043 C   0  0  0  0  0  0  0  0  0  0  0  0
   10.1861  -19.8230   22.9057 N   0  0  0  0  0  0  0  0  0  0  0  0
   11.4935  -20.0756   22.7249 C   0  0  0  0  0  0  0  0  0  0  0  0
   11.9695  -19.3289   21.6974 N   0  0  0  0  0  0  0  0  0  0  0  0
    9.6413  -15.9521   21.3575 C   0  0  0  0  0  0  0  0  0  0  0  0
   10.4611  -15.0143   21.5320 O   0  0  0  0  0  0  0  0  0  0  0  0
    6.1885  -11.2451   27.8101 O   0  0  0  0  0  0  0  0  0  0  0  0
    6.4175  -12.1193   26.7463 C   0  0  0  0  0  0  0  0  0  0  0  0
    6.9763  -11.7047   25.5602 C   0  0  0  0  0  0  0  0  0  0  0  0
    7.1944  -12.5828   24.5223 C   0  0  0  0  0  0  0  0  0  0  0  0
    6.8554  -13.9359   24.6329 C   0  0  0  0  0  0  0  0  0  0  0  0
    7.0824  -14.8433   23.4936 C   0  0  0  0  0  0  0  0  0  0  0  0
    8.5079  -15.3382   23.5104 C   0  0  2  0  0  0  0  0  0  0  0  0
    8.6786  -16.2021   22.3585 N   0  0  0  0  0  0  0  0  0  0  0  0
    8.7447  -16.1331   24.7320 C   0  0  0  0  0  0  0  0  0  0  0  0
    9.3908  -15.6733   25.8687 O   0  0  0  0  0  0  0  0  0  0  0  0
    6.2963  -14.3581   25.8146 C   0  0  0  0  0  0  0  0  0  0  0  0
    6.0827  -13.4508   26.8576 C   0  0  0  0  0  0  0  0  0  0  0  0
    8.3452  -17.3377   24.7915 O   0  0  0  0  0  0  0  0  0  0  0  0
  2  1  1  0
  3  2  1  0
  3  4  1  6
  5  3  1  0
  5  7  1  0
  6  5  2  0
  8  7  1  0
  8  9  1  1
 10  9  1  0
 11 10  2  0
 12 13  1  0
 12 11  1  0
 13 14  2  0
 14 10  1  0
 15  8  1  0
 16 15  2  0
 17 18  1  0
 18 19  2  0
 18 28  1  0
 19 20  1  0
 20 21  2  0
 21 22  1  0
 23 22  1  1
 23 24  1  0
 23 25  1  0
 24 15  1  0
 25 26  1  0
 27 21  1  0
 28 27  2  0
 29 25  2  0
M  END
$$$$
