SHY.pdb
     RDKit          3D

 29 30  0  0  1  0  0  0  0  0999 V2000
    8.4311  -16.5260   19.2382 O   0  0  0  0  0  0  0  0  0  0  0  0
    7.4287  -17.4680   19.4054 C   0  0  0  0  0  0  0  0  0  0  0  0
    7.9737  -18.8159   19.8229 C   0  0  2  0  0  0  0  0  0  0  0  0
    6.8652  -19.7432   19.8680 N   0  0  0  0  0  0  0  0  0  0  0  0
    8.5222  -18.6625   21.2067 C   0  0  0  0  0  0  0  0  0  0  0  0
    7.7719  -18.6065   22.2151 O   0  0  0  0  0  0  0  0  0  0  0  0
    9.9345  -18.5744   21.4203 N   0  0  0  0  0  0  0  0  0  0  0  0
   10.4802  -18.5036   22.7612 C   0  0  1  0  0  0  0  0  0  0  0  0
   11.5694  -19.5320   22.9817 C   0  0  0  0  0  0  0  0  0  0  0  0
   11.0619  -20.9061   23.0567 C   0  0  0  0  0  0  0  0  0  0  0  0
   11.0452  -21.7934   21.9841 C   0  0  0  0  0  0  0  0  0  0  0  0
   10.5179  -22.9312   22.4324 N   0  0  0  0  0  0  0  0  0  0  0  0
   10.2145  -22.7702   23.7316 C   0  0  0  0  0  0  0  0  0  0  0  0
   10.5475  -21.5175   24.1309 N   0  0  0  0  0  0  0  0  0  0  0  0
   11.0270  -17.1315   23.0082 C   0  0  0  0  0  0  0  0  0  0  0  0
   11.4037  -16.4333   22.0321 O   0  0  0  0  0  0  0  0  0  0  0  0
   10.1249  -16.8777   30.5005 O   0  0  0  0  0  0  0  0  0  0  0  0
   10.2251  -16.3036   29.2321 C   0  0  0  0  0  0  0  0  0  0  0  0
    9.5317  -16.7883   28.1480 C   0  0  0  0  0  0  0  0  0  0  0  0
    9.6439  -16.2078   26.9045 C   0  0  0  0  0  0  0  0  0  0  0  0
   10.4701  -15.0983   26.6932 C   0  0  0  0  0  0  0  0  0  0  0  0
   10.5834  -14.5159   25.3438 C   0  0  0  0  0  0  0  0  0  0  0  0
   11.6382  -15.2533   24.5559 C   0  0  2  0  0  0  0  0  0  0  0  0
   11.1353  -16.5902   24.3069 N   0  0  0  0  0  0  0  0  0  0  0  0
   12.8747  -15.3588   25.3560 C   0  0  0  0  0  0  0  0  0  0  0  0
   13.7522  -14.3159   25.6074 O   0  0  0  0  0  0  0  0  0  0  0  0
   11.1666  -14.6082   27.7712 C   0  0  0  0  0  0  0  0  0  0  0  0
   11.0393  -15.2117   29.0267 C   0  0  0  0  0  0  0  0  0  0  0  0
   13.2022  -16.4725   25.8724 O   0  0  0  0  0  0  0  0  0  0  0  0
  2  1  1  0
  3  2  1  0
  3  4  1  1
  5  3  1  0
  5  7  1  0
  6  5  2  0
  8  7  1  0
  8  9  1  6
 10  9  1  0
 11 10  2  0
 12 13  1  0
 12 11  1  0
 13 14  2  0
 14 10  1  0
 15  8  1  0
 16 15  2  0
 17 18  1  0
 18 19  2  0
 18 28  1  0
 19 20  1  0
 20 21  2  0
 21 22  1  0
 23 22  1  1
 23 24  1  0
 23 25  1  0
 24 15  1  0
 25 26  1  0
 27 21  1  0
 28 27  2  0
 29 25  2  0
M  END
$$$$
