MKL.pdb
     RDKit          3D

 26 25  0  0  1  0  0  0  0  0999 V2000
    8.8664  -11.6196   19.7653 C   0  0  0  0  0  0  0  0  0  0  0  0
    8.0008  -12.2213   18.2792 S   0  0  0  0  0  0  0  0  0  0  0  0
    8.2197  -14.0202   18.2254 C   0  0  0  0  0  0  0  0  0  0  0  0
    7.8107  -14.6042   19.5606 C   0  0  0  0  0  0  0  0  0  0  0  0
    8.0429  -16.0981   19.4856 C   0  0  2  0  0  0  0  0  0  0  0  0
    6.9874  -16.6898   18.7105 N   0  0  0  0  0  0  0  0  0  0  0  0
    7.9924  -16.6173   20.8714 C   0  0  0  0  0  0  0  0  0  0  0  0
    6.8613  -16.6905   21.4412 O   0  0  0  0  0  0  0  0  0  0  0  0
    9.1868  -17.0189   21.5324 N   0  0  0  0  0  0  0  0  0  0  0  0
    9.1284  -17.3674   22.9321 C   0  0  1  0  0  0  0  0  0  0  0  0
   10.1498  -18.4438   23.1629 C   0  0  0  0  0  0  0  0  0  0  0  0
   10.2020  -18.9500   24.5658 C   0  0  0  0  0  0  0  0  0  0  0  0
   11.2495  -20.0734   24.5864 C   0  0  0  0  0  0  0  0  0  0  0  0
   11.2277  -20.7271   25.9693 C   0  0  0  0  0  0  0  0  0  0  0  0
   12.1216  -21.8684   25.9294 N   0  0  0  0  0  0  0  0  0  0  0  0
    9.2945  -16.1981   23.8098 C   0  0  0  0  0  0  0  0  0  0  0  0
   10.1975  -15.3380   23.7028 O   0  0  0  0  0  0  0  0  0  0  0  0
    5.4822  -12.6701   26.9931 C   0  0  0  0  0  0  0  0  0  0  0  0
    6.9112  -12.9616   26.6104 C   0  0  2  0  0  0  0  0  0  0  0  0
    7.6436  -11.7416   26.1838 C   0  0  0  0  0  0  0  0  0  0  0  0
    7.1244  -14.1570   25.7880 C   0  0  0  0  0  0  0  0  0  0  0  0
    8.4427  -14.8128   25.7379 C   0  0  2  0  0  0  0  0  0  0  0  0
    8.3671  -16.0149   24.8663 N   0  0  0  0  0  0  0  0  0  0  0  0
    9.0532  -15.2533   26.9907 C   0  0  0  0  0  0  0  0  0  0  0  0
    8.9575  -16.5115   27.5588 O   0  0  0  0  0  0  0  0  0  0  0  0
    9.7501  -14.4294   27.6640 O   0  0  0  0  0  0  0  0  0  0  0  0
  2  1  1  0
  3  2  1  0
  4  5  1  0
  4  3  1  0
  5  7  1  0
  5  6  1  6
  7  8  2  0
  9 10  1  0
  9  7  1  0
 11 12  1  0
 10 11  1  1
 13 12  1  0
 13 14  1  0
 15 14  1  0
 16 10  1  0
 16 17  2  0
 19 18  1  6
 19 21  1  0
 20 19  1  0
 22 21  1  1
 22 24  1  0
 22 23  1  0
 23 16  1  0
 24 25  1  0
 26 24  2  0
M  END
$$$$
