MKL.pdb
     RDKit          3D

 26 25  0  0  1  0  0  0  0  0999 V2000
    7.7043  -11.7690   19.9941 C   0  0  0  0  0  0  0  0  0  0  0  0
    8.6205  -12.5337   18.6173 S   0  0  0  0  0  0  0  0  0  0  0  0
    8.7014  -14.3134   18.9531 C   0  0  0  0  0  0  0  0  0  0  0  0
    7.7559  -14.6419   20.0886 C   0  0  0  0  0  0  0  0  0  0  0  0
    7.9024  -16.1201   20.3795 C   0  0  2  0  0  0  0  0  0  0  0  0
    7.4406  -16.8619   19.2387 N   0  0  0  0  0  0  0  0  0  0  0  0
    7.0446  -16.4215   21.5483 C   0  0  0  0  0  0  0  0  0  0  0  0
    5.7939  -16.2433   21.4333 O   0  0  0  0  0  0  0  0  0  0  0  0
    7.6211  -16.8969   22.7593 N   0  0  0  0  0  0  0  0  0  0  0  0
    6.7651  -17.1252   23.8991 C   0  0  1  0  0  0  0  0  0  0  0  0
    6.6681  -18.6118   24.0885 C   0  0  0  0  0  0  0  0  0  0  0  0
    5.6155  -19.2688   23.2593 C   0  0  0  0  0  0  0  0  0  0  0  0
    5.7099  -20.7750   23.5464 C   0  0  0  0  0  0  0  0  0  0  0  0
    4.6665  -21.4949   22.6901 C   0  0  0  0  0  0  0  0  0  0  0  0
    4.8445  -22.9206   22.8877 N   0  0  0  0  0  0  0  0  0  0  0  0
    7.2225  -16.4059   25.0985 C   0  0  0  0  0  0  0  0  0  0  0  0
    6.6179  -16.3719   26.1939 O   0  0  0  0  0  0  0  0  0  0  0  0
    8.2133  -11.9842   25.2080 C   0  0  0  0  0  0  0  0  0  0  0  0
    7.1813  -12.8970   25.8205 C   0  0  2  0  0  0  0  0  0  0  0  0
    6.0508  -12.1479   26.4267 C   0  0  0  0  0  0  0  0  0  0  0  0
    7.7030  -14.0179   26.6093 C   0  0  0  0  0  0  0  0  0  0  0  0
    8.8621  -14.7963   26.1390 C   0  0  2  0  0  0  0  0  0  0  0  0
    8.4432  -15.6887   25.0262 N   0  0  0  0  0  0  0  0  0  0  0  0
    9.5722  -15.6418   27.0967 C   0  0  0  0  0  0  0  0  0  0  0  0
   10.5678  -15.2432   27.9714 O   0  0  0  0  0  0  0  0  0  0  0  0
    9.2815  -16.8781   27.1668 O   0  0  0  0  0  0  0  0  0  0  0  0
  2  1  1  0
  3  2  1  0
  4  5  1  0
  4  3  1  0
  5  7  1  0
  5  6  1  6
  7  8  2  0
  9 10  1  0
  9  7  1  0
 11 12  1  0
 10 11  1  1
 13 12  1  0
 13 14  1  0
 15 14  1  0
 16 10  1  0
 16 17  2  0
 19 18  1  1
 19 21  1  0
 20 19  1  0
 22 21  1  1
 22 24  1  0
 22 23  1  0
 23 16  1  0
 24 25  1  0
 26 24  2  0
M  END
$$$$
