MKL.pdb
     RDKit          3D

 26 25  0  0  1  0  0  0  0  0999 V2000
    9.4781  -12.7325   19.9679 C   0  0  0  0  0  0  0  0  0  0  0  0
    7.7686  -12.7433   19.3375 S   0  0  0  0  0  0  0  0  0  0  0  0
    6.8392  -13.9384   20.3350 C   0  0  0  0  0  0  0  0  0  0  0  0
    7.2305  -15.3386   19.9136 C   0  0  0  0  0  0  0  0  0  0  0  0
    6.5509  -16.2988   20.8660 C   0  0  2  0  0  0  0  0  0  0  0  0
    5.5403  -15.5848   21.5967 N   0  0  0  0  0  0  0  0  0  0  0  0
    7.5872  -16.7901   21.8028 C   0  0  0  0  0  0  0  0  0  0  0  0
    7.3187  -17.8083   22.5103 O   0  0  0  0  0  0  0  0  0  0  0  0
    8.8437  -16.1288   21.8958 N   0  0  0  0  0  0  0  0  0  0  0  0
    9.8381  -16.6413   22.8082 C   0  0  1  0  0  0  0  0  0  0  0  0
   11.1414  -16.6844   22.0634 C   0  0  0  0  0  0  0  0  0  0  0  0
   11.3224  -17.8970   21.2125 C   0  0  0  0  0  0  0  0  0  0  0  0
   11.4947  -17.3971   19.7702 C   0  0  0  0  0  0  0  0  0  0  0  0
   11.5892  -18.6132   18.8470 C   0  0  0  0  0  0  0  0  0  0  0  0
   11.6789  -18.1240   17.4846 N   0  0  0  0  0  0  0  0  0  0  0  0
    9.8997  -15.8732   24.0617 C   0  0  0  0  0  0  0  0  0  0  0  0
   10.8266  -15.0980   24.3882 O   0  0  0  0  0  0  0  0  0  0  0  0
    6.1072  -12.5832   26.4564 C   0  0  0  0  0  0  0  0  0  0  0  0
    7.4763  -13.1783   26.2450 C   0  0  2  0  0  0  0  0  0  0  0  0
    8.1111  -12.7068   24.9876 C   0  0  0  0  0  0  0  0  0  0  0  0
    7.6041  -14.6115   26.5287 C   0  0  0  0  0  0  0  0  0  0  0  0
    8.8779  -15.3153   26.2993 C   0  0  2  0  0  0  0  0  0  0  0  0
    8.8328  -16.0094   24.9854 N   0  0  0  0  0  0  0  0  0  0  0  0
    9.3113  -16.3136   27.2750 C   0  0  0  0  0  0  0  0  0  0  0  0
    9.9350  -16.0690   28.4859 O   0  0  0  0  0  0  0  0  0  0  0  0
    9.1194  -17.5463   27.0275 O   0  0  0  0  0  0  0  0  0  0  0  0
  2  1  1  0
  3  2  1  0
  4  5  1  0
  4  3  1  0
  5  7  1  0
  5  6  1  1
  7  8  2  0
  9 10  1  0
  9  7  1  0
 11 12  1  0
 10 11  1  6
 13 12  1  0
 13 14  1  0
 15 14  1  0
 16 10  1  0
 16 17  2  0
 19 18  1  6
 19 21  1  0
 20 19  1  0
 22 21  1  1
 22 24  1  0
 22 23  1  0
 23 16  1  0
 24 25  1  0
 26 24  2  0
M  END
$$$$
