MKL.pdb
     RDKit          3D

 26 25  0  0  1  0  0  0  0  0999 V2000
    5.4271  -12.5038   25.4415 C   0  0  0  0  0  0  0  0  0  0  0  0
    5.2764  -13.8360   26.6753 S   0  0  0  0  0  0  0  0  0  0  0  0
    6.0959  -15.2984   25.9848 C   0  0  0  0  0  0  0  0  0  0  0  0
    5.3702  -15.7181   24.7245 C   0  0  0  0  0  0  0  0  0  0  0  0
    6.0989  -16.9227   24.1686 C   0  0  2  0  0  0  0  0  0  0  0  0
    6.2545  -17.8916   25.2184 N   0  0  0  0  0  0  0  0  0  0  0  0
    7.4315  -16.4576   23.7206 C   0  0  0  0  0  0  0  0  0  0  0  0
    8.4143  -17.2497   23.8467 O   0  0  0  0  0  0  0  0  0  0  0  0
    7.5897  -15.1565   23.1664 N   0  0  0  0  0  0  0  0  0  0  0  0
    8.8249  -14.8274   22.4956 C   0  0  1  0  0  0  0  0  0  0  0  0
    8.7100  -13.4041   22.0307 C   0  0  0  0  0  0  0  0  0  0  0  0
    7.8397  -13.2180   20.8327 C   0  0  0  0  0  0  0  0  0  0  0  0
    8.6417  -13.7290   19.6262 C   0  0  0  0  0  0  0  0  0  0  0  0
    7.7565  -13.6298   18.3825 C   0  0  0  0  0  0  0  0  0  0  0  0
    8.4920  -14.2062   17.2734 N   0  0  0  0  0  0  0  0  0  0  0  0
   10.0056  -15.0803   23.3365 C   0  0  0  0  0  0  0  0  0  0  0  0
   11.1900  -15.0942   22.9319 O   0  0  0  0  0  0  0  0  0  0  0  0
   10.8179  -14.1597   29.1321 C   0  0  0  0  0  0  0  0  0  0  0  0
   11.1915  -14.3177   27.6800 C   0  0  2  0  0  0  0  0  0  0  0  0
   11.1416  -13.0313   26.9389 C   0  0  0  0  0  0  0  0  0  0  0  0
   10.6143  -15.4766   26.9910 C   0  0  0  0  0  0  0  0  0  0  0  0
   10.9384  -15.7544   25.5809 C   0  0  2  0  0  0  0  0  0  0  0  0
    9.8050  -15.3301   24.7175 N   0  0  0  0  0  0  0  0  0  0  0  0
   11.2566  -17.1273   25.1935 C   0  0  0  0  0  0  0  0  0  0  0  0
   12.4210  -17.8179   25.4804 O   0  0  0  0  0  0  0  0  0  0  0  0
   10.4082  -17.7938   24.5200 O   0  0  0  0  0  0  0  0  0  0  0  0
  2  1  1  0
  3  2  1  0
  4  5  1  0
  4  3  1  0
  5  7  1  0
  5  6  1  1
  7  8  2  0
  9 10  1  0
  9  7  1  0
 11 12  1  0
 10 11  1  1
 13 12  1  0
 13 14  1  0
 15 14  1  0
 16 10  1  0
 16 17  2  0
 19 18  1  1
 19 21  1  0
 20 19  1  0
 22 21  1  1
 22 24  1  0
 22 23  1  0
 23 16  1  0
 24 25  1  0
 26 24  2  0
M  END
$$$$
