MKL.pdb
     RDKit          3D

 26 25  0  0  1  0  0  0  0  0999 V2000
    7.1145  -11.9195   26.7802 C   0  0  0  0  0  0  0  0  0  0  0  0
    5.7488  -11.8260   25.5777 S   0  0  0  0  0  0  0  0  0  0  0  0
    5.5405  -13.4847   24.8762 C   0  0  0  0  0  0  0  0  0  0  0  0
    6.8335  -14.2537   25.0431 C   0  0  0  0  0  0  0  0  0  0  0  0
    6.6266  -15.6174   24.4198 C   0  0  2  0  0  0  0  0  0  0  0  0
    5.6545  -16.3362   25.1966 N   0  0  0  0  0  0  0  0  0  0  0  0
    7.9269  -16.3238   24.4749 C   0  0  0  0  0  0  0  0  0  0  0  0
    8.2000  -16.9923   25.5178 O   0  0  0  0  0  0  0  0  0  0  0  0
    8.8342  -16.2456   23.3814 N   0  0  0  0  0  0  0  0  0  0  0  0
   10.0929  -16.9475   23.4653 C   0  0  1  0  0  0  0  0  0  0  0  0
   10.7398  -16.8586   22.1129 C   0  0  0  0  0  0  0  0  0  0  0  0
   12.0073  -17.6362   21.9865 C   0  0  0  0  0  0  0  0  0  0  0  0
   12.4138  -17.5717   20.5065 C   0  0  0  0  0  0  0  0  0  0  0  0
   13.6922  -18.3913   20.3219 C   0  0  0  0  0  0  0  0  0  0  0  0
   14.1462  -18.1953   18.9586 N   0  0  0  0  0  0  0  0  0  0  0  0
   10.9417  -16.4502   24.5595 C   0  0  0  0  0  0  0  0  0  0  0  0
   11.2947  -15.2594   24.7149 O   0  0  0  0  0  0  0  0  0  0  0  0
    9.5146  -14.3921   28.8997 C   0  0  0  0  0  0  0  0  0  0  0  0
   10.7602  -15.0707   28.3883 C   0  0  2  0  0  0  0  0  0  0  0  0
   11.8338  -14.1022   28.0477 C   0  0  0  0  0  0  0  0  0  0  0  0
   10.5501  -16.1582   27.4271 C   0  0  0  0  0  0  0  0  0  0  0  0
   11.6869  -16.9449   26.9179 C   0  0  2  0  0  0  0  0  0  0  0  0
   11.4061  -17.3795   25.5241 N   0  0  0  0  0  0  0  0  0  0  0  0
   12.0899  -18.1455   27.6477 C   0  0  0  0  0  0  0  0  0  0  0  0
   11.3835  -19.3319   27.7406 O   0  0  0  0  0  0  0  0  0  0  0  0
   13.1935  -18.1454   28.2799 O   0  0  0  0  0  0  0  0  0  0  0  0
  2  1  1  0
  3  2  1  0
  4  5  1  0
  4  3  1  0
  5  7  1  0
  5  6  1  1
  7  8  2  0
  9 10  1  0
  9  7  1  0
 11 12  1  0
 10 11  1  6
 13 12  1  0
 13 14  1  0
 15 14  1  0
 16 10  1  0
 16 17  2  0
 19 18  1  6
 19 21  1  0
 20 19  1  0
 22 21  1  1
 22 24  1  0
 22 23  1  0
 23 16  1  0
 24 25  1  0
 26 24  2  0
M  END
$$$$
