MKL.pdb
     RDKit          3D

 26 25  0  0  1  0  0  0  0  0999 V2000
   13.2931  -14.3279   20.3444 C   0  0  0  0  0  0  0  0  0  0  0  0
   12.5208  -13.6370   18.8458 S   0  0  0  0  0  0  0  0  0  0  0  0
   11.0597  -14.6474   18.4838 C   0  0  0  0  0  0  0  0  0  0  0  0
   10.1142  -14.5833   19.6641 C   0  0  0  0  0  0  0  0  0  0  0  0
    9.0397  -15.6241   19.4337 C   0  0  2  0  0  0  0  0  0  0  0  0
    8.1042  -15.1145   18.4692 N   0  0  0  0  0  0  0  0  0  0  0  0
    8.3527  -15.8354   20.7284 C   0  0  0  0  0  0  0  0  0  0  0  0
    7.4859  -14.9830   21.0909 O   0  0  0  0  0  0  0  0  0  0  0  0
    8.6663  -16.9670   21.5321 N   0  0  0  0  0  0  0  0  0  0  0  0
    7.9033  -17.2039   22.7346 C   0  0  1  0  0  0  0  0  0  0  0  0
    7.7731  -18.6920   22.8896 C   0  0  0  0  0  0  0  0  0  0  0  0
    7.0163  -19.1188   24.1030 C   0  0  0  0  0  0  0  0  0  0  0  0
    6.8538  -20.6431   24.0029 C   0  0  0  0  0  0  0  0  0  0  0  0
    6.0537  -21.1228   25.2153 C   0  0  0  0  0  0  0  0  0  0  0  0
    6.0047  -22.5713   25.1636 N   0  0  0  0  0  0  0  0  0  0  0  0
    8.4851  -16.5366   23.9098 C   0  0  0  0  0  0  0  0  0  0  0  0
    9.6978  -16.5486   24.2198 O   0  0  0  0  0  0  0  0  0  0  0  0
    8.2186  -12.1217   25.8598 C   0  0  0  0  0  0  0  0  0  0  0  0
    6.9622  -12.9437   25.9985 C   0  0  2  0  0  0  0  0  0  0  0  0
    5.8217  -12.1507   26.5245 C   0  0  0  0  0  0  0  0  0  0  0  0
    7.1310  -14.2821   26.5737 C   0  0  0  0  0  0  0  0  0  0  0  0
    8.1321  -15.2162   26.0297 C   0  0  2  0  0  0  0  0  0  0  0  0
    7.6183  -15.8180   24.7711 N   0  0  0  0  0  0  0  0  0  0  0  0
    8.5759  -16.3306   26.8649 C   0  0  0  0  0  0  0  0  0  0  0  0
    8.0144  -17.5941   26.9233 O   0  0  0  0  0  0  0  0  0  0  0  0
    9.5746  -16.1682   27.6356 O   0  0  0  0  0  0  0  0  0  0  0  0
  2  1  1  0
  3  2  1  0
  4  5  1  0
  4  3  1  0
  5  7  1  0
  5  6  1  6
  7  8  2  0
  9 10  1  0
  9  7  1  0
 11 12  1  0
 10 11  1  1
 13 12  1  0
 13 14  1  0
 15 14  1  0
 16 10  1  0
 16 17  2  0
 19 18  1  1
 19 21  1  0
 20 19  1  0
 22 21  1  1
 22 24  1  0
 22 23  1  0
 23 16  1  0
 24 25  1  0
 26 24  2  0
M  END
$$$$
