MKL.pdb
     RDKit          3D

 26 25  0  0  1  0  0  0  0  0999 V2000
    5.5996  -12.9807   25.3747 C   0  0  0  0  0  0  0  0  0  0  0  0
    6.8351  -14.0841   26.1337 S   0  0  0  0  0  0  0  0  0  0  0  0
    6.2239  -15.7804   25.9442 C   0  0  0  0  0  0  0  0  0  0  0  0
    5.8343  -16.0028   24.4985 C   0  0  0  0  0  0  0  0  0  0  0  0
    6.2357  -17.4173   24.1394 C   0  0  2  0  0  0  0  0  0  0  0  0
    5.9624  -18.2725   25.2614 N   0  0  0  0  0  0  0  0  0  0  0  0
    7.6917  -17.4021   23.8697 C   0  0  0  0  0  0  0  0  0  0  0  0
    8.4147  -18.2727   24.4429 O   0  0  0  0  0  0  0  0  0  0  0  0
    8.2496  -16.4325   22.9901 N   0  0  0  0  0  0  0  0  0  0  0  0
    9.6382  -16.5474   22.6126 C   0  0  1  0  0  0  0  0  0  0  0  0
    9.8975  -15.5089   21.5592 C   0  0  0  0  0  0  0  0  0  0  0  0
   11.2917  -15.5093   21.0269 C   0  0  0  0  0  0  0  0  0  0  0  0
   11.2981  -16.4584   19.8190 C   0  0  0  0  0  0  0  0  0  0  0  0
   12.7379  -16.5935   19.3201 C   0  0  0  0  0  0  0  0  0  0  0  0
   12.7095  -17.3892   18.1080 N   0  0  0  0  0  0  0  0  0  0  0  0
   10.5442  -16.4550   23.7683 C   0  0  0  0  0  0  0  0  0  0  0  0
   11.7930  -16.5217   23.7134 O   0  0  0  0  0  0  0  0  0  0  0  0
    9.8181  -14.8750   29.6597 C   0  0  0  0  0  0  0  0  0  0  0  0
   10.6483  -14.6392   28.4234 C   0  0  2  0  0  0  0  0  0  0  0  0
   11.2698  -13.2901   28.4071 C   0  0  0  0  0  0  0  0  0  0  0  0
   10.0573  -15.0873   27.1582 C   0  0  0  0  0  0  0  0  0  0  0  0
   10.8308  -15.9137   26.2151 C   0  0  2  0  0  0  0  0  0  0  0  0
    9.9754  -16.2760   25.0544 N   0  0  0  0  0  0  0  0  0  0  0  0
   11.4171  -17.1626   26.6973 C   0  0  0  0  0  0  0  0  0  0  0  0
   12.6761  -17.3258   27.2481 O   0  0  0  0  0  0  0  0  0  0  0  0
   10.7392  -18.2361   26.6202 O   0  0  0  0  0  0  0  0  0  0  0  0
  2  1  1  0
  3  2  1  0
  4  5  1  0
  4  3  1  0
  5  7  1  0
  5  6  1  1
  7  8  2  0
  9 10  1  0
  9  7  1  0
 11 12  1  0
 10 11  1  6
 13 12  1  0
 13 14  1  0
 15 14  1  0
 16 10  1  0
 16 17  2  0
 19 18  1  1
 19 21  1  0
 20 19  1  0
 22 21  1  1
 22 24  1  0
 22 23  1  0
 23 16  1  0
 24 25  1  0
 26 24  2  0
M  END
$$$$
