MKL.pdb
     RDKit          3D

 26 25  0  0  1  0  0  0  0  0999 V2000
    6.0380  -21.9795   28.8030 C   0  0  0  0  0  0  0  0  0  0  0  0
    6.6637  -20.4585   28.0187 S   0  0  0  0  0  0  0  0  0  0  0  0
    6.3288  -20.5971   26.2424 C   0  0  0  0  0  0  0  0  0  0  0  0
    6.7785  -19.3242   25.5577 C   0  0  0  0  0  0  0  0  0  0  0  0
    6.4808  -19.4808   24.0819 C   0  0  2  0  0  0  0  0  0  0  0  0
    6.8761  -20.7995   23.6698 N   0  0  0  0  0  0  0  0  0  0  0  0
    7.2928  -18.4719   23.3640 C   0  0  0  0  0  0  0  0  0  0  0  0
    8.5026  -18.7526   23.1052 O   0  0  0  0  0  0  0  0  0  0  0  0
    6.7187  -17.2272   22.9815 N   0  0  0  0  0  0  0  0  0  0  0  0
    7.5797  -16.0794   22.8221 C   0  0  1  0  0  0  0  0  0  0  0  0
    6.7591  -14.9966   22.1822 C   0  0  0  0  0  0  0  0  0  0  0  0
    7.5345  -13.7764   21.8120 C   0  0  0  0  0  0  0  0  0  0  0  0
    7.3880  -13.6099   20.2919 C   0  0  0  0  0  0  0  0  0  0  0  0
    8.1312  -12.3403   19.8726 C   0  0  0  0  0  0  0  0  0  0  0  0
    7.8193  -12.0893   18.4787 N   0  0  0  0  0  0  0  0  0  0  0  0
    8.2123  -15.6716   24.0863 C   0  0  0  0  0  0  0  0  0  0  0  0
    7.6431  -15.6395   25.2007 O   0  0  0  0  0  0  0  0  0  0  0  0
    8.7708  -14.0291   28.7419 C   0  0  0  0  0  0  0  0  0  0  0  0
    9.8112  -14.1563   27.6580 C   0  0  2  0  0  0  0  0  0  0  0  0
   10.6003  -12.9103   27.4811 C   0  0  0  0  0  0  0  0  0  0  0  0
    9.3752  -14.8189   26.4244 C   0  0  0  0  0  0  0  0  0  0  0  0
   10.3245  -15.0671   25.3254 C   0  0  2  0  0  0  0  0  0  0  0  0
    9.5747  -15.2804   24.0595 N   0  0  0  0  0  0  0  0  0  0  0  0
   11.2548  -16.1882   25.4441 C   0  0  0  0  0  0  0  0  0  0  0  0
   12.6090  -16.1124   25.7190 O   0  0  0  0  0  0  0  0  0  0  0  0
   10.8214  -17.3730   25.2829 O   0  0  0  0  0  0  0  0  0  0  0  0
  2  1  1  0
  3  2  1  0
  4  5  1  0
  4  3  1  0
  5  7  1  0
  5  6  1  6
  7  8  2  0
  9 10  1  0
  9  7  1  0
 11 12  1  0
 10 11  1  1
 13 12  1  0
 13 14  1  0
 15 14  1  0
 16 10  1  0
 16 17  2  0
 19 18  1  1
 19 21  1  0
 20 19  1  0
 22 21  1  1
 22 24  1  0
 22 23  1  0
 23 16  1  0
 24 25  1  0
 26 24  2  0
M  END
$$$$
