RVD.pdb
     RDKit          3D

 27 26  0  0  1  0  0  0  0  0999 V2000
    7.8864  -13.4810   19.5306 N   0  0  0  0  0  0  0  0  0  0  0  0
    7.6985  -13.8935   18.1777 C   0  0  0  0  0  0  0  0  0  0  0  0
    7.3659  -13.0515   17.2716 N   0  0  0  0  0  0  0  0  0  0  0  0
    7.8756  -15.2524   17.7912 N   0  0  0  0  0  0  0  0  0  0  0  0
    7.9927  -16.3236   18.7440 C   0  0  0  0  0  0  0  0  0  0  0  0
    6.9986  -16.1679   19.9012 C   0  0  0  0  0  0  0  0  0  0  0  0
    7.8208  -15.7759   21.0960 C   0  0  0  0  0  0  0  0  0  0  0  0
    7.4549  -14.4254   21.6760 C   0  0  2  0  0  0  0  0  0  0  0  0
    7.9888  -13.4293   20.7354 N   0  0  0  0  0  0  0  0  0  0  0  0
    8.1780  -14.2517   22.9529 C   0  0  0  0  0  0  0  0  0  0  0  0
    9.4219  -14.1332   23.0506 O   0  0  0  0  0  0  0  0  0  0  0  0
    7.2124  -13.2641   16.2688 C   0  0  0  0  0  0  0  0  0  0  0  0
    7.6733  -12.8906   27.6090 C   0  0  2  0  0  0  0  0  0  0  0  0
    7.1476  -13.1749   26.2459 C   0  0  0  0  0  0  0  0  0  0  0  0
    6.8964  -11.8562   25.5553 C   0  0  1  0  0  0  0  0  0  0  0  0
    8.1293  -14.0035   25.4327 N   0  0  0  0  0  0  0  0  0  0  0  0
    7.4388  -14.2138   24.1565 C   0  0  0  0  0  0  0  0  0  0  0  0
    8.5114  -15.2644   26.0458 O   0  0  0  0  0  0  0  0  0  0  0  0
    7.5951  -16.1352   26.2476 N   0  0  0  0  0  0  0  0  0  0  0  0
    9.8036  -15.6601   26.4552 C   0  0  1  0  0  0  0  0  0  0  0  0
   10.0455  -16.9543   27.0908 C   0  0  0  0  0  0  0  0  0  0  0  0
   11.4281  -17.4842   26.7186 C   0  0  0  0  0  0  0  0  0  0  0  0
   11.4902  -17.8634   25.2938 O   0  0  0  0  0  0  0  0  0  0  0  0
   10.5267  -17.7868   24.4935 C   0  0  0  0  0  0  0  0  0  0  0  0
   10.0608  -16.7519   28.5527 O   0  0  0  0  0  0  0  0  0  0  0  0
   10.0374  -17.7839   29.4821 O   0  0  0  0  0  0  0  0  0  0  0  0
   12.6889  -18.3527   24.7387 O   0  0  0  0  0  0  0  0  0  0  0  0
  2  3  2  0
  2  1  1  0
  4  2  1  0
  5  4  1  0
  6  5  1  0
  7  6  1  0
  8  7  1  0
  8  9  1  6
 10  8  1  0
 11 10  2  0
 13 12  1  1
 13 14  1  0
 15 13  1  0
 15 16  1  1
 16 10  1  0
 17 19  1  0
 17 15  1  0
 18 17  2  0
 20 19  1  0
 20 21  1  1
 21 22  1  0
 22 26  1  0
 23 22  2  0
 24 25  1  0
 24 20  1  0
 27 24  2  0
M  END
$$$$
