RVD.pdb
     RDKit          3D

 27 26  0  0  1  0  0  0  0  0999 V2000
    7.9533  -17.9808   19.0920 N   0  0  0  0  0  0  0  0  0  0  0  0
    7.3745  -17.2704   17.9983 C   0  0  0  0  0  0  0  0  0  0  0  0
    6.9356  -17.8909   16.9672 N   0  0  0  0  0  0  0  0  0  0  0  0
    7.2649  -15.8510   18.0180 N   0  0  0  0  0  0  0  0  0  0  0  0
    6.5521  -15.1396   19.0450 C   0  0  0  0  0  0  0  0  0  0  0  0
    6.6127  -15.8709   20.3915 C   0  0  0  0  0  0  0  0  0  0  0  0
    7.6838  -15.1779   21.1849 C   0  0  0  0  0  0  0  0  0  0  0  0
    7.2985  -13.7904   21.6547 C   0  0  2  0  0  0  0  0  0  0  0  0
    7.8516  -12.8632   20.6566 N   0  0  0  0  0  0  0  0  0  0  0  0
    7.9891  -13.5192   22.9327 C   0  0  0  0  0  0  0  0  0  0  0  0
    9.1921  -13.1806   23.0282 O   0  0  0  0  0  0  0  0  0  0  0  0
    6.4668  -17.4591   16.1499 C   0  0  0  0  0  0  0  0  0  0  0  0
    7.3118  -12.7792   27.7378 C   0  0  2  0  0  0  0  0  0  0  0  0
    6.8471  -12.8921   26.3284 C   0  0  0  0  0  0  0  0  0  0  0  0
    6.4295  -11.5189   25.8605 C   0  0  1  0  0  0  0  0  0  0  0  0
    7.9421  -13.4339   25.4234 N   0  0  0  0  0  0  0  0  0  0  0  0
    7.2653  -13.6434   24.1397 C   0  0  0  0  0  0  0  0  0  0  0  0
    8.5726  -14.6539   25.8985 O   0  0  0  0  0  0  0  0  0  0  0  0
    9.1862  -14.6138   27.0213 N   0  0  0  0  0  0  0  0  0  0  0  0
    8.5907  -15.9129   25.2594 C   0  0  2  0  0  0  0  0  0  0  0  0
    9.3458  -17.0402   25.8040 C   0  0  0  0  0  0  0  0  0  0  0  0
   10.5479  -17.3580   24.9182 C   0  0  0  0  0  0  0  0  0  0  0  0
   11.3642  -18.4445   25.4934 O   0  0  0  0  0  0  0  0  0  0  0  0
   11.0806  -19.0690   26.5442 C   0  0  0  0  0  0  0  0  0  0  0  0
    9.8933  -16.6360   27.1136 O   0  0  0  0  0  0  0  0  0  0  0  0
    9.7027  -17.3482   28.2908 O   0  0  0  0  0  0  0  0  0  0  0  0
   12.5560  -18.8507   24.8617 O   0  0  0  0  0  0  0  0  0  0  0  0
  2  3  2  0
  2  1  1  0
  4  2  1  0
  5  4  1  0
  6  5  1  0
  7  6  1  0
  8  7  1  0
  8  9  1  6
 10  8  1  0
 11 10  2  0
 13 12  1  1
 13 14  1  0
 15 13  1  0
 15 16  1  1
 16 10  1  0
 17 19  1  0
 17 15  1  0
 18 17  2  0
 20 19  1  0
 20 21  1  6
 21 22  1  0
 22 26  1  0
 23 22  2  0
 24 25  1  0
 24 20  1  0
 27 24  2  0
M  END
$$$$
