RVD.pdb
     RDKit          3D

 27 26  0  0  1  0  0  0  0  0999 V2000
   12.5556  -19.0396   15.3664 N   0  0  0  0  0  0  0  0  0  0  0  0
   13.7349  -19.8426   15.3453 C   0  0  0  0  0  0  0  0  0  0  0  0
   13.6637  -21.1157   15.2243 N   0  0  0  0  0  0  0  0  0  0  0  0
   15.0272  -19.2555   15.4567 N   0  0  0  0  0  0  0  0  0  0  0  0
   15.2401  -17.8330   15.4366 C   0  0  0  0  0  0  0  0  0  0  0  0
   15.2045  -17.2317   16.8468 C   0  0  0  0  0  0  0  0  0  0  0  0
   15.3748  -15.7504   16.6637 C   0  0  0  0  0  0  0  0  0  0  0  0
   14.0806  -15.0137   16.3872 C   0  0  2  0  0  0  0  0  0  0  0  0
   14.4610  -13.8047   15.6417 N   0  0  0  0  0  0  0  0  0  0  0  0
   13.5086  -14.5704   17.6756 C   0  0  0  0  0  0  0  0  0  0  0  0
   14.0793  -13.7873   18.4704 O   0  0  0  0  0  0  0  0  0  0  0  0
   14.4609  -21.7771   15.2627 C   0  0  0  0  0  0  0  0  0  0  0  0
    9.4341  -14.2997   20.3637 C   0  0  1  0  0  0  0  0  0  0  0  0
   10.1809  -14.6037   19.1126 C   0  0  0  0  0  0  0  0  0  0  0  0
    9.8870  -13.5110   18.1134 C   0  0  1  0  0  0  0  0  0  0  0  0
   11.6783  -14.6830   19.3639 N   0  0  0  0  0  0  0  0  0  0  0  0
   12.2349  -15.0481   18.0575 C   0  0  0  0  0  0  0  0  0  0  0  0
   12.0706  -15.6302   20.3938 O   0  0  0  0  0  0  0  0  0  0  0  0
   11.8185  -16.8696   20.1962 N   0  0  0  0  0  0  0  0  0  0  0  0
   12.7154  -15.3457   21.6174 C   0  0  1  0  0  0  0  0  0  0  0  0
   13.1790  -16.4093   22.5070 C   0  0  0  0  0  0  0  0  0  0  0  0
   14.2711  -15.8903   23.4392 C   0  0  0  0  0  0  0  0  0  0  0  0
   15.4675  -15.4742   22.6823 O   0  0  0  0  0  0  0  0  0  0  0  0
   15.7076  -15.7989   21.4942 C   0  0  0  0  0  0  0  0  0  0  0  0
   12.0519  -16.8073   23.3728 O   0  0  0  0  0  0  0  0  0  0  0  0
   12.0547  -17.9330   24.1866 O   0  0  0  0  0  0  0  0  0  0  0  0
   16.4426  -14.6556   23.2853 O   0  0  0  0  0  0  0  0  0  0  0  0
  2  3  2  0
  2  1  1  0
  4  2  1  0
  5  4  1  0
  6  5  1  0
  7  6  1  0
  8  7  1  0
  8  9  1  6
 10  8  1  0
 11 10  2  0
 13 12  1  6
 13 14  1  0
 15 13  1  0
 15 16  1  6
 16 10  1  0
 17 19  1  0
 17 15  1  0
 18 17  2  0
 20 19  1  0
 20 21  1  1
 21 22  1  0
 22 26  1  0
 23 22  2  0
 24 25  1  0
 24 20  1  0
 27 24  2  0
M  END
$$$$
