RVD.pdb
     RDKit          3D

 27 26  0  0  1  0  0  0  0  0999 V2000
    8.5063  -12.9310   15.6974 N   0  0  0  0  0  0  0  0  0  0  0  0
    7.8489  -14.1656   15.9793 C   0  0  0  0  0  0  0  0  0  0  0  0
    7.9926  -15.1798   15.2103 N   0  0  0  0  0  0  0  0  0  0  0  0
    7.0140  -14.3105   17.1235 N   0  0  0  0  0  0  0  0  0  0  0  0
    7.4923  -14.1140   18.4658 C   0  0  0  0  0  0  0  0  0  0  0  0
    7.6109  -15.4393   19.2280 C   0  0  0  0  0  0  0  0  0  0  0  0
    8.2128  -15.0919   20.5600 C   0  0  0  0  0  0  0  0  0  0  0  0
    7.1901  -14.8412   21.6486 C   0  0  2  0  0  0  0  0  0  0  0  0
    6.3569  -13.7303   21.1652 N   0  0  0  0  0  0  0  0  0  0  0  0
    7.8968  -14.3638   22.8554 C   0  0  0  0  0  0  0  0  0  0  0  0
    8.9055  -13.6202   22.8363 O   0  0  0  0  0  0  0  0  0  0  0  0
    7.5757  -16.1178   15.3543 C   0  0  0  0  0  0  0  0  0  0  0  0
    7.6388  -13.2075   27.4833 C   0  0  2  0  0  0  0  0  0  0  0  0
    7.0847  -13.6640   26.1795 C   0  0  0  0  0  0  0  0  0  0  0  0
    6.5539  -12.4558   25.4464 C   0  0  1  0  0  0  0  0  0  0  0  0
    8.1446  -14.3541   25.3357 N   0  0  0  0  0  0  0  0  0  0  0  0
    7.4218  -14.7592   24.1260 C   0  0  0  0  0  0  0  0  0  0  0  0
    8.7864  -15.4887   25.9779 O   0  0  0  0  0  0  0  0  0  0  0  0
    8.0452  -16.4604   26.3591 N   0  0  0  0  0  0  0  0  0  0  0  0
   10.1639  -15.6583   26.2383 C   0  0  1  0  0  0  0  0  0  0  0  0
   10.6769  -16.8481   26.9157 C   0  0  0  0  0  0  0  0  0  0  0  0
   12.1456  -17.0732   26.5646 C   0  0  0  0  0  0  0  0  0  0  0  0
   12.3678  -16.9824   25.1085 O   0  0  0  0  0  0  0  0  0  0  0  0
   11.6873  -17.5871   24.2448 C   0  0  0  0  0  0  0  0  0  0  0  0
   10.6331  -16.6027   28.3704 O   0  0  0  0  0  0  0  0  0  0  0  0
   10.8745  -17.5756   29.3319 O   0  0  0  0  0  0  0  0  0  0  0  0
   13.4024  -16.1760   24.5950 O   0  0  0  0  0  0  0  0  0  0  0  0
  2  3  2  0
  2  1  1  0
  4  2  1  0
  5  4  1  0
  6  5  1  0
  7  6  1  0
  8  7  1  0
  8  9  1  6
 10  8  1  0
 11 10  2  0
 13 12  1  1
 13 14  1  0
 15 13  1  0
 15 16  1  1
 16 10  1  0
 17 19  1  0
 17 15  1  0
 18 17  2  0
 20 19  1  0
 20 21  1  1
 21 22  1  0
 22 26  1  0
 23 22  2  0
 24 25  1  0
 24 20  1  0
 27 24  2  0
M  END
$$$$
