RVD.pdb
     RDKit          3D

 27 26  0  0  1  0  0  0  0  0999 V2000
    8.6436  -12.7323   17.9082 N   0  0  0  0  0  0  0  0  0  0  0  0
    7.8607  -12.5304   19.0839 C   0  0  0  0  0  0  0  0  0  0  0  0
    7.8307  -11.3911   19.6686 N   0  0  0  0  0  0  0  0  0  0  0  0
    7.0874  -13.5867   19.6437 N   0  0  0  0  0  0  0  0  0  0  0  0
    7.5536  -14.9463   19.7014 C   0  0  0  0  0  0  0  0  0  0  0  0
    8.6243  -15.1360   20.7826 C   0  0  0  0  0  0  0  0  0  0  0  0
    8.7709  -16.6210   20.9561 C   0  0  0  0  0  0  0  0  0  0  0  0
    8.2480  -17.1385   22.2801 C   0  0  2  0  0  0  0  0  0  0  0  0
    6.8013  -16.8761   22.2678 N   0  0  0  0  0  0  0  0  0  0  0  0
    8.8306  -16.3227   23.3658 C   0  0  0  0  0  0  0  0  0  0  0  0
   10.0418  -16.0104   23.4435 O   0  0  0  0  0  0  0  0  0  0  0  0
    7.3472  -11.1760   20.5598 C   0  0  0  0  0  0  0  0  0  0  0  0
    7.7236  -13.3275   27.0933 C   0  0  2  0  0  0  0  0  0  0  0  0
    7.3623  -14.1831   25.9303 C   0  0  0  0  0  0  0  0  0  0  0  0
    6.9235  -13.2809   24.8023 C   0  0  1  0  0  0  0  0  0  0  0  0
    8.5379  -15.0359   25.4805 N   0  0  0  0  0  0  0  0  0  0  0  0
    7.9850  -15.8524   24.3955 C   0  0  0  0  0  0  0  0  0  0  0  0
    9.1221  -15.8614   26.5240 O   0  0  0  0  0  0  0  0  0  0  0  0
    8.3431  -16.6323   27.1855 N   0  0  0  0  0  0  0  0  0  0  0  0
   10.4798  -15.9224   26.9075 C   0  0  1  0  0  0  0  0  0  0  0  0
   10.9348  -16.7981   27.9862 C   0  0  0  0  0  0  0  0  0  0  0  0
   12.4023  -17.1713   27.7907 C   0  0  0  0  0  0  0  0  0  0  0  0
   12.5941  -17.9613   26.5592 O   0  0  0  0  0  0  0  0  0  0  0  0
   11.6626  -18.4288   25.8602 C   0  0  0  0  0  0  0  0  0  0  0  0
   10.8662  -16.0413   29.2515 O   0  0  0  0  0  0  0  0  0  0  0  0
   10.8738  -16.6273   30.5108 O   0  0  0  0  0  0  0  0  0  0  0  0
   13.8916  -18.2421   26.0881 O   0  0  0  0  0  0  0  0  0  0  0  0
  2  3  2  0
  2  1  1  0
  4  2  1  0
  5  4  1  0
  6  5  1  0
  7  6  1  0
  8  7  1  0
  8  9  1  6
 10  8  1  0
 11 10  2  0
 13 12  1  1
 13 14  1  0
 15 13  1  0
 15 16  1  1
 16 10  1  0
 17 19  1  0
 17 15  1  0
 18 17  2  0
 20 19  1  0
 20 21  1  1
 21 22  1  0
 22 26  1  0
 23 22  2  0
 24 25  1  0
 24 20  1  0
 27 24  2  0
M  END
$$$$
