RVD.pdb
     RDKit          3D

 27 26  0  0  1  0  0  0  0  0999 V2000
    7.7690  -17.8679   17.8890 N   0  0  0  0  0  0  0  0  0  0  0  0
    6.8360  -17.1559   17.0775 C   0  0  0  0  0  0  0  0  0  0  0  0
    6.0233  -17.7775   16.3070 N   0  0  0  0  0  0  0  0  0  0  0  0
    6.7774  -15.7335   17.0988 N   0  0  0  0  0  0  0  0  0  0  0  0
    7.5675  -14.9354   17.9976 C   0  0  0  0  0  0  0  0  0  0  0  0
    7.7336  -15.6117   19.3638 C   0  0  0  0  0  0  0  0  0  0  0  0
    8.5392  -14.6560   20.1974 C   0  0  0  0  0  0  0  0  0  0  0  0
    7.6992  -13.7167   21.0378 C   0  0  2  0  0  0  0  0  0  0  0  0
    7.8200  -12.3964   20.4020 N   0  0  0  0  0  0  0  0  0  0  0  0
    8.3109  -13.6131   22.3790 C   0  0  0  0  0  0  0  0  0  0  0  0
    9.4199  -13.0772   22.6107 O   0  0  0  0  0  0  0  0  0  0  0  0
    5.3639  -17.3407   15.6371 C   0  0  0  0  0  0  0  0  0  0  0  0
    7.3835  -13.2978   27.0840 C   0  0  2  0  0  0  0  0  0  0  0  0
    7.0474  -13.3772   25.6363 C   0  0  0  0  0  0  0  0  0  0  0  0
    6.7865  -11.9765   25.1376 C   0  0  1  0  0  0  0  0  0  0  0  0
    8.1770  -14.0067   24.8367 N   0  0  0  0  0  0  0  0  0  0  0  0
    7.6177  -14.1466   23.4886 C   0  0  0  0  0  0  0  0  0  0  0  0
    8.6481  -15.2808   25.3529 O   0  0  0  0  0  0  0  0  0  0  0  0
    7.7981  -16.2306   25.4727 N   0  0  0  0  0  0  0  0  0  0  0  0
    9.9632  -15.6111   25.7469 C   0  0  1  0  0  0  0  0  0  0  0  0
   10.3031  -16.9405   26.2516 C   0  0  0  0  0  0  0  0  0  0  0  0
   11.7595  -17.2760   25.9398 C   0  0  0  0  0  0  0  0  0  0  0  0
   12.0791  -17.0085   24.5242 O   0  0  0  0  0  0  0  0  0  0  0  0
   11.4704  -17.5116   23.5490 C   0  0  0  0  0  0  0  0  0  0  0  0
   10.1911  -16.9152   27.7230 O   0  0  0  0  0  0  0  0  0  0  0  0
   10.2401  -18.0466   28.5273 O   0  0  0  0  0  0  0  0  0  0  0  0
   13.1317  -16.1363   24.1843 O   0  0  0  0  0  0  0  0  0  0  0  0
  2  3  2  0
  2  1  1  0
  4  2  1  0
  5  4  1  0
  6  5  1  0
  7  6  1  0
  8  7  1  0
  8  9  1  6
 10  8  1  0
 11 10  2  0
 13 12  1  1
 13 14  1  0
 15 13  1  0
 15 16  1  1
 16 10  1  0
 17 19  1  0
 17 15  1  0
 18 17  2  0
 20 19  1  0
 20 21  1  1
 21 22  1  0
 22 26  1  0
 23 22  2  0
 24 25  1  0
 24 20  1  0
 27 24  2  0
M  END
$$$$
