RVD.pdb
     RDKit          3D

 27 26  0  0  1  0  0  0  0  0999 V2000
    7.5147  -16.3299   16.0120 N   0  0  0  0  0  0  0  0  0  0  0  0
    7.9881  -14.9892   15.8925 C   0  0  0  0  0  0  0  0  0  0  0  0
    8.8992  -14.6846   15.0453 N   0  0  0  0  0  0  0  0  0  0  0  0
    7.4629  -13.9477   16.7090 N   0  0  0  0  0  0  0  0  0  0  0  0
    7.8427  -13.7711   18.0851 C   0  0  0  0  0  0  0  0  0  0  0  0
    7.2625  -14.8713   18.9819 C   0  0  0  0  0  0  0  0  0  0  0  0
    7.9022  -14.6809   20.3278 C   0  0  0  0  0  0  0  0  0  0  0  0
    7.4023  -13.4637   21.0779 C   0  0  2  0  0  0  0  0  0  0  0  0
    7.9231  -12.3009   20.3439 N   0  0  0  0  0  0  0  0  0  0  0  0
    8.0258  -13.4493   22.4176 C   0  0  0  0  0  0  0  0  0  0  0  0
    9.2204  -13.1409   22.6382 O   0  0  0  0  0  0  0  0  0  0  0  0
    9.3231  -13.7475   14.9168 C   0  0  0  0  0  0  0  0  0  0  0  0
    7.1239  -12.9987   27.1536 C   0  0  2  0  0  0  0  0  0  0  0  0
    6.7151  -13.1254   25.7281 C   0  0  0  0  0  0  0  0  0  0  0  0
    6.3831  -11.7466   25.2108 C   0  0  1  0  0  0  0  0  0  0  0  0
    7.8210  -13.7397   24.8848 N   0  0  0  0  0  0  0  0  0  0  0  0
    7.2425  -13.8032   23.5390 C   0  0  0  0  0  0  0  0  0  0  0  0
    8.2706  -15.0466   25.3337 O   0  0  0  0  0  0  0  0  0  0  0  0
    7.4025  -15.9839   25.4156 N   0  0  0  0  0  0  0  0  0  0  0  0
    9.5822  -15.4219   25.6980 C   0  0  1  0  0  0  0  0  0  0  0  0
    9.8743  -16.7343   26.2723 C   0  0  0  0  0  0  0  0  0  0  0  0
   11.3010  -17.1612   25.9356 C   0  0  0  0  0  0  0  0  0  0  0  0
   11.5255  -17.1744   24.4771 O   0  0  0  0  0  0  0  0  0  0  0  0
   10.9303  -17.9302   23.6714 C   0  0  0  0  0  0  0  0  0  0  0  0
    9.8150  -16.6155   27.7423 O   0  0  0  0  0  0  0  0  0  0  0  0
    9.8574  -17.6966   28.6133 O   0  0  0  0  0  0  0  0  0  0  0  0
   12.4623  -16.2995   23.8929 O   0  0  0  0  0  0  0  0  0  0  0  0
  2  3  2  0
  2  1  1  0
  4  2  1  0
  5  4  1  0
  6  5  1  0
  7  6  1  0
  8  7  1  0
  8  9  1  6
 10  8  1  0
 11 10  2  0
 13 12  1  1
 13 14  1  0
 15 13  1  0
 15 16  1  1
 16 10  1  0
 17 19  1  0
 17 15  1  0
 18 17  2  0
 20 19  1  0
 20 21  1  1
 21 22  1  0
 22 26  1  0
 23 22  2  0
 24 25  1  0
 24 20  1  0
 27 24  2  0
M  END
$$$$
