RVD.pdb
     RDKit          3D

 27 26  0  0  1  0  0  0  0  0999 V2000
    6.1397  -17.3502   16.8346 N   0  0  0  0  0  0  0  0  0  0  0  0
    7.5661  -17.3857   16.8313 C   0  0  0  0  0  0  0  0  0  0  0  0
    8.2229  -17.4029   15.7317 N   0  0  0  0  0  0  0  0  0  0  0  0
    8.3048  -17.4020   18.0484 N   0  0  0  0  0  0  0  0  0  0  0  0
    7.6744  -17.4191   19.3412 C   0  0  0  0  0  0  0  0  0  0  0  0
    7.0809  -16.0525   19.7038 C   0  0  0  0  0  0  0  0  0  0  0  0
    7.9304  -15.5225   20.8238 C   0  0  0  0  0  0  0  0  0  0  0  0
    7.4544  -14.1966   21.3802 C   0  0  2  0  0  0  0  0  0  0  0  0
    7.9513  -13.1720   20.4501 N   0  0  0  0  0  0  0  0  0  0  0  0
    8.1202  -13.9667   22.6793 C   0  0  0  0  0  0  0  0  0  0  0  0
    9.3138  -13.6071   22.8081 O   0  0  0  0  0  0  0  0  0  0  0  0
    9.2550  -17.4207   15.6385 C   0  0  0  0  0  0  0  0  0  0  0  0
    7.3463  -13.0187   27.3912 C   0  0  2  0  0  0  0  0  0  0  0  0
    6.9203  -13.2370   25.9819 C   0  0  0  0  0  0  0  0  0  0  0  0
    6.5908  -11.8933   25.3778 C   0  0  1  0  0  0  0  0  0  0  0  0
    8.0125  -13.9136   25.1691 N   0  0  0  0  0  0  0  0  0  0  0  0
    7.3817  -14.1590   23.8685 C   0  0  0  0  0  0  0  0  0  0  0  0
    8.5287  -15.1411   25.7509 O   0  0  0  0  0  0  0  0  0  0  0  0
    7.7043  -16.0971   25.9633 N   0  0  0  0  0  0  0  0  0  0  0  0
    9.8635  -15.4187   26.1185 C   0  0  1  0  0  0  0  0  0  0  0  0
   10.2306  -16.6590   26.8000 C   0  0  0  0  0  0  0  0  0  0  0  0
   11.5871  -17.1590   26.3091 C   0  0  0  0  0  0  0  0  0  0  0  0
   11.5775  -17.3882   24.8514 O   0  0  0  0  0  0  0  0  0  0  0  0
   10.8254  -18.2024   24.2631 C   0  0  0  0  0  0  0  0  0  0  0  0
   10.3950  -16.3621   28.2363 O   0  0  0  0  0  0  0  0  0  0  0  0
   10.3868  -15.0809   28.7726 O   0  0  0  0  0  0  0  0  0  0  0  0
   12.4530  -16.6716   24.0121 O   0  0  0  0  0  0  0  0  0  0  0  0
  2  3  2  0
  2  1  1  0
  4  2  1  0
  5  4  1  0
  6  5  1  0
  7  6  1  0
  8  7  1  0
  8  9  1  6
 10  8  1  0
 11 10  2  0
 13 12  1  1
 13 14  1  0
 15 13  1  0
 15 16  1  1
 16 10  1  0
 17 19  1  0
 17 15  1  0
 18 17  2  0
 20 19  1  0
 20 21  1  1
 21 22  1  0
 22 26  1  0
 23 22  2  0
 24 25  1  0
 24 20  1  0
 27 24  2  0
M  END
$$$$
