RVD.pdb
     RDKit          3D

 27 26  0  0  1  0  0  0  0  0999 V2000
    9.4518  -13.4901   21.0098 N   0  0  0  0  0  0  0  0  0  0  0  0
    8.8226  -12.7217   19.9853 C   0  0  0  0  0  0  0  0  0  0  0  0
    8.9446  -11.4472   19.9478 N   0  0  0  0  0  0  0  0  0  0  0  0
    8.0409  -13.3459   18.9721 N   0  0  0  0  0  0  0  0  0  0  0  0
    7.0220  -14.3184   19.2638 C   0  0  0  0  0  0  0  0  0  0  0  0
    7.0594  -14.7600   20.7318 C   0  0  0  0  0  0  0  0  0  0  0  0
    7.7647  -16.0864   20.7416 C   0  0  0  0  0  0  0  0  0  0  0  0
    7.7273  -16.7911   22.0817 C   0  0  2  0  0  0  0  0  0  0  0  0
    6.3041  -16.9070   22.4322 N   0  0  0  0  0  0  0  0  0  0  0  0
    8.3555  -15.9135   23.0911 C   0  0  0  0  0  0  0  0  0  0  0  0
    9.5390  -15.5049   23.0343 O   0  0  0  0  0  0  0  0  0  0  0  0
    8.5238  -10.8152   19.2422 C   0  0  0  0  0  0  0  0  0  0  0  0
    7.5107  -12.9805   26.9223 C   0  0  2  0  0  0  0  0  0  0  0  0
    7.0707  -13.8361   25.7868 C   0  0  0  0  0  0  0  0  0  0  0  0
    6.5553  -12.9340   24.6916 C   0  0  1  0  0  0  0  0  0  0  0  0
    8.2130  -14.6885   25.2573 N   0  0  0  0  0  0  0  0  0  0  0  0
    7.5903  -15.4945   24.2026 C   0  0  0  0  0  0  0  0  0  0  0  0
    8.8587  -15.5242   26.2554 O   0  0  0  0  0  0  0  0  0  0  0  0
    8.1312  -16.3535   26.9048 N   0  0  0  0  0  0  0  0  0  0  0  0
   10.2267  -15.5374   26.6054 C   0  0  1  0  0  0  0  0  0  0  0  0
   10.7543  -16.4617   27.6078 C   0  0  0  0  0  0  0  0  0  0  0  0
   12.2404  -16.7188   27.3702 C   0  0  0  0  0  0  0  0  0  0  0  0
   12.4916  -17.1662   25.9866 O   0  0  0  0  0  0  0  0  0  0  0  0
   13.1216  -16.5039   25.1269 C   0  0  0  0  0  0  0  0  0  0  0  0
   10.6538  -15.8119   28.9292 O   0  0  0  0  0  0  0  0  0  0  0  0
   10.7182  -16.4922   30.1385 O   0  0  0  0  0  0  0  0  0  0  0  0
   12.0136  -18.4152   25.5443 O   0  0  0  0  0  0  0  0  0  0  0  0
  2  3  2  0
  2  1  1  0
  4  2  1  0
  5  4  1  0
  6  5  1  0
  7  6  1  0
  8  7  1  0
  8  9  1  1
 10  8  1  0
 11 10  2  0
 13 12  1  1
 13 14  1  0
 15 13  1  0
 15 16  1  1
 16 10  1  0
 17 19  1  0
 17 15  1  0
 18 17  2  0
 20 19  1  0
 20 21  1  1
 21 22  1  0
 22 26  1  0
 23 22  2  0
 24 25  1  0
 24 20  1  0
 27 24  2  0
M  END
$$$$
