RVD.pdb
     RDKit          3D

 27 26  0  0  1  0  0  0  0  0999 V2000
    7.3185  -15.0833   16.1258 N   0  0  0  0  0  0  0  0  0  0  0  0
    7.9663  -13.8777   16.5295 C   0  0  0  0  0  0  0  0  0  0  0  0
    8.3268  -13.0021   15.6669 N   0  0  0  0  0  0  0  0  0  0  0  0
    8.2317  -13.6087   17.9022 N   0  0  0  0  0  0  0  0  0  0  0  0
    8.3841  -14.6491   18.8838 C   0  0  0  0  0  0  0  0  0  0  0  0
    7.3610  -14.5163   20.0183 C   0  0  0  0  0  0  0  0  0  0  0  0
    8.1302  -14.0088   21.2047 C   0  0  0  0  0  0  0  0  0  0  0  0
    8.6227  -15.1023   22.1299 C   0  0  2  0  0  0  0  0  0  0  0  0
    7.4904  -16.0256   22.2946 N   0  0  0  0  0  0  0  0  0  0  0  0
    8.8976  -14.5077   23.4545 C   0  0  0  0  0  0  0  0  0  0  0  0
    9.8587  -13.7417   23.6999 O   0  0  0  0  0  0  0  0  0  0  0  0
    8.8899  -12.1533   15.8588 C   0  0  0  0  0  0  0  0  0  0  0  0
    6.9785  -12.9306   27.5452 C   0  0  2  0  0  0  0  0  0  0  0  0
    6.9210  -13.6171   26.2259 C   0  0  0  0  0  0  0  0  0  0  0  0
    6.4983  -12.6054   25.1883 C   0  0  1  0  0  0  0  0  0  0  0  0
    8.2690  -14.2101   25.8482 N   0  0  0  0  0  0  0  0  0  0  0  0
    8.0329  -14.8086   24.5307 C   0  0  0  0  0  0  0  0  0  0  0  0
    8.7875  -15.1862   26.7916 O   0  0  0  0  0  0  0  0  0  0  0  0
    8.9766  -14.8102   28.0006 N   0  0  0  0  0  0  0  0  0  0  0  0
    9.1151  -16.5354   26.5339 C   0  0  1  0  0  0  0  0  0  0  0  0
    9.7021  -17.3934   27.5619 C   0  0  0  0  0  0  0  0  0  0  0  0
    9.7880  -18.8364   27.0708 C   0  0  0  0  0  0  0  0  0  0  0  0
    8.4836  -19.3093   26.5682 O   0  0  0  0  0  0  0  0  0  0  0  0
    7.4202  -18.6445   26.6108 C   0  0  0  0  0  0  0  0  0  0  0  0
   11.0917  -16.9514   27.7900 O   0  0  0  0  0  0  0  0  0  0  0  0
   11.8470  -17.2997   28.9025 O   0  0  0  0  0  0  0  0  0  0  0  0
    8.3642  -20.5886   25.9909 O   0  0  0  0  0  0  0  0  0  0  0  0
  2  3  2  0
  2  1  1  0
  4  2  1  0
  5  4  1  0
  6  5  1  0
  7  6  1  0
  8  7  1  0
  8  9  1  1
 10  8  1  0
 11 10  2  0
 13 12  1  1
 13 14  1  0
 15 13  1  0
 15 16  1  1
 16 10  1  0
 17 19  1  0
 17 15  1  0
 18 17  2  0
 20 19  1  0
 20 21  1  1
 21 22  1  0
 22 26  1  0
 23 22  2  0
 24 25  1  0
 24 20  1  0
 27 24  2  0
M  END
$$$$
