ECG.pdb
     RDKit          3D

 20 19  0  0  1  0  0  0  0  0999 V2000
   19.2231  -11.7469  -16.6140 N   0  0  0  0  0  0  0  0  0  0  0  0
   19.1398  -10.3815  -17.0277 C   0  0  1  0  0  0  0  0  0  0  0  0
   17.7437  -10.0872  -17.5701 C   0  0  0  0  0  0  0  0  0  0  0  0
   17.6585  -10.7435  -18.9206 C   0  0  0  0  0  0  0  0  0  0  0  0
   16.3592  -10.5514  -19.5786 C   0  0  0  0  0  0  0  0  0  0  0  0
   15.4787  -11.4209  -19.4815 O   0  0  0  0  0  0  0  0  0  0  0  0
   19.5420   -9.4199  -15.9915 C   0  0  0  0  0  0  0  0  0  0  0  0
   18.9595   -9.4738  -14.8780 O   0  0  0  0  0  0  0  0  0  0  0  0
   16.1256   -9.4078  -20.2992 O   0  0  0  0  0  0  0  0  0  0  0  0
   20.5423   -8.4291  -16.1502 N   0  0  0  0  0  0  0  0  0  0  0  0
   20.9433   -7.4995  -15.1439 C   0  0  1  0  0  0  0  0  0  0  0  0
   22.0421   -8.1354  -14.3109 C   0  0  0  0  0  0  0  0  0  0  0  0
   22.4669   -7.1043  -12.8889 S   0  0  0  0  0  0  0  0  0  0  0  0
   21.3104   -6.1777  -15.6503 C   0  0  0  0  0  0  0  0  0  0  0  0
   22.1740   -6.0970  -16.5645 O   0  0  0  0  0  0  0  0  0  0  0  0
   20.7615   -4.9551  -15.1857 N   0  0  0  0  0  0  0  0  0  0  0  0
   21.2149   -3.6606  -15.6070 C   0  0  0  0  0  0  0  0  0  0  0  0
   20.4416   -2.5520  -15.0445 C   0  0  0  0  0  0  0  0  0  0  0  0
   20.7968   -1.3777  -15.2914 O   0  0  0  0  0  0  0  0  0  0  0  0
   19.3297   -2.7435  -14.2480 O   0  0  0  0  0  0  0  0  0  0  0  0
  2  1  1  1
  2  3  1  0
  3  4  1  0
  4  5  1  0
  5  9  1  0
  6  5  2  0
  7  2  1  0
  7  8  2  0
 10  7  1  0
 11 10  1  0
 11 12  1  6
 13 12  1  0
 14 11  1  0
 15 14  2  0
 16 14  1  0
 17 16  1  0
 18 17  1  0
 18 20  1  0
 19 18  2  0
M  END
$$$$
