ECG.pdb
     RDKit          3D

 20 19  0  0  1  0  0  0  0  0999 V2000
   18.5221  -13.0633  -16.5985 N   0  0  0  0  0  0  0  0  0  0  0  0
   18.2672  -11.7938  -15.9935 C   0  0  1  0  0  0  0  0  0  0  0  0
   17.2446  -11.9493  -14.8710 C   0  0  0  0  0  0  0  0  0  0  0  0
   15.9348  -12.2928  -15.5254 C   0  0  0  0  0  0  0  0  0  0  0  0
   14.8314  -12.4505  -14.5685 C   0  0  0  0  0  0  0  0  0  0  0  0
   14.6289  -11.5824  -13.7047 O   0  0  0  0  0  0  0  0  0  0  0  0
   19.4790  -11.0956  -15.5417 C   0  0  0  0  0  0  0  0  0  0  0  0
   20.3132  -11.7430  -14.8582 O   0  0  0  0  0  0  0  0  0  0  0  0
   14.0282  -13.5605  -14.6353 O   0  0  0  0  0  0  0  0  0  0  0  0
   19.7833   -9.7397  -15.8180 N   0  0  0  0  0  0  0  0  0  0  0  0
   20.9692   -9.0635  -15.4007 C   0  0  1  0  0  0  0  0  0  0  0  0
   21.9991   -9.1670  -16.5116 C   0  0  0  0  0  0  0  0  0  0  0  0
   23.5121   -8.2738  -16.0885 S   0  0  0  0  0  0  0  0  0  0  0  0
   20.7575   -7.6879  -14.9520 C   0  0  0  0  0  0  0  0  0  0  0  0
   20.0859   -6.9091  -15.6804 O   0  0  0  0  0  0  0  0  0  0  0  0
   21.2572   -7.1495  -13.7386 N   0  0  0  0  0  0  0  0  0  0  0  0
   21.1486   -5.7673  -13.3693 C   0  0  0  0  0  0  0  0  0  0  0  0
   22.0930   -4.8933  -14.0677 C   0  0  0  0  0  0  0  0  0  0  0  0
   22.9029   -5.3987  -14.8769 O   0  0  0  0  0  0  0  0  0  0  0  0
   22.1319   -3.5265  -13.8733 O   0  0  0  0  0  0  0  0  0  0  0  0
  2  1  1  1
  2  3  1  0
  3  4  1  0
  4  5  1  0
  5  9  1  0
  6  5  2  0
  7  2  1  0
  7  8  2  0
 10  7  1  0
 11 10  1  0
 11 12  1  6
 13 12  1  0
 14 11  1  0
 15 14  2  0
 16 14  1  0
 17 16  1  0
 18 17  1  0
 18 20  1  0
 19 18  2  0
M  END
$$$$
