ECG.pdb
     RDKit          3D

 20 19  0  0  1  0  0  0  0  0999 V2000
   14.9328  -11.3979  -11.9422 N   0  0  0  0  0  0  0  0  0  0  0  0
   16.0009  -10.9196  -12.7625 C   0  0  1  0  0  0  0  0  0  0  0  0
   15.7173  -11.2452  -14.2266 C   0  0  0  0  0  0  0  0  0  0  0  0
   16.0740  -12.6930  -14.4232 C   0  0  0  0  0  0  0  0  0  0  0  0
   15.7723  -13.1871  -15.7734 C   0  0  0  0  0  0  0  0  0  0  0  0
   15.4012  -14.3601  -15.9376 O   0  0  0  0  0  0  0  0  0  0  0  0
   16.3118   -9.4967  -12.5652 C   0  0  0  0  0  0  0  0  0  0  0  0
   15.3525   -8.6851  -12.5089 O   0  0  0  0  0  0  0  0  0  0  0  0
   15.9030  -12.3459  -16.8490 O   0  0  0  0  0  0  0  0  0  0  0  0
   17.6179   -8.9638  -12.4325 N   0  0  0  0  0  0  0  0  0  0  0  0
   17.9299   -7.5754  -12.3191 C   0  0  1  0  0  0  0  0  0  0  0  0
   17.3344   -7.0519  -11.0242 C   0  0  0  0  0  0  0  0  0  0  0  0
   17.8901   -8.0250   -9.6064 S   0  0  0  0  0  0  0  0  0  0  0  0
   19.3511   -7.2596  -12.4566 C   0  0  0  0  0  0  0  0  0  0  0  0
   20.2006   -8.1141  -12.0873 O   0  0  0  0  0  0  0  0  0  0  0  0
   19.8600   -6.0447  -12.9827 N   0  0  0  0  0  0  0  0  0  0  0  0
   21.2581   -5.7422  -13.0950 C   0  0  0  0  0  0  0  0  0  0  0  0
   21.5326   -4.4119  -13.6411 C   0  0  0  0  0  0  0  0  0  0  0  0
   20.5892   -3.7496  -14.1286 O   0  0  0  0  0  0  0  0  0  0  0  0
   22.7940   -3.8495  -13.6433 O   0  0  0  0  0  0  0  0  0  0  0  0
  2  1  1  1
  2  3  1  0
  3  4  1  0
  4  5  1  0
  5  9  1  0
  6  5  2  0
  7  2  1  0
  7  8  2  0
 10  7  1  0
 11 10  1  0
 11 12  1  1
 13 12  1  0
 14 11  1  0
 15 14  2  0
 16 14  1  0
 17 16  1  0
 18 17  1  0
 18 20  1  0
 19 18  2  0
M  END
$$$$
