ECG.pdb
     RDKit          3D

 20 19  0  0  1  0  0  0  0  0999 V2000
   17.9366  -11.0419  -15.1997 N   0  0  0  0  0  0  0  0  0  0  0  0
   19.0246  -11.1174  -16.1233 C   0  0  1  0  0  0  0  0  0  0  0  0
   18.4990  -11.4360  -17.5204 C   0  0  0  0  0  0  0  0  0  0  0  0
   18.0330  -12.8657  -17.4902 C   0  0  0  0  0  0  0  0  0  0  0  0
   19.1281  -13.8362  -17.6196 C   0  0  0  0  0  0  0  0  0  0  0  0
   20.2985  -13.4404  -17.7393 O   0  0  0  0  0  0  0  0  0  0  0  0
   19.8927   -9.9315  -16.1188 C   0  0  0  0  0  0  0  0  0  0  0  0
   19.3452   -8.7991  -16.1172 O   0  0  0  0  0  0  0  0  0  0  0  0
   18.8500  -15.1793  -17.6074 O   0  0  0  0  0  0  0  0  0  0  0  0
   21.3092   -9.9644  -16.1161 N   0  0  0  0  0  0  0  0  0  0  0  0
   22.1566   -8.8156  -16.1152 C   0  0  1  0  0  0  0  0  0  0  0  0
   22.9728   -8.8201  -14.8348 C   0  0  0  0  0  0  0  0  0  0  0  0
   24.0551   -7.3758  -14.7422 S   0  0  0  0  0  0  0  0  0  0  0  0
   22.9832   -8.6703  -17.3126 C   0  0  0  0  0  0  0  0  0  0  0  0
   23.5444   -9.6928  -17.7899 O   0  0  0  0  0  0  0  0  0  0  0  0
   23.2086   -7.4465  -17.9933 N   0  0  0  0  0  0  0  0  0  0  0  0
   24.0316   -7.3179  -19.1616 C   0  0  0  0  0  0  0  0  0  0  0  0
   25.3686   -6.7885  -18.8869 C   0  0  0  0  0  0  0  0  0  0  0  0
   25.5117   -5.5557  -18.7257 O   0  0  0  0  0  0  0  0  0  0  0  0
   26.4879   -7.5925  -18.7965 O   0  0  0  0  0  0  0  0  0  0  0  0
  2  1  1  1
  2  3  1  0
  3  4  1  0
  4  5  1  0
  5  9  1  0
  6  5  2  0
  7  2  1  0
  7  8  2  0
 10  7  1  0
 11 10  1  0
 11 12  1  1
 13 12  1  0
 14 11  1  0
 15 14  2  0
 16 14  1  0
 17 16  1  0
 18 17  1  0
 18 20  1  0
 19 18  2  0
M  END
$$$$
