ECG.pdb
     RDKit          3D

 20 19  0  0  1  0  0  0  0  0999 V2000
   26.5230  -24.1274  -15.8977 N   0  0  0  0  0  0  0  0  0  0  0  0
   26.7143  -22.9219  -15.1542 C   0  0  1  0  0  0  0  0  0  0  0  0
   26.7441  -21.7260  -16.1024 C   0  0  0  0  0  0  0  0  0  0  0  0
   28.0435  -21.8052  -16.8556 C   0  0  0  0  0  0  0  0  0  0  0  0
   27.9062  -22.4071  -18.1886 C   0  0  0  0  0  0  0  0  0  0  0  0
   26.9345  -22.1172  -18.9044 O   0  0  0  0  0  0  0  0  0  0  0  0
   25.7473  -22.7355  -14.0632 C   0  0  0  0  0  0  0  0  0  0  0  0
   24.6172  -23.2759  -14.1772 O   0  0  0  0  0  0  0  0  0  0  0  0
   28.8563  -23.2895  -18.6361 O   0  0  0  0  0  0  0  0  0  0  0  0
   25.9906  -21.9888  -12.8839 N   0  0  0  0  0  0  0  0  0  0  0  0
   24.9899  -21.5750  -11.9538 C   0  0  1  0  0  0  0  0  0  0  0  0
   25.6733  -21.1658  -10.6611 C   0  0  0  0  0  0  0  0  0  0  0  0
   24.4751  -20.5727   -9.4452 S   0  0  0  0  0  0  0  0  0  0  0  0
   24.0773  -20.5507  -12.4600 C   0  0  0  0  0  0  0  0  0  0  0  0
   24.5613  -19.4874  -12.9326 O   0  0  0  0  0  0  0  0  0  0  0  0
   22.6631  -20.6602  -12.4618 N   0  0  0  0  0  0  0  0  0  0  0  0
   21.7795  -19.6333  -12.9344 C   0  0  0  0  0  0  0  0  0  0  0  0
   20.3756  -19.8541  -12.5824 C   0  0  0  0  0  0  0  0  0  0  0  0
   19.5367  -18.9639  -12.8466 O   0  0  0  0  0  0  0  0  0  0  0  0
   19.9308  -21.0080  -11.9675 O   0  0  0  0  0  0  0  0  0  0  0  0
  2  1  1  6
  2  3  1  0
  3  4  1  0
  4  5  1  0
  5  9  1  0
  6  5  2  0
  7  2  1  0
  7  8  2  0
 10  7  1  0
 11 10  1  0
 11 12  1  1
 13 12  1  0
 14 11  1  0
 15 14  2  0
 16 14  1  0
 17 16  1  0
 18 17  1  0
 18 20  1  0
 19 18  2  0
M  END
$$$$
