ECG.pdb
     RDKit          3D

 20 19  0  0  1  0  0  0  0  0999 V2000
   15.1040   -9.5688  -12.6479 N   0  0  0  0  0  0  0  0  0  0  0  0
   16.5176   -9.4339  -12.8091 C   0  0  1  0  0  0  0  0  0  0  0  0
   16.9192   -9.8326  -14.2268 C   0  0  0  0  0  0  0  0  0  0  0  0
   16.8084  -11.3306  -14.3013 C   0  0  0  0  0  0  0  0  0  0  0  0
   17.3112  -11.8880  -15.5640 C   0  0  0  0  0  0  0  0  0  0  0  0
   18.5316  -12.0338  -15.7368 O   0  0  0  0  0  0  0  0  0  0  0  0
   17.0348   -8.1079  -12.4427 C   0  0  0  0  0  0  0  0  0  0  0  0
   16.4588   -7.0969  -12.9206 O   0  0  0  0  0  0  0  0  0  0  0  0
   16.4255  -12.2454  -16.5487 O   0  0  0  0  0  0  0  0  0  0  0  0
   18.1400   -7.8776  -11.5865 N   0  0  0  0  0  0  0  0  0  0  0  0
   18.7428   -6.6056  -11.3491 C   0  0  1  0  0  0  0  0  0  0  0  0
   18.7464   -6.3459   -9.8530 C   0  0  0  0  0  0  0  0  0  0  0  0
   19.5327   -4.7660   -9.4636 S   0  0  0  0  0  0  0  0  0  0  0  0
   20.0625   -6.4367  -11.9557 C   0  0  0  0  0  0  0  0  0  0  0  0
   20.9306   -7.3330  -11.7786 O   0  0  0  0  0  0  0  0  0  0  0  0
   20.4516   -5.3229  -12.7432 N   0  0  0  0  0  0  0  0  0  0  0  0
   21.7591   -5.1594  -13.3111 C   0  0  0  0  0  0  0  0  0  0  0  0
   21.8819   -3.9903  -14.1838 C   0  0  0  0  0  0  0  0  0  0  0  0
   20.8640   -3.3035  -14.4248 O   0  0  0  0  0  0  0  0  0  0  0  0
   23.0783   -3.6075  -14.7579 O   0  0  0  0  0  0  0  0  0  0  0  0
  2  1  1  6
  2  3  1  0
  3  4  1  0
  4  5  1  0
  5  9  1  0
  6  5  2  0
  7  2  1  0
  7  8  2  0
 10  7  1  0
 11 10  1  0
 11 12  1  1
 13 12  1  0
 14 11  1  0
 15 14  2  0
 16 14  1  0
 17 16  1  0
 18 17  1  0
 18 20  1  0
 19 18  2  0
M  END
$$$$
