ECG.pdb
     RDKit          3D

 20 19  0  0  1  0  0  0  0  0999 V2000
   21.2107  -21.4473  -11.9186 N   0  0  0  0  0  0  0  0  0  0  0  0
   22.0705  -20.8302  -12.8790 C   0  0  1  0  0  0  0  0  0  0  0  0
   21.3623  -19.6403  -13.5215 C   0  0  0  0  0  0  0  0  0  0  0  0
   21.0152  -20.0520  -14.9258 C   0  0  0  0  0  0  0  0  0  0  0  0
   19.6588  -20.6021  -15.0510 C   0  0  0  0  0  0  0  0  0  0  0  0
   18.6807  -19.9350  -14.6782 O   0  0  0  0  0  0  0  0  0  0  0  0
   23.3908  -20.4636  -12.3473 C   0  0  0  0  0  0  0  0  0  0  0  0
   23.4385  -19.8923  -11.2277 O   0  0  0  0  0  0  0  0  0  0  0  0
   19.4804  -21.8545  -15.5814 O   0  0  0  0  0  0  0  0  0  0  0  0
   24.6235  -20.7053  -13.0026 N   0  0  0  0  0  0  0  0  0  0  0  0
   25.9103  -20.6055  -12.3926 C   0  0  1  0  0  0  0  0  0  0  0  0
   25.9357  -21.5071  -11.1711 C   0  0  0  0  0  0  0  0  0  0  0  0
   25.6128  -20.5718   -9.6589 S   0  0  0  0  0  0  0  0  0  0  0  0
   27.0319  -20.8487  -13.2987 C   0  0  0  0  0  0  0  0  0  0  0  0
   27.1019  -21.9578  -13.8930 O   0  0  0  0  0  0  0  0  0  0  0  0
   28.0679  -19.9180  -13.5677 N   0  0  0  0  0  0  0  0  0  0  0  0
   27.9571  -18.8454  -14.5143 C   0  0  0  0  0  0  0  0  0  0  0  0
   27.6974  -19.2914  -15.8844 C   0  0  0  0  0  0  0  0  0  0  0  0
   26.8870  -20.2257  -16.0750 O   0  0  0  0  0  0  0  0  0  0  0  0
   28.3102  -18.7244  -16.9847 O   0  0  0  0  0  0  0  0  0  0  0  0
  2  1  1  1
  2  3  1  0
  3  4  1  0
  4  5  1  0
  5  9  1  0
  6  5  2  0
  7  2  1  0
  7  8  2  0
 10  7  1  0
 11 10  1  0
 11 12  1  1
 13 12  1  0
 14 11  1  0
 15 14  2  0
 16 14  1  0
 17 16  1  0
 18 17  1  0
 18 20  1  0
 19 18  2  0
M  END
$$$$
