WGV.pdb
     RDKit          3D

 26 27  0  0  1  0  0  0  0  0999 V2000
    6.6512  -17.1916   23.7328 N   0  0  0  0  0  0  0  0  0  0  0  0
    7.8238  -16.3642   23.9869 C   0  0  1  0  0  0  0  0  0  0  0  0
    7.8321  -15.8585   25.4235 C   0  0  0  0  0  0  0  0  0  0  0  0
    6.7743  -14.8560   25.6349 C   0  0  0  0  0  0  0  0  0  0  0  0
    5.4521  -15.1004   25.9911 C   0  0  0  0  0  0  0  0  0  0  0  0
    4.7971  -13.9211   26.0869 N   0  0  0  0  0  0  0  0  0  0  0  0
    5.6568  -12.9199   25.8031 C   0  0  0  0  0  0  0  0  0  0  0  0
    5.5257  -11.5514   25.7522 C   0  0  0  0  0  0  0  0  0  0  0  0
    6.5833  -10.7255   25.4285 C   0  0  0  0  0  0  0  0  0  0  0  0
    7.7987  -11.3108   25.1514 C   0  0  0  0  0  0  0  0  0  0  0  0
    7.9365  -12.6865   25.2009 C   0  0  0  0  0  0  0  0  0  0  0  0
    6.8770  -13.4940   25.5240 C   0  0  0  0  0  0  0  0  0  0  0  0
    9.0408  -17.1613   23.7640 C   0  0  0  0  0  0  0  0  0  0  0  0
    9.0508  -18.3762   24.0329 O   0  0  0  0  0  0  0  0  0  0  0  0
   10.1986  -16.5495   23.2449 N   0  0  0  0  0  0  0  0  0  0  0  0
   11.5294  -17.0623   23.4634 C   0  0  0  0  0  0  0  0  0  0  0  0
   11.9962  -16.7924   24.8561 C   0  0  0  0  0  0  0  0  0  0  0  0
   13.2356  -16.8212   25.0955 O   0  0  0  0  0  0  0  0  0  0  0  0
   11.1655  -14.6242   29.1535 C   0  0  0  0  0  0  0  0  0  0  0  0
   10.9530  -14.9365   27.7133 C   0  0  1  0  0  0  0  0  0  0  0  0
   11.4326  -13.8454   26.7922 C   0  0  0  0  0  0  0  0  0  0  0  0
   11.5488  -16.2500   27.2750 C   0  0  2  0  0  0  0  0  0  0  0  0
   11.1243  -16.5073   25.9152 N   0  0  0  0  0  0  0  0  0  0  0  0
   11.2628  -17.3607   28.1844 C   0  0  0  0  0  0  0  0  0  0  0  0
   10.3730  -18.2108   27.9285 O   0  0  0  0  0  0  0  0  0  0  0  0
   11.9522  -17.5503   29.3857 O   0  0  0  0  0  0  0  0  0  0  0  0
  2  1  1  1
  3  2  1  0
  4  3  1  0
  5  4  2  0
  6  7  1  0
  6  5  1  0
  7 12  2  0
  8  7  1  0
  8  9  2  0
  9 10  1  0
 10 11  2  0
 12  4  1  0
 12 11  1  0
 13  2  1  0
 13 15  1  0
 14 13  2  0
 16 15  1  0
 17 16  1  0
 18 17  2  0
 20 19  1  1
 20 21  1  0
 22 20  1  0
 22 23  1  6
 23 17  1  0
 24 26  1  0
 24 22  1  0
 25 24  2  0
M  END
$$$$
