WGV.pdb
     RDKit          3D

 26 27  0  0  1  0  0  0  0  0999 V2000
    7.7958  -17.0357   23.3995 N   0  0  0  0  0  0  0  0  0  0  0  0
    8.6448  -15.8534   23.3264 C   0  0  1  0  0  0  0  0  0  0  0  0
    8.6813  -15.1259   24.6639 C   0  0  0  0  0  0  0  0  0  0  0  0
    7.3582  -14.5726   24.9987 C   0  0  0  0  0  0  0  0  0  0  0  0
    6.1734  -15.2831   25.1609 C   0  0  0  0  0  0  0  0  0  0  0  0
    5.1793  -14.4174   25.4628 N   0  0  0  0  0  0  0  0  0  0  0  0
    5.6859  -13.1668   25.5009 C   0  0  0  0  0  0  0  0  0  0  0  0
    5.1322  -11.9332   25.7546 C   0  0  0  0  0  0  0  0  0  0  0  0
    5.8826  -10.7748   25.7326 C   0  0  0  0  0  0  0  0  0  0  0  0
    7.2254  -10.8802   25.4454 C   0  0  0  0  0  0  0  0  0  0  0  0
    7.7875  -12.1181   25.1895 C   0  0  0  0  0  0  0  0  0  0  0  0
    7.0297  -13.2600   25.2149 C   0  0  0  0  0  0  0  0  0  0  0  0
   10.0157  -16.2582   22.9760 C   0  0  0  0  0  0  0  0  0  0  0  0
   10.7435  -15.4957   22.3147 O   0  0  0  0  0  0  0  0  0  0  0  0
   10.5076  -17.5119   23.3891 N   0  0  0  0  0  0  0  0  0  0  0  0
   11.8939  -17.7507   23.7096 C   0  0  0  0  0  0  0  0  0  0  0  0
   12.2253  -17.2757   25.0862 C   0  0  0  0  0  0  0  0  0  0  0  0
   13.4195  -17.3647   25.4863 O   0  0  0  0  0  0  0  0  0  0  0  0
    9.4093  -15.0040   27.2510 C   0  0  0  0  0  0  0  0  0  0  0  0
   10.8685  -14.9869   27.5459 C   0  0  1  0  0  0  0  0  0  0  0  0
   11.1876  -14.5014   28.9356 C   0  0  0  0  0  0  0  0  0  0  0  0
   11.5578  -16.3073   27.3138 C   0  0  2  0  0  0  0  0  0  0  0  0
   11.2736  -16.7336   25.9599 N   0  0  0  0  0  0  0  0  0  0  0  0
   11.2355  -17.3255   28.3147 C   0  0  0  0  0  0  0  0  0  0  0  0
   10.4489  -18.2730   28.0625 O   0  0  0  0  0  0  0  0  0  0  0  0
   11.7744  -17.3144   29.6045 O   0  0  0  0  0  0  0  0  0  0  0  0
  2  1  1  1
  3  2  1  0
  4  3  1  0
  5  4  2  0
  6  7  1  0
  6  5  1  0
  7 12  2  0
  8  7  1  0
  8  9  2  0
  9 10  1  0
 10 11  2  0
 12  4  1  0
 12 11  1  0
 13  2  1  0
 13 15  1  0
 14 13  2  0
 16 15  1  0
 17 16  1  0
 18 17  2  0
 20 19  1  1
 20 21  1  0
 22 20  1  0
 22 23  1  6
 23 17  1  0
 24 26  1  0
 24 22  1  0
 25 24  2  0
M  END
$$$$
