WGV.pdb
     RDKit          3D

 26 27  0  0  1  0  0  0  0  0999 V2000
    7.5666  -16.3723   22.9104 N   0  0  0  0  0  0  0  0  0  0  0  0
    8.6360  -15.5164   23.4083 C   0  0  1  0  0  0  0  0  0  0  0  0
    8.4771  -15.2594   24.9010 C   0  0  0  0  0  0  0  0  0  0  0  0
    7.1701  -14.6472   25.1937 C   0  0  0  0  0  0  0  0  0  0  0  0
    5.9924  -15.3108   25.5217 C   0  0  0  0  0  0  0  0  0  0  0  0
    5.0131  -14.3986   25.7162 N   0  0  0  0  0  0  0  0  0  0  0  0
    5.5223  -13.1635   25.5237 C   0  0  0  0  0  0  0  0  0  0  0  0
    4.9815  -11.9003   25.5906 C   0  0  0  0  0  0  0  0  0  0  0  0
    5.7315  -10.7681   25.3441 C   0  0  0  0  0  0  0  0  0  0  0  0
    7.0607  -10.9309   25.0227 C   0  0  0  0  0  0  0  0  0  0  0  0
    7.6100  -12.1988   24.9538 C   0  0  0  0  0  0  0  0  0  0  0  0
    6.8527  -13.3141   25.2013 C   0  0  0  0  0  0  0  0  0  0  0  0
    9.9328  -16.1745   23.1819 C   0  0  0  0  0  0  0  0  0  0  0  0
   10.1974  -16.6701   22.0716 O   0  0  0  0  0  0  0  0  0  0  0  0
   10.8787  -16.2448   24.2233 N   0  0  0  0  0  0  0  0  0  0  0  0
   12.0130  -17.1362   24.2023 C   0  0  0  0  0  0  0  0  0  0  0  0
   12.7514  -17.1104   25.5003 C   0  0  0  0  0  0  0  0  0  0  0  0
   13.7967  -16.4078   25.5883 O   0  0  0  0  0  0  0  0  0  0  0  0
   10.6299  -15.5585   29.0581 C   0  0  0  0  0  0  0  0  0  0  0  0
   11.1754  -16.0792   27.7744 C   0  0  1  0  0  0  0  0  0  0  0  0
   11.8392  -15.0173   26.9373 C   0  0  0  0  0  0  0  0  0  0  0  0
   12.1199  -17.2430   27.9352 C   0  0  2  0  0  0  0  0  0  0  0  0
   12.3405  -17.8296   26.6303 N   0  0  0  0  0  0  0  0  0  0  0  0
   11.6884  -18.2194   28.9367 C   0  0  0  0  0  0  0  0  0  0  0  0
   11.8266  -18.0070   30.1679 O   0  0  0  0  0  0  0  0  0  0  0  0
   11.0994  -19.4407   28.5965 O   0  0  0  0  0  0  0  0  0  0  0  0
  2  1  1  1
  3  2  1  0
  4  3  1  0
  5  4  2  0
  6  7  1  0
  6  5  1  0
  7 12  2  0
  8  7  1  0
  8  9  2  0
  9 10  1  0
 10 11  2  0
 12  4  1  0
 12 11  1  0
 13  2  1  0
 13 15  1  0
 14 13  2  0
 16 15  1  0
 17 16  1  0
 18 17  2  0
 20 19  1  1
 20 21  1  0
 22 20  1  0
 22 23  1  6
 23 17  1  0
 24 26  1  0
 24 22  1  0
 25 24  2  0
M  END
$$$$
