WGV.pdb
     RDKit          3D

 26 27  0  0  1  0  0  0  0  0999 V2000
    6.6744  -17.5518   23.4770 N   0  0  0  0  0  0  0  0  0  0  0  0
    7.6777  -16.5586   23.8386 C   0  0  1  0  0  0  0  0  0  0  0  0
    7.6186  -16.2422   25.3272 C   0  0  0  0  0  0  0  0  0  0  0  0
    6.6894  -15.1311   25.5930 C   0  0  0  0  0  0  0  0  0  0  0  0
    5.3821  -15.2296   26.0579 C   0  0  0  0  0  0  0  0  0  0  0  0
    4.8610  -13.9868   26.1720 N   0  0  0  0  0  0  0  0  0  0  0  0
    5.7930  -13.0863   25.7944 C   0  0  0  0  0  0  0  0  0  0  0  0
    5.7988  -11.7128   25.7162 C   0  0  0  0  0  0  0  0  0  0  0  0
    6.9058  -11.0080   25.2883 C   0  0  0  0  0  0  0  0  0  0  0  0
    8.0288  -11.7219   24.9334 C   0  0  0  0  0  0  0  0  0  0  0  0
    8.0286  -13.1033   25.0099 C   0  0  0  0  0  0  0  0  0  0  0  0
    6.9216  -13.7897   25.4368 C   0  0  0  0  0  0  0  0  0  0  0  0
    9.0171  -17.0812   23.5237 C   0  0  0  0  0  0  0  0  0  0  0  0
    9.2277  -18.3075   23.5309 O   0  0  0  0  0  0  0  0  0  0  0  0
   10.0651  -16.1926   23.2131 N   0  0  0  0  0  0  0  0  0  0  0  0
   11.4590  -16.5236   23.3839 C   0  0  0  0  0  0  0  0  0  0  0  0
   11.8652  -16.4502   24.8192 C   0  0  0  0  0  0  0  0  0  0  0  0
   13.0505  -16.7552   25.1293 O   0  0  0  0  0  0  0  0  0  0  0  0
   10.7862  -14.7133   29.3378 C   0  0  0  0  0  0  0  0  0  0  0  0
   10.5540  -14.8714   27.8756 C   0  0  1  0  0  0  0  0  0  0  0  0
   10.7648  -13.5975   27.0999 C   0  0  0  0  0  0  0  0  0  0  0  0
   11.3614  -15.9751   27.2412 C   0  0  2  0  0  0  0  0  0  0  0  0
   10.9935  -16.0579   25.8436 N   0  0  0  0  0  0  0  0  0  0  0  0
   11.2574  -17.2580   27.9380 C   0  0  0  0  0  0  0  0  0  0  0  0
   10.4396  -18.1413   27.5760 O   0  0  0  0  0  0  0  0  0  0  0  0
   12.0518  -17.5855   29.0407 O   0  0  0  0  0  0  0  0  0  0  0  0
  2  1  1  1
  3  2  1  0
  4  3  1  0
  5  4  2  0
  6  7  1  0
  6  5  1  0
  7 12  2  0
  8  7  1  0
  8  9  2  0
  9 10  1  0
 10 11  2  0
 12  4  1  0
 12 11  1  0
 13  2  1  0
 13 15  1  0
 14 13  2  0
 16 15  1  0
 17 16  1  0
 18 17  2  0
 20 19  1  1
 20 21  1  0
 22 20  1  0
 22 23  1  6
 23 17  1  0
 24 26  1  0
 24 22  1  0
 25 24  2  0
M  END
$$$$
