WGV.pdb
     RDKit          3D

 26 27  0  0  1  0  0  0  0  0999 V2000
    7.5862  -17.0430   24.1306 N   0  0  0  0  0  0  0  0  0  0  0  0
    8.4250  -15.9022   23.7858 C   0  0  1  0  0  0  0  0  0  0  0  0
    8.5361  -14.9346   24.9566 C   0  0  0  0  0  0  0  0  0  0  0  0
    7.2208  -14.3660   25.2964 C   0  0  0  0  0  0  0  0  0  0  0  0
    6.0847  -15.0667   25.6879 C   0  0  0  0  0  0  0  0  0  0  0  0
    5.0808  -14.1881   25.9098 N   0  0  0  0  0  0  0  0  0  0  0  0
    5.5338  -12.9387   25.6734 C   0  0  0  0  0  0  0  0  0  0  0  0
    4.9487  -11.6955   25.7424 C   0  0  0  0  0  0  0  0  0  0  0  0
    5.6436  -10.5410   25.4432 C   0  0  0  0  0  0  0  0  0  0  0  0
    6.9627  -10.6603   25.0659 C   0  0  0  0  0  0  0  0  0  0  0  0
    7.5563  -11.9079   24.9948 C   0  0  0  0  0  0  0  0  0  0  0  0
    6.8535  -13.0458   25.2949 C   0  0  0  0  0  0  0  0  0  0  0  0
    9.7749  -16.3761   23.4402 C   0  0  0  0  0  0  0  0  0  0  0  0
   10.5260  -15.6707   22.7426 O   0  0  0  0  0  0  0  0  0  0  0  0
   10.2201  -17.6312   23.8993 N   0  0  0  0  0  0  0  0  0  0  0  0
   11.6150  -17.9771   24.0268 C   0  0  0  0  0  0  0  0  0  0  0  0
   12.1424  -17.6273   25.3796 C   0  0  0  0  0  0  0  0  0  0  0  0
   13.3800  -17.7500   25.5973 O   0  0  0  0  0  0  0  0  0  0  0  0
   11.3363  -14.4665   27.3205 C   0  0  0  0  0  0  0  0  0  0  0  0
   11.1534  -15.6210   28.2427 C   0  0  1  0  0  0  0  0  0  0  0  0
    9.7094  -15.8936   28.5735 C   0  0  0  0  0  0  0  0  0  0  0  0
   11.7999  -16.8966   27.7659 C   0  0  2  0  0  0  0  0  0  0  0  0
   11.3294  -17.1675   26.4240 N   0  0  0  0  0  0  0  0  0  0  0  0
   11.6165  -18.0277   28.6766 C   0  0  0  0  0  0  0  0  0  0  0  0
   10.7874  -18.9412   28.4357 O   0  0  0  0  0  0  0  0  0  0  0  0
   12.3427  -18.1681   29.8628 O   0  0  0  0  0  0  0  0  0  0  0  0
  2  1  1  1
  3  2  1  0
  4  3  1  0
  5  4  2  0
  6  7  1  0
  6  5  1  0
  7 12  2  0
  8  7  1  0
  8  9  2  0
  9 10  1  0
 10 11  2  0
 12  4  1  0
 12 11  1  0
 13  2  1  0
 13 15  1  0
 14 13  2  0
 16 15  1  0
 17 16  1  0
 18 17  2  0
 20 19  1  6
 20 21  1  0
 22 20  1  0
 22 23  1  6
 23 17  1  0
 24 26  1  0
 24 22  1  0
 25 24  2  0
M  END
$$$$
