WGV.pdb
     RDKit          3D

 26 27  0  0  1  0  0  0  0  0999 V2000
   10.1275  -15.5017   22.5404 N   0  0  0  0  0  0  0  0  0  0  0  0
    9.2026  -15.5395   23.6661 C   0  0  1  0  0  0  0  0  0  0  0  0
    7.7583  -15.5642   23.1834 C   0  0  0  0  0  0  0  0  0  0  0  0
    7.2479  -14.1979   22.9797 C   0  0  0  0  0  0  0  0  0  0  0  0
    7.0231  -13.5639   21.7623 C   0  0  0  0  0  0  0  0  0  0  0  0
    6.5537  -12.3172   21.9956 N   0  0  0  0  0  0  0  0  0  0  0  0
    6.4678  -12.1255   23.3290 C   0  0  0  0  0  0  0  0  0  0  0  0
    6.0619  -11.0639   24.1041 C   0  0  0  0  0  0  0  0  0  0  0  0
    6.0677  -11.1191   25.4833 C   0  0  0  0  0  0  0  0  0  0  0  0
    6.4973  -12.2828   26.0815 C   0  0  0  0  0  0  0  0  0  0  0  0
    6.9068  -13.3536   25.3071 C   0  0  0  0  0  0  0  0  0  0  0  0
    6.8955  -13.2841   23.9382 C   0  0  0  0  0  0  0  0  0  0  0  0
    9.4514  -16.7528   24.4612 C   0  0  0  0  0  0  0  0  0  0  0  0
    8.6421  -17.1020   25.3396 O   0  0  0  0  0  0  0  0  0  0  0  0
   10.6080  -17.5226   24.2291 N   0  0  0  0  0  0  0  0  0  0  0  0
   11.0716  -18.5459   25.1345 C   0  0  0  0  0  0  0  0  0  0  0  0
   10.9881  -18.0953   26.5559 C   0  0  0  0  0  0  0  0  0  0  0  0
    9.8991  -18.2475   27.1764 O   0  0  0  0  0  0  0  0  0  0  0  0
   10.9176  -15.2198   27.5094 C   0  0  0  0  0  0  0  0  0  0  0  0
   11.2674  -15.8772   28.7987 C   0  0  1  0  0  0  0  0  0  0  0  0
   10.0725  -16.1270   29.6811 C   0  0  0  0  0  0  0  0  0  0  0  0
   12.0434  -17.1603   28.6434 C   0  0  2  0  0  0  0  0  0  0  0  0
   12.0623  -17.5097   27.2388 N   0  0  0  0  0  0  0  0  0  0  0  0
   11.5635  -18.2475   29.4978 C   0  0  0  0  0  0  0  0  0  0  0  0
   10.9685  -19.2473   29.0220 O   0  0  0  0  0  0  0  0  0  0  0  0
   11.7325  -18.2487   30.8855 O   0  0  0  0  0  0  0  0  0  0  0  0
  2  1  1  6
  3  2  1  0
  4  3  1  0
  5  4  2  0
  6  7  1  0
  6  5  1  0
  7 12  2  0
  8  7  1  0
  8  9  2  0
  9 10  1  0
 10 11  2  0
 12  4  1  0
 12 11  1  0
 13  2  1  0
 13 15  1  0
 14 13  2  0
 16 15  1  0
 17 16  1  0
 18 17  2  0
 20 19  1  6
 20 21  1  0
 22 20  1  0
 22 23  1  6
 23 17  1  0
 24 26  1  0
 24 22  1  0
 25 24  2  0
M  END
$$$$
