WGV.pdb
     RDKit          3D

 26 27  0  0  1  0  0  0  0  0999 V2000
    6.5984  -17.5126   24.0512 N   0  0  0  0  0  0  0  0  0  0  0  0
    7.7695  -16.6876   23.7825 C   0  0  1  0  0  0  0  0  0  0  0  0
    8.0639  -15.7619   24.9555 C   0  0  0  0  0  0  0  0  0  0  0  0
    6.9196  -14.8757   25.2271 C   0  0  0  0  0  0  0  0  0  0  0  0
    5.6344  -15.2610   25.5941 C   0  0  0  0  0  0  0  0  0  0  0  0
    4.8717  -14.1552   25.7510 N   0  0  0  0  0  0  0  0  0  0  0  0
    5.6257  -13.0650   25.4964 C   0  0  0  0  0  0  0  0  0  0  0  0
    5.3633  -11.7146   25.5064 C   0  0  0  0  0  0  0  0  0  0  0  0
    6.3301  -10.7779   25.2011 C   0  0  0  0  0  0  0  0  0  0  0  0
    7.5901  -11.2313   24.8792 C   0  0  0  0  0  0  0  0  0  0  0  0
    7.8598  -12.5882   24.8675 C   0  0  0  0  0  0  0  0  0  0  0  0
    6.8893  -13.5068   25.1729 C   0  0  0  0  0  0  0  0  0  0  0  0
    8.9382  -17.5555   23.5659 C   0  0  0  0  0  0  0  0  0  0  0  0
    8.9303  -18.7297   23.9776 O   0  0  0  0  0  0  0  0  0  0  0  0
   10.0701  -17.0578   22.8911 N   0  0  0  0  0  0  0  0  0  0  0  0
   10.8812  -15.9776   23.3978 C   0  0  0  0  0  0  0  0  0  0  0  0
   11.4226  -16.2915   24.7539 C   0  0  0  0  0  0  0  0  0  0  0  0
   12.6683  -16.4482   24.8871 O   0  0  0  0  0  0  0  0  0  0  0  0
   10.2866  -15.4538   29.4973 C   0  0  0  0  0  0  0  0  0  0  0  0
    9.9870  -15.5864   28.0450 C   0  0  1  0  0  0  0  0  0  0  0  0
    9.6250  -14.2784   27.3917 C   0  0  0  0  0  0  0  0  0  0  0  0
   11.0829  -16.2488   27.2496 C   0  0  2  0  0  0  0  0  0  0  0  0
   10.6142  -16.4212   25.8909 N   0  0  0  0  0  0  0  0  0  0  0  0
   11.5781  -17.4901   27.8466 C   0  0  0  0  0  0  0  0  0  0  0  0
   11.1929  -18.6163   27.4425 O   0  0  0  0  0  0  0  0  0  0  0  0
   12.5030  -17.5079   28.8947 O   0  0  0  0  0  0  0  0  0  0  0  0
  2  1  1  1
  3  2  1  0
  4  3  1  0
  5  4  2  0
  6  7  1  0
  6  5  1  0
  7 12  2  0
  8  7  1  0
  8  9  2  0
  9 10  1  0
 10 11  2  0
 12  4  1  0
 12 11  1  0
 13  2  1  0
 13 15  1  0
 14 13  2  0
 16 15  1  0
 17 16  1  0
 18 17  2  0
 20 19  1  1
 20 21  1  0
 22 20  1  0
 22 23  1  6
 23 17  1  0
 24 26  1  0
 24 22  1  0
 25 24  2  0
M  END
$$$$
