EPT.pdb
     RDKit          3D

 24 24  0  0  1  0  0  0  0  0999 V2000
   19.9354  -12.4332  -18.1619 N   0  0  0  0  0  0  0  0  0  0  0  0
   21.2843  -11.8846  -17.9896 C   0  0  1  0  0  0  0  0  0  0  0  0
   21.6902  -11.3553  -19.3285 C   0  0  0  0  0  0  0  0  0  0  0  0
   21.8316  -12.4048  -20.3975 C   0  0  0  0  0  0  0  0  0  0  0  0
   22.2950  -11.8973  -21.6907 C   0  0  0  0  0  0  0  0  0  0  0  0
   21.6337  -11.7600  -22.7325 O   0  0  0  0  0  0  0  0  0  0  0  0
   21.3563  -10.9165  -16.8842 C   0  0  0  0  0  0  0  0  0  0  0  0
   20.4832  -10.0236  -16.8073 O   0  0  0  0  0  0  0  0  0  0  0  0
   23.6455  -11.5177  -21.7748 O   0  0  0  0  0  0  0  0  0  0  0  0
   22.3602  -10.9091  -15.8685 N   0  0  0  0  0  0  0  0  0  0  0  0
   23.2124  -12.0678  -15.6623 C   0  0  0  0  0  0  0  0  0  0  0  0
   24.0324  -11.7624  -14.4249 C   0  0  0  0  0  0  0  0  0  0  0  0
   24.1200  -10.2631  -14.5124 C   0  0  0  0  0  0  0  0  0  0  0  0
   22.7113   -9.9071  -14.9275 C   0  0  1  0  0  0  0  0  0  0  0  0
   22.7247   -8.5199  -15.4155 C   0  0  0  0  0  0  0  0  0  0  0  0
   23.2579   -8.0703  -16.4329 O   0  0  0  0  0  0  0  0  0  0  0  0
   20.1197   -6.4005  -16.6064 C   0  0  0  0  0  0  0  0  0  0  0  0
   20.5332   -5.7524  -15.3073 C   0  0  1  0  0  0  0  0  0  0  0  0
   19.6456   -6.1313  -14.3012 O   0  0  0  0  0  0  0  0  0  0  0  0
   21.9570   -6.1714  -14.9849 C   0  0  2  0  0  0  0  0  0  0  0  0
   22.0225   -7.5642  -14.5959 N   0  0  0  0  0  0  0  0  0  0  0  0
   22.3992   -5.3524  -13.8337 C   0  0  0  0  0  0  0  0  0  0  0  0
   22.7296   -4.1394  -13.9507 O   0  0  0  0  0  0  0  0  0  0  0  0
   22.4615   -5.9140  -12.5702 O   0  0  0  0  0  0  0  0  0  0  0  0
  2  1  1  6
  2  3  1  0
  3  4  1  0
  4  5  1  0
  5  9  1  0
  6  5  2  0
  7  2  1  0
  7 10  1  0
  8  7  2  0
 10 14  1  0
 11 10  1  0
 11 12  1  0
 12 13  1  0
 14 13  1  0
 14 15  1  6
 15 21  1  0
 16 15  2  0
 18 17  1  6
 19 18  1  0
 20 21  1  1
 20 22  1  0
 20 18  1  0
 22 24  1  0
 23 22  2  0
M  END
$$$$
