EPT.pdb
     RDKit          3D

 24 24  0  0  1  0  0  0  0  0999 V2000
   37.3405  -39.5335   -5.2372 N   0  0  0  0  0  0  0  0  0  0  0  0
   38.4882  -38.6368   -5.0671 C   0  0  1  0  0  0  0  0  0  0  0  0
   38.9822  -38.8567   -3.6724 C   0  0  0  0  0  0  0  0  0  0  0  0
   38.0595  -38.3510   -2.5967 C   0  0  0  0  0  0  0  0  0  0  0  0
   38.4740  -38.6861   -1.2327 C   0  0  0  0  0  0  0  0  0  0  0  0
   39.4587  -39.3563   -0.8825 O   0  0  0  0  0  0  0  0  0  0  0  0
   39.4956  -38.8128   -6.1246 C   0  0  0  0  0  0  0  0  0  0  0  0
   39.7699  -39.9714   -6.5087 O   0  0  0  0  0  0  0  0  0  0  0  0
   37.6704  -38.1970   -0.1887 O   0  0  0  0  0  0  0  0  0  0  0  0
   40.2029  -37.7498   -6.7644 N   0  0  0  0  0  0  0  0  0  0  0  0
   39.6951  -36.3892   -6.7163 C   0  0  0  0  0  0  0  0  0  0  0  0
   40.6038  -35.5772   -7.6173 C   0  0  0  0  0  0  0  0  0  0  0  0
   41.8940  -36.3362   -7.4679 C   0  0  0  0  0  0  0  0  0  0  0  0
   41.4053  -37.7653   -7.5173 C   0  0  1  0  0  0  0  0  0  0  0  0
   42.4865  -38.6265   -7.0153 C   0  0  0  0  0  0  0  0  0  0  0  0
   42.9027  -38.7394   -5.8597 O   0  0  0  0  0  0  0  0  0  0  0  0
   42.7051  -42.3239   -7.6309 C   0  0  0  0  0  0  0  0  0  0  0  0
   43.9685  -41.7414   -8.2167 C   0  0  1  0  0  0  0  0  0  0  0  0
   43.8495  -41.6870   -9.6047 O   0  0  0  0  0  0  0  0  0  0  0  0
   44.1923  -40.3630   -7.6195 C   0  0  2  0  0  0  0  0  0  0  0  0
   43.1428  -39.4435   -8.0052 N   0  0  0  0  0  0  0  0  0  0  0  0
   45.4706  -39.8560   -8.1678 C   0  0  0  0  0  0  0  0  0  0  0  0
   45.5202  -38.9674   -9.0633 O   0  0  0  0  0  0  0  0  0  0  0  0
   46.6713  -40.3589   -7.6975 O   0  0  0  0  0  0  0  0  0  0  0  0
  2  1  1  6
  2  3  1  0
  3  4  1  0
  4  5  1  0
  5  9  1  0
  6  5  2  0
  7  2  1  0
  7 10  1  0
  8  7  2  0
 10 14  1  0
 11 10  1  0
 11 12  1  0
 12 13  1  0
 14 13  1  0
 14 15  1  1
 15 21  1  0
 16 15  2  0
 18 17  1  1
 19 18  1  0
 20 21  1  6
 20 22  1  0
 20 18  1  0
 22 24  1  0
 23 22  2  0
M  END
$$$$
