EPT.pdb
     RDKit          3D

 24 24  0  0  1  0  0  0  0  0999 V2000
   16.5544  -10.1255  -16.8786 N   0  0  0  0  0  0  0  0  0  0  0  0
   17.5773  -10.2805  -15.8394 C   0  0  1  0  0  0  0  0  0  0  0  0
   18.6149  -11.1927  -16.4127 C   0  0  0  0  0  0  0  0  0  0  0  0
   19.1465  -10.7677  -17.7547 C   0  0  0  0  0  0  0  0  0  0  0  0
   20.1996  -11.6312  -18.2931 C   0  0  0  0  0  0  0  0  0  0  0  0
   21.3959  -11.6643  -17.9626 O   0  0  0  0  0  0  0  0  0  0  0  0
   18.0795   -8.9861  -15.3529 C   0  0  0  0  0  0  0  0  0  0  0  0
   18.2313   -8.0524  -16.1717 O   0  0  0  0  0  0  0  0  0  0  0  0
   19.8241  -12.5328  -19.3036 O   0  0  0  0  0  0  0  0  0  0  0  0
   18.4161   -8.6983  -13.9952 N   0  0  0  0  0  0  0  0  0  0  0  0
   18.0699   -9.6287  -12.9341 C   0  0  0  0  0  0  0  0  0  0  0  0
   18.4352   -8.9321  -11.6386 C   0  0  0  0  0  0  0  0  0  0  0  0
   19.5843   -8.0764  -12.0974 C   0  0  0  0  0  0  0  0  0  0  0  0
   19.0688   -7.5744  -13.4263 C   0  0  1  0  0  0  0  0  0  0  0  0
   20.2116   -7.0278  -14.1730 C   0  0  0  0  0  0  0  0  0  0  0  0
   21.0938   -7.6396  -14.7804 O   0  0  0  0  0  0  0  0  0  0  0  0
   19.8170   -3.9999  -16.6451 C   0  0  0  0  0  0  0  0  0  0  0  0
   20.8474   -3.6526  -15.5981 C   0  0  1  0  0  0  0  0  0  0  0  0
   20.2745   -2.8028  -14.6530 O   0  0  0  0  0  0  0  0  0  0  0  0
   21.3503   -4.9377  -14.9638 C   0  0  2  0  0  0  0  0  0  0  0  0
   20.3105   -5.5898  -14.1961 N   0  0  0  0  0  0  0  0  0  0  0  0
   22.4406   -4.5641  -14.0347 C   0  0  0  0  0  0  0  0  0  0  0  0
   22.2923   -4.5597  -12.7809 O   0  0  0  0  0  0  0  0  0  0  0  0
   23.6795   -4.2019  -14.5342 O   0  0  0  0  0  0  0  0  0  0  0  0
  2  1  1  6
  2  3  1  0
  3  4  1  0
  4  5  1  0
  5  9  1  0
  6  5  2  0
  7  2  1  0
  7 10  1  0
  8  7  2  0
 10 14  1  0
 11 10  1  0
 11 12  1  0
 12 13  1  0
 14 13  1  0
 14 15  1  6
 15 21  1  0
 16 15  2  0
 18 17  1  6
 19 18  1  0
 20 21  1  1
 20 22  1  0
 20 18  1  0
 22 24  1  0
 23 22  2  0
M  END
$$$$
