AGP.pdb
     RDKit          3D

 17 17  0  0  1  0  0  0  0  0999 V2000
    7.7353  -12.7454   18.9248 C   0  0  0  0  0  0  0  0  0  0  0  0
    8.4134  -13.7135   19.8625 C   0  0  2  0  0  0  0  0  0  0  0  0
    8.2851  -15.0486   19.3639 N   0  0  0  0  0  0  0  0  0  0  0  0
    7.8200  -13.5799   21.2406 C   0  0  0  0  0  0  0  0  0  0  0  0
    7.9325  -12.5013   21.8592 O   0  0  0  0  0  0  0  0  0  0  0  0
    7.1330  -14.6504   21.8594 N   0  0  0  0  0  0  0  0  0  0  0  0
    6.5117  -14.5425   23.1819 C   0  0  0  0  0  0  0  0  0  0  0  0
    7.4996  -14.2713   24.2288 C   0  0  0  0  0  0  0  0  0  0  0  0
    8.5720  -15.0028   24.1256 O   0  0  0  0  0  0  0  0  0  0  0  0
    7.4651  -13.3724   25.2908 N   0  0  0  0  0  0  0  0  0  0  0  0
    6.7091  -12.0656   25.1092 C   0  0  0  0  0  0  0  0  0  0  0  0
    6.1053  -11.7907   26.4557 C   0  0  0  0  0  0  0  0  0  0  0  0
    6.5961  -12.9130   27.3333 C   0  0  0  0  0  0  0  0  0  0  0  0
    7.9428  -13.2159   26.6090 C   0  0  1  0  0  0  0  0  0  0  0  0
    8.6181  -14.2449   27.3368 C   0  0  0  0  0  0  0  0  0  0  0  0
    9.6355  -13.8409   28.0474 O   0  0  0  0  0  0  0  0  0  0  0  0
    8.4065  -15.5924   27.4384 O   0  0  0  0  0  0  0  0  0  0  0  0
  2  1  1  6
  2  3  1  0
  4  2  1  0
  4  5  2  0
  6  4  1  0
  7  6  1  0
  8  9  2  0
  8  7  1  0
 10  8  1  0
 11 12  1  0
 11 10  1  0
 13 14  1  0
 13 12  1  0
 14 10  1  0
 14 15  1  1
 15 17  1  0
 16 15  2  0
M  END
$$$$
