AGP.pdb
     RDKit          3D

 17 17  0  0  1  0  0  0  0  0999 V2000
    7.5217  -17.9708   19.9584 C   0  0  0  0  0  0  0  0  0  0  0  0
    8.4134  -16.8076   20.3165 C   0  0  2  0  0  0  0  0  0  0  0  0
    9.5546  -17.2720   21.0441 N   0  0  0  0  0  0  0  0  0  0  0  0
    7.6280  -15.7959   21.1095 C   0  0  0  0  0  0  0  0  0  0  0  0
    6.5787  -15.3169   20.6317 O   0  0  0  0  0  0  0  0  0  0  0  0
    8.0486  -15.3691   22.3908 N   0  0  0  0  0  0  0  0  0  0  0  0
    7.2438  -14.4913   23.2443 C   0  0  0  0  0  0  0  0  0  0  0  0
    7.9493  -14.1310   24.4764 C   0  0  0  0  0  0  0  0  0  0  0  0
    9.0464  -14.8088   24.6575 O   0  0  0  0  0  0  0  0  0  0  0  0
    7.6310  -13.1972   25.4581 N   0  0  0  0  0  0  0  0  0  0  0  0
    6.8389  -11.9635   25.0545 C   0  0  0  0  0  0  0  0  0  0  0  0
    5.9502  -11.6860   26.2320 C   0  0  0  0  0  0  0  0  0  0  0  0
    6.3258  -12.7302   27.2515 C   0  0  0  0  0  0  0  0  0  0  0  0
    7.8117  -12.9517   26.8356 C   0  0  1  0  0  0  0  0  0  0  0  0
    8.3917  -13.8939   27.7412 C   0  0  0  0  0  0  0  0  0  0  0  0
    8.0043  -15.1291   27.5749 O   0  0  0  0  0  0  0  0  0  0  0  0
    9.2878  -13.7563   28.7654 O   0  0  0  0  0  0  0  0  0  0  0  0
  2  1  1  1
  2  3  1  0
  4  2  1  0
  4  5  2  0
  6  4  1  0
  7  6  1  0
  8  9  2  0
  8  7  1  0
 10  8  1  0
 11 12  1  0
 11 10  1  0
 13 14  1  0
 13 12  1  0
 14 10  1  0
 14 15  1  1
 15 17  1  0
 16 15  2  0
M  END
$$$$
