AGP.pdb
     RDKit          3D

 17 17  0  0  1  0  0  0  0  0999 V2000
    8.4773  -12.4393   19.6550 C   0  0  0  0  0  0  0  0  0  0  0  0
    8.0636  -13.8879   19.7380 C   0  0  2  0  0  0  0  0  0  0  0  0
    6.8001  -14.0735   19.0927 N   0  0  0  0  0  0  0  0  0  0  0  0
    8.0140  -14.3160   21.1814 C   0  0  0  0  0  0  0  0  0  0  0  0
    9.0772  -14.5487   21.7932 O   0  0  0  0  0  0  0  0  0  0  0  0
    6.7871  -14.4631   21.8698 N   0  0  0  0  0  0  0  0  0  0  0  0
    6.7045  -14.8398   23.2833 C   0  0  0  0  0  0  0  0  0  0  0  0
    7.7010  -14.1369   24.0948 C   0  0  0  0  0  0  0  0  0  0  0  0
    8.9236  -14.3334   23.6916 O   0  0  0  0  0  0  0  0  0  0  0  0
    7.5417  -13.3120   25.2043 N   0  0  0  0  0  0  0  0  0  0  0  0
    6.6635  -12.0779   25.0691 C   0  0  0  0  0  0  0  0  0  0  0  0
    5.9922  -11.9464   26.4052 C   0  0  0  0  0  0  0  0  0  0  0  0
    6.5657  -13.0657   27.2353 C   0  0  0  0  0  0  0  0  0  0  0  0
    7.9586  -13.1891   26.5465 C   0  0  1  0  0  0  0  0  0  0  0  0
    8.7109  -14.1884   27.2394 C   0  0  0  0  0  0  0  0  0  0  0  0
    9.5272  -13.7318   28.1496 O   0  0  0  0  0  0  0  0  0  0  0  0
    8.7460  -15.5519   27.1366 O   0  0  0  0  0  0  0  0  0  0  0  0
  2  1  1  1
  2  3  1  0
  4  2  1  0
  4  5  2  0
  6  4  1  0
  7  6  1  0
  8  9  2  0
  8  7  1  0
 10  8  1  0
 11 12  1  0
 11 10  1  0
 13 14  1  0
 13 12  1  0
 14 10  1  0
 14 15  1  1
 15 17  1  0
 16 15  2  0
M  END
$$$$
