AGP.pdb
     RDKit          3D

 17 17  0  0  1  0  0  0  0  0999 V2000
    7.8637  -13.1580   18.5363 C   0  0  0  0  0  0  0  0  0  0  0  0
    8.6167  -13.6842   19.7332 C   0  0  2  0  0  0  0  0  0  0  0  0
    8.8337  -15.0917   19.5945 N   0  0  0  0  0  0  0  0  0  0  0  0
    7.8509  -13.3653   20.9906 C   0  0  0  0  0  0  0  0  0  0  0  0
    7.5903  -12.1768   21.2700 O   0  0  0  0  0  0  0  0  0  0  0  0
    7.4147  -14.3824   21.8715 N   0  0  0  0  0  0  0  0  0  0  0  0
    6.6226  -14.1119   23.0741 C   0  0  0  0  0  0  0  0  0  0  0  0
    7.4619  -14.0157   24.2706 C   0  0  0  0  0  0  0  0  0  0  0  0
    8.4386  -14.8770   24.2840 O   0  0  0  0  0  0  0  0  0  0  0  0
    7.3745  -13.1641   25.3680 N   0  0  0  0  0  0  0  0  0  0  0  0
    6.6188  -11.8541   25.2095 C   0  0  0  0  0  0  0  0  0  0  0  0
    5.9541  -11.6409   26.5384 C   0  0  0  0  0  0  0  0  0  0  0  0
    6.4128  -12.7981   27.3876 C   0  0  0  0  0  0  0  0  0  0  0  0
    7.7922  -13.0630   26.7117 C   0  0  1  0  0  0  0  0  0  0  0  0
    8.4412  -14.1196   27.4236 C   0  0  0  0  0  0  0  0  0  0  0  0
    7.9751  -15.3146   27.1826 O   0  0  0  0  0  0  0  0  0  0  0  0
    9.4717  -14.1278   28.3230 O   0  0  0  0  0  0  0  0  0  0  0  0
  2  1  1  6
  2  3  1  0
  4  2  1  0
  4  5  2  0
  6  4  1  0
  7  6  1  0
  8  9  2  0
  8  7  1  0
 10  8  1  0
 11 12  1  0
 11 10  1  0
 13 14  1  0
 13 12  1  0
 14 10  1  0
 14 15  1  1
 15 17  1  0
 16 15  2  0
M  END
$$$$
