AGP.pdb
     RDKit          3D

 17 17  0  0  1  0  0  0  0  0999 V2000
    8.7488  -15.0167   19.4312 C   0  0  0  0  0  0  0  0  0  0  0  0
    7.7737  -13.8655   19.4157 C   0  0  2  0  0  0  0  0  0  0  0  0
    8.2685  -12.8167   18.5774 N   0  0  0  0  0  0  0  0  0  0  0  0
    7.5411  -13.3830   20.8236 C   0  0  0  0  0  0  0  0  0  0  0  0
    8.2724  -12.4895   21.2987 O   0  0  0  0  0  0  0  0  0  0  0  0
    6.5093  -13.9176   21.6300 N   0  0  0  0  0  0  0  0  0  0  0  0
    6.1626  -13.3758   22.9465 C   0  0  0  0  0  0  0  0  0  0  0  0
    7.1482  -13.7444   23.9654 C   0  0  0  0  0  0  0  0  0  0  0  0
    7.8619  -14.7834   23.6382 O   0  0  0  0  0  0  0  0  0  0  0  0
    7.4291  -13.1661   25.1998 N   0  0  0  0  0  0  0  0  0  0  0  0
    7.1120  -11.6922   25.3980 C   0  0  0  0  0  0  0  0  0  0  0  0
    6.6671  -11.5928   26.8282 C   0  0  0  0  0  0  0  0  0  0  0  0
    6.8120  -12.9900   27.3738 C   0  0  0  0  0  0  0  0  0  0  0  0
    7.9737  -13.4873   26.4610 C   0  0  1  0  0  0  0  0  0  0  0  0
    8.3181  -14.8156   26.8628 C   0  0  0  0  0  0  0  0  0  0  0  0
    9.5470  -14.9658   27.2758 O   0  0  0  0  0  0  0  0  0  0  0  0
    7.6034  -15.9812   26.9014 O   0  0  0  0  0  0  0  0  0  0  0  0
  2  1  1  1
  2  3  1  0
  4  2  1  0
  4  5  2  0
  6  4  1  0
  7  6  1  0
  8  9  2  0
  8  7  1  0
 10  8  1  0
 11 12  1  0
 11 10  1  0
 13 14  1  0
 13 12  1  0
 14 10  1  0
 14 15  1  6
 15 17  1  0
 16 15  2  0
M  END
$$$$
