AGP.pdb
     RDKit          3D

 17 17  0  0  1  0  0  0  0  0999 V2000
    8.5478  -12.1810   19.6327 C   0  0  0  0  0  0  0  0  0  0  0  0
    8.3558  -13.6758   19.5625 C   0  0  2  0  0  0  0  0  0  0  0  0
    7.7728  -14.0356   18.3063 N   0  0  0  0  0  0  0  0  0  0  0  0
    7.5012  -14.1290   20.7173 C   0  0  0  0  0  0  0  0  0  0  0  0
    6.3673  -14.6027   20.4974 O   0  0  0  0  0  0  0  0  0  0  0  0
    7.9503  -14.0325   22.0552 N   0  0  0  0  0  0  0  0  0  0  0  0
    7.2023  -14.5795   23.1901 C   0  0  0  0  0  0  0  0  0  0  0  0
    7.8939  -14.3509   24.4609 C   0  0  0  0  0  0  0  0  0  0  0  0
    8.8655  -15.1908   24.6758 O   0  0  0  0  0  0  0  0  0  0  0  0
    7.6738  -13.3954   25.4487 N   0  0  0  0  0  0  0  0  0  0  0  0
    6.9040  -12.1369   25.0801 C   0  0  0  0  0  0  0  0  0  0  0  0
    6.1030  -11.8135   26.3078 C   0  0  0  0  0  0  0  0  0  0  0  0
    6.5036  -12.8604   27.3148 C   0  0  0  0  0  0  0  0  0  0  0  0
    7.9508  -13.1424   26.8087 C   0  0  1  0  0  0  0  0  0  0  0  0
    8.5518  -14.0964   27.6879 C   0  0  0  0  0  0  0  0  0  0  0  0
    9.4140  -13.6008   28.5332 O   0  0  0  0  0  0  0  0  0  0  0  0
    8.4007  -15.4492   27.8221 O   0  0  0  0  0  0  0  0  0  0  0  0
  2  1  1  6
  2  3  1  0
  4  2  1  0
  4  5  2  0
  6  4  1  0
  7  6  1  0
  8  9  2  0
  8  7  1  0
 10  8  1  0
 11 12  1  0
 11 10  1  0
 13 14  1  0
 13 12  1  0
 14 10  1  0
 14 15  1  1
 15 17  1  0
 16 15  2  0
M  END
$$$$
