EHA.pdb
     RDKit          3D

 25 25  0  0  1  0  0  0  0  0999 V2000
   17.2687  -12.8473  -15.9814 N   0  0  0  0  0  0  0  0  0  0  0  0
   18.6839  -13.2376  -15.9500 C   0  0  1  0  0  0  0  0  0  0  0  0
   18.7346  -14.6776  -16.2895 C   0  0  0  0  0  0  0  0  0  0  0  0
   17.4212  -15.4000  -16.2347 C   0  0  0  0  0  0  0  0  0  0  0  0
   17.5643  -16.8113  -16.6299 C   0  0  0  0  0  0  0  0  0  0  0  0
   17.8052  -17.7039  -15.7835 O   0  0  0  0  0  0  0  0  0  0  0  0
   19.4947  -12.3416  -16.7961 C   0  0  0  0  0  0  0  0  0  0  0  0
   20.7316  -12.4902  -16.9487 O   0  0  0  0  0  0  0  0  0  0  0  0
   17.4328  -17.1883  -17.9722 O   0  0  0  0  0  0  0  0  0  0  0  0
   18.9289  -11.2310  -17.5091 N   0  0  0  0  0  0  0  0  0  0  0  0
   19.6987  -10.3244  -18.3357 C   0  0  1  0  0  0  0  0  0  0  0  0
   19.0958  -10.2091  -19.7161 C   0  0  0  0  0  0  0  0  0  0  0  0
   19.8659   -9.3228  -20.6077 C   0  0  0  0  0  0  0  0  0  0  0  0
   21.1918   -9.4591  -20.9303 C   0  0  0  0  0  0  0  0  0  0  0  0
   21.5011   -8.4432  -21.7703 N   0  0  0  0  0  0  0  0  0  0  0  0
   20.4263   -7.6908  -21.9774 C   0  0  0  0  0  0  0  0  0  0  0  0
   19.4291   -8.2373  -21.2612 N   0  0  0  0  0  0  0  0  0  0  0  0
   19.8589   -9.0626  -17.6189 C   0  0  0  0  0  0  0  0  0  0  0  0
   18.9170   -8.5798  -16.9041 O   0  0  0  0  0  0  0  0  0  0  0  0
   19.8340   -6.2275  -17.3982 C   0  0  0  0  0  0  0  0  0  0  0  0
   21.1134   -6.9723  -16.9847 C   0  0  2  0  0  0  0  0  0  0  0  0
   21.0516   -8.2609  -17.6414 N   0  0  0  0  0  0  0  0  0  0  0  0
   21.0919   -7.1780  -15.5249 C   0  0  0  0  0  0  0  0  0  0  0  0
   21.2318   -6.2132  -14.7220 O   0  0  0  0  0  0  0  0  0  0  0  0
   20.9169   -8.4369  -14.9841 O   0  0  0  0  0  0  0  0  0  0  0  0
  2  1  1  6
  2  7  1  0
  3  2  1  0
  4  3  1  0
  4  5  1  0
  5  9  1  0
  5  6  2  0
  7  8  2  0
  7 10  1  0
 10 11  1  0
 11 18  1  0
 11 12  1  6
 13 12  1  0
 13 14  2  0
 15 14  1  0
 16 15  1  0
 17 16  2  0
 17 13  1  0
 18 19  2  0
 21 20  1  6
 22 21  1  0
 22 18  1  0
 23 21  1  0
 23 25  1  0
 24 23  2  0
M  END
$$$$
