EHA.pdb
     RDKit          3D

 25 25  0  0  1  0  0  0  0  0999 V2000
   22.2413  -13.4476  -18.3205 N   0  0  0  0  0  0  0  0  0  0  0  0
   21.7829  -12.1134  -18.7277 C   0  0  1  0  0  0  0  0  0  0  0  0
   20.3838  -12.2669  -19.1862 C   0  0  0  0  0  0  0  0  0  0  0  0
   19.4489  -12.9056  -18.2024 C   0  0  0  0  0  0  0  0  0  0  0  0
   18.0887  -13.0305  -18.7527 C   0  0  0  0  0  0  0  0  0  0  0  0
   17.7976  -13.9333  -19.5721 O   0  0  0  0  0  0  0  0  0  0  0  0
   22.0102  -11.1293  -17.6526 C   0  0  0  0  0  0  0  0  0  0  0  0
   21.6656  -11.3341  -16.4632 O   0  0  0  0  0  0  0  0  0  0  0  0
   17.0835  -12.1347  -18.3679 O   0  0  0  0  0  0  0  0  0  0  0  0
   22.6433   -9.8619  -17.8865 N   0  0  0  0  0  0  0  0  0  0  0  0
   22.7739   -8.8260  -16.8828 C   0  0  1  0  0  0  0  0  0  0  0  0
   24.1752   -8.2616  -16.8689 C   0  0  0  0  0  0  0  0  0  0  0  0
   25.1593   -9.1802  -16.2679 C   0  0  0  0  0  0  0  0  0  0  0  0
   24.8827  -10.3963  -15.6975 C   0  0  0  0  0  0  0  0  0  0  0  0
   26.0606  -10.9107  -15.2719 N   0  0  0  0  0  0  0  0  0  0  0  0
   27.0461  -10.0662  -15.5549 C   0  0  0  0  0  0  0  0  0  0  0  0
   26.4845   -9.0087  -16.1652 N   0  0  0  0  0  0  0  0  0  0  0  0
   21.7100   -7.8463  -17.0832 C   0  0  0  0  0  0  0  0  0  0  0  0
   21.4370   -7.3896  -18.2443 O   0  0  0  0  0  0  0  0  0  0  0  0
   18.6696   -6.6889  -15.4265 C   0  0  0  0  0  0  0  0  0  0  0  0
   19.8811   -6.3057  -16.2915 C   0  0  2  0  0  0  0  0  0  0  0  0
   20.8878   -7.3131  -16.0319 N   0  0  0  0  0  0  0  0  0  0  0  0
   20.3886   -4.9959  -15.8437 C   0  0  0  0  0  0  0  0  0  0  0  0
   21.2953   -4.9053  -14.9691 O   0  0  0  0  0  0  0  0  0  0  0  0
   19.8887   -3.8197  -16.3676 O   0  0  0  0  0  0  0  0  0  0  0  0
  2  1  1  1
  2  7  1  0
  3  2  1  0
  4  3  1  0
  4  5  1  0
  5  9  1  0
  5  6  2  0
  7  8  2  0
  7 10  1  0
 10 11  1  0
 11 18  1  0
 11 12  1  6
 13 12  1  0
 13 14  2  0
 15 14  1  0
 16 15  1  0
 17 16  2  0
 17 13  1  0
 18 19  2  0
 21 20  1  1
 22 21  1  0
 22 18  1  0
 23 21  1  0
 23 25  1  0
 24 23  2  0
M  END
$$$$
