EHA.pdb
     RDKit          3D

 25 25  0  0  1  0  0  0  0  0999 V2000
   18.8602  -10.2948  -17.2269 N   0  0  0  0  0  0  0  0  0  0  0  0
   19.4198   -9.0505  -17.7697 C   0  0  1  0  0  0  0  0  0  0  0  0
   18.6119   -8.7061  -18.9614 C   0  0  0  0  0  0  0  0  0  0  0  0
   18.6804   -9.6883  -20.0930 C   0  0  0  0  0  0  0  0  0  0  0  0
   17.9905   -9.1807  -21.2909 C   0  0  0  0  0  0  0  0  0  0  0  0
   18.4875   -9.3124  -22.4341 O   0  0  0  0  0  0  0  0  0  0  0  0
   19.5088   -8.0145  -16.7233 C   0  0  0  0  0  0  0  0  0  0  0  0
   18.9315   -8.1212  -15.6140 O   0  0  0  0  0  0  0  0  0  0  0  0
   16.7534   -8.5347  -21.1760 O   0  0  0  0  0  0  0  0  0  0  0  0
   20.2633   -6.8051  -16.8959 N   0  0  0  0  0  0  0  0  0  0  0  0
   20.4743   -5.8276  -15.8482 C   0  0  1  0  0  0  0  0  0  0  0  0
   21.8035   -6.0475  -15.1647 C   0  0  0  0  0  0  0  0  0  0  0  0
   21.8751   -7.3331  -14.4465 C   0  0  0  0  0  0  0  0  0  0  0  0
   21.3006   -7.6109  -13.2326 C   0  0  0  0  0  0  0  0  0  0  0  0
   21.6060   -8.8959  -12.9351 N   0  0  0  0  0  0  0  0  0  0  0  0
   22.3410   -9.4185  -13.9104 C   0  0  0  0  0  0  0  0  0  0  0  0
   22.5008   -8.4537  -14.8322 N   0  0  0  0  0  0  0  0  0  0  0  0
   20.2755   -4.4939  -16.4083 C   0  0  0  0  0  0  0  0  0  0  0  0
   20.8971   -4.1140  -17.4574 O   0  0  0  0  0  0  0  0  0  0  0  0
   17.9698   -1.5925  -15.8153 C   0  0  0  0  0  0  0  0  0  0  0  0
   19.2009   -2.2172  -16.4912 C   0  0  2  0  0  0  0  0  0  0  0  0
   19.3901   -3.5049  -15.8574 N   0  0  0  0  0  0  0  0  0  0  0  0
   20.3755   -1.3704  -16.2135 C   0  0  0  0  0  0  0  0  0  0  0  0
   21.1563   -1.6222  -15.2533 O   0  0  0  0  0  0  0  0  0  0  0  0
   20.6632   -0.2699  -16.9970 O   0  0  0  0  0  0  0  0  0  0  0  0
  2  1  1  1
  2  7  1  0
  3  2  1  0
  4  3  1  0
  4  5  1  0
  5  9  1  0
  5  6  2  0
  7  8  2  0
  7 10  1  0
 10 11  1  0
 11 18  1  0
 11 12  1  6
 13 12  1  0
 13 14  2  0
 15 14  1  0
 16 15  1  0
 17 16  2  0
 17 13  1  0
 18 19  2  0
 21 20  1  1
 22 21  1  0
 22 18  1  0
 23 21  1  0
 23 25  1  0
 24 23  2  0
M  END
$$$$
