EHA.pdb
     RDKit          3D

 25 25  0  0  1  0  0  0  0  0999 V2000
   23.1489   -8.6922  -21.0266 N   0  0  0  0  0  0  0  0  0  0  0  0
   22.1674   -9.4043  -20.1986 C   0  0  1  0  0  0  0  0  0  0  0  0
   22.5247  -10.8397  -20.2568 C   0  0  0  0  0  0  0  0  0  0  0  0
   23.8919  -11.1855  -19.7458 C   0  0  0  0  0  0  0  0  0  0  0  0
   24.1452  -12.6342  -19.8189 C   0  0  0  0  0  0  0  0  0  0  0  0
   24.7630  -13.1399  -20.7853 O   0  0  0  0  0  0  0  0  0  0  0  0
   22.0864   -8.8089  -18.8513 C   0  0  0  0  0  0  0  0  0  0  0  0
   21.3116   -9.2433  -17.9646 O   0  0  0  0  0  0  0  0  0  0  0  0
   23.6969  -13.4844  -18.8004 O   0  0  0  0  0  0  0  0  0  0  0  0
   22.8887   -7.6866  -18.4532 N   0  0  0  0  0  0  0  0  0  0  0  0
   22.8247   -7.0713  -17.1436 C   0  0  1  0  0  0  0  0  0  0  0  0
   24.1993   -6.9769  -16.5240 C   0  0  0  0  0  0  0  0  0  0  0  0
   24.7279   -8.2847  -16.0955 C   0  0  0  0  0  0  0  0  0  0  0  0
   24.0739   -9.4868  -16.1853 C   0  0  0  0  0  0  0  0  0  0  0  0
   24.9074  -10.4291  -15.6848 N   0  0  0  0  0  0  0  0  0  0  0  0
   26.0418   -9.8603  -15.2924 C   0  0  0  0  0  0  0  0  0  0  0  0
   25.9229   -8.5462  -15.5479 N   0  0  0  0  0  0  0  0  0  0  0  0
   22.1052   -5.8059  -17.2580 C   0  0  0  0  0  0  0  0  0  0  0  0
   22.3701   -4.9723  -18.1887 O   0  0  0  0  0  0  0  0  0  0  0  0
   18.9871   -4.2943  -15.9244 C   0  0  0  0  0  0  0  0  0  0  0  0
   20.3850   -4.1128  -16.5374 C   0  0  2  0  0  0  0  0  0  0  0  0
   21.0601   -5.3820  -16.3671 N   0  0  0  0  0  0  0  0  0  0  0  0
   21.1079   -3.0802  -15.7726 C   0  0  0  0  0  0  0  0  0  0  0  0
   21.8424   -3.3820  -14.7904 O   0  0  0  0  0  0  0  0  0  0  0  0
   21.0069   -1.7436  -16.1058 O   0  0  0  0  0  0  0  0  0  0  0  0
  2  1  1  6
  2  7  1  0
  3  2  1  0
  4  3  1  0
  4  5  1  0
  5  9  1  0
  5  6  2  0
  7  8  2  0
  7 10  1  0
 10 11  1  0
 11 18  1  0
 11 12  1  6
 13 12  1  0
 13 14  2  0
 15 14  1  0
 16 15  1  0
 17 16  2  0
 17 13  1  0
 18 19  2  0
 21 20  1  1
 22 21  1  0
 22 18  1  0
 23 21  1  0
 23 25  1  0
 24 23  2  0
M  END
$$$$
