EHA.pdb
     RDKit          3D

 25 25  0  0  1  0  0  0  0  0999 V2000
   29.8382   -8.3786  -17.4116 N   0  0  0  0  0  0  0  0  0  0  0  0
   29.2880   -9.1254  -18.5498 C   0  0  1  0  0  0  0  0  0  0  0  0
   30.2130  -10.2526  -18.8049 C   0  0  0  0  0  0  0  0  0  0  0  0
   31.6632   -9.8851  -18.9144 C   0  0  0  0  0  0  0  0  0  0  0  0
   32.5045  -11.0708  -19.1480 C   0  0  0  0  0  0  0  0  0  0  0  0
   33.7555  -10.9910  -19.1560 O   0  0  0  0  0  0  0  0  0  0  0  0
   27.8772   -9.4839  -18.3102 C   0  0  0  0  0  0  0  0  0  0  0  0
   27.1854  -10.1093  -19.1502 O   0  0  0  0  0  0  0  0  0  0  0  0
   31.9185  -12.3235  -19.3679 O   0  0  0  0  0  0  0  0  0  0  0  0
   27.1891   -9.1437  -17.0967 N   0  0  0  0  0  0  0  0  0  0  0  0
   25.8168   -9.5116  -16.8152 C   0  0  1  0  0  0  0  0  0  0  0  0
   25.7231  -10.3057  -15.5335 C   0  0  0  0  0  0  0  0  0  0  0  0
   26.1290  -11.7134  -15.6982 C   0  0  0  0  0  0  0  0  0  0  0  0
   26.5334  -12.3038  -16.8681 C   0  0  0  0  0  0  0  0  0  0  0  0
   26.8137  -13.5972  -16.5824 N   0  0  0  0  0  0  0  0  0  0  0  0
   26.6000  -13.8268  -15.2917 C   0  0  0  0  0  0  0  0  0  0  0  0
   26.1807  -12.6670  -14.7578 N   0  0  0  0  0  0  0  0  0  0  0  0
   24.9924   -8.3075  -16.8633 C   0  0  0  0  0  0  0  0  0  0  0  0
   25.3874   -7.2102  -16.3423 O   0  0  0  0  0  0  0  0  0  0  0  0
   21.7284   -7.2523  -18.3965 C   0  0  0  0  0  0  0  0  0  0  0  0
   22.8910   -7.0329  -17.4153 C   0  0  2  0  0  0  0  0  0  0  0  0
   23.6967   -8.2338  -17.4807 N   0  0  0  0  0  0  0  0  0  0  0  0
   22.3433   -6.8981  -16.0531 C   0  0  0  0  0  0  0  0  0  0  0  0
   22.2602   -7.8901  -15.2759 O   0  0  0  0  0  0  0  0  0  0  0  0
   21.9015   -5.6783  -15.5790 O   0  0  0  0  0  0  0  0  0  0  0  0
  2  1  1  1
  2  7  1  0
  3  2  1  0
  4  3  1  0
  4  5  1  0
  5  9  1  0
  5  6  2  0
  7  8  2  0
  7 10  1  0
 10 11  1  0
 11 18  1  0
 11 12  1  1
 13 12  1  0
 13 14  2  0
 15 14  1  0
 16 15  1  0
 17 16  2  0
 17 13  1  0
 18 19  2  0
 21 20  1  6
 22 21  1  0
 22 18  1  0
 23 21  1  0
 23 25  1  0
 24 23  2  0
M  END
$$$$
