MDH.pdb
     RDKit          3D

 27 27  0  0  1  0  0  0  0  0999 V2000
    7.8536  -11.3670   20.2568 C   0  0  0  0  0  0  0  0  0  0  0  0
    6.6897  -12.4091   19.3417 S   0  0  0  0  0  0  0  0  0  0  0  0
    7.5705  -13.3973   18.1216 C   0  0  0  0  0  0  0  0  0  0  0  0
    8.7588  -14.1139   18.7708 C   0  0  0  0  0  0  0  0  0  0  0  0
    9.4176  -14.9120   17.6828 C   0  0  2  0  0  0  0  0  0  0  0  0
    8.4762  -15.9247   17.2473 N   0  0  0  0  0  0  0  0  0  0  0  0
   10.6685  -15.5626   18.1804 C   0  0  0  0  0  0  0  0  0  0  0  0
   10.6547  -16.7253   18.6498 O   0  0  0  0  0  0  0  0  0  0  0  0
   11.8715  -14.8637   18.1212 N   0  0  0  0  0  0  0  0  0  0  0  0
   13.1219  -15.5880   18.5649 C   0  0  1  0  0  0  0  0  0  0  0  0
   14.1940  -14.7752   17.9106 C   0  0  0  0  0  0  0  0  0  0  0  0
   15.5676  -15.2207   17.9752 C   0  0  0  0  0  0  0  0  0  0  0  0
   16.6272  -14.6001   17.8313 O   0  0  0  0  0  0  0  0  0  0  0  0
   13.0745  -15.4415   20.0279 C   0  0  0  0  0  0  0  0  0  0  0  0
   13.0259  -14.3012   20.5420 O   0  0  0  0  0  0  0  0  0  0  0  0
   15.7250  -16.6147   18.2532 O   0  0  0  0  0  0  0  0  0  0  0  0
   13.0762  -16.5458   20.8933 N   0  0  0  0  0  0  0  0  0  0  0  0
   13.0986  -16.3458   22.3474 C   0  0  1  0  0  0  0  0  0  0  0  0
   11.9607  -17.0243   23.0420 C   0  0  0  0  0  0  0  0  0  0  0  0
   10.6969  -16.3038   22.7802 C   0  0  0  0  0  0  0  0  0  0  0  0
   10.4953  -14.9362   22.6904 C   0  0  0  0  0  0  0  0  0  0  0  0
    9.2048  -14.6938   22.4431 N   0  0  0  0  0  0  0  0  0  0  0  0
    8.6017  -15.8913   22.3779 C   0  0  0  0  0  0  0  0  0  0  0  0
    9.5001  -16.8562   22.5807 N   0  0  0  0  0  0  0  0  0  0  0  0
   14.4166  -16.8320   22.8283 C   0  0  0  0  0  0  0  0  0  0  0  0
   15.1972  -17.3406   21.9767 O   0  0  0  0  0  0  0  0  0  0  0  0
   14.7437  -16.7165   24.1649 O   0  0  0  0  0  0  0  0  0  0  0  0
  2  1  1  0
  3  2  1  0
  4  3  1  0
  4  5  1  0
  5  7  1  0
  5  6  1  1
  7  8  2  0
  9 10  1  0
  9  7  1  0
 10 11  1  6
 12 11  1  0
 13 12  2  0
 14 17  1  0
 14 10  1  0
 15 14  2  0
 16 12  1  0
 18 17  1  0
 18 19  1  1
 20 19  1  0
 21 20  2  0
 22 21  1  0
 22 23  1  0
 23 24  2  0
 24 20  1  0
 25 18  1  0
 26 25  2  0
 27 25  1  0
M  END
$$$$
