MDH.pdb
     RDKit          3D

 27 27  0  0  1  0  0  0  0  0999 V2000
    7.6319  -12.1108   21.4778 C   0  0  0  0  0  0  0  0  0  0  0  0
    7.8977  -12.1534   19.6874 S   0  0  0  0  0  0  0  0  0  0  0  0
    8.2111  -13.8421   19.1480 C   0  0  0  0  0  0  0  0  0  0  0  0
    8.8515  -14.6543   20.2780 C   0  0  0  0  0  0  0  0  0  0  0  0
    9.2023  -15.9916   19.6919 C   0  0  2  0  0  0  0  0  0  0  0  0
    7.9710  -16.6152   19.2486 N   0  0  0  0  0  0  0  0  0  0  0  0
    9.8740  -16.8600   20.7069 C   0  0  0  0  0  0  0  0  0  0  0  0
    9.2107  -17.6031   21.4686 O   0  0  0  0  0  0  0  0  0  0  0  0
   11.2629  -16.8430   20.8079 N   0  0  0  0  0  0  0  0  0  0  0  0
   11.8946  -17.6935   21.8860 C   0  0  1  0  0  0  0  0  0  0  0  0
   13.2810  -17.8789   21.3555 C   0  0  0  0  0  0  0  0  0  0  0  0
   13.5239  -18.8554   20.3178 C   0  0  0  0  0  0  0  0  0  0  0  0
   13.0986  -20.0075   20.1752 O   0  0  0  0  0  0  0  0  0  0  0  0
   11.8222  -16.8194   23.0669 C   0  0  0  0  0  0  0  0  0  0  0  0
   12.3410  -15.6806   23.0361 O   0  0  0  0  0  0  0  0  0  0  0  0
   14.4046  -18.4115   19.2822 O   0  0  0  0  0  0  0  0  0  0  0  0
   11.1794  -17.2097   24.2514 N   0  0  0  0  0  0  0  0  0  0  0  0
   11.1712  -16.3172   25.4169 C   0  0  1  0  0  0  0  0  0  0  0  0
    9.7937  -16.0676   25.9444 C   0  0  0  0  0  0  0  0  0  0  0  0
    9.8528  -15.2136   27.1492 C   0  0  0  0  0  0  0  0  0  0  0  0
    9.7123  -15.5932   28.4741 C   0  0  0  0  0  0  0  0  0  0  0  0
    9.8306  -14.5178   29.2582 N   0  0  0  0  0  0  0  0  0  0  0  0
   10.0426  -13.4753   28.4394 C   0  0  0  0  0  0  0  0  0  0  0  0
   10.0555  -13.8962   27.1737 N   0  0  0  0  0  0  0  0  0  0  0  0
   12.0570  -16.9334   26.4369 C   0  0  0  0  0  0  0  0  0  0  0  0
   12.7237  -16.1575   27.1762 O   0  0  0  0  0  0  0  0  0  0  0  0
   12.1246  -18.3085   26.5452 O   0  0  0  0  0  0  0  0  0  0  0  0
  2  1  1  0
  3  2  1  0
  4  3  1  0
  4  5  1  0
  5  7  1  0
  5  6  1  1
  7  8  2  0
  9 10  1  0
  9  7  1  0
 10 11  1  6
 12 11  1  0
 13 12  2  0
 14 17  1  0
 14 10  1  0
 15 14  2  0
 16 12  1  0
 18 17  1  0
 18 19  1  1
 20 19  1  0
 21 20  2  0
 22 21  1  0
 22 23  1  0
 23 24  2  0
 24 20  1  0
 25 18  1  0
 26 25  2  0
 27 25  1  0
M  END
$$$$
