MDH.pdb
     RDKit          3D

 27 27  0  0  1  0  0  0  0  0999 V2000
    8.0352  -11.4520   26.3735 C   0  0  0  0  0  0  0  0  0  0  0  0
    6.3583  -12.1341   26.4019 S   0  0  0  0  0  0  0  0  0  0  0  0
    6.2267  -13.5025   25.2395 C   0  0  0  0  0  0  0  0  0  0  0  0
    7.4524  -14.4152   25.3469 C   0  0  0  0  0  0  0  0  0  0  0  0
    7.3265  -15.4247   24.2423 C   0  0  2  0  0  0  0  0  0  0  0  0
    6.1423  -16.2189   24.5040 N   0  0  0  0  0  0  0  0  0  0  0  0
    8.5299  -16.3105   24.1887 C   0  0  0  0  0  0  0  0  0  0  0  0
    8.4843  -17.4954   24.5964 O   0  0  0  0  0  0  0  0  0  0  0  0
    9.7239  -15.8096   23.6761 N   0  0  0  0  0  0  0  0  0  0  0  0
   10.8573  -16.7872   23.4649 C   0  0  1  0  0  0  0  0  0  0  0  0
   11.5110  -16.2362   22.2373 C   0  0  0  0  0  0  0  0  0  0  0  0
   12.4155  -17.0675   21.4756 C   0  0  0  0  0  0  0  0  0  0  0  0
   12.7227  -18.2583   21.6043 O   0  0  0  0  0  0  0  0  0  0  0  0
   11.6558  -16.6207   24.6890 C   0  0  0  0  0  0  0  0  0  0  0  0
   12.8054  -17.1110   24.7586 O   0  0  0  0  0  0  0  0  0  0  0  0
   13.0626  -16.3978   20.3904 O   0  0  0  0  0  0  0  0  0  0  0  0
   11.1797  -15.9175   25.8059 N   0  0  0  0  0  0  0  0  0  0  0  0
   11.2265  -16.5288   27.1397 C   0  0  1  0  0  0  0  0  0  0  0  0
   10.2660  -17.6660   27.2885 C   0  0  0  0  0  0  0  0  0  0  0  0
   10.4717  -18.3448   28.5853 C   0  0  0  0  0  0  0  0  0  0  0  0
   11.2320  -17.9189   29.6621 C   0  0  0  0  0  0  0  0  0  0  0  0
   11.1564  -18.8229   30.6431 N   0  0  0  0  0  0  0  0  0  0  0  0
   10.3599  -19.8046   30.1912 C   0  0  0  0  0  0  0  0  0  0  0  0
    9.9503  -19.5147   28.9552 N   0  0  0  0  0  0  0  0  0  0  0  0
   12.6314  -16.9502   27.3709 C   0  0  0  0  0  0  0  0  0  0  0  0
   13.3360  -16.2370   28.1377 O   0  0  0  0  0  0  0  0  0  0  0  0
   13.1167  -18.0861   26.7534 O   0  0  0  0  0  0  0  0  0  0  0  0
  2  1  1  0
  3  2  1  0
  4  3  1  0
  4  5  1  0
  5  7  1  0
  5  6  1  1
  7  8  2  0
  9 10  1  0
  9  7  1  0
 10 11  1  6
 12 11  1  0
 13 12  2  0
 14 17  1  0
 14 10  1  0
 15 14  2  0
 16 12  1  0
 18 17  1  0
 18 19  1  6
 20 19  1  0
 21 20  2  0
 22 21  1  0
 22 23  1  0
 23 24  2  0
 24 20  1  0
 25 18  1  0
 26 25  2  0
 27 25  1  0
M  END
$$$$
