MDH.pdb
     RDKit          3D

 27 27  0  0  1  0  0  0  0  0999 V2000
    9.1365  -11.6347   19.9364 C   0  0  0  0  0  0  0  0  0  0  0  0
    7.8903  -12.2812   18.7931 S   0  0  0  0  0  0  0  0  0  0  0  0
    8.5724  -13.6500   17.8432 C   0  0  0  0  0  0  0  0  0  0  0  0
    9.0190  -14.7791   18.7774 C   0  0  0  0  0  0  0  0  0  0  0  0
    9.6679  -15.8167   17.9071 C   0  0  2  0  0  0  0  0  0  0  0  0
    8.6264  -16.4426   17.1165 N   0  0  0  0  0  0  0  0  0  0  0  0
   10.3652  -16.8480   18.7352 C   0  0  0  0  0  0  0  0  0  0  0  0
    9.7452  -17.8286   19.2110 O   0  0  0  0  0  0  0  0  0  0  0  0
   11.7293  -16.7166   18.9827 N   0  0  0  0  0  0  0  0  0  0  0  0
   12.3872  -17.7709   19.8432 C   0  0  1  0  0  0  0  0  0  0  0  0
   13.8059  -17.7076   19.3726 C   0  0  0  0  0  0  0  0  0  0  0  0
   14.1942  -18.4213   18.1772 C   0  0  0  0  0  0  0  0  0  0  0  0
   15.0439  -18.1590   17.3181 O   0  0  0  0  0  0  0  0  0  0  0  0
   12.1879  -17.2447   21.2024 C   0  0  0  0  0  0  0  0  0  0  0  0
   12.8398  -16.2491   21.5905 O   0  0  0  0  0  0  0  0  0  0  0  0
   13.4730  -19.6356   17.9526 O   0  0  0  0  0  0  0  0  0  0  0  0
   11.2765  -17.8169   22.1026 N   0  0  0  0  0  0  0  0  0  0  0  0
   11.1038  -17.2452   23.4436 C   0  0  1  0  0  0  0  0  0  0  0  0
    9.6836  -17.2875   23.9116 C   0  0  0  0  0  0  0  0  0  0  0  0
    8.8420  -16.4043   23.0771 C   0  0  0  0  0  0  0  0  0  0  0  0
    9.2393  -15.5700   22.0451 C   0  0  0  0  0  0  0  0  0  0  0  0
    8.1708  -14.9405   21.5477 N   0  0  0  0  0  0  0  0  0  0  0  0
    7.1151  -15.3720   22.2560 C   0  0  0  0  0  0  0  0  0  0  0  0
    7.5212  -16.2508   23.1736 N   0  0  0  0  0  0  0  0  0  0  0  0
   12.0132  -17.9912   24.3498 C   0  0  0  0  0  0  0  0  0  0  0  0
   12.5946  -19.0101   23.8838 O   0  0  0  0  0  0  0  0  0  0  0  0
   12.1930  -17.5585   25.6488 O   0  0  0  0  0  0  0  0  0  0  0  0
  2  1  1  0
  3  2  1  0
  4  3  1  0
  4  5  1  0
  5  7  1  0
  5  6  1  1
  7  8  2  0
  9 10  1  0
  9  7  1  0
 10 11  1  6
 12 11  1  0
 13 12  2  0
 14 17  1  0
 14 10  1  0
 15 14  2  0
 16 12  1  0
 18 17  1  0
 18 19  1  1
 20 19  1  0
 21 20  2  0
 22 21  1  0
 22 23  1  0
 23 24  2  0
 24 20  1  0
 25 18  1  0
 26 25  2  0
 27 25  1  0
M  END
$$$$
