MDH.pdb
     RDKit          3D

 27 27  0  0  1  0  0  0  0  0999 V2000
    7.9322  -11.3449   26.2716 C   0  0  0  0  0  0  0  0  0  0  0  0
    6.4233  -12.3333   26.4271 S   0  0  0  0  0  0  0  0  0  0  0  0
    6.3756  -13.5963   25.1452 C   0  0  0  0  0  0  0  0  0  0  0  0
    7.5531  -14.5636   25.3034 C   0  0  0  0  0  0  0  0  0  0  0  0
    7.5264  -15.4631   24.1013 C   0  0  2  0  0  0  0  0  0  0  0  0
    6.3145  -16.2557   24.1707 N   0  0  0  0  0  0  0  0  0  0  0  0
    8.7204  -16.3627   24.0808 C   0  0  0  0  0  0  0  0  0  0  0  0
    8.6571  -17.5380   24.5133 O   0  0  0  0  0  0  0  0  0  0  0  0
    9.9257  -15.8859   23.5716 N   0  0  0  0  0  0  0  0  0  0  0  0
   11.0767  -16.8610   23.4743 C   0  0  1  0  0  0  0  0  0  0  0  0
   11.9818  -16.1692   22.5048 C   0  0  0  0  0  0  0  0  0  0  0  0
   13.1831  -16.8328   22.0510 C   0  0  0  0  0  0  0  0  0  0  0  0
   14.2842  -16.3770   21.7216 O   0  0  0  0  0  0  0  0  0  0  0  0
   11.5909  -16.8875   24.8523 C   0  0  0  0  0  0  0  0  0  0  0  0
   11.9130  -15.8201   25.4215 O   0  0  0  0  0  0  0  0  0  0  0  0
   13.0780  -18.2568   21.9707 O   0  0  0  0  0  0  0  0  0  0  0  0
   11.7355  -18.0803   25.5767 N   0  0  0  0  0  0  0  0  0  0  0  0
   12.3363  -18.0640   26.9160 C   0  0  1  0  0  0  0  0  0  0  0  0
   11.3145  -18.0831   28.0084 C   0  0  0  0  0  0  0  0  0  0  0  0
   10.7341  -16.7362   28.1914 C   0  0  0  0  0  0  0  0  0  0  0  0
   11.3195  -15.6252   28.7763 C   0  0  0  0  0  0  0  0  0  0  0  0
   10.4595  -14.6031   28.7453 N   0  0  0  0  0  0  0  0  0  0  0  0
    9.3479  -15.0631   28.1495 C   0  0  0  0  0  0  0  0  0  0  0  0
    9.5158  -16.3443   27.8180 N   0  0  0  0  0  0  0  0  0  0  0  0
   13.2549  -19.2282   26.9897 C   0  0  0  0  0  0  0  0  0  0  0  0
   13.3376  -19.9717   25.9730 O   0  0  0  0  0  0  0  0  0  0  0  0
   13.9771  -19.4595   28.1438 O   0  0  0  0  0  0  0  0  0  0  0  0
  2  1  1  0
  3  2  1  0
  4  3  1  0
  4  5  1  0
  5  7  1  0
  5  6  1  1
  7  8  2  0
  9 10  1  0
  9  7  1  0
 10 11  1  6
 12 11  1  0
 13 12  2  0
 14 17  1  0
 14 10  1  0
 15 14  2  0
 16 12  1  0
 18 17  1  0
 18 19  1  1
 20 19  1  0
 21 20  2  0
 22 21  1  0
 22 23  1  0
 23 24  2  0
 24 20  1  0
 25 18  1  0
 26 25  2  0
 27 25  1  0
M  END
$$$$
