MDH.pdb
     RDKit          3D

 27 27  0  0  1  0  0  0  0  0999 V2000
    7.7048  -11.9212   26.6881 C   0  0  0  0  0  0  0  0  0  0  0  0
    6.3092  -12.7839   25.9226 S   0  0  0  0  0  0  0  0  0  0  0  0
    6.6919  -13.1820   24.2092 C   0  0  0  0  0  0  0  0  0  0  0  0
    8.0441  -13.8959   24.1152 C   0  0  0  0  0  0  0  0  0  0  0  0
    7.9049  -14.9250   23.0304 C   0  0  2  0  0  0  0  0  0  0  0  0
    6.5649  -15.4720   23.1112 N   0  0  0  0  0  0  0  0  0  0  0  0
    8.9104  -16.0186   23.1996 C   0  0  0  0  0  0  0  0  0  0  0  0
    8.5819  -17.1397   23.6551 O   0  0  0  0  0  0  0  0  0  0  0  0
   10.2369  -15.7873   22.8442 N   0  0  0  0  0  0  0  0  0  0  0  0
   11.2167  -16.9236   23.0273 C   0  0  1  0  0  0  0  0  0  0  0  0
   12.2582  -16.5966   22.0044 C   0  0  0  0  0  0  0  0  0  0  0  0
   12.2963  -17.3354   20.7626 C   0  0  0  0  0  0  0  0  0  0  0  0
   12.2334  -18.5503   20.5416 O   0  0  0  0  0  0  0  0  0  0  0  0
   11.6675  -16.7370   24.4151 C   0  0  0  0  0  0  0  0  0  0  0  0
   11.9417  -15.5905   24.8359 O   0  0  0  0  0  0  0  0  0  0  0  0
   12.4286  -16.5219   19.5940 O   0  0  0  0  0  0  0  0  0  0  0  0
   11.8027  -17.8084   25.3108 N   0  0  0  0  0  0  0  0  0  0  0  0
   11.4125  -17.6502   26.7171 C   0  0  1  0  0  0  0  0  0  0  0  0
   10.0566  -17.0383   26.8756 C   0  0  0  0  0  0  0  0  0  0  0  0
   10.1476  -15.7837   27.6517 C   0  0  0  0  0  0  0  0  0  0  0  0
   11.2756  -15.2013   28.2063 C   0  0  0  0  0  0  0  0  0  0  0  0
   10.9299  -14.0713   28.8299 N   0  0  0  0  0  0  0  0  0  0  0  0
    9.6031  -13.9433   28.6707 C   0  0  0  0  0  0  0  0  0  0  0  0
    9.1362  -14.9729   27.9628 N   0  0  0  0  0  0  0  0  0  0  0  0
   11.4947  -18.9954   27.3404 C   0  0  0  0  0  0  0  0  0  0  0  0
   11.2007  -19.9906   26.6217 O   0  0  0  0  0  0  0  0  0  0  0  0
   11.8821  -19.1168   28.6603 O   0  0  0  0  0  0  0  0  0  0  0  0
  2  1  1  0
  3  2  1  0
  4  3  1  0
  4  5  1  0
  5  7  1  0
  5  6  1  1
  7  8  2  0
  9 10  1  0
  9  7  1  0
 10 11  1  6
 12 11  1  0
 13 12  2  0
 14 17  1  0
 14 10  1  0
 15 14  2  0
 16 12  1  0
 18 17  1  0
 18 19  1  6
 20 19  1  0
 21 20  2  0
 22 21  1  0
 22 23  1  0
 23 24  2  0
 24 20  1  0
 25 18  1  0
 26 25  2  0
 27 25  1  0
M  END
$$$$
