MDH.pdb
     RDKit          3D

 27 27  0  0  1  0  0  0  0  0999 V2000
    7.5532  -10.8835   25.8884 C   0  0  0  0  0  0  0  0  0  0  0  0
    6.3467  -12.2101   25.6384 S   0  0  0  0  0  0  0  0  0  0  0  0
    6.6727  -13.0588   24.0846 C   0  0  0  0  0  0  0  0  0  0  0  0
    7.4915  -14.3299   24.3311 C   0  0  0  0  0  0  0  0  0  0  0  0
    7.8348  -14.8815   22.9772 C   0  0  2  0  0  0  0  0  0  0  0  0
    6.6024  -15.3269   22.3573 N   0  0  0  0  0  0  0  0  0  0  0  0
    8.7875  -16.0280   23.0935 C   0  0  0  0  0  0  0  0  0  0  0  0
    8.3759  -17.2051   23.2255 O   0  0  0  0  0  0  0  0  0  0  0  0
   10.1579  -15.7835   23.0544 N   0  0  0  0  0  0  0  0  0  0  0  0
   11.0821  -16.9405   23.3577 C   0  0  1  0  0  0  0  0  0  0  0  0
   12.3147  -16.5525   22.6039 C   0  0  0  0  0  0  0  0  0  0  0  0
   13.4580  -17.4369   22.6009 C   0  0  0  0  0  0  0  0  0  0  0  0
   13.5279  -18.6688   22.5222 O   0  0  0  0  0  0  0  0  0  0  0  0
   11.2288  -16.8583   24.8191 C   0  0  0  0  0  0  0  0  0  0  0  0
   11.8274  -15.8875   25.3350 O   0  0  0  0  0  0  0  0  0  0  0  0
   14.7200  -16.7726   22.7064 O   0  0  0  0  0  0  0  0  0  0  0  0
   10.7126  -17.8372   25.6815 N   0  0  0  0  0  0  0  0  0  0  0  0
   10.9031  -17.7194   27.1323 C   0  0  1  0  0  0  0  0  0  0  0  0
    9.6331  -17.4069   27.8587 C   0  0  0  0  0  0  0  0  0  0  0  0
    9.2415  -16.0009   27.6256 C   0  0  0  0  0  0  0  0  0  0  0  0
    8.1448  -15.5234   26.9268 C   0  0  0  0  0  0  0  0  0  0  0  0
    8.1528  -14.1875   26.9485 N   0  0  0  0  0  0  0  0  0  0  0  0
    9.2390  -13.8280   27.6508 C   0  0  0  0  0  0  0  0  0  0  0  0
    9.8907  -14.9190   28.0561 N   0  0  0  0  0  0  0  0  0  0  0  0
   11.5103  -18.9941   27.5915 C   0  0  0  0  0  0  0  0  0  0  0  0
   11.6982  -19.8955   26.7281 O   0  0  0  0  0  0  0  0  0  0  0  0
   11.8451  -19.1538   28.9217 O   0  0  0  0  0  0  0  0  0  0  0  0
  2  1  1  0
  3  2  1  0
  4  3  1  0
  4  5  1  0
  5  7  1  0
  5  6  1  1
  7  8  2  0
  9 10  1  0
  9  7  1  0
 10 11  1  6
 12 11  1  0
 13 12  2  0
 14 17  1  0
 14 10  1  0
 15 14  2  0
 16 12  1  0
 18 17  1  0
 18 19  1  1
 20 19  1  0
 21 20  2  0
 22 21  1  0
 22 23  1  0
 23 24  2  0
 24 20  1  0
 25 18  1  0
 26 25  2  0
 27 25  1  0
M  END
$$$$
