GWE.pdb
     RDKit          3D

 28 29  0  0  1  0  0  0  0  0999 V2000
    6.5497  -16.8925   20.0930 N   0  0  0  0  0  0  0  0  0  0  0  0
    6.6277  -17.3630   21.4615 C   0  0  0  0  0  0  0  0  0  0  0  0
    7.8043  -16.7343   22.1607 C   0  0  0  0  0  0  0  0  0  0  0  0
    8.6214  -16.1238   21.4711 O   0  0  0  0  0  0  0  0  0  0  0  0
    7.9822  -16.8286   23.5439 N   0  0  0  0  0  0  0  0  0  0  0  0
    9.0628  -16.3229   24.2633 C   0  0  1  0  0  0  0  0  0  0  0  0
    8.8546  -15.8247   25.6734 C   0  0  0  0  0  0  0  0  0  0  0  0
    7.6049  -15.0605   25.8476 C   0  0  0  0  0  0  0  0  0  0  0  0
    6.3113  -15.4915   25.9898 C   0  0  0  0  0  0  0  0  0  0  0  0
    5.4748  -14.4192   26.1337 N   0  0  0  0  0  0  0  0  0  0  0  0
    6.1834  -13.3021   26.0904 C   0  0  0  0  0  0  0  0  0  0  0  0
    5.8956  -11.9401   26.1832 C   0  0  0  0  0  0  0  0  0  0  0  0
    6.8845  -10.9827   26.1046 C   0  0  0  0  0  0  0  0  0  0  0  0
    8.1989  -11.3472   25.9304 C   0  0  0  0  0  0  0  0  0  0  0  0
    8.4786  -12.7136   25.8382 C   0  0  0  0  0  0  0  0  0  0  0  0
    7.4843  -13.6598   25.9173 C   0  0  0  0  0  0  0  0  0  0  0  0
   10.3685  -17.0125   24.0960 C   0  0  0  0  0  0  0  0  0  0  0  0
   10.5560  -18.1734   24.5520 O   0  0  0  0  0  0  0  0  0  0  0  0
   11.4498  -16.3862   23.4164 N   0  0  0  0  0  0  0  0  0  0  0  0
   12.7503  -16.9564   23.1862 C   0  0  1  0  0  0  0  0  0  0  0  0
   13.5814  -16.1598   22.2501 C   0  0  0  0  0  0  0  0  0  0  0  0
   14.9728  -16.7081   22.0831 C   0  0  0  0  0  0  0  0  0  0  0  0
   15.7379  -15.8894   21.0690 C   0  0  0  0  0  0  0  0  0  0  0  0
   15.1500  -15.4038   20.0709 O   0  0  0  0  0  0  0  0  0  0  0  0
   13.3696  -17.3045   24.4779 C   0  0  0  0  0  0  0  0  0  0  0  0
   14.1205  -18.4422   24.7125 O   0  0  0  0  0  0  0  0  0  0  0  0
   17.0834  -15.6833   21.2531 O   0  0  0  0  0  0  0  0  0  0  0  0
   13.2258  -16.5378   25.4608 O   0  0  0  0  0  0  0  0  0  0  0  0
  1  2  1  0
  3  4  2  0
  3  2  1  0
  5  3  1  0
  6  5  1  0
  6  7  1  1
  8  7  1  0
  9  8  2  0
 10 11  1  0
 10  9  1  0
 11 16  2  0
 12 11  1  0
 12 13  2  0
 13 14  1  0
 14 15  2  0
 16  8  1  0
 16 15  1  0
 17 19  1  0
 17  6  1  0
 18 17  2  0
 20 25  1  0
 20 19  1  0
 20 21  1  1
 22 21  1  0
 23 22  1  0
 24 23  2  0
 25 26  1  0
 27 23  1  0
 28 25  2  0
M  END
$$$$
