GWE.pdb
     RDKit          3D

 28 29  0  0  1  0  0  0  0  0999 V2000
    7.1510  -18.7453   20.2054 N   0  0  0  0  0  0  0  0  0  0  0  0
    7.1122  -18.3010   21.5843 C   0  0  0  0  0  0  0  0  0  0  0  0
    8.2478  -17.3495   21.8557 C   0  0  0  0  0  0  0  0  0  0  0  0
    9.2634  -17.4586   21.1682 O   0  0  0  0  0  0  0  0  0  0  0  0
    8.1727  -16.3691   22.8491 N   0  0  0  0  0  0  0  0  0  0  0  0
    9.2564  -15.7797   23.4964 C   0  0  1  0  0  0  0  0  0  0  0  0
    9.0676  -14.4756   24.2337 C   0  0  0  0  0  0  0  0  0  0  0  0
    7.7522  -14.3580   24.8911 C   0  0  0  0  0  0  0  0  0  0  0  0
    6.7919  -15.3055   25.1349 C   0  0  0  0  0  0  0  0  0  0  0  0
    5.7304  -14.7384   25.7843 N   0  0  0  0  0  0  0  0  0  0  0  0
    5.9694  -13.4502   25.9722 C   0  0  0  0  0  0  0  0  0  0  0  0
    5.2819  -12.3890   26.5620 C   0  0  0  0  0  0  0  0  0  0  0  0
    5.8132  -11.1177   26.6099 C   0  0  0  0  0  0  0  0  0  0  0  0
    7.0510  -10.8560   26.0712 C   0  0  0  0  0  0  0  0  0  0  0  0
    7.7329  -11.9246   25.4821 C   0  0  0  0  0  0  0  0  0  0  0  0
    7.1932  -13.1883   25.4395 C   0  0  0  0  0  0  0  0  0  0  0  0
   10.2043  -16.6885   24.1919 C   0  0  0  0  0  0  0  0  0  0  0  0
    9.8577  -17.8502   24.5399 O   0  0  0  0  0  0  0  0  0  0  0  0
   11.5337  -16.2783   24.4884 N   0  0  0  0  0  0  0  0  0  0  0  0
   12.5530  -17.0866   25.1027 C   0  0  1  0  0  0  0  0  0  0  0  0
   13.9298  -16.6550   24.7569 C   0  0  0  0  0  0  0  0  0  0  0  0
   14.4811  -17.3554   23.5444 C   0  0  0  0  0  0  0  0  0  0  0  0
   15.7048  -16.6299   23.0343 C   0  0  0  0  0  0  0  0  0  0  0  0
   15.6882  -16.0687   21.9107 O   0  0  0  0  0  0  0  0  0  0  0  0
   12.2568  -17.2432   26.5382 C   0  0  0  0  0  0  0  0  0  0  0  0
   11.2961  -16.5269   27.2290 O   0  0  0  0  0  0  0  0  0  0  0  0
   16.8345  -16.5923   23.8149 O   0  0  0  0  0  0  0  0  0  0  0  0
   12.9040  -18.0765   27.2173 O   0  0  0  0  0  0  0  0  0  0  0  0
  1  2  1  0
  3  4  2  0
  3  2  1  0
  5  3  1  0
  6  5  1  0
  6  7  1  1
  8  7  1  0
  9  8  2  0
 10 11  1  0
 10  9  1  0
 11 16  2  0
 12 11  1  0
 12 13  2  0
 13 14  1  0
 14 15  2  0
 16  8  1  0
 16 15  1  0
 17 19  1  0
 17  6  1  0
 18 17  2  0
 20 25  1  0
 20 19  1  0
 20 21  1  1
 22 21  1  0
 23 22  1  0
 24 23  2  0
 25 26  1  0
 27 23  1  0
 28 25  2  0
M  END
$$$$
