GWE.pdb
     RDKit          3D

 28 29  0  0  1  0  0  0  0  0999 V2000
    9.5796  -16.6296   18.2676 N   0  0  0  0  0  0  0  0  0  0  0  0
    8.4055  -16.6989   19.1143 C   0  0  0  0  0  0  0  0  0  0  0  0
    8.7492  -16.2666   20.5155 C   0  0  0  0  0  0  0  0  0  0  0  0
    9.9352  -16.0660   20.7786 O   0  0  0  0  0  0  0  0  0  0  0  0
    7.7714  -16.0934   21.4992 N   0  0  0  0  0  0  0  0  0  0  0  0
    8.0067  -15.7846   22.8372 C   0  0  1  0  0  0  0  0  0  0  0  0
    6.8520  -15.3943   23.7284 C   0  0  0  0  0  0  0  0  0  0  0  0
    7.2685  -14.9831   25.0825 C   0  0  0  0  0  0  0  0  0  0  0  0
    7.8495  -15.7059   26.0922 C   0  0  0  0  0  0  0  0  0  0  0  0
    8.0687  -14.9015   27.1762 N   0  0  0  0  0  0  0  0  0  0  0  0
    7.6492  -13.6759   26.9040 C   0  0  0  0  0  0  0  0  0  0  0  0
    7.6145  -12.4630   27.5927 C   0  0  0  0  0  0  0  0  0  0  0  0
    7.1034  -11.3180   27.0198 C   0  0  0  0  0  0  0  0  0  0  0  0
    6.6071  -11.3387   25.7375 C   0  0  0  0  0  0  0  0  0  0  0  0
    6.6454  -12.5577   25.0547 C   0  0  0  0  0  0  0  0  0  0  0  0
    7.1569  -13.6938   25.6361 C   0  0  0  0  0  0  0  0  0  0  0  0
    9.0187  -16.6048   23.5523 C   0  0  0  0  0  0  0  0  0  0  0  0
    8.8773  -17.8519   23.6774 O   0  0  0  0  0  0  0  0  0  0  0  0
   10.1800  -16.0107   24.1195 N   0  0  0  0  0  0  0  0  0  0  0  0
   11.4103  -16.6867   24.4340 C   0  0  1  0  0  0  0  0  0  0  0  0
   12.5961  -16.0773   23.7825 C   0  0  0  0  0  0  0  0  0  0  0  0
   13.8880  -16.7508   24.1595 C   0  0  0  0  0  0  0  0  0  0  0  0
   14.9179  -16.5492   23.0720 C   0  0  0  0  0  0  0  0  0  0  0  0
   15.6975  -17.4815   22.7548 O   0  0  0  0  0  0  0  0  0  0  0  0
   11.4980  -16.8946   25.8907 C   0  0  0  0  0  0  0  0  0  0  0  0
   12.2531  -17.8780   26.5039 O   0  0  0  0  0  0  0  0  0  0  0  0
   14.9902  -15.3340   22.4356 O   0  0  0  0  0  0  0  0  0  0  0  0
   10.8531  -16.1456   26.6637 O   0  0  0  0  0  0  0  0  0  0  0  0
  1  2  1  0
  3  4  2  0
  3  2  1  0
  5  3  1  0
  6  5  1  0
  6  7  1  1
  8  7  1  0
  9  8  2  0
 10 11  1  0
 10  9  1  0
 11 16  2  0
 12 11  1  0
 12 13  2  0
 13 14  1  0
 14 15  2  0
 16  8  1  0
 16 15  1  0
 17 19  1  0
 17  6  1  0
 18 17  2  0
 20 25  1  0
 20 19  1  0
 20 21  1  1
 22 21  1  0
 23 22  1  0
 24 23  2  0
 25 26  1  0
 27 23  1  0
 28 25  2  0
M  END
$$$$
