GWE.pdb
     RDKit          3D

 28 29  0  0  1  0  0  0  0  0999 V2000
    8.7236  -17.3842   18.3226 N   0  0  0  0  0  0  0  0  0  0  0  0
    7.6864  -17.3664   19.3346 C   0  0  0  0  0  0  0  0  0  0  0  0
    8.2095  -16.7466   20.6038 C   0  0  0  0  0  0  0  0  0  0  0  0
    9.3945  -16.4138   20.6328 O   0  0  0  0  0  0  0  0  0  0  0  0
    7.3951  -16.5472   21.7222 N   0  0  0  0  0  0  0  0  0  0  0  0
    7.7851  -15.9487   22.9183 C   0  0  1  0  0  0  0  0  0  0  0  0
    6.7790  -15.1610   23.7227 C   0  0  0  0  0  0  0  0  0  0  0  0
    7.2328  -14.8550   25.0926 C   0  0  0  0  0  0  0  0  0  0  0  0
    7.9155  -15.6272   25.9967 C   0  0  0  0  0  0  0  0  0  0  0  0
    8.1305  -14.9196   27.1470 N   0  0  0  0  0  0  0  0  0  0  0  0
    7.6097  -13.7093   27.0205 C   0  0  0  0  0  0  0  0  0  0  0  0
    7.5220  -12.5770   27.8309 C   0  0  0  0  0  0  0  0  0  0  0  0
    6.9005  -11.4238   27.4012 C   0  0  0  0  0  0  0  0  0  0  0  0
    6.3425  -11.3558   26.1462 C   0  0  0  0  0  0  0  0  0  0  0  0
    6.4345  -12.4945   25.3410 C   0  0  0  0  0  0  0  0  0  0  0  0
    7.0561  -13.6395   25.7800 C   0  0  0  0  0  0  0  0  0  0  0  0
    8.7239  -16.7117   23.7813 C   0  0  0  0  0  0  0  0  0  0  0  0
    8.4434  -17.8744   24.1817 O   0  0  0  0  0  0  0  0  0  0  0  0
    9.9698  -16.1561   24.1844 N   0  0  0  0  0  0  0  0  0  0  0  0
   11.2145  -16.8668   24.3078 C   0  0  1  0  0  0  0  0  0  0  0  0
   12.3448  -16.1905   23.6247 C   0  0  0  0  0  0  0  0  0  0  0  0
   13.6238  -16.9818   23.6755 C   0  0  0  0  0  0  0  0  0  0  0  0
   14.7006  -16.2846   22.8764 C   0  0  0  0  0  0  0  0  0  0  0  0
   14.8344  -16.5201   21.6499 O   0  0  0  0  0  0  0  0  0  0  0  0
   11.4297  -17.2394   25.7177 C   0  0  0  0  0  0  0  0  0  0  0  0
   11.5088  -16.3429   26.7681 O   0  0  0  0  0  0  0  0  0  0  0  0
   15.5302  -15.3907   23.5085 O   0  0  0  0  0  0  0  0  0  0  0  0
   11.5568  -18.4488   26.0267 O   0  0  0  0  0  0  0  0  0  0  0  0
  1  2  1  0
  3  4  2  0
  3  2  1  0
  5  3  1  0
  6  5  1  0
  6  7  1  1
  8  7  1  0
  9  8  2  0
 10 11  1  0
 10  9  1  0
 11 16  2  0
 12 11  1  0
 12 13  2  0
 13 14  1  0
 14 15  2  0
 16  8  1  0
 16 15  1  0
 17 19  1  0
 17  6  1  0
 18 17  2  0
 20 25  1  0
 20 19  1  0
 20 21  1  1
 22 21  1  0
 23 22  1  0
 24 23  2  0
 25 26  1  0
 27 23  1  0
 28 25  2  0
M  END
$$$$
