GWE.pdb
     RDKit          3D

 28 29  0  0  1  0  0  0  0  0999 V2000
   10.2788  -16.6275   18.5230 N   0  0  0  0  0  0  0  0  0  0  0  0
    9.1332  -17.1014   19.2735 C   0  0  0  0  0  0  0  0  0  0  0  0
    9.2090  -16.6175   20.6978 C   0  0  0  0  0  0  0  0  0  0  0  0
   10.2628  -16.1029   21.0728 O   0  0  0  0  0  0  0  0  0  0  0  0
    8.1322  -16.7389   21.5807 N   0  0  0  0  0  0  0  0  0  0  0  0
    8.1283  -16.3538   22.9196 C   0  0  1  0  0  0  0  0  0  0  0  0
    6.8244  -15.9915   23.5893 C   0  0  0  0  0  0  0  0  0  0  0  0
    6.9954  -15.4344   24.9445 C   0  0  0  0  0  0  0  0  0  0  0  0
    7.1431  -16.0645   26.1530 C   0  0  0  0  0  0  0  0  0  0  0  0
    7.2808  -15.1378   27.1492 N   0  0  0  0  0  0  0  0  0  0  0  0
    7.2281  -13.9226   26.6272 C   0  0  0  0  0  0  0  0  0  0  0  0
    7.3116  -12.6230   27.1279 C   0  0  0  0  0  0  0  0  0  0  0  0
    7.2242  -11.5212   26.3039 C   0  0  0  0  0  0  0  0  0  0  0  0
    7.0503  -11.6734   24.9483 C   0  0  0  0  0  0  0  0  0  0  0  0
    6.9675  -12.9785   24.4550 C   0  0  0  0  0  0  0  0  0  0  0  0
    7.0552  -14.0702   25.2862 C   0  0  0  0  0  0  0  0  0  0  0  0
    9.0497  -17.0773   23.8338 C   0  0  0  0  0  0  0  0  0  0  0  0
    8.9748  -18.3278   23.9798 O   0  0  0  0  0  0  0  0  0  0  0  0
   10.0464  -16.3834   24.5745 N   0  0  0  0  0  0  0  0  0  0  0  0
   11.0847  -16.9848   25.3682 C   0  0  1  0  0  0  0  0  0  0  0  0
   12.4304  -16.4228   25.0944 C   0  0  0  0  0  0  0  0  0  0  0  0
   13.1814  -17.1798   24.0326 C   0  0  0  0  0  0  0  0  0  0  0  0
   14.0358  -16.2324   23.2223 C   0  0  0  0  0  0  0  0  0  0  0  0
   14.9804  -15.6071   23.7647 O   0  0  0  0  0  0  0  0  0  0  0  0
   10.6648  -17.0204   26.7808 C   0  0  0  0  0  0  0  0  0  0  0  0
   11.1997  -17.8582   27.7427 O   0  0  0  0  0  0  0  0  0  0  0  0
   13.7659  -16.0644   21.8860 O   0  0  0  0  0  0  0  0  0  0  0  0
    9.7570  -16.2502   27.1772 O   0  0  0  0  0  0  0  0  0  0  0  0
  1  2  1  0
  3  4  2  0
  3  2  1  0
  5  3  1  0
  6  5  1  0
  6  7  1  1
  8  7  1  0
  9  8  2  0
 10 11  1  0
 10  9  1  0
 11 16  2  0
 12 11  1  0
 12 13  2  0
 13 14  1  0
 14 15  2  0
 16  8  1  0
 16 15  1  0
 17 19  1  0
 17  6  1  0
 18 17  2  0
 20 25  1  0
 20 19  1  0
 20 21  1  1
 22 21  1  0
 23 22  1  0
 24 23  2  0
 25 26  1  0
 27 23  1  0
 28 25  2  0
M  END
$$$$
