GWE.pdb
     RDKit          3D

 28 29  0  0  1  0  0  0  0  0999 V2000
    9.5974  -16.4095   17.8413 N   0  0  0  0  0  0  0  0  0  0  0  0
    8.5725  -16.8526   18.7651 C   0  0  0  0  0  0  0  0  0  0  0  0
    8.8155  -16.2663   20.1310 C   0  0  0  0  0  0  0  0  0  0  0  0
    9.9833  -16.1299   20.4965 O   0  0  0  0  0  0  0  0  0  0  0  0
    7.7661  -15.8835   20.9712 N   0  0  0  0  0  0  0  0  0  0  0  0
    7.8567  -15.6755   22.3458 C   0  0  1  0  0  0  0  0  0  0  0  0
    6.6374  -15.2285   23.1160 C   0  0  0  0  0  0  0  0  0  0  0  0
    6.8932  -15.0265   24.5547 C   0  0  0  0  0  0  0  0  0  0  0  0
    7.1015  -15.9377   25.5576 C   0  0  0  0  0  0  0  0  0  0  0  0
    7.3086  -15.2884   26.7432 N   0  0  0  0  0  0  0  0  0  0  0  0
    7.2424  -13.9815   26.5441 C   0  0  0  0  0  0  0  0  0  0  0  0
    7.3720  -12.8476   27.3466 C   0  0  0  0  0  0  0  0  0  0  0  0
    7.2524  -11.5753   26.8293 C   0  0  0  0  0  0  0  0  0  0  0  0
    6.9990  -11.3851   25.4911 C   0  0  0  0  0  0  0  0  0  0  0  0
    6.8705  -12.5262   24.6944 C   0  0  0  0  0  0  0  0  0  0  0  0
    6.9910  -13.7904   25.2210 C   0  0  0  0  0  0  0  0  0  0  0  0
    8.6946  -16.6279   23.1198 C   0  0  0  0  0  0  0  0  0  0  0  0
    8.5292  -17.8741   23.0178 O   0  0  0  0  0  0  0  0  0  0  0  0
    9.7108  -16.1656   24.0013 N   0  0  0  0  0  0  0  0  0  0  0  0
   10.8865  -16.8947   24.3960 C   0  0  1  0  0  0  0  0  0  0  0  0
   12.1342  -16.3640   23.7934 C   0  0  0  0  0  0  0  0  0  0  0  0
   13.3588  -17.1446   24.1879 C   0  0  0  0  0  0  0  0  0  0  0  0
   14.5859  -16.5581   23.5288 C   0  0  0  0  0  0  0  0  0  0  0  0
   14.4838  -15.5666   22.7644 O   0  0  0  0  0  0  0  0  0  0  0  0
   10.8885  -17.0682   25.8598 C   0  0  0  0  0  0  0  0  0  0  0  0
   10.7345  -16.0440   26.7766 O   0  0  0  0  0  0  0  0  0  0  0  0
   15.8132  -17.1231   23.7765 O   0  0  0  0  0  0  0  0  0  0  0  0
   11.0401  -18.2142   26.3480 O   0  0  0  0  0  0  0  0  0  0  0  0
  1  2  1  0
  3  4  2  0
  3  2  1  0
  5  3  1  0
  6  5  1  0
  6  7  1  1
  8  7  1  0
  9  8  2  0
 10 11  1  0
 10  9  1  0
 11 16  2  0
 12 11  1  0
 12 13  2  0
 13 14  1  0
 14 15  2  0
 16  8  1  0
 16 15  1  0
 17 19  1  0
 17  6  1  0
 18 17  2  0
 20 25  1  0
 20 19  1  0
 20 21  1  1
 22 21  1  0
 23 22  1  0
 24 23  2  0
 25 26  1  0
 27 23  1  0
 28 25  2  0
M  END
$$$$
