GWE.pdb
     RDKit          3D

 28 29  0  0  1  0  0  0  0  0999 V2000
    6.0985  -15.1185   20.7983 N   0  0  0  0  0  0  0  0  0  0  0  0
    6.7976  -16.2976   21.2686 C   0  0  0  0  0  0  0  0  0  0  0  0
    7.8239  -15.9151   22.3025 C   0  0  0  0  0  0  0  0  0  0  0  0
    8.6309  -15.0325   22.0097 O   0  0  0  0  0  0  0  0  0  0  0  0
    7.8767  -16.5284   23.5574 N   0  0  0  0  0  0  0  0  0  0  0  0
    8.8578  -16.3224   24.5248 C   0  0  1  0  0  0  0  0  0  0  0  0
    8.4557  -15.9171   25.9227 C   0  0  0  0  0  0  0  0  0  0  0  0
    7.3039  -14.9961   25.9585 C   0  0  0  0  0  0  0  0  0  0  0  0
    5.9581  -15.2558   25.9889 C   0  0  0  0  0  0  0  0  0  0  0  0
    5.2567  -14.0824   26.0257 N   0  0  0  0  0  0  0  0  0  0  0  0
    6.1039  -13.0655   26.0211 C   0  0  0  0  0  0  0  0  0  0  0  0
    5.9861  -11.6756   26.0516 C   0  0  0  0  0  0  0  0  0  0  0  0
    7.0928  -10.8534   26.0424 C   0  0  0  0  0  0  0  0  0  0  0  0
    8.3598  -11.3863   26.0025 C   0  0  0  0  0  0  0  0  0  0  0  0
    8.4689  -12.7794   25.9720 C   0  0  0  0  0  0  0  0  0  0  0  0
    7.3584  -13.5897   25.9809 C   0  0  0  0  0  0  0  0  0  0  0  0
   10.0186  -17.2503   24.5189 C   0  0  0  0  0  0  0  0  0  0  0  0
    9.8546  -18.5003   24.5570 O   0  0  0  0  0  0  0  0  0  0  0  0
   11.3528  -16.7595   24.4700 N   0  0  0  0  0  0  0  0  0  0  0  0
   12.5499  -17.5421   24.6250 C   0  0  1  0  0  0  0  0  0  0  0  0
   13.7488  -16.9020   24.0297 C   0  0  0  0  0  0  0  0  0  0  0  0
   13.5789  -16.5716   22.5714 C   0  0  0  0  0  0  0  0  0  0  0  0
   14.7595  -15.7675   22.0777 C   0  0  0  0  0  0  0  0  0  0  0  0
   15.6628  -15.4109   22.8744 O   0  0  0  0  0  0  0  0  0  0  0  0
   12.6706  -17.9827   26.0265 C   0  0  0  0  0  0  0  0  0  0  0  0
   13.5710  -18.9289   26.4821 O   0  0  0  0  0  0  0  0  0  0  0  0
   14.8317  -15.4322   20.7477 O   0  0  0  0  0  0  0  0  0  0  0  0
   11.9172  -17.4873   26.8991 O   0  0  0  0  0  0  0  0  0  0  0  0
  1  2  1  0
  3  4  2  0
  3  2  1  0
  5  3  1  0
  6  5  1  0
  6  7  1  1
  8  7  1  0
  9  8  2  0
 10 11  1  0
 10  9  1  0
 11 16  2  0
 12 11  1  0
 12 13  2  0
 13 14  1  0
 14 15  2  0
 16  8  1  0
 16 15  1  0
 17 19  1  0
 17  6  1  0
 18 17  2  0
 20 25  1  0
 20 19  1  0
 20 21  1  1
 22 21  1  0
 23 22  1  0
 24 23  2  0
 25 26  1  0
 27 23  1  0
 28 25  2  0
M  END
$$$$
