GWE.pdb
     RDKit          3D

 28 29  0  0  1  0  0  0  0  0999 V2000
    6.3194  -15.5998   20.1370 N   0  0  0  0  0  0  0  0  0  0  0  0
    6.5389  -16.6414   21.1204 C   0  0  0  0  0  0  0  0  0  0  0  0
    7.6762  -16.2632   22.0326 C   0  0  0  0  0  0  0  0  0  0  0  0
    8.6312  -15.6628   21.5392 O   0  0  0  0  0  0  0  0  0  0  0  0
    7.6685  -16.5736   23.3955 N   0  0  0  0  0  0  0  0  0  0  0  0
    8.7090  -16.3373   24.2913 C   0  0  1  0  0  0  0  0  0  0  0  0
    8.3948  -15.9628   25.7199 C   0  0  0  0  0  0  0  0  0  0  0  0
    7.2868  -14.9967   25.8435 C   0  0  0  0  0  0  0  0  0  0  0  0
    5.9335  -15.2010   25.9235 C   0  0  0  0  0  0  0  0  0  0  0  0
    5.2861  -14.0020   26.0381 N   0  0  0  0  0  0  0  0  0  0  0  0
    6.1758  -13.0219   26.0360 C   0  0  0  0  0  0  0  0  0  0  0  0
    6.1200  -11.6308   26.1269 C   0  0  0  0  0  0  0  0  0  0  0  0
    7.2600  -10.8560   26.1010 C   0  0  0  0  0  0  0  0  0  0  0  0
    8.4998  -11.4391   25.9836 C   0  0  0  0  0  0  0  0  0  0  0  0
    8.5467  -12.8331   25.8930 C   0  0  0  0  0  0  0  0  0  0  0  0
    7.4033  -13.5960   25.9192 C   0  0  0  0  0  0  0  0  0  0  0  0
    9.9024  -17.2168   24.1885 C   0  0  0  0  0  0  0  0  0  0  0  0
    9.8235  -18.4533   24.4241 O   0  0  0  0  0  0  0  0  0  0  0  0
   11.1730  -16.6932   23.8211 N   0  0  0  0  0  0  0  0  0  0  0  0
   12.4265  -17.3972   23.8717 C   0  0  1  0  0  0  0  0  0  0  0  0
   13.5008  -16.7366   23.0900 C   0  0  0  0  0  0  0  0  0  0  0  0
   13.6630  -17.3098   21.7080 C   0  0  0  0  0  0  0  0  0  0  0  0
   14.3514  -16.3111   20.8066 C   0  0  0  0  0  0  0  0  0  0  0  0
   14.8327  -15.2526   21.2818 O   0  0  0  0  0  0  0  0  0  0  0  0
   12.7460  -17.7314   25.2714 C   0  0  0  0  0  0  0  0  0  0  0  0
   12.4617  -16.9267   26.3600 O   0  0  0  0  0  0  0  0  0  0  0  0
   14.4439  -16.5758   19.4619 O   0  0  0  0  0  0  0  0  0  0  0  0
   13.3195  -18.8160   25.5344 O   0  0  0  0  0  0  0  0  0  0  0  0
  1  2  1  0
  3  4  2  0
  3  2  1  0
  5  3  1  0
  6  5  1  0
  6  7  1  1
  8  7  1  0
  9  8  2  0
 10 11  1  0
 10  9  1  0
 11 16  2  0
 12 11  1  0
 12 13  2  0
 13 14  1  0
 14 15  2  0
 16  8  1  0
 16 15  1  0
 17 19  1  0
 17  6  1  0
 18 17  2  0
 20 25  1  0
 20 19  1  0
 20 21  1  1
 22 21  1  0
 23 22  1  0
 24 23  2  0
 25 26  1  0
 27 23  1  0
 28 25  2  0
M  END
$$$$
