GWE.pdb
     RDKit          3D

 28 29  0  0  1  0  0  0  0  0999 V2000
    7.3117  -14.8592   19.8110 N   0  0  0  0  0  0  0  0  0  0  0  0
    7.0985  -15.6649   20.9966 C   0  0  0  0  0  0  0  0  0  0  0  0
    8.2064  -15.4309   21.9898 C   0  0  0  0  0  0  0  0  0  0  0  0
    9.1588  -14.7370   21.6329 O   0  0  0  0  0  0  0  0  0  0  0  0
    8.1748  -15.9736   23.2775 N   0  0  0  0  0  0  0  0  0  0  0  0
    9.1950  -15.8901   24.2226 C   0  0  1  0  0  0  0  0  0  0  0  0
    8.8675  -15.4971   25.6432 C   0  0  0  0  0  0  0  0  0  0  0  0
    7.5694  -14.8094   25.7777 C   0  0  0  0  0  0  0  0  0  0  0  0
    6.2920  -15.3059   25.7414 C   0  0  0  0  0  0  0  0  0  0  0  0
    5.3917  -14.2925   25.9218 N   0  0  0  0  0  0  0  0  0  0  0  0
    6.0428  -13.1504   26.0753 C   0  0  0  0  0  0  0  0  0  0  0  0
    5.6779  -11.8213   26.2923 C   0  0  0  0  0  0  0  0  0  0  0  0
    6.6192  -10.8223   26.4208 C   0  0  0  0  0  0  0  0  0  0  0  0
    7.9612  -11.1107   26.3379 C   0  0  0  0  0  0  0  0  0  0  0  0
    8.3182  -12.4444   26.1202 C   0  0  0  0  0  0  0  0  0  0  0  0
    7.3709  -13.4326   25.9929 C   0  0  0  0  0  0  0  0  0  0  0  0
   10.2653  -16.9188   24.1547 C   0  0  0  0  0  0  0  0  0  0  0  0
    9.9866  -18.1481   24.1119 O   0  0  0  0  0  0  0  0  0  0  0  0
   11.6393  -16.5511   24.1360 N   0  0  0  0  0  0  0  0  0  0  0  0
   12.7573  -17.4423   24.2950 C   0  0  1  0  0  0  0  0  0  0  0  0
   14.0009  -16.9403   23.6601 C   0  0  0  0  0  0  0  0  0  0  0  0
   13.7408  -16.0438   22.4797 C   0  0  0  0  0  0  0  0  0  0  0  0
   15.0432  -15.6758   21.8072 C   0  0  0  0  0  0  0  0  0  0  0  0
   15.9505  -15.0961   22.4540 O   0  0  0  0  0  0  0  0  0  0  0  0
   12.8622  -17.8516   25.7072 C   0  0  0  0  0  0  0  0  0  0  0  0
   12.1409  -17.2929   26.7470 O   0  0  0  0  0  0  0  0  0  0  0  0
   15.2215  -15.9834   20.4804 O   0  0  0  0  0  0  0  0  0  0  0  0
   13.6545  -18.7698   26.0293 O   0  0  0  0  0  0  0  0  0  0  0  0
  1  2  1  0
  3  4  2  0
  3  2  1  0
  5  3  1  0
  6  5  1  0
  6  7  1  1
  8  7  1  0
  9  8  2  0
 10 11  1  0
 10  9  1  0
 11 16  2  0
 12 11  1  0
 12 13  2  0
 13 14  1  0
 14 15  2  0
 16  8  1  0
 16 15  1  0
 17 19  1  0
 17  6  1  0
 18 17  2  0
 20 25  1  0
 20 19  1  0
 20 21  1  1
 22 21  1  0
 23 22  1  0
 24 23  2  0
 25 26  1  0
 27 23  1  0
 28 25  2  0
M  END
$$$$
