MGW.pdb
     RDKit          3D

 27 28  0  0  1  0  0  0  0  0999 V2000
   24.7828  -12.7722  -15.0693 C   0  0  0  0  0  0  0  0  0  0  0  0
   23.5426  -13.9521  -15.5981 S   0  0  0  0  0  0  0  0  0  0  0  0
   24.1454  -15.1924  -16.7391 C   0  0  0  0  0  0  0  0  0  0  0  0
   25.5214  -15.7241  -16.3886 C   0  0  0  0  0  0  0  0  0  0  0  0
   25.3712  -17.2118  -16.0477 C   0  0  2  0  0  0  0  0  0  0  0  0
   24.7242  -17.2949  -14.7704 N   0  0  0  0  0  0  0  0  0  0  0  0
   26.7372  -17.8352  -15.9373 C   0  0  0  0  0  0  0  0  0  0  0  0
   27.4104  -18.0880  -16.9575 O   0  0  0  0  0  0  0  0  0  0  0  0
   27.3074  -18.1551  -14.6722 N   0  0  0  0  0  0  0  0  0  0  0  0
   28.2295  -19.2118  -14.4469 C   0  0  0  0  0  0  0  0  0  0  0  0
   27.7365  -20.4197  -13.8162 C   0  0  0  0  0  0  0  0  0  0  0  0
   28.4560  -21.4561  -13.8806 O   0  0  0  0  0  0  0  0  0  0  0  0
   26.5076  -20.5129  -13.1337 N   0  0  0  0  0  0  0  0  0  0  0  0
   26.0191  -21.7615  -12.6050 C   0  0  1  0  0  0  0  0  0  0  0  0
   26.5780  -22.2106  -11.3074 C   0  0  0  0  0  0  0  0  0  0  0  0
   26.3414  -21.3292  -10.1627 C   0  0  0  0  0  0  0  0  0  0  0  0
   25.2608  -20.5967   -9.7668 C   0  0  0  0  0  0  0  0  0  0  0  0
   25.5724  -19.9481   -8.6201 N   0  0  0  0  0  0  0  0  0  0  0  0
   26.8125  -20.2314   -8.2564 C   0  0  0  0  0  0  0  0  0  0  0  0
   27.5969  -19.8309   -7.1826 C   0  0  0  0  0  0  0  0  0  0  0  0
   28.8796  -20.3068   -7.0809 C   0  0  0  0  0  0  0  0  0  0  0  0
   29.3944  -21.1619   -8.0110 C   0  0  0  0  0  0  0  0  0  0  0  0
   28.6012  -21.5576   -9.0827 C   0  0  0  0  0  0  0  0  0  0  0  0
   27.3232  -21.0848   -9.1869 C   0  0  0  0  0  0  0  0  0  0  0  0
   24.5205  -21.6111  -12.4563 C   0  0  0  0  0  0  0  0  0  0  0  0
   24.0233  -20.4799  -12.5215 O   0  0  0  0  0  0  0  0  0  0  0  0
   23.7102  -22.7158  -12.2491 O   0  0  0  0  0  0  0  0  0  0  0  0
  2  3  1  0
  2  1  1  0
  4  5  1  0
  4  3  1  0
  5  6  1  1
  5  7  1  0
  7  8  2  0
  9  7  1  0
  9 10  1  0
 11 10  1  0
 11 12  2  0
 13 11  1  0
 14 13  1  0
 14 15  1  1
 16 17  2  0
 16 15  1  0
 18 17  1  0
 19 24  2  0
 19 18  1  0
 20 19  1  0
 21 22  1  0
 21 20  2  0
 22 23  2  0
 23 24  1  0
 24 16  1  0
 25 14  1  0
 26 25  2  0
 27 25  1  0
M  END
$$$$
