MGW.pdb
     RDKit          3D

 27 28  0  0  1  0  0  0  0  0999 V2000
   27.3440  -12.5128  -18.0815 C   0  0  0  0  0  0  0  0  0  0  0  0
   27.0731  -13.4752  -19.5681 S   0  0  0  0  0  0  0  0  0  0  0  0
   27.5748  -15.1884  -19.4379 C   0  0  0  0  0  0  0  0  0  0  0  0
   26.6501  -16.0295  -18.5797 C   0  0  0  0  0  0  0  0  0  0  0  0
   27.4907  -16.6385  -17.4508 C   0  0  2  0  0  0  0  0  0  0  0  0
   28.1792  -17.7732  -17.9941 N   0  0  0  0  0  0  0  0  0  0  0  0
   26.5764  -17.1106  -16.3516 C   0  0  0  0  0  0  0  0  0  0  0  0
   25.4430  -17.5642  -16.6116 O   0  0  0  0  0  0  0  0  0  0  0  0
   26.9706  -17.0587  -14.9842 N   0  0  0  0  0  0  0  0  0  0  0  0
   26.1642  -17.4850  -13.8954 C   0  0  0  0  0  0  0  0  0  0  0  0
   26.0386  -18.9095  -13.6609 C   0  0  0  0  0  0  0  0  0  0  0  0
   25.6373  -19.6326  -14.6158 O   0  0  0  0  0  0  0  0  0  0  0  0
   26.3373  -19.5410  -12.4374 N   0  0  0  0  0  0  0  0  0  0  0  0
   26.4294  -20.9744  -12.3191 C   0  0  1  0  0  0  0  0  0  0  0  0
   27.0999  -21.5109  -11.1105 C   0  0  0  0  0  0  0  0  0  0  0  0
   26.6946  -20.9230   -9.8326 C   0  0  0  0  0  0  0  0  0  0  0  0
   25.4758  -20.6361   -9.2912 C   0  0  0  0  0  0  0  0  0  0  0  0
   25.6621  -20.0924   -8.0655 N   0  0  0  0  0  0  0  0  0  0  0  0
   26.9539  -20.0157   -7.7903 C   0  0  0  0  0  0  0  0  0  0  0  0
   27.6593  -19.5440   -6.6909 C   0  0  0  0  0  0  0  0  0  0  0  0
   29.0300  -19.5968   -6.7065 C   0  0  0  0  0  0  0  0  0  0  0  0
   29.7080  -20.1024   -7.7770 C   0  0  0  0  0  0  0  0  0  0  0  0
   28.9930  -20.5727   -8.8734 C   0  0  0  0  0  0  0  0  0  0  0  0
   27.6274  -20.5208   -8.8610 C   0  0  0  0  0  0  0  0  0  0  0  0
   25.0118  -21.5032  -12.3566 C   0  0  0  0  0  0  0  0  0  0  0  0
   24.0785  -20.7314  -12.1032 O   0  0  0  0  0  0  0  0  0  0  0  0
   24.7532  -22.8285  -12.6673 O   0  0  0  0  0  0  0  0  0  0  0  0
  2  3  1  0
  2  1  1  0
  4  5  1  0
  4  3  1  0
  5  6  1  6
  5  7  1  0
  7  8  2  0
  9  7  1  0
  9 10  1  0
 11 10  1  0
 11 12  2  0
 13 11  1  0
 14 13  1  0
 14 15  1  1
 16 17  2  0
 16 15  1  0
 18 17  1  0
 19 24  2  0
 19 18  1  0
 20 19  1  0
 21 22  1  0
 21 20  2  0
 22 23  2  0
 23 24  1  0
 24 16  1  0
 25 14  1  0
 26 25  2  0
 27 25  1  0
M  END
$$$$
