MGW.pdb
     RDKit          3D

 27 28  0  0  1  0  0  0  0  0999 V2000
   25.7477  -20.3867  -11.2350 C   0  0  0  0  0  0  0  0  0  0  0  0
   26.8466  -19.1635  -11.9463 S   0  0  0  0  0  0  0  0  0  0  0  0
   27.5984  -19.6597  -13.4929 C   0  0  0  0  0  0  0  0  0  0  0  0
   27.0096  -20.9296  -14.0757 C   0  0  0  0  0  0  0  0  0  0  0  0
   27.4153  -20.9939  -15.5533 C   0  0  2  0  0  0  0  0  0  0  0  0
   26.5051  -20.1604  -16.2837 N   0  0  0  0  0  0  0  0  0  0  0  0
   27.2726  -22.4097  -16.0452 C   0  0  0  0  0  0  0  0  0  0  0  0
   27.6948  -23.3691  -15.3675 O   0  0  0  0  0  0  0  0  0  0  0  0
   26.6525  -22.7033  -17.2931 N   0  0  0  0  0  0  0  0  0  0  0  0
   25.3835  -23.3249  -17.4369 C   0  0  0  0  0  0  0  0  0  0  0  0
   24.5192  -23.3799  -16.2750 C   0  0  0  0  0  0  0  0  0  0  0  0
   24.1839  -24.5179  -15.8411 O   0  0  0  0  0  0  0  0  0  0  0  0
   24.0303  -22.2463  -15.5962 N   0  0  0  0  0  0  0  0  0  0  0  0
   23.1180  -22.3543  -14.4858 C   0  0  1  0  0  0  0  0  0  0  0  0
   23.1377  -21.2596  -13.4861 C   0  0  0  0  0  0  0  0  0  0  0  0
   23.0811  -19.8973  -14.0192 C   0  0  0  0  0  0  0  0  0  0  0  0
   22.0467  -19.1014  -14.4162 C   0  0  0  0  0  0  0  0  0  0  0  0
   22.5473  -17.9150  -14.8339 N   0  0  0  0  0  0  0  0  0  0  0  0
   23.8657  -17.9098  -14.7230 C   0  0  0  0  0  0  0  0  0  0  0  0
   24.8344  -16.9580  -15.0131 C   0  0  0  0  0  0  0  0  0  0  0  0
   26.1534  -17.2598  -14.7868 C   0  0  0  0  0  0  0  0  0  0  0  0
   26.5273  -18.4717  -14.2842 C   0  0  0  0  0  0  0  0  0  0  0  0
   25.5500  -19.4186  -13.9964 C   0  0  0  0  0  0  0  0  0  0  0  0
   24.2352  -19.1210  -14.2214 C   0  0  0  0  0  0  0  0  0  0  0  0
   21.7270  -22.4407  -15.0760 C   0  0  0  0  0  0  0  0  0  0  0  0
   20.8155  -22.9220  -14.3914 O   0  0  0  0  0  0  0  0  0  0  0  0
   21.4686  -21.9920  -16.3612 O   0  0  0  0  0  0  0  0  0  0  0  0
  2  3  1  0
  2  1  1  0
  4  5  1  0
  4  3  1  0
  5  6  1  6
  5  7  1  0
  7  8  2  0
  9  7  1  0
  9 10  1  0
 11 10  1  0
 11 12  2  0
 13 11  1  0
 14 13  1  0
 14 15  1  1
 16 17  2  0
 16 15  1  0
 18 17  1  0
 19 24  2  0
 19 18  1  0
 20 19  1  0
 21 22  1  0
 21 20  2  0
 22 23  2  0
 23 24  1  0
 24 16  1  0
 25 14  1  0
 26 25  2  0
 27 25  1  0
M  END
$$$$
