MGW.pdb
     RDKit          3D

 27 28  0  0  1  0  0  0  0  0999 V2000
   29.2240  -20.7737  -21.0640 C   0  0  0  0  0  0  0  0  0  0  0  0
   29.1750  -22.5349  -20.7393 S   0  0  0  0  0  0  0  0  0  0  0  0
   28.1490  -22.9989  -19.3480 C   0  0  0  0  0  0  0  0  0  0  0  0
   27.9827  -21.8965  -18.3203 C   0  0  0  0  0  0  0  0  0  0  0  0
   28.0083  -22.5482  -16.9323 C   0  0  2  0  0  0  0  0  0  0  0  0
   26.9134  -23.4727  -16.8733 N   0  0  0  0  0  0  0  0  0  0  0  0
   27.8008  -21.4882  -15.8833 C   0  0  0  0  0  0  0  0  0  0  0  0
   28.6031  -20.5396  -15.7636 O   0  0  0  0  0  0  0  0  0  0  0  0
   26.6871  -21.5287  -14.9968 N   0  0  0  0  0  0  0  0  0  0  0  0
   26.3795  -20.5237  -14.0414 C   0  0  0  0  0  0  0  0  0  0  0  0
   26.1343  -20.9387  -12.6748 C   0  0  0  0  0  0  0  0  0  0  0  0
   25.2442  -21.8120  -12.4729 O   0  0  0  0  0  0  0  0  0  0  0  0
   26.8260  -20.4330  -11.5565 N   0  0  0  0  0  0  0  0  0  0  0  0
   26.3768  -20.6705  -10.2078 C   0  0  1  0  0  0  0  0  0  0  0  0
   27.0249  -19.8838   -9.1313 C   0  0  0  0  0  0  0  0  0  0  0  0
   26.5799  -20.1686   -7.7660 C   0  0  0  0  0  0  0  0  0  0  0  0
   25.4396  -20.7214   -7.2609 C   0  0  0  0  0  0  0  0  0  0  0  0
   25.5353  -20.7569   -5.9109 N   0  0  0  0  0  0  0  0  0  0  0  0
   26.6930  -20.2492   -5.5206 C   0  0  0  0  0  0  0  0  0  0  0  0
   27.2665  -20.0562   -4.2706 C   0  0  0  0  0  0  0  0  0  0  0  0
   28.5118  -19.4863   -4.1900 C   0  0  0  0  0  0  0  0  0  0  0  0
   29.1925  -19.1086   -5.3104 C   0  0  0  0  0  0  0  0  0  0  0  0
   28.6102  -19.3061   -6.5579 C   0  0  0  0  0  0  0  0  0  0  0  0
   27.3695  -19.8731   -6.6412 C   0  0  0  0  0  0  0  0  0  0  0  0
   24.8919  -20.3781  -10.1890 C   0  0  0  0  0  0  0  0  0  0  0  0
   24.1419  -21.1309   -9.5551 O   0  0  0  0  0  0  0  0  0  0  0  0
   24.3711  -19.2884  -10.8683 O   0  0  0  0  0  0  0  0  0  0  0  0
  2  3  1  0
  2  1  1  0
  4  5  1  0
  4  3  1  0
  5  6  1  6
  5  7  1  0
  7  8  2  0
  9  7  1  0
  9 10  1  0
 11 10  1  0
 11 12  2  0
 13 11  1  0
 14 13  1  0
 14 15  1  1
 16 17  2  0
 16 15  1  0
 18 17  1  0
 19 24  2  0
 19 18  1  0
 20 19  1  0
 21 22  1  0
 21 20  2  0
 22 23  2  0
 23 24  1  0
 24 16  1  0
 25 14  1  0
 26 25  2  0
 27 25  1  0
M  END
$$$$
