MGW.pdb
     RDKit          3D

 27 28  0  0  1  0  0  0  0  0999 V2000
   30.8831  -21.9620  -21.4723 C   0  0  0  0  0  0  0  0  0  0  0  0
   29.5519  -21.9656  -20.2733 S   0  0  0  0  0  0  0  0  0  0  0  0
   29.4829  -20.5022  -19.2451 C   0  0  0  0  0  0  0  0  0  0  0  0
   28.2800  -20.4628  -18.3230 C   0  0  0  0  0  0  0  0  0  0  0  0
   28.5465  -21.4387  -17.1703 C   0  0  2  0  0  0  0  0  0  0  0  0
   27.8731  -22.6655  -17.4839 N   0  0  0  0  0  0  0  0  0  0  0  0
   27.9611  -20.8785  -15.9013 C   0  0  0  0  0  0  0  0  0  0  0  0
   26.7667  -20.5198  -15.8505 O   0  0  0  0  0  0  0  0  0  0  0  0
   28.7443  -20.7405  -14.7199 N   0  0  0  0  0  0  0  0  0  0  0  0
   28.2780  -20.1715  -13.5048 C   0  0  0  0  0  0  0  0  0  0  0  0
   27.2620  -20.8919  -12.7641 C   0  0  0  0  0  0  0  0  0  0  0  0
   26.6562  -21.8314  -13.3524 O   0  0  0  0  0  0  0  0  0  0  0  0
   26.9074  -20.6141  -11.4292 N   0  0  0  0  0  0  0  0  0  0  0  0
   25.9928  -21.4484  -10.6914 C   0  0  1  0  0  0  0  0  0  0  0  0
   26.3451  -21.7581   -9.2850 C   0  0  0  0  0  0  0  0  0  0  0  0
   26.6265  -20.6096   -8.4218 C   0  0  0  0  0  0  0  0  0  0  0  0
   26.1379  -19.3364   -8.3875 C   0  0  0  0  0  0  0  0  0  0  0  0
   26.7419  -18.6666   -7.3779 N   0  0  0  0  0  0  0  0  0  0  0  0
   27.6027  -19.4555   -6.7557 C   0  0  0  0  0  0  0  0  0  0  0  0
   28.4596  -19.2572   -5.6809 C   0  0  0  0  0  0  0  0  0  0  0  0
   29.2516  -20.2954   -5.2603 C   0  0  0  0  0  0  0  0  0  0  0  0
   29.2117  -21.5122   -5.8761 C   0  0  0  0  0  0  0  0  0  0  0  0
   28.3503  -21.7014   -6.9515 C   0  0  0  0  0  0  0  0  0  0  0  0
   27.5605  -20.6688   -7.3731 C   0  0  0  0  0  0  0  0  0  0  0  0
   24.6546  -20.7415  -10.7067 C   0  0  0  0  0  0  0  0  0  0  0  0
   24.6072  -19.5580  -11.0646 O   0  0  0  0  0  0  0  0  0  0  0  0
   23.4961  -21.3999  -10.3270 O   0  0  0  0  0  0  0  0  0  0  0  0
  2  3  1  0
  2  1  1  0
  4  5  1  0
  4  3  1  0
  5  6  1  6
  5  7  1  0
  7  8  2  0
  9  7  1  0
  9 10  1  0
 11 10  1  0
 11 12  2  0
 13 11  1  0
 14 13  1  0
 14 15  1  1
 16 17  2  0
 16 15  1  0
 18 17  1  0
 19 24  2  0
 19 18  1  0
 20 19  1  0
 21 22  1  0
 21 20  2  0
 22 23  2  0
 23 24  1  0
 24 16  1  0
 25 14  1  0
 26 25  2  0
 27 25  1  0
M  END
$$$$
