AEC.pdb
     RDKit          3D

 21 20  0  0  1  0  0  0  0  0999 V2000
   16.4348  -12.5169  -11.8726 C   0  0  0  0  0  0  0  0  0  0  0  0
   15.7275  -11.4638  -11.0521 C   0  0  2  0  0  0  0  0  0  0  0  0
   14.2992  -11.6528  -11.2260 N   0  0  0  0  0  0  0  0  0  0  0  0
   16.1194  -10.1109  -11.5256 C   0  0  0  0  0  0  0  0  0  0  0  0
   15.6742   -9.6166  -12.5742 O   0  0  0  0  0  0  0  0  0  0  0  0
   17.0328   -9.3442  -10.7657 N   0  0  0  0  0  0  0  0  0  0  0  0
   17.4053   -7.9954  -11.0281 C   0  0  1  0  0  0  0  0  0  0  0  0
   17.0605   -7.1696   -9.8073 C   0  0  0  0  0  0  0  0  0  0  0  0
   17.4049   -5.7219  -10.0783 C   0  0  0  0  0  0  0  0  0  0  0  0
   16.9825   -4.9346   -8.9004 C   0  0  0  0  0  0  0  0  0  0  0  0
   16.5691   -5.5142   -7.8611 O   0  0  0  0  0  0  0  0  0  0  0  0
   18.8461   -7.8169  -11.3021 C   0  0  0  0  0  0  0  0  0  0  0  0
   19.6712   -8.2754  -10.4727 O   0  0  0  0  0  0  0  0  0  0  0  0
   17.0511   -3.5549   -8.9660 O   0  0  0  0  0  0  0  0  0  0  0  0
   19.3628   -7.1600  -12.4424 N   0  0  0  0  0  0  0  0  0  0  0  0
   20.7795   -7.0572  -12.7373 C   0  0  1  0  0  0  0  0  0  0  0  0
   21.1250   -7.6708  -14.0751 C   0  0  0  0  0  0  0  0  0  0  0  0
   20.7945   -9.4250  -14.1688 S   0  0  0  0  0  0  0  0  0  0  0  0
   21.0756   -5.5897  -12.8769 C   0  0  0  0  0  0  0  0  0  0  0  0
   20.1699   -4.7433  -13.0856 O   0  0  0  0  0  0  0  0  0  0  0  0
   22.3782   -5.1059  -12.7795 O   0  0  0  0  0  0  0  0  0  0  0  0
  2  1  1  6
  2  3  1  0
  4  6  1  0
  4  2  1  0
  5  4  2  0
  7  6  1  0
  7 12  1  0
  7  8  1  1
  9  8  1  0
 10  9  1  0
 11 10  2  0
 12 15  1  0
 13 12  2  0
 14 10  1  0
 15 16  1  0
 16 19  1  0
 16 17  1  6
 17 18  1  0
 19 21  1  0
 20 19  2  0
M  END
$$$$
