AEC.pdb
     RDKit          3D

 21 20  0  0  1  0  0  0  0  0999 V2000
   17.9958  -12.3905  -11.7630 C   0  0  0  0  0  0  0  0  0  0  0  0
   17.1533  -11.1803  -12.0919 C   0  0  2  0  0  0  0  0  0  0  0  0
   17.4724  -10.7742  -13.4480 N   0  0  0  0  0  0  0  0  0  0  0  0
   17.4678  -10.0773  -11.1470 C   0  0  0  0  0  0  0  0  0  0  0  0
   17.3343  -10.1938   -9.9180 O   0  0  0  0  0  0  0  0  0  0  0  0
   17.9376   -8.8420  -11.6498 N   0  0  0  0  0  0  0  0  0  0  0  0
   18.1176   -7.6507  -10.8913 C   0  0  1  0  0  0  0  0  0  0  0  0
   18.9483   -6.6921  -11.7173 C   0  0  0  0  0  0  0  0  0  0  0  0
   20.4008   -7.1074  -11.6419 C   0  0  0  0  0  0  0  0  0  0  0  0
   21.1646   -6.2268  -12.5510 C   0  0  0  0  0  0  0  0  0  0  0  0
   21.4958   -5.0673  -12.1864 O   0  0  0  0  0  0  0  0  0  0  0  0
   16.8542   -6.9687  -10.5427 C   0  0  0  0  0  0  0  0  0  0  0  0
   15.9306   -6.9542  -11.3945 O   0  0  0  0  0  0  0  0  0  0  0  0
   21.5050   -6.7029  -13.8040 O   0  0  0  0  0  0  0  0  0  0  0  0
   16.6127   -6.3265   -9.3066 N   0  0  0  0  0  0  0  0  0  0  0  0
   15.3823   -5.6251   -8.9925 C   0  0  1  0  0  0  0  0  0  0  0  0
   14.8780   -5.9596   -7.6070 C   0  0  0  0  0  0  0  0  0  0  0  0
   13.4481   -5.0077   -7.1126 S   0  0  0  0  0  0  0  0  0  0  0  0
   15.7286   -4.1625   -8.9545 C   0  0  0  0  0  0  0  0  0  0  0  0
   14.8465   -3.2672   -8.9765 O   0  0  0  0  0  0  0  0  0  0  0  0
   17.0539   -3.7382   -8.8930 O   0  0  0  0  0  0  0  0  0  0  0  0
  2  1  1  1
  2  3  1  0
  4  6  1  0
  4  2  1  0
  5  4  2  0
  7  6  1  0
  7 12  1  0
  7  8  1  6
  9  8  1  0
 10  9  1  0
 11 10  2  0
 12 15  1  0
 13 12  2  0
 14 10  1  0
 15 16  1  0
 16 19  1  0
 16 17  1  1
 17 18  1  0
 19 21  1  0
 20 19  2  0
M  END
$$$$
