AEC.pdb
     RDKit          3D

 21 20  0  0  1  0  0  0  0  0999 V2000
   20.3274  -13.2005  -18.7711 C   0  0  0  0  0  0  0  0  0  0  0  0
   21.1670  -12.6027  -17.6664 C   0  0  2  0  0  0  0  0  0  0  0  0
   20.9006  -13.3525  -16.4529 N   0  0  0  0  0  0  0  0  0  0  0  0
   20.7979  -11.1766  -17.4704 C   0  0  0  0  0  0  0  0  0  0  0  0
   21.0011  -10.3103  -18.3365 O   0  0  0  0  0  0  0  0  0  0  0  0
   20.1919  -10.7742  -16.2579 N   0  0  0  0  0  0  0  0  0  0  0  0
   19.7054   -9.4685  -15.9655 C   0  0  1  0  0  0  0  0  0  0  0  0
   18.4684   -9.6128  -15.1050 C   0  0  0  0  0  0  0  0  0  0  0  0
   17.2414   -9.4769  -15.9790 C   0  0  0  0  0  0  0  0  0  0  0  0
   16.0565   -9.5330  -15.0968 C   0  0  0  0  0  0  0  0  0  0  0  0
   15.3642   -8.5006  -14.8927 O   0  0  0  0  0  0  0  0  0  0  0  0
   20.6697   -8.6229  -15.2322 C   0  0  0  0  0  0  0  0  0  0  0  0
   21.2119   -9.0946  -14.2015 O   0  0  0  0  0  0  0  0  0  0  0  0
   15.7279  -10.7385  -14.5041 O   0  0  0  0  0  0  0  0  0  0  0  0
   21.0258   -7.3092  -15.6144 N   0  0  0  0  0  0  0  0  0  0  0  0
   22.0064   -6.5053  -14.9095 C   0  0  1  0  0  0  0  0  0  0  0  0
   22.8964   -5.7366  -15.8596 C   0  0  0  0  0  0  0  0  0  0  0  0
   23.9305   -4.5220  -15.0529 S   0  0  0  0  0  0  0  0  0  0  0  0
   21.2311   -5.4646  -14.1502 C   0  0  0  0  0  0  0  0  0  0  0  0
   20.2091   -4.9119  -14.6302 O   0  0  0  0  0  0  0  0  0  0  0  0
   21.6189   -5.0683  -12.8724 O   0  0  0  0  0  0  0  0  0  0  0  0
  2  1  1  6
  2  3  1  0
  4  6  1  0
  4  2  1  0
  5  4  2  0
  7  6  1  0
  7 12  1  0
  7  8  1  1
  9  8  1  0
 10  9  1  0
 11 10  2  0
 12 15  1  0
 13 12  2  0
 14 10  1  0
 15 16  1  0
 16 19  1  0
 16 17  1  6
 17 18  1  0
 19 21  1  0
 20 19  2  0
M  END
$$$$
