AEC.pdb
     RDKit          3D

 21 20  0  0  1  0  0  0  0  0999 V2000
   17.3851  -12.3995  -17.3177 C   0  0  0  0  0  0  0  0  0  0  0  0
   18.4306  -11.9536  -16.3224 C   0  0  2  0  0  0  0  0  0  0  0  0
   17.9772  -12.3431  -15.0000 N   0  0  0  0  0  0  0  0  0  0  0  0
   18.5892  -10.4775  -16.3875 C   0  0  0  0  0  0  0  0  0  0  0  0
   19.0352   -9.8986  -17.3914 O   0  0  0  0  0  0  0  0  0  0  0  0
   18.2234   -9.6876  -15.2732 N   0  0  0  0  0  0  0  0  0  0  0  0
   18.3909   -8.2781  -15.1629 C   0  0  1  0  0  0  0  0  0  0  0  0
   17.1715   -7.7160  -14.4641 C   0  0  0  0  0  0  0  0  0  0  0  0
   16.0464   -7.5836  -15.4663 C   0  0  0  0  0  0  0  0  0  0  0  0
   14.8810   -7.0147  -14.7565 C   0  0  0  0  0  0  0  0  0  0  0  0
   14.8864   -6.9135  -13.5008 O   0  0  0  0  0  0  0  0  0  0  0  0
   19.5817   -7.8778  -14.3855 C   0  0  0  0  0  0  0  0  0  0  0  0
   19.8719   -8.5396  -13.3575 O   0  0  0  0  0  0  0  0  0  0  0  0
   13.7910   -6.5987  -15.4990 O   0  0  0  0  0  0  0  0  0  0  0  0
   20.4227   -6.7924  -14.7223 N   0  0  0  0  0  0  0  0  0  0  0  0
   21.6841   -6.5178  -14.0604 C   0  0  1  0  0  0  0  0  0  0  0  0
   22.8681   -6.8304  -14.9469 C   0  0  0  0  0  0  0  0  0  0  0  0
   23.0746   -8.5739  -15.2831 S   0  0  0  0  0  0  0  0  0  0  0  0
   21.7279   -5.0317  -13.8364 C   0  0  0  0  0  0  0  0  0  0  0  0
   21.0390   -4.2333  -14.5207 O   0  0  0  0  0  0  0  0  0  0  0  0
   22.5416   -4.4761  -12.8518 O   0  0  0  0  0  0  0  0  0  0  0  0
  2  1  1  6
  2  3  1  0
  4  6  1  0
  4  2  1  0
  5  4  2  0
  7  6  1  0
  7 12  1  0
  7  8  1  1
  9  8  1  0
 10  9  1  0
 11 10  2  0
 12 15  1  0
 13 12  2  0
 14 10  1  0
 15 16  1  0
 16 19  1  0
 16 17  1  6
 17 18  1  0
 19 21  1  0
 20 19  2  0
M  END
$$$$
