AEC.pdb
     RDKit          3D

 21 20  0  0  1  0  0  0  0  0999 V2000
   17.1290  -12.1164  -17.3959 C   0  0  0  0  0  0  0  0  0  0  0  0
   17.5387  -11.5373  -16.0620 C   0  0  2  0  0  0  0  0  0  0  0  0
   16.3358  -11.3520  -15.2716 N   0  0  0  0  0  0  0  0  0  0  0  0
   18.2141  -10.2298  -16.2681 C   0  0  0  0  0  0  0  0  0  0  0  0
   19.2674  -10.1182  -16.9161 O   0  0  0  0  0  0  0  0  0  0  0  0
   17.6495   -9.0587  -15.7119 N   0  0  0  0  0  0  0  0  0  0  0  0
   18.2300   -7.7592  -15.7463 C   0  0  1  0  0  0  0  0  0  0  0  0
   17.1295   -6.7492  -15.5010 C   0  0  0  0  0  0  0  0  0  0  0  0
   17.6842   -5.3567  -15.7042 C   0  0  0  0  0  0  0  0  0  0  0  0
   16.5749   -4.4006  -15.5021 C   0  0  0  0  0  0  0  0  0  0  0  0
   16.2335   -4.0567  -14.3393 O   0  0  0  0  0  0  0  0  0  0  0  0
   19.2753   -7.5454  -14.7244 C   0  0  0  0  0  0  0  0  0  0  0  0
   19.0242   -7.8738  -13.5379 O   0  0  0  0  0  0  0  0  0  0  0  0
   15.9244   -3.8956  -16.6131 O   0  0  0  0  0  0  0  0  0  0  0  0
   20.5482   -6.9920  -14.9933 N   0  0  0  0  0  0  0  0  0  0  0  0
   21.5998   -6.8758  -14.0007 C   0  0  1  0  0  0  0  0  0  0  0  0
   22.8293   -7.6679  -14.3835 C   0  0  0  0  0  0  0  0  0  0  0  0
   22.6123   -9.4379  -14.2591 S   0  0  0  0  0  0  0  0  0  0  0  0
   22.0288   -5.4348  -14.0076 C   0  0  0  0  0  0  0  0  0  0  0  0
   21.8315   -4.6848  -14.9969 O   0  0  0  0  0  0  0  0  0  0  0  0
   22.6679   -4.8690  -12.9069 O   0  0  0  0  0  0  0  0  0  0  0  0
  2  1  1  6
  2  3  1  0
  4  6  1  0
  4  2  1  0
  5  4  2  0
  7  6  1  0
  7 12  1  0
  7  8  1  1
  9  8  1  0
 10  9  1  0
 11 10  2  0
 12 15  1  0
 13 12  2  0
 14 10  1  0
 15 16  1  0
 16 19  1  0
 16 17  1  6
 17 18  1  0
 19 21  1  0
 20 19  2  0
M  END
$$$$
