AEC.pdb
     RDKit          3D

 21 20  0  0  1  0  0  0  0  0999 V2000
   14.1105  -13.4153  -12.7843 C   0  0  0  0  0  0  0  0  0  0  0  0
   14.0152  -11.9315  -13.0520 C   0  0  2  0  0  0  0  0  0  0  0  0
   14.6974  -11.6631  -14.3044 N   0  0  0  0  0  0  0  0  0  0  0  0
   14.6686  -11.1790  -11.9496 C   0  0  0  0  0  0  0  0  0  0  0  0
   14.2906  -11.2627  -10.7698 O   0  0  0  0  0  0  0  0  0  0  0  0
   15.7630  -10.3312  -12.2377 N   0  0  0  0  0  0  0  0  0  0  0  0
   16.5107   -9.5859  -11.2825 C   0  0  1  0  0  0  0  0  0  0  0  0
   17.8039   -9.1509  -11.9380 C   0  0  0  0  0  0  0  0  0  0  0  0
   17.4945   -8.1255  -13.0060 C   0  0  0  0  0  0  0  0  0  0  0  0
   18.7827   -7.6386  -13.5438 C   0  0  0  0  0  0  0  0  0  0  0  0
   19.8697   -8.1241  -13.1321 O   0  0  0  0  0  0  0  0  0  0  0  0
   15.8194   -8.3733  -10.7984 C   0  0  0  0  0  0  0  0  0  0  0  0
   15.1853   -7.6771  -11.6303 O   0  0  0  0  0  0  0  0  0  0  0  0
   18.7664   -6.6432  -14.5037 O   0  0  0  0  0  0  0  0  0  0  0  0
   15.8235   -7.9401   -9.4526 N   0  0  0  0  0  0  0  0  0  0  0  0
   15.0518   -6.8106   -8.9698 C   0  0  1  0  0  0  0  0  0  0  0  0
   14.4697   -7.0676   -7.5984 C   0  0  0  0  0  0  0  0  0  0  0  0
   13.1975   -8.3232   -7.5806 S   0  0  0  0  0  0  0  0  0  0  0  0
   16.0264   -5.6799   -8.7901 C   0  0  0  0  0  0  0  0  0  0  0  0
   15.6541   -4.5226   -8.4706 O   0  0  0  0  0  0  0  0  0  0  0  0
   17.3938   -5.8728   -8.9723 O   0  0  0  0  0  0  0  0  0  0  0  0
  2  1  1  1
  2  3  1  0
  4  6  1  0
  4  2  1  0
  5  4  2  0
  7  6  1  0
  7 12  1  0
  7  8  1  6
  9  8  1  0
 10  9  1  0
 11 10  2  0
 12 15  1  0
 13 12  2  0
 14 10  1  0
 15 16  1  0
 16 19  1  0
 16 17  1  1
 17 18  1  0
 19 21  1  0
 20 19  2  0
M  END
$$$$
