AEC.pdb
     RDKit          3D

 21 20  0  0  1  0  0  0  0  0999 V2000
   14.8927  -11.5667  -14.6953 C   0  0  0  0  0  0  0  0  0  0  0  0
   16.1870  -11.4041  -13.9332 C   0  0  2  0  0  0  0  0  0  0  0  0
   16.0529  -12.1167  -12.6761 N   0  0  0  0  0  0  0  0  0  0  0  0
   16.4389   -9.9629  -13.6724 C   0  0  0  0  0  0  0  0  0  0  0  0
   16.5370   -9.1273  -14.5857 O   0  0  0  0  0  0  0  0  0  0  0  0
   16.5747   -9.5093  -12.3400 N   0  0  0  0  0  0  0  0  0  0  0  0
   16.8508   -8.1705  -11.9421 C   0  0  1  0  0  0  0  0  0  0  0  0
   16.3533   -7.9928  -10.5236 C   0  0  0  0  0  0  0  0  0  0  0  0
   16.4941   -6.5390  -10.1304 C   0  0  0  0  0  0  0  0  0  0  0  0
   15.7717   -6.3496   -8.8546 C   0  0  0  0  0  0  0  0  0  0  0  0
   15.7694   -5.2265   -8.2839 O   0  0  0  0  0  0  0  0  0  0  0  0
   18.2872   -7.8260  -11.9635 C   0  0  0  0  0  0  0  0  0  0  0  0
   19.1043   -8.6486  -11.4791 O   0  0  0  0  0  0  0  0  0  0  0  0
   15.1025   -7.4280   -8.3054 O   0  0  0  0  0  0  0  0  0  0  0  0
   18.8084   -6.6243  -12.4957 N   0  0  0  0  0  0  0  0  0  0  0  0
   20.2140   -6.4191  -12.7902 C   0  0  1  0  0  0  0  0  0  0  0  0
   20.7227   -7.3929  -13.8287 C   0  0  0  0  0  0  0  0  0  0  0  0
   22.3793   -7.0370  -14.3982 S   0  0  0  0  0  0  0  0  0  0  0  0
   20.3176   -5.0601  -13.4250 C   0  0  0  0  0  0  0  0  0  0  0  0
   19.4066   -4.5934  -14.1547 O   0  0  0  0  0  0  0  0  0  0  0  0
   21.4385   -4.2570  -13.2273 O   0  0  0  0  0  0  0  0  0  0  0  0
  2  1  1  6
  2  3  1  0
  4  6  1  0
  4  2  1  0
  5  4  2  0
  7  6  1  0
  7 12  1  0
  7  8  1  1
  9  8  1  0
 10  9  1  0
 11 10  2  0
 12 15  1  0
 13 12  2  0
 14 10  1  0
 15 16  1  0
 16 19  1  0
 16 17  1  6
 17 18  1  0
 19 21  1  0
 20 19  2  0
M  END
$$$$
