AEC.pdb
     RDKit          3D

 21 20  0  0  1  0  0  0  0  0999 V2000
   18.0592  -13.4353  -16.8124 C   0  0  0  0  0  0  0  0  0  0  0  0
   18.9522  -13.0823  -17.9788 C   0  0  2  0  0  0  0  0  0  0  0  0
   19.6851  -14.2776  -18.3527 N   0  0  0  0  0  0  0  0  0  0  0  0
   19.9021  -12.0120  -17.5783 C   0  0  0  0  0  0  0  0  0  0  0  0
   20.8852  -12.2306  -16.8519 O   0  0  0  0  0  0  0  0  0  0  0  0
   19.6932  -10.6892  -18.0325 N   0  0  0  0  0  0  0  0  0  0  0  0
   20.4847   -9.5574  -17.6871 C   0  0  1  0  0  0  0  0  0  0  0  0
   20.6175   -8.6870  -18.9184 C   0  0  0  0  0  0  0  0  0  0  0  0
   21.5558   -7.5406  -18.6127 C   0  0  0  0  0  0  0  0  0  0  0  0
   21.6117   -6.6777  -19.8118 C   0  0  0  0  0  0  0  0  0  0  0  0
   22.4131   -6.9385  -20.7481 O   0  0  0  0  0  0  0  0  0  0  0  0
   19.9044   -8.7299  -16.6094 C   0  0  0  0  0  0  0  0  0  0  0  0
   18.6857   -8.4316  -16.6783 O   0  0  0  0  0  0  0  0  0  0  0  0
   20.7686   -5.5838  -19.8811 O   0  0  0  0  0  0  0  0  0  0  0  0
   20.6330   -8.2474  -15.4981 N   0  0  0  0  0  0  0  0  0  0  0  0
   20.0549   -7.4198  -14.4563 C   0  0  1  0  0  0  0  0  0  0  0  0
   20.4761   -7.8708  -13.0762 C   0  0  0  0  0  0  0  0  0  0  0  0
   19.5899   -9.3070  -12.4870 S   0  0  0  0  0  0  0  0  0  0  0  0
   20.6453   -6.0481  -14.6313 C   0  0  0  0  0  0  0  0  0  0  0  0
   21.5338   -5.8086  -15.4876 O   0  0  0  0  0  0  0  0  0  0  0  0
   20.2265   -4.9785  -13.8433 O   0  0  0  0  0  0  0  0  0  0  0  0
  2  1  1  1
  2  3  1  0
  4  6  1  0
  4  2  1  0
  5  4  2  0
  7  6  1  0
  7 12  1  0
  7  8  1  6
  9  8  1  0
 10  9  1  0
 11 10  2  0
 12 15  1  0
 13 12  2  0
 14 10  1  0
 15 16  1  0
 16 19  1  0
 16 17  1  1
 17 18  1  0
 19 21  1  0
 20 19  2  0
M  END
$$$$
