AEC.pdb
     RDKit          3D

 21 20  0  0  1  0  0  0  0  0999 V2000
   17.7275  -14.6959  -15.6642 C   0  0  0  0  0  0  0  0  0  0  0  0
   16.7445  -13.5742  -15.9053 C   0  0  2  0  0  0  0  0  0  0  0  0
   15.8003  -14.0220  -16.9121 N   0  0  0  0  0  0  0  0  0  0  0  0
   17.4664  -12.3692  -16.3901 C   0  0  0  0  0  0  0  0  0  0  0  0
   18.0996  -12.3561  -17.4582 O   0  0  0  0  0  0  0  0  0  0  0  0
   17.4416  -11.1846  -15.6183 N   0  0  0  0  0  0  0  0  0  0  0  0
   18.1278   -9.9764  -15.9284 C   0  0  1  0  0  0  0  0  0  0  0  0
   17.1377   -8.8363  -15.8219 C   0  0  0  0  0  0  0  0  0  0  0  0
   17.8391   -7.5408  -16.1647 C   0  0  0  0  0  0  0  0  0  0  0  0
   16.8371   -6.4566  -16.0871 C   0  0  0  0  0  0  0  0  0  0  0  0
   15.6483   -6.7097  -15.7558 O   0  0  0  0  0  0  0  0  0  0  0  0
   19.2558   -9.6812  -15.0212 C   0  0  0  0  0  0  0  0  0  0  0  0
   19.0437   -9.6959  -13.7828 O   0  0  0  0  0  0  0  0  0  0  0  0
   17.2330   -5.1655  -16.3852 O   0  0  0  0  0  0  0  0  0  0  0  0
   20.5673   -9.3808  -15.4555 N   0  0  0  0  0  0  0  0  0  0  0  0
   21.6464   -9.0132  -14.5583 C   0  0  1  0  0  0  0  0  0  0  0  0
   23.0025   -9.3450  -15.1384 C   0  0  0  0  0  0  0  0  0  0  0  0
   23.3519  -11.0972  -15.1941 S   0  0  0  0  0  0  0  0  0  0  0  0
   21.6100   -7.5142  -14.4469 C   0  0  0  0  0  0  0  0  0  0  0  0
   21.2029   -6.7852  -15.3866 O   0  0  0  0  0  0  0  0  0  0  0  0
   22.0300   -6.8684  -13.2864 O   0  0  0  0  0  0  0  0  0  0  0  0
  2  1  1  6
  2  3  1  0
  4  6  1  0
  4  2  1  0
  5  4  2  0
  7  6  1  0
  7 12  1  0
  7  8  1  1
  9  8  1  0
 10  9  1  0
 11 10  2  0
 12 15  1  0
 13 12  2  0
 14 10  1  0
 15 16  1  0
 16 19  1  0
 16 17  1  6
 17 18  1  0
 19 21  1  0
 20 19  2  0
M  END
$$$$
