AEC.pdb
     RDKit          3D

 21 20  0  0  1  0  0  0  0  0999 V2000
   20.1007  -14.6986  -19.9959 C   0  0  0  0  0  0  0  0  0  0  0  0
   20.1096  -14.1799  -18.5769 C   0  0  2  0  0  0  0  0  0  0  0  0
   18.9669  -14.7520  -17.8894 N   0  0  0  0  0  0  0  0  0  0  0  0
   20.0051  -12.6976  -18.5832 C   0  0  0  0  0  0  0  0  0  0  0  0
   20.8670  -11.9706  -19.1035 O   0  0  0  0  0  0  0  0  0  0  0  0
   18.8889  -12.0752  -17.9781 N   0  0  0  0  0  0  0  0  0  0  0  0
   18.6893  -10.6716  -17.8481 C   0  0  1  0  0  0  0  0  0  0  0  0
   17.2022  -10.4016  -17.9298 C   0  0  0  0  0  0  0  0  0  0  0  0
   16.7927  -10.3340  -19.3844 C   0  0  0  0  0  0  0  0  0  0  0  0
   15.3416  -10.0546  -19.4271 C   0  0  0  0  0  0  0  0  0  0  0  0
   14.9162   -8.8737  -19.3199 O   0  0  0  0  0  0  0  0  0  0  0  0
   19.1799  -10.1150  -16.5705 C   0  0  0  0  0  0  0  0  0  0  0  0
   18.9676  -10.7657  -15.5168 O   0  0  0  0  0  0  0  0  0  0  0  0
   14.4671  -11.1140  -19.5863 O   0  0  0  0  0  0  0  0  0  0  0  0
   19.8769   -8.8906  -16.4526 N   0  0  0  0  0  0  0  0  0  0  0  0
   20.3122   -8.3326  -15.1862 C   0  0  1  0  0  0  0  0  0  0  0  0
   21.7606   -8.6530  -14.8946 C   0  0  0  0  0  0  0  0  0  0  0  0
   22.4093   -7.8085  -13.4589 S   0  0  0  0  0  0  0  0  0  0  0  0
   20.2519   -6.8383  -15.3410 C   0  0  0  0  0  0  0  0  0  0  0  0
   20.4174   -6.2755  -16.4528 O   0  0  0  0  0  0  0  0  0  0  0  0
   20.0076   -6.0109  -14.2473 O   0  0  0  0  0  0  0  0  0  0  0  0
  2  1  1  6
  2  3  1  0
  4  6  1  0
  4  2  1  0
  5  4  2  0
  7  6  1  0
  7 12  1  0
  7  8  1  1
  9  8  1  0
 10  9  1  0
 11 10  2  0
 12 15  1  0
 13 12  2  0
 14 10  1  0
 15 16  1  0
 16 19  1  0
 16 17  1  6
 17 18  1  0
 19 21  1  0
 20 19  2  0
M  END
$$$$
