AEC.pdb
     RDKit          3D

 21 20  0  0  1  0  0  0  0  0999 V2000
   16.5664  -11.2278  -18.6699 C   0  0  0  0  0  0  0  0  0  0  0  0
   17.1351  -11.1727  -17.2713 C   0  0  2  0  0  0  0  0  0  0  0  0
   16.0216  -11.1723  -16.3406 N   0  0  0  0  0  0  0  0  0  0  0  0
   17.9349   -9.9317  -17.1026 C   0  0  0  0  0  0  0  0  0  0  0  0
   19.0520   -9.7825  -17.6238 O   0  0  0  0  0  0  0  0  0  0  0  0
   17.4193   -8.8713  -16.3221 N   0  0  0  0  0  0  0  0  0  0  0  0
   18.0302   -7.5977  -16.1436 C   0  0  1  0  0  0  0  0  0  0  0  0
   16.9541   -6.6178  -15.7276 C   0  0  0  0  0  0  0  0  0  0  0  0
   17.5440   -5.2255  -15.6882 C   0  0  0  0  0  0  0  0  0  0  0  0
   16.4524   -4.2876  -15.3498 C   0  0  0  0  0  0  0  0  0  0  0  0
   16.6401   -3.0433  -15.4079 O   0  0  0  0  0  0  0  0  0  0  0  0
   19.0821   -7.5807  -15.1064 C   0  0  0  0  0  0  0  0  0  0  0  0
   19.0482   -8.4598  -14.2093 O   0  0  0  0  0  0  0  0  0  0  0  0
   15.2276   -4.8054  -14.9700 O   0  0  0  0  0  0  0  0  0  0  0  0
   20.1318   -6.6350  -15.0546 N   0  0  0  0  0  0  0  0  0  0  0  0
   21.3326   -6.8102  -14.2597 C   0  0  1  0  0  0  0  0  0  0  0  0
   22.1761   -7.9629  -14.7550 C   0  0  0  0  0  0  0  0  0  0  0  0
   23.0744   -8.8057  -13.4597 S   0  0  0  0  0  0  0  0  0  0  0  0
   22.1653   -5.5773  -14.4765 C   0  0  0  0  0  0  0  0  0  0  0  0
   22.2392   -5.0105  -15.5961 O   0  0  0  0  0  0  0  0  0  0  0  0
   22.8948   -5.0093  -13.4346 O   0  0  0  0  0  0  0  0  0  0  0  0
  2  1  1  6
  2  3  1  0
  4  6  1  0
  4  2  1  0
  5  4  2  0
  7  6  1  0
  7 12  1  0
  7  8  1  1
  9  8  1  0
 10  9  1  0
 11 10  2  0
 12 15  1  0
 13 12  2  0
 14 10  1  0
 15 16  1  0
 16 19  1  0
 16 17  1  6
 17 18  1  0
 19 21  1  0
 20 19  2  0
M  END
$$$$
