NCY.pdb
     RDKit          3D

 27 27  0  0  1  0  0  0  0  0999 V2000
   15.0862  -11.1474  -15.6559 N   0  0  0  0  0  0  0  0  0  0  0  0
   15.4821  -10.7182  -14.3496 C   0  0  0  0  0  0  0  0  0  0  0  0
   14.5852  -10.6152  -13.4830 O   0  0  0  0  0  0  0  0  0  0  0  0
   16.9185  -10.4336  -14.1384 C   0  0  0  0  0  0  0  0  0  0  0  0
   17.7851  -10.5716  -15.3319 C   0  0  2  0  0  0  0  0  0  0  0  0
   18.1965  -11.9716  -15.4146 N   0  0  0  0  0  0  0  0  0  0  0  0
   18.9567   -9.6736  -15.3865 C   0  0  0  0  0  0  0  0  0  0  0  0
   19.8044   -9.5977  -14.4754 O   0  0  0  0  0  0  0  0  0  0  0  0
   19.1741   -8.8271  -16.5231 N   0  0  0  0  0  0  0  0  0  0  0  0
   20.3873   -8.0353  -16.6715 C   0  0  1  0  0  0  0  0  0  0  0  0
   20.5780   -7.6966  -18.1571 C   0  0  0  0  0  0  0  0  0  0  0  0
   21.1544   -9.0674  -19.1405 S   0  0  0  0  0  0  0  0  0  0  0  0
   20.2956   -6.7784  -15.8920 C   0  0  0  0  0  0  0  0  0  0  0  0
   19.1529   -6.2009  -15.8486 O   0  0  0  0  0  0  0  0  0  0  0  0
   17.7177   -8.2041  -10.0158 O   0  0  0  0  0  0  0  0  0  0  0  0
   18.6882   -7.5497  -10.7388 C   0  0  0  0  0  0  0  0  0  0  0  0
   19.8837   -8.1503  -11.1091 C   0  0  0  0  0  0  0  0  0  0  0  0
   20.8244   -7.4426  -11.8370 C   0  0  0  0  0  0  0  0  0  0  0  0
   20.6157   -6.1334  -12.2179 C   0  0  0  0  0  0  0  0  0  0  0  0
   21.5753   -5.3436  -12.9794 C   0  0  0  0  0  0  0  0  0  0  0  0
   21.1386   -4.9544  -14.3709 C   0  0  2  0  0  0  0  0  0  0  0  0
   21.3158   -6.1410  -15.1888 N   0  0  0  0  0  0  0  0  0  0  0  0
   21.9732   -3.8819  -14.9426 C   0  0  0  0  0  0  0  0  0  0  0  0
   21.9064   -2.6120  -14.4019 O   0  0  0  0  0  0  0  0  0  0  0  0
   19.4219   -5.5683  -11.8351 C   0  0  0  0  0  0  0  0  0  0  0  0
   18.4640   -6.2362  -11.1134 C   0  0  0  0  0  0  0  0  0  0  0  0
   22.7570   -4.0897  -15.9232 O   0  0  0  0  0  0  0  0  0  0  0  0
  2  1  1  0
  3  2  2  0
  4  2  1  0
  4  5  1  0
  5  7  1  0
  5  6  1  1
  7  9  1  0
  8  7  2  0
  9 10  1  0
 10 11  1  6
 11 12  1  0
 13 10  1  0
 13 14  2  0
 15 16  1  0
 16 17  2  0
 16 26  1  0
 17 18  1  0
 18 19  2  0
 19 20  1  0
 21 20  1  1
 21 22  1  0
 21 23  1  0
 22 13  1  0
 23 24  1  0
 25 19  1  0
 26 25  2  0
 27 23  2  0
M  END
$$$$
