NCY.pdb
     RDKit          3D

 27 27  0  0  1  0  0  0  0  0999 V2000
   19.9428  -18.2258  -17.5640 N   0  0  0  0  0  0  0  0  0  0  0  0
   21.3316  -18.0125  -17.2935 C   0  0  0  0  0  0  0  0  0  0  0  0
   21.7930  -16.8727  -17.5259 O   0  0  0  0  0  0  0  0  0  0  0  0
   22.1005  -19.1594  -16.7625 C   0  0  0  0  0  0  0  0  0  0  0  0
   23.4558  -19.3452  -17.3308 C   0  0  2  0  0  0  0  0  0  0  0  0
   23.2946  -19.8817  -18.6808 N   0  0  0  0  0  0  0  0  0  0  0  0
   24.3796  -20.1818  -16.5378 C   0  0  0  0  0  0  0  0  0  0  0  0
   24.2639  -21.4187  -16.4322 O   0  0  0  0  0  0  0  0  0  0  0  0
   25.4801  -19.5885  -15.8358 N   0  0  0  0  0  0  0  0  0  0  0  0
   26.3502  -20.3703  -14.9685 C   0  0  1  0  0  0  0  0  0  0  0  0
   27.7509  -19.7408  -14.9761 C   0  0  0  0  0  0  0  0  0  0  0  0
   27.7824  -18.0465  -14.4222 S   0  0  0  0  0  0  0  0  0  0  0  0
   25.8315  -20.3906  -13.5805 C   0  0  0  0  0  0  0  0  0  0  0  0
   25.3297  -19.3017  -13.1294 O   0  0  0  0  0  0  0  0  0  0  0  0
   26.5410  -19.3956   -5.2350 O   0  0  0  0  0  0  0  0  0  0  0  0
   26.6161  -19.6161   -6.5910 C   0  0  0  0  0  0  0  0  0  0  0  0
   26.9927  -18.6309   -7.4935 C   0  0  0  0  0  0  0  0  0  0  0  0
   27.0507  -18.9101   -8.8479 C   0  0  0  0  0  0  0  0  0  0  0  0
   26.7417  -20.1581   -9.3477 C   0  0  0  0  0  0  0  0  0  0  0  0
   26.7820  -20.5015  -10.7636 C   0  0  0  0  0  0  0  0  0  0  0  0
   25.6382  -21.3527  -11.2592 C   0  0  2  0  0  0  0  0  0  0  0  0
   25.8215  -21.4665  -12.6951 N   0  0  0  0  0  0  0  0  0  0  0  0
   24.3256  -20.7257  -11.0188 C   0  0  0  0  0  0  0  0  0  0  0  0
   23.5273  -20.3932  -12.0966 O   0  0  0  0  0  0  0  0  0  0  0  0
   26.3725  -21.1109   -8.4274 C   0  0  0  0  0  0  0  0  0  0  0  0
   26.3028  -20.8736   -7.0771 C   0  0  0  0  0  0  0  0  0  0  0  0
   23.9026  -20.4797   -9.8442 O   0  0  0  0  0  0  0  0  0  0  0  0
  2  1  1  0
  3  2  2  0
  4  2  1  0
  4  5  1  0
  5  7  1  0
  5  6  1  6
  7  9  1  0
  8  7  2  0
  9 10  1  0
 10 11  1  1
 11 12  1  0
 13 10  1  0
 13 14  2  0
 15 16  1  0
 16 17  2  0
 16 26  1  0
 17 18  1  0
 18 19  2  0
 19 20  1  0
 21 20  1  6
 21 22  1  0
 21 23  1  0
 22 13  1  0
 23 24  1  0
 25 19  1  0
 26 25  2  0
 27 23  2  0
M  END
$$$$
