NCY.pdb
     RDKit          3D

 27 27  0  0  1  0  0  0  0  0999 V2000
   31.4411  -25.4190  -15.9386 N   0  0  0  0  0  0  0  0  0  0  0  0
   30.5697  -24.6686  -16.7901 C   0  0  0  0  0  0  0  0  0  0  0  0
   30.6705  -24.8564  -18.0232 O   0  0  0  0  0  0  0  0  0  0  0  0
   29.6252  -23.7359  -16.1369 C   0  0  0  0  0  0  0  0  0  0  0  0
   28.9626  -22.7583  -17.0312 C   0  0  2  0  0  0  0  0  0  0  0  0
   30.0138  -21.9887  -17.6937 N   0  0  0  0  0  0  0  0  0  0  0  0
   27.9767  -21.8631  -16.3920 C   0  0  0  0  0  0  0  0  0  0  0  0
   27.1843  -22.2386  -15.5057 O   0  0  0  0  0  0  0  0  0  0  0  0
   27.8874  -20.4845  -16.7758 N   0  0  0  0  0  0  0  0  0  0  0  0
   26.9402  -19.5720  -16.1506 C   0  0  1  0  0  0  0  0  0  0  0  0
   27.5519  -18.1637  -16.1273 C   0  0  0  0  0  0  0  0  0  0  0  0
   26.4129  -16.8917  -15.6147 S   0  0  0  0  0  0  0  0  0  0  0  0
   25.6647  -19.5380  -16.9042 C   0  0  0  0  0  0  0  0  0  0  0  0
   25.7413  -19.3891  -18.1742 O   0  0  0  0  0  0  0  0  0  0  0  0
   19.8440  -22.1438  -12.2775 O   0  0  0  0  0  0  0  0  0  0  0  0
   20.4637  -21.8512  -13.4705 C   0  0  0  0  0  0  0  0  0  0  0  0
   19.7801  -21.3507  -14.5702 C   0  0  0  0  0  0  0  0  0  0  0  0
   20.4561  -21.0744  -15.7459 C   0  0  0  0  0  0  0  0  0  0  0  0
   21.8141  -21.2818  -15.8707 C   0  0  0  0  0  0  0  0  0  0  0  0
   22.5711  -21.0122  -17.0867 C   0  0  0  0  0  0  0  0  0  0  0  0
   23.1625  -19.6274  -17.1912 C   0  0  2  0  0  0  0  0  0  0  0  0
   24.3741  -19.6520  -16.3914 N   0  0  0  0  0  0  0  0  0  0  0  0
   22.2727  -18.5926  -16.6333 C   0  0  0  0  0  0  0  0  0  0  0  0
   21.0884  -18.2979  -17.2813 O   0  0  0  0  0  0  0  0  0  0  0  0
   22.4610  -21.7783  -14.7634 C   0  0  0  0  0  0  0  0  0  0  0  0
   21.8268  -22.0648  -13.5801 C   0  0  0  0  0  0  0  0  0  0  0  0
   22.5625  -17.9589  -15.5686 O   0  0  0  0  0  0  0  0  0  0  0  0
  2  1  1  0
  3  2  2  0
  4  2  1  0
  4  5  1  0
  5  7  1  0
  5  6  1  1
  7  9  1  0
  8  7  2  0
  9 10  1  0
 10 11  1  6
 11 12  1  0
 13 10  1  0
 13 14  2  0
 15 16  1  0
 16 17  2  0
 16 26  1  0
 17 18  1  0
 18 19  2  0
 19 20  1  0
 21 20  1  1
 21 22  1  0
 21 23  1  0
 22 13  1  0
 23 24  1  0
 25 19  1  0
 26 25  2  0
 27 23  2  0
M  END
$$$$
