NCY.pdb
     RDKit          3D

 27 27  0  0  1  0  0  0  0  0999 V2000
   18.6187  -10.0422  -21.2679 N   0  0  0  0  0  0  0  0  0  0  0  0
   18.4622  -10.7347  -20.0256 C   0  0  0  0  0  0  0  0  0  0  0  0
   17.6807  -11.7119  -20.0078 O   0  0  0  0  0  0  0  0  0  0  0  0
   19.2390  -10.2339  -18.8704 C   0  0  0  0  0  0  0  0  0  0  0  0
   20.6958  -10.4994  -18.9096 C   0  0  2  0  0  0  0  0  0  0  0  0
   20.8866  -11.9295  -18.6760 N   0  0  0  0  0  0  0  0  0  0  0  0
   21.5233   -9.6990  -17.9840 C   0  0  0  0  0  0  0  0  0  0  0  0
   21.7438  -10.0297  -16.8023 O   0  0  0  0  0  0  0  0  0  0  0  0
   22.1250   -8.4724  -18.4191 N   0  0  0  0  0  0  0  0  0  0  0  0
   22.8624   -7.6111  -17.5053 C   0  0  1  0  0  0  0  0  0  0  0  0
   23.6361   -6.5681  -18.3248 C   0  0  0  0  0  0  0  0  0  0  0  0
   24.4169   -5.3081  -17.3342 S   0  0  0  0  0  0  0  0  0  0  0  0
   21.9409   -6.9163  -16.5758 C   0  0  0  0  0  0  0  0  0  0  0  0
   20.7979   -6.5690  -17.0386 O   0  0  0  0  0  0  0  0  0  0  0  0
   17.1479   -4.7510   -9.5801 O   0  0  0  0  0  0  0  0  0  0  0  0
   18.0695   -5.2740  -10.4576 C   0  0  0  0  0  0  0  0  0  0  0  0
   19.3177   -5.7289  -10.0548 C   0  0  0  0  0  0  0  0  0  0  0  0
   20.2051   -6.2458  -10.9827 C   0  0  0  0  0  0  0  0  0  0  0  0
   19.8905   -6.3284  -12.3232 C   0  0  0  0  0  0  0  0  0  0  0  0
   20.7902   -6.8588  -13.3399 C   0  0  0  0  0  0  0  0  0  0  0  0
   21.2351   -5.8730  -14.3930 C   0  0  2  0  0  0  0  0  0  0  0  0
   22.1697   -6.5922  -15.2401 N   0  0  0  0  0  0  0  0  0  0  0  0
   21.9445   -4.7164  -13.8163 C   0  0  0  0  0  0  0  0  0  0  0  0
   21.2250   -3.5937  -13.4539 O   0  0  0  0  0  0  0  0  0  0  0  0
   18.6469   -5.8693  -12.6888 C   0  0  0  0  0  0  0  0  0  0  0  0
   17.7391   -5.3501  -11.7995 C   0  0  0  0  0  0  0  0  0  0  0  0
   23.2048   -4.7192  -13.6411 O   0  0  0  0  0  0  0  0  0  0  0  0
  2  1  1  0
  3  2  2  0
  4  2  1  0
  4  5  1  0
  5  7  1  0
  5  6  1  1
  7  9  1  0
  8  7  2  0
  9 10  1  0
 10 11  1  6
 11 12  1  0
 13 10  1  0
 13 14  2  0
 15 16  1  0
 16 17  2  0
 16 26  1  0
 17 18  1  0
 18 19  2  0
 19 20  1  0
 21 20  1  1
 21 22  1  0
 21 23  1  0
 22 13  1  0
 23 24  1  0
 25 19  1  0
 26 25  2  0
 27 23  2  0
M  END
$$$$
