NCY.pdb
     RDKit          3D

 27 27  0  0  1  0  0  0  0  0999 V2000
   20.8817  -12.2189  -20.5323 N   0  0  0  0  0  0  0  0  0  0  0  0
   19.5426  -11.7223  -20.4452 C   0  0  0  0  0  0  0  0  0  0  0  0
   18.7933  -11.9166  -21.4286 O   0  0  0  0  0  0  0  0  0  0  0  0
   19.1613  -11.0222  -19.1990 C   0  0  0  0  0  0  0  0  0  0  0  0
   20.2164  -10.9295  -18.1632 C   0  0  2  0  0  0  0  0  0  0  0  0
   20.3997  -12.2674  -17.6041 N   0  0  0  0  0  0  0  0  0  0  0  0
   19.9854   -9.9378  -17.0930 C   0  0  0  0  0  0  0  0  0  0  0  0
   19.0064   -9.9778  -16.3221 O   0  0  0  0  0  0  0  0  0  0  0  0
   20.9046   -8.8562  -16.8904 N   0  0  0  0  0  0  0  0  0  0  0  0
   20.6694   -7.8242  -15.8903 C   0  0  1  0  0  0  0  0  0  0  0  0
   21.9267   -7.6835  -15.0199 C   0  0  0  0  0  0  0  0  0  0  0  0
   21.8958   -6.2712  -13.9323 S   0  0  0  0  0  0  0  0  0  0  0  0
   20.3733   -6.5230  -16.5345 C   0  0  0  0  0  0  0  0  0  0  0  0
   21.1808   -6.1264  -17.4465 O   0  0  0  0  0  0  0  0  0  0  0  0
   15.6919    0.4765  -19.4926 O   0  0  0  0  0  0  0  0  0  0  0  0
   16.2189   -0.6966  -19.0036 C   0  0  0  0  0  0  0  0  0  0  0  0
   17.4528   -1.1911  -19.4036 C   0  0  0  0  0  0  0  0  0  0  0  0
   17.9332   -2.3777  -18.8774 C   0  0  0  0  0  0  0  0  0  0  0  0
   17.2173   -3.1050  -17.9495 C   0  0  0  0  0  0  0  0  0  0  0  0
   17.6756   -4.3611  -17.3694 C   0  0  0  0  0  0  0  0  0  0  0  0
   19.1079   -4.3732  -16.8930 C   0  0  2  0  0  0  0  0  0  0  0  0
   19.3066   -5.6677  -16.2659 N   0  0  0  0  0  0  0  0  0  0  0  0
   19.3723   -3.3345  -15.8806 C   0  0  0  0  0  0  0  0  0  0  0  0
   19.8554   -2.1043  -16.2840 O   0  0  0  0  0  0  0  0  0  0  0  0
   15.9994   -2.5877  -17.5749 C   0  0  0  0  0  0  0  0  0  0  0  0
   15.4884   -1.4151  -18.0731 C   0  0  0  0  0  0  0  0  0  0  0  0
   19.1689   -3.5362  -14.6408 O   0  0  0  0  0  0  0  0  0  0  0  0
  2  1  1  0
  3  2  2  0
  4  2  1  0
  4  5  1  0
  5  7  1  0
  5  6  1  1
  7  9  1  0
  8  7  2  0
  9 10  1  0
 10 11  1  1
 11 12  1  0
 13 10  1  0
 13 14  2  0
 15 16  1  0
 16 17  2  0
 16 26  1  0
 17 18  1  0
 18 19  2  0
 19 20  1  0
 21 20  1  1
 21 22  1  0
 21 23  1  0
 22 13  1  0
 23 24  1  0
 25 19  1  0
 26 25  2  0
 27 23  2  0
M  END
$$$$
