NCY.pdb
     RDKit          3D

 27 27  0  0  1  0  0  0  0  0999 V2000
   26.1470  -22.0623  -15.5615 N   0  0  0  0  0  0  0  0  0  0  0  0
   26.5170  -20.7683  -15.0756 C   0  0  0  0  0  0  0  0  0  0  0  0
   27.3954  -20.1454  -15.7133 O   0  0  0  0  0  0  0  0  0  0  0  0
   25.8278  -20.2802  -13.8610 C   0  0  0  0  0  0  0  0  0  0  0  0
   24.8156  -21.1944  -13.2830 C   0  0  2  0  0  0  0  0  0  0  0  0
   25.4099  -22.5287  -13.2310 N   0  0  0  0  0  0  0  0  0  0  0  0
   23.5076  -21.2262  -13.9687 C   0  0  0  0  0  0  0  0  0  0  0  0
   23.2685  -21.9513  -14.9543 O   0  0  0  0  0  0  0  0  0  0  0  0
   22.4268  -20.3998  -13.5160 N   0  0  0  0  0  0  0  0  0  0  0  0
   21.1366  -20.3832  -14.1910 C   0  0  1  0  0  0  0  0  0  0  0  0
   20.2727  -21.5244  -13.6346 C   0  0  0  0  0  0  0  0  0  0  0  0
   20.2834  -21.6344  -11.8552 S   0  0  0  0  0  0  0  0  0  0  0  0
   20.4422  -19.0929  -13.9701 C   0  0  0  0  0  0  0  0  0  0  0  0
   20.4936  -18.5973  -12.7900 O   0  0  0  0  0  0  0  0  0  0  0  0
   22.0972  -15.7907  -20.1857 O   0  0  0  0  0  0  0  0  0  0  0  0
   21.5692  -15.8226  -18.9155 C   0  0  0  0  0  0  0  0  0  0  0  0
   20.3050  -15.3349  -18.6140 C   0  0  0  0  0  0  0  0  0  0  0  0
   19.8253  -15.3933  -17.3171 C   0  0  0  0  0  0  0  0  0  0  0  0
   20.5715  -15.9297  -16.2884 C   0  0  0  0  0  0  0  0  0  0  0  0
   20.1150  -16.0099  -14.9066 C   0  0  0  0  0  0  0  0  0  0  0  0
   19.0825  -17.0740  -14.6234 C   0  0  2  0  0  0  0  0  0  0  0  0
   19.7320  -18.3419  -14.9046 N   0  0  0  0  0  0  0  0  0  0  0  0
   17.9052  -16.9635  -15.5040 C   0  0  0  0  0  0  0  0  0  0  0  0
   16.9945  -15.9463  -15.2912 O   0  0  0  0  0  0  0  0  0  0  0  0
   21.8189  -16.4037  -16.6207 C   0  0  0  0  0  0  0  0  0  0  0  0
   22.3303  -16.3639  -17.8941 C   0  0  0  0  0  0  0  0  0  0  0  0
   17.7001  -17.7795  -16.4586 O   0  0  0  0  0  0  0  0  0  0  0  0
  2  1  1  0
  3  2  2  0
  4  2  1  0
  4  5  1  0
  5  7  1  0
  5  6  1  6
  7  9  1  0
  8  7  2  0
  9 10  1  0
 10 11  1  1
 11 12  1  0
 13 10  1  0
 13 14  2  0
 15 16  1  0
 16 17  2  0
 16 26  1  0
 17 18  1  0
 18 19  2  0
 19 20  1  0
 21 20  1  6
 21 22  1  0
 21 23  1  0
 22 13  1  0
 23 24  1  0
 25 19  1  0
 26 25  2  0
 27 23  2  0
M  END
$$$$
