FNP.pdb
     RDKit          3D

 27 28  0  0  1  0  0  0  0  0999 V2000
   28.4162  -21.0313   -9.1032 N   0  0  0  0  0  0  0  0  0  0  0  0
   26.9829  -20.8180   -9.0685 C   0  0  1  0  0  0  0  0  0  0  0  0
   26.5740  -19.7773   -8.0822 C   0  0  0  0  0  0  0  0  0  0  0  0
   27.2513  -19.7621   -6.8135 C   0  0  0  0  0  0  0  0  0  0  0  0
   27.0216  -20.8038   -5.9356 C   0  0  0  0  0  0  0  0  0  0  0  0
   27.6354  -20.8614   -4.6988 C   0  0  0  0  0  0  0  0  0  0  0  0
   28.4977  -19.8727   -4.3099 C   0  0  0  0  0  0  0  0  0  0  0  0
   28.7324  -18.8256   -5.1852 C   0  0  0  0  0  0  0  0  0  0  0  0
   28.1166  -18.7699   -6.4234 C   0  0  0  0  0  0  0  0  0  0  0  0
   26.4424  -20.5816  -10.4349 C   0  0  0  0  0  0  0  0  0  0  0  0
   26.8904  -19.6359  -11.1694 O   0  0  0  0  0  0  0  0  0  0  0  0
   27.2915  -21.2022  -13.8224 N   0  0  0  0  0  0  0  0  0  0  0  0
   26.3866  -22.3401  -13.8084 C   0  0  0  0  0  0  0  0  0  0  0  0
   26.7754  -23.3452  -14.4250 O   0  0  0  0  0  0  0  0  0  0  0  0
   25.1376  -22.2614  -13.1141 C   0  0  0  0  0  0  0  0  0  0  0  0
   24.8000  -20.9857  -12.3370 C   0  0  2  0  0  0  0  0  0  0  0  0
   25.4230  -21.3618  -11.0071 N   0  0  0  0  0  0  0  0  0  0  0  0
   23.3584  -20.9284  -12.1415 C   0  0  0  0  0  0  0  0  0  0  0  0
   22.8723  -21.3984  -11.0449 O   0  0  0  0  0  0  0  0  0  0  0  0
   22.4300  -20.3971  -13.0337 N   0  0  0  0  0  0  0  0  0  0  0  0
   22.6785  -19.9088  -14.3737 C   0  0  0  0  0  0  0  0  0  0  0  0
   21.8993  -18.5903  -14.3628 C   0  0  0  0  0  0  0  0  0  0  0  0
   20.7555  -18.8185  -13.4164 C   0  0  0  0  0  0  0  0  0  0  0  0
   20.9961  -20.1872  -12.8455 C   0  0  1  0  0  0  0  0  0  0  0  0
   20.1968  -21.1746  -13.6055 C   0  0  0  0  0  0  0  0  0  0  0  0
   18.8463  -21.3911  -13.3722 O   0  0  0  0  0  0  0  0  0  0  0  0
   20.7108  -21.8831  -14.5211 O   0  0  0  0  0  0  0  0  0  0  0  0
  2  1  1  6
  3  2  1  0
  4  9  1  0
  4  3  1  0
  5  4  2  0
  6  7  2  0
  6  5  1  0
  7  8  1  0
  8  9  2  0
 10  2  1  0
 11 10  2  0
 13 12  1  0
 14 13  2  0
 15 13  1  0
 16 15  1  6
 16 17  1  0
 17 10  1  0
 18 19  2  0
 18 16  1  0
 20 18  1  0
 21 20  1  0
 22 21  1  0
 23 24  1  0
 23 22  1  0
 24 20  1  0
 24 25  1  6
 26 25  1  0
 27 25  2  0
M  END
$$$$
