FNP.pdb
     RDKit          3D

 27 28  0  0  1  0  0  0  0  0999 V2000
   25.4226  -21.3354   -6.7966 N   0  0  0  0  0  0  0  0  0  0  0  0
   26.2204  -20.6247   -7.7763 C   0  0  1  0  0  0  0  0  0  0  0  0
   27.6763  -20.6307   -7.4547 C   0  0  0  0  0  0  0  0  0  0  0  0
   28.0815  -20.0572   -6.1995 C   0  0  0  0  0  0  0  0  0  0  0  0
   27.9196  -18.6973   -6.0177 C   0  0  0  0  0  0  0  0  0  0  0  0
   28.2835  -18.0726   -4.8400 C   0  0  0  0  0  0  0  0  0  0  0  0
   28.8207  -18.7980   -3.8117 C   0  0  0  0  0  0  0  0  0  0  0  0
   28.9858  -20.1617   -3.9874 C   0  0  0  0  0  0  0  0  0  0  0  0
   28.6205  -20.7853   -5.1677 C   0  0  0  0  0  0  0  0  0  0  0  0
   25.9184  -21.0934   -9.1561 C   0  0  0  0  0  0  0  0  0  0  0  0
   25.9923  -22.3317   -9.4656 O   0  0  0  0  0  0  0  0  0  0  0  0
   23.9632  -21.6580  -13.9958 N   0  0  0  0  0  0  0  0  0  0  0  0
   23.1834  -21.2629  -12.8339 C   0  0  0  0  0  0  0  0  0  0  0  0
   21.9543  -21.4057  -12.9362 O   0  0  0  0  0  0  0  0  0  0  0  0
   23.8344  -20.7479  -11.6680 C   0  0  0  0  0  0  0  0  0  0  0  0
   25.3649  -20.7403  -11.6154 C   0  0  2  0  0  0  0  0  0  0  0  0
   25.5380  -20.2304  -10.1983 N   0  0  0  0  0  0  0  0  0  0  0  0
   25.8557  -19.7048  -12.5134 C   0  0  0  0  0  0  0  0  0  0  0  0
   25.5958  -18.4758  -12.2273 O   0  0  0  0  0  0  0  0  0  0  0  0
   26.6024  -19.9094  -13.6713 N   0  0  0  0  0  0  0  0  0  0  0  0
   26.9831  -21.1764  -14.2591 C   0  0  0  0  0  0  0  0  0  0  0  0
   28.4629  -20.9316  -14.5693 C   0  0  0  0  0  0  0  0  0  0  0  0
   28.5673  -19.4589  -14.8455 C   0  0  0  0  0  0  0  0  0  0  0  0
   27.1942  -18.9171  -14.5660 C   0  0  1  0  0  0  0  0  0  0  0  0
   26.4462  -18.8173  -15.8395 C   0  0  0  0  0  0  0  0  0  0  0  0
   26.7496  -17.8847  -16.8211 O   0  0  0  0  0  0  0  0  0  0  0  0
   25.4768  -19.5887  -16.1036 O   0  0  0  0  0  0  0  0  0  0  0  0
  2  1  1  1
  3  2  1  0
  4  9  1  0
  4  3  1  0
  5  4  2  0
  6  7  2  0
  6  5  1  0
  7  8  1  0
  8  9  2  0
 10  2  1  0
 11 10  2  0
 13 12  1  0
 14 13  2  0
 15 13  1  0
 16 15  1  6
 16 17  1  0
 17 10  1  0
 18 19  2  0
 18 16  1  0
 20 18  1  0
 21 20  1  0
 22 21  1  0
 23 24  1  0
 23 22  1  0
 24 20  1  0
 24 25  1  6
 26 25  1  0
 27 25  2  0
M  END
$$$$
