FNP.pdb
     RDKit          3D

 27 28  0  0  1  0  0  0  0  0999 V2000
   28.8991  -21.0085   -9.2753 N   0  0  0  0  0  0  0  0  0  0  0  0
   27.4528  -20.9658   -9.1880 C   0  0  1  0  0  0  0  0  0  0  0  0
   26.9578  -19.9101   -8.2587 C   0  0  0  0  0  0  0  0  0  0  0  0
   27.4385  -19.9395   -6.9035 C   0  0  0  0  0  0  0  0  0  0  0  0
   28.4626  -19.0811   -6.5526 C   0  0  0  0  0  0  0  0  0  0  0  0
   28.9776  -19.0491   -5.2707 C   0  0  0  0  0  0  0  0  0  0  0  0
   28.4773  -19.8797   -4.3053 C   0  0  0  0  0  0  0  0  0  0  0  0
   27.4507  -20.7427   -4.6503 C   0  0  0  0  0  0  0  0  0  0  0  0
   26.9363  -20.7730   -5.9348 C   0  0  0  0  0  0  0  0  0  0  0  0
   26.8354  -20.8989  -10.5405 C   0  0  0  0  0  0  0  0  0  0  0  0
   27.2741  -20.0912  -11.4292 O   0  0  0  0  0  0  0  0  0  0  0  0
   25.0830  -24.5731  -14.5069 N   0  0  0  0  0  0  0  0  0  0  0  0
   24.3004  -23.6492  -13.7019 C   0  0  0  0  0  0  0  0  0  0  0  0
   23.1920  -23.3361  -14.1657 O   0  0  0  0  0  0  0  0  0  0  0  0
   24.8152  -23.1584  -12.4600 C   0  0  0  0  0  0  0  0  0  0  0  0
   25.2452  -21.6917  -12.3630 C   0  0  2  0  0  0  0  0  0  0  0  0
   25.7493  -21.6999  -10.9334 N   0  0  0  0  0  0  0  0  0  0  0  0
   24.0544  -20.8549  -12.3998 C   0  0  0  0  0  0  0  0  0  0  0  0
   23.4446  -20.6126  -11.2911 O   0  0  0  0  0  0  0  0  0  0  0  0
   23.4989  -20.2679  -13.5343 N   0  0  0  0  0  0  0  0  0  0  0  0
   23.9768  -20.3645  -14.8973 C   0  0  0  0  0  0  0  0  0  0  0  0
   23.8969  -18.9030  -15.3485 C   0  0  0  0  0  0  0  0  0  0  0  0
   22.7555  -18.3141  -14.5698 C   0  0  0  0  0  0  0  0  0  0  0  0
   22.3214  -19.4087  -13.6368 C   0  0  1  0  0  0  0  0  0  0  0  0
   21.1738  -20.1267  -14.2359 C   0  0  0  0  0  0  0  0  0  0  0  0
   21.3222  -21.2498  -15.0371 O   0  0  0  0  0  0  0  0  0  0  0  0
   19.9799  -19.7484  -14.0457 O   0  0  0  0  0  0  0  0  0  0  0  0
  2  1  1  6
  3  2  1  0
  4  9  1  0
  4  3  1  0
  5  4  2  0
  6  7  2  0
  6  5  1  0
  7  8  1  0
  8  9  2  0
 10  2  1  0
 11 10  2  0
 13 12  1  0
 14 13  2  0
 15 13  1  0
 16 15  1  1
 16 17  1  0
 17 10  1  0
 18 19  2  0
 18 16  1  0
 20 18  1  0
 21 20  1  0
 22 21  1  0
 23 24  1  0
 23 22  1  0
 24 20  1  0
 24 25  1  6
 26 25  1  0
 27 25  2  0
M  END
$$$$
