SGV.pdb
     RDKit          3D

 18 17  0  0  1  0  0  0  0  0999 V2000
    8.3088  -20.9164   20.4200 O   0  0  0  0  0  0  0  0  0  0  0  0
    7.7715  -20.2878   21.5357 C   0  0  0  0  0  0  0  0  0  0  0  0
    8.4089  -18.9250   21.7169 C   0  0  2  0  0  0  0  0  0  0  0  0
    9.8366  -19.0787   21.7778 N   0  0  0  0  0  0  0  0  0  0  0  0
    7.8752  -18.3835   23.0167 C   0  0  0  0  0  0  0  0  0  0  0  0
    8.3743  -18.8007   24.0921 O   0  0  0  0  0  0  0  0  0  0  0  0
    6.8380  -17.4283   23.0423 N   0  0  0  0  0  0  0  0  0  0  0  0
    6.3667  -16.7695   24.2331 C   0  0  0  0  0  0  0  0  0  0  0  0
    7.2377  -15.6343   24.5835 C   0  0  0  0  0  0  0  0  0  0  0  0
    8.2476  -15.4680   23.8200 O   0  0  0  0  0  0  0  0  0  0  0  0
    6.3866  -11.9268   24.8725 C   0  0  0  0  0  0  0  0  0  0  0  0
    7.0747  -12.3698   26.1620 C   0  0  1  0  0  0  0  0  0  0  0  0
    6.1010  -12.5626   27.2773 C   0  0  0  0  0  0  0  0  0  0  0  0
    7.9106  -13.6319   25.9073 C   0  0  2  0  0  0  0  0  0  0  0  0
    7.0103  -14.7692   25.6680 N   0  0  0  0  0  0  0  0  0  0  0  0
    8.6410  -13.9030   27.1650 C   0  0  0  0  0  0  0  0  0  0  0  0
    9.5536  -13.1179   27.5040 O   0  0  0  0  0  0  0  0  0  0  0  0
    8.3645  -14.9801   27.9825 O   0  0  0  0  0  0  0  0  0  0  0  0
  1  2  1  0
  3  2  1  0
  3  5  1  0
  3  4  1  1
  5  7  1  0
  6  5  2  0
  7  8  1  0
  9 10  2  0
  9  8  1  0
 12 11  1  6
 13 12  1  0
 14 12  1  0
 14 16  1  0
 14 15  1  1
 15  9  1  0
 16 18  1  0
 17 16  2  0
M  END
$$$$
