SGV.pdb
     RDKit          3D

 18 17  0  0  1  0  0  0  0  0999 V2000
    7.1770  -18.5938   19.3498 O   0  0  0  0  0  0  0  0  0  0  0  0
    8.1098  -17.8051   18.6892 C   0  0  0  0  0  0  0  0  0  0  0  0
    8.9772  -17.0786   19.6971 C   0  0  2  0  0  0  0  0  0  0  0  0
    9.5412  -18.0364   20.6082 N   0  0  0  0  0  0  0  0  0  0  0  0
    8.0651  -16.1253   20.4231 C   0  0  0  0  0  0  0  0  0  0  0  0
    7.5159  -15.2030   19.7693 O   0  0  0  0  0  0  0  0  0  0  0  0
    7.8230  -16.2523   21.8066 N   0  0  0  0  0  0  0  0  0  0  0  0
    7.0252  -15.3370   22.5812 C   0  0  0  0  0  0  0  0  0  0  0  0
    7.8001  -14.7917   23.7091 C   0  0  0  0  0  0  0  0  0  0  0  0
    9.0353  -15.1151   23.7270 O   0  0  0  0  0  0  0  0  0  0  0  0
    7.3514  -11.0942   25.6778 C   0  0  0  0  0  0  0  0  0  0  0  0
    7.3913  -12.3488   26.5477 C   0  0  1  0  0  0  0  0  0  0  0  0
    6.0286  -12.7600   26.9985 C   0  0  0  0  0  0  0  0  0  0  0  0
    8.1150  -13.4818   25.8067 C   0  0  2  0  0  0  0  0  0  0  0  0
    7.2613  -13.9686   24.7133 N   0  0  0  0  0  0  0  0  0  0  0  0
    8.2582  -14.5858   26.7812 C   0  0  0  0  0  0  0  0  0  0  0  0
    7.4479  -15.5368   26.7260 O   0  0  0  0  0  0  0  0  0  0  0  0
    9.2424  -14.6175   27.7482 O   0  0  0  0  0  0  0  0  0  0  0  0
  1  2  1  0
  3  2  1  0
  3  5  1  0
  3  4  1  1
  5  7  1  0
  6  5  2  0
  7  8  1  0
  9 10  2  0
  9  8  1  0
 12 11  1  6
 13 12  1  0
 14 12  1  0
 14 16  1  0
 14 15  1  6
 15  9  1  0
 16 18  1  0
 17 16  2  0
M  END
$$$$
