SGV.pdb
     RDKit          3D

 18 17  0  0  1  0  0  0  0  0999 V2000
    9.9880  -15.2497   19.7897 O   0  0  0  0  0  0  0  0  0  0  0  0
    9.1575  -15.9182   18.8998 C   0  0  0  0  0  0  0  0  0  0  0  0
    8.3942  -17.0076   19.6257 C   0  0  2  0  0  0  0  0  0  0  0  0
    7.6126  -17.7477   18.6733 N   0  0  0  0  0  0  0  0  0  0  0  0
    7.5031  -16.3050   20.6155 C   0  0  0  0  0  0  0  0  0  0  0  0
    6.6086  -15.5370   20.1798 O   0  0  0  0  0  0  0  0  0  0  0  0
    7.6571  -16.4948   22.0044 N   0  0  0  0  0  0  0  0  0  0  0  0
    6.8244  -15.8827   23.0074 C   0  0  0  0  0  0  0  0  0  0  0  0
    7.6278  -15.0483   23.9176 C   0  0  0  0  0  0  0  0  0  0  0  0
    8.8898  -15.2313   23.8512 O   0  0  0  0  0  0  0  0  0  0  0  0
    6.9848  -11.1348   25.4746 C   0  0  0  0  0  0  0  0  0  0  0  0
    7.1714  -12.2912   26.4545 C   0  0  1  0  0  0  0  0  0  0  0  0
    5.8709  -12.7646   27.0146 C   0  0  0  0  0  0  0  0  0  0  0  0
    7.9543  -13.4292   25.7848 C   0  0  2  0  0  0  0  0  0  0  0  0
    7.0874  -14.1045   24.8083 N   0  0  0  0  0  0  0  0  0  0  0  0
    8.2593  -14.4046   26.8545 C   0  0  0  0  0  0  0  0  0  0  0  0
    7.5107  -15.3979   26.9850 O   0  0  0  0  0  0  0  0  0  0  0  0
    9.3298  -14.2719   27.7156 O   0  0  0  0  0  0  0  0  0  0  0  0
  1  2  1  0
  3  2  1  0
  3  5  1  0
  3  4  1  6
  5  7  1  0
  6  5  2  0
  7  8  1  0
  9 10  2  0
  9  8  1  0
 12 11  1  6
 13 12  1  0
 14 12  1  0
 14 16  1  0
 14 15  1  6
 15  9  1  0
 16 18  1  0
 17 16  2  0
M  END
$$$$
