SGV.pdb
     RDKit          3D

 18 17  0  0  1  0  0  0  0  0999 V2000
    3.4426  -18.1218   21.5993 O   0  0  0  0  0  0  0  0  0  0  0  0
    4.5681  -18.8473   21.2312 C   0  0  0  0  0  0  0  0  0  0  0  0
    5.6958  -18.5807   22.2077 C   0  0  2  0  0  0  0  0  0  0  0  0
    5.1452  -18.4007   23.5231 N   0  0  0  0  0  0  0  0  0  0  0  0
    6.3691  -17.3196   21.7345 C   0  0  0  0  0  0  0  0  0  0  0  0
    7.0424  -17.3591   20.6740 O   0  0  0  0  0  0  0  0  0  0  0  0
    6.2553  -16.1129   22.4553 N   0  0  0  0  0  0  0  0  0  0  0  0
    6.9864  -14.9100   22.1505 C   0  0  0  0  0  0  0  0  0  0  0  0
    7.7617  -14.4579   23.3186 C   0  0  0  0  0  0  0  0  0  0  0  0
    8.9311  -14.0166   23.0572 O   0  0  0  0  0  0  0  0  0  0  0  0
    7.2363  -11.6103   25.6734 C   0  0  0  0  0  0  0  0  0  0  0  0
    7.3223  -12.8915   26.5002 C   0  0  1  0  0  0  0  0  0  0  0  0
    5.9736  -13.3850   26.9083 C   0  0  0  0  0  0  0  0  0  0  0  0
    8.1156  -13.9605   25.7357 C   0  0  2  0  0  0  0  0  0  0  0  0
    7.2876  -14.4884   24.6416 N   0  0  0  0  0  0  0  0  0  0  0  0
    8.3434  -15.0666   26.6914 C   0  0  0  0  0  0  0  0  0  0  0  0
    7.6778  -16.1167   26.5556 O   0  0  0  0  0  0  0  0  0  0  0  0
    9.2545  -14.9962   27.7256 O   0  0  0  0  0  0  0  0  0  0  0  0
  1  2  1  0
  3  2  1  0
  3  5  1  0
  3  4  1  1
  5  7  1  0
  6  5  2  0
  7  8  1  0
  9 10  2  0
  9  8  1  0
 12 11  1  6
 13 12  1  0
 14 12  1  0
 14 16  1  0
 14 15  1  6
 15  9  1  0
 16 18  1  0
 17 16  2  0
M  END
$$$$
