SGV.pdb
     RDKit          3D

 18 17  0  0  1  0  0  0  0  0999 V2000
    3.9747  -19.0060   20.6986 O   0  0  0  0  0  0  0  0  0  0  0  0
    4.8612  -18.4924   21.6361 C   0  0  0  0  0  0  0  0  0  0  0  0
    6.2474  -18.3889   21.0327 C   0  0  2  0  0  0  0  0  0  0  0  0
    6.8470  -19.6948   21.0068 N   0  0  0  0  0  0  0  0  0  0  0  0
    7.0256  -17.4627   21.9295 C   0  0  0  0  0  0  0  0  0  0  0  0
    7.8417  -17.9608   22.7453 O   0  0  0  0  0  0  0  0  0  0  0  0
    6.8528  -16.0645   21.8667 N   0  0  0  0  0  0  0  0  0  0  0  0
    7.6614  -15.1110   22.5816 C   0  0  0  0  0  0  0  0  0  0  0  0
    7.1954  -14.9664   23.9715 C   0  0  0  0  0  0  0  0  0  0  0  0
    6.1837  -15.6807   24.2828 O   0  0  0  0  0  0  0  0  0  0  0  0
    9.4770  -13.8120   27.3276 C   0  0  0  0  0  0  0  0  0  0  0  0
    8.1303  -13.1187   27.1325 C   0  0  1  0  0  0  0  0  0  0  0  0
    8.2857  -11.7428   26.5737 C   0  0  0  0  0  0  0  0  0  0  0  0
    7.2101  -13.9883   26.2645 C   0  0  2  0  0  0  0  0  0  0  0  0
    7.7923  -14.1188   24.9209 N   0  0  0  0  0  0  0  0  0  0  0  0
    5.9431  -13.2369   26.1264 C   0  0  0  0  0  0  0  0  0  0  0  0
    5.7369  -12.6083   25.0651 O   0  0  0  0  0  0  0  0  0  0  0  0
    4.9775  -13.1959   27.1117 O   0  0  0  0  0  0  0  0  0  0  0  0
  1  2  1  0
  3  2  1  0
  3  5  1  0
  3  4  1  1
  5  7  1  0
  6  5  2  0
  7  8  1  0
  9 10  2  0
  9  8  1  0
 12 11  1  6
 13 12  1  0
 14 12  1  0
 14 16  1  0
 14 15  1  6
 15  9  1  0
 16 18  1  0
 17 16  2  0
M  END
$$$$
