SGV.pdb
     RDKit          3D

 18 17  0  0  1  0  0  0  0  0999 V2000
   11.3588  -17.3657   21.1731 O   0  0  0  0  0  0  0  0  0  0  0  0
   10.7234  -16.7458   20.1051 C   0  0  0  0  0  0  0  0  0  0  0  0
    9.2946  -17.2391   19.9982 C   0  0  2  0  0  0  0  0  0  0  0  0
    8.9222  -17.3027   18.6115 N   0  0  0  0  0  0  0  0  0  0  0  0
    8.4488  -16.2320   20.7316 C   0  0  0  0  0  0  0  0  0  0  0  0
    8.1085  -15.1816   20.1312 O   0  0  0  0  0  0  0  0  0  0  0  0
    8.0398  -16.4491   22.0636 N   0  0  0  0  0  0  0  0  0  0  0  0
    7.1174  -15.6065   22.7801 C   0  0  0  0  0  0  0  0  0  0  0  0
    7.7966  -14.9054   23.8833 C   0  0  0  0  0  0  0  0  0  0  0  0
    9.0310  -15.1957   24.0338 O   0  0  0  0  0  0  0  0  0  0  0  0
    6.9121  -11.0211   25.4083 C   0  0  0  0  0  0  0  0  0  0  0  0
    7.0870  -12.1752   26.3931 C   0  0  1  0  0  0  0  0  0  0  0  0
    5.7758  -12.7021   26.8753 C   0  0  0  0  0  0  0  0  0  0  0  0
    7.9510  -13.2780   25.7655 C   0  0  2  0  0  0  0  0  0  0  0  0
    7.1720  -13.9743   24.7313 N   0  0  0  0  0  0  0  0  0  0  0  0
    8.2235  -14.2523   26.8450 C   0  0  0  0  0  0  0  0  0  0  0  0
    7.5333  -15.2941   26.8942 O   0  0  0  0  0  0  0  0  0  0  0  0
    9.2022  -14.0677   27.8004 O   0  0  0  0  0  0  0  0  0  0  0  0
  1  2  1  0
  3  2  1  0
  3  5  1  0
  3  4  1  6
  5  7  1  0
  6  5  2  0
  7  8  1  0
  9 10  2  0
  9  8  1  0
 12 11  1  6
 13 12  1  0
 14 12  1  0
 14 16  1  0
 14 15  1  6
 15  9  1  0
 16 18  1  0
 17 16  2  0
M  END
$$$$
