SGV.pdb
     RDKit          3D

 18 17  0  0  1  0  0  0  0  0999 V2000
   11.4324  -17.5190   19.5622 O   0  0  0  0  0  0  0  0  0  0  0  0
   10.3449  -16.6649   19.4335 C   0  0  0  0  0  0  0  0  0  0  0  0
    9.0999  -17.3284   19.9865 C   0  0  2  0  0  0  0  0  0  0  0  0
    8.3789  -17.9470   18.9080 N   0  0  0  0  0  0  0  0  0  0  0  0
    8.2831  -16.2287   20.6121 C   0  0  0  0  0  0  0  0  0  0  0  0
    7.6969  -15.4118   19.8580 O   0  0  0  0  0  0  0  0  0  0  0  0
    8.1693  -16.1056   22.0123 N   0  0  0  0  0  0  0  0  0  0  0  0
    7.2508  -15.2200   22.6801 C   0  0  0  0  0  0  0  0  0  0  0  0
    7.8945  -14.5715   23.8355 C   0  0  0  0  0  0  0  0  0  0  0  0
    9.1066  -14.9139   24.0455 O   0  0  0  0  0  0  0  0  0  0  0  0
    6.9846  -10.8003   25.6947 C   0  0  0  0  0  0  0  0  0  0  0  0
    7.0661  -12.0671   26.5439 C   0  0  1  0  0  0  0  0  0  0  0  0
    5.7140  -12.6147   26.8621 C   0  0  0  0  0  0  0  0  0  0  0  0
    7.9574  -13.1088   25.8533 C   0  0  2  0  0  0  0  0  0  0  0  0
    7.2602  -13.6358   24.6712 N   0  0  0  0  0  0  0  0  0  0  0  0
    8.1063  -14.2248   26.8131 C   0  0  0  0  0  0  0  0  0  0  0  0
    7.3446  -15.2105   26.7021 O   0  0  0  0  0  0  0  0  0  0  0  0
    9.0448  -14.2313   27.8250 O   0  0  0  0  0  0  0  0  0  0  0  0
  1  2  1  0
  3  2  1  0
  3  5  1  0
  3  4  1  6
  5  7  1  0
  6  5  2  0
  7  8  1  0
  9 10  2  0
  9  8  1  0
 12 11  1  6
 13 12  1  0
 14 12  1  0
 14 16  1  0
 14 15  1  6
 15  9  1  0
 16 18  1  0
 17 16  2  0
M  END
$$$$
