SGV.pdb
     RDKit          3D

 18 17  0  0  1  0  0  0  0  0999 V2000
    9.3135  -16.5243   17.9438 O   0  0  0  0  0  0  0  0  0  0  0  0
    8.2408  -17.1644   18.5507 C   0  0  0  0  0  0  0  0  0  0  0  0
    8.6220  -17.5923   19.9534 C   0  0  2  0  0  0  0  0  0  0  0  0
    8.5632  -19.0258   20.0395 N   0  0  0  0  0  0  0  0  0  0  0  0
    7.6098  -16.9611   20.8725 C   0  0  0  0  0  0  0  0  0  0  0  0
    6.3895  -17.1743   20.6602 O   0  0  0  0  0  0  0  0  0  0  0  0
    8.0077  -16.1461   21.9524 N   0  0  0  0  0  0  0  0  0  0  0  0
    7.0996  -15.5227   22.8801 C   0  0  0  0  0  0  0  0  0  0  0  0
    7.8323  -14.6999   23.8579 C   0  0  0  0  0  0  0  0  0  0  0  0
    9.1048  -14.7853   23.7953 O   0  0  0  0  0  0  0  0  0  0  0  0
    6.7906  -11.0117   25.7063 C   0  0  0  0  0  0  0  0  0  0  0  0
    7.1437  -12.1977   26.6014 C   0  0  1  0  0  0  0  0  0  0  0  0
    5.9270  -12.8526   27.1673 C   0  0  0  0  0  0  0  0  0  0  0  0
    8.0254  -13.1933   25.8347 C   0  0  2  0  0  0  0  0  0  0  0  0
    7.2170  -13.8644   24.8064 N   0  0  0  0  0  0  0  0  0  0  0  0
    8.4350  -14.2216   26.8163 C   0  0  0  0  0  0  0  0  0  0  0  0
    7.7719  -15.2800   26.8808 O   0  0  0  0  0  0  0  0  0  0  0  0
    9.5132  -14.0700   27.6644 O   0  0  0  0  0  0  0  0  0  0  0  0
  1  2  1  0
  3  2  1  0
  3  5  1  0
  3  4  1  6
  5  7  1  0
  6  5  2  0
  7  8  1  0
  9 10  2  0
  9  8  1  0
 12 11  1  6
 13 12  1  0
 14 12  1  0
 14 16  1  0
 14 15  1  6
 15  9  1  0
 16 18  1  0
 17 16  2  0
M  END
$$$$
