TED.pdb
     RDKit          3D

 25 24  0  0  1  0  0  0  0  0999 V2000
   26.6476  -18.8798  -16.7940 C   0  0  0  0  0  0  0  0  0  0  0  0
   27.4383  -20.0472  -17.3127 C   0  0  1  0  0  0  0  0  0  0  0  0
   28.4665  -19.6254  -18.1651 O   0  0  0  0  0  0  0  0  0  0  0  0
   27.9621  -20.9676  -16.2452 C   0  0  2  0  0  0  0  0  0  0  0  0
   28.4905  -22.1370  -16.9909 N   0  0  0  0  0  0  0  0  0  0  0  0
   26.8651  -21.4478  -15.3792 C   0  0  0  0  0  0  0  0  0  0  0  0
   25.9866  -22.2308  -15.8766 O   0  0  0  0  0  0  0  0  0  0  0  0
   26.6827  -21.1217  -14.0097 N   0  0  0  0  0  0  0  0  0  0  0  0
   25.5519  -21.6656  -13.2581 C   0  0  1  0  0  0  0  0  0  0  0  0
   25.8051  -21.5570  -11.7648 C   0  0  0  0  0  0  0  0  0  0  0  0
   24.6557  -20.9297  -11.0294 C   0  0  0  0  0  0  0  0  0  0  0  0
   24.9790  -20.8721   -9.5812 C   0  0  0  0  0  0  0  0  0  0  0  0
   26.1441  -21.0192   -9.1233 O   0  0  0  0  0  0  0  0  0  0  0  0
   24.2711  -20.9851  -13.5539 C   0  0  0  0  0  0  0  0  0  0  0  0
   24.2376  -19.7143  -13.5280 O   0  0  0  0  0  0  0  0  0  0  0  0
   23.9762  -20.6458   -8.6355 O   0  0  0  0  0  0  0  0  0  0  0  0
   23.0635  -21.6419  -13.8682 N   0  0  0  0  0  0  0  0  0  0  0  0
   21.8077  -20.9522  -14.2045 C   0  0  1  0  0  0  0  0  0  0  0  0
   21.3077  -21.6481  -15.4475 C   0  0  0  0  0  0  0  0  0  0  0  0
   20.0221  -21.1604  -15.9591 C   0  0  0  0  0  0  0  0  0  0  0  0
   19.3989  -20.2154  -15.4525 O   0  0  0  0  0  0  0  0  0  0  0  0
   20.8891  -20.9713  -13.0676 C   0  0  0  0  0  0  0  0  0  0  0  0
   19.8989  -20.0481  -12.8546 O   0  0  0  0  0  0  0  0  0  0  0  0
   19.4916  -21.8135  -17.0789 O   0  0  0  0  0  0  0  0  0  0  0  0
   20.9942  -21.8901  -12.2080 O   0  0  0  0  0  0  0  0  0  0  0  0
  2  1  1  1
  2  4  1  0
  3  2  1  0
  4  6  1  0
  4  5  1  6
  6  8  1  0
  6  7  2  0
  8  9  1  0
  9 14  1  0
  9 10  1  1
 10 11  1  0
 12 11  1  0
 12 16  1  0
 13 12  2  0
 14 15  2  0
 17 14  1  0
 17 18  1  0
 18 19  1  6
 20 19  1  0
 20 24  1  0
 21 20  2  0
 22 18  1  0
 22 23  1  0
 25 22  2  0
M  END
$$$$
