TED.pdb
     RDKit          3D

 25 24  0  0  1  0  0  0  0  0999 V2000
   19.8026  -11.5988  -21.2190 C   0  0  0  0  0  0  0  0  0  0  0  0
   20.1773  -12.3230  -19.9572 C   0  0  1  0  0  0  0  0  0  0  0  0
   20.5354  -13.6510  -20.2212 O   0  0  0  0  0  0  0  0  0  0  0  0
   21.2269  -11.6320  -19.1313 C   0  0  2  0  0  0  0  0  0  0  0  0
   21.6123  -12.6350  -18.1074 N   0  0  0  0  0  0  0  0  0  0  0  0
   20.6574  -10.4665  -18.4236 C   0  0  0  0  0  0  0  0  0  0  0  0
   20.1668   -9.5085  -19.1119 O   0  0  0  0  0  0  0  0  0  0  0  0
   20.5943  -10.2975  -17.0155 N   0  0  0  0  0  0  0  0  0  0  0  0
   19.9204   -9.1372  -16.4334 C   0  0  1  0  0  0  0  0  0  0  0  0
   18.9596   -9.5733  -15.3416 C   0  0  0  0  0  0  0  0  0  0  0  0
   17.7970  -10.3591  -15.8769 C   0  0  0  0  0  0  0  0  0  0  0  0
   16.8688  -10.6742  -14.7615 C   0  0  0  0  0  0  0  0  0  0  0  0
   17.2094  -11.3252  -13.7373 O   0  0  0  0  0  0  0  0  0  0  0  0
   20.8556   -8.1492  -15.8498 C   0  0  0  0  0  0  0  0  0  0  0  0
   21.9138   -8.5730  -15.2862 O   0  0  0  0  0  0  0  0  0  0  0  0
   15.5384  -10.2503  -14.7999 O   0  0  0  0  0  0  0  0  0  0  0  0
   20.6665   -6.7520  -15.8680 N   0  0  0  0  0  0  0  0  0  0  0  0
   21.6531   -5.7752  -15.3799 C   0  0  1  0  0  0  0  0  0  0  0  0
   21.2979   -4.4863  -16.0811 C   0  0  0  0  0  0  0  0  0  0  0  0
   22.0680   -3.3131  -15.6541 C   0  0  0  0  0  0  0  0  0  0  0  0
   23.3069   -3.2891  -15.6054 O   0  0  0  0  0  0  0  0  0  0  0  0
   21.6386   -5.7145  -13.9194 C   0  0  0  0  0  0  0  0  0  0  0  0
   22.6562   -5.2081  -13.1539 O   0  0  0  0  0  0  0  0  0  0  0  0
   21.3424   -2.1727  -15.2863 O   0  0  0  0  0  0  0  0  0  0  0  0
   20.6318   -6.1527  -13.2962 O   0  0  0  0  0  0  0  0  0  0  0  0
  2  1  1  6
  2  4  1  0
  3  2  1  0
  4  6  1  0
  4  5  1  1
  6  8  1  0
  6  7  2  0
  8  9  1  0
  9 14  1  0
  9 10  1  1
 10 11  1  0
 12 11  1  0
 12 16  1  0
 13 12  2  0
 14 15  2  0
 17 14  1  0
 17 18  1  0
 18 19  1  6
 20 19  1  0
 20 24  1  0
 21 20  2  0
 22 18  1  0
 22 23  1  0
 25 22  2  0
M  END
$$$$
