TED.pdb
     RDKit          3D

 25 24  0  0  1  0  0  0  0  0999 V2000
   17.0870  -11.6154  -18.9725 C   0  0  0  0  0  0  0  0  0  0  0  0
   18.0246  -10.7275  -18.2046 C   0  0  1  0  0  0  0  0  0  0  0  0
   17.3435  -10.0007  -17.2201 O   0  0  0  0  0  0  0  0  0  0  0  0
   19.2192  -11.4353  -17.6273 C   0  0  2  0  0  0  0  0  0  0  0  0
   18.6650  -12.2561  -16.5219 N   0  0  0  0  0  0  0  0  0  0  0  0
   20.1681  -10.4696  -17.0351 C   0  0  0  0  0  0  0  0  0  0  0  0
   20.0087  -10.1187  -15.8171 O   0  0  0  0  0  0  0  0  0  0  0  0
   21.2737   -9.8758  -17.6987 N   0  0  0  0  0  0  0  0  0  0  0  0
   22.1757   -8.9735  -16.9835 C   0  0  1  0  0  0  0  0  0  0  0  0
   23.5142   -8.8864  -17.6951 C   0  0  0  0  0  0  0  0  0  0  0  0
   24.5151   -8.0585  -16.9410 C   0  0  0  0  0  0  0  0  0  0  0  0
   25.7918   -8.0304  -17.6989 C   0  0  0  0  0  0  0  0  0  0  0  0
   26.7993   -7.3645  -17.3379 O   0  0  0  0  0  0  0  0  0  0  0  0
   21.6418   -7.5997  -16.8467 C   0  0  0  0  0  0  0  0  0  0  0  0
   21.2355   -6.9986  -17.8909 O   0  0  0  0  0  0  0  0  0  0  0  0
   25.9359   -8.7624  -18.8799 O   0  0  0  0  0  0  0  0  0  0  0  0
   21.5446   -6.8902  -15.6320 N   0  0  0  0  0  0  0  0  0  0  0  0
   21.0847   -5.4967  -15.5201 C   0  0  1  0  0  0  0  0  0  0  0  0
   19.5904   -5.5989  -15.3304 C   0  0  0  0  0  0  0  0  0  0  0  0
   18.9106   -4.3294  -15.0506 C   0  0  0  0  0  0  0  0  0  0  0  0
   19.1088   -3.2905  -15.6982 O   0  0  0  0  0  0  0  0  0  0  0  0
   21.8022   -4.8016  -14.4530 C   0  0  0  0  0  0  0  0  0  0  0  0
   21.6670   -3.4680  -14.1680 O   0  0  0  0  0  0  0  0  0  0  0  0
   17.9946   -4.3159  -13.9910 O   0  0  0  0  0  0  0  0  0  0  0  0
   22.6082   -5.4511  -13.7301 O   0  0  0  0  0  0  0  0  0  0  0  0
  2  1  1  1
  2  4  1  0
  3  2  1  0
  4  6  1  0
  4  5  1  1
  6  8  1  0
  6  7  2  0
  8  9  1  0
  9 14  1  0
  9 10  1  6
 10 11  1  0
 12 11  1  0
 12 16  1  0
 13 12  2  0
 14 15  2  0
 17 14  1  0
 17 18  1  0
 18 19  1  1
 20 19  1  0
 20 24  1  0
 21 20  2  0
 22 18  1  0
 22 23  1  0
 25 22  2  0
M  END
$$$$
