TED.pdb
     RDKit          3D

 25 24  0  0  1  0  0  0  0  0999 V2000
   12.9591   -8.2066  -15.7930 C   0  0  0  0  0  0  0  0  0  0  0  0
   14.3463   -8.1836  -15.2168 C   0  0  1  0  0  0  0  0  0  0  0  0
   14.4211   -8.9438  -14.0429 O   0  0  0  0  0  0  0  0  0  0  0  0
   15.4290   -8.5730  -16.1850 C   0  0  2  0  0  0  0  0  0  0  0  0
   15.2185  -10.0245  -16.4121 N   0  0  0  0  0  0  0  0  0  0  0  0
   16.7651   -8.4045  -15.5767 C   0  0  0  0  0  0  0  0  0  0  0  0
   16.8630   -7.7660  -14.4744 O   0  0  0  0  0  0  0  0  0  0  0  0
   17.9877   -8.8961  -16.1047 N   0  0  0  0  0  0  0  0  0  0  0  0
   19.2520   -8.6483  -15.4124 C   0  0  1  0  0  0  0  0  0  0  0  0
   20.3219   -9.6091  -15.8999 C   0  0  0  0  0  0  0  0  0  0  0  0
   20.1599  -10.9894  -15.3304 C   0  0  0  0  0  0  0  0  0  0  0  0
   21.1523  -11.8952  -15.9625 C   0  0  0  0  0  0  0  0  0  0  0  0
   20.8363  -12.8492  -16.7233 O   0  0  0  0  0  0  0  0  0  0  0  0
   19.7593   -7.2698  -15.5961 C   0  0  0  0  0  0  0  0  0  0  0  0
   19.3020   -6.5771  -16.5594 O   0  0  0  0  0  0  0  0  0  0  0  0
   22.5198  -11.7245  -15.7345 O   0  0  0  0  0  0  0  0  0  0  0  0
   20.7247   -6.6504  -14.7760 N   0  0  0  0  0  0  0  0  0  0  0  0
   21.1825   -5.2612  -14.9383 C   0  0  1  0  0  0  0  0  0  0  0  0
   19.9349   -4.4248  -14.7867 C   0  0  0  0  0  0  0  0  0  0  0  0
   20.1540   -2.9743  -14.7907 C   0  0  0  0  0  0  0  0  0  0  0  0
   20.3125   -2.3097  -15.8257 O   0  0  0  0  0  0  0  0  0  0  0  0
   22.2546   -4.9583  -13.9919 C   0  0  0  0  0  0  0  0  0  0  0  0
   23.1946   -3.9776  -14.1723 O   0  0  0  0  0  0  0  0  0  0  0  0
   20.1821   -2.3296  -13.5475 O   0  0  0  0  0  0  0  0  0  0  0  0
   22.3435   -5.6321  -12.9279 O   0  0  0  0  0  0  0  0  0  0  0  0
  2  1  1  6
  2  4  1  0
  3  2  1  0
  4  6  1  0
  4  5  1  1
  6  8  1  0
  6  7  2  0
  8  9  1  0
  9 14  1  0
  9 10  1  6
 10 11  1  0
 12 11  1  0
 12 16  1  0
 13 12  2  0
 14 15  2  0
 17 14  1  0
 17 18  1  0
 18 19  1  1
 20 19  1  0
 20 24  1  0
 21 20  2  0
 22 18  1  0
 22 23  1  0
 25 22  2  0
M  END
$$$$
