TED.pdb
     RDKit          3D

 25 24  0  0  1  0  0  0  0  0999 V2000
   15.4816   -8.0455  -16.0929 C   0  0  0  0  0  0  0  0  0  0  0  0
   15.4318   -9.4512  -15.5651 C   0  0  1  0  0  0  0  0  0  0  0  0
   14.2025  -10.0580  -15.8519 O   0  0  0  0  0  0  0  0  0  0  0  0
   16.5798  -10.3200  -15.9991 C   0  0  2  0  0  0  0  0  0  0  0  0
   16.3151  -11.6318  -15.3572 N   0  0  0  0  0  0  0  0  0  0  0  0
   17.8587   -9.8095  -15.4627 C   0  0  0  0  0  0  0  0  0  0  0  0
   17.9848   -9.6732  -14.1987 O   0  0  0  0  0  0  0  0  0  0  0  0
   18.9969   -9.4469  -16.2296 N   0  0  0  0  0  0  0  0  0  0  0  0
   20.2043   -8.9400  -15.5779 C   0  0  1  0  0  0  0  0  0  0  0  0
   21.4425   -9.5743  -16.1863 C   0  0  0  0  0  0  0  0  0  0  0  0
   21.5529  -11.0390  -15.8732 C   0  0  0  0  0  0  0  0  0  0  0  0
   22.8425  -11.5527  -16.4006 C   0  0  0  0  0  0  0  0  0  0  0  0
   23.6916  -10.8279  -16.9858 O   0  0  0  0  0  0  0  0  0  0  0  0
   20.3495   -7.4702  -15.6768 C   0  0  0  0  0  0  0  0  0  0  0  0
   20.0699   -6.9047  -16.7808 O   0  0  0  0  0  0  0  0  0  0  0  0
   23.1807  -12.9014  -16.2671 O   0  0  0  0  0  0  0  0  0  0  0  0
   20.7797   -6.6306  -14.6288 N   0  0  0  0  0  0  0  0  0  0  0  0
   20.9263   -5.1707  -14.7429 C   0  0  1  0  0  0  0  0  0  0  0  0
   19.5852   -4.6158  -14.3271 C   0  0  0  0  0  0  0  0  0  0  0  0
   19.5078   -3.1519  -14.2715 C   0  0  0  0  0  0  0  0  0  0  0  0
   20.0036   -2.4079  -15.1309 O   0  0  0  0  0  0  0  0  0  0  0  0
   22.0652   -4.7042  -13.9542 C   0  0  0  0  0  0  0  0  0  0  0  0
   22.7363   -3.5309  -14.1794 O   0  0  0  0  0  0  0  0  0  0  0  0
   18.8338   -2.5895  -13.1799 O   0  0  0  0  0  0  0  0  0  0  0  0
   22.4794   -5.4125  -12.9945 O   0  0  0  0  0  0  0  0  0  0  0  0
  2  1  1  6
  2  4  1  0
  3  2  1  0
  4  6  1  0
  4  5  1  1
  6  8  1  0
  6  7  2  0
  8  9  1  0
  9 14  1  0
  9 10  1  6
 10 11  1  0
 12 11  1  0
 12 16  1  0
 13 12  2  0
 14 15  2  0
 17 14  1  0
 17 18  1  0
 18 19  1  1
 20 19  1  0
 20 24  1  0
 21 20  2  0
 22 18  1  0
 22 23  1  0
 25 22  2  0
M  END
$$$$
