TED.pdb
     RDKit          3D

 25 24  0  0  1  0  0  0  0  0999 V2000
   13.7264  -10.2658  -11.2279 C   0  0  0  0  0  0  0  0  0  0  0  0
   14.4345  -11.4258  -10.5876 C   0  0  1  0  0  0  0  0  0  0  0  0
   13.7107  -12.6140  -10.7485 O   0  0  0  0  0  0  0  0  0  0  0  0
   15.8640  -11.5985  -11.0211 C   0  0  2  0  0  0  0  0  0  0  0  0
   16.3514  -12.7600  -10.2362 N   0  0  0  0  0  0  0  0  0  0  0  0
   16.6764  -10.4258  -10.6359 C   0  0  0  0  0  0  0  0  0  0  0  0
   16.7890  -10.1357   -9.3968 O   0  0  0  0  0  0  0  0  0  0  0  0
   17.3681   -9.5639  -11.5270 N   0  0  0  0  0  0  0  0  0  0  0  0
   18.0225   -8.3521  -11.0346 C   0  0  1  0  0  0  0  0  0  0  0  0
   19.2058   -7.9920  -11.9153 C   0  0  0  0  0  0  0  0  0  0  0  0
   19.9277   -6.7647  -11.4375 C   0  0  0  0  0  0  0  0  0  0  0  0
   21.1145   -6.5327  -12.2993 C   0  0  0  0  0  0  0  0  0  0  0  0
   21.8592   -5.5208  -12.1981 O   0  0  0  0  0  0  0  0  0  0  0  0
   17.1200   -7.1799  -10.9818 C   0  0  0  0  0  0  0  0  0  0  0  0
   16.3524   -6.9587  -11.9711 O   0  0  0  0  0  0  0  0  0  0  0  0
   21.4675   -7.4531  -13.2890 O   0  0  0  0  0  0  0  0  0  0  0  0
   17.0398   -6.2725   -9.9055 N   0  0  0  0  0  0  0  0  0  0  0  0
   16.0675   -5.1710   -9.8204 C   0  0  1  0  0  0  0  0  0  0  0  0
   15.5108   -5.2567   -8.4197 C   0  0  0  0  0  0  0  0  0  0  0  0
   14.5394   -4.2140   -8.0714 C   0  0  0  0  0  0  0  0  0  0  0  0
   14.1378   -3.3582   -8.8741 O   0  0  0  0  0  0  0  0  0  0  0  0
   16.6999   -3.8982  -10.1627 C   0  0  0  0  0  0  0  0  0  0  0  0
   16.0333   -2.7061  -10.2747 O   0  0  0  0  0  0  0  0  0  0  0  0
   14.0559   -4.2056   -6.7568 O   0  0  0  0  0  0  0  0  0  0  0  0
   17.9441   -3.8678  -10.3754 O   0  0  0  0  0  0  0  0  0  0  0  0
  2  1  1  6
  2  4  1  0
  3  2  1  0
  4  6  1  0
  4  5  1  1
  6  8  1  0
  6  7  2  0
  8  9  1  0
  9 14  1  0
  9 10  1  6
 10 11  1  0
 12 11  1  0
 12 16  1  0
 13 12  2  0
 14 15  2  0
 17 14  1  0
 17 18  1  0
 18 19  1  1
 20 19  1  0
 20 24  1  0
 21 20  2  0
 22 18  1  0
 22 23  1  0
 25 22  2  0
M  END
$$$$
