TED.pdb
     RDKit          3D

 25 24  0  0  1  0  0  0  0  0999 V2000
   16.8125  -11.3754  -17.6213 C   0  0  0  0  0  0  0  0  0  0  0  0
   17.7035  -10.3473  -16.9840 C   0  0  1  0  0  0  0  0  0  0  0  0
   16.9567   -9.2916  -16.4462 O   0  0  0  0  0  0  0  0  0  0  0  0
   18.6674  -10.9010  -15.9714 C   0  0  2  0  0  0  0  0  0  0  0  0
   17.8123  -11.3017  -14.8264 N   0  0  0  0  0  0  0  0  0  0  0  0
   19.5907   -9.8506  -15.4940 C   0  0  0  0  0  0  0  0  0  0  0  0
   19.2798   -9.1878  -14.4470 O   0  0  0  0  0  0  0  0  0  0  0  0
   20.8263   -9.4932  -16.0947 N   0  0  0  0  0  0  0  0  0  0  0  0
   21.5722   -8.3251  -15.6274 C   0  0  1  0  0  0  0  0  0  0  0  0
   22.9927   -8.3526  -16.1630 C   0  0  0  0  0  0  0  0  0  0  0  0
   23.8076   -7.1806  -15.6961 C   0  0  0  0  0  0  0  0  0  0  0  0
   25.2009   -7.3314  -16.1870 C   0  0  0  0  0  0  0  0  0  0  0  0
   25.8375   -8.4186  -16.1474 O   0  0  0  0  0  0  0  0  0  0  0  0
   20.9582   -7.0395  -16.0294 C   0  0  0  0  0  0  0  0  0  0  0  0
   20.4689   -6.9389  -17.1987 O   0  0  0  0  0  0  0  0  0  0  0  0
   25.8870   -6.2425  -16.7301 O   0  0  0  0  0  0  0  0  0  0  0  0
   20.8695   -5.8971  -15.2077 N   0  0  0  0  0  0  0  0  0  0  0  0
   20.2060   -4.6433  -15.5996 C   0  0  1  0  0  0  0  0  0  0  0  0
   18.7610   -4.8333  -15.2058 C   0  0  0  0  0  0  0  0  0  0  0  0
   17.9149   -3.6438  -15.3518 C   0  0  0  0  0  0  0  0  0  0  0  0
   17.5426   -3.2000  -16.4483 O   0  0  0  0  0  0  0  0  0  0  0  0
   20.8726   -3.4949  -14.9882 C   0  0  0  0  0  0  0  0  0  0  0  0
   20.8504   -2.2231  -15.4980 O   0  0  0  0  0  0  0  0  0  0  0  0
   17.5207   -2.9927  -14.1759 O   0  0  0  0  0  0  0  0  0  0  0  0
   21.5206   -3.6591  -13.9171 O   0  0  0  0  0  0  0  0  0  0  0  0
  2  1  1  1
  2  4  1  0
  3  2  1  0
  4  6  1  0
  4  5  1  1
  6  8  1  0
  6  7  2  0
  8  9  1  0
  9 14  1  0
  9 10  1  6
 10 11  1  0
 12 11  1  0
 12 16  1  0
 13 12  2  0
 14 15  2  0
 17 14  1  0
 17 18  1  0
 18 19  1  1
 20 19  1  0
 20 24  1  0
 21 20  2  0
 22 18  1  0
 22 23  1  0
 25 22  2  0
M  END
$$$$
