VEI.pdb
     RDKit          3D

 25 24  0  0  1  0  0  0  0  0999 V2000
    7.2498  -12.8260   19.1545 C   0  0  0  0  0  0  0  0  0  0  0  0
    7.5317  -13.5028   20.4573 C   0  0  2  0  0  0  0  0  0  0  0  0
    8.5011  -12.6598   21.2696 C   0  0  0  0  0  0  0  0  0  0  0  0
    8.1208  -14.8875   20.2968 C   0  0  2  0  0  0  0  0  0  0  0  0
    7.2213  -15.6430   19.4596 N   0  0  0  0  0  0  0  0  0  0  0  0
    8.3047  -15.5737   21.5983 C   0  0  0  0  0  0  0  0  0  0  0  0
    7.3222  -15.9328   22.2884 O   0  0  0  0  0  0  0  0  0  0  0  0
    9.6048  -15.8397   22.0926 N   0  0  0  0  0  0  0  0  0  0  0  0
    9.8687  -16.5193   23.3440 C   0  0  1  0  0  0  0  0  0  0  0  0
   11.0184  -17.4779   23.1754 C   0  0  0  0  0  0  0  0  0  0  0  0
   10.6511  -18.6872   22.3561 C   0  0  0  0  0  0  0  0  0  0  0  0
   11.8707  -19.5227   22.2029 C   0  0  0  0  0  0  0  0  0  0  0  0
   12.5732  -19.4231   21.1571 O   0  0  0  0  0  0  0  0  0  0  0  0
   10.0568  -15.5546   24.4264 C   0  0  0  0  0  0  0  0  0  0  0  0
   10.9733  -14.7080   24.3698 O   0  0  0  0  0  0  0  0  0  0  0  0
   12.2820  -20.4248   23.1741 O   0  0  0  0  0  0  0  0  0  0  0  0
    6.6432  -12.2528   25.8024 C   0  0  0  0  0  0  0  0  0  0  0  0
    7.9093  -13.0734   25.7023 C   0  0  0  0  0  0  0  0  0  0  0  0
    8.1544  -13.8749   26.9620 C   0  0  2  0  0  0  0  0  0  0  0  0
    8.4265  -12.9957   28.1501 C   0  0  0  0  0  0  0  0  0  0  0  0
    9.3890  -14.7245   26.7103 C   0  0  2  0  0  0  0  0  0  0  0  0
    9.1979  -15.5748   25.5487 N   0  0  0  0  0  0  0  0  0  0  0  0
    9.7214  -15.5150   27.9170 C   0  0  0  0  0  0  0  0  0  0  0  0
    9.5126  -16.8746   28.0182 O   0  0  0  0  0  0  0  0  0  0  0  0
   10.2186  -14.9159   28.8974 O   0  0  0  0  0  0  0  0  0  0  0  0
  2  1  1  6
  2  3  1  0
  4  5  1  6
  4  2  1  0
  6  4  1  0
  7  6  2  0
  8  6  1  0
  9 14  1  0
  9  8  1  0
  9 10  1  6
 11 10  1  0
 12 11  1  0
 13 12  2  0
 14 15  2  0
 16 12  1  0
 17 18  1  0
 19 18  1  0
 19 20  1  1
 21 19  1  0
 21 22  1  6
 22 14  1  0
 23 21  1  0
 24 23  1  0
 25 23  2  0
M  END
$$$$
