VEI.pdb
     RDKit          3D

 25 24  0  0  1  0  0  0  0  0999 V2000
    7.5449  -12.7064   21.3571 C   0  0  0  0  0  0  0  0  0  0  0  0
    8.3244  -13.5017   20.3598 C   0  0  2  0  0  0  0  0  0  0  0  0
    8.0524  -12.9717   18.9614 C   0  0  0  0  0  0  0  0  0  0  0  0
    7.9952  -14.9786   20.3837 C   0  0  2  0  0  0  0  0  0  0  0  0
    6.6348  -15.1232   19.9262 N   0  0  0  0  0  0  0  0  0  0  0  0
    8.1438  -15.5652   21.7373 C   0  0  0  0  0  0  0  0  0  0  0  0
    7.1921  -15.5684   22.5524 O   0  0  0  0  0  0  0  0  0  0  0  0
    9.3743  -16.1386   22.1404 N   0  0  0  0  0  0  0  0  0  0  0  0
    9.5930  -16.7523   23.4339 C   0  0  1  0  0  0  0  0  0  0  0  0
   10.6215  -17.8465   23.3160 C   0  0  0  0  0  0  0  0  0  0  0  0
   10.8413  -18.5795   24.6132 C   0  0  0  0  0  0  0  0  0  0  0  0
   11.9086  -19.5898   24.3918 C   0  0  0  0  0  0  0  0  0  0  0  0
   11.7250  -20.5264   23.5635 O   0  0  0  0  0  0  0  0  0  0  0  0
    9.9184  -15.7402   24.4376 C   0  0  0  0  0  0  0  0  0  0  0  0
   10.9056  -14.9904   24.2859 O   0  0  0  0  0  0  0  0  0  0  0  0
   13.1213  -19.5516   25.0657 O   0  0  0  0  0  0  0  0  0  0  0  0
    6.6009  -12.2931   25.9035 C   0  0  0  0  0  0  0  0  0  0  0  0
    7.8503  -13.1257   25.7241 C   0  0  0  0  0  0  0  0  0  0  0  0
    8.2527  -13.8105   27.0119 C   0  0  2  0  0  0  0  0  0  0  0  0
    8.6849  -12.8295   28.0652 C   0  0  0  0  0  0  0  0  0  0  0  0
    9.4372  -14.7042   26.6840 C   0  0  2  0  0  0  0  0  0  0  0  0
    9.1133  -15.6041   25.5913 N   0  0  0  0  0  0  0  0  0  0  0  0
    9.8700  -15.4442   27.8910 C   0  0  0  0  0  0  0  0  0  0  0  0
    9.7269  -16.8079   28.0404 O   0  0  0  0  0  0  0  0  0  0  0  0
   10.3937  -14.7961   28.8254 O   0  0  0  0  0  0  0  0  0  0  0  0
  2  1  1  1
  2  3  1  0
  4  5  1  1
  4  2  1  0
  6  4  1  0
  7  6  2  0
  8  6  1  0
  9 14  1  0
  9  8  1  0
  9 10  1  6
 11 10  1  0
 12 11  1  0
 13 12  2  0
 14 15  2  0
 16 12  1  0
 17 18  1  0
 19 18  1  0
 19 20  1  1
 21 19  1  0
 21 22  1  6
 22 14  1  0
 23 21  1  0
 24 23  1  0
 25 23  2  0
M  END
$$$$
