VEI.pdb
     RDKit          3D

 25 24  0  0  1  0  0  0  0  0999 V2000
    6.3330  -19.5553   20.4093 C   0  0  0  0  0  0  0  0  0  0  0  0
    6.1819  -18.1332   19.9737 C   0  0  2  0  0  0  0  0  0  0  0  0
    6.3409  -18.0434   18.4648 C   0  0  0  0  0  0  0  0  0  0  0  0
    7.1859  -17.2010   20.6165 C   0  0  2  0  0  0  0  0  0  0  0  0
    8.5008  -17.6616   20.2429 N   0  0  0  0  0  0  0  0  0  0  0  0
    7.0566  -17.1684   22.0932 C   0  0  0  0  0  0  0  0  0  0  0  0
    6.0131  -16.7480   22.6453 O   0  0  0  0  0  0  0  0  0  0  0  0
    8.1181  -17.6153   22.9171 N   0  0  0  0  0  0  0  0  0  0  0  0
    8.0946  -17.5598   24.3642 C   0  0  1  0  0  0  0  0  0  0  0  0
    8.6752  -18.8264   24.9364 C   0  0  0  0  0  0  0  0  0  0  0  0
    7.8743  -19.3615   26.0943 C   0  0  0  0  0  0  0  0  0  0  0  0
    8.5528  -20.5866   26.5916 C   0  0  0  0  0  0  0  0  0  0  0  0
    9.1019  -20.5825   27.7299 O   0  0  0  0  0  0  0  0  0  0  0  0
    8.7439  -16.3413   24.8452 C   0  0  0  0  0  0  0  0  0  0  0  0
    9.7051  -15.8456   24.2206 O   0  0  0  0  0  0  0  0  0  0  0  0
    8.6127  -21.7579   25.8496 O   0  0  0  0  0  0  0  0  0  0  0  0
    5.9721  -12.1853   25.8983 C   0  0  0  0  0  0  0  0  0  0  0  0
    7.1360  -13.1178   25.6487 C   0  0  0  0  0  0  0  0  0  0  0  0
    7.8368  -13.4906   26.9368 C   0  0  2  0  0  0  0  0  0  0  0  0
    8.5231  -12.3134   27.5708 C   0  0  0  0  0  0  0  0  0  0  0  0
    8.8967  -14.5194   26.5797 C   0  0  2  0  0  0  0  0  0  0  0  0
    8.2850  -15.7144   26.0259 N   0  0  0  0  0  0  0  0  0  0  0  0
    9.7281  -14.8305   27.7644 C   0  0  0  0  0  0  0  0  0  0  0  0
   10.7566  -14.0244   28.2059 O   0  0  0  0  0  0  0  0  0  0  0  0
    9.4834  -15.8818   28.3986 O   0  0  0  0  0  0  0  0  0  0  0  0
  2  1  1  1
  2  3  1  0
  4  5  1  1
  4  2  1  0
  6  4  1  0
  7  6  2  0
  8  6  1  0
  9 14  1  0
  9  8  1  0
  9 10  1  1
 11 10  1  0
 12 11  1  0
 13 12  2  0
 14 15  2  0
 16 12  1  0
 17 18  1  0
 19 18  1  0
 19 20  1  6
 21 19  1  0
 21 22  1  1
 22 14  1  0
 23 21  1  0
 24 23  1  0
 25 23  2  0
M  END
$$$$
