VEI.pdb
     RDKit          3D

 25 24  0  0  1  0  0  0  0  0999 V2000
    7.4854  -12.6867   21.0515 C   0  0  0  0  0  0  0  0  0  0  0  0
    8.3332  -13.3150   19.9926 C   0  0  2  0  0  0  0  0  0  0  0  0
    8.0078  -12.6930   18.6444 C   0  0  0  0  0  0  0  0  0  0  0  0
    8.1448  -14.8127   19.8860 C   0  0  2  0  0  0  0  0  0  0  0  0
    6.8834  -15.0414   19.2249 N   0  0  0  0  0  0  0  0  0  0  0  0
    8.1538  -15.4755   21.2123 C   0  0  0  0  0  0  0  0  0  0  0  0
    7.1164  -15.5438   21.9119 O   0  0  0  0  0  0  0  0  0  0  0  0
    9.3444  -16.0498   21.7202 N   0  0  0  0  0  0  0  0  0  0  0  0
    9.4437  -16.6860   23.0175 C   0  0  1  0  0  0  0  0  0  0  0  0
   10.4292  -17.8236   22.9576 C   0  0  0  0  0  0  0  0  0  0  0  0
   10.5397  -18.5660   24.2635 C   0  0  0  0  0  0  0  0  0  0  0  0
   11.6067  -19.5902   24.1178 C   0  0  0  0  0  0  0  0  0  0  0  0
   11.2945  -20.8023   23.9436 O   0  0  0  0  0  0  0  0  0  0  0  0
    9.7409  -15.6999   24.0553 C   0  0  0  0  0  0  0  0  0  0  0  0
   10.7046  -14.9158   23.9283 O   0  0  0  0  0  0  0  0  0  0  0  0
   12.9566  -19.2710   24.1651 O   0  0  0  0  0  0  0  0  0  0  0  0
    6.1133  -12.5726   25.7574 C   0  0  0  0  0  0  0  0  0  0  0  0
    7.4203  -13.2832   25.4867 C   0  0  0  0  0  0  0  0  0  0  0  0
    7.9403  -13.9826   26.7236 C   0  0  2  0  0  0  0  0  0  0  0  0
    8.2969  -13.0137   27.8157 C   0  0  0  0  0  0  0  0  0  0  0  0
    9.2047  -14.7195   26.3141 C   0  0  2  0  0  0  0  0  0  0  0  0
    8.9348  -15.6283   25.2141 N   0  0  0  0  0  0  0  0  0  0  0  0
    9.7843  -15.4275   27.4778 C   0  0  0  0  0  0  0  0  0  0  0  0
   10.6669  -14.8435   28.3624 O   0  0  0  0  0  0  0  0  0  0  0  0
    9.4549  -16.6203   27.6679 O   0  0  0  0  0  0  0  0  0  0  0  0
  2  1  1  1
  2  3  1  0
  4  5  1  1
  4  2  1  0
  6  4  1  0
  7  6  2  0
  8  6  1  0
  9 14  1  0
  9  8  1  0
  9 10  1  6
 11 10  1  0
 12 11  1  0
 13 12  2  0
 14 15  2  0
 16 12  1  0
 17 18  1  0
 19 18  1  0
 19 20  1  1
 21 19  1  0
 21 22  1  6
 22 14  1  0
 23 21  1  0
 24 23  1  0
 25 23  2  0
M  END
$$$$
