VEI.pdb
     RDKit          3D

 25 24  0  0  1  0  0  0  0  0999 V2000
    7.2220  -12.6976   20.4072 C   0  0  0  0  0  0  0  0  0  0  0  0
    8.3276  -13.2605   19.5732 C   0  0  2  0  0  0  0  0  0  0  0  0
    8.2585  -12.6734   18.1729 C   0  0  0  0  0  0  0  0  0  0  0  0
    8.2840  -14.7691   19.4616 C   0  0  2  0  0  0  0  0  0  0  0  0
    7.0888  -15.1118   18.7304 N   0  0  0  0  0  0  0  0  0  0  0  0
    8.2780  -15.4303   20.7887 C   0  0  0  0  0  0  0  0  0  0  0  0
    7.2052  -15.6729   21.3892 O   0  0  0  0  0  0  0  0  0  0  0  0
    9.4942  -15.8045   21.4102 N   0  0  0  0  0  0  0  0  0  0  0  0
    9.5731  -16.4601   22.6993 C   0  0  1  0  0  0  0  0  0  0  0  0
   10.7664  -17.3786   22.7362 C   0  0  0  0  0  0  0  0  0  0  0  0
   10.9104  -18.0913   24.0552 C   0  0  0  0  0  0  0  0  0  0  0  0
   12.1347  -18.9312   23.9893 C   0  0  0  0  0  0  0  0  0  0  0  0
   12.8330  -18.9423   22.9360 O   0  0  0  0  0  0  0  0  0  0  0  0
    9.5495  -15.4771   23.7813 C   0  0  0  0  0  0  0  0  0  0  0  0
   10.3843  -14.5487   23.8136 O   0  0  0  0  0  0  0  0  0  0  0  0
   12.5551  -19.7193   25.0516 O   0  0  0  0  0  0  0  0  0  0  0  0
    7.8311  -11.5859   26.6145 C   0  0  0  0  0  0  0  0  0  0  0  0
    7.2662  -12.9106   27.0756 C   0  0  0  0  0  0  0  0  0  0  0  0
    7.1935  -13.9098   25.9417 C   0  0  2  0  0  0  0  0  0  0  0  0
    6.0908  -14.9118   26.1381 C   0  0  0  0  0  0  0  0  0  0  0  0
    8.5158  -14.6586   25.9291 C   0  0  2  0  0  0  0  0  0  0  0  0
    8.5765  -15.5725   24.8021 N   0  0  0  0  0  0  0  0  0  0  0  0
    8.7174  -15.3634   27.2152 C   0  0  0  0  0  0  0  0  0  0  0  0
    8.8151  -16.7349   27.3249 O   0  0  0  0  0  0  0  0  0  0  0  0
    8.8036  -14.6765   28.2583 O   0  0  0  0  0  0  0  0  0  0  0  0
  2  1  1  1
  2  3  1  0
  4  5  1  1
  4  2  1  0
  6  4  1  0
  7  6  2  0
  8  6  1  0
  9 14  1  0
  9  8  1  0
  9 10  1  6
 11 10  1  0
 12 11  1  0
 13 12  2  0
 14 15  2  0
 16 12  1  0
 17 18  1  0
 19 18  1  0
 19 20  1  1
 21 19  1  0
 21 22  1  6
 22 14  1  0
 23 21  1  0
 24 23  1  0
 25 23  2  0
M  END
$$$$
