VEI.pdb
     RDKit          3D

 25 24  0  0  1  0  0  0  0  0999 V2000
    7.6346  -12.7570   18.9842 C   0  0  0  0  0  0  0  0  0  0  0  0
    7.7884  -13.4711   20.2886 C   0  0  2  0  0  0  0  0  0  0  0  0
    8.7184  -12.6811   21.1948 C   0  0  0  0  0  0  0  0  0  0  0  0
    8.3404  -14.8724   20.1418 C   0  0  2  0  0  0  0  0  0  0  0  0
    7.4688  -15.5857   19.2407 N   0  0  0  0  0  0  0  0  0  0  0  0
    8.4232  -15.5822   21.4410 C   0  0  0  0  0  0  0  0  0  0  0  0
    7.3903  -15.8924   22.0792 O   0  0  0  0  0  0  0  0  0  0  0  0
    9.6812  -15.9270   21.9922 N   0  0  0  0  0  0  0  0  0  0  0  0
    9.8481  -16.5941   23.2669 C   0  0  1  0  0  0  0  0  0  0  0  0
   10.8891  -17.6762   23.1479 C   0  0  0  0  0  0  0  0  0  0  0  0
   10.5639  -18.6796   22.0727 C   0  0  0  0  0  0  0  0  0  0  0  0
    9.8140  -19.7973   22.7029 C   0  0  0  0  0  0  0  0  0  0  0  0
    9.6282  -19.8034   23.9529 O   0  0  0  0  0  0  0  0  0  0  0  0
   10.1216  -15.6239   24.3259 C   0  0  0  0  0  0  0  0  0  0  0  0
   11.0596  -14.8073   24.2117 O   0  0  0  0  0  0  0  0  0  0  0  0
    9.2981  -20.8556   21.9678 O   0  0  0  0  0  0  0  0  0  0  0  0
    6.6166  -12.4324   25.8524 C   0  0  0  0  0  0  0  0  0  0  0  0
    7.8812  -13.2374   25.6542 C   0  0  0  0  0  0  0  0  0  0  0  0
    8.3220  -13.9066   26.9376 C   0  0  2  0  0  0  0  0  0  0  0  0
    8.6774  -12.9095   28.0045 C   0  0  0  0  0  0  0  0  0  0  0  0
    9.5684  -14.7115   26.6091 C   0  0  2  0  0  0  0  0  0  0  0  0
    9.3217  -15.6048   25.4911 N   0  0  0  0  0  0  0  0  0  0  0  0
   10.0317  -15.4494   27.8059 C   0  0  0  0  0  0  0  0  0  0  0  0
   10.8051  -14.8832   28.7977 O   0  0  0  0  0  0  0  0  0  0  0  0
    9.7032  -16.6518   27.9226 O   0  0  0  0  0  0  0  0  0  0  0  0
  2  1  1  6
  2  3  1  0
  4  5  1  6
  4  2  1  0
  6  4  1  0
  7  6  2  0
  8  6  1  0
  9 14  1  0
  9  8  1  0
  9 10  1  6
 11 10  1  0
 12 11  1  0
 13 12  2  0
 14 15  2  0
 16 12  1  0
 17 18  1  0
 19 18  1  0
 19 20  1  1
 21 19  1  0
 21 22  1  6
 22 14  1  0
 23 21  1  0
 24 23  1  0
 25 23  2  0
M  END
$$$$
