FHQ.pdb
     RDKit          3D

 31 32  0  0  1  0  0  0  0  0999 V2000
    5.2988  -17.5987   24.1743 N   0  0  0  0  0  0  0  0  0  0  0  0
    5.9978  -16.3653   24.4440 C   0  0  1  0  0  0  0  0  0  0  0  0
    6.1313  -16.0998   25.9410 C   0  0  0  0  0  0  0  0  0  0  0  0
    6.6510  -14.7350   26.1988 C   0  0  0  0  0  0  0  0  0  0  0  0
    7.9873  -14.5680   26.5179 C   0  0  0  0  0  0  0  0  0  0  0  0
    8.5153  -13.2976   26.7751 C   0  0  0  0  0  0  0  0  0  0  0  0
    7.7061  -12.1796   26.7145 C   0  0  0  0  0  0  0  0  0  0  0  0
    6.3768  -12.3415   26.3976 C   0  0  0  0  0  0  0  0  0  0  0  0
    5.8635  -13.6024   26.1445 C   0  0  0  0  0  0  0  0  0  0  0  0
    7.3350  -16.4317   23.8045 C   0  0  0  0  0  0  0  0  0  0  0  0
    8.0515  -17.4660   23.9018 O   0  0  0  0  0  0  0  0  0  0  0  0
    7.8473  -15.3317   23.0633 N   0  0  0  0  0  0  0  0  0  0  0  0
    9.0937  -15.2979   22.3611 C   0  0  1  0  0  0  0  0  0  0  0  0
    9.2996  -14.1723   21.4216 C   0  0  0  0  0  0  0  0  0  0  0  0
    8.5002  -14.2342   20.2221 C   0  0  0  0  0  0  0  0  0  0  0  0
    8.2585  -15.2596   19.3716 C   0  0  0  0  0  0  0  0  0  0  0  0
    7.4430  -14.8532   18.3442 N   0  0  0  0  0  0  0  0  0  0  0  0
    7.1956  -13.5535   18.5920 C   0  0  0  0  0  0  0  0  0  0  0  0
    7.8213  -13.1638   19.7142 N   0  0  0  0  0  0  0  0  0  0  0  0
   10.2507  -15.4186   23.3301 C   0  0  0  0  0  0  0  0  0  0  0  0
   10.3390  -14.5321   24.2053 O   0  0  0  0  0  0  0  0  0  0  0  0
   10.9265  -19.8064   26.7797 N   0  0  0  0  0  0  0  0  0  0  0  0
   10.8238  -18.4960   27.3156 C   0  0  0  0  0  0  0  0  0  0  0  0
   10.3664  -18.2395   28.4576 O   0  0  0  0  0  0  0  0  0  0  0  0
   11.2847  -17.3655   26.4750 C   0  0  0  0  0  0  0  0  0  0  0  0
   11.7527  -17.8736   25.1140 C   0  0  0  0  0  0  0  0  0  0  0  0
   12.2079  -16.6569   24.3101 C   0  0  2  0  0  0  0  0  0  0  0  0
   11.1989  -16.4647   23.2782 N   0  0  0  0  0  0  0  0  0  0  0  0
   13.5422  -16.9383   23.7516 C   0  0  0  0  0  0  0  0  0  0  0  0
   14.6853  -16.6683   24.4518 O   0  0  0  0  0  0  0  0  0  0  0  0
   13.6027  -17.4369   22.6049 O   0  0  0  0  0  0  0  0  0  0  0  0
  2  1  1  1
  2  3  1  0
  3  4  1  0
  4  9  1  0
  4  5  2  0
  5  6  1  0
  6  7  2  0
  8  7  1  0
  9  8  2  0
 10  2  1  0
 10 11  2  0
 12 10  1  0
 13 12  1  0
 13 14  1  1
 15 14  1  0
 15 16  2  0
 17 16  1  0
 18 17  1  0
 19 18  2  0
 19 15  1  0
 20 13  1  0
 21 20  2  0
 23 22  1  0
 23 25  1  0
 24 23  2  0
 26 25  1  0
 27 26  1  1
 27 28  1  0
 28 20  1  0
 29 27  1  0
 29 30  1  0
 31 29  2  0
M  END
$$$$
