FHQ.pdb
     RDKit          3D

 31 32  0  0  1  0  0  0  0  0999 V2000
    5.9114  -17.0680   24.7942 N   0  0  0  0  0  0  0  0  0  0  0  0
    7.0540  -16.1914   24.7021 C   0  0  1  0  0  0  0  0  0  0  0  0
    7.5365  -15.7353   26.0763 C   0  0  0  0  0  0  0  0  0  0  0  0
    7.1481  -14.3288   26.3410 C   0  0  0  0  0  0  0  0  0  0  0  0
    7.9515  -13.3042   25.8718 C   0  0  0  0  0  0  0  0  0  0  0  0
    7.6238  -11.9640   26.1063 C   0  0  0  0  0  0  0  0  0  0  0  0
    6.4841  -11.6375   26.8156 C   0  0  0  0  0  0  0  0  0  0  0  0
    5.6827  -12.6534   27.2838 C   0  0  0  0  0  0  0  0  0  0  0  0
    6.0149  -13.9764   27.0466 C   0  0  0  0  0  0  0  0  0  0  0  0
    8.1366  -16.9023   23.9784 C   0  0  0  0  0  0  0  0  0  0  0  0
    8.3438  -18.1332   24.1647 O   0  0  0  0  0  0  0  0  0  0  0  0
    8.9717  -16.2171   23.0537 N   0  0  0  0  0  0  0  0  0  0  0  0
   10.0543  -16.7896   22.3135 C   0  0  1  0  0  0  0  0  0  0  0  0
   10.3996  -16.1414   21.0280 C   0  0  0  0  0  0  0  0  0  0  0  0
    9.2999  -16.0131   20.1029 C   0  0  0  0  0  0  0  0  0  0  0  0
    8.3693  -16.9121   19.7041 C   0  0  0  0  0  0  0  0  0  0  0  0
    7.5158  -16.3496   18.7870 N   0  0  0  0  0  0  0  0  0  0  0  0
    7.9523  -15.0850   18.6383 C   0  0  0  0  0  0  0  0  0  0  0  0
    9.0218  -14.8641   19.4193 N   0  0  0  0  0  0  0  0  0  0  0  0
   11.2764  -16.9405   23.1942 C   0  0  0  0  0  0  0  0  0  0  0  0
   11.7919  -15.8846   23.6172 O   0  0  0  0  0  0  0  0  0  0  0  0
   11.3770  -17.6890   28.4681 N   0  0  0  0  0  0  0  0  0  0  0  0
   10.8101  -18.7965   27.7848 C   0  0  0  0  0  0  0  0  0  0  0  0
   10.0149  -19.6138   28.3128 O   0  0  0  0  0  0  0  0  0  0  0  0
   11.1808  -18.9977   26.3638 C   0  0  0  0  0  0  0  0  0  0  0  0
   12.0785  -17.8603   25.8843 C   0  0  0  0  0  0  0  0  0  0  0  0
   12.7917  -18.3485   24.6246 C   0  0  2  0  0  0  0  0  0  0  0  0
   11.8318  -18.1925   23.5411 N   0  0  0  0  0  0  0  0  0  0  0  0
   13.1920  -19.7519   24.8283 C   0  0  0  0  0  0  0  0  0  0  0  0
   12.4862  -20.7869   24.2800 O   0  0  0  0  0  0  0  0  0  0  0  0
   14.2076  -19.9749   25.5254 O   0  0  0  0  0  0  0  0  0  0  0  0
  2  1  1  1
  2  3  1  0
  3  4  1  0
  4  9  1  0
  4  5  2  0
  5  6  1  0
  6  7  2  0
  8  7  1  0
  9  8  2  0
 10  2  1  0
 10 11  2  0
 12 10  1  0
 13 12  1  0
 13 14  1  6
 15 14  1  0
 15 16  2  0
 17 16  1  0
 18 17  1  0
 19 18  2  0
 19 15  1  0
 20 13  1  0
 21 20  2  0
 23 22  1  0
 23 25  1  0
 24 23  2  0
 26 25  1  0
 27 26  1  1
 27 28  1  0
 28 20  1  0
 29 27  1  0
 29 30  1  0
 31 29  2  0
M  END
$$$$
