FHQ.pdb
     RDKit          3D

 31 32  0  0  1  0  0  0  0  0999 V2000
    5.9999  -16.5584   25.5168 N   0  0  0  0  0  0  0  0  0  0  0  0
    6.2584  -16.0899   24.1765 C   0  0  1  0  0  0  0  0  0  0  0  0
    5.8808  -14.6215   24.0017 C   0  0  0  0  0  0  0  0  0  0  0  0
    6.4509  -13.7886   25.0882 C   0  0  0  0  0  0  0  0  0  0  0  0
    5.7120  -13.5782   26.2393 C   0  0  0  0  0  0  0  0  0  0  0  0
    6.2112  -12.7929   27.2847 C   0  0  0  0  0  0  0  0  0  0  0  0
    7.4596  -12.2096   27.1855 C   0  0  0  0  0  0  0  0  0  0  0  0
    8.1973  -12.4165   26.0425 C   0  0  0  0  0  0  0  0  0  0  0  0
    7.6952  -13.1952   25.0136 C   0  0  0  0  0  0  0  0  0  0  0  0
    7.6956  -16.2989   23.8730 C   0  0  0  0  0  0  0  0  0  0  0  0
    8.3657  -17.1819   24.4764 O   0  0  0  0  0  0  0  0  0  0  0  0
    8.3591  -15.5104   22.8933 N   0  0  0  0  0  0  0  0  0  0  0  0
    9.6159  -15.8132   22.2798 C   0  0  1  0  0  0  0  0  0  0  0  0
   10.0929  -14.8752   21.2383 C   0  0  0  0  0  0  0  0  0  0  0  0
    9.1663  -14.6560   20.1543 C   0  0  0  0  0  0  0  0  0  0  0  0
    8.3877  -15.5241   19.4664 C   0  0  0  0  0  0  0  0  0  0  0  0
    7.6700  -14.8665   18.4977 N   0  0  0  0  0  0  0  0  0  0  0  0
    8.0332  -13.5756   18.6144 C   0  0  0  0  0  0  0  0  0  0  0  0
    8.9302  -13.4294   19.6026 N   0  0  0  0  0  0  0  0  0  0  0  0
   10.6777  -16.0439   23.3341 C   0  0  0  0  0  0  0  0  0  0  0  0
   11.2951  -15.0343   23.7330 O   0  0  0  0  0  0  0  0  0  0  0  0
    9.2875  -19.3511   27.7391 N   0  0  0  0  0  0  0  0  0  0  0  0
   10.6347  -19.2303   28.1695 C   0  0  0  0  0  0  0  0  0  0  0  0
   11.0056  -19.3763   29.3613 O   0  0  0  0  0  0  0  0  0  0  0  0
   11.6623  -18.9129   27.1495 C   0  0  0  0  0  0  0  0  0  0  0  0
   11.0109  -18.7243   25.7821 C   0  0  0  0  0  0  0  0  0  0  0  0
   11.6528  -17.4946   25.1422 C   0  0  2  0  0  0  0  0  0  0  0  0
   10.9809  -17.3186   23.8626 N   0  0  0  0  0  0  0  0  0  0  0  0
   13.0972  -17.7454   24.9932 C   0  0  0  0  0  0  0  0  0  0  0  0
   13.6652  -17.9661   23.7690 O   0  0  0  0  0  0  0  0  0  0  0  0
   13.7995  -17.7515   26.0294 O   0  0  0  0  0  0  0  0  0  0  0  0
  2  1  1  1
  2  3  1  0
  3  4  1  0
  4  9  1  0
  4  5  2  0
  5  6  1  0
  6  7  2  0
  8  7  1  0
  9  8  2  0
 10  2  1  0
 10 11  2  0
 12 10  1  0
 13 12  1  0
 13 14  1  6
 15 14  1  0
 15 16  2  0
 17 16  1  0
 18 17  1  0
 19 18  2  0
 19 15  1  0
 20 13  1  0
 21 20  2  0
 23 22  1  0
 23 25  1  0
 24 23  2  0
 26 25  1  0
 27 26  1  6
 27 28  1  0
 28 20  1  0
 29 27  1  0
 29 30  1  0
 31 29  2  0
M  END
$$$$
