FHQ.pdb
     RDKit          3D

 31 32  0  0  1  0  0  0  0  0999 V2000
    5.8908  -17.9042   25.4728 N   0  0  0  0  0  0  0  0  0  0  0  0
    6.2573  -16.5136   25.3528 C   0  0  1  0  0  0  0  0  0  0  0  0
    7.0067  -16.0118   26.5840 C   0  0  0  0  0  0  0  0  0  0  0  0
    7.0102  -14.5300   26.6423 C   0  0  0  0  0  0  0  0  0  0  0  0
    8.2096  -13.8501   26.5227 C   0  0  0  0  0  0  0  0  0  0  0  0
    8.2566  -12.4525   26.5794 C   0  0  0  0  0  0  0  0  0  0  0  0
    7.0979  -11.7214   26.7569 C   0  0  0  0  0  0  0  0  0  0  0  0
    5.9033  -12.3938   26.8761 C   0  0  0  0  0  0  0  0  0  0  0  0
    5.8667  -13.7768   26.8186 C   0  0  0  0  0  0  0  0  0  0  0  0
    7.0867  -16.3481   24.1337 C   0  0  0  0  0  0  0  0  0  0  0  0
    7.9969  -17.1748   23.8496 O   0  0  0  0  0  0  0  0  0  0  0  0
    6.8794  -15.2533   23.2504 N   0  0  0  0  0  0  0  0  0  0  0  0
    7.5893  -15.0093   22.0320 C   0  0  1  0  0  0  0  0  0  0  0  0
    7.0677  -13.9320   21.1607 C   0  0  0  0  0  0  0  0  0  0  0  0
    7.7355  -13.8098   19.8876 C   0  0  0  0  0  0  0  0  0  0  0  0
    8.4516  -12.7900   19.3581 C   0  0  0  0  0  0  0  0  0  0  0  0
    8.8920  -13.1120   18.0978 N   0  0  0  0  0  0  0  0  0  0  0  0
    8.4243  -14.3543   17.8747 C   0  0  0  0  0  0  0  0  0  0  0  0
    7.7280  -14.7900   18.9368 N   0  0  0  0  0  0  0  0  0  0  0  0
    9.0658  -14.8211   22.3082 C   0  0  0  0  0  0  0  0  0  0  0  0
    9.3631  -14.0665   23.2579 O   0  0  0  0  0  0  0  0  0  0  0  0
   11.0628  -18.3361   25.3938 N   0  0  0  0  0  0  0  0  0  0  0  0
   12.3481  -17.7909   25.1383 C   0  0  0  0  0  0  0  0  0  0  0  0
   13.3523  -17.9920   25.8665 O   0  0  0  0  0  0  0  0  0  0  0  0
   12.5116  -16.9336   23.9402 C   0  0  0  0  0  0  0  0  0  0  0  0
   11.1597  -16.6885   23.2756 C   0  0  0  0  0  0  0  0  0  0  0  0
   11.3985  -15.7383   22.1035 C   0  0  2  0  0  0  0  0  0  0  0  0
   10.0816  -15.4498   21.5538 N   0  0  0  0  0  0  0  0  0  0  0  0
   12.2830  -16.4067   21.1327 C   0  0  0  0  0  0  0  0  0  0  0  0
   13.6422  -16.2661   21.1843 O   0  0  0  0  0  0  0  0  0  0  0  0
   11.7510  -17.1153   20.2484 O   0  0  0  0  0  0  0  0  0  0  0  0
  2  1  1  1
  2  3  1  0
  3  4  1  0
  4  9  1  0
  4  5  2  0
  5  6  1  0
  6  7  2  0
  8  7  1  0
  9  8  2  0
 10  2  1  0
 10 11  2  0
 12 10  1  0
 13 12  1  0
 13 14  1  1
 15 14  1  0
 15 16  2  0
 17 16  1  0
 18 17  1  0
 19 18  2  0
 19 15  1  0
 20 13  1  0
 21 20  2  0
 23 22  1  0
 23 25  1  0
 24 23  2  0
 26 25  1  0
 27 26  1  1
 27 28  1  0
 28 20  1  0
 29 27  1  0
 29 30  1  0
 31 29  2  0
M  END
$$$$
