FHQ.pdb
     RDKit          3D

 31 32  0  0  1  0  0  0  0  0999 V2000
    6.2529  -17.9491   25.9043 N   0  0  0  0  0  0  0  0  0  0  0  0
    6.6041  -16.5743   25.6412 C   0  0  1  0  0  0  0  0  0  0  0  0
    7.4310  -15.9692   26.7723 C   0  0  0  0  0  0  0  0  0  0  0  0
    7.1847  -14.5121   26.8960 C   0  0  0  0  0  0  0  0  0  0  0  0
    8.2542  -13.6598   27.1086 C   0  0  0  0  0  0  0  0  0  0  0  0
    8.0633  -12.2794   27.2377 C   0  0  0  0  0  0  0  0  0  0  0  0
    6.7946  -11.7390   27.1545 C   0  0  0  0  0  0  0  0  0  0  0  0
    5.7286  -12.5831   26.9431 C   0  0  0  0  0  0  0  0  0  0  0  0
    5.9273  -13.9476   26.8164 C   0  0  0  0  0  0  0  0  0  0  0  0
    7.3501  -16.5150   24.3601 C   0  0  0  0  0  0  0  0  0  0  0  0
    8.1216  -17.4516   24.0132 O   0  0  0  0  0  0  0  0  0  0  0  0
    7.2168  -15.4013   23.4862 N   0  0  0  0  0  0  0  0  0  0  0  0
    7.8927  -15.2266   22.2370 C   0  0  1  0  0  0  0  0  0  0  0  0
    7.4976  -14.0545   21.4233 C   0  0  0  0  0  0  0  0  0  0  0  0
    8.0571  -14.0274   20.0937 C   0  0  0  0  0  0  0  0  0  0  0  0
    8.9210  -14.8699   19.4797 C   0  0  0  0  0  0  0  0  0  0  0  0
    9.1926  -14.4386   18.2045 N   0  0  0  0  0  0  0  0  0  0  0  0
    8.4715  -13.3113   18.0595 C   0  0  0  0  0  0  0  0  0  0  0  0
    7.7837  -13.0480   19.1821 N   0  0  0  0  0  0  0  0  0  0  0  0
    9.3928  -15.2722   22.4359 C   0  0  0  0  0  0  0  0  0  0  0  0
    9.8714  -14.4578   23.2529 O   0  0  0  0  0  0  0  0  0  0  0  0
   10.9860  -20.2017   21.7369 N   0  0  0  0  0  0  0  0  0  0  0  0
   11.0264  -19.7001   23.0641 C   0  0  0  0  0  0  0  0  0  0  0  0
   10.5971  -20.3282   24.0643 O   0  0  0  0  0  0  0  0  0  0  0  0
   11.6105  -18.3549   23.2791 C   0  0  0  0  0  0  0  0  0  0  0  0
   12.0223  -17.7369   21.9456 C   0  0  0  0  0  0  0  0  0  0  0  0
   11.6692  -16.2519   22.0082 C   0  0  2  0  0  0  0  0  0  0  0  0
   10.2380  -16.1746   21.7522 N   0  0  0  0  0  0  0  0  0  0  0  0
   12.4649  -15.5391   20.9932 C   0  0  0  0  0  0  0  0  0  0  0  0
   13.4119  -14.6160   21.3413 O   0  0  0  0  0  0  0  0  0  0  0  0
   12.2486  -15.8037   19.7889 O   0  0  0  0  0  0  0  0  0  0  0  0
  2  1  1  1
  2  3  1  0
  3  4  1  0
  4  9  1  0
  4  5  2  0
  5  6  1  0
  6  7  2  0
  8  7  1  0
  9  8  2  0
 10  2  1  0
 10 11  2  0
 12 10  1  0
 13 12  1  0
 13 14  1  1
 15 14  1  0
 15 16  2  0
 17 16  1  0
 18 17  1  0
 19 18  2  0
 19 15  1  0
 20 13  1  0
 21 20  2  0
 23 22  1  0
 23 25  1  0
 24 23  2  0
 26 25  1  0
 27 26  1  6
 27 28  1  0
 28 20  1  0
 29 27  1  0
 29 30  1  0
 31 29  2  0
M  END
$$$$
