FHQ.pdb
     RDKit          3D

 31 32  0  0  1  0  0  0  0  0999 V2000
   -4.4417  -23.3391   23.6180 N   0  0  0  0  0  0  0  0  0  0  0  0
   -3.8268  -23.0022   24.8793 C   0  0  1  0  0  0  0  0  0  0  0  0
   -4.1413  -21.5704   25.3039 C   0  0  0  0  0  0  0  0  0  0  0  0
   -3.5482  -20.5898   24.3628 C   0  0  0  0  0  0  0  0  0  0  0  0
   -4.3754  -19.8949   23.4978 C   0  0  0  0  0  0  0  0  0  0  0  0
   -3.8543  -18.9662   22.5897 C   0  0  0  0  0  0  0  0  0  0  0  0
   -2.4950  -18.7246   22.5403 C   0  0  0  0  0  0  0  0  0  0  0  0
   -1.6692  -19.4135   23.3988 C   0  0  0  0  0  0  0  0  0  0  0  0
   -2.1939  -20.3303   24.2940 C   0  0  0  0  0  0  0  0  0  0  0  0
   -4.2964  -23.9658   25.9051 C   0  0  0  0  0  0  0  0  0  0  0  0
   -5.4231  -24.5253   25.8040 O   0  0  0  0  0  0  0  0  0  0  0  0
   -3.4901  -24.2868   27.0315 N   0  0  0  0  0  0  0  0  0  0  0  0
   -3.7563  -25.3143   27.9912 C   0  0  1  0  0  0  0  0  0  0  0  0
   -2.6607  -26.2720   28.2641 C   0  0  0  0  0  0  0  0  0  0  0  0
   -2.2353  -27.0430   27.1212 C   0  0  0  0  0  0  0  0  0  0  0  0
   -2.9144  -27.9155   26.3397 C   0  0  0  0  0  0  0  0  0  0  0  0
   -2.0945  -28.4318   25.3665 N   0  0  0  0  0  0  0  0  0  0  0  0
   -0.8988  -27.8507   25.5771 C   0  0  0  0  0  0  0  0  0  0  0  0
   -0.9631  -27.0144   26.6255 N   0  0  0  0  0  0  0  0  0  0  0  0
   -4.2891  -24.7144   29.2751 C   0  0  0  0  0  0  0  0  0  0  0  0
   -3.7169  -23.6839   29.6878 O   0  0  0  0  0  0  0  0  0  0  0  0
   -7.7733  -21.0775   29.8658 N   0  0  0  0  0  0  0  0  0  0  0  0
   -8.3912  -22.2947   29.4766 C   0  0  0  0  0  0  0  0  0  0  0  0
   -9.4474  -22.3594   28.7989 O   0  0  0  0  0  0  0  0  0  0  0  0
   -7.7492  -23.5630   29.8966 C   0  0  0  0  0  0  0  0  0  0  0  0
   -6.4802  -23.2756   30.6946 C   0  0  0  0  0  0  0  0  0  0  0  0
   -5.9346  -24.6194   31.1745 C   0  0  2  0  0  0  0  0  0  0  0  0
   -5.3744  -25.2627   29.9947 N   0  0  0  0  0  0  0  0  0  0  0  0
   -7.0429  -25.3893   31.7664 C   0  0  0  0  0  0  0  0  0  0  0  0
   -7.5169  -26.5310   31.1817 O   0  0  0  0  0  0  0  0  0  0  0  0
   -7.5457  -24.9656   32.8316 O   0  0  0  0  0  0  0  0  0  0  0  0
  2  1  1  6
  2  3  1  0
  3  4  1  0
  4  9  1  0
  4  5  2  0
  5  6  1  0
  6  7  2  0
  8  7  1  0
  9  8  2  0
 10  2  1  0
 10 11  2  0
 12 10  1  0
 13 12  1  0
 13 14  1  1
 15 14  1  0
 15 16  2  0
 17 16  1  0
 18 17  1  0
 19 18  2  0
 19 15  1  0
 20 13  1  0
 21 20  2  0
 23 22  1  0
 23 25  1  0
 24 23  2  0
 26 25  1  0
 27 26  1  6
 27 28  1  0
 28 20  1  0
 29 27  1  0
 29 30  1  0
 31 29  2  0
M  END
$$$$
