NQF.pdb
     RDKit          3D

 29 29  0  0  1  0  0  0  0  0999 V2000
    8.1020  -12.3418   16.9703 N   0  0  0  0  0  0  0  0  0  0  0  0
    8.6378  -13.5367   17.5086 C   0  0  0  0  0  0  0  0  0  0  0  0
    9.3562  -14.2560   16.7848 O   0  0  0  0  0  0  0  0  0  0  0  0
    8.3601  -13.9378   18.9000 C   0  0  0  0  0  0  0  0  0  0  0  0
    8.2993  -15.4329   18.9698 C   0  0  2  0  0  0  0  0  0  0  0  0
    7.3284  -16.0135   18.1003 N   0  0  0  0  0  0  0  0  0  0  0  0
    8.0648  -15.9256   20.3580 C   0  0  0  0  0  0  0  0  0  0  0  0
    6.9692  -15.7083   20.9535 O   0  0  0  0  0  0  0  0  0  0  0  0
    9.7585  -21.2520   22.4373 N   0  0  0  0  0  0  0  0  0  0  0  0
    8.9244  -20.8579   21.3633 C   0  0  0  0  0  0  0  0  0  0  0  0
    8.4968  -21.6922   20.5361 O   0  0  0  0  0  0  0  0  0  0  0  0
    8.5607  -19.4005   21.2380 C   0  0  0  0  0  0  0  0  0  0  0  0
    9.1630  -18.6528   22.3951 C   0  0  0  0  0  0  0  0  0  0  0  0
    8.9095  -17.1888   22.3807 C   0  0  2  0  0  0  0  0  0  0  0  0
    9.0633  -16.6401   21.0226 N   0  0  0  0  0  0  0  0  0  0  0  0
    9.7421  -16.4201   23.3119 C   0  0  0  0  0  0  0  0  0  0  0  0
   10.9687  -16.2170   23.0594 O   0  0  0  0  0  0  0  0  0  0  0  0
    9.1607  -15.9080   24.4949 N   0  0  0  0  0  0  0  0  0  0  0  0
    9.9938  -15.3008   25.4991 C   0  0  1  0  0  0  0  0  0  0  0  0
    9.6768  -13.8112   25.4347 C   0  0  0  0  0  0  0  0  0  0  0  0
    8.2948  -13.5130   25.7883 C   0  0  0  0  0  0  0  0  0  0  0  0
    7.9844  -13.0579   27.0392 C   0  0  0  0  0  0  0  0  0  0  0  0
    6.6684  -12.7550   27.4070 C   0  0  0  0  0  0  0  0  0  0  0  0
    5.6577  -12.9203   26.4829 C   0  0  0  0  0  0  0  0  0  0  0  0
    5.9650  -13.3831   25.2081 C   0  0  0  0  0  0  0  0  0  0  0  0
    7.2898  -13.6789   24.8651 C   0  0  0  0  0  0  0  0  0  0  0  0
    9.6008  -15.8574   26.8138 C   0  0  0  0  0  0  0  0  0  0  0  0
    8.5826  -16.7879   26.9912 O   0  0  0  0  0  0  0  0  0  0  0  0
   10.1896  -15.5046   27.8905 O   0  0  0  0  0  0  0  0  0  0  0  0
  2  1  1  0
  2  3  2  0
  4  2  1  0
  4  5  1  0
  5  6  1  6
  5  7  1  0
  7  8  2  0
  9 10  1  0
 10 11  2  0
 10 12  1  0
 12 13  1  0
 14 13  1  6
 15  7  1  0
 15 14  1  0
 16 17  2  0
 16 14  1  0
 18 16  1  0
 19 18  1  0
 19 20  1  1
 21 22  2  0
 21 20  1  0
 23 22  1  0
 24 23  2  0
 25 24  1  0
 25 26  2  0
 26 21  1  0
 27 28  1  0
 27 19  1  0
 29 27  2  0
M  END
$$$$
