NQF.pdb
     RDKit          3D

 29 29  0  0  1  0  0  0  0  0999 V2000
   10.2625  -12.7435   17.8545 N   0  0  0  0  0  0  0  0  0  0  0  0
   10.0061  -12.2893   19.1707 C   0  0  0  0  0  0  0  0  0  0  0  0
   10.3856  -11.1468   19.4998 O   0  0  0  0  0  0  0  0  0  0  0  0
    9.3032  -13.1409   20.1478 C   0  0  0  0  0  0  0  0  0  0  0  0
    8.9547  -14.4423   19.4933 C   0  0  2  0  0  0  0  0  0  0  0  0
    8.0517  -14.3144   18.3959 N   0  0  0  0  0  0  0  0  0  0  0  0
    8.4042  -15.4337   20.4623 C   0  0  0  0  0  0  0  0  0  0  0  0
    7.4227  -16.1722   20.1570 O   0  0  0  0  0  0  0  0  0  0  0  0
    9.5658  -20.2766   20.7715 N   0  0  0  0  0  0  0  0  0  0  0  0
    9.2619  -20.4081   22.1481 C   0  0  0  0  0  0  0  0  0  0  0  0
    9.2994  -21.5216   22.7156 O   0  0  0  0  0  0  0  0  0  0  0  0
    8.8896  -19.1680   22.9197 C   0  0  0  0  0  0  0  0  0  0  0  0
    8.9873  -17.9818   22.0010 C   0  0  0  0  0  0  0  0  0  0  0  0
    8.6906  -16.6770   22.6470 C   0  0  2  0  0  0  0  0  0  0  0  0
    8.9729  -15.5585   21.7312 N   0  0  0  0  0  0  0  0  0  0  0  0
    9.3928  -16.4549   23.9154 C   0  0  0  0  0  0  0  0  0  0  0  0
   10.6532  -16.3111   23.9353 O   0  0  0  0  0  0  0  0  0  0  0  0
    8.6476  -16.4030   25.1162 N   0  0  0  0  0  0  0  0  0  0  0  0
    9.3111  -16.1155   26.3604 C   0  0  1  0  0  0  0  0  0  0  0  0
    8.2252  -15.5578   27.2732 C   0  0  0  0  0  0  0  0  0  0  0  0
    7.7291  -14.2604   26.8323 C   0  0  0  0  0  0  0  0  0  0  0  0
    8.4761  -13.1324   27.0272 C   0  0  0  0  0  0  0  0  0  0  0  0
    8.0313  -11.8733   26.6082 C   0  0  0  0  0  0  0  0  0  0  0  0
    6.8066  -11.7676   25.9821 C   0  0  0  0  0  0  0  0  0  0  0  0
    6.0405  -12.9103   25.7802 C   0  0  0  0  0  0  0  0  0  0  0  0
    6.5081  -14.1584   26.2088 C   0  0  0  0  0  0  0  0  0  0  0  0
    9.8375  -17.3899   26.9005 C   0  0  0  0  0  0  0  0  0  0  0  0
    9.7274  -18.6143   26.2503 O   0  0  0  0  0  0  0  0  0  0  0  0
   10.4384  -17.4398   28.0259 O   0  0  0  0  0  0  0  0  0  0  0  0
  2  1  1  0
  2  3  2  0
  4  2  1  0
  4  5  1  0
  5  6  1  6
  5  7  1  0
  7  8  2  0
  9 10  1  0
 10 11  2  0
 10 12  1  0
 12 13  1  0
 14 13  1  6
 15  7  1  0
 15 14  1  0
 16 17  2  0
 16 14  1  0
 18 16  1  0
 19 18  1  0
 19 20  1  1
 21 22  2  0
 21 20  1  0
 23 22  1  0
 24 23  2  0
 25 24  1  0
 25 26  2  0
 26 21  1  0
 27 28  1  0
 27 19  1  0
 29 27  2  0
M  END
$$$$
