NQF.pdb
     RDKit          3D

 29 29  0  0  1  0  0  0  0  0999 V2000
    7.8163  -12.6091   16.3055 N   0  0  0  0  0  0  0  0  0  0  0  0
    7.8153  -14.0220   16.3952 C   0  0  0  0  0  0  0  0  0  0  0  0
    8.1030  -14.6915   15.3820 O   0  0  0  0  0  0  0  0  0  0  0  0
    7.4819  -14.7057   17.6583 C   0  0  0  0  0  0  0  0  0  0  0  0
    8.7457  -15.2121   18.2828 C   0  0  2  0  0  0  0  0  0  0  0  0
    9.4416  -16.1693   17.4857 N   0  0  0  0  0  0  0  0  0  0  0  0
    8.5158  -15.7857   19.6404 C   0  0  0  0  0  0  0  0  0  0  0  0
    7.4993  -15.4650   20.3231 O   0  0  0  0  0  0  0  0  0  0  0  0
   11.6674  -20.7365   21.6571 N   0  0  0  0  0  0  0  0  0  0  0  0
   10.9007  -20.5195   22.8274 C   0  0  0  0  0  0  0  0  0  0  0  0
   10.9579  -21.3101   23.7943 O   0  0  0  0  0  0  0  0  0  0  0  0
   10.0081  -19.3063   22.8826 C   0  0  0  0  0  0  0  0  0  0  0  0
   10.1077  -18.5752   21.5725 C   0  0  0  0  0  0  0  0  0  0  0  0
    9.2455  -17.3691   21.4737 C   0  0  2  0  0  0  0  0  0  0  0  0
    9.4304  -16.6930   20.1783 N   0  0  0  0  0  0  0  0  0  0  0  0
    9.4325  -16.3996   22.5583 C   0  0  0  0  0  0  0  0  0  0  0  0
   10.5446  -15.8072   22.7057 O   0  0  0  0  0  0  0  0  0  0  0  0
    8.3577  -16.1332   23.4379 N   0  0  0  0  0  0  0  0  0  0  0  0
    8.5088  -15.1505   24.4783 C   0  0  1  0  0  0  0  0  0  0  0  0
    7.2839  -14.2511   24.3600 C   0  0  0  0  0  0  0  0  0  0  0  0
    7.2081  -13.2586   25.4245 C   0  0  0  0  0  0  0  0  0  0  0  0
    8.0592  -12.1891   25.4340 C   0  0  0  0  0  0  0  0  0  0  0  0
    8.0063  -11.2150   26.4374 C   0  0  0  0  0  0  0  0  0  0  0  0
    7.0708  -11.3372   27.4438 C   0  0  0  0  0  0  0  0  0  0  0  0
    6.2014  -12.4224   27.4416 C   0  0  0  0  0  0  0  0  0  0  0  0
    6.2747  -13.3834   26.4260 C   0  0  0  0  0  0  0  0  0  0  0  0
    8.5065  -15.8601   25.7781 C   0  0  0  0  0  0  0  0  0  0  0  0
    9.2325  -15.4477   26.8903 O   0  0  0  0  0  0  0  0  0  0  0  0
    7.8198  -16.9215   25.9574 O   0  0  0  0  0  0  0  0  0  0  0  0
  2  1  1  0
  2  3  2  0
  4  2  1  0
  4  5  1  0
  5  6  1  6
  5  7  1  0
  7  8  2  0
  9 10  1  0
 10 11  2  0
 10 12  1  0
 12 13  1  0
 14 13  1  1
 15  7  1  0
 15 14  1  0
 16 17  2  0
 16 14  1  0
 18 16  1  0
 19 18  1  0
 19 20  1  1
 21 22  2  0
 21 20  1  0
 23 22  1  0
 24 23  2  0
 25 24  1  0
 25 26  2  0
 26 21  1  0
 27 28  1  0
 27 19  1  0
 29 27  2  0
M  END
$$$$
