NQF.pdb
     RDKit          3D

 29 29  0  0  1  0  0  0  0  0999 V2000
    9.6800  -13.6938   17.4877 N   0  0  0  0  0  0  0  0  0  0  0  0
    8.2644  -13.6745   17.5019 C   0  0  0  0  0  0  0  0  0  0  0  0
    7.6537  -13.4031   16.4479 O   0  0  0  0  0  0  0  0  0  0  0  0
    7.5101  -13.9683   18.7343 C   0  0  0  0  0  0  0  0  0  0  0  0
    8.4798  -14.2810   19.8323 C   0  0  2  0  0  0  0  0  0  0  0  0
    9.2872  -15.4303   19.5812 N   0  0  0  0  0  0  0  0  0  0  0  0
    7.8065  -14.4396   21.1538 C   0  0  0  0  0  0  0  0  0  0  0  0
    7.0665  -13.5273   21.6253 O   0  0  0  0  0  0  0  0  0  0  0  0
    4.6741  -19.4676   22.1251 N   0  0  0  0  0  0  0  0  0  0  0  0
    4.5505  -18.5647   21.0415 C   0  0  0  0  0  0  0  0  0  0  0  0
    3.6176  -18.6688   20.2157 O   0  0  0  0  0  0  0  0  0  0  0  0
    5.5751  -17.4678   20.9045 C   0  0  0  0  0  0  0  0  0  0  0  0
    6.5456  -17.5698   22.0484 C   0  0  0  0  0  0  0  0  0  0  0  0
    6.9154  -16.2669   22.6596 C   0  0  2  0  0  0  0  0  0  0  0  0
    7.9878  -15.6100   21.8930 N   0  0  0  0  0  0  0  0  0  0  0  0
    7.3076  -16.3487   24.0706 C   0  0  0  0  0  0  0  0  0  0  0  0
    6.5691  -16.9499   24.9089 O   0  0  0  0  0  0  0  0  0  0  0  0
    8.5194  -15.7492   24.4852 N   0  0  0  0  0  0  0  0  0  0  0  0
    8.8840  -15.7567   25.8773 C   0  0  1  0  0  0  0  0  0  0  0  0
    7.6045  -15.4059   26.6278 C   0  0  0  0  0  0  0  0  0  0  0  0
    7.2716  -13.9896   26.5437 C   0  0  0  0  0  0  0  0  0  0  0  0
    5.9674  -13.5906   26.4522 C   0  0  0  0  0  0  0  0  0  0  0  0
    5.6147  -12.2382   26.3780 C   0  0  0  0  0  0  0  0  0  0  0  0
    6.6093  -11.2825   26.3974 C   0  0  0  0  0  0  0  0  0  0  0  0
    7.9386  -11.6802   26.4900 C   0  0  0  0  0  0  0  0  0  0  0  0
    8.2651  -13.0396   26.5631 C   0  0  0  0  0  0  0  0  0  0  0  0
    9.3286  -17.1261   26.2238 C   0  0  0  0  0  0  0  0  0  0  0  0
   10.0888  -17.4360   27.3463 O   0  0  0  0  0  0  0  0  0  0  0  0
    9.0325  -18.1289   25.4910 O   0  0  0  0  0  0  0  0  0  0  0  0
  2  1  1  0
  2  3  2  0
  4  2  1  0
  4  5  1  0
  5  6  1  6
  5  7  1  0
  7  8  2  0
  9 10  1  0
 10 11  2  0
 10 12  1  0
 12 13  1  0
 14 13  1  6
 15  7  1  0
 15 14  1  0
 16 17  2  0
 16 14  1  0
 18 16  1  0
 19 18  1  0
 19 20  1  1
 21 22  2  0
 21 20  1  0
 23 22  1  0
 24 23  2  0
 25 24  1  0
 25 26  2  0
 26 21  1  0
 27 28  1  0
 27 19  1  0
 29 27  2  0
M  END
$$$$
