NQF.pdb
     RDKit          3D

 29 29  0  0  1  0  0  0  0  0999 V2000
    6.8812  -20.4298   18.2979 N   0  0  0  0  0  0  0  0  0  0  0  0
    8.2200  -20.2409   18.7181 C   0  0  0  0  0  0  0  0  0  0  0  0
    8.9639  -21.2366   18.8298 O   0  0  0  0  0  0  0  0  0  0  0  0
    8.7409  -18.8955   19.0224 C   0  0  0  0  0  0  0  0  0  0  0  0
    9.2304  -18.8747   20.4379 C   0  0  2  0  0  0  0  0  0  0  0  0
    8.2244  -19.1799   21.4025 N   0  0  0  0  0  0  0  0  0  0  0  0
    9.8693  -17.5754   20.7967 C   0  0  0  0  0  0  0  0  0  0  0  0
   11.0951  -17.3623   20.5641 O   0  0  0  0  0  0  0  0  0  0  0  0
    7.9098  -11.9507   19.3834 N   0  0  0  0  0  0  0  0  0  0  0  0
    7.7460  -13.3068   19.0107 C   0  0  0  0  0  0  0  0  0  0  0  0
    6.8074  -13.6644   18.2661 O   0  0  0  0  0  0  0  0  0  0  0  0
    8.7346  -14.3168   19.5347 C   0  0  0  0  0  0  0  0  0  0  0  0
    8.8189  -14.1773   21.0294 C   0  0  0  0  0  0  0  0  0  0  0  0
    9.6324  -15.2242   21.7002 C   0  0  2  0  0  0  0  0  0  0  0  0
    9.1126  -16.5692   21.4001 N   0  0  0  0  0  0  0  0  0  0  0  0
    9.7499  -15.0623   23.1532 C   0  0  0  0  0  0  0  0  0  0  0  0
   10.3775  -14.0735   23.6408 O   0  0  0  0  0  0  0  0  0  0  0  0
    9.1549  -16.0224   24.0042 N   0  0  0  0  0  0  0  0  0  0  0  0
    9.2916  -15.8987   25.4315 C   0  0  1  0  0  0  0  0  0  0  0  0
    7.8791  -15.6528   25.9488 C   0  0  0  0  0  0  0  0  0  0  0  0
    7.5700  -14.2359   26.0932 C   0  0  0  0  0  0  0  0  0  0  0  0
    6.3127  -13.7721   25.8242 C   0  0  0  0  0  0  0  0  0  0  0  0
    5.9822  -12.4190   25.9608 C   0  0  0  0  0  0  0  0  0  0  0  0
    6.9508  -11.5297   26.3777 C   0  0  0  0  0  0  0  0  0  0  0  0
    8.2325  -11.9934   26.6531 C   0  0  0  0  0  0  0  0  0  0  0  0
    8.5376  -13.3522   26.5087 C   0  0  0  0  0  0  0  0  0  0  0  0
    9.8173  -17.1819   25.9511 C   0  0  0  0  0  0  0  0  0  0  0  0
   11.1248  -17.6182   25.7666 O   0  0  0  0  0  0  0  0  0  0  0  0
    9.0796  -17.9845   26.6159 O   0  0  0  0  0  0  0  0  0  0  0  0
  2  1  1  0
  2  3  2  0
  4  2  1  0
  4  5  1  0
  5  6  1  1
  5  7  1  0
  7  8  2  0
  9 10  1  0
 10 11  2  0
 10 12  1  0
 12 13  1  0
 14 13  1  1
 15  7  1  0
 15 14  1  0
 16 17  2  0
 16 14  1  0
 18 16  1  0
 19 18  1  0
 19 20  1  1
 21 22  2  0
 21 20  1  0
 23 22  1  0
 24 23  2  0
 25 24  1  0
 25 26  2  0
 26 21  1  0
 27 28  1  0
 27 19  1  0
 29 27  2  0
M  END
$$$$
