CDF.pdb
     RDKit          3D

 26 26  0  0  1  0  0  0  0  0999 V2000
    7.4810  -15.1057   18.2761 N   0  0  0  0  0  0  0  0  0  0  0  0
    8.3826  -14.7266   19.3451 C   0  0  1  0  0  0  0  0  0  0  0  0
    7.7820  -13.5703   20.1189 C   0  0  0  0  0  0  0  0  0  0  0  0
    8.6811  -13.2060   21.6328 S   0  0  0  0  0  0  0  0  0  0  0  0
    8.7007  -15.8798   20.2271 C   0  0  0  0  0  0  0  0  0  0  0  0
    7.7764  -16.6057   20.6734 O   0  0  0  0  0  0  0  0  0  0  0  0
   10.0621  -16.1333   20.5461 N   0  0  0  0  0  0  0  0  0  0  0  0
   10.4109  -17.2216   21.4456 C   0  0  1  0  0  0  0  0  0  0  0  0
   11.5515  -18.0471   20.9038 C   0  0  0  0  0  0  0  0  0  0  0  0
   11.6359  -17.9820   19.4241 C   0  0  0  0  0  0  0  0  0  0  0  0
   12.3674  -17.0864   18.9346 O   0  0  0  0  0  0  0  0  0  0  0  0
   10.8742  -16.6133   22.7182 C   0  0  0  0  0  0  0  0  0  0  0  0
   11.4556  -15.5082   22.7363 O   0  0  0  0  0  0  0  0  0  0  0  0
   10.9791  -18.8209   18.5669 O   0  0  0  0  0  0  0  0  0  0  0  0
   10.6773  -17.2578   23.9605 N   0  0  0  0  0  0  0  0  0  0  0  0
   10.5884  -16.5621   25.2395 C   0  0  1  0  0  0  0  0  0  0  0  0
    9.5696  -15.4540   25.1725 C   0  0  0  0  0  0  0  0  0  0  0  0
    9.5121  -14.6973   26.4314 C   0  0  0  0  0  0  0  0  0  0  0  0
    8.3332  -14.0570   26.8219 C   0  0  0  0  0  0  0  0  0  0  0  0
    8.2586  -13.3680   28.0106 C   0  0  0  0  0  0  0  0  0  0  0  0
    9.3398  -13.2818   28.8613 C   0  0  0  0  0  0  0  0  0  0  0  0
   10.5099  -13.9110   28.4851 C   0  0  0  0  0  0  0  0  0  0  0  0
   10.5792  -14.6079   27.2789 C   0  0  0  0  0  0  0  0  0  0  0  0
   10.2913  -17.4683   26.3424 C   0  0  0  0  0  0  0  0  0  0  0  0
    9.3043  -18.2132   26.3536 O   0  0  0  0  0  0  0  0  0  0  0  0
   11.1513  -17.5090   27.4444 O   0  0  0  0  0  0  0  0  0  0  0  0
  2  1  1  6
  3  4  1  0
  3  2  1  0
  5  2  1  0
  5  6  2  0
  7  5  1  0
  8  7  1  0
  8 12  1  0
  8  9  1  6
 10 11  2  0
 10  9  1  0
 12 15  1  0
 13 12  2  0
 14 10  1  0
 15 16  1  0
 16 24  1  0
 17 18  1  0
 16 17  1  6
 18 23  2  0
 19 18  1  0
 19 20  2  0
 20 21  1  0
 21 22  2  0
 23 22  1  0
 24 25  2  0
 24 26  1  0
M  END
$$$$
