CDF.pdb
     RDKit          3D

 26 26  0  0  1  0  0  0  0  0999 V2000
    7.7756  -17.5723   19.1167 N   0  0  0  0  0  0  0  0  0  0  0  0
    7.9649  -16.4800   20.0495 C   0  0  1  0  0  0  0  0  0  0  0  0
    6.6117  -15.9631   20.4949 C   0  0  0  0  0  0  0  0  0  0  0  0
    6.7351  -14.7040   21.7725 S   0  0  0  0  0  0  0  0  0  0  0  0
    8.8116  -16.8851   21.2019 C   0  0  0  0  0  0  0  0  0  0  0  0
    8.5275  -17.9176   21.8605 O   0  0  0  0  0  0  0  0  0  0  0  0
    9.9361  -16.0814   21.5318 N   0  0  0  0  0  0  0  0  0  0  0  0
   10.7784  -16.4336   22.6639 C   0  0  1  0  0  0  0  0  0  0  0  0
   12.1694  -15.8677   22.5196 C   0  0  0  0  0  0  0  0  0  0  0  0
   12.9579  -16.5786   21.4833 C   0  0  0  0  0  0  0  0  0  0  0  0
   12.8292  -17.8264   21.4265 O   0  0  0  0  0  0  0  0  0  0  0  0
   10.1763  -15.8170   23.8728 C   0  0  0  0  0  0  0  0  0  0  0  0
    9.6031  -14.7087   23.8199 O   0  0  0  0  0  0  0  0  0  0  0  0
   13.8055  -15.9748   20.5961 O   0  0  0  0  0  0  0  0  0  0  0  0
   10.2262  -16.4568   25.1321 N   0  0  0  0  0  0  0  0  0  0  0  0
    9.5567  -15.9617   26.3297 C   0  0  1  0  0  0  0  0  0  0  0  0
    8.0937  -15.7220   26.0606 C   0  0  0  0  0  0  0  0  0  0  0  0
    7.7346  -14.3094   26.2514 C   0  0  0  0  0  0  0  0  0  0  0  0
    7.0587  -13.6070   25.2503 C   0  0  0  0  0  0  0  0  0  0  0  0
    6.6934  -12.2923   25.4272 C   0  0  0  0  0  0  0  0  0  0  0  0
    6.9783  -11.6173   26.5948 C   0  0  0  0  0  0  0  0  0  0  0  0
    7.6459  -12.3020   27.5908 C   0  0  0  0  0  0  0  0  0  0  0  0
    8.0134  -13.6346   27.4054 C   0  0  0  0  0  0  0  0  0  0  0  0
    9.7308  -16.8544   27.4694 C   0  0  0  0  0  0  0  0  0  0  0  0
    9.3413  -16.5739   28.6090 O   0  0  0  0  0  0  0  0  0  0  0  0
   10.3647  -18.0868   27.2819 O   0  0  0  0  0  0  0  0  0  0  0  0
  2  1  1  6
  3  4  1  0
  3  2  1  0
  5  2  1  0
  5  6  2  0
  7  5  1  0
  8  7  1  0
  8 12  1  0
  8  9  1  6
 10 11  2  0
 10  9  1  0
 12 15  1  0
 13 12  2  0
 14 10  1  0
 15 16  1  0
 16 24  1  0
 17 18  1  0
 16 17  1  6
 18 23  2  0
 19 18  1  0
 19 20  2  0
 20 21  1  0
 21 22  2  0
 23 22  1  0
 24 25  2  0
 24 26  1  0
M  END
$$$$
