CDF.pdb
     RDKit          3D

 26 26  0  0  1  0  0  0  0  0999 V2000
    8.1909  -19.2612   21.1940 N   0  0  0  0  0  0  0  0  0  0  0  0
    9.2025  -18.8134   20.2585 C   0  0  1  0  0  0  0  0  0  0  0  0
    8.7939  -19.2084   18.8537 C   0  0  0  0  0  0  0  0  0  0  0  0
   10.1673  -19.8464   17.8841 S   0  0  0  0  0  0  0  0  0  0  0  0
    9.4477  -17.3522   20.3757 C   0  0  0  0  0  0  0  0  0  0  0  0
   10.5988  -16.8882   20.1751 O   0  0  0  0  0  0  0  0  0  0  0  0
    8.3569  -16.5076   20.7165 N   0  0  0  0  0  0  0  0  0  0  0  0
    8.5553  -15.0719   20.8378 C   0  0  1  0  0  0  0  0  0  0  0  0
    7.4576  -14.2987   20.1498 C   0  0  0  0  0  0  0  0  0  0  0  0
    7.4718  -14.4952   18.6794 C   0  0  0  0  0  0  0  0  0  0  0  0
    6.9169  -15.5318   18.2384 O   0  0  0  0  0  0  0  0  0  0  0  0
    8.4902  -14.7363   22.2825 C   0  0  0  0  0  0  0  0  0  0  0  0
    7.7825  -13.7957   22.6999 O   0  0  0  0  0  0  0  0  0  0  0  0
    8.0412  -13.6347   17.7820 O   0  0  0  0  0  0  0  0  0  0  0  0
    9.2250  -15.4656   23.2448 N   0  0  0  0  0  0  0  0  0  0  0  0
    9.1460  -15.2353   24.6830 C   0  0  1  0  0  0  0  0  0  0  0  0
    7.7095  -15.1558   25.1309 C   0  0  0  0  0  0  0  0  0  0  0  0
    7.4046  -13.8515   25.7363 C   0  0  0  0  0  0  0  0  0  0  0  0
    6.3659  -13.7236   26.6620 C   0  0  0  0  0  0  0  0  0  0  0  0
    6.0877  -12.5141   27.2558 C   0  0  0  0  0  0  0  0  0  0  0  0
    6.8197  -11.3834   26.9626 C   0  0  0  0  0  0  0  0  0  0  0  0
    7.8487  -11.4986   26.0491 C   0  0  0  0  0  0  0  0  0  0  0  0
    8.1258  -12.7276   25.4507 C   0  0  0  0  0  0  0  0  0  0  0  0
    9.8676  -16.2472   25.4454 C   0  0  0  0  0  0  0  0  0  0  0  0
   10.2892  -17.2950   24.9419 O   0  0  0  0  0  0  0  0  0  0  0  0
   10.1015  -16.0386   26.8083 O   0  0  0  0  0  0  0  0  0  0  0  0
  2  1  1  1
  3  4  1  0
  3  2  1  0
  5  2  1  0
  5  6  2  0
  7  5  1  0
  8  7  1  0
  8 12  1  0
  8  9  1  6
 10 11  2  0
 10  9  1  0
 12 15  1  0
 13 12  2  0
 14 10  1  0
 15 16  1  0
 16 24  1  0
 17 18  1  0
 16 17  1  1
 18 23  2  0
 19 18  1  0
 19 20  2  0
 20 21  1  0
 21 22  2  0
 23 22  1  0
 24 25  2  0
 24 26  1  0
M  END
$$$$
