CDF.pdb
     RDKit          3D

 26 26  0  0  1  0  0  0  0  0999 V2000
    8.3062  -16.3416   15.7848 N   0  0  0  0  0  0  0  0  0  0  0  0
    9.4973  -16.0679   16.5630 C   0  0  1  0  0  0  0  0  0  0  0  0
    9.6992  -14.5689   16.6571 C   0  0  0  0  0  0  0  0  0  0  0  0
    8.3202  -13.7306   17.4500 S   0  0  0  0  0  0  0  0  0  0  0  0
    9.4330  -16.7051   17.9042 C   0  0  0  0  0  0  0  0  0  0  0  0
    8.3197  -16.9162   18.4489 O   0  0  0  0  0  0  0  0  0  0  0  0
   10.6507  -17.0635   18.5430 N   0  0  0  0  0  0  0  0  0  0  0  0
   10.6281  -17.7656   19.8164 C   0  0  1  0  0  0  0  0  0  0  0  0
   11.8173  -18.6818   19.9675 C   0  0  0  0  0  0  0  0  0  0  0  0
   11.8191  -19.7676   18.9566 C   0  0  0  0  0  0  0  0  0  0  0  0
   11.0187  -20.7175   19.1402 O   0  0  0  0  0  0  0  0  0  0  0  0
   10.7225  -16.7426   20.8881 C   0  0  0  0  0  0  0  0  0  0  0  0
   11.6139  -15.8680   20.8749 O   0  0  0  0  0  0  0  0  0  0  0  0
   12.6238  -19.8041   17.8515 O   0  0  0  0  0  0  0  0  0  0  0  0
    9.8092  -16.7151   21.9665 N   0  0  0  0  0  0  0  0  0  0  0  0
    9.8748  -15.7654   23.0717 C   0  0  1  0  0  0  0  0  0  0  0  0
    8.5297  -15.1281   23.3059 C   0  0  0  0  0  0  0  0  0  0  0  0
    8.0476  -14.4294   22.1059 C   0  0  0  0  0  0  0  0  0  0  0  0
    6.9917  -14.9528   21.3554 C   0  0  0  0  0  0  0  0  0  0  0  0
    6.5136  -14.2950   20.2455 C   0  0  0  0  0  0  0  0  0  0  0  0
    7.0550  -13.0972   19.8304 C   0  0  0  0  0  0  0  0  0  0  0  0
    8.0991  -12.5708   20.5650 C   0  0  0  0  0  0  0  0  0  0  0  0
    8.5791  -13.2425   21.6891 C   0  0  0  0  0  0  0  0  0  0  0  0
   10.3750  -16.3770   24.2972 C   0  0  0  0  0  0  0  0  0  0  0  0
   10.6659  -15.7226   25.3052 O   0  0  0  0  0  0  0  0  0  0  0  0
   10.5386  -17.7648   24.3512 O   0  0  0  0  0  0  0  0  0  0  0  0
  2  1  1  1
  3  4  1  0
  3  2  1  0
  5  2  1  0
  5  6  2  0
  7  5  1  0
  8  7  1  0
  8 12  1  0
  8  9  1  6
 10 11  2  0
 10  9  1  0
 12 15  1  0
 13 12  2  0
 14 10  1  0
 15 16  1  0
 16 24  1  0
 17 18  1  0
 16 17  1  1
 18 23  2  0
 19 18  1  0
 19 20  2  0
 20 21  1  0
 21 22  2  0
 23 22  1  0
 24 25  2  0
 24 26  1  0
M  END
$$$$
