CDF.pdb
     RDKit          3D

 26 26  0  0  1  0  0  0  0  0999 V2000
    7.5875  -14.3890   17.9591 N   0  0  0  0  0  0  0  0  0  0  0  0
    8.3075  -14.0619   19.1731 C   0  0  1  0  0  0  0  0  0  0  0  0
    7.6864  -12.8335   19.8069 C   0  0  0  0  0  0  0  0  0  0  0  0
    8.4080  -12.4362   21.4052 S   0  0  0  0  0  0  0  0  0  0  0  0
    8.3464  -15.2126   20.1130 C   0  0  0  0  0  0  0  0  0  0  0  0
    7.3972  -16.0365   20.1402 O   0  0  0  0  0  0  0  0  0  0  0  0
    9.4731  -15.3512   20.9678 N   0  0  0  0  0  0  0  0  0  0  0  0
    9.5915  -16.5109   21.8375 C   0  0  1  0  0  0  0  0  0  0  0  0
   10.5411  -17.5369   21.2703 C   0  0  0  0  0  0  0  0  0  0  0  0
   10.6162  -18.7558   22.1126 C   0  0  0  0  0  0  0  0  0  0  0  0
   11.7095  -19.3734   22.1237 O   0  0  0  0  0  0  0  0  0  0  0  0
   10.1669  -16.0431   23.1237 C   0  0  0  0  0  0  0  0  0  0  0  0
   11.2824  -15.4837   23.1712 O   0  0  0  0  0  0  0  0  0  0  0  0
    9.5882  -19.2468   22.8689 O   0  0  0  0  0  0  0  0  0  0  0  0
    9.4779  -16.2108   24.3463 N   0  0  0  0  0  0  0  0  0  0  0  0
   10.0044  -15.8073   25.6455 C   0  0  1  0  0  0  0  0  0  0  0  0
   10.0353  -14.3055   25.7637 C   0  0  0  0  0  0  0  0  0  0  0  0
    8.6794  -13.7411   25.8242 C   0  0  0  0  0  0  0  0  0  0  0  0
    8.2531  -13.0367   26.9530 C   0  0  0  0  0  0  0  0  0  0  0  0
    6.9958  -12.4807   27.0111 C   0  0  0  0  0  0  0  0  0  0  0  0
    6.1091  -12.5957   25.9620 C   0  0  0  0  0  0  0  0  0  0  0  0
    6.5202  -13.2899   24.8415 C   0  0  0  0  0  0  0  0  0  0  0  0
    7.7960  -13.8511   24.7886 C   0  0  0  0  0  0  0  0  0  0  0  0
    9.2579  -16.3954   26.7514 C   0  0  0  0  0  0  0  0  0  0  0  0
    8.2388  -17.0765   26.5881 O   0  0  0  0  0  0  0  0  0  0  0  0
    9.7012  -16.1891   28.0616 O   0  0  0  0  0  0  0  0  0  0  0  0
  2  1  1  6
  3  4  1  0
  3  2  1  0
  5  2  1  0
  5  6  2  0
  7  5  1  0
  8  7  1  0
  8 12  1  0
  8  9  1  6
 10 11  2  0
 10  9  1  0
 12 15  1  0
 13 12  2  0
 14 10  1  0
 15 16  1  0
 16 24  1  0
 17 18  1  0
 16 17  1  1
 18 23  2  0
 19 18  1  0
 19 20  2  0
 20 21  1  0
 21 22  2  0
 23 22  1  0
 24 25  2  0
 24 26  1  0
M  END
$$$$
