CDF.pdb
     RDKit          3D

 26 26  0  0  1  0  0  0  0  0999 V2000
    7.2098  -16.4469   18.3535 N   0  0  0  0  0  0  0  0  0  0  0  0
    8.1625  -15.8241   19.2500 C   0  0  1  0  0  0  0  0  0  0  0  0
    7.6854  -14.4275   19.5943 C   0  0  0  0  0  0  0  0  0  0  0  0
    8.7212  -13.6232   20.8245 S   0  0  0  0  0  0  0  0  0  0  0  0
    8.3902  -16.6489   20.4653 C   0  0  0  0  0  0  0  0  0  0  0  0
    7.4118  -17.1071   21.1083 O   0  0  0  0  0  0  0  0  0  0  0  0
    9.7282  -16.9002   20.8725 N   0  0  0  0  0  0  0  0  0  0  0  0
    9.9924  -17.6166   22.1103 C   0  0  1  0  0  0  0  0  0  0  0  0
   11.0939  -18.6333   21.9402 C   0  0  0  0  0  0  0  0  0  0  0  0
   11.3061  -19.4391   23.1676 C   0  0  0  0  0  0  0  0  0  0  0  0
   10.4591  -19.3113   24.0858 O   0  0  0  0  0  0  0  0  0  0  0  0
   10.4629  -16.6213   23.1063 C   0  0  0  0  0  0  0  0  0  0  0  0
   11.3725  -15.8100   22.8344 O   0  0  0  0  0  0  0  0  0  0  0  0
   12.3488  -20.3015   23.3650 O   0  0  0  0  0  0  0  0  0  0  0  0
    9.9024  -16.5500   24.4019 N   0  0  0  0  0  0  0  0  0  0  0  0
   10.2578  -15.5415   25.3940 C   0  0  1  0  0  0  0  0  0  0  0  0
    9.8461  -14.1689   24.9281 C   0  0  0  0  0  0  0  0  0  0  0  0
    8.9393  -13.5230   25.8879 C   0  0  0  0  0  0  0  0  0  0  0  0
    7.5824  -13.3712   25.5915 C   0  0  0  0  0  0  0  0  0  0  0  0
    6.7183  -12.7925   26.4923 C   0  0  0  0  0  0  0  0  0  0  0  0
    7.1546  -12.3405   27.7193 C   0  0  0  0  0  0  0  0  0  0  0  0
    8.4938  -12.4856   28.0226 C   0  0  0  0  0  0  0  0  0  0  0  0
    9.3647  -13.0732   27.1052 C   0  0  0  0  0  0  0  0  0  0  0  0
    9.6900  -15.8317   26.7053 C   0  0  0  0  0  0  0  0  0  0  0  0
   10.0569  -15.2599   27.7385 O   0  0  0  0  0  0  0  0  0  0  0  0
    8.6846  -16.7974   26.8164 O   0  0  0  0  0  0  0  0  0  0  0  0
  2  1  1  6
  3  4  1  0
  3  2  1  0
  5  2  1  0
  5  6  2  0
  7  5  1  0
  8  7  1  0
  8 12  1  0
  8  9  1  6
 10 11  2  0
 10  9  1  0
 12 15  1  0
 13 12  2  0
 14 10  1  0
 15 16  1  0
 16 24  1  0
 17 18  1  0
 16 17  1  6
 18 23  2  0
 19 18  1  0
 19 20  2  0
 20 21  1  0
 21 22  2  0
 23 22  1  0
 24 25  2  0
 24 26  1  0
M  END
$$$$
