CDF.pdb
     RDKit          3D

 26 26  0  0  1  0  0  0  0  0999 V2000
    6.7908  -16.7717   20.2074 N   0  0  0  0  0  0  0  0  0  0  0  0
    7.6127  -15.7947   20.8922 C   0  0  1  0  0  0  0  0  0  0  0  0
    6.7254  -14.8886   21.7217 C   0  0  0  0  0  0  0  0  0  0  0  0
    5.7701  -15.7878   22.9513 S   0  0  0  0  0  0  0  0  0  0  0  0
    8.6656  -16.4458   21.7147 C   0  0  0  0  0  0  0  0  0  0  0  0
    8.6114  -17.6804   21.9455 O   0  0  0  0  0  0  0  0  0  0  0  0
    9.7203  -15.6417   22.2251 N   0  0  0  0  0  0  0  0  0  0  0  0
   10.7822  -16.2453   23.0146 C   0  0  1  0  0  0  0  0  0  0  0  0
   12.1358  -15.6945   22.6398 C   0  0  0  0  0  0  0  0  0  0  0  0
   13.2434  -16.4604   23.2623 C   0  0  0  0  0  0  0  0  0  0  0  0
   13.1991  -17.7110   23.1588 O   0  0  0  0  0  0  0  0  0  0  0  0
   10.5385  -15.8845   24.4340 C   0  0  0  0  0  0  0  0  0  0  0  0
   10.9173  -14.7897   24.9004 O   0  0  0  0  0  0  0  0  0  0  0  0
   14.2970  -15.9038   23.9331 O   0  0  0  0  0  0  0  0  0  0  0  0
    9.8688  -16.7631   25.3157 N   0  0  0  0  0  0  0  0  0  0  0  0
    9.6394  -16.4873   26.7295 C   0  0  1  0  0  0  0  0  0  0  0  0
    8.1635  -16.4376   27.0291 C   0  0  0  0  0  0  0  0  0  0  0  0
    7.5313  -15.2529   26.4312 C   0  0  0  0  0  0  0  0  0  0  0  0
    7.8397  -13.9722   26.8969 C   0  0  0  0  0  0  0  0  0  0  0  0
    7.2752  -12.8538   26.3280 C   0  0  0  0  0  0  0  0  0  0  0  0
    6.3857  -12.9511   25.2794 C   0  0  0  0  0  0  0  0  0  0  0  0
    6.0739  -14.2121   24.8113 C   0  0  0  0  0  0  0  0  0  0  0  0
    6.6496  -15.3419   25.3922 C   0  0  0  0  0  0  0  0  0  0  0  0
   10.3083  -17.4503   27.5963 C   0  0  0  0  0  0  0  0  0  0  0  0
   10.9241  -18.4311   27.1627 O   0  0  0  0  0  0  0  0  0  0  0  0
   10.2606  -17.2709   28.9824 O   0  0  0  0  0  0  0  0  0  0  0  0
  2  1  1  1
  3  4  1  0
  3  2  1  0
  5  2  1  0
  5  6  2  0
  7  5  1  0
  8  7  1  0
  8 12  1  0
  8  9  1  6
 10 11  2  0
 10  9  1  0
 12 15  1  0
 13 12  2  0
 14 10  1  0
 15 16  1  0
 16 24  1  0
 17 18  1  0
 16 17  1  6
 18 23  2  0
 19 18  1  0
 19 20  2  0
 20 21  1  0
 21 22  2  0
 23 22  1  0
 24 25  2  0
 24 26  1  0
M  END
$$$$
