CDF.pdb
     RDKit          3D

 26 26  0  0  1  0  0  0  0  0999 V2000
    7.8903  -13.9824   17.1895 N   0  0  0  0  0  0  0  0  0  0  0  0
    8.6064  -13.9184   18.4473 C   0  0  1  0  0  0  0  0  0  0  0  0
    8.2766  -12.6138   19.1443 C   0  0  0  0  0  0  0  0  0  0  0  0
    8.9161  -12.5422   20.8233 S   0  0  0  0  0  0  0  0  0  0  0  0
    8.3123  -15.0962   19.3048 C   0  0  0  0  0  0  0  0  0  0  0  0
    7.4948  -15.9693   18.9176 O   0  0  0  0  0  0  0  0  0  0  0  0
    8.9739  -15.2040   20.5579 N   0  0  0  0  0  0  0  0  0  0  0  0
    8.9819  -16.4704   21.2728 C   0  0  1  0  0  0  0  0  0  0  0  0
    9.7611  -17.5252   20.5271 C   0  0  0  0  0  0  0  0  0  0  0  0
    9.2469  -18.8917   20.7905 C   0  0  0  0  0  0  0  0  0  0  0  0
    8.6538  -19.0760   21.8818 O   0  0  0  0  0  0  0  0  0  0  0  0
    9.6747  -16.2445   22.5663 C   0  0  0  0  0  0  0  0  0  0  0  0
   10.7831  -15.6714   22.6183 O   0  0  0  0  0  0  0  0  0  0  0  0
    9.3732  -19.9517   19.9359 O   0  0  0  0  0  0  0  0  0  0  0  0
    9.1102  -16.6675   23.7912 N   0  0  0  0  0  0  0  0  0  0  0  0
    8.6789  -15.7623   24.8505 C   0  0  1  0  0  0  0  0  0  0  0  0
    7.6823  -14.7628   24.3229 C   0  0  0  0  0  0  0  0  0  0  0  0
    7.3239  -13.7680   25.3440 C   0  0  0  0  0  0  0  0  0  0  0  0
    6.0404  -13.7473   25.8957 C   0  0  0  0  0  0  0  0  0  0  0  0
    5.7005  -12.8385   26.8712 C   0  0  0  0  0  0  0  0  0  0  0  0
    6.6090  -11.9149   27.3421 C   0  0  0  0  0  0  0  0  0  0  0  0
    7.8805  -11.9266   26.8038 C   0  0  0  0  0  0  0  0  0  0  0  0
    8.2189  -12.8504   25.8152 C   0  0  0  0  0  0  0  0  0  0  0  0
    8.1334  -16.4756   25.9992 C   0  0  0  0  0  0  0  0  0  0  0  0
    7.2040  -17.2862   25.9082 O   0  0  0  0  0  0  0  0  0  0  0  0
    8.6745  -16.2439   27.2677 O   0  0  0  0  0  0  0  0  0  0  0  0
  2  1  1  6
  3  4  1  0
  3  2  1  0
  5  2  1  0
  5  6  2  0
  7  5  1  0
  8  7  1  0
  8 12  1  0
  8  9  1  6
 10 11  2  0
 10  9  1  0
 12 15  1  0
 13 12  2  0
 14 10  1  0
 15 16  1  0
 16 24  1  0
 17 18  1  0
 16 17  1  6
 18 23  2  0
 19 18  1  0
 19 20  2  0
 20 21  1  0
 21 22  2  0
 23 22  1  0
 24 25  2  0
 24 26  1  0
M  END
$$$$
