CDF.pdb
     RDKit          3D

 26 26  0  0  1  0  0  0  0  0999 V2000
    7.7387  -16.6066   19.1919 N   0  0  0  0  0  0  0  0  0  0  0  0
    7.9859  -15.8893   20.4262 C   0  0  1  0  0  0  0  0  0  0  0  0
    6.6675  -15.6340   21.1285 C   0  0  0  0  0  0  0  0  0  0  0  0
    6.8750  -14.8408   22.7287 S   0  0  0  0  0  0  0  0  0  0  0  0
    8.9480  -16.6140   21.2968 C   0  0  0  0  0  0  0  0  0  0  0  0
    8.9320  -17.8702   21.3446 O   0  0  0  0  0  0  0  0  0  0  0  0
    9.8734  -15.8547   22.0627 N   0  0  0  0  0  0  0  0  0  0  0  0
   10.8471  -16.5274   22.9080 C   0  0  1  0  0  0  0  0  0  0  0  0
   12.1359  -15.7486   23.0000 C   0  0  0  0  0  0  0  0  0  0  0  0
   12.9297  -15.8306   21.7493 C   0  0  0  0  0  0  0  0  0  0  0  0
   13.4962  -14.7780   21.3648 O   0  0  0  0  0  0  0  0  0  0  0  0
   10.2749  -16.5936   24.2763 C   0  0  0  0  0  0  0  0  0  0  0  0
   10.9155  -17.0931   25.2249 O   0  0  0  0  0  0  0  0  0  0  0  0
   13.0847  -16.9610   20.9956 O   0  0  0  0  0  0  0  0  0  0  0  0
    8.9837  -16.0952   24.5628 N   0  0  0  0  0  0  0  0  0  0  0  0
    8.3458  -16.1769   25.8720 C   0  0  1  0  0  0  0  0  0  0  0  0
    6.9365  -15.6472   25.8110 C   0  0  0  0  0  0  0  0  0  0  0  0
    6.8899  -14.2047   26.0900 C   0  0  0  0  0  0  0  0  0  0  0  0
    5.6648  -13.5480   26.2319 C   0  0  0  0  0  0  0  0  0  0  0  0
    5.6080  -12.2037   26.5196 C   0  0  0  0  0  0  0  0  0  0  0  0
    6.7530  -11.4530   26.6788 C   0  0  0  0  0  0  0  0  0  0  0  0
    7.9692  -12.0921   26.5408 C   0  0  0  0  0  0  0  0  0  0  0  0
    8.0202  -13.4550   26.2492 C   0  0  0  0  0  0  0  0  0  0  0  0
    8.3636  -17.5312   26.4121 C   0  0  0  0  0  0  0  0  0  0  0  0
    8.5709  -17.7763   27.6063 O   0  0  0  0  0  0  0  0  0  0  0  0
    8.1378  -18.6123   25.5543 O   0  0  0  0  0  0  0  0  0  0  0  0
  2  1  1  6
  3  4  1  0
  3  2  1  0
  5  2  1  0
  5  6  2  0
  7  5  1  0
  8  7  1  0
  8 12  1  0
  8  9  1  1
 10 11  2  0
 10  9  1  0
 12 15  1  0
 13 12  2  0
 14 10  1  0
 15 16  1  0
 16 24  1  0
 17 18  1  0
 16 17  1  6
 18 23  2  0
 19 18  1  0
 19 20  2  0
 20 21  1  0
 21 22  2  0
 23 22  1  0
 24 25  2  0
 24 26  1  0
M  END
$$$$
