CDF.pdb
     RDKit          3D

 26 26  0  0  1  0  0  0  0  0999 V2000
    8.0960  -15.9890   18.8023 N   0  0  0  0  0  0  0  0  0  0  0  0
    8.1719  -15.3530   20.1019 C   0  0  1  0  0  0  0  0  0  0  0  0
    6.8350  -14.7174   20.4260 C   0  0  0  0  0  0  0  0  0  0  0  0
    6.6983  -14.2282   22.1509 S   0  0  0  0  0  0  0  0  0  0  0  0
    8.6021  -16.3097   21.1548 C   0  0  0  0  0  0  0  0  0  0  0  0
    8.0382  -17.4285   21.2583 O   0  0  0  0  0  0  0  0  0  0  0  0
    9.6553  -15.9268   22.0286 N   0  0  0  0  0  0  0  0  0  0  0  0
   10.1712  -16.8703   23.0078 C   0  0  1  0  0  0  0  0  0  0  0  0
   11.6308  -17.1722   22.7740 C   0  0  0  0  0  0  0  0  0  0  0  0
   12.4208  -15.9446   22.5102 C   0  0  0  0  0  0  0  0  0  0  0  0
   12.0625  -15.2350   21.5381 O   0  0  0  0  0  0  0  0  0  0  0  0
   10.0635  -16.2277   24.3417 C   0  0  0  0  0  0  0  0  0  0  0  0
    9.9816  -14.9872   24.4606 O   0  0  0  0  0  0  0  0  0  0  0  0
   13.5001  -15.5377   23.2449 O   0  0  0  0  0  0  0  0  0  0  0  0
   10.0491  -16.9910   25.5312 N   0  0  0  0  0  0  0  0  0  0  0  0
    9.5038  -16.5209   26.7998 C   0  0  1  0  0  0  0  0  0  0  0  0
    8.0113  -16.3388   26.7023 C   0  0  0  0  0  0  0  0  0  0  0  0
    7.6439  -14.9166   26.6471 C   0  0  0  0  0  0  0  0  0  0  0  0
    8.4217  -13.9563   27.2992 C   0  0  0  0  0  0  0  0  0  0  0  0
    8.1036  -12.6194   27.2330 C   0  0  0  0  0  0  0  0  0  0  0  0
    7.0087  -12.1746   26.5234 C   0  0  0  0  0  0  0  0  0  0  0  0
    6.2332  -13.1151   25.8751 C   0  0  0  0  0  0  0  0  0  0  0  0
    6.5609  -14.4690   25.9459 C   0  0  0  0  0  0  0  0  0  0  0  0
    9.8431  -17.4047   27.9088 C   0  0  0  0  0  0  0  0  0  0  0  0
   10.3176  -18.5351   27.7471 O   0  0  0  0  0  0  0  0  0  0  0  0
    9.6283  -16.9692   29.2203 O   0  0  0  0  0  0  0  0  0  0  0  0
  2  1  1  6
  3  4  1  0
  3  2  1  0
  5  2  1  0
  5  6  2  0
  7  5  1  0
  8  7  1  0
  8 12  1  0
  8  9  1  6
 10 11  2  0
 10  9  1  0
 12 15  1  0
 13 12  2  0
 14 10  1  0
 15 16  1  0
 16 24  1  0
 17 18  1  0
 16 17  1  6
 18 23  2  0
 19 18  1  0
 19 20  2  0
 20 21  1  0
 21 22  2  0
 23 22  1  0
 24 25  2  0
 24 26  1  0
M  END
$$$$
