IKP.pdb
     RDKit          3D

 25 25  0  0  1  0  0  0  0  0999 V2000
   21.1627  -19.1892  -11.8533 C   0  0  0  0  0  0  0  0  0  0  0  0
   22.5453  -19.3783  -11.2796 C   0  0  0  0  0  0  0  0  0  0  0  0
   22.8969  -20.8364  -11.2400 C   0  0  2  0  0  0  0  0  0  0  0  0
   21.8857  -21.5929  -10.4034 C   0  0  0  0  0  0  0  0  0  0  0  0
   24.3011  -21.0670  -10.7575 C   0  0  2  0  0  0  0  0  0  0  0  0
   24.5232  -20.4796   -9.4570 N   0  0  0  0  0  0  0  0  0  0  0  0
   25.2908  -20.5414  -11.7367 C   0  0  0  0  0  0  0  0  0  0  0  0
   25.9506  -19.5165  -11.4071 O   0  0  0  0  0  0  0  0  0  0  0  0
   25.5038  -21.1442  -12.9908 N   0  0  0  0  0  0  0  0  0  0  0  0
   26.5012  -20.6367  -13.9514 C   0  0  1  0  0  0  0  0  0  0  0  0
   27.0325  -21.8281  -14.7175 C   0  0  0  0  0  0  0  0  0  0  0  0
   27.9822  -21.4209  -15.7872 C   0  0  0  0  0  0  0  0  0  0  0  0
   28.4521  -22.6364  -16.5982 C   0  0  0  0  0  0  0  0  0  0  0  0
   29.4262  -22.1313  -17.6224 C   0  0  0  0  0  0  0  0  0  0  0  0
   29.9178  -23.1927  -18.4708 N   0  0  0  0  0  0  0  0  0  0  0  0
   25.7644  -19.7344  -14.8483 C   0  0  0  0  0  0  0  0  0  0  0  0
   24.5583  -20.0866  -15.1397 O   0  0  0  0  0  0  0  0  0  0  0  0
   26.2019  -18.5414  -15.4165 N   0  0  0  0  0  0  0  0  0  0  0  0
   27.5123  -17.9172  -15.2006 C   0  0  0  0  0  0  0  0  0  0  0  0
   27.1856  -16.4286  -15.1778 C   0  0  0  0  0  0  0  0  0  0  0  0
   26.1098  -16.3248  -16.2431 C   0  0  0  0  0  0  0  0  0  0  0  0
   25.4343  -17.6837  -16.3029 C   0  0  1  0  0  0  0  0  0  0  0  0
   25.4432  -18.2234  -17.6693 C   0  0  0  0  0  0  0  0  0  0  0  0
   26.3541  -19.2421  -17.9561 O   0  0  0  0  0  0  0  0  0  0  0  0
   24.7084  -17.8562  -18.6080 O   0  0  0  0  0  0  0  0  0  0  0  0
  1  2  1  0
  3  5  1  0
  3  2  1  0
  3  4  1  1
  5  6  1  1
  7  5  1  0
  8  7  2  0
  9  7  1  0
 10 11  1  6
 10  9  1  0
 11 12  1  0
 13 12  1  0
 13 14  1  0
 14 15  1  0
 16 17  2  0
 16 10  1  0
 18 16  1  0
 19 18  1  0
 20 21  1  0
 20 19  1  0
 21 22  1  0
 22 18  1  0
 22 23  1  6
 24 23  1  0
 25 23  2  0
M  END
$$$$
