IKP.pdb
     RDKit          3D

 25 25  0  0  1  0  0  0  0  0999 V2000
   23.6862  -17.6773  -19.4756 C   0  0  0  0  0  0  0  0  0  0  0  0
   22.3307  -17.8550  -18.8373 C   0  0  0  0  0  0  0  0  0  0  0  0
   22.4760  -18.0679  -17.3592 C   0  0  2  0  0  0  0  0  0  0  0  0
   23.4343  -19.2097  -17.0898 C   0  0  0  0  0  0  0  0  0  0  0  0
   21.1504  -18.2843  -16.6856 C   0  0  2  0  0  0  0  0  0  0  0  0
   20.2784  -17.1438  -16.8419 N   0  0  0  0  0  0  0  0  0  0  0  0
   21.3344  -18.5989  -15.2427 C   0  0  0  0  0  0  0  0  0  0  0  0
   21.7222  -17.6653  -14.4862 O   0  0  0  0  0  0  0  0  0  0  0  0
   21.0927  -19.8809  -14.7139 N   0  0  0  0  0  0  0  0  0  0  0  0
   21.3741  -20.2202  -13.3064 C   0  0  1  0  0  0  0  0  0  0  0  0
   20.2724  -21.1458  -12.8394 C   0  0  0  0  0  0  0  0  0  0  0  0
   20.5127  -21.6412  -11.4579 C   0  0  0  0  0  0  0  0  0  0  0  0
   19.4625  -22.6865  -11.0572 C   0  0  0  0  0  0  0  0  0  0  0  0
   19.7607  -23.0890   -9.6423 C   0  0  0  0  0  0  0  0  0  0  0  0
   18.8039  -24.0482   -9.1399 N   0  0  0  0  0  0  0  0  0  0  0  0
   22.6659  -20.9220  -13.3186 C   0  0  0  0  0  0  0  0  0  0  0  0
   22.9288  -21.6056  -14.3803 O   0  0  0  0  0  0  0  0  0  0  0  0
   23.6467  -20.9345  -12.3309 N   0  0  0  0  0  0  0  0  0  0  0  0
   23.5162  -20.3668  -10.9840 C   0  0  0  0  0  0  0  0  0  0  0  0
   24.9037  -19.7965  -10.7143 C   0  0  0  0  0  0  0  0  0  0  0  0
   25.8031  -20.8350  -11.3588 C   0  0  0  0  0  0  0  0  0  0  0  0
   24.9847  -21.4853  -12.4606 C   0  0  1  0  0  0  0  0  0  0  0  0
   24.9521  -22.9461  -12.3086 C   0  0  0  0  0  0  0  0  0  0  0  0
   26.1285  -23.6502  -12.5737 O   0  0  0  0  0  0  0  0  0  0  0  0
   23.9653  -23.6259  -11.9622 O   0  0  0  0  0  0  0  0  0  0  0  0
  1  2  1  0
  3  5  1  0
  3  2  1  0
  3  4  1  6
  5  6  1  1
  7  5  1  0
  8  7  2  0
  9  7  1  0
 10 11  1  6
 10  9  1  0
 11 12  1  0
 13 12  1  0
 13 14  1  0
 14 15  1  0
 16 17  2  0
 16 10  1  0
 18 16  1  0
 19 18  1  0
 20 21  1  0
 20 19  1  0
 21 22  1  0
 22 18  1  0
 22 23  1  1
 24 23  1  0
 25 23  2  0
M  END
$$$$
