IKP.pdb
     RDKit          3D

 25 25  0  0  1  0  0  0  0  0999 V2000
    5.6278  -18.9855    1.3447 C   0  0  0  0  0  0  0  0  0  0  0  0
    6.5245  -19.2090    0.1521 C   0  0  0  0  0  0  0  0  0  0  0  0
    7.6046  -20.1939    0.4910 C   0  0  2  0  0  0  0  0  0  0  0  0
    8.4380  -19.6755    1.6447 C   0  0  0  0  0  0  0  0  0  0  0  0
    8.4550  -20.5334   -0.7005 C   0  0  2  0  0  0  0  0  0  0  0  0
    7.6628  -21.0414   -1.7958 N   0  0  0  0  0  0  0  0  0  0  0  0
    9.5148  -21.5115   -0.3334 C   0  0  0  0  0  0  0  0  0  0  0  0
    9.3158  -22.7243   -0.6229 O   0  0  0  0  0  0  0  0  0  0  0  0
   10.7045  -21.1267    0.3132 N   0  0  0  0  0  0  0  0  0  0  0  0
   11.8108  -22.0709    0.5580 C   0  0  1  0  0  0  0  0  0  0  0  0
   12.3698  -22.4661   -0.7910 C   0  0  0  0  0  0  0  0  0  0  0  0
   13.5582  -23.3509   -0.6613 C   0  0  0  0  0  0  0  0  0  0  0  0
   14.1429  -23.6931   -2.0386 C   0  0  0  0  0  0  0  0  0  0  0  0
   15.4140  -24.4546   -1.7994 C   0  0  0  0  0  0  0  0  0  0  0  0
   16.0659  -24.8207   -3.0359 N   0  0  0  0  0  0  0  0  0  0  0  0
   12.8107  -21.3183    1.3296 C   0  0  0  0  0  0  0  0  0  0  0  0
   13.0696  -20.1264    0.9101 O   0  0  0  0  0  0  0  0  0  0  0  0
   13.5078  -21.7272    2.4629 N   0  0  0  0  0  0  0  0  0  0  0  0
   13.3971  -23.0383    3.1127 C   0  0  0  0  0  0  0  0  0  0  0  0
   13.5110  -22.6995    4.5943 C   0  0  0  0  0  0  0  0  0  0  0  0
   14.5460  -21.5897    4.5862 C   0  0  0  0  0  0  0  0  0  0  0  0
   14.4494  -20.9246    3.2243 C   0  0  1  0  0  0  0  0  0  0  0  0
   15.7553  -20.8950    2.5519 C   0  0  0  0  0  0  0  0  0  0  0  0
   16.6957  -19.9682    3.0064 O   0  0  0  0  0  0  0  0  0  0  0  0
   16.1094  -21.6249    1.6045 O   0  0  0  0  0  0  0  0  0  0  0  0
  1  2  1  0
  3  5  1  0
  3  2  1  0
  3  4  1  1
  5  6  1  6
  7  5  1  0
  8  7  2  0
  9  7  1  0
 10 11  1  6
 10  9  1  0
 11 12  1  0
 13 12  1  0
 13 14  1  0
 14 15  1  0
 16 17  2  0
 16 10  1  0
 18 16  1  0
 19 18  1  0
 20 21  1  0
 20 19  1  0
 21 22  1  0
 22 18  1  0
 22 23  1  6
 24 23  1  0
 25 23  2  0
M  END
$$$$
