IKP.pdb
     RDKit          3D

 25 25  0  0  1  0  0  0  0  0999 V2000
   17.9450  -29.4471   -4.1458 C   0  0  0  0  0  0  0  0  0  0  0  0
   17.1321  -29.4116   -2.8752 C   0  0  0  0  0  0  0  0  0  0  0  0
   17.3102  -28.0936   -2.1807 C   0  0  2  0  0  0  0  0  0  0  0  0
   18.7690  -27.8824   -1.8315 C   0  0  0  0  0  0  0  0  0  0  0  0
   16.4256  -27.9664   -0.9727 C   0  0  2  0  0  0  0  0  0  0  0  0
   15.1079  -28.5052   -1.2155 N   0  0  0  0  0  0  0  0  0  0  0  0
   16.3297  -26.5478   -0.5332 C   0  0  0  0  0  0  0  0  0  0  0  0
   17.4054  -25.9503   -0.2497 O   0  0  0  0  0  0  0  0  0  0  0  0
   15.0990  -25.8726   -0.4282 N   0  0  0  0  0  0  0  0  0  0  0  0
   14.9859  -24.5243    0.1588 C   0  0  1  0  0  0  0  0  0  0  0  0
   13.6151  -23.9933   -0.1985 C   0  0  0  0  0  0  0  0  0  0  0  0
   13.6607  -23.0901   -1.3792 C   0  0  0  0  0  0  0  0  0  0  0  0
   12.2494  -22.6444   -1.7863 C   0  0  0  0  0  0  0  0  0  0  0  0
   12.3901  -21.8305   -3.0395 C   0  0  0  0  0  0  0  0  0  0  0  0
   11.1128  -21.3611   -3.5257 N   0  0  0  0  0  0  0  0  0  0  0  0
   15.1023  -24.7137    1.6120 C   0  0  0  0  0  0  0  0  0  0  0  0
   14.7623  -25.8742    2.0607 O   0  0  0  0  0  0  0  0  0  0  0  0
   15.5425  -23.8001    2.5654 N   0  0  0  0  0  0  0  0  0  0  0  0
   16.0659  -22.4570    2.2904 C   0  0  0  0  0  0  0  0  0  0  0  0
   17.1715  -22.2987    3.3275 C   0  0  0  0  0  0  0  0  0  0  0  0
   16.5708  -22.9893    4.5379 C   0  0  0  0  0  0  0  0  0  0  0  0
   15.5903  -24.0174    4.0011 C   0  0  1  0  0  0  0  0  0  0  0  0
   14.2559  -23.8388    4.5890 C   0  0  0  0  0  0  0  0  0  0  0  0
   14.0654  -24.2699    5.9034 O   0  0  0  0  0  0  0  0  0  0  0  0
   13.2659  -23.3343    4.0221 O   0  0  0  0  0  0  0  0  0  0  0  0
  1  2  1  0
  3  5  1  0
  3  2  1  0
  3  4  1  1
  5  6  1  6
  7  5  1  0
  8  7  2  0
  9  7  1  0
 10 11  1  1
 10  9  1  0
 11 12  1  0
 13 12  1  0
 13 14  1  0
 14 15  1  0
 16 17  2  0
 16 10  1  0
 18 16  1  0
 19 18  1  0
 20 21  1  0
 20 19  1  0
 21 22  1  0
 22 18  1  0
 22 23  1  1
 24 23  1  0
 25 23  2  0
M  END
$$$$
