SIW.pdb
     RDKit          3D

 29 30  0  0  1  0  0  0  0  0999 V2000
   26.7192  -18.2705  -15.3649 O   0  0  0  0  0  0  0  0  0  0  0  0
   28.0713  -18.0982  -15.6379 C   0  0  0  0  0  0  0  0  0  0  0  0
   28.6894  -19.4669  -15.7445 C   0  0  2  0  0  0  0  0  0  0  0  0
   28.2616  -20.0614  -16.9863 N   0  0  0  0  0  0  0  0  0  0  0  0
   28.3082  -20.3168  -14.5613 C   0  0  0  0  0  0  0  0  0  0  0  0
   27.4518  -21.1905  -14.7723 O   0  0  0  0  0  0  0  0  0  0  0  0
   31.9182  -21.4299  -10.6079 C   0  0  0  0  0  0  0  0  0  0  0  0
   30.7364  -21.5763  -11.4997 C   0  0  0  0  0  0  0  0  0  0  0  0
   29.5059  -20.8122  -11.0347 C   0  0  2  0  0  0  0  0  0  0  0  0
   28.9955  -21.6637   -9.8629 C   0  0  0  0  0  0  0  0  0  0  0  0
   28.4982  -20.9139  -12.1381 C   0  0  2  0  0  0  0  0  0  0  0  0
   28.8613  -20.1569  -13.3045 N   0  0  0  0  0  0  0  0  0  0  0  0
   27.1652  -20.5027  -11.7364 C   0  0  0  0  0  0  0  0  0  0  0  0
   26.9770  -19.2361  -11.5072 O   0  0  0  0  0  0  0  0  0  0  0  0
   26.0013  -21.2869  -11.5538 N   0  0  0  0  0  0  0  0  0  0  0  0
   24.7605  -20.6871  -11.0253 C   0  0  1  0  0  0  0  0  0  0  0  0
   23.6166  -21.3683  -11.7543 C   0  0  0  0  0  0  0  0  0  0  0  0
   22.5902  -20.3887  -12.1713 C   0  0  0  0  0  0  0  0  0  0  0  0
   22.6427  -19.5922  -13.2962 C   0  0  0  0  0  0  0  0  0  0  0  0
   21.5213  -18.8390  -13.3229 N   0  0  0  0  0  0  0  0  0  0  0  0
   20.7541  -19.1276  -12.2526 C   0  0  0  0  0  0  0  0  0  0  0  0
   19.5317  -18.6105  -11.8703 C   0  0  0  0  0  0  0  0  0  0  0  0
   18.9742  -19.1035  -10.7092 C   0  0  0  0  0  0  0  0  0  0  0  0
   19.6317  -20.0830   -9.9653 C   0  0  0  0  0  0  0  0  0  0  0  0
   20.8445  -20.5879  -10.3558 C   0  0  0  0  0  0  0  0  0  0  0  0
   21.4126  -20.1043  -11.5135 C   0  0  0  0  0  0  0  0  0  0  0  0
   24.6618  -20.9797   -9.5800 C   0  0  0  0  0  0  0  0  0  0  0  0
   25.3572  -21.8612   -9.0164 O   0  0  0  0  0  0  0  0  0  0  0  0
   23.7652  -20.2593   -8.7882 O   0  0  0  0  0  0  0  0  0  0  0  0
  2  1  1  0
  2  3  1  0
  3  4  1  6
  5  6  2  0
  5  3  1  0
  8  7  1  0
  8  9  1  0
  9 11  1  0
  9 10  1  1
 11 12  1  6
 12  5  1  0
 13 11  1  0
 14 13  2  0
 15 13  1  0
 16 27  1  0
 16 15  1  0
 16 17  1  6
 18 17  1  0
 18 19  2  0
 20 19  1  0
 21 20  1  0
 22 21  2  0
 23 22  1  0
 24 23  2  0
 24 25  1  0
 25 26  2  0
 26 21  1  0
 26 18  1  0
 27 29  1  0
 28 27  2  0
M  END
$$$$
