SIW.pdb
     RDKit          3D

 29 30  0  0  1  0  0  0  0  0999 V2000
   24.7550  -13.9877  -15.3269 O   0  0  0  0  0  0  0  0  0  0  0  0
   25.4751  -15.1049  -14.9199 C   0  0  0  0  0  0  0  0  0  0  0  0
   25.9883  -15.7886  -16.1592 C   0  0  2  0  0  0  0  0  0  0  0  0
   25.1256  -15.4383  -17.2598 N   0  0  0  0  0  0  0  0  0  0  0  0
   26.0530  -17.2793  -15.9567 C   0  0  0  0  0  0  0  0  0  0  0  0
   25.0220  -17.9118  -16.2367 O   0  0  0  0  0  0  0  0  0  0  0  0
   29.1655  -19.3699  -18.0638 C   0  0  0  0  0  0  0  0  0  0  0  0
   28.3627  -20.2455  -17.1681 C   0  0  0  0  0  0  0  0  0  0  0  0
   28.5442  -19.9549  -15.6858 C   0  0  2  0  0  0  0  0  0  0  0  0
   28.6381  -21.3586  -15.0699 C   0  0  0  0  0  0  0  0  0  0  0  0
   27.2637  -19.3394  -15.2118 C   0  0  2  0  0  0  0  0  0  0  0  0
   27.1784  -17.9319  -15.4888 N   0  0  0  0  0  0  0  0  0  0  0  0
   27.0276  -19.5299  -13.7921 C   0  0  0  0  0  0  0  0  0  0  0  0
   27.8005  -18.8844  -12.9686 O   0  0  0  0  0  0  0  0  0  0  0  0
   26.0558  -20.3285  -13.1434 N   0  0  0  0  0  0  0  0  0  0  0  0
   26.0370  -20.4512  -11.6727 C   0  0  1  0  0  0  0  0  0  0  0  0
   24.8539  -19.6293  -11.1940 C   0  0  0  0  0  0  0  0  0  0  0  0
   23.5925  -20.1043  -11.8023 C   0  0  0  0  0  0  0  0  0  0  0  0
   22.7284  -21.0289  -11.2536 C   0  0  0  0  0  0  0  0  0  0  0  0
   21.6977  -21.1927  -12.1117 N   0  0  0  0  0  0  0  0  0  0  0  0
   21.8744  -20.4035  -13.1904 C   0  0  0  0  0  0  0  0  0  0  0  0
   21.0841  -20.2414  -14.3116 C   0  0  0  0  0  0  0  0  0  0  0  0
   21.5232  -19.3505  -15.2685 C   0  0  0  0  0  0  0  0  0  0  0  0
   22.7175  -18.6516  -15.0941 C   0  0  0  0  0  0  0  0  0  0  0  0
   23.4925  -18.8217  -13.9767 C   0  0  0  0  0  0  0  0  0  0  0  0
   23.0657  -19.7085  -13.0132 C   0  0  0  0  0  0  0  0  0  0  0  0
   25.8258  -21.8683  -11.3102 C   0  0  0  0  0  0  0  0  0  0  0  0
   25.5472  -22.7521  -12.1585 O   0  0  0  0  0  0  0  0  0  0  0  0
   25.9352  -22.2645   -9.9758 O   0  0  0  0  0  0  0  0  0  0  0  0
  2  1  1  0
  2  3  1  0
  3  4  1  6
  5  6  2  0
  5  3  1  0
  8  7  1  0
  8  9  1  0
  9 11  1  0
  9 10  1  1
 11 12  1  1
 12  5  1  0
 13 11  1  0
 14 13  2  0
 15 13  1  0
 16 27  1  0
 16 15  1  0
 16 17  1  6
 18 17  1  0
 18 19  2  0
 20 19  1  0
 21 20  1  0
 22 21  2  0
 23 22  1  0
 24 23  2  0
 24 25  1  0
 25 26  2  0
 26 21  1  0
 26 18  1  0
 27 29  1  0
 28 27  2  0
M  END
$$$$
