SIW.pdb
     RDKit          3D

 29 30  0  0  1  0  0  0  0  0999 V2000
   28.2306  -18.7540  -16.0382 O   0  0  0  0  0  0  0  0  0  0  0  0
   27.3110  -19.5079  -15.3181 C   0  0  0  0  0  0  0  0  0  0  0  0
   28.0869  -20.4937  -14.4858 C   0  0  2  0  0  0  0  0  0  0  0  0
   28.6813  -21.4645  -15.3706 N   0  0  0  0  0  0  0  0  0  0  0  0
   27.1942  -21.1466  -13.4639 C   0  0  0  0  0  0  0  0  0  0  0  0
   26.5011  -22.0924  -13.8718 O   0  0  0  0  0  0  0  0  0  0  0  0
   27.8681  -20.3447   -8.0233 C   0  0  0  0  0  0  0  0  0  0  0  0
   27.4223  -20.9791   -9.2931 C   0  0  0  0  0  0  0  0  0  0  0  0
   26.1964  -20.3298   -9.9176 C   0  0  2  0  0  0  0  0  0  0  0  0
   25.0522  -20.8214   -9.0188 C   0  0  0  0  0  0  0  0  0  0  0  0
   26.0167  -20.9633  -11.2628 C   0  0  2  0  0  0  0  0  0  0  0  0
   27.1294  -20.7393  -12.1444 N   0  0  0  0  0  0  0  0  0  0  0  0
   24.8119  -20.5272  -11.9452 C   0  0  0  0  0  0  0  0  0  0  0  0
   24.7007  -19.2569  -12.2027 O   0  0  0  0  0  0  0  0  0  0  0  0
   23.7075  -21.2910  -12.3921 N   0  0  0  0  0  0  0  0  0  0  0  0
   22.5600  -20.6437  -13.0576 C   0  0  1  0  0  0  0  0  0  0  0  0
   22.5971  -21.0997  -14.5049 C   0  0  0  0  0  0  0  0  0  0  0  0
   21.4729  -20.5250  -15.2750 C   0  0  0  0  0  0  0  0  0  0  0  0
   21.3853  -19.2257  -15.7298 C   0  0  0  0  0  0  0  0  0  0  0  0
   20.2117  -19.0950  -16.3863 N   0  0  0  0  0  0  0  0  0  0  0  0
   19.5464  -20.2675  -16.3660 C   0  0  0  0  0  0  0  0  0  0  0  0
   18.3191  -20.6019  -16.9042 C   0  0  0  0  0  0  0  0  0  0  0  0
   17.8842  -21.8983  -16.7242 C   0  0  0  0  0  0  0  0  0  0  0  0
   18.6647  -22.8191  -16.0253 C   0  0  0  0  0  0  0  0  0  0  0  0
   19.8809  -22.4743  -15.4962 C   0  0  0  0  0  0  0  0  0  0  0  0
   20.3272  -21.1827  -15.6687 C   0  0  0  0  0  0  0  0  0  0  0  0
   21.3090  -21.1164  -12.4285 C   0  0  0  0  0  0  0  0  0  0  0  0
   21.1877  -22.2669  -11.9386 O   0  0  0  0  0  0  0  0  0  0  0  0
   20.2030  -20.2665  -12.3646 O   0  0  0  0  0  0  0  0  0  0  0  0
  2  1  1  0
  2  3  1  0
  3  4  1  6
  5  6  2  0
  5  3  1  0
  8  7  1  0
  8  9  1  0
  9 11  1  0
  9 10  1  1
 11 12  1  6
 12  5  1  0
 13 11  1  0
 14 13  2  0
 15 13  1  0
 16 27  1  0
 16 15  1  0
 16 17  1  6
 18 17  1  0
 18 19  2  0
 20 19  1  0
 21 20  1  0
 22 21  2  0
 23 22  1  0
 24 23  2  0
 24 25  1  0
 25 26  2  0
 26 21  1  0
 26 18  1  0
 27 29  1  0
 28 27  2  0
M  END
$$$$
