SIW.pdb
     RDKit          3D

 29 30  0  0  1  0  0  0  0  0999 V2000
   25.6137  -24.7131  -18.4626 O   0  0  0  0  0  0  0  0  0  0  0  0
   26.0130  -24.0860  -17.2880 C   0  0  0  0  0  0  0  0  0  0  0  0
   27.2545  -23.2928  -17.5980 C   0  0  2  0  0  0  0  0  0  0  0  0
   28.3108  -24.2163  -17.9295 N   0  0  0  0  0  0  0  0  0  0  0  0
   27.6295  -22.4144  -16.4339 C   0  0  0  0  0  0  0  0  0  0  0  0
   28.4510  -22.8915  -15.6346 O   0  0  0  0  0  0  0  0  0  0  0  0
   28.3659  -17.0983  -16.8996 C   0  0  0  0  0  0  0  0  0  0  0  0
   28.4306  -18.4747  -16.3387 C   0  0  0  0  0  0  0  0  0  0  0  0
   27.2563  -18.8387  -15.4427 C   0  0  2  0  0  0  0  0  0  0  0  0
   27.5490  -18.0521  -14.1566 C   0  0  0  0  0  0  0  0  0  0  0  0
   27.3991  -20.2949  -15.1226 C   0  0  2  0  0  0  0  0  0  0  0  0
   27.1072  -21.1490  -16.2409 N   0  0  0  0  0  0  0  0  0  0  0  0
   26.5718  -20.7204  -14.0082 C   0  0  0  0  0  0  0  0  0  0  0  0
   25.2854  -20.7501  -14.1995 O   0  0  0  0  0  0  0  0  0  0  0  0
   26.9571  -21.1249  -12.7079 N   0  0  0  0  0  0  0  0  0  0  0  0
   25.9478  -21.5468  -11.7170 C   0  0  1  0  0  0  0  0  0  0  0  0
   26.7208  -22.0061  -10.4940 C   0  0  0  0  0  0  0  0  0  0  0  0
   26.6022  -21.0300   -9.3895 C   0  0  0  0  0  0  0  0  0  0  0  0
   25.4719  -20.3087   -9.0660 C   0  0  0  0  0  0  0  0  0  0  0  0
   25.7674  -19.5310   -8.0014 N   0  0  0  0  0  0  0  0  0  0  0  0
   27.0490  -19.7314   -7.6338 C   0  0  0  0  0  0  0  0  0  0  0  0
   27.7791  -19.1606   -6.6097 C   0  0  0  0  0  0  0  0  0  0  0  0
   29.0905  -19.5642   -6.4697 C   0  0  0  0  0  0  0  0  0  0  0  0
   29.6391  -20.5102   -7.3354 C   0  0  0  0  0  0  0  0  0  0  0  0
   28.9036  -21.0691   -8.3478 C   0  0  0  0  0  0  0  0  0  0  0  0
   27.5926  -20.6748   -8.4988 C   0  0  0  0  0  0  0  0  0  0  0  0
   25.1106  -20.3832  -11.3570 C   0  0  0  0  0  0  0  0  0  0  0  0
   25.5626  -19.2123  -11.3020 O   0  0  0  0  0  0  0  0  0  0  0  0
   23.7586  -20.5690  -11.0617 O   0  0  0  0  0  0  0  0  0  0  0  0
  2  1  1  0
  2  3  1  0
  3  4  1  1
  5  6  2  0
  5  3  1  0
  8  7  1  0
  8  9  1  0
  9 11  1  0
  9 10  1  1
 11 12  1  6
 12  5  1  0
 13 11  1  0
 14 13  2  0
 15 13  1  0
 16 27  1  0
 16 15  1  0
 16 17  1  1
 18 17  1  0
 18 19  2  0
 20 19  1  0
 21 20  1  0
 22 21  2  0
 23 22  1  0
 24 23  2  0
 24 25  1  0
 25 26  2  0
 26 21  1  0
 26 18  1  0
 27 29  1  0
 28 27  2  0
M  END
$$$$
