SIW.pdb
     RDKit          3D

 29 30  0  0  1  0  0  0  0  0999 V2000
   20.7316  -17.9005  -13.1361 O   0  0  0  0  0  0  0  0  0  0  0  0
   21.5769  -18.7180  -12.3948 C   0  0  0  0  0  0  0  0  0  0  0  0
   21.6908  -20.0305  -13.1236 C   0  0  2  0  0  0  0  0  0  0  0  0
   20.4948  -20.7946  -12.8699 N   0  0  0  0  0  0  0  0  0  0  0  0
   22.9270  -20.7738  -12.6915 C   0  0  0  0  0  0  0  0  0  0  0  0
   22.7954  -21.5262  -11.7127 O   0  0  0  0  0  0  0  0  0  0  0  0
   26.9698  -22.2144  -16.1552 C   0  0  0  0  0  0  0  0  0  0  0  0
   26.0282  -22.1406  -15.0057 C   0  0  0  0  0  0  0  0  0  0  0  0
   26.4658  -21.1903  -13.9012 C   0  0  2  0  0  0  0  0  0  0  0  0
   27.6923  -21.8973  -13.3061 C   0  0  0  0  0  0  0  0  0  0  0  0
   25.3848  -21.2142  -12.8647 C   0  0  2  0  0  0  0  0  0  0  0  0
   24.1482  -20.6464  -13.3269 N   0  0  0  0  0  0  0  0  0  0  0  0
   25.7549  -20.5368  -11.6353 C   0  0  0  0  0  0  0  0  0  0  0  0
   25.7624  -19.2361  -11.6516 O   0  0  0  0  0  0  0  0  0  0  0  0
   26.1155  -21.0862  -10.3818 N   0  0  0  0  0  0  0  0  0  0  0  0
   26.8856  -20.2946   -9.4026 C   0  0  1  0  0  0  0  0  0  0  0  0
   26.1584  -20.4358   -8.0777 C   0  0  0  0  0  0  0  0  0  0  0  0
   26.8183  -19.6420   -7.0188 C   0  0  0  0  0  0  0  0  0  0  0  0
   26.7942  -18.2676   -6.9052 C   0  0  0  0  0  0  0  0  0  0  0  0
   27.5114  -17.9298   -5.8112 N   0  0  0  0  0  0  0  0  0  0  0  0
   27.9930  -19.0427   -5.2219 C   0  0  0  0  0  0  0  0  0  0  0  0
   28.7714  -19.1824   -4.0894 C   0  0  0  0  0  0  0  0  0  0  0  0
   29.1180  -20.4644   -3.7173 C   0  0  0  0  0  0  0  0  0  0  0  0
   28.6913  -21.5615   -4.4654 C   0  0  0  0  0  0  0  0  0  0  0  0
   27.9192  -21.4090   -5.5874 C   0  0  0  0  0  0  0  0  0  0  0  0
   27.5658  -20.1340   -5.9702 C   0  0  0  0  0  0  0  0  0  0  0  0
   28.2418  -20.8689   -9.2789 C   0  0  0  0  0  0  0  0  0  0  0  0
   29.2092  -20.2285   -8.7970 O   0  0  0  0  0  0  0  0  0  0  0  0
   28.4813  -22.1756   -9.7089 O   0  0  0  0  0  0  0  0  0  0  0  0
  2  1  1  0
  2  3  1  0
  3  4  1  1
  5  6  2  0
  5  3  1  0
  8  7  1  0
  8  9  1  0
  9 11  1  0
  9 10  1  1
 11 12  1  6
 12  5  1  0
 13 11  1  0
 14 13  2  0
 15 13  1  0
 16 27  1  0
 16 15  1  0
 16 17  1  1
 18 17  1  0
 18 19  2  0
 20 19  1  0
 21 20  1  0
 22 21  2  0
 23 22  1  0
 24 23  2  0
 24 25  1  0
 25 26  2  0
 26 21  1  0
 26 18  1  0
 27 29  1  0
 28 27  2  0
M  END
$$$$
