SIW.pdb
     RDKit          3D

 29 30  0  0  1  0  0  0  0  0999 V2000
   29.2077  -22.4810  -16.5891 O   0  0  0  0  0  0  0  0  0  0  0  0
   28.6305  -21.7615  -15.5491 C   0  0  0  0  0  0  0  0  0  0  0  0
   27.4446  -21.0245  -16.1124 C   0  0  2  0  0  0  0  0  0  0  0  0
   27.9267  -20.0380  -17.0468 N   0  0  0  0  0  0  0  0  0  0  0  0
   26.6354  -20.3958  -15.0091 C   0  0  0  0  0  0  0  0  0  0  0  0
   26.9238  -19.2224  -14.7235 O   0  0  0  0  0  0  0  0  0  0  0  0
   21.5373  -20.4158  -15.1720 C   0  0  0  0  0  0  0  0  0  0  0  0
   22.8547  -19.9811  -14.6346 C   0  0  0  0  0  0  0  0  0  0  0  0
   23.3535  -20.8101  -13.4605 C   0  0  2  0  0  0  0  0  0  0  0  0
   22.6119  -20.1935  -12.2654 C   0  0  0  0  0  0  0  0  0  0  0  0
   24.8084  -20.4919  -13.3011 C   0  0  2  0  0  0  0  0  0  0  0  0
   25.6264  -21.0601  -14.3370 N   0  0  0  0  0  0  0  0  0  0  0  0
   25.3503  -20.9142  -12.0223 C   0  0  0  0  0  0  0  0  0  0  0  0
   25.3811  -22.1923  -11.7820 O   0  0  0  0  0  0  0  0  0  0  0  0
   25.8708  -20.1300  -10.9654 N   0  0  0  0  0  0  0  0  0  0  0  0
   26.3502  -20.7613   -9.7204 C   0  0  1  0  0  0  0  0  0  0  0  0
   27.2641  -19.7477   -9.0558 C   0  0  0  0  0  0  0  0  0  0  0  0
   27.8758  -20.3032   -7.8295 C   0  0  0  0  0  0  0  0  0  0  0  0
   28.3334  -21.5944   -7.6679 C   0  0  0  0  0  0  0  0  0  0  0  0
   28.8189  -21.7076   -6.4122 N   0  0  0  0  0  0  0  0  0  0  0  0
   28.6868  -20.5318   -5.7659 C   0  0  0  0  0  0  0  0  0  0  0  0
   29.0406  -20.1815   -4.4775 C   0  0  0  0  0  0  0  0  0  0  0  0
   28.7811  -18.8857   -4.0830 C   0  0  0  0  0  0  0  0  0  0  0  0
   28.1858  -17.9810   -4.9619 C   0  0  0  0  0  0  0  0  0  0  0  0
   27.8396  -18.3414   -6.2380 C   0  0  0  0  0  0  0  0  0  0  0  0
   28.0932  -19.6325   -6.6449 C   0  0  0  0  0  0  0  0  0  0  0  0
   25.1940  -21.0278   -8.8393 C   0  0  0  0  0  0  0  0  0  0  0  0
   24.1790  -20.2881   -8.8083 O   0  0  0  0  0  0  0  0  0  0  0  0
   25.2080  -22.1420   -7.9978 O   0  0  0  0  0  0  0  0  0  0  0  0
  2  1  1  0
  2  3  1  0
  3  4  1  6
  5  6  2  0
  5  3  1  0
  8  7  1  0
  8  9  1  0
  9 11  1  0
  9 10  1  1
 11 12  1  6
 12  5  1  0
 13 11  1  0
 14 13  2  0
 15 13  1  0
 16 27  1  0
 16 15  1  0
 16 17  1  1
 18 17  1  0
 18 19  2  0
 20 19  1  0
 21 20  1  0
 22 21  2  0
 23 22  1  0
 24 23  2  0
 24 25  1  0
 25 26  2  0
 26 21  1  0
 26 18  1  0
 27 29  1  0
 28 27  2  0
M  END
$$$$
