SIW.pdb
     RDKit          3D

 29 30  0  0  1  0  0  0  0  0999 V2000
   34.6419  -25.2341  -14.4147 O   0  0  0  0  0  0  0  0  0  0  0  0
   34.2842  -26.3276  -15.1948 C   0  0  0  0  0  0  0  0  0  0  0  0
   33.1563  -25.8935  -16.0926 C   0  0  2  0  0  0  0  0  0  0  0  0
   32.0824  -25.4025  -15.2653 N   0  0  0  0  0  0  0  0  0  0  0  0
   32.7060  -27.0314  -16.9700 C   0  0  0  0  0  0  0  0  0  0  0  0
   31.6345  -27.5722  -16.6525 O   0  0  0  0  0  0  0  0  0  0  0  0
   33.6495  -26.3215  -21.9034 C   0  0  0  0  0  0  0  0  0  0  0  0
   32.8198  -27.1258  -20.9662 C   0  0  0  0  0  0  0  0  0  0  0  0
   33.5423  -28.3204  -20.3619 C   0  0  2  0  0  0  0  0  0  0  0  0
   33.0354  -29.4943  -21.2124 C   0  0  0  0  0  0  0  0  0  0  0  0
   32.9940  -28.4959  -18.9792 C   0  0  2  0  0  0  0  0  0  0  0  0
   33.4214  -27.4692  -18.0689 N   0  0  0  0  0  0  0  0  0  0  0  0
   33.3253  -29.7807  -18.3903 C   0  0  0  0  0  0  0  0  0  0  0  0
   34.5554  -29.9600  -18.0070 O   0  0  0  0  0  0  0  0  0  0  0  0
   32.4936  -30.9016  -18.1561 N   0  0  0  0  0  0  0  0  0  0  0  0
   33.0409  -32.1396  -17.5678 C   0  0  1  0  0  0  0  0  0  0  0  0
   31.8651  -33.0849  -17.4000 C   0  0  0  0  0  0  0  0  0  0  0  0
   32.2897  -34.3621  -16.7875 C   0  0  0  0  0  0  0  0  0  0  0  0
   32.9242  -34.5037  -15.5709 C   0  0  0  0  0  0  0  0  0  0  0  0
   33.1424  -35.8216  -15.3685 N   0  0  0  0  0  0  0  0  0  0  0  0
   32.6686  -36.5269  -16.4152 C   0  0  0  0  0  0  0  0  0  0  0  0
   32.6709  -37.8893  -16.6425 C   0  0  0  0  0  0  0  0  0  0  0  0
   32.1070  -38.3326  -17.8205 C   0  0  0  0  0  0  0  0  0  0  0  0
   31.5622  -37.4284  -18.7320 C   0  0  0  0  0  0  0  0  0  0  0  0
   31.5663  -36.0787  -18.4943 C   0  0  0  0  0  0  0  0  0  0  0  0
   32.1263  -35.6225  -17.3216 C   0  0  0  0  0  0  0  0  0  0  0  0
   34.0130  -32.7319  -18.5104 C   0  0  0  0  0  0  0  0  0  0  0  0
   33.7709  -32.8755  -19.7348 O   0  0  0  0  0  0  0  0  0  0  0  0
   35.2585  -33.1566  -18.0434 O   0  0  0  0  0  0  0  0  0  0  0  0
  2  1  1  0
  2  3  1  0
  3  4  1  1
  5  6  2  0
  5  3  1  0
  8  7  1  0
  8  9  1  0
  9 11  1  0
  9 10  1  6
 11 12  1  1
 12  5  1  0
 13 11  1  0
 14 13  2  0
 15 13  1  0
 16 27  1  0
 16 15  1  0
 16 17  1  6
 18 17  1  0
 18 19  2  0
 20 19  1  0
 21 20  1  0
 22 21  2  0
 23 22  1  0
 24 23  2  0
 24 25  1  0
 25 26  2  0
 26 21  1  0
 26 18  1  0
 27 29  1  0
 28 27  2  0
M  END
$$$$
