SIW.pdb
     RDKit          3D

 29 30  0  0  1  0  0  0  0  0999 V2000
   29.7082  -18.9845  -14.0821 O   0  0  0  0  0  0  0  0  0  0  0  0
   29.5816  -20.3398  -13.8003 C   0  0  0  0  0  0  0  0  0  0  0  0
   28.2051  -20.7660  -14.2365 C   0  0  2  0  0  0  0  0  0  0  0  0
   28.0377  -20.4063  -15.6226 N   0  0  0  0  0  0  0  0  0  0  0  0
   27.1513  -20.1327  -13.3671 C   0  0  0  0  0  0  0  0  0  0  0  0
   26.6939  -19.0502  -13.7676 O   0  0  0  0  0  0  0  0  0  0  0  0
   22.9773  -19.9790  -14.3493 C   0  0  0  0  0  0  0  0  0  0  0  0
   24.1652  -19.7759  -13.4770 C   0  0  0  0  0  0  0  0  0  0  0  0
   24.2552  -20.7476  -12.3099 C   0  0  2  0  0  0  0  0  0  0  0  0
   23.0257  -20.3837  -11.4647 C   0  0  0  0  0  0  0  0  0  0  0  0
   25.4714  -20.3611  -11.5257 C   0  0  2  0  0  0  0  0  0  0  0  0
   26.7006  -20.6989  -12.1892 N   0  0  0  0  0  0  0  0  0  0  0  0
   25.5061  -20.9453  -10.1973 C   0  0  0  0  0  0  0  0  0  0  0  0
   25.7875  -22.2125  -10.1118 O   0  0  0  0  0  0  0  0  0  0  0  0
   25.2796  -20.3330   -8.9416 N   0  0  0  0  0  0  0  0  0  0  0  0
   25.2490  -21.1356   -7.7034 C   0  0  1  0  0  0  0  0  0  0  0  0
   25.5397  -20.1724   -6.5667 C   0  0  0  0  0  0  0  0  0  0  0  0
   26.9291  -19.6705   -6.6341 C   0  0  0  0  0  0  0  0  0  0  0  0
   27.4594  -18.8919   -7.6416 C   0  0  0  0  0  0  0  0  0  0  0  0
   28.7521  -18.6443   -7.3369 N   0  0  0  0  0  0  0  0  0  0  0  0
   29.0656  -19.2388   -6.1681 C   0  0  0  0  0  0  0  0  0  0  0  0
   30.2590  -19.2576   -5.4730 C   0  0  0  0  0  0  0  0  0  0  0  0
   30.2856  -19.9586   -4.2855 C   0  0  0  0  0  0  0  0  0  0  0  0
   29.1455  -20.6147   -3.8220 C   0  0  0  0  0  0  0  0  0  0  0  0
   27.9673  -20.5882   -4.5215 C   0  0  0  0  0  0  0  0  0  0  0  0
   27.9270  -19.8917   -5.7091 C   0  0  0  0  0  0  0  0  0  0  0  0
   23.8949  -21.7016   -7.5296 C   0  0  0  0  0  0  0  0  0  0  0  0
   22.8998  -21.2937   -8.1789 O   0  0  0  0  0  0  0  0  0  0  0  0
   23.6892  -22.7332   -6.6113 O   0  0  0  0  0  0  0  0  0  0  0  0
  2  1  1  0
  2  3  1  0
  3  4  1  6
  5  6  2  0
  5  3  1  0
  8  7  1  0
  8  9  1  0
  9 11  1  0
  9 10  1  1
 11 12  1  6
 12  5  1  0
 13 11  1  0
 14 13  2  0
 15 13  1  0
 16 27  1  0
 16 15  1  0
 16 17  1  1
 18 17  1  0
 18 19  2  0
 20 19  1  0
 21 20  1  0
 22 21  2  0
 23 22  1  0
 24 23  2  0
 24 25  1  0
 25 26  2  0
 26 21  1  0
 26 18  1  0
 27 29  1  0
 28 27  2  0
M  END
$$$$
