SIW.pdb
     RDKit          3D

 29 30  0  0  1  0  0  0  0  0999 V2000
   26.7904  -24.2895  -15.9164 O   0  0  0  0  0  0  0  0  0  0  0  0
   26.5570  -23.4765  -17.0196 C   0  0  0  0  0  0  0  0  0  0  0  0
   27.7128  -22.5178  -17.1277 C   0  0  2  0  0  0  0  0  0  0  0  0
   28.8874  -23.2651  -17.5027 N   0  0  0  0  0  0  0  0  0  0  0  0
   27.9149  -21.7791  -15.8312 C   0  0  0  0  0  0  0  0  0  0  0  0
   28.9430  -22.0649  -15.1966 O   0  0  0  0  0  0  0  0  0  0  0  0
   27.2189  -16.5710  -16.0442 C   0  0  0  0  0  0  0  0  0  0  0  0
   27.6965  -17.8824  -15.5291 C   0  0  0  0  0  0  0  0  0  0  0  0
   26.7535  -18.5424  -14.5343 C   0  0  2  0  0  0  0  0  0  0  0  0
   26.9688  -17.7168  -13.2574 C   0  0  0  0  0  0  0  0  0  0  0  0
   27.2948  -19.9156  -14.2797 C   0  0  2  0  0  0  0  0  0  0  0  0
   27.0266  -20.8347  -15.3513 N   0  0  0  0  0  0  0  0  0  0  0  0
   26.8002  -20.5074  -13.0498 C   0  0  0  0  0  0  0  0  0  0  0  0
   25.6212  -21.0558  -13.0856 O   0  0  0  0  0  0  0  0  0  0  0  0
   27.4204  -20.5880  -11.7802 N   0  0  0  0  0  0  0  0  0  0  0  0
   26.7279  -21.2179  -10.6390 C   0  0  1  0  0  0  0  0  0  0  0  0
   27.7446  -21.2905   -9.5142 C   0  0  0  0  0  0  0  0  0  0  0  0
   27.1905  -20.7432   -8.2572 C   0  0  0  0  0  0  0  0  0  0  0  0
   25.8599  -20.4786   -8.0080 C   0  0  0  0  0  0  0  0  0  0  0  0
   25.7629  -19.9903   -6.7520 N   0  0  0  0  0  0  0  0  0  0  0  0
   26.9872  -19.9339   -6.1903 C   0  0  0  0  0  0  0  0  0  0  0  0
   27.3693  -19.5065   -4.9336 C   0  0  0  0  0  0  0  0  0  0  0  0
   28.7135  -19.5635   -4.6303 C   0  0  0  0  0  0  0  0  0  0  0  0
   29.6337  -20.0357   -5.5660 C   0  0  0  0  0  0  0  0  0  0  0  0
   29.2413  -20.4569   -6.8097 C   0  0  0  0  0  0  0  0  0  0  0  0
   27.9018  -20.4053   -7.1256 C   0  0  0  0  0  0  0  0  0  0  0  0
   25.6013  -20.3562  -10.2241 C   0  0  0  0  0  0  0  0  0  0  0  0
   25.6013  -19.1110  -10.3909 O   0  0  0  0  0  0  0  0  0  0  0  0
   24.4798  -20.9275   -9.6194 O   0  0  0  0  0  0  0  0  0  0  0  0
  2  1  1  0
  2  3  1  0
  3  4  1  1
  5  6  2  0
  5  3  1  0
  8  7  1  0
  8  9  1  0
  9 11  1  0
  9 10  1  1
 11 12  1  6
 12  5  1  0
 13 11  1  0
 14 13  2  0
 15 13  1  0
 16 27  1  0
 16 15  1  0
 16 17  1  1
 18 17  1  0
 18 19  2  0
 20 19  1  0
 21 20  1  0
 22 21  2  0
 23 22  1  0
 24 23  2  0
 24 25  1  0
 25 26  2  0
 26 21  1  0
 26 18  1  0
 27 29  1  0
 28 27  2  0
M  END
$$$$
