SIW.pdb
     RDKit          3D

 29 30  0  0  1  0  0  0  0  0999 V2000
   26.9020  -19.2019  -16.2125 O   0  0  0  0  0  0  0  0  0  0  0  0
   28.1997  -19.1078  -15.7231 C   0  0  0  0  0  0  0  0  0  0  0  0
   28.5751  -20.4584  -15.1739 C   0  0  2  0  0  0  0  0  0  0  0  0
   28.6766  -21.3829  -16.2755 N   0  0  0  0  0  0  0  0  0  0  0  0
   27.5666  -20.9176  -14.1543 C   0  0  0  0  0  0  0  0  0  0  0  0
   26.7892  -21.8127  -14.5228 O   0  0  0  0  0  0  0  0  0  0  0  0
   29.0421  -20.3101   -9.1591 C   0  0  0  0  0  0  0  0  0  0  0  0
   28.2158  -21.0277  -10.1670 C   0  0  0  0  0  0  0  0  0  0  0  0
   26.9014  -20.3383  -10.5007 C   0  0  2  0  0  0  0  0  0  0  0  0
   25.9135  -20.9909   -9.5227 C   0  0  0  0  0  0  0  0  0  0  0  0
   26.5265  -20.7801  -11.8819 C   0  0  2  0  0  0  0  0  0  0  0  0
   27.4875  -20.3928  -12.8778 N   0  0  0  0  0  0  0  0  0  0  0  0
   25.2252  -20.2954  -12.3050 C   0  0  0  0  0  0  0  0  0  0  0  0
   24.9944  -19.0216  -12.1772 O   0  0  0  0  0  0  0  0  0  0  0  0
   24.1365  -21.0124  -12.8560 N   0  0  0  0  0  0  0  0  0  0  0  0
   22.8916  -20.3190  -13.2408 C   0  0  1  0  0  0  0  0  0  0  0  0
   22.7439  -20.5137  -14.7390 C   0  0  0  0  0  0  0  0  0  0  0  0
   21.5112  -19.8702  -15.2423 C   0  0  0  0  0  0  0  0  0  0  0  0
   21.1315  -18.5635  -15.0169 C   0  0  0  0  0  0  0  0  0  0  0  0
   19.9506  -18.3618  -15.6415 N   0  0  0  0  0  0  0  0  0  0  0  0
   19.5630  -19.4961  -16.2585 C   0  0  0  0  0  0  0  0  0  0  0  0
   18.4346  -19.7571  -17.0111 C   0  0  0  0  0  0  0  0  0  0  0  0
   18.3011  -21.0295  -17.5263 C   0  0  0  0  0  0  0  0  0  0  0  0
   19.2749  -21.9988  -17.2869 C   0  0  0  0  0  0  0  0  0  0  0  0
   20.3902  -21.7268  -16.5382 C   0  0  0  0  0  0  0  0  0  0  0  0
   20.5359  -20.4600  -16.0177 C   0  0  0  0  0  0  0  0  0  0  0  0
   21.7515  -20.9577  -12.5506 C   0  0  0  0  0  0  0  0  0  0  0  0
   21.7314  -22.1799  -12.2604 O   0  0  0  0  0  0  0  0  0  0  0  0
   20.6396  -20.1907  -12.1968 O   0  0  0  0  0  0  0  0  0  0  0  0
  2  1  1  0
  2  3  1  0
  3  4  1  6
  5  6  2  0
  5  3  1  0
  8  7  1  0
  8  9  1  0
  9 11  1  0
  9 10  1  1
 11 12  1  6
 12  5  1  0
 13 11  1  0
 14 13  2  0
 15 13  1  0
 16 27  1  0
 16 15  1  0
 16 17  1  6
 18 17  1  0
 18 19  2  0
 20 19  1  0
 21 20  1  0
 22 21  2  0
 23 22  1  0
 24 23  2  0
 24 25  1  0
 25 26  2  0
 26 21  1  0
 26 18  1  0
 27 29  1  0
 28 27  2  0
M  END
$$$$
