SIW.pdb
     RDKit          3D

 29 30  0  0  1  0  0  0  0  0999 V2000
   29.1107  -23.9412  -15.6441 O   0  0  0  0  0  0  0  0  0  0  0  0
   29.2635  -22.5596  -15.6261 C   0  0  0  0  0  0  0  0  0  0  0  0
   28.0890  -21.9648  -16.3564 C   0  0  2  0  0  0  0  0  0  0  0  0
   28.5822  -21.2788  -17.5246 N   0  0  0  0  0  0  0  0  0  0  0  0
   27.3143  -21.0403  -15.4550 C   0  0  0  0  0  0  0  0  0  0  0  0
   27.6395  -19.8428  -15.4948 O   0  0  0  0  0  0  0  0  0  0  0  0
   22.7180  -19.7014  -16.3060 C   0  0  0  0  0  0  0  0  0  0  0  0
   24.0470  -19.8067  -15.6455 C   0  0  0  0  0  0  0  0  0  0  0  0
   24.0332  -20.5824  -14.3369 C   0  0  2  0  0  0  0  0  0  0  0  0
   23.2368  -19.6619  -13.4005 C   0  0  0  0  0  0  0  0  0  0  0  0
   25.4472  -20.6126  -13.8439 C   0  0  2  0  0  0  0  0  0  0  0  0
   26.2975  -21.4702  -14.6228 N   0  0  0  0  0  0  0  0  0  0  0  0
   25.5607  -21.0148  -12.4537 C   0  0  0  0  0  0  0  0  0  0  0  0
   25.0891  -22.1837  -12.1321 O   0  0  0  0  0  0  0  0  0  0  0  0
   26.1255  -20.3154  -11.3606 N   0  0  0  0  0  0  0  0  0  0  0  0
   26.0345  -20.8545   -9.9896 C   0  0  1  0  0  0  0  0  0  0  0  0
   27.0992  -20.1363   -9.1803 C   0  0  0  0  0  0  0  0  0  0  0  0
   27.0398  -20.5256   -7.7549 C   0  0  0  0  0  0  0  0  0  0  0  0
   26.2111  -21.4858   -7.2130 C   0  0  0  0  0  0  0  0  0  0  0  0
   26.4576  -21.5444   -5.8858 N   0  0  0  0  0  0  0  0  0  0  0  0
   27.4162  -20.6535   -5.5617 C   0  0  0  0  0  0  0  0  0  0  0  0
   27.9834  -20.3656   -4.3356 C   0  0  0  0  0  0  0  0  0  0  0  0
   28.9583  -19.3904   -4.3058 C   0  0  0  0  0  0  0  0  0  0  0  0
   29.3422  -18.7334   -5.4746 C   0  0  0  0  0  0  0  0  0  0  0  0
   28.7712  -19.0286   -6.6850 C   0  0  0  0  0  0  0  0  0  0  0  0
   27.7964  -20.0006   -6.7290 C   0  0  0  0  0  0  0  0  0  0  0  0
   24.7021  -20.5366   -9.4346 C   0  0  0  0  0  0  0  0  0  0  0  0
   24.0784  -19.4854   -9.7251 O   0  0  0  0  0  0  0  0  0  0  0  0
   24.0917  -21.4267   -8.5486 O   0  0  0  0  0  0  0  0  0  0  0  0
  2  1  1  0
  2  3  1  0
  3  4  1  6
  5  6  2  0
  5  3  1  0
  8  7  1  0
  8  9  1  0
  9 11  1  0
  9 10  1  1
 11 12  1  6
 12  5  1  0
 13 11  1  0
 14 13  2  0
 15 13  1  0
 16 27  1  0
 16 15  1  0
 16 17  1  1
 18 17  1  0
 18 19  2  0
 20 19  1  0
 21 20  1  0
 22 21  2  0
 23 22  1  0
 24 23  2  0
 24 25  1  0
 25 26  2  0
 26 21  1  0
 26 18  1  0
 27 29  1  0
 28 27  2  0
M  END
$$$$
