SIW.pdb
     RDKit          3D

 29 30  0  0  1  0  0  0  0  0999 V2000
   36.8563  -27.7980  -16.1896 O   0  0  0  0  0  0  0  0  0  0  0  0
   35.6693  -27.8505  -16.9112 C   0  0  0  0  0  0  0  0  0  0  0  0
   35.9306  -28.6596  -18.1537 C   0  0  2  0  0  0  0  0  0  0  0  0
   36.7766  -27.8862  -19.0281 N   0  0  0  0  0  0  0  0  0  0  0  0
   34.6366  -29.0380  -18.8245 C   0  0  0  0  0  0  0  0  0  0  0  0
   34.2215  -28.2503  -19.6897 O   0  0  0  0  0  0  0  0  0  0  0  0
   33.5658  -33.9919  -20.4307 C   0  0  0  0  0  0  0  0  0  0  0  0
   33.4832  -32.5140  -20.2811 C   0  0  0  0  0  0  0  0  0  0  0  0
   32.5030  -32.0490  -19.2146 C   0  0  2  0  0  0  0  0  0  0  0  0
   31.1372  -32.3076  -19.8674 C   0  0  0  0  0  0  0  0  0  0  0  0
   32.6726  -30.5655  -19.0968 C   0  0  2  0  0  0  0  0  0  0  0  0
   33.9314  -30.1865  -18.5163 N   0  0  0  0  0  0  0  0  0  0  0  0
   31.6176  -29.9273  -18.3306 C   0  0  0  0  0  0  0  0  0  0  0  0
   31.4724  -30.3001  -17.0928 O   0  0  0  0  0  0  0  0  0  0  0  0
   30.6971  -28.9292  -18.7297 N   0  0  0  0  0  0  0  0  0  0  0  0
   29.6885  -28.4096  -17.7856 C   0  0  1  0  0  0  0  0  0  0  0  0
   29.0243  -27.2342  -18.4795 C   0  0  0  0  0  0  0  0  0  0  0  0
   28.0542  -26.5652  -17.5861 C   0  0  0  0  0  0  0  0  0  0  0  0
   28.2935  -25.4326  -16.8361 C   0  0  0  0  0  0  0  0  0  0  0  0
   27.1626  -25.1383  -16.1580 N   0  0  0  0  0  0  0  0  0  0  0  0
   26.2085  -26.0451  -16.4497 C   0  0  0  0  0  0  0  0  0  0  0  0
   24.9076  -26.1431  -15.9961 C   0  0  0  0  0  0  0  0  0  0  0  0
   24.1508  -27.1923  -16.4742 C   0  0  0  0  0  0  0  0  0  0  0  0
   24.6935  -28.1062  -17.3774 C   0  0  0  0  0  0  0  0  0  0  0  0
   25.9861  -27.9976  -17.8197 C   0  0  0  0  0  0  0  0  0  0  0  0
   26.7529  -26.9543  -17.3500 C   0  0  0  0  0  0  0  0  0  0  0  0
   28.6803  -29.4600  -17.5317 C   0  0  0  0  0  0  0  0  0  0  0  0
   28.1687  -30.1468  -18.4509 O   0  0  0  0  0  0  0  0  0  0  0  0
   28.2640  -29.7173  -16.2240 O   0  0  0  0  0  0  0  0  0  0  0  0
  2  1  1  0
  2  3  1  0
  3  4  1  6
  5  6  2  0
  5  3  1  0
  8  7  1  0
  8  9  1  0
  9 11  1  0
  9 10  1  6
 11 12  1  1
 12  5  1  0
 13 11  1  0
 14 13  2  0
 15 13  1  0
 16 27  1  0
 16 15  1  0
 16 17  1  6
 18 17  1  0
 18 19  2  0
 20 19  1  0
 21 20  1  0
 22 21  2  0
 23 22  1  0
 24 23  2  0
 24 25  1  0
 25 26  2  0
 26 21  1  0
 26 18  1  0
 27 29  1  0
 28 27  2  0
M  END
$$$$
