SIW.pdb
     RDKit          3D

 29 30  0  0  1  0  0  0  0  0999 V2000
   29.6109  -23.8575  -16.1110 O   0  0  0  0  0  0  0  0  0  0  0  0
   29.2732  -22.7234  -15.3814 C   0  0  0  0  0  0  0  0  0  0  0  0
   28.2306  -21.9737  -16.1672 C   0  0  2  0  0  0  0  0  0  0  0  0
   28.8935  -21.2489  -17.2226 N   0  0  0  0  0  0  0  0  0  0  0  0
   27.4464  -21.0539  -15.2692 C   0  0  0  0  0  0  0  0  0  0  0  0
   27.9174  -19.9161  -15.1109 O   0  0  0  0  0  0  0  0  0  0  0  0
   23.0459  -20.1959  -16.5930 C   0  0  0  0  0  0  0  0  0  0  0  0
   24.0062  -19.6987  -15.5711 C   0  0  0  0  0  0  0  0  0  0  0  0
   24.0265  -20.5129  -14.2862 C   0  0  2  0  0  0  0  0  0  0  0  0
   23.2624  -19.6172  -13.3002 C   0  0  0  0  0  0  0  0  0  0  0  0
   25.4541  -20.5636  -13.8358 C   0  0  2  0  0  0  0  0  0  0  0  0
   26.2702  -21.4260  -14.6454 N   0  0  0  0  0  0  0  0  0  0  0  0
   25.6039  -20.9768  -12.4523 C   0  0  0  0  0  0  0  0  0  0  0  0
   25.1606  -22.1573  -12.1326 O   0  0  0  0  0  0  0  0  0  0  0  0
   26.1785  -20.2775  -11.3642 N   0  0  0  0  0  0  0  0  0  0  0  0
   26.0402  -20.7814   -9.9838 C   0  0  1  0  0  0  0  0  0  0  0  0
   26.9226  -19.8984   -9.1201 C   0  0  0  0  0  0  0  0  0  0  0  0
   26.8026  -20.2583   -7.6908 C   0  0  0  0  0  0  0  0  0  0  0  0
   25.8672  -21.1149   -7.1487 C   0  0  0  0  0  0  0  0  0  0  0  0
   26.0885  -21.1809   -5.8175 N   0  0  0  0  0  0  0  0  0  0  0  0
   27.1341  -20.3949   -5.4909 C   0  0  0  0  0  0  0  0  0  0  0  0
   27.7133  -20.1528   -4.2605 C   0  0  0  0  0  0  0  0  0  0  0  0
   28.7881  -19.2890   -4.2291 C   0  0  0  0  0  0  0  0  0  0  0  0
   29.2565  -18.6945   -5.4005 C   0  0  0  0  0  0  0  0  0  0  0  0
   28.6726  -18.9433   -6.6152 C   0  0  0  0  0  0  0  0  0  0  0  0
   27.5984  -19.8040   -6.6609 C   0  0  0  0  0  0  0  0  0  0  0  0
   24.6334  -20.6336   -9.5558 C   0  0  0  0  0  0  0  0  0  0  0  0
   23.9409  -19.6233   -9.8353 O   0  0  0  0  0  0  0  0  0  0  0  0
   24.0277  -21.6461   -8.8091 O   0  0  0  0  0  0  0  0  0  0  0  0
  2  1  1  0
  2  3  1  0
  3  4  1  6
  5  6  2  0
  5  3  1  0
  8  7  1  0
  8  9  1  0
  9 11  1  0
  9 10  1  1
 11 12  1  6
 12  5  1  0
 13 11  1  0
 14 13  2  0
 15 13  1  0
 16 27  1  0
 16 15  1  0
 16 17  1  1
 18 17  1  0
 18 19  2  0
 20 19  1  0
 21 20  1  0
 22 21  2  0
 23 22  1  0
 24 23  2  0
 24 25  1  0
 25 26  2  0
 26 21  1  0
 26 18  1  0
 27 29  1  0
 28 27  2  0
M  END
$$$$
