PQI.pdb
     RDKit          3D

 25 25  0  0  1  0  0  0  0  0999 V2000
    8.2972  -15.3861   19.1972 N   0  0  0  0  0  0  0  0  0  0  0  0
    8.4550  -14.7620   17.8971 C   0  0  0  0  0  0  0  0  0  0  0  0
    7.6401  -13.4957   17.9097 C   0  0  0  0  0  0  0  0  0  0  0  0
    7.0712  -13.4503   19.3341 C   0  0  0  0  0  0  0  0  0  0  0  0
    8.1267  -14.2560   20.0719 C   0  0  1  0  0  0  0  0  0  0  0  0
    7.6640  -14.6592   21.4244 C   0  0  0  0  0  0  0  0  0  0  0  0
    7.4463  -13.7421   22.2583 O   0  0  0  0  0  0  0  0  0  0  0  0
    6.7094  -20.5646   23.0914 N   0  0  0  0  0  0  0  0  0  0  0  0
    6.4440  -19.9571   24.3348 C   0  0  0  0  0  0  0  0  0  0  0  0
    6.1440  -20.6407   25.3298 O   0  0  0  0  0  0  0  0  0  0  0  0
    6.5183  -18.4654   24.4847 C   0  0  0  0  0  0  0  0  0  0  0  0
    6.8620  -17.8255   23.1879 C   0  0  0  0  0  0  0  0  0  0  0  0
    6.9639  -16.3270   23.1852 C   0  0  2  0  0  0  0  0  0  0  0  0
    7.4593  -15.9883   21.8170 N   0  0  0  0  0  0  0  0  0  0  0  0
    7.8785  -15.7540   24.1822 C   0  0  0  0  0  0  0  0  0  0  0  0
    9.1495  -15.7997   23.9991 O   0  0  0  0  0  0  0  0  0  0  0  0
    6.0081  -11.5941   26.7605 C   0  0  0  0  0  0  0  0  0  0  0  0
    6.9384  -12.5740   26.0955 C   0  0  0  0  0  0  0  0  0  0  0  0
    7.6561  -13.4554   27.0922 C   0  0  2  0  0  0  0  0  0  0  0  0
    8.6290  -12.7150   27.9496 C   0  0  0  0  0  0  0  0  0  0  0  0
    8.4464  -14.4757   26.2560 C   0  0  2  0  0  0  0  0  0  0  0  0
    7.4773  -15.1202   25.3815 N   0  0  0  0  0  0  0  0  0  0  0  0
    9.0777  -15.4791   27.1275 C   0  0  0  0  0  0  0  0  0  0  0  0
    8.4310  -16.4924   27.5300 O   0  0  0  0  0  0  0  0  0  0  0  0
   10.3932  -15.3226   27.5172 O   0  0  0  0  0  0  0  0  0  0  0  0
  1  2  1  0
  1  5  1  0
  2  3  1  0
  3  4  1  0
  5  4  1  0
  5  6  1  1
  6 14  1  0
  7  6  2  0
  9 11  1  0
  9  8  1  0
 10  9  2  0
 13 12  1  6
 12 11  1  0
 14 13  1  0
 15 16  2  0
 15 13  1  0
 18 17  1  0
 18 19  1  0
 19 21  1  0
 19 20  1  6
 21 22  1  6
 21 23  1  0
 22 15  1  0
 23 25  1  0
 24 23  2  0
M  END
$$$$
