PQI.pdb
     RDKit          3D

 25 25  0  0  1  0  0  0  0  0999 V2000
    8.9441  -15.1169   18.6728 N   0  0  0  0  0  0  0  0  0  0  0  0
    9.1052  -14.3894   17.4280 C   0  0  0  0  0  0  0  0  0  0  0  0
    8.0902  -13.2770   17.4284 C   0  0  0  0  0  0  0  0  0  0  0  0
    7.4019  -13.4209   18.7923 C   0  0  0  0  0  0  0  0  0  0  0  0
    8.5111  -14.0912   19.5847 C   0  0  1  0  0  0  0  0  0  0  0  0
    8.0089  -14.6545   20.8640 C   0  0  0  0  0  0  0  0  0  0  0  0
    7.4928  -13.8531   21.6856 O   0  0  0  0  0  0  0  0  0  0  0  0
    5.7940  -19.7200   22.9849 N   0  0  0  0  0  0  0  0  0  0  0  0
    6.4975  -19.1436   24.0612 C   0  0  0  0  0  0  0  0  0  0  0  0
    5.9733  -19.0363   25.1840 O   0  0  0  0  0  0  0  0  0  0  0  0
    7.9008  -18.6449   23.8735 C   0  0  0  0  0  0  0  0  0  0  0  0
    8.0380  -17.9463   22.5688 C   0  0  0  0  0  0  0  0  0  0  0  0
    7.6044  -16.5088   22.5284 C   0  0  2  0  0  0  0  0  0  0  0  0
    8.0779  -16.0125   21.2011 N   0  0  0  0  0  0  0  0  0  0  0  0
    8.1573  -15.6520   23.5861 C   0  0  0  0  0  0  0  0  0  0  0  0
    9.4211  -15.4274   23.6453 O   0  0  0  0  0  0  0  0  0  0  0  0
    6.7571  -10.9667   27.2668 C   0  0  0  0  0  0  0  0  0  0  0  0
    7.6559  -12.1036   26.8577 C   0  0  0  0  0  0  0  0  0  0  0  0
    6.9559  -13.0977   25.9594 C   0  0  2  0  0  0  0  0  0  0  0  0
    5.8375  -13.8235   26.6320 C   0  0  0  0  0  0  0  0  0  0  0  0
    8.0232  -14.1341   25.5700 C   0  0  2  0  0  0  0  0  0  0  0  0
    7.3966  -15.0134   24.5934 N   0  0  0  0  0  0  0  0  0  0  0  0
    8.4409  -14.9121   26.7469 C   0  0  0  0  0  0  0  0  0  0  0  0
    7.9565  -16.0613   26.9744 O   0  0  0  0  0  0  0  0  0  0  0  0
    9.3738  -14.3905   27.6213 O   0  0  0  0  0  0  0  0  0  0  0  0
  1  2  1  0
  1  5  1  0
  2  3  1  0
  3  4  1  0
  5  4  1  0
  5  6  1  1
  6 14  1  0
  7  6  2  0
  9 11  1  0
  9  8  1  0
 10  9  2  0
 13 12  1  1
 12 11  1  0
 14 13  1  0
 15 16  2  0
 15 13  1  0
 18 17  1  0
 18 19  1  0
 19 21  1  0
 19 20  1  1
 21 22  1  6
 21 23  1  0
 22 15  1  0
 23 25  1  0
 24 23  2  0
M  END
$$$$
