PQI.pdb
     RDKit          3D

 25 25  0  0  1  0  0  0  0  0999 V2000
    7.6319  -15.2711   18.7154 N   0  0  0  0  0  0  0  0  0  0  0  0
    8.0151  -14.4286   17.5982 C   0  0  0  0  0  0  0  0  0  0  0  0
    8.0694  -13.0124   18.1072 C   0  0  0  0  0  0  0  0  0  0  0  0
    7.7405  -13.1554   19.5992 C   0  0  0  0  0  0  0  0  0  0  0  0
    8.2035  -14.5816   19.8420 C   0  0  1  0  0  0  0  0  0  0  0  0
    7.7006  -15.1096   21.1360 C   0  0  0  0  0  0  0  0  0  0  0  0
    6.5126  -14.8371   21.4492 O   0  0  0  0  0  0  0  0  0  0  0  0
    4.9658  -19.4401   22.4625 N   0  0  0  0  0  0  0  0  0  0  0  0
    6.2143  -19.2994   23.1005 C   0  0  0  0  0  0  0  0  0  0  0  0
    6.3885  -19.7074   24.2626 O   0  0  0  0  0  0  0  0  0  0  0  0
    7.3650  -18.6512   22.3873 C   0  0  0  0  0  0  0  0  0  0  0  0
    8.1713  -17.8328   23.3303 C   0  0  0  0  0  0  0  0  0  0  0  0
    7.9155  -16.3528   23.3224 C   0  0  2  0  0  0  0  0  0  0  0  0
    8.4676  -15.8848   22.0154 N   0  0  0  0  0  0  0  0  0  0  0  0
    8.5502  -15.5959   24.4100 C   0  0  0  0  0  0  0  0  0  0  0  0
    9.8017  -15.3096   24.3573 O   0  0  0  0  0  0  0  0  0  0  0  0
    5.7733  -11.8128   26.6669 C   0  0  0  0  0  0  0  0  0  0  0  0
    6.8930  -12.6868   26.1667 C   0  0  0  0  0  0  0  0  0  0  0  0
    7.5421  -13.4835   27.2755 C   0  0  2  0  0  0  0  0  0  0  0  0
    8.2454  -12.6364   28.2843 C   0  0  0  0  0  0  0  0  0  0  0  0
    8.5939  -14.3728   26.5917 C   0  0  2  0  0  0  0  0  0  0  0  0
    7.8846  -15.1228   25.5652 N   0  0  0  0  0  0  0  0  0  0  0  0
    9.1952  -15.3007   27.5624 C   0  0  0  0  0  0  0  0  0  0  0  0
    8.6808  -16.4383   27.7819 O   0  0  0  0  0  0  0  0  0  0  0  0
   10.3365  -14.9351   28.2485 O   0  0  0  0  0  0  0  0  0  0  0  0
  1  2  1  0
  1  5  1  0
  2  3  1  0
  3  4  1  0
  5  4  1  0
  5  6  1  1
  6 14  1  0
  7  6  2  0
  9 11  1  0
  9  8  1  0
 10  9  2  0
 13 12  1  1
 12 11  1  0
 14 13  1  0
 15 16  2  0
 15 13  1  0
 18 17  1  0
 18 19  1  0
 19 21  1  0
 19 20  1  1
 21 22  1  6
 21 23  1  0
 22 15  1  0
 23 25  1  0
 24 23  2  0
M  END
$$$$
