PQI.pdb
     RDKit          3D

 25 25  0  0  1  0  0  0  0  0999 V2000
    7.2163  -14.9233   18.5581 N   0  0  0  0  0  0  0  0  0  0  0  0
    7.6488  -14.0010   17.5252 C   0  0  0  0  0  0  0  0  0  0  0  0
    8.1157  -12.7469   18.2157 C   0  0  0  0  0  0  0  0  0  0  0  0
    7.9559  -13.0779   19.7055 C   0  0  0  0  0  0  0  0  0  0  0  0
    8.0799  -14.5912   19.6604 C   0  0  1  0  0  0  0  0  0  0  0  0
    7.6326  -15.2171   20.9309 C   0  0  0  0  0  0  0  0  0  0  0  0
    6.4303  -15.0535   21.2643 O   0  0  0  0  0  0  0  0  0  0  0  0
    6.4751  -20.1486   23.0788 N   0  0  0  0  0  0  0  0  0  0  0  0
    6.8619  -19.5050   24.2712 C   0  0  0  0  0  0  0  0  0  0  0  0
    6.1652  -19.5885   25.2983 O   0  0  0  0  0  0  0  0  0  0  0  0
    8.1286  -18.7016   24.3263 C   0  0  0  0  0  0  0  0  0  0  0  0
    8.3284  -17.9515   23.0588 C   0  0  0  0  0  0  0  0  0  0  0  0
    7.9834  -16.4899   23.0825 C   0  0  2  0  0  0  0  0  0  0  0  0
    8.4665  -15.9702   21.7676 N   0  0  0  0  0  0  0  0  0  0  0  0
    8.6039  -15.7115   24.1632 C   0  0  0  0  0  0  0  0  0  0  0  0
    9.8654  -15.4679   24.1460 O   0  0  0  0  0  0  0  0  0  0  0  0
    6.0929  -11.6802   26.2317 C   0  0  0  0  0  0  0  0  0  0  0  0
    7.1648  -12.6541   25.8191 C   0  0  0  0  0  0  0  0  0  0  0  0
    7.6443  -13.5065   26.9718 C   0  0  2  0  0  0  0  0  0  0  0  0
    8.3752  -12.7338   28.0200 C   0  0  0  0  0  0  0  0  0  0  0  0
    8.6272  -14.5202   26.3626 C   0  0  2  0  0  0  0  0  0  0  0  0
    7.9137  -15.1721   25.2739 N   0  0  0  0  0  0  0  0  0  0  0  0
    9.0270  -15.5189   27.3665 C   0  0  0  0  0  0  0  0  0  0  0  0
    8.3210  -16.5505   27.5771 O   0  0  0  0  0  0  0  0  0  0  0  0
   10.1867  -15.3378   28.0939 O   0  0  0  0  0  0  0  0  0  0  0  0
  1  2  1  0
  1  5  1  0
  2  3  1  0
  3  4  1  0
  5  4  1  0
  5  6  1  1
  6 14  1  0
  7  6  2  0
  9 11  1  0
  9  8  1  0
 10  9  2  0
 13 12  1  1
 12 11  1  0
 14 13  1  0
 15 16  2  0
 15 13  1  0
 18 17  1  0
 18 19  1  0
 19 21  1  0
 19 20  1  1
 21 22  1  6
 21 23  1  0
 22 15  1  0
 23 25  1  0
 24 23  2  0
M  END
$$$$
