PQI.pdb
     RDKit          3D

 25 25  0  0  1  0  0  0  0  0999 V2000
    8.8132  -14.8312   18.8747 N   0  0  0  0  0  0  0  0  0  0  0  0
    8.7653  -14.0558   17.6495 C   0  0  0  0  0  0  0  0  0  0  0  0
    7.7260  -12.9833   17.8424 C   0  0  0  0  0  0  0  0  0  0  0  0
    7.2514  -13.2000   19.2855 C   0  0  0  0  0  0  0  0  0  0  0  0
    8.4865  -13.8547   19.8801 C   0  0  1  0  0  0  0  0  0  0  0  0
    8.1970  -14.4802   21.1957 C   0  0  0  0  0  0  0  0  0  0  0  0
    7.6701  -13.7538   22.0780 O   0  0  0  0  0  0  0  0  0  0  0  0
    8.7435  -20.9373   21.6670 N   0  0  0  0  0  0  0  0  0  0  0  0
    9.1519  -19.6793   21.1809 C   0  0  0  0  0  0  0  0  0  0  0  0
   10.2571  -19.5350   20.6287 O   0  0  0  0  0  0  0  0  0  0  0  0
    8.2573  -18.4822   21.3202 C   0  0  0  0  0  0  0  0  0  0  0  0
    8.3976  -17.8782   22.6709 C   0  0  0  0  0  0  0  0  0  0  0  0
    8.0383  -16.4252   22.7970 C   0  0  2  0  0  0  0  0  0  0  0  0
    8.4753  -15.8183   21.5036 N   0  0  0  0  0  0  0  0  0  0  0  0
    8.6834  -15.7086   23.9055 C   0  0  0  0  0  0  0  0  0  0  0  0
    9.9176  -15.3606   23.8227 O   0  0  0  0  0  0  0  0  0  0  0  0
    6.0603  -11.8746   25.8995 C   0  0  0  0  0  0  0  0  0  0  0  0
    7.1622  -12.8263   25.5150 C   0  0  0  0  0  0  0  0  0  0  0  0
    7.7122  -13.5822   26.7031 C   0  0  2  0  0  0  0  0  0  0  0  0
    8.4124  -12.7093   27.6920 C   0  0  0  0  0  0  0  0  0  0  0  0
    8.7445  -14.5679   26.1310 C   0  0  2  0  0  0  0  0  0  0  0  0
    8.0463  -15.3405   25.1137 N   0  0  0  0  0  0  0  0  0  0  0  0
    9.2414  -15.4652   27.1860 C   0  0  0  0  0  0  0  0  0  0  0  0
    8.7148  -16.6025   27.3762 O   0  0  0  0  0  0  0  0  0  0  0  0
   10.2964  -15.0706   27.9848 O   0  0  0  0  0  0  0  0  0  0  0  0
  1  2  1  0
  1  5  1  0
  2  3  1  0
  3  4  1  0
  5  4  1  0
  5  6  1  1
  6 14  1  0
  7  6  2  0
  9 11  1  0
  9  8  1  0
 10  9  2  0
 13 12  1  6
 12 11  1  0
 14 13  1  0
 15 16  2  0
 15 13  1  0
 18 17  1  0
 18 19  1  0
 19 21  1  0
 19 20  1  1
 21 22  1  6
 21 23  1  0
 22 15  1  0
 23 25  1  0
 24 23  2  0
M  END
$$$$
