PQI.pdb
     RDKit          3D

 25 25  0  0  1  0  0  0  0  0999 V2000
    7.4913  -15.4297   18.8772 N   0  0  0  0  0  0  0  0  0  0  0  0
    7.9203  -14.7697   17.6586 C   0  0  0  0  0  0  0  0  0  0  0  0
    8.0381  -13.3003   17.9664 C   0  0  0  0  0  0  0  0  0  0  0  0
    7.6938  -13.2187   19.4595 C   0  0  0  0  0  0  0  0  0  0  0  0
    8.0878  -14.6167   19.9040 C   0  0  1  0  0  0  0  0  0  0  0  0
    7.5530  -14.9355   21.2525 C   0  0  0  0  0  0  0  0  0  0  0  0
    6.8001  -14.0837   21.7921 O   0  0  0  0  0  0  0  0  0  0  0  0
    7.2579  -20.6289   23.5030 N   0  0  0  0  0  0  0  0  0  0  0  0
    6.7232  -19.9568   24.6201 C   0  0  0  0  0  0  0  0  0  0  0  0
    6.2768  -20.5891   25.5938 O   0  0  0  0  0  0  0  0  0  0  0  0
    6.6813  -18.4569   24.6579 C   0  0  0  0  0  0  0  0  0  0  0  0
    7.1764  -17.8869   23.3776 C   0  0  0  0  0  0  0  0  0  0  0  0
    7.2504  -16.3891   23.2940 C   0  0  2  0  0  0  0  0  0  0  0  0
    7.8377  -16.1183   21.9472 N   0  0  0  0  0  0  0  0  0  0  0  0
    8.0792  -15.7391   24.3183 C   0  0  0  0  0  0  0  0  0  0  0  0
    9.3594  -15.7306   24.2082 O   0  0  0  0  0  0  0  0  0  0  0  0
    5.7910  -11.6532   26.6284 C   0  0  0  0  0  0  0  0  0  0  0  0
    6.8211  -12.5859   26.0482 C   0  0  0  0  0  0  0  0  0  0  0  0
    7.5771  -13.3456   27.1144 C   0  0  2  0  0  0  0  0  0  0  0  0
    8.4664  -12.4799   27.9449 C   0  0  0  0  0  0  0  0  0  0  0  0
    8.4660  -14.3500   26.3623 C   0  0  2  0  0  0  0  0  0  0  0  0
    7.5815  -15.0841   25.4691 N   0  0  0  0  0  0  0  0  0  0  0  0
    9.1069  -15.2796   27.3058 C   0  0  0  0  0  0  0  0  0  0  0  0
    8.5167  -16.3366   27.6820 O   0  0  0  0  0  0  0  0  0  0  0  0
   10.3692  -15.0045   27.7931 O   0  0  0  0  0  0  0  0  0  0  0  0
  1  2  1  0
  1  5  1  0
  2  3  1  0
  3  4  1  0
  5  4  1  0
  5  6  1  1
  6 14  1  0
  7  6  2  0
  9 11  1  0
  9  8  1  0
 10  9  2  0
 13 12  1  1
 12 11  1  0
 14 13  1  0
 15 16  2  0
 15 13  1  0
 18 17  1  0
 18 19  1  0
 19 21  1  0
 19 20  1  6
 21 22  1  6
 21 23  1  0
 22 15  1  0
 23 25  1  0
 24 23  2  0
M  END
$$$$
