PQI.pdb
     RDKit          3D

 25 25  0  0  1  0  0  0  0  0999 V2000
    8.2692  -15.4178   19.2488 N   0  0  0  0  0  0  0  0  0  0  0  0
    8.4231  -14.8011   17.9446 C   0  0  0  0  0  0  0  0  0  0  0  0
    7.6232  -13.5253   17.9588 C   0  0  0  0  0  0  0  0  0  0  0  0
    7.0673  -13.4671   19.3878 C   0  0  0  0  0  0  0  0  0  0  0  0
    8.1196  -14.2821   20.1200 C   0  0  1  0  0  0  0  0  0  0  0  0
    7.6639  -14.6740   21.4782 C   0  0  0  0  0  0  0  0  0  0  0  0
    7.4208  -13.7489   22.2959 O   0  0  0  0  0  0  0  0  0  0  0  0
    6.8021  -20.5709   23.2232 N   0  0  0  0  0  0  0  0  0  0  0  0
    6.3937  -19.9449   24.4177 C   0  0  0  0  0  0  0  0  0  0  0  0
    5.9859  -20.6141   25.3836 O   0  0  0  0  0  0  0  0  0  0  0  0
    6.4429  -18.4505   24.5494 C   0  0  0  0  0  0  0  0  0  0  0  0
    6.8853  -17.8269   23.2748 C   0  0  0  0  0  0  0  0  0  0  0  0
    6.9962  -16.3291   23.2635 C   0  0  2  0  0  0  0  0  0  0  0  0
    7.4923  -16.0011   21.8929 N   0  0  0  0  0  0  0  0  0  0  0  0
    7.9151  -15.7559   24.2563 C   0  0  0  0  0  0  0  0  0  0  0  0
    9.1863  -15.8551   24.0976 O   0  0  0  0  0  0  0  0  0  0  0  0
    6.0892  -11.5110   26.7217 C   0  0  0  0  0  0  0  0  0  0  0  0
    7.0329  -12.4971   26.0855 C   0  0  0  0  0  0  0  0  0  0  0  0
    7.7255  -13.3726   27.1049 C   0  0  2  0  0  0  0  0  0  0  0  0
    8.7109  -12.6359   27.9512 C   0  0  0  0  0  0  0  0  0  0  0  0
    8.4966  -14.4285   26.2952 C   0  0  2  0  0  0  0  0  0  0  0  0
    7.5184  -15.0660   25.4258 N   0  0  0  0  0  0  0  0  0  0  0  0
    9.0960  -15.4298   27.1913 C   0  0  0  0  0  0  0  0  0  0  0  0
    8.4493  -16.4627   27.5403 O   0  0  0  0  0  0  0  0  0  0  0  0
   10.3812  -15.2497   27.6633 O   0  0  0  0  0  0  0  0  0  0  0  0
  1  2  1  0
  1  5  1  0
  2  3  1  0
  3  4  1  0
  5  4  1  0
  5  6  1  1
  6 14  1  0
  7  6  2  0
  9 11  1  0
  9  8  1  0
 10  9  2  0
 13 12  1  6
 12 11  1  0
 14 13  1  0
 15 16  2  0
 15 13  1  0
 18 17  1  0
 18 19  1  0
 19 21  1  0
 19 20  1  6
 21 22  1  6
 21 23  1  0
 22 15  1  0
 23 25  1  0
 24 23  2  0
M  END
$$$$
