PQI.pdb
     RDKit          3D

 25 25  0  0  1  0  0  0  0  0999 V2000
    9.0362  -14.6933   18.5211 N   0  0  0  0  0  0  0  0  0  0  0  0
    8.8907  -13.9339   17.2936 C   0  0  0  0  0  0  0  0  0  0  0  0
    7.6381  -13.1087   17.4269 C   0  0  0  0  0  0  0  0  0  0  0  0
    7.1431  -13.4355   18.8421 C   0  0  0  0  0  0  0  0  0  0  0  0
    8.4551  -13.8184   19.5051 C   0  0  1  0  0  0  0  0  0  0  0  0
    8.2345  -14.5041   20.8040 C   0  0  0  0  0  0  0  0  0  0  0  0
    7.5534  -13.8964   21.6703 O   0  0  0  0  0  0  0  0  0  0  0  0
   10.9701  -20.1856   24.1480 N   0  0  0  0  0  0  0  0  0  0  0  0
    9.8489  -19.8830   23.3499 C   0  0  0  0  0  0  0  0  0  0  0  0
    9.4695  -20.6625   22.4579 O   0  0  0  0  0  0  0  0  0  0  0  0
    9.0859  -18.6078   23.5611 C   0  0  0  0  0  0  0  0  0  0  0  0
    9.1278  -17.7641   22.3382 C   0  0  0  0  0  0  0  0  0  0  0  0
    8.4131  -16.4449   22.4083 C   0  0  2  0  0  0  0  0  0  0  0  0
    8.7373  -15.7746   21.1130 N   0  0  0  0  0  0  0  0  0  0  0  0
    8.8139  -15.5671   23.5162 C   0  0  0  0  0  0  0  0  0  0  0  0
    9.9714  -15.0094   23.5165 O   0  0  0  0  0  0  0  0  0  0  0  0
    6.7138  -11.0628   26.8022 C   0  0  0  0  0  0  0  0  0  0  0  0
    7.6985  -12.1969   26.6931 C   0  0  0  0  0  0  0  0  0  0  0  0
    7.2459  -13.2623   25.7209 C   0  0  2  0  0  0  0  0  0  0  0  0
    6.0499  -14.0251   26.1877 C   0  0  0  0  0  0  0  0  0  0  0  0
    8.4190  -14.2499   25.6058 C   0  0  2  0  0  0  0  0  0  0  0  0
    8.0084  -15.2554   24.6365 N   0  0  0  0  0  0  0  0  0  0  0  0
    8.6860  -14.8878   26.9045 C   0  0  0  0  0  0  0  0  0  0  0  0
    9.2013  -14.2322   27.8594 O   0  0  0  0  0  0  0  0  0  0  0  0
    8.3736  -16.2194   27.0947 O   0  0  0  0  0  0  0  0  0  0  0  0
  1  2  1  0
  1  5  1  0
  2  3  1  0
  3  4  1  0
  5  4  1  0
  5  6  1  1
  6 14  1  0
  7  6  2  0
  9 11  1  0
  9  8  1  0
 10  9  2  0
 13 12  1  1
 12 11  1  0
 14 13  1  0
 15 16  2  0
 15 13  1  0
 18 17  1  0
 18 19  1  0
 19 21  1  0
 19 20  1  1
 21 22  1  6
 21 23  1  0
 22 15  1  0
 23 25  1  0
 24 23  2  0
M  END
$$$$
