VYE.pdb
     RDKit          3D

 29 29  0  0  1  0  0  0  0  0999 V2000
   10.5187  -20.3834   18.1171 C   0  0  0  0  0  0  0  0  0  0  0  0
   11.0147  -19.3413   19.1227 C   0  0  2  0  0  0  0  0  0  0  0  0
   11.1949  -20.0868   20.4360 C   0  0  0  0  0  0  0  0  0  0  0  0
    9.9187  -18.2979   19.2169 C   0  0  2  0  0  0  0  0  0  0  0  0
    9.7306  -17.7525   17.8988 N   0  0  0  0  0  0  0  0  0  0  0  0
   10.2192  -17.2623   20.2286 C   0  0  0  0  0  0  0  0  0  0  0  0
   11.0987  -16.4113   19.9369 O   0  0  0  0  0  0  0  0  0  0  0  0
    6.3500  -12.3650   18.6942 O   0  0  0  0  0  0  0  0  0  0  0  0
    6.8859  -13.1410   19.7351 C   0  0  0  0  0  0  0  0  0  0  0  0
    6.2798  -14.3107   20.1354 C   0  0  0  0  0  0  0  0  0  0  0  0
    6.8435  -15.0598   21.1786 C   0  0  0  0  0  0  0  0  0  0  0  0
    7.9918  -14.6424   21.8064 C   0  0  0  0  0  0  0  0  0  0  0  0
    8.5674  -15.4447   22.9006 C   0  0  0  0  0  0  0  0  0  0  0  0
    9.8689  -16.1281   22.4601 C   0  0  2  0  0  0  0  0  0  0  0  0
    9.5957  -17.1612   21.4866 N   0  0  0  0  0  0  0  0  0  0  0  0
   10.3735  -16.8268   23.6965 C   0  0  0  0  0  0  0  0  0  0  0  0
    9.7743  -17.8463   24.1096 O   0  0  0  0  0  0  0  0  0  0  0  0
    8.5847  -13.4739   21.3962 C   0  0  0  0  0  0  0  0  0  0  0  0
    8.0359  -12.7144   20.3572 C   0  0  0  0  0  0  0  0  0  0  0  0
   11.4928  -16.3743   24.4020 N   0  0  0  0  0  0  0  0  0  0  0  0
   12.1022  -17.2694   25.3993 C   0  0  1  0  0  0  0  0  0  0  0  0
   13.5719  -16.9697   25.5055 C   0  0  0  0  0  0  0  0  0  0  0  0
   14.2296  -17.0902   24.1661 C   0  0  0  0  0  0  0  0  0  0  0  0
   15.6761  -16.6810   24.2487 C   0  0  0  0  0  0  0  0  0  0  0  0
   16.5595  -17.5353   24.0409 O   0  0  0  0  0  0  0  0  0  0  0  0
   11.3396  -17.0792   26.6396 C   0  0  0  0  0  0  0  0  0  0  0  0
   10.4982  -16.1618   26.7262 O   0  0  0  0  0  0  0  0  0  0  0  0
   16.0330  -15.3862   24.5485 O   0  0  0  0  0  0  0  0  0  0  0  0
   11.5373  -17.9036   27.7223 O   0  0  0  0  0  0  0  0  0  0  0  0
  2  1  1  6
  2  3  1  0
  4  2  1  0
  4  5  1  6
  6  4  1  0
  7  6  2  0
  8  9  1  0
  9 10  2  0
  9 19  1  0
 10 11  1  0
 11 12  2  0
 12 13  1  0
 14 13  1  1
 14 15  1  0
 15  6  1  0
 16 14  1  0
 16 17  2  0
 18 12  1  0
 19 18  2  0
 20 21  1  0
 20 16  1  0
 21 22  1  1
 22 23  1  0
 23 24  1  0
 24 28  1  0
 24 25  2  0
 26 21  1  0
 27 26  2  0
 29 26  1  0
M  END
$$$$
