VYE.pdb
     RDKit          3D

 29 29  0  0  1  0  0  0  0  0999 V2000
    6.5895  -14.4913   18.6499 C   0  0  0  0  0  0  0  0  0  0  0  0
    7.5839  -14.7507   19.7844 C   0  0  2  0  0  0  0  0  0  0  0  0
    7.0399  -15.9501   20.5451 C   0  0  0  0  0  0  0  0  0  0  0  0
    7.5793  -13.4974   20.6377 C   0  0  2  0  0  0  0  0  0  0  0  0
    8.0163  -12.4090   19.8043 N   0  0  0  0  0  0  0  0  0  0  0  0
    8.3994  -13.6501   21.8585 C   0  0  0  0  0  0  0  0  0  0  0  0
    9.6494  -13.6501   21.7155 O   0  0  0  0  0  0  0  0  0  0  0  0
   10.7706  -15.6056   30.1676 O   0  0  0  0  0  0  0  0  0  0  0  0
   10.0488  -15.1891   29.0370 C   0  0  0  0  0  0  0  0  0  0  0  0
   10.1664  -13.9065   28.5502 C   0  0  0  0  0  0  0  0  0  0  0  0
    9.4301  -13.5259   27.4189 C   0  0  0  0  0  0  0  0  0  0  0  0
    8.5932  -14.4152   26.7897 C   0  0  0  0  0  0  0  0  0  0  0  0
    7.8284  -13.9947   25.6021 C   0  0  0  0  0  0  0  0  0  0  0  0
    8.6770  -14.1086   24.3286 C   0  0  2  0  0  0  0  0  0  0  0  0
    7.8850  -13.7946   23.1608 N   0  0  0  0  0  0  0  0  0  0  0  0
    9.0261  -15.5714   24.2292 C   0  0  0  0  0  0  0  0  0  0  0  0
    8.1107  -16.4069   24.0469 O   0  0  0  0  0  0  0  0  0  0  0  0
    8.4864  -15.6907   27.2867 C   0  0  0  0  0  0  0  0  0  0  0  0
    9.2136  -16.0871   28.4144 C   0  0  0  0  0  0  0  0  0  0  0  0
   10.3427  -16.0306   24.3337 N   0  0  0  0  0  0  0  0  0  0  0  0
   10.5778  -17.4833   24.3724 C   0  0  1  0  0  0  0  0  0  0  0  0
   11.5816  -17.8539   23.3160 C   0  0  0  0  0  0  0  0  0  0  0  0
   11.0676  -17.4962   21.9561 C   0  0  0  0  0  0  0  0  0  0  0  0
   12.0523  -17.9071   20.8939 C   0  0  0  0  0  0  0  0  0  0  0  0
   12.2594  -19.1202   20.6974 O   0  0  0  0  0  0  0  0  0  0  0  0
   10.9828  -17.7955   25.7489 C   0  0  0  0  0  0  0  0  0  0  0  0
   11.1686  -16.8775   26.5734 O   0  0  0  0  0  0  0  0  0  0  0  0
   12.7216  -16.9680   20.1430 O   0  0  0  0  0  0  0  0  0  0  0  0
   11.1636  -19.0976   26.1526 O   0  0  0  0  0  0  0  0  0  0  0  0
  2  1  1  6
  2  3  1  0
  4  2  1  0
  4  5  1  6
  6  4  1  0
  7  6  2  0
  8  9  1  0
  9 10  2  0
  9 19  1  0
 10 11  1  0
 11 12  2  0
 12 13  1  0
 14 13  1  1
 14 15  1  0
 15  6  1  0
 16 14  1  0
 16 17  2  0
 18 12  1  0
 19 18  2  0
 20 21  1  0
 20 16  1  0
 21 22  1  6
 22 23  1  0
 23 24  1  0
 24 28  1  0
 24 25  2  0
 26 21  1  0
 27 26  2  0
 29 26  1  0
M  END
$$$$
