VYE.pdb
     RDKit          3D

 29 29  0  0  1  0  0  0  0  0999 V2000
   10.0415  -20.8182   18.4911 C   0  0  0  0  0  0  0  0  0  0  0  0
   10.3514  -19.9656   19.7241 C   0  0  2  0  0  0  0  0  0  0  0  0
    9.6351  -20.6400   20.8839 C   0  0  0  0  0  0  0  0  0  0  0  0
    9.7793  -18.5915   19.4354 C   0  0  2  0  0  0  0  0  0  0  0  0
   10.3788  -18.1247   18.2136 N   0  0  0  0  0  0  0  0  0  0  0  0
    9.9753  -17.6568   20.5642 C   0  0  0  0  0  0  0  0  0  0  0  0
   11.1422  -17.2297   20.7613 O   0  0  0  0  0  0  0  0  0  0  0  0
    7.5120  -12.1519   17.8832 O   0  0  0  0  0  0  0  0  0  0  0  0
    7.6286  -12.9193   19.0538 C   0  0  0  0  0  0  0  0  0  0  0  0
    8.3579  -12.4681   20.1310 C   0  0  0  0  0  0  0  0  0  0  0  0
    8.4523  -13.2616   21.2835 C   0  0  0  0  0  0  0  0  0  0  0  0
    7.8271  -14.4829   21.3524 C   0  0  0  0  0  0  0  0  0  0  0  0
    7.9391  -15.3010   22.5732 C   0  0  0  0  0  0  0  0  0  0  0  0
    9.1400  -16.2529   22.4930 C   0  0  2  0  0  0  0  0  0  0  0  0
    8.9564  -17.2135   21.4284 N   0  0  0  0  0  0  0  0  0  0  0  0
    9.1007  -17.0305   23.7835 C   0  0  0  0  0  0  0  0  0  0  0  0
    8.4319  -18.0882   23.8393 O   0  0  0  0  0  0  0  0  0  0  0  0
    7.1034  -14.9194   20.2703 C   0  0  0  0  0  0  0  0  0  0  0  0
    6.9988  -14.1405   19.1127 C   0  0  0  0  0  0  0  0  0  0  0  0
    9.7884  -16.6103   24.9262 N   0  0  0  0  0  0  0  0  0  0  0  0
   10.6278  -17.5875   25.6386 C   0  0  1  0  0  0  0  0  0  0  0  0
   11.6675  -18.1307   24.6979 C   0  0  0  0  0  0  0  0  0  0  0  0
   12.5661  -19.0938   25.4094 C   0  0  0  0  0  0  0  0  0  0  0  0
   13.6774  -19.5493   24.5015 C   0  0  0  0  0  0  0  0  0  0  0  0
   14.7039  -18.8493   24.4033 O   0  0  0  0  0  0  0  0  0  0  0  0
   11.1607  -16.8883   26.8148 C   0  0  0  0  0  0  0  0  0  0  0  0
   11.4997  -15.6901   26.7340 O   0  0  0  0  0  0  0  0  0  0  0  0
   13.5755  -20.7192   23.7841 O   0  0  0  0  0  0  0  0  0  0  0  0
   11.2953  -17.5371   28.0197 O   0  0  0  0  0  0  0  0  0  0  0  0
  2  1  1  6
  2  3  1  0
  4  2  1  0
  4  5  1  6
  6  4  1  0
  7  6  2  0
  8  9  1  0
  9 10  2  0
  9 19  1  0
 10 11  1  0
 11 12  2  0
 12 13  1  0
 14 13  1  1
 14 15  1  0
 15  6  1  0
 16 14  1  0
 16 17  2  0
 18 12  1  0
 19 18  2  0
 20 21  1  0
 20 16  1  0
 21 22  1  6
 22 23  1  0
 23 24  1  0
 24 28  1  0
 24 25  2  0
 26 21  1  0
 27 26  2  0
 29 26  1  0
M  END
$$$$
