VYE.pdb
     RDKit          3D

 29 29  0  0  1  0  0  0  0  0999 V2000
    6.7742  -13.6142   18.7556 C   0  0  0  0  0  0  0  0  0  0  0  0
    7.3488  -13.4644   20.1665 C   0  0  2  0  0  0  0  0  0  0  0  0
    8.3425  -12.3157   20.0886 C   0  0  0  0  0  0  0  0  0  0  0  0
    8.0361  -14.7793   20.4786 C   0  0  2  0  0  0  0  0  0  0  0  0
    7.0331  -15.8098   20.4320 N   0  0  0  0  0  0  0  0  0  0  0  0
    8.7581  -14.7395   21.7684 C   0  0  0  0  0  0  0  0  0  0  0  0
    9.9698  -14.4020   21.7391 O   0  0  0  0  0  0  0  0  0  0  0  0
   10.6359  -14.6796   30.4094 O   0  0  0  0  0  0  0  0  0  0  0  0
    9.9622  -14.7191   29.1776 C   0  0  0  0  0  0  0  0  0  0  0  0
    9.7610  -13.5744   28.4394 C   0  0  0  0  0  0  0  0  0  0  0  0
    9.0840  -13.6521   27.2135 C   0  0  0  0  0  0  0  0  0  0  0  0
    8.6189  -14.8545   26.7394 C   0  0  0  0  0  0  0  0  0  0  0  0
    7.9099  -14.9138   25.4487 C   0  0  0  0  0  0  0  0  0  0  0  0
    8.8981  -15.0043   24.2782 C   0  0  2  0  0  0  0  0  0  0  0  0
    8.1904  -15.0501   23.0185 N   0  0  0  0  0  0  0  0  0  0  0  0
    9.5673  -16.3446   24.4430 C   0  0  0  0  0  0  0  0  0  0  0  0
    8.8738  -17.3858   24.3787 O   0  0  0  0  0  0  0  0  0  0  0  0
    8.8270  -15.9874   27.4868 C   0  0  0  0  0  0  0  0  0  0  0  0
    9.5004  -15.9279   28.7118 C   0  0  0  0  0  0  0  0  0  0  0  0
   10.9423  -16.4669   24.6663 N   0  0  0  0  0  0  0  0  0  0  0  0
   11.5316  -17.8157   24.6903 C   0  0  1  0  0  0  0  0  0  0  0  0
   12.7581  -17.8391   23.8208 C   0  0  0  0  0  0  0  0  0  0  0  0
   12.4164  -17.4315   22.4214 C   0  0  0  0  0  0  0  0  0  0  0  0
   13.6480  -17.4299   21.5556 C   0  0  0  0  0  0  0  0  0  0  0  0
   14.7451  -17.7331   22.0633 O   0  0  0  0  0  0  0  0  0  0  0  0
   11.7681  -18.1335   26.1043 C   0  0  0  0  0  0  0  0  0  0  0  0
   12.2395  -19.2422   26.4294 O   0  0  0  0  0  0  0  0  0  0  0  0
   13.5791  -17.1005   20.2212 O   0  0  0  0  0  0  0  0  0  0  0  0
   11.4763  -17.2207   27.0905 O   0  0  0  0  0  0  0  0  0  0  0  0
  2  1  1  6
  2  3  1  0
  4  2  1  0
  4  5  1  1
  6  4  1  0
  7  6  2  0
  8  9  1  0
  9 10  2  0
  9 19  1  0
 10 11  1  0
 11 12  2  0
 12 13  1  0
 14 13  1  1
 14 15  1  0
 15  6  1  0
 16 14  1  0
 16 17  2  0
 18 12  1  0
 19 18  2  0
 20 21  1  0
 20 16  1  0
 21 22  1  6
 22 23  1  0
 23 24  1  0
 24 28  1  0
 24 25  2  0
 26 21  1  0
 27 26  2  0
 29 26  1  0
M  END
$$$$
