VYE.pdb
     RDKit          3D

 29 29  0  0  1  0  0  0  0  0999 V2000
    8.7944  -19.0768   18.0845 C   0  0  0  0  0  0  0  0  0  0  0  0
    9.1012  -18.4082   19.4270 C   0  0  2  0  0  0  0  0  0  0  0  0
    8.1263  -19.0155   20.4239 C   0  0  0  0  0  0  0  0  0  0  0  0
    8.8448  -16.9278   19.2238 C   0  0  2  0  0  0  0  0  0  0  0  0
    9.7102  -16.4836   18.1637 N   0  0  0  0  0  0  0  0  0  0  0  0
    9.0221  -16.1541   20.4713 C   0  0  0  0  0  0  0  0  0  0  0  0
   10.1907  -16.0581   20.9274 O   0  0  0  0  0  0  0  0  0  0  0  0
    7.1752  -12.2858   28.2162 O   0  0  0  0  0  0  0  0  0  0  0  0
    7.0782  -12.7862   26.9073 C   0  0  0  0  0  0  0  0  0  0  0  0
    6.5556  -14.0358   26.6601 C   0  0  0  0  0  0  0  0  0  0  0  0
    6.4743  -14.5026   25.3400 C   0  0  0  0  0  0  0  0  0  0  0  0
    6.9090  -13.7302   24.2905 C   0  0  0  0  0  0  0  0  0  0  0  0
    6.8146  -14.2400   22.9109 C   0  0  0  0  0  0  0  0  0  0  0  0
    8.1390  -14.8723   22.4628 C   0  0  2  0  0  0  0  0  0  0  0  0
    7.9837  -15.5213   21.1805 N   0  0  0  0  0  0  0  0  0  0  0  0
    8.4026  -15.9646   23.4671 C   0  0  0  0  0  0  0  0  0  0  0  0
    7.7471  -17.0298   23.3972 O   0  0  0  0  0  0  0  0  0  0  0  0
    7.4278  -12.4863   24.5528 C   0  0  0  0  0  0  0  0  0  0  0  0
    7.5162  -12.0050   25.8636 C   0  0  0  0  0  0  0  0  0  0  0  0
    9.3580  -15.8298   24.4791 N   0  0  0  0  0  0  0  0  0  0  0  0
    9.7658  -17.0326   25.2234 C   0  0  1  0  0  0  0  0  0  0  0  0
   10.5939  -17.9143   24.3302 C   0  0  0  0  0  0  0  0  0  0  0  0
   11.9416  -17.3057   24.0964 C   0  0  0  0  0  0  0  0  0  0  0  0
   12.8823  -18.3179   23.4987 C   0  0  0  0  0  0  0  0  0  0  0  0
   13.7275  -17.9398   22.6645 O   0  0  0  0  0  0  0  0  0  0  0  0
   10.4518  -16.5538   26.4303 C   0  0  0  0  0  0  0  0  0  0  0  0
   10.7661  -17.3543   27.3344 O   0  0  0  0  0  0  0  0  0  0  0  0
   12.8216  -19.6447   23.8586 O   0  0  0  0  0  0  0  0  0  0  0  0
   10.7586  -15.2224   26.5855 O   0  0  0  0  0  0  0  0  0  0  0  0
  2  1  1  6
  2  3  1  0
  4  2  1  0
  4  5  1  6
  6  4  1  0
  7  6  2  0
  8  9  1  0
  9 10  2  0
  9 19  1  0
 10 11  1  0
 11 12  2  0
 12 13  1  0
 14 13  1  1
 14 15  1  0
 15  6  1  0
 16 14  1  0
 16 17  2  0
 18 12  1  0
 19 18  2  0
 20 21  1  0
 20 16  1  0
 21 22  1  6
 22 23  1  0
 23 24  1  0
 24 28  1  0
 24 25  2  0
 26 21  1  0
 27 26  2  0
 29 26  1  0
M  END
$$$$
