VYE.pdb
     RDKit          3D

 29 29  0  0  1  0  0  0  0  0999 V2000
    6.9605  -12.7994   20.9051 C   0  0  0  0  0  0  0  0  0  0  0  0
    7.8140  -13.4317   19.8028 C   0  0  2  0  0  0  0  0  0  0  0  0
    6.8876  -13.6015   18.6086 C   0  0  0  0  0  0  0  0  0  0  0  0
    8.2754  -14.7691   20.3481 C   0  0  2  0  0  0  0  0  0  0  0  0
    7.1246  -15.6311   20.4018 N   0  0  0  0  0  0  0  0  0  0  0  0
    8.9532  -14.6352   21.6553 C   0  0  0  0  0  0  0  0  0  0  0  0
   10.0861  -14.0880   21.6624 O   0  0  0  0  0  0  0  0  0  0  0  0
   10.7040  -14.7898   30.3320 O   0  0  0  0  0  0  0  0  0  0  0  0
   10.0599  -14.8675   29.0863 C   0  0  0  0  0  0  0  0  0  0  0  0
    9.7076  -13.7300   28.3951 C   0  0  0  0  0  0  0  0  0  0  0  0
    9.0655  -13.8462   27.1536 C   0  0  0  0  0  0  0  0  0  0  0  0
    8.7834  -15.0793   26.6178 C   0  0  0  0  0  0  0  0  0  0  0  0
    8.1080  -15.1789   25.3116 C   0  0  0  0  0  0  0  0  0  0  0  0
    9.0950  -14.9489   24.1594 C   0  0  2  0  0  0  0  0  0  0  0  0
    8.4252  -15.0733   22.8844 N   0  0  0  0  0  0  0  0  0  0  0  0
   10.0645  -16.0993   24.2484 C   0  0  0  0  0  0  0  0  0  0  0  0
    9.6668  -17.2558   23.9772 O   0  0  0  0  0  0  0  0  0  0  0  0
    9.1409  -16.2045   27.3188 C   0  0  0  0  0  0  0  0  0  0  0  0
    9.7819  -16.1068   28.5586 C   0  0  0  0  0  0  0  0  0  0  0  0
   11.3991  -15.9198   24.6252 N   0  0  0  0  0  0  0  0  0  0  0  0
   12.2970  -17.0862   24.6032 C   0  0  1  0  0  0  0  0  0  0  0  0
   13.6710  -16.6493   24.1763 C   0  0  0  0  0  0  0  0  0  0  0  0
   14.1481  -17.4740   23.0215 C   0  0  0  0  0  0  0  0  0  0  0  0
   15.5246  -17.0389   22.5942 C   0  0  0  0  0  0  0  0  0  0  0  0
   16.0586  -17.5956   21.6153 O   0  0  0  0  0  0  0  0  0  0  0  0
   12.2247  -17.6831   25.9429 C   0  0  0  0  0  0  0  0  0  0  0  0
   12.1262  -18.9200   26.0758 O   0  0  0  0  0  0  0  0  0  0  0  0
   16.1957  -16.0423   23.2650 O   0  0  0  0  0  0  0  0  0  0  0  0
   12.2641  -16.8950   27.0690 O   0  0  0  0  0  0  0  0  0  0  0  0
  2  1  1  1
  2  3  1  0
  4  2  1  0
  4  5  1  1
  6  4  1  0
  7  6  2  0
  8  9  1  0
  9 10  2  0
  9 19  1  0
 10 11  1  0
 11 12  2  0
 12 13  1  0
 14 13  1  1
 14 15  1  0
 15  6  1  0
 16 14  1  0
 16 17  2  0
 18 12  1  0
 19 18  2  0
 20 21  1  0
 20 16  1  0
 21 22  1  1
 22 23  1  0
 23 24  1  0
 24 28  1  0
 24 25  2  0
 26 21  1  0
 27 26  2  0
 29 26  1  0
M  END
$$$$
