VYE.pdb
     RDKit          3D

 29 29  0  0  1  0  0  0  0  0999 V2000
    7.4260  -12.6773   19.8210 C   0  0  0  0  0  0  0  0  0  0  0  0
    8.2096  -13.5899   18.8743 C   0  0  2  0  0  0  0  0  0  0  0  0
    7.3219  -13.7803   17.6542 C   0  0  0  0  0  0  0  0  0  0  0  0
    8.4161  -14.8909   19.6251 C   0  0  2  0  0  0  0  0  0  0  0  0
    7.1971  -15.6475   19.5163 N   0  0  0  0  0  0  0  0  0  0  0  0
    8.8290  -14.6669   21.0271 C   0  0  0  0  0  0  0  0  0  0  0  0
    9.9886  -14.2189   21.2206 O   0  0  0  0  0  0  0  0  0  0  0  0
    8.5746  -13.2233   29.7399 O   0  0  0  0  0  0  0  0  0  0  0  0
    8.2245  -13.5429   28.4177 C   0  0  0  0  0  0  0  0  0  0  0  0
    8.0045  -12.5573   27.4817 C   0  0  0  0  0  0  0  0  0  0  0  0
    7.6565  -12.9139   26.1707 C   0  0  0  0  0  0  0  0  0  0  0  0
    7.5320  -14.2329   25.8077 C   0  0  0  0  0  0  0  0  0  0  0  0
    7.1653  -14.5858   24.4246 C   0  0  0  0  0  0  0  0  0  0  0  0
    8.4028  -14.6302   23.5182 C   0  0  2  0  0  0  0  0  0  0  0  0
    8.0227  -14.9175   22.1534 N   0  0  0  0  0  0  0  0  0  0  0  0
    9.1916  -15.8195   24.0030 C   0  0  0  0  0  0  0  0  0  0  0  0
    8.7591  -16.9730   23.7761 O   0  0  0  0  0  0  0  0  0  0  0  0
    7.7545  -15.2045   26.7522 C   0  0  0  0  0  0  0  0  0  0  0  0
    8.1025  -14.8664   28.0645 C   0  0  0  0  0  0  0  0  0  0  0  0
   10.3953  -15.6794   24.7005 N   0  0  0  0  0  0  0  0  0  0  0  0
   11.1550  -16.8940   25.0395 C   0  0  1  0  0  0  0  0  0  0  0  0
   12.5931  -16.7095   24.6411 C   0  0  0  0  0  0  0  0  0  0  0  0
   12.7807  -17.0304   23.1909 C   0  0  0  0  0  0  0  0  0  0  0  0
   14.1790  -16.6879   22.7503 C   0  0  0  0  0  0  0  0  0  0  0  0
   14.4171  -16.5659   21.5330 O   0  0  0  0  0  0  0  0  0  0  0  0
   10.9337  -17.1282   26.4721 C   0  0  0  0  0  0  0  0  0  0  0  0
   10.2940  -16.3012   27.1531 O   0  0  0  0  0  0  0  0  0  0  0  0
   15.1898  -16.5091   23.6667 O   0  0  0  0  0  0  0  0  0  0  0  0
   11.4245  -18.2565   27.0861 O   0  0  0  0  0  0  0  0  0  0  0  0
  2  1  1  1
  2  3  1  0
  4  2  1  0
  4  5  1  1
  6  4  1  0
  7  6  2  0
  8  9  1  0
  9 10  2  0
  9 19  1  0
 10 11  1  0
 11 12  2  0
 12 13  1  0
 14 13  1  1
 14 15  1  0
 15  6  1  0
 16 14  1  0
 16 17  2  0
 18 12  1  0
 19 18  2  0
 20 21  1  0
 20 16  1  0
 21 22  1  1
 22 23  1  0
 23 24  1  0
 24 28  1  0
 24 25  2  0
 26 21  1  0
 27 26  2  0
 29 26  1  0
M  END
$$$$
