VYE.pdb
     RDKit          3D

 29 29  0  0  1  0  0  0  0  0999 V2000
    9.7213  -18.6982   20.1981 C   0  0  0  0  0  0  0  0  0  0  0  0
    8.3057  -18.2931   19.7796 C   0  0  2  0  0  0  0  0  0  0  0  0
    7.9973  -19.1005   18.5282 C   0  0  0  0  0  0  0  0  0  0  0  0
    8.3667  -16.8068   19.4861 C   0  0  2  0  0  0  0  0  0  0  0  0
    9.3465  -16.6136   18.4503 N   0  0  0  0  0  0  0  0  0  0  0  0
    8.6492  -16.0095   20.6988 C   0  0  0  0  0  0  0  0  0  0  0  0
    9.8352  -15.6270   20.8724 O   0  0  0  0  0  0  0  0  0  0  0  0
    7.7280  -12.0442   28.5712 O   0  0  0  0  0  0  0  0  0  0  0  0
    7.4664  -12.6502   27.3314 C   0  0  0  0  0  0  0  0  0  0  0  0
    7.0718  -13.9670   27.2520 C   0  0  0  0  0  0  0  0  0  0  0  0
    6.8192  -14.5387   25.9965 C   0  0  0  0  0  0  0  0  0  0  0  0
    6.9602  -13.8031   24.8450 C   0  0  0  0  0  0  0  0  0  0  0  0
    6.6897  -14.4235   23.5358 C   0  0  0  0  0  0  0  0  0  0  0  0
    7.9844  -14.9277   22.8844 C   0  0  2  0  0  0  0  0  0  0  0  0
    7.6924  -15.6500   21.6667 N   0  0  0  0  0  0  0  0  0  0  0  0
    8.5374  -15.9358   23.8587 C   0  0  0  0  0  0  0  0  0  0  0  0
    7.9018  -16.9946   24.0689 O   0  0  0  0  0  0  0  0  0  0  0  0
    7.3544  -12.4913   24.9402 C   0  0  0  0  0  0  0  0  0  0  0  0
    7.6104  -11.9051   26.1845 C   0  0  0  0  0  0  0  0  0  0  0  0
    9.7412  -15.7293   24.5396 N   0  0  0  0  0  0  0  0  0  0  0  0
   10.3269  -16.8551   25.2857 C   0  0  1  0  0  0  0  0  0  0  0  0
   11.7052  -17.1402   24.7565 C   0  0  0  0  0  0  0  0  0  0  0  0
   12.3463  -15.8822   24.2590 C   0  0  0  0  0  0  0  0  0  0  0  0
   13.6544  -16.1885   23.5794 C   0  0  0  0  0  0  0  0  0  0  0  0
   14.6173  -16.5784   24.2679 O   0  0  0  0  0  0  0  0  0  0  0  0
   10.2732  -16.4778   26.7039 C   0  0  0  0  0  0  0  0  0  0  0  0
    9.8584  -15.3498   27.0393 O   0  0  0  0  0  0  0  0  0  0  0  0
   13.7997  -16.0448   22.2185 O   0  0  0  0  0  0  0  0  0  0  0  0
   10.6766  -17.3554   27.6826 O   0  0  0  0  0  0  0  0  0  0  0  0
  2  1  1  6
  2  3  1  0
  4  2  1  0
  4  5  1  6
  6  4  1  0
  7  6  2  0
  8  9  1  0
  9 10  2  0
  9 19  1  0
 10 11  1  0
 11 12  2  0
 12 13  1  0
 14 13  1  1
 14 15  1  0
 15  6  1  0
 16 14  1  0
 16 17  2  0
 18 12  1  0
 19 18  2  0
 20 21  1  0
 20 16  1  0
 21 22  1  6
 22 23  1  0
 23 24  1  0
 24 28  1  0
 24 25  2  0
 26 21  1  0
 27 26  2  0
 29 26  1  0
M  END
$$$$
