VYE.pdb
     RDKit          3D

 29 29  0  0  1  0  0  0  0  0999 V2000
    6.8006  -14.6668   18.0391 C   0  0  0  0  0  0  0  0  0  0  0  0
    7.6992  -14.9026   19.2557 C   0  0  2  0  0  0  0  0  0  0  0  0
    7.1918  -16.1819   19.9030 C   0  0  0  0  0  0  0  0  0  0  0  0
    7.5015  -13.7013   20.1594 C   0  0  2  0  0  0  0  0  0  0  0  0
    7.8990  -12.5351   19.4164 N   0  0  0  0  0  0  0  0  0  0  0  0
    8.2273  -13.8405   21.4400 C   0  0  0  0  0  0  0  0  0  0  0  0
    9.4810  -13.7420   21.4042 O   0  0  0  0  0  0  0  0  0  0  0  0
   10.0774  -14.6148   30.0647 O   0  0  0  0  0  0  0  0  0  0  0  0
    9.4023  -14.4980   28.8385 C   0  0  0  0  0  0  0  0  0  0  0  0
    9.2347  -13.2732   28.2321 C   0  0  0  0  0  0  0  0  0  0  0  0
    8.5552  -13.1950   27.0077 C   0  0  0  0  0  0  0  0  0  0  0  0
    8.0546  -14.3234   26.4052 C   0  0  0  0  0  0  0  0  0  0  0  0
    7.3437  -14.2188   25.1184 C   0  0  0  0  0  0  0  0  0  0  0  0
    8.3297  -14.1732   23.9435 C   0  0  2  0  0  0  0  0  0  0  0  0
    7.6198  -14.0738   22.6882 N   0  0  0  0  0  0  0  0  0  0  0  0
    8.9997  -15.5232   23.9515 C   0  0  0  0  0  0  0  0  0  0  0  0
    8.3258  -16.5412   23.6708 O   0  0  0  0  0  0  0  0  0  0  0  0
    8.2296  -15.5377   27.0219 C   0  0  0  0  0  0  0  0  0  0  0  0
    8.9050  -15.6338   28.2435 C   0  0  0  0  0  0  0  0  0  0  0  0
   10.3539  -15.6797   24.2628 N   0  0  0  0  0  0  0  0  0  0  0  0
   10.9730  -16.9992   24.0564 C   0  0  1  0  0  0  0  0  0  0  0  0
   11.9739  -16.9104   22.9378 C   0  0  0  0  0  0  0  0  0  0  0  0
   12.6722  -18.2218   22.7538 C   0  0  0  0  0  0  0  0  0  0  0  0
   13.6769  -18.1335   21.6360 C   0  0  0  0  0  0  0  0  0  0  0  0
   14.8600  -17.8502   21.9068 O   0  0  0  0  0  0  0  0  0  0  0  0
   11.5293  -17.3977   25.3557 C   0  0  0  0  0  0  0  0  0  0  0  0
   11.8420  -16.5319   26.1981 O   0  0  0  0  0  0  0  0  0  0  0  0
   13.3090  -18.3597   20.3294 O   0  0  0  0  0  0  0  0  0  0  0  0
   11.7148  -18.7243   25.6662 O   0  0  0  0  0  0  0  0  0  0  0  0
  2  1  1  6
  2  3  1  0
  4  2  1  0
  4  5  1  6
  6  4  1  0
  7  6  2  0
  8  9  1  0
  9 10  2  0
  9 19  1  0
 10 11  1  0
 11 12  2  0
 12 13  1  0
 14 13  1  1
 14 15  1  0
 15  6  1  0
 16 14  1  0
 16 17  2  0
 18 12  1  0
 19 18  2  0
 20 21  1  0
 20 16  1  0
 21 22  1  6
 22 23  1  0
 23 24  1  0
 24 28  1  0
 24 25  2  0
 26 21  1  0
 27 26  2  0
 29 26  1  0
M  END
$$$$
