VYE.pdb
     RDKit          3D

 29 29  0  0  1  0  0  0  0  0999 V2000
   10.4561  -18.8482   20.1728 C   0  0  0  0  0  0  0  0  0  0  0  0
    9.0470  -18.4878   19.6954 C   0  0  2  0  0  0  0  0  0  0  0  0
    8.8173  -19.3028   18.4320 C   0  0  0  0  0  0  0  0  0  0  0  0
    9.0728  -16.9999   19.4051 C   0  0  2  0  0  0  0  0  0  0  0  0
   10.1486  -16.7616   18.4799 N   0  0  0  0  0  0  0  0  0  0  0  0
    9.1874  -16.1923   20.6383 C   0  0  0  0  0  0  0  0  0  0  0  0
   10.3462  -15.8800   21.0158 O   0  0  0  0  0  0  0  0  0  0  0  0
    7.2175  -11.6478   27.9827 O   0  0  0  0  0  0  0  0  0  0  0  0
    7.1130  -12.3773   26.7869 C   0  0  0  0  0  0  0  0  0  0  0  0
    6.4974  -13.6085   26.7558 C   0  0  0  0  0  0  0  0  0  0  0  0
    6.4116  -14.3083   25.5434 C   0  0  0  0  0  0  0  0  0  0  0  0
    6.9333  -13.7823   24.3866 C   0  0  0  0  0  0  0  0  0  0  0  0
    6.8323  -14.5344   23.1232 C   0  0  0  0  0  0  0  0  0  0  0  0
    8.2166  -14.9775   22.6310 C   0  0  2  0  0  0  0  0  0  0  0  0
    8.0997  -15.7508   21.4152 N   0  0  0  0  0  0  0  0  0  0  0  0
    8.7180  -15.9218   23.6932 C   0  0  0  0  0  0  0  0  0  0  0  0
    8.1855  -17.0498   23.8085 O   0  0  0  0  0  0  0  0  0  0  0  0
    7.5442  -12.5535   24.4334 C   0  0  0  0  0  0  0  0  0  0  0  0
    7.6386  -11.8418   25.6343 C   0  0  0  0  0  0  0  0  0  0  0  0
    9.7621  -15.5810   24.5586 N   0  0  0  0  0  0  0  0  0  0  0  0
   10.2870  -16.6148   25.4657 C   0  0  1  0  0  0  0  0  0  0  0  0
   11.7869  -16.6503   25.3658 C   0  0  0  0  0  0  0  0  0  0  0  0
   12.2193  -17.6243   24.3142 C   0  0  0  0  0  0  0  0  0  0  0  0
   13.2744  -17.0142   23.4305 C   0  0  0  0  0  0  0  0  0  0  0  0
   14.1968  -16.3589   23.9531 O   0  0  0  0  0  0  0  0  0  0  0  0
    9.7620  -16.2939   26.7990 C   0  0  0  0  0  0  0  0  0  0  0  0
    9.0934  -15.2556   26.9785 O   0  0  0  0  0  0  0  0  0  0  0  0
   13.2342  -17.1693   22.0637 O   0  0  0  0  0  0  0  0  0  0  0  0
    9.9959  -17.1265   27.8680 O   0  0  0  0  0  0  0  0  0  0  0  0
  2  1  1  6
  2  3  1  0
  4  2  1  0
  4  5  1  6
  6  4  1  0
  7  6  2  0
  8  9  1  0
  9 10  2  0
  9 19  1  0
 10 11  1  0
 11 12  2  0
 12 13  1  0
 14 13  1  1
 14 15  1  0
 15  6  1  0
 16 14  1  0
 16 17  2  0
 18 12  1  0
 19 18  2  0
 20 21  1  0
 20 16  1  0
 21 22  1  1
 22 23  1  0
 23 24  1  0
 24 28  1  0
 24 25  2  0
 26 21  1  0
 27 26  2  0
 29 26  1  0
M  END
$$$$
