DHP.pdb
     RDKit          3D

 26 27  0  0  1  0  0  0  0  0999 V2000
   28.0058  -18.4919  -18.3347 N   0  0  0  0  0  0  0  0  0  0  0  0
   26.6887  -17.9627  -18.0921 C   0  0  1  0  0  0  0  0  0  0  0  0
   25.9887  -17.5616  -19.3661 C   0  0  0  0  0  0  0  0  0  0  0  0
   25.4421  -16.2110  -19.1743 C   0  0  0  0  0  0  0  0  0  0  0  0
   25.0685  -15.8455  -18.0117 O   0  0  0  0  0  0  0  0  0  0  0  0
   25.8271  -18.9227  -17.3629 C   0  0  0  0  0  0  0  0  0  0  0  0
   24.7306  -18.5563  -16.8215 O   0  0  0  0  0  0  0  0  0  0  0  0
   25.3433  -15.3620  -20.2712 O   0  0  0  0  0  0  0  0  0  0  0  0
   26.1534  -20.3014  -17.2163 N   0  0  0  0  0  0  0  0  0  0  0  0
   25.2953  -21.1807  -16.3996 C   0  0  1  0  0  0  0  0  0  0  0  0
   25.7367  -22.6077  -16.7574 C   0  0  0  0  0  0  0  0  0  0  0  0
   24.9360  -23.5994  -16.0246 C   0  0  0  0  0  0  0  0  0  0  0  0
   25.3767  -24.5498  -15.1304 C   0  0  0  0  0  0  0  0  0  0  0  0
   24.3211  -25.2523  -14.7026 N   0  0  0  0  0  0  0  0  0  0  0  0
   23.2081  -24.7665  -15.3093 C   0  0  0  0  0  0  0  0  0  0  0  0
   23.6166  -23.7607  -16.1082 N   0  0  0  0  0  0  0  0  0  0  0  0
   25.6213  -20.9639  -14.9750 C   0  0  0  0  0  0  0  0  0  0  0  0
   26.7847  -20.5752  -14.6063 O   0  0  0  0  0  0  0  0  0  0  0  0
   24.6734  -21.1686  -13.9365 N   0  0  0  0  0  0  0  0  0  0  0  0
   23.3123  -21.6437  -14.0625 C   0  0  0  0  0  0  0  0  0  0  0  0
   22.5560  -20.8156  -13.0407 C   0  0  0  0  0  0  0  0  0  0  0  0
   23.5804  -20.2270  -12.1281 C   0  0  0  0  0  0  0  0  0  0  0  0
   24.8519  -20.9436  -12.5069 C   0  0  1  0  0  0  0  0  0  0  0  0
   24.9868  -22.2271  -11.7651 C   0  0  0  0  0  0  0  0  0  0  0  0
   25.3970  -22.2873  -10.4370 O   0  0  0  0  0  0  0  0  0  0  0  0
   24.7296  -23.3116  -12.3250 O   0  0  0  0  0  0  0  0  0  0  0  0
  2  3  1  0
  2  1  1  6
  4  3  1  0
  4  8  1  0
  5  4  2  0
  6  2  1  0
  7  6  2  0
  9  6  1  0
 10  9  1  0
 11 12  1  0
 10 11  1  6
 12 16  1  0
 13 14  1  0
 13 12  2  0
 14 15  1  0
 15 16  2  0
 17 19  1  0
 17 10  1  0
 18 17  2  0
 19 20  1  0
 20 21  1  0
 22 21  1  0
 23 22  1  0
 23 19  1  0
 23 24  1  1
 24 25  1  0
 26 24  2  0
M  END
$$$$
