DHP.pdb
     RDKit          3D

 26 27  0  0  1  0  0  0  0  0999 V2000
   27.0280  -20.0227  -18.8910 N   0  0  0  0  0  0  0  0  0  0  0  0
   28.1299  -19.9057  -17.9714 C   0  0  1  0  0  0  0  0  0  0  0  0
   29.1391  -18.8765  -18.4144 C   0  0  0  0  0  0  0  0  0  0  0  0
   29.5980  -19.2455  -19.7608 C   0  0  0  0  0  0  0  0  0  0  0  0
   29.8819  -20.4620  -20.0146 O   0  0  0  0  0  0  0  0  0  0  0  0
   27.6796  -19.5650  -16.6014 C   0  0  0  0  0  0  0  0  0  0  0  0
   28.5097  -19.4310  -15.6409 O   0  0  0  0  0  0  0  0  0  0  0  0
   29.7139  -18.2537  -20.7287 O   0  0  0  0  0  0  0  0  0  0  0  0
   26.3109  -19.3645  -16.2621 N   0  0  0  0  0  0  0  0  0  0  0  0
   25.9308  -19.0722  -14.8669 C   0  0  1  0  0  0  0  0  0  0  0  0
   24.8437  -17.9921  -14.9709 C   0  0  0  0  0  0  0  0  0  0  0  0
   25.3960  -16.7498  -15.5303 C   0  0  0  0  0  0  0  0  0  0  0  0
   26.5589  -16.1038  -15.1733 C   0  0  0  0  0  0  0  0  0  0  0  0
   26.6816  -15.0034  -15.9249 N   0  0  0  0  0  0  0  0  0  0  0  0
   25.6137  -14.9333  -16.7601 C   0  0  0  0  0  0  0  0  0  0  0  0
   24.8495  -16.0113  -16.4947 N   0  0  0  0  0  0  0  0  0  0  0  0
   25.2997  -20.2769  -14.2897 C   0  0  0  0  0  0  0  0  0  0  0  0
   24.8666  -21.2265  -15.0321 O   0  0  0  0  0  0  0  0  0  0  0  0
   25.1381  -20.4560  -12.8894 N   0  0  0  0  0  0  0  0  0  0  0  0
   25.5274  -19.5490  -11.8311 C   0  0  0  0  0  0  0  0  0  0  0  0
   26.0333  -20.4770  -10.7427 C   0  0  0  0  0  0  0  0  0  0  0  0
   25.5281  -21.8411  -11.0781 C   0  0  0  0  0  0  0  0  0  0  0  0
   24.5474  -21.5950  -12.1968 C   0  0  1  0  0  0  0  0  0  0  0  0
   23.1960  -21.2692  -11.6646 C   0  0  0  0  0  0  0  0  0  0  0  0
   22.3504  -22.2317  -11.1222 O   0  0  0  0  0  0  0  0  0  0  0  0
   22.7721  -20.0964  -11.6892 O   0  0  0  0  0  0  0  0  0  0  0  0
  2  3  1  0
  2  1  1  6
  4  3  1  0
  4  8  1  0
  5  4  2  0
  6  2  1  0
  7  6  2  0
  9  6  1  0
 10  9  1  0
 11 12  1  0
 10 11  1  6
 12 16  1  0
 13 14  1  0
 13 12  2  0
 14 15  1  0
 15 16  2  0
 17 19  1  0
 17 10  1  0
 18 17  2  0
 19 20  1  0
 20 21  1  0
 22 21  1  0
 23 22  1  0
 23 19  1  0
 23 24  1  1
 24 25  1  0
 26 24  2  0
M  END
$$$$
