DHP.pdb
     RDKit          3D

 26 27  0  0  1  0  0  0  0  0999 V2000
   24.5215  -17.1972  -17.5521 N   0  0  0  0  0  0  0  0  0  0  0  0
   23.8118  -16.5456  -16.4819 C   0  0  1  0  0  0  0  0  0  0  0  0
   22.5135  -15.9338  -16.9445 C   0  0  0  0  0  0  0  0  0  0  0  0
   22.7981  -15.1158  -18.1316 C   0  0  0  0  0  0  0  0  0  0  0  0
   23.7967  -14.3236  -18.1220 O   0  0  0  0  0  0  0  0  0  0  0  0
   23.5243  -17.4691  -15.3594 C   0  0  0  0  0  0  0  0  0  0  0  0
   22.8616  -17.0891  -14.3366 O   0  0  0  0  0  0  0  0  0  0  0  0
   21.9660  -15.2248  -19.2405 O   0  0  0  0  0  0  0  0  0  0  0  0
   23.9580  -18.8256  -15.3404 N   0  0  0  0  0  0  0  0  0  0  0  0
   23.6901  -19.6704  -14.1609 C   0  0  1  0  0  0  0  0  0  0  0  0
   23.0542  -20.9491  -14.7262 C   0  0  0  0  0  0  0  0  0  0  0  0
   21.6137  -20.7588  -14.9507 C   0  0  0  0  0  0  0  0  0  0  0  0
   20.5678  -21.2502  -14.2014 C   0  0  0  0  0  0  0  0  0  0  0  0
   19.4198  -20.8490  -14.7600 N   0  0  0  0  0  0  0  0  0  0  0  0
   19.7135  -20.1065  -15.8578 C   0  0  0  0  0  0  0  0  0  0  0  0
   21.0580  -20.0707  -15.9465 N   0  0  0  0  0  0  0  0  0  0  0  0
   24.9816  -20.0530  -13.5540 C   0  0  0  0  0  0  0  0  0  0  0  0
   26.0804  -19.9623  -14.2058 O   0  0  0  0  0  0  0  0  0  0  0  0
   25.0840  -20.5378  -12.2223 N   0  0  0  0  0  0  0  0  0  0  0  0
   24.0057  -20.8384  -11.3052 C   0  0  0  0  0  0  0  0  0  0  0  0
   24.5421  -20.3666   -9.9668 C   0  0  0  0  0  0  0  0  0  0  0  0
   26.0176  -20.2102  -10.1312 C   0  0  0  0  0  0  0  0  0  0  0  0
   26.2975  -20.8400  -11.4724 C   0  0  1  0  0  0  0  0  0  0  0  0
   26.5079  -22.3079  -11.3433 C   0  0  0  0  0  0  0  0  0  0  0  0
   27.6940  -22.8574  -10.8669 O   0  0  0  0  0  0  0  0  0  0  0  0
   25.6061  -23.1071  -11.6653 O   0  0  0  0  0  0  0  0  0  0  0  0
  2  3  1  0
  2  1  1  6
  4  3  1  0
  4  8  1  0
  5  4  2  0
  6  2  1  0
  7  6  2  0
  9  6  1  0
 10  9  1  0
 11 12  1  0
 10 11  1  6
 12 16  1  0
 13 14  1  0
 13 12  2  0
 14 15  1  0
 15 16  2  0
 17 19  1  0
 17 10  1  0
 18 17  2  0
 19 20  1  0
 20 21  1  0
 22 21  1  0
 23 22  1  0
 23 19  1  0
 23 24  1  1
 24 25  1  0
 26 24  2  0
M  END
$$$$
