DHP.pdb
     RDKit          3D

 26 27  0  0  1  0  0  0  0  0999 V2000
   17.1296  -10.8698  -17.4298 N   0  0  0  0  0  0  0  0  0  0  0  0
   17.5901  -11.1396  -16.0923 C   0  0  1  0  0  0  0  0  0  0  0  0
   17.9149  -12.5969  -15.8812 C   0  0  0  0  0  0  0  0  0  0  0  0
   16.6564  -13.3531  -15.9449 C   0  0  0  0  0  0  0  0  0  0  0  0
   16.1756  -13.6751  -17.0807 O   0  0  0  0  0  0  0  0  0  0  0  0
   18.7834  -10.3349  -15.7400 C   0  0  0  0  0  0  0  0  0  0  0  0
   19.3997  -10.5050  -14.6351 O   0  0  0  0  0  0  0  0  0  0  0  0
   16.0169  -13.6984  -14.7593 O   0  0  0  0  0  0  0  0  0  0  0  0
   19.3216   -9.3305  -16.5946 N   0  0  0  0  0  0  0  0  0  0  0  0
   20.5977   -8.6745  -16.2512 C   0  0  1  0  0  0  0  0  0  0  0  0
   21.4592   -8.7978  -17.5168 C   0  0  0  0  0  0  0  0  0  0  0  0
   21.9757  -10.1665  -17.6637 C   0  0  0  0  0  0  0  0  0  0  0  0
   23.1093  -10.7088  -17.1000 C   0  0  0  0  0  0  0  0  0  0  0  0
   23.2155  -11.9814  -17.4999 N   0  0  0  0  0  0  0  0  0  0  0  0
   22.1657  -12.2645  -18.3127 C   0  0  0  0  0  0  0  0  0  0  0  0
   21.4294  -11.1384  -18.3923 N   0  0  0  0  0  0  0  0  0  0  0  0
   20.3423   -7.2360  -16.0318 C   0  0  0  0  0  0  0  0  0  0  0  0
   19.3957   -6.6239  -16.6399 O   0  0  0  0  0  0  0  0  0  0  0  0
   21.1213   -6.4510  -15.1396 N   0  0  0  0  0  0  0  0  0  0  0  0
   22.2613   -6.8736  -14.3548 C   0  0  0  0  0  0  0  0  0  0  0  0
   22.0780   -6.1328  -13.0435 C   0  0  0  0  0  0  0  0  0  0  0  0
   21.0939   -5.0414  -13.3056 C   0  0  0  0  0  0  0  0  0  0  0  0
   20.9494   -5.0419  -14.8066 C   0  0  1  0  0  0  0  0  0  0  0  0
   21.9950   -4.1982  -15.4474 C   0  0  0  0  0  0  0  0  0  0  0  0
   21.9084   -2.8108  -15.5063 O   0  0  0  0  0  0  0  0  0  0  0  0
   23.0033   -4.7221  -15.9618 O   0  0  0  0  0  0  0  0  0  0  0  0
  2  3  1  0
  2  1  1  6
  4  3  1  0
  4  8  1  0
  5  4  2  0
  6  2  1  0
  7  6  2  0
  9  6  1  0
 10  9  1  0
 11 12  1  0
 10 11  1  6
 12 16  1  0
 13 14  1  0
 13 12  2  0
 14 15  1  0
 15 16  2  0
 17 19  1  0
 17 10  1  0
 18 17  2  0
 19 20  1  0
 20 21  1  0
 22 21  1  0
 23 22  1  0
 23 19  1  0
 23 24  1  6
 24 25  1  0
 26 24  2  0
M  END
$$$$
