HQT.pdb
     RDKit          3D

 27 27  0  0  1  0  0  0  0  0999 V2000
   10.1216  -15.4482   15.9642 N   0  0  0  0  0  0  0  0  0  0  0  0
   10.1935  -15.0643   17.3649 C   0  0  1  0  0  0  0  0  0  0  0  0
    8.8236  -15.3247   17.9566 C   0  0  0  0  0  0  0  0  0  0  0  0
    7.8290  -14.3282   17.4817 C   0  0  0  0  0  0  0  0  0  0  0  0
    6.9823  -14.4012   16.3985 C   0  0  0  0  0  0  0  0  0  0  0  0
    6.2286  -13.2946   16.2969 N   0  0  0  0  0  0  0  0  0  0  0  0
    6.5928  -12.5056   17.3207 C   0  0  0  0  0  0  0  0  0  0  0  0
    7.5617  -13.1158   18.0494 N   0  0  0  0  0  0  0  0  0  0  0  0
   11.2473  -15.8545   18.0349 C   0  0  0  0  0  0  0  0  0  0  0  0
   11.4549  -17.0487   17.6998 O   0  0  0  0  0  0  0  0  0  0  0  0
   16.9407  -15.0707   18.5389 N   0  0  0  0  0  0  0  0  0  0  0  0
   15.9069  -14.0663   18.4050 C   0  0  0  0  0  0  0  0  0  0  0  0
   16.2672  -12.9896   17.9082 O   0  0  0  0  0  0  0  0  0  0  0  0
   14.5693  -14.4341   18.8657 C   0  0  0  0  0  0  0  0  0  0  0  0
   14.4305  -15.8330   19.3460 C   0  0  0  0  0  0  0  0  0  0  0  0
   13.0306  -16.1221   19.7756 C   0  0  2  0  0  0  0  0  0  0  0  0
   12.0550  -15.3074   19.0669 N   0  0  0  0  0  0  0  0  0  0  0  0
   12.8558  -15.9825   21.2501 C   0  0  0  0  0  0  0  0  0  0  0  0
   12.8983  -14.8237   21.7264 O   0  0  0  0  0  0  0  0  0  0  0  0
   10.6864  -17.0712   25.3406 C   0  0  0  0  0  0  0  0  0  0  0  0
   10.9656  -17.2795   23.8694 C   0  0  1  0  0  0  0  0  0  0  0  0
   10.0178  -16.5665   23.1146 O   0  0  0  0  0  0  0  0  0  0  0  0
   12.3742  -16.8161   23.5129 C   0  0  2  0  0  0  0  0  0  0  0  0
   12.6500  -17.0689   22.1105 N   0  0  0  0  0  0  0  0  0  0  0  0
   13.3585  -17.5108   24.3827 C   0  0  0  0  0  0  0  0  0  0  0  0
   13.9381  -18.5534   23.9905 O   0  0  0  0  0  0  0  0  0  0  0  0
   13.6866  -17.0497   25.6613 O   0  0  0  0  0  0  0  0  0  0  0  0
  2  1  1  6
  2  3  1  0
  3  4  1  0
  4  8  1  0
  5  4  2  0
  5  6  1  0
  6  7  1  0
  8  7  2  0
  9 10  2  0
  9  2  1  0
 11 12  1  0
 12 13  2  0
 12 14  1  0
 14 15  1  0
 16 15  1  1
 16 17  1  0
 17  9  1  0
 18 24  1  0
 18 16  1  0
 19 18  2  0
 21 20  1  1
 21 22  1  0
 21 23  1  0
 23 24  1  6
 23 25  1  0
 25 27  1  0
 26 25  2  0
M  END
$$$$
