HQT.pdb
     RDKit          3D

 27 27  0  0  1  0  0  0  0  0999 V2000
   13.9856  -13.3389   16.8543 N   0  0  0  0  0  0  0  0  0  0  0  0
   13.6118  -14.6280   17.4138 C   0  0  1  0  0  0  0  0  0  0  0  0
   14.5014  -15.6613   16.7540 C   0  0  0  0  0  0  0  0  0  0  0  0
   14.1377  -15.8584   15.3268 C   0  0  0  0  0  0  0  0  0  0  0  0
   12.9891  -16.3998   14.7947 C   0  0  0  0  0  0  0  0  0  0  0  0
   13.0332  -16.4072   13.4527 N   0  0  0  0  0  0  0  0  0  0  0  0
   14.2170  -15.8675   13.1201 C   0  0  0  0  0  0  0  0  0  0  0  0
   14.8998  -15.5290   14.2431 N   0  0  0  0  0  0  0  0  0  0  0  0
   13.7919  -14.5952   18.8802 C   0  0  0  0  0  0  0  0  0  0  0  0
   14.7626  -13.9765   19.3867 O   0  0  0  0  0  0  0  0  0  0  0  0
    9.7132  -16.3465   23.5119 N   0  0  0  0  0  0  0  0  0  0  0  0
   10.8535  -15.8057   24.2211 C   0  0  0  0  0  0  0  0  0  0  0  0
   10.7253  -15.7137   25.4504 O   0  0  0  0  0  0  0  0  0  0  0  0
   12.0143  -15.4346   23.4139 C   0  0  0  0  0  0  0  0  0  0  0  0
   11.8127  -15.5174   21.9445 C   0  0  0  0  0  0  0  0  0  0  0  0
   13.0661  -15.1837   21.2059 C   0  0  2  0  0  0  0  0  0  0  0  0
   12.8919  -15.2495   19.7626 N   0  0  0  0  0  0  0  0  0  0  0  0
   14.2132  -16.0355   21.6333 C   0  0  0  0  0  0  0  0  0  0  0  0
   14.2067  -17.2341   21.2663 O   0  0  0  0  0  0  0  0  0  0  0  0
   17.8017  -15.7511   20.8522 C   0  0  0  0  0  0  0  0  0  0  0  0
   17.7009  -15.8820   22.3550 C   0  0  1  0  0  0  0  0  0  0  0  0
   17.8666  -14.6145   22.9404 O   0  0  0  0  0  0  0  0  0  0  0  0
   16.3547  -16.4733   22.7598 C   0  0  2  0  0  0  0  0  0  0  0  0
   15.2780  -15.5642   22.4125 N   0  0  0  0  0  0  0  0  0  0  0  0
   16.3591  -16.7610   24.2177 C   0  0  0  0  0  0  0  0  0  0  0  0
   15.6013  -16.1335   24.9979 O   0  0  0  0  0  0  0  0  0  0  0  0
   17.1918  -17.7282   24.7890 O   0  0  0  0  0  0  0  0  0  0  0  0
  2  1  1  6
  2  3  1  0
  3  4  1  0
  4  8  1  0
  5  4  2  0
  5  6  1  0
  6  7  1  0
  8  7  2  0
  9 10  2  0
  9  2  1  0
 11 12  1  0
 12 13  2  0
 12 14  1  0
 14 15  1  0
 16 15  1  1
 16 17  1  0
 17  9  1  0
 18 24  1  0
 18 16  1  0
 19 18  2  0
 21 20  1  6
 21 22  1  0
 21 23  1  0
 23 24  1  1
 23 25  1  0
 25 27  1  0
 26 25  2  0
M  END
$$$$
