HQT.pdb
     RDKit          3D

 27 27  0  0  1  0  0  0  0  0999 V2000
    7.9838  -17.3512   20.0265 N   0  0  0  0  0  0  0  0  0  0  0  0
    7.9058  -16.0244   20.6164 C   0  0  1  0  0  0  0  0  0  0  0  0
    6.8860  -15.2497   19.8075 C   0  0  0  0  0  0  0  0  0  0  0  0
    7.5261  -14.5223   18.6810 C   0  0  0  0  0  0  0  0  0  0  0  0
    8.8437  -14.5350   18.2819 C   0  0  0  0  0  0  0  0  0  0  0  0
    9.0347  -13.7426   17.2148 N   0  0  0  0  0  0  0  0  0  0  0  0
    7.8329  -13.2175   16.9262 C   0  0  0  0  0  0  0  0  0  0  0  0
    6.9066  -13.6789   17.8043 N   0  0  0  0  0  0  0  0  0  0  0  0
    7.5144  -16.1430   22.0364 C   0  0  0  0  0  0  0  0  0  0  0  0
    6.2995  -16.1603   22.3605 O   0  0  0  0  0  0  0  0  0  0  0  0
    9.9333  -19.5554   26.5727 N   0  0  0  0  0  0  0  0  0  0  0  0
    8.9426  -18.7746   27.2829 C   0  0  0  0  0  0  0  0  0  0  0  0
    8.7634  -19.0874   28.4687 O   0  0  0  0  0  0  0  0  0  0  0  0
    8.2745  -17.7164   26.5277 C   0  0  0  0  0  0  0  0  0  0  0  0
    8.7259  -17.5649   25.1205 C   0  0  0  0  0  0  0  0  0  0  0  0
    8.0763  -16.3910   24.4664 C   0  0  2  0  0  0  0  0  0  0  0  0
    8.4774  -16.2407   23.0756 N   0  0  0  0  0  0  0  0  0  0  0  0
    8.3151  -15.1258   25.2190 C   0  0  0  0  0  0  0  0  0  0  0  0
    9.4329  -14.5762   25.0786 O   0  0  0  0  0  0  0  0  0  0  0  0
    5.8859  -11.9324   25.6081 C   0  0  0  0  0  0  0  0  0  0  0  0
    6.4151  -12.4545   26.9246 C   0  0  1  0  0  0  0  0  0  0  0  0
    5.4253  -13.2405   27.5403 O   0  0  0  0  0  0  0  0  0  0  0  0
    7.6808  -13.2785   26.7129 C   0  0  2  0  0  0  0  0  0  0  0  0
    7.3630  -14.5353   26.0603 N   0  0  0  0  0  0  0  0  0  0  0  0
    8.3441  -13.5113   28.0221 C   0  0  0  0  0  0  0  0  0  0  0  0
    8.5445  -14.6779   28.4415 O   0  0  0  0  0  0  0  0  0  0  0  0
    8.7731  -12.4636   28.8427 O   0  0  0  0  0  0  0  0  0  0  0  0
  2  1  1  6
  2  3  1  0
  3  4  1  0
  4  8  1  0
  5  4  2  0
  5  6  1  0
  6  7  1  0
  8  7  2  0
  9 10  2  0
  9  2  1  0
 11 12  1  0
 12 13  2  0
 12 14  1  0
 14 15  1  0
 16 15  1  1
 16 17  1  0
 17  9  1  0
 18 24  1  0
 18 16  1  0
 19 18  2  0
 21 20  1  6
 21 22  1  0
 21 23  1  0
 23 24  1  1
 23 25  1  0
 25 27  1  0
 26 25  2  0
M  END
$$$$
