HQT.pdb
     RDKit          3D

 27 27  0  0  1  0  0  0  0  0999 V2000
    9.2732  -17.6153   19.8895 N   0  0  0  0  0  0  0  0  0  0  0  0
    8.9434  -16.4221   20.6523 C   0  0  1  0  0  0  0  0  0  0  0  0
    7.6455  -15.8881   20.0822 C   0  0  0  0  0  0  0  0  0  0  0  0
    7.8538  -14.5986   19.3740 C   0  0  0  0  0  0  0  0  0  0  0  0
    9.0123  -13.8686   19.2313 C   0  0  0  0  0  0  0  0  0  0  0  0
    8.7963  -12.7508   18.5193 N   0  0  0  0  0  0  0  0  0  0  0  0
    7.4914  -12.7622   18.2025 C   0  0  0  0  0  0  0  0  0  0  0  0
    6.9043  -13.8747   18.7121 N   0  0  0  0  0  0  0  0  0  0  0  0
    8.8186  -16.7747   22.0819 C   0  0  0  0  0  0  0  0  0  0  0  0
    7.7702  -17.3199   22.5119 O   0  0  0  0  0  0  0  0  0  0  0  0
   12.7776  -19.1822   25.9974 N   0  0  0  0  0  0  0  0  0  0  0  0
   11.8050  -19.8195   25.1351 C   0  0  0  0  0  0  0  0  0  0  0  0
   11.9809  -21.0292   24.9314 O   0  0  0  0  0  0  0  0  0  0  0  0
   10.7368  -18.9713   24.6094 C   0  0  0  0  0  0  0  0  0  0  0  0
   10.8005  -17.5467   25.0258 C   0  0  0  0  0  0  0  0  0  0  0  0
    9.6778  -16.7593   24.4364 C   0  0  2  0  0  0  0  0  0  0  0  0
    9.8595  -16.5170   23.0130 N   0  0  0  0  0  0  0  0  0  0  0  0
    9.4520  -15.4752   25.1606 C   0  0  0  0  0  0  0  0  0  0  0  0
   10.4643  -14.8006   25.4630 O   0  0  0  0  0  0  0  0  0  0  0  0
    6.4825  -11.8967   26.8416 C   0  0  0  0  0  0  0  0  0  0  0  0
    6.6059  -13.2885   26.2644 C   0  0  1  0  0  0  0  0  0  0  0  0
    6.0102  -13.3142   24.9912 O   0  0  0  0  0  0  0  0  0  0  0  0
    8.0689  -13.7081   26.1661 C   0  0  2  0  0  0  0  0  0  0  0  0
    8.1821  -14.9984   25.5114 N   0  0  0  0  0  0  0  0  0  0  0  0
    8.6647  -13.7474   27.5268 C   0  0  0  0  0  0  0  0  0  0  0  0
    8.8118  -14.8380   28.1317 O   0  0  0  0  0  0  0  0  0  0  0  0
    9.0860  -12.5936   28.1949 O   0  0  0  0  0  0  0  0  0  0  0  0
  2  1  1  6
  2  3  1  0
  3  4  1  0
  4  8  1  0
  5  4  2  0
  5  6  1  0
  6  7  1  0
  8  7  2  0
  9 10  2  0
  9  2  1  0
 11 12  1  0
 12 13  2  0
 12 14  1  0
 14 15  1  0
 16 15  1  1
 16 17  1  0
 17  9  1  0
 18 24  1  0
 18 16  1  0
 19 18  2  0
 21 20  1  6
 21 22  1  0
 21 23  1  0
 23 24  1  1
 23 25  1  0
 25 27  1  0
 26 25  2  0
M  END
$$$$
