HQT.pdb
     RDKit          3D

 27 27  0  0  1  0  0  0  0  0999 V2000
    8.5685  -17.1144   19.1379 N   0  0  0  0  0  0  0  0  0  0  0  0
    8.5584  -15.8543   19.8636 C   0  0  1  0  0  0  0  0  0  0  0  0
    7.3868  -15.0562   19.3299 C   0  0  0  0  0  0  0  0  0  0  0  0
    7.6979  -14.4538   18.0078 C   0  0  0  0  0  0  0  0  0  0  0  0
    8.8438  -14.5699   17.2535 C   0  0  0  0  0  0  0  0  0  0  0  0
    8.7441  -13.8734   16.1099 N   0  0  0  0  0  0  0  0  0  0  0  0
    7.5271  -13.3061   16.1290 C   0  0  0  0  0  0  0  0  0  0  0  0
    6.8788  -13.6469   17.2717 N   0  0  0  0  0  0  0  0  0  0  0  0
    8.4330  -16.1247   21.3110 C   0  0  0  0  0  0  0  0  0  0  0  0
    7.4458  -16.7658   21.7537 O   0  0  0  0  0  0  0  0  0  0  0  0
   12.5159  -18.3091   25.1484 N   0  0  0  0  0  0  0  0  0  0  0  0
   11.6894  -18.9073   24.1215 C   0  0  0  0  0  0  0  0  0  0  0  0
   11.9945  -20.0631   23.7941 O   0  0  0  0  0  0  0  0  0  0  0  0
   10.5997  -18.0879   23.5944 C   0  0  0  0  0  0  0  0  0  0  0  0
   10.5022  -16.7222   24.1707 C   0  0  0  0  0  0  0  0  0  0  0  0
    9.2979  -16.0033   23.6603 C   0  0  2  0  0  0  0  0  0  0  0  0
    9.4052  -15.6796   22.2456 N   0  0  0  0  0  0  0  0  0  0  0  0
    8.9966  -14.7781   24.4554 C   0  0  0  0  0  0  0  0  0  0  0  0
    8.8332  -13.7084   23.8227 O   0  0  0  0  0  0  0  0  0  0  0  0
    6.8332  -13.0010   24.6992 C   0  0  0  0  0  0  0  0  0  0  0  0
    6.9991  -13.2558   26.1801 C   0  0  1  0  0  0  0  0  0  0  0  0
    6.1829  -14.3369   26.5563 O   0  0  0  0  0  0  0  0  0  0  0  0
    8.4552  -13.5566   26.5198 C   0  0  2  0  0  0  0  0  0  0  0  0
    8.8900  -14.7699   25.8524 N   0  0  0  0  0  0  0  0  0  0  0  0
    8.6047  -13.6768   27.9934 C   0  0  0  0  0  0  0  0  0  0  0  0
    8.8290  -14.7912   28.5269 O   0  0  0  0  0  0  0  0  0  0  0  0
    8.5054  -12.5760   28.8498 O   0  0  0  0  0  0  0  0  0  0  0  0
  2  1  1  6
  2  3  1  0
  3  4  1  0
  4  8  1  0
  5  4  2  0
  5  6  1  0
  6  7  1  0
  8  7  2  0
  9 10  2  0
  9  2  1  0
 11 12  1  0
 12 13  2  0
 12 14  1  0
 14 15  1  0
 16 15  1  1
 16 17  1  0
 17  9  1  0
 18 24  1  0
 18 16  1  0
 19 18  2  0
 21 20  1  6
 21 22  1  0
 21 23  1  0
 23 24  1  6
 23 25  1  0
 25 27  1  0
 26 25  2  0
M  END
$$$$
