HQT.pdb
     RDKit          3D

 27 27  0  0  1  0  0  0  0  0999 V2000
    8.0252  -17.8933   19.7073 N   0  0  0  0  0  0  0  0  0  0  0  0
    8.2483  -16.6044   20.3424 C   0  0  1  0  0  0  0  0  0  0  0  0
    7.2046  -15.6594   19.7836 C   0  0  0  0  0  0  0  0  0  0  0  0
    7.7785  -14.3157   19.5131 C   0  0  0  0  0  0  0  0  0  0  0  0
    9.0884  -13.9017   19.6028 C   0  0  0  0  0  0  0  0  0  0  0  0
    9.2105  -12.6050   19.2763 N   0  0  0  0  0  0  0  0  0  0  0  0
    7.9718  -12.1829   18.9749 C   0  0  0  0  0  0  0  0  0  0  0  0
    7.0910  -13.2063   19.1129 N   0  0  0  0  0  0  0  0  0  0  0  0
    8.1334  -16.7550   21.8079 C   0  0  0  0  0  0  0  0  0  0  0  0
    7.1566  -17.3691   22.3081 O   0  0  0  0  0  0  0  0  0  0  0  0
   12.3071  -18.7175   25.3999 N   0  0  0  0  0  0  0  0  0  0  0  0
   11.4056  -19.3194   24.4404 C   0  0  0  0  0  0  0  0  0  0  0  0
   11.7089  -20.4603   24.0629 O   0  0  0  0  0  0  0  0  0  0  0  0
   10.2517  -18.5207   24.0315 C   0  0  0  0  0  0  0  0  0  0  0  0
   10.1364  -17.1953   24.6925 C   0  0  0  0  0  0  0  0  0  0  0  0
    8.9963  -16.4094   24.1355 C   0  0  2  0  0  0  0  0  0  0  0  0
    9.1044  -16.2218   22.6965 N   0  0  0  0  0  0  0  0  0  0  0  0
    8.8309  -15.0962   24.8229 C   0  0  0  0  0  0  0  0  0  0  0  0
    9.5766  -14.1578   24.4559 O   0  0  0  0  0  0  0  0  0  0  0  0
    6.1320  -12.4698   25.1887 C   0  0  0  0  0  0  0  0  0  0  0  0
    6.5114  -12.9866   26.5579 C   0  0  1  0  0  0  0  0  0  0  0  0
    5.5701  -13.9483   26.9649 O   0  0  0  0  0  0  0  0  0  0  0  0
    7.9089  -13.5970   26.5402 C   0  0  2  0  0  0  0  0  0  0  0  0
    7.8963  -14.8692   25.8417 N   0  0  0  0  0  0  0  0  0  0  0  0
    8.3951  -13.7602   27.9349 C   0  0  0  0  0  0  0  0  0  0  0  0
    8.6609  -14.8989   28.3927 O   0  0  0  0  0  0  0  0  0  0  0  0
    8.5794  -12.6748   28.7969 O   0  0  0  0  0  0  0  0  0  0  0  0
  2  1  1  6
  2  3  1  0
  3  4  1  0
  4  8  1  0
  5  4  2  0
  5  6  1  0
  6  7  1  0
  8  7  2  0
  9 10  2  0
  9  2  1  0
 11 12  1  0
 12 13  2  0
 12 14  1  0
 14 15  1  0
 16 15  1  1
 16 17  1  0
 17  9  1  0
 18 24  1  0
 18 16  1  0
 19 18  2  0
 21 20  1  6
 21 22  1  0
 21 23  1  0
 23 24  1  1
 23 25  1  0
 25 27  1  0
 26 25  2  0
M  END
$$$$
