HQT.pdb
     RDKit          3D

 27 27  0  0  1  0  0  0  0  0999 V2000
    9.5676  -15.4143   19.8969 N   0  0  0  0  0  0  0  0  0  0  0  0
    8.4966  -14.6140   20.4689 C   0  0  1  0  0  0  0  0  0  0  0  0
    7.2931  -14.7918   19.5664 C   0  0  0  0  0  0  0  0  0  0  0  0
    7.6312  -14.5045   18.1483 C   0  0  0  0  0  0  0  0  0  0  0  0
    8.0247  -13.3149   17.5778 C   0  0  0  0  0  0  0  0  0  0  0  0
    8.2403  -13.4570   16.2602 N   0  0  0  0  0  0  0  0  0  0  0  0
    7.9840  -14.7455   15.9819 C   0  0  0  0  0  0  0  0  0  0  0  0
    7.6134  -15.3956   17.1142 N   0  0  0  0  0  0  0  0  0  0  0  0
    8.2286  -15.0705   21.8486 C   0  0  0  0  0  0  0  0  0  0  0  0
    7.1550  -14.7568   22.4236 O   0  0  0  0  0  0  0  0  0  0  0  0
   11.2596  -19.4520   25.4115 N   0  0  0  0  0  0  0  0  0  0  0  0
   10.3152  -18.8483   26.3276 C   0  0  0  0  0  0  0  0  0  0  0  0
   10.2923  -19.3313   27.4687 O   0  0  0  0  0  0  0  0  0  0  0  0
    9.5057  -17.7481   25.8071 C   0  0  0  0  0  0  0  0  0  0  0  0
    9.7783  -17.3785   24.3943 C   0  0  0  0  0  0  0  0  0  0  0  0
    8.9143  -16.2435   23.9547 C   0  0  2  0  0  0  0  0  0  0  0  0
    9.1561  -15.8684   22.5696 N   0  0  0  0  0  0  0  0  0  0  0  0
    9.0480  -15.0572   24.8486 C   0  0  0  0  0  0  0  0  0  0  0  0
   10.0983  -14.3799   24.7508 O   0  0  0  0  0  0  0  0  0  0  0  0
    6.8062  -11.9695   25.1513 C   0  0  0  0  0  0  0  0  0  0  0  0
    6.9968  -12.6038   26.5103 C   0  0  1  0  0  0  0  0  0  0  0  0
    5.8751  -13.3965   26.8106 O   0  0  0  0  0  0  0  0  0  0  0  0
    8.2620  -13.4549   26.5401 C   0  0  2  0  0  0  0  0  0  0  0  0
    8.0700  -14.6734   25.7755 N   0  0  0  0  0  0  0  0  0  0  0  0
    8.6188  -13.7615   27.9497 C   0  0  0  0  0  0  0  0  0  0  0  0
    8.6470  -14.9476   28.3610 O   0  0  0  0  0  0  0  0  0  0  0  0
    8.9365  -12.7645   28.8770 O   0  0  0  0  0  0  0  0  0  0  0  0
  2  1  1  6
  2  3  1  0
  3  4  1  0
  4  8  1  0
  5  4  2  0
  5  6  1  0
  6  7  1  0
  8  7  2  0
  9 10  2  0
  9  2  1  0
 11 12  1  0
 12 13  2  0
 12 14  1  0
 14 15  1  0
 16 15  1  1
 16 17  1  0
 17  9  1  0
 18 24  1  0
 18 16  1  0
 19 18  2  0
 21 20  1  6
 21 22  1  0
 21 23  1  0
 23 24  1  6
 23 25  1  0
 25 27  1  0
 26 25  2  0
M  END
$$$$
