HQT.pdb
     RDKit          3D

 27 27  0  0  1  0  0  0  0  0999 V2000
    9.5443  -16.2373   15.1452 N   0  0  0  0  0  0  0  0  0  0  0  0
    9.5520  -15.2395   16.2030 C   0  0  1  0  0  0  0  0  0  0  0  0
    8.1513  -15.2074   16.7789 C   0  0  0  0  0  0  0  0  0  0  0  0
    8.0626  -14.2831   17.9389 C   0  0  0  0  0  0  0  0  0  0  0  0
    9.0433  -13.4867   18.4860 C   0  0  0  0  0  0  0  0  0  0  0  0
    8.5738  -12.7898   19.5333 N   0  0  0  0  0  0  0  0  0  0  0  0
    7.2836  -13.1402   19.6602 C   0  0  0  0  0  0  0  0  0  0  0  0
    6.9564  -14.0444   18.7024 N   0  0  0  0  0  0  0  0  0  0  0  0
   10.5611  -15.6098   17.2170 C   0  0  0  0  0  0  0  0  0  0  0  0
   10.6109  -16.7845   17.6634 O   0  0  0  0  0  0  0  0  0  0  0  0
   16.2665  -13.1147   18.0578 N   0  0  0  0  0  0  0  0  0  0  0  0
   16.2073  -14.1371   19.0810 C   0  0  0  0  0  0  0  0  0  0  0  0
   17.2691  -14.3563   19.6813 O   0  0  0  0  0  0  0  0  0  0  0  0
   14.9142  -14.7866   19.2873 C   0  0  0  0  0  0  0  0  0  0  0  0
   13.8105  -14.2798   18.4318 C   0  0  0  0  0  0  0  0  0  0  0  0
   12.5639  -15.0771   18.6267 C   0  0  2  0  0  0  0  0  0  0  0  0
   11.5001  -14.6709   17.7206 N   0  0  0  0  0  0  0  0  0  0  0  0
   12.0891  -15.0402   20.0400 C   0  0  0  0  0  0  0  0  0  0  0  0
   11.7635  -13.9237   20.5076 O   0  0  0  0  0  0  0  0  0  0  0  0
    9.9643  -16.9449   23.9492 C   0  0  0  0  0  0  0  0  0  0  0  0
   10.4355  -17.0605   22.5174 C   0  0  1  0  0  0  0  0  0  0  0  0
    9.3410  -16.8733   21.6551 O   0  0  0  0  0  0  0  0  0  0  0  0
   11.5199  -16.0308   22.2175 C   0  0  2  0  0  0  0  0  0  0  0  0
   11.9928  -16.1771   20.8532 N   0  0  0  0  0  0  0  0  0  0  0  0
   12.6345  -16.1897   23.1873 C   0  0  0  0  0  0  0  0  0  0  0  0
   13.6493  -16.8683   22.8931 O   0  0  0  0  0  0  0  0  0  0  0  0
   12.6142  -15.6030   24.4563 O   0  0  0  0  0  0  0  0  0  0  0  0
  2  1  1  6
  2  3  1  0
  3  4  1  0
  4  8  1  0
  5  4  2  0
  5  6  1  0
  6  7  1  0
  8  7  2  0
  9 10  2  0
  9  2  1  0
 11 12  1  0
 12 13  2  0
 12 14  1  0
 14 15  1  0
 16 15  1  1
 16 17  1  0
 17  9  1  0
 18 24  1  0
 18 16  1  0
 19 18  2  0
 21 20  1  1
 21 22  1  0
 21 23  1  0
 23 24  1  6
 23 25  1  0
 25 27  1  0
 26 25  2  0
M  END
$$$$
