NHM.pdb
     RDKit          3D

 27 27  0  0  1  0  0  0  0  0999 V2000
   17.1317  -12.8606  -15.4701 N   0  0  0  0  0  0  0  0  0  0  0  0
   16.0061  -12.0889  -15.1143 C   0  0  0  0  0  0  0  0  0  0  0  0
   14.8583  -12.4886  -15.3681 O   0  0  0  0  0  0  0  0  0  0  0  0
   16.2253  -10.7943  -14.4326 C   0  0  0  0  0  0  0  0  0  0  0  0
   17.6906  -10.6125  -14.1069 C   0  0  2  0  0  0  0  0  0  0  0  0
   18.1490  -11.4841  -13.1132 N   0  0  0  0  0  0  0  0  0  0  0  0
   17.8812   -9.1978  -13.6889 C   0  0  0  0  0  0  0  0  0  0  0  0
   17.6206   -8.3089  -14.5532 O   0  0  0  0  0  0  0  0  0  0  0  0
   18.3322   -8.9103  -12.3823 N   0  0  0  0  0  0  0  0  0  0  0  0
   18.4935   -7.5257  -11.9714 C   0  0  1  0  0  0  0  0  0  0  0  0
   18.2668   -7.3587  -10.5057 C   0  0  0  0  0  0  0  0  0  0  0  0
   16.8292   -7.4400  -10.1835 C   0  0  0  0  0  0  0  0  0  0  0  0
   15.7453   -7.5133  -11.0444 C   0  0  0  0  0  0  0  0  0  0  0  0
   14.5836   -7.5414  -10.3673 N   0  0  0  0  0  0  0  0  0  0  0  0
   14.9341   -7.4852   -9.0710 C   0  0  0  0  0  0  0  0  0  0  0  0
   16.2594   -7.4245   -8.9389 N   0  0  0  0  0  0  0  0  0  0  0  0
   19.8613   -7.1075  -12.3302 C   0  0  0  0  0  0  0  0  0  0  0  0
   20.8193   -7.8928  -12.3641 O   0  0  0  0  0  0  0  0  0  0  0  0
   23.7124   -6.1221  -18.2707 C   0  0  0  0  0  0  0  0  0  0  0  0
   22.3611   -6.5478  -17.1659 S   0  0  0  0  0  0  0  0  0  0  0  0
   22.4375   -5.6491  -15.6054 C   0  0  0  0  0  0  0  0  0  0  0  0
   21.2787   -6.0236  -14.7375 C   0  0  0  0  0  0  0  0  0  0  0  0
   21.3020   -5.3242  -13.3971 C   0  0  2  0  0  0  0  0  0  0  0  0
   20.1268   -5.7446  -12.6581 N   0  0  0  0  0  0  0  0  0  0  0  0
   21.3565   -3.8714  -13.5089 C   0  0  0  0  0  0  0  0  0  0  0  0
   22.5713   -3.2177  -13.4375 O   0  0  0  0  0  0  0  0  0  0  0  0
   20.3172   -3.1939  -13.6699 O   0  0  0  0  0  0  0  0  0  0  0  0
  1  2  1  0
  2  3  2  0
  4  2  1  0
  5  4  1  0
  5  6  1  1
  7  5  1  0
  7  8  2  0
  9  7  1  0
 10  9  1  0
 10 11  1  1
 11 12  1  0
 12 16  1  0
 13 12  2  0
 13 14  1  0
 14 15  1  0
 16 15  2  0
 17 10  1  0
 18 17  2  0
 20 19  1  0
 21 20  1  0
 22 21  1  0
 23 22  1  6
 23 24  1  0
 24 17  1  0
 25 23  1  0
 26 25  1  0
 27 25  2  0
M  END
$$$$
