NHM.pdb
     RDKit          3D

 27 27  0  0  1  0  0  0  0  0999 V2000
   15.7109  -12.8376  -17.1889 N   0  0  0  0  0  0  0  0  0  0  0  0
   15.3007  -12.7443  -15.8428 C   0  0  0  0  0  0  0  0  0  0  0  0
   14.8142  -13.7266  -15.2596 O   0  0  0  0  0  0  0  0  0  0  0  0
   15.4637  -11.4508  -15.1437 C   0  0  0  0  0  0  0  0  0  0  0  0
   16.1204  -10.4390  -16.0553 C   0  0  2  0  0  0  0  0  0  0  0  0
   17.4721  -10.7067  -16.2968 N   0  0  0  0  0  0  0  0  0  0  0  0
   15.9576   -9.1012  -15.4256 C   0  0  0  0  0  0  0  0  0  0  0  0
   14.7703   -8.6949  -15.2512 O   0  0  0  0  0  0  0  0  0  0  0  0
   17.1007   -8.3587  -15.0579 N   0  0  0  0  0  0  0  0  0  0  0  0
   16.9356   -7.0647  -14.4174 C   0  0  1  0  0  0  0  0  0  0  0  0
   17.7598   -6.9573  -13.1777 C   0  0  0  0  0  0  0  0  0  0  0  0
   17.0553   -7.5506  -12.0251 C   0  0  0  0  0  0  0  0  0  0  0  0
   15.7531   -8.0190  -11.9456 C   0  0  0  0  0  0  0  0  0  0  0  0
   15.4663   -8.4598  -10.7078 N   0  0  0  0  0  0  0  0  0  0  0  0
   16.5928   -8.2690   -9.9998 C   0  0  0  0  0  0  0  0  0  0  0  0
   17.5469   -7.7314  -10.7603 N   0  0  0  0  0  0  0  0  0  0  0  0
   17.3325   -6.0290  -15.3891 C   0  0  0  0  0  0  0  0  0  0  0  0
   18.3234   -6.1394  -16.1250 O   0  0  0  0  0  0  0  0  0  0  0  0
   14.3580    0.1602  -19.3395 C   0  0  0  0  0  0  0  0  0  0  0  0
   14.2346   -1.0798  -18.0452 S   0  0  0  0  0  0  0  0  0  0  0  0
   15.7899   -1.9489  -17.7728 C   0  0  0  0  0  0  0  0  0  0  0  0
   15.5869   -3.0820  -16.8181 C   0  0  0  0  0  0  0  0  0  0  0  0
   16.8775   -3.7851  -16.4625 C   0  0  2  0  0  0  0  0  0  0  0  0
   16.5622   -4.8344  -15.5118 N   0  0  0  0  0  0  0  0  0  0  0  0
   17.8931   -2.8851  -15.9290 C   0  0  0  0  0  0  0  0  0  0  0  0
   18.7799   -2.2595  -16.7836 O   0  0  0  0  0  0  0  0  0  0  0  0
   17.9822   -2.6626  -14.7011 O   0  0  0  0  0  0  0  0  0  0  0  0
  1  2  1  0
  2  3  2  0
  4  2  1  0
  5  4  1  0
  5  6  1  1
  7  5  1  0
  7  8  2  0
  9  7  1  0
 10  9  1  0
 10 11  1  1
 11 12  1  0
 12 16  1  0
 13 12  2  0
 13 14  1  0
 14 15  1  0
 16 15  2  0
 17 10  1  0
 18 17  2  0
 20 19  1  0
 21 20  1  0
 22 21  1  0
 23 22  1  1
 23 24  1  0
 24 17  1  0
 25 23  1  0
 26 25  1  0
 27 25  2  0
M  END
$$$$
