NHM.pdb
     RDKit          3D

 27 27  0  0  1  0  0  0  0  0999 V2000
   10.4794  -18.5320   -2.9722 N   0  0  0  0  0  0  0  0  0  0  0  0
    9.9071  -18.8028   -1.7120 C   0  0  0  0  0  0  0  0  0  0  0  0
    9.0839  -18.0210   -1.2091 O   0  0  0  0  0  0  0  0  0  0  0  0
   10.3102  -20.0381   -1.0049 C   0  0  0  0  0  0  0  0  0  0  0  0
   11.3344  -20.7988   -1.8166 C   0  0  2  0  0  0  0  0  0  0  0  0
   10.7641  -21.6817   -2.7398 N   0  0  0  0  0  0  0  0  0  0  0  0
   12.2038  -21.5340   -0.8594 C   0  0  0  0  0  0  0  0  0  0  0  0
   11.6240  -22.3180   -0.0506 O   0  0  0  0  0  0  0  0  0  0  0  0
   13.6010  -21.3341   -0.8898 N   0  0  0  0  0  0  0  0  0  0  0  0
   14.4502  -22.0926    0.0133 C   0  0  1  0  0  0  0  0  0  0  0  0
   15.7577  -22.4341   -0.6206 C   0  0  0  0  0  0  0  0  0  0  0  0
   15.5914  -23.4998   -1.6272 C   0  0  0  0  0  0  0  0  0  0  0  0
   15.4306  -24.8632   -1.4355 C   0  0  0  0  0  0  0  0  0  0  0  0
   15.3426  -25.5153   -2.6084 N   0  0  0  0  0  0  0  0  0  0  0  0
   15.4486  -24.5596   -3.5476 C   0  0  0  0  0  0  0  0  0  0  0  0
   15.5968  -23.3582   -2.9888 N   0  0  0  0  0  0  0  0  0  0  0  0
   14.6636  -21.2750    1.2217 C   0  0  0  0  0  0  0  0  0  0  0  0
   14.8039  -20.0442    1.1868 O   0  0  0  0  0  0  0  0  0  0  0  0
   13.0920  -20.8779    8.8888 C   0  0  0  0  0  0  0  0  0  0  0  0
   13.0673  -21.7567    7.3220 S   0  0  0  0  0  0  0  0  0  0  0  0
   14.2052  -21.0488    6.1167 C   0  0  0  0  0  0  0  0  0  0  0  0
   14.0579  -21.7419    4.7997 C   0  0  0  0  0  0  0  0  0  0  0  0
   14.9573  -21.1632    3.7307 C   0  0  2  0  0  0  0  0  0  0  0  0
   14.7160  -21.8985    2.5038 N   0  0  0  0  0  0  0  0  0  0  0  0
   16.3701  -21.1962    4.0900 C   0  0  0  0  0  0  0  0  0  0  0  0
   16.8930  -20.2301    4.9276 O   0  0  0  0  0  0  0  0  0  0  0  0
   17.1298  -22.0889    3.6530 O   0  0  0  0  0  0  0  0  0  0  0  0
  1  2  1  0
  2  3  2  0
  4  2  1  0
  5  4  1  0
  5  6  1  6
  7  5  1  0
  7  8  2  0
  9  7  1  0
 10  9  1  0
 10 11  1  6
 11 12  1  0
 12 16  1  0
 13 12  2  0
 13 14  1  0
 14 15  1  0
 16 15  2  0
 17 10  1  0
 18 17  2  0
 20 19  1  0
 21 20  1  0
 22 21  1  0
 23 22  1  1
 23 24  1  0
 24 17  1  0
 25 23  1  0
 26 25  1  0
 27 25  2  0
M  END
$$$$
