NHM.pdb
     RDKit          3D

 27 27  0  0  1  0  0  0  0  0999 V2000
   21.2887  -12.0251  -22.0942 N   0  0  0  0  0  0  0  0  0  0  0  0
   20.2835  -11.1175  -22.4875 C   0  0  0  0  0  0  0  0  0  0  0  0
   19.8140  -11.1513  -23.6365 O   0  0  0  0  0  0  0  0  0  0  0  0
   19.8027  -10.1261  -21.5003 C   0  0  0  0  0  0  0  0  0  0  0  0
   20.5042  -10.3204  -20.1750 C   0  0  2  0  0  0  0  0  0  0  0  0
   20.1241  -11.4933  -19.5142 N   0  0  0  0  0  0  0  0  0  0  0  0
   20.2074   -9.1287  -19.3357 C   0  0  0  0  0  0  0  0  0  0  0  0
   20.5788   -8.0058  -19.7899 O   0  0  0  0  0  0  0  0  0  0  0  0
   19.5423   -9.2922  -18.1012 N   0  0  0  0  0  0  0  0  0  0  0  0
   19.2389   -8.1227  -17.2935 C   0  0  1  0  0  0  0  0  0  0  0  0
   18.1070   -8.3825  -16.3559 C   0  0  0  0  0  0  0  0  0  0  0  0
   18.3090   -9.6487  -15.6261 C   0  0  0  0  0  0  0  0  0  0  0  0
   19.2971  -10.6058  -15.7968 C   0  0  0  0  0  0  0  0  0  0  0  0
   19.1249  -11.6421  -14.9572 N   0  0  0  0  0  0  0  0  0  0  0  0
   18.0216  -11.3397  -14.2515 C   0  0  0  0  0  0  0  0  0  0  0  0
   17.5219  -10.1634  -14.6313 N   0  0  0  0  0  0  0  0  0  0  0  0
   20.4570   -7.7679  -16.5420 C   0  0  0  0  0  0  0  0  0  0  0  0
   21.4090   -8.5475  -16.3943 O   0  0  0  0  0  0  0  0  0  0  0  0
   26.9407   -4.7023  -16.8536 C   0  0  0  0  0  0  0  0  0  0  0  0
   25.3324   -5.3257  -17.3561 S   0  0  0  0  0  0  0  0  0  0  0  0
   24.1659   -5.4085  -15.9845 C   0  0  0  0  0  0  0  0  0  0  0  0
   22.8559   -5.9559  -16.4542 C   0  0  0  0  0  0  0  0  0  0  0  0
   21.8101   -5.9870  -15.3625 C   0  0  2  0  0  0  0  0  0  0  0  0
   20.5759   -6.4773  -15.9459 N   0  0  0  0  0  0  0  0  0  0  0  0
   21.6078   -4.6915  -14.7248 C   0  0  0  0  0  0  0  0  0  0  0  0
   22.4816   -4.2586  -13.7463 O   0  0  0  0  0  0  0  0  0  0  0  0
   20.6504   -3.9530  -15.0459 O   0  0  0  0  0  0  0  0  0  0  0  0
  1  2  1  0
  2  3  2  0
  4  2  1  0
  5  4  1  0
  5  6  1  1
  7  5  1  0
  7  8  2  0
  9  7  1  0
 10  9  1  0
 10 11  1  1
 11 12  1  0
 12 16  1  0
 13 12  2  0
 13 14  1  0
 14 15  1  0
 16 15  2  0
 17 10  1  0
 18 17  2  0
 20 19  1  0
 21 20  1  0
 22 21  1  0
 23 22  1  6
 23 24  1  0
 24 17  1  0
 25 23  1  0
 26 25  1  0
 27 25  2  0
M  END
$$$$
