NHM.pdb
     RDKit          3D

 27 27  0  0  1  0  0  0  0  0999 V2000
 -658.4586  -62.6630 2922.4326 N   0  0  0  0  0  0  0  0  0  0  0  0
 -658.9017  -62.1341 2921.2034 C   0  0  0  0  0  0  0  0  0  0  0  0
 -658.2234  -62.2739 2920.1738 O   0  0  0  0  0  0  0  0  0  0  0  0
 -660.1917  -61.4115 2921.1704 C   0  0  0  0  0  0  0  0  0  0  0  0
 -659.9578  -59.9173 2921.1626 C   0  0  2  0  0  0  0  0  0  0  0  0
 -660.8937  -59.2147 2920.3962 N   0  0  0  0  0  0  0  0  0  0  0  0
 -658.5820  -59.6855 2920.6467 C   0  0  0  0  0  0  0  0  0  0  0  0
 -658.2818  -58.4932 2920.3413 O   0  0  0  0  0  0  0  0  0  0  0  0
 -657.6904  -60.7731 2920.5225 N   0  0  0  0  0  0  0  0  0  0  0  0
 -657.2646  -61.1994 2919.2009 C   0  0  1  0  0  0  0  0  0  0  0  0
 -656.3325  -62.3621 2919.2720 C   0  0  0  0  0  0  0  0  0  0  0  0
 -655.3945  -62.3558 2918.1333 C   0  0  0  0  0  0  0  0  0  0  0  0
 -654.0696  -62.7615 2918.0920 C   0  0  0  0  0  0  0  0  0  0  0  0
 -653.5375  -62.5704 2916.8706 N   0  0  0  0  0  0  0  0  0  0  0  0
 -654.5307  -62.0419 2916.1360 C   0  0  0  0  0  0  0  0  0  0  0  0
 -655.6403  -61.9058 2916.8635 N   0  0  0  0  0  0  0  0  0  0  0  0
 -658.4726  -61.5564 2918.4329 C   0  0  0  0  0  0  0  0  0  0  0  0
 -659.1583  -62.5580 2918.6829 O   0  0  0  0  0  0  0  0  0  0  0  0
 -660.0204  -57.4856 2913.0857 C   0  0  0  0  0  0  0  0  0  0  0  0
 -659.5950  -58.8555 2914.1677 S   0  0  0  0  0  0  0  0  0  0  0  0
 -660.1733  -58.6034 2915.8572 C   0  0  0  0  0  0  0  0  0  0  0  0
 -659.0098  -58.4111 2916.7766 C   0  0  0  0  0  0  0  0  0  0  0  0
 -658.1094  -59.6242 2916.8428 C   0  0  2  0  0  0  0  0  0  0  0  0
 -658.8967  -60.7324 2917.3489 N   0  0  0  0  0  0  0  0  0  0  0  0
 -656.9199  -59.4135 2917.6589 C   0  0  0  0  0  0  0  0  0  0  0  0
 -656.5422  -60.3632 2918.5884 O   0  0  0  0  0  0  0  0  0  0  0  0
 -656.2244  -58.3812 2917.5364 O   0  0  0  0  0  0  0  0  0  0  0  0
  1  2  1  0
  2  3  2  0
  4  2  1  0
  5  4  1  0
  5  6  1  6
  7  5  1  0
  7  8  2  0
  9  7  1  0
 10  9  1  0
 10 11  1  1
 11 12  1  0
 12 16  1  0
 13 12  2  0
 13 14  1  0
 14 15  1  0
 16 15  2  0
 17 10  1  0
 18 17  2  0
 20 19  1  0
 21 20  1  0
 22 21  1  0
 23 22  1  1
 23 24  1  0
 24 17  1  0
 25 23  1  0
 26 25  1  0
 27 25  2  0
M  END
$$$$
