NHM.pdb
     RDKit          3D

 27 27  0  0  1  0  0  0  0  0999 V2000
   21.4799  -17.9281  -16.7426 N   0  0  0  0  0  0  0  0  0  0  0  0
   22.3823  -18.3324  -17.7483 C   0  0  0  0  0  0  0  0  0  0  0  0
   22.2112  -17.9872  -18.9287 O   0  0  0  0  0  0  0  0  0  0  0  0
   23.5353  -19.1757  -17.3639 C   0  0  0  0  0  0  0  0  0  0  0  0
   23.4554  -19.5402  -15.8986 C   0  0  2  0  0  0  0  0  0  0  0  0
   23.1536  -18.4519  -15.0731 N   0  0  0  0  0  0  0  0  0  0  0  0
   24.7629  -20.1381  -15.5170 C   0  0  0  0  0  0  0  0  0  0  0  0
   25.1082  -21.1910  -16.1312 O   0  0  0  0  0  0  0  0  0  0  0  0
   25.5446  -19.5255  -14.5136 N   0  0  0  0  0  0  0  0  0  0  0  0
   26.8504  -20.0758  -14.1908 C   0  0  1  0  0  0  0  0  0  0  0  0
   27.9110  -19.0262  -14.2231 C   0  0  0  0  0  0  0  0  0  0  0  0
   28.2005  -18.6139  -15.6099 C   0  0  0  0  0  0  0  0  0  0  0  0
   27.6506  -19.0838  -16.7923 C   0  0  0  0  0  0  0  0  0  0  0  0
   28.1984  -18.4787  -17.8612 N   0  0  0  0  0  0  0  0  0  0  0  0
   29.1001  -17.6215  -17.3527 C   0  0  0  0  0  0  0  0  0  0  0  0
   29.1182  -17.6850  -16.0210 N   0  0  0  0  0  0  0  0  0  0  0  0
   26.7642  -20.6773  -12.8472 C   0  0  0  0  0  0  0  0  0  0  0  0
   27.6796  -21.3476  -12.3487 O   0  0  0  0  0  0  0  0  0  0  0  0
   29.4025  -20.8965   -8.0309 C   0  0  0  0  0  0  0  0  0  0  0  0
   27.8222  -20.2337   -7.4917 S   0  0  0  0  0  0  0  0  0  0  0  0
   26.4381  -20.8966   -8.4369 C   0  0  0  0  0  0  0  0  0  0  0  0
   26.5686  -20.5170   -9.8775 C   0  0  0  0  0  0  0  0  0  0  0  0
   25.4371  -21.0497  -10.7273 C   0  0  2  0  0  0  0  0  0  0  0  0
   25.5876  -20.4984  -12.0606 N   0  0  0  0  0  0  0  0  0  0  0  0
   24.1188  -20.7468  -10.1828 C   0  0  0  0  0  0  0  0  0  0  0  0
   23.7292  -21.2891   -8.9734 O   0  0  0  0  0  0  0  0  0  0  0  0
   23.3219  -19.9986  -10.7913 O   0  0  0  0  0  0  0  0  0  0  0  0
  1  2  1  0
  2  3  2  0
  4  2  1  0
  5  4  1  0
  5  6  1  1
  7  5  1  0
  7  8  2  0
  9  7  1  0
 10  9  1  0
 10 11  1  1
 11 12  1  0
 12 16  1  0
 13 12  2  0
 13 14  1  0
 14 15  1  0
 16 15  2  0
 17 10  1  0
 18 17  2  0
 20 19  1  0
 21 20  1  0
 22 21  1  0
 23 22  1  1
 23 24  1  0
 24 17  1  0
 25 23  1  0
 26 25  1  0
 27 25  2  0
M  END
$$$$
