NHM.pdb
     RDKit          3D

 27 27  0  0  1  0  0  0  0  0999 V2000
   21.0280  -11.7241  -21.5345 N   0  0  0  0  0  0  0  0  0  0  0  0
   20.0598  -11.2884  -20.6061 C   0  0  0  0  0  0  0  0  0  0  0  0
   18.8525  -11.5015  -20.8030 O   0  0  0  0  0  0  0  0  0  0  0  0
   20.5162  -10.5729  -19.3943 C   0  0  0  0  0  0  0  0  0  0  0  0
   21.6011  -11.3607  -18.6953 C   0  0  2  0  0  0  0  0  0  0  0  0
   21.1518  -12.5782  -18.1729 N   0  0  0  0  0  0  0  0  0  0  0  0
   22.1498  -10.4993  -17.6139 C   0  0  0  0  0  0  0  0  0  0  0  0
   21.5017  -10.4698  -16.5257 O   0  0  0  0  0  0  0  0  0  0  0  0
   23.3376   -9.7696  -17.8373 N   0  0  0  0  0  0  0  0  0  0  0  0
   23.7978   -8.8292  -16.8293 C   0  0  1  0  0  0  0  0  0  0  0  0
   25.2765   -8.6374  -16.8928 C   0  0  0  0  0  0  0  0  0  0  0  0
   25.9841   -9.8606  -16.4684 C   0  0  0  0  0  0  0  0  0  0  0  0
   25.4597  -11.0429  -15.9697 C   0  0  0  0  0  0  0  0  0  0  0  0
   26.4329  -11.9194  -15.6642 N   0  0  0  0  0  0  0  0  0  0  0  0
   27.5794  -11.2884  -15.9707 C   0  0  0  0  0  0  0  0  0  0  0  0
   27.3371  -10.0675  -16.4485 N   0  0  0  0  0  0  0  0  0  0  0  0
   23.1036   -7.5489  -17.0598 C   0  0  0  0  0  0  0  0  0  0  0  0
   22.7719   -7.1552  -18.1871 O   0  0  0  0  0  0  0  0  0  0  0  0
   16.9183   -3.9495  -17.5228 C   0  0  0  0  0  0  0  0  0  0  0  0
   18.1128   -5.2859  -17.4001 S   0  0  0  0  0  0  0  0  0  0  0  0
   19.6997   -4.7343  -16.7474 C   0  0  0  0  0  0  0  0  0  0  0  0
   20.6562   -5.8819  -16.6794 C   0  0  0  0  0  0  0  0  0  0  0  0
   21.9937   -5.4941  -16.0903 C   0  0  2  0  0  0  0  0  0  0  0  0
   22.7853   -6.7022  -15.9566 N   0  0  0  0  0  0  0  0  0  0  0  0
   21.8786   -4.8011  -14.8125 C   0  0  0  0  0  0  0  0  0  0  0  0
   21.5263   -3.4658  -14.7797 O   0  0  0  0  0  0  0  0  0  0  0  0
   22.0936   -5.3934  -13.7318 O   0  0  0  0  0  0  0  0  0  0  0  0
  1  2  1  0
  2  3  2  0
  4  2  1  0
  5  4  1  0
  5  6  1  1
  7  5  1  0
  7  8  2  0
  9  7  1  0
 10  9  1  0
 10 11  1  6
 11 12  1  0
 12 16  1  0
 13 12  2  0
 13 14  1  0
 14 15  1  0
 16 15  2  0
 17 10  1  0
 18 17  2  0
 20 19  1  0
 21 20  1  0
 22 21  1  0
 23 22  1  1
 23 24  1  0
 24 17  1  0
 25 23  1  0
 26 25  1  0
 27 25  2  0
M  END
$$$$
