NHM.pdb
     RDKit          3D

 27 27  0  0  1  0  0  0  0  0999 V2000
   29.9834  -20.3289  -19.2142 N   0  0  0  0  0  0  0  0  0  0  0  0
   29.9154  -18.9366  -18.9993 C   0  0  0  0  0  0  0  0  0  0  0  0
   30.5845  -18.1551  -19.6943 O   0  0  0  0  0  0  0  0  0  0  0  0
   29.0293  -18.4308  -17.9281 C   0  0  0  0  0  0  0  0  0  0  0  0
   28.4106  -19.5828  -17.1690 C   0  0  2  0  0  0  0  0  0  0  0  0
   27.5002  -20.3226  -17.9311 N   0  0  0  0  0  0  0  0  0  0  0  0
   27.7448  -19.0162  -15.9655 C   0  0  0  0  0  0  0  0  0  0  0  0
   28.4505  -18.2713  -15.2223 O   0  0  0  0  0  0  0  0  0  0  0  0
   26.3911  -19.3226  -15.7071 N   0  0  0  0  0  0  0  0  0  0  0  0
   25.7294  -18.7211  -14.5614 C   0  0  1  0  0  0  0  0  0  0  0  0
   24.4563  -18.0484  -14.9544 C   0  0  0  0  0  0  0  0  0  0  0  0
   24.7273  -16.7788  -15.6555 C   0  0  0  0  0  0  0  0  0  0  0  0
   24.9864  -15.5259  -15.1221 C   0  0  0  0  0  0  0  0  0  0  0  0
   25.1520  -14.6068  -16.0898 N   0  0  0  0  0  0  0  0  0  0  0  0
   24.9965  -15.2813  -17.2419 C   0  0  0  0  0  0  0  0  0  0  0  0
   24.7441  -16.5695  -17.0083 N   0  0  0  0  0  0  0  0  0  0  0  0
   25.4635  -19.7921  -13.5833 C   0  0  0  0  0  0  0  0  0  0  0  0
   25.0059  -20.8986  -13.9030 O   0  0  0  0  0  0  0  0  0  0  0  0
   28.5864  -20.4824   -7.5943 C   0  0  0  0  0  0  0  0  0  0  0  0
   26.8130  -20.5069   -7.3077 S   0  0  0  0  0  0  0  0  0  0  0  0
   25.8879  -21.0463   -8.7575 C   0  0  0  0  0  0  0  0  0  0  0  0
   26.1651  -20.1385   -9.9131 C   0  0  0  0  0  0  0  0  0  0  0  0
   25.4492  -20.5635  -11.1753 C   0  0  2  0  0  0  0  0  0  0  0  0
   25.7341  -19.5764  -12.1993 N   0  0  0  0  0  0  0  0  0  0  0  0
   24.0118  -20.7264  -10.9925 C   0  0  0  0  0  0  0  0  0  0  0  0
   23.1500  -19.7064  -11.3465 O   0  0  0  0  0  0  0  0  0  0  0  0
   23.5337  -21.7801  -10.5170 O   0  0  0  0  0  0  0  0  0  0  0  0
  1  2  1  0
  2  3  2  0
  4  2  1  0
  5  4  1  0
  5  6  1  6
  7  5  1  0
  7  8  2  0
  9  7  1  0
 10  9  1  0
 10 11  1  6
 11 12  1  0
 12 16  1  0
 13 12  2  0
 13 14  1  0
 14 15  1  0
 16 15  2  0
 17 10  1  0
 18 17  2  0
 20 19  1  0
 21 20  1  0
 22 21  1  0
 23 22  1  1
 23 24  1  0
 24 17  1  0
 25 23  1  0
 26 25  1  0
 27 25  2  0
M  END
$$$$
