NHM.pdb
     RDKit          3D

 27 27  0  0  1  0  0  0  0  0999 V2000
   24.3551  -20.0330  -18.6494 N   0  0  0  0  0  0  0  0  0  0  0  0
   23.0915  -20.3973  -18.1396 C   0  0  0  0  0  0  0  0  0  0  0  0
   22.2062  -19.5431  -17.9715 O   0  0  0  0  0  0  0  0  0  0  0  0
   22.8466  -21.8187  -17.8107 C   0  0  0  0  0  0  0  0  0  0  0  0
   24.1014  -22.6334  -18.0303 C   0  0  2  0  0  0  0  0  0  0  0  0
   24.4437  -22.7697  -19.3799 N   0  0  0  0  0  0  0  0  0  0  0  0
   23.8797  -23.9674  -17.4107 C   0  0  0  0  0  0  0  0  0  0  0  0
   23.2216  -24.8091  -18.0916 O   0  0  0  0  0  0  0  0  0  0  0  0
   24.3970  -24.2345  -16.1245 N   0  0  0  0  0  0  0  0  0  0  0  0
   24.1836  -25.5420  -15.5268 C   0  0  1  0  0  0  0  0  0  0  0  0
   25.4382  -26.0806  -14.9239 C   0  0  0  0  0  0  0  0  0  0  0  0
   26.3871  -26.5011  -15.9725 C   0  0  0  0  0  0  0  0  0  0  0  0
   26.1952  -26.5760  -17.3433 C   0  0  0  0  0  0  0  0  0  0  0  0
   27.2936  -27.0379  -17.9667 N   0  0  0  0  0  0  0  0  0  0  0  0
   28.1856  -27.2569  -16.9853 C   0  0  0  0  0  0  0  0  0  0  0  0
   27.6696  -26.9458  -15.7959 N   0  0  0  0  0  0  0  0  0  0  0  0
   23.1388  -25.3992  -14.4962 C   0  0  0  0  0  0  0  0  0  0  0  0
   22.9506  -24.3476  -13.8680 O   0  0  0  0  0  0  0  0  0  0  0  0
   16.2509  -23.8277  -13.2596 C   0  0  0  0  0  0  0  0  0  0  0  0
   17.8237  -24.0557  -14.0977 S   0  0  0  0  0  0  0  0  0  0  0  0
   18.8890  -25.2397  -13.2539 C   0  0  0  0  0  0  0  0  0  0  0  0
   20.1856  -25.3795  -13.9859 C   0  0  0  0  0  0  0  0  0  0  0  0
   21.1155  -26.3826  -13.3414 C   0  0  2  0  0  0  0  0  0  0  0  0
   22.2899  -26.5026  -14.1845 N   0  0  0  0  0  0  0  0  0  0  0  0
   20.4941  -27.6835  -13.1235 C   0  0  0  0  0  0  0  0  0  0  0  0
   19.7153  -27.8985  -12.0030 O   0  0  0  0  0  0  0  0  0  0  0  0
   20.6507  -28.6215  -13.9364 O   0  0  0  0  0  0  0  0  0  0  0  0
  1  2  1  0
  2  3  2  0
  4  2  1  0
  5  4  1  0
  5  6  1  6
  7  5  1  0
  7  8  2  0
  9  7  1  0
 10  9  1  0
 10 11  1  1
 11 12  1  0
 12 16  1  0
 13 12  2  0
 13 14  1  0
 14 15  1  0
 16 15  2  0
 17 10  1  0
 18 17  2  0
 20 19  1  0
 21 20  1  0
 22 21  1  0
 23 22  1  6
 23 24  1  0
 24 17  1  0
 25 23  1  0
 26 25  1  0
 27 25  2  0
M  END
$$$$
