NHM.pdb
     RDKit          3D

 27 27  0  0  1  0  0  0  0  0999 V2000
   23.4224  -31.9548  -10.4013 N   0  0  0  0  0  0  0  0  0  0  0  0
   24.2135  -33.1202  -10.4726 C   0  0  0  0  0  0  0  0  0  0  0  0
   24.2588  -33.7921  -11.5158 O   0  0  0  0  0  0  0  0  0  0  0  0
   24.9866  -33.5222   -9.2771 C   0  0  0  0  0  0  0  0  0  0  0  0
   24.7108  -32.5769   -8.1297 C   0  0  2  0  0  0  0  0  0  0  0  0
   25.5179  -31.4345   -8.1474 N   0  0  0  0  0  0  0  0  0  0  0  0
   24.9117  -33.3385   -6.8678 C   0  0  0  0  0  0  0  0  0  0  0  0
   24.1807  -34.3590   -6.6963 O   0  0  0  0  0  0  0  0  0  0  0  0
   25.8818  -32.9057   -5.9379 N   0  0  0  0  0  0  0  0  0  0  0  0
   26.0031  -33.5909   -4.6620 C   0  0  1  0  0  0  0  0  0  0  0  0
   27.3325  -33.3426   -4.0305 C   0  0  0  0  0  0  0  0  0  0  0  0
   28.4064  -34.0193   -4.7826 C   0  0  0  0  0  0  0  0  0  0  0  0
   28.3037  -34.9872   -5.7695 C   0  0  0  0  0  0  0  0  0  0  0  0
   29.5165  -35.3835   -6.1945 N   0  0  0  0  0  0  0  0  0  0  0  0
   30.3917  -34.6629   -5.4724 C   0  0  0  0  0  0  0  0  0  0  0  0
   29.7560  -33.8484   -4.6297 N   0  0  0  0  0  0  0  0  0  0  0  0
   24.9203  -33.1052   -3.7870 C   0  0  0  0  0  0  0  0  0  0  0  0
   24.3745  -32.0029   -3.9382 O   0  0  0  0  0  0  0  0  0  0  0  0
   18.7940  -34.7713   -3.4351 C   0  0  0  0  0  0  0  0  0  0  0  0
   19.4390  -33.1355   -3.0664 S   0  0  0  0  0  0  0  0  0  0  0  0
   20.8616  -33.1886   -1.9610 C   0  0  0  0  0  0  0  0  0  0  0  0
   22.1121  -33.4396   -2.7418 C   0  0  0  0  0  0  0  0  0  0  0  0
   23.3386  -33.5446   -1.8636 C   0  0  2  0  0  0  0  0  0  0  0  0
   24.4573  -33.9166   -2.7087 N   0  0  0  0  0  0  0  0  0  0  0  0
   23.1779  -34.4890   -0.7644 C   0  0  0  0  0  0  0  0  0  0  0  0
   23.7164  -35.7576   -0.8587 O   0  0  0  0  0  0  0  0  0  0  0  0
   22.5567  -34.1748    0.2751 O   0  0  0  0  0  0  0  0  0  0  0  0
  1  2  1  0
  2  3  2  0
  4  2  1  0
  5  4  1  0
  5  6  1  1
  7  5  1  0
  7  8  2  0
  9  7  1  0
 10  9  1  0
 10 11  1  1
 11 12  1  0
 12 16  1  0
 13 12  2  0
 13 14  1  0
 14 15  1  0
 16 15  2  0
 17 10  1  0
 18 17  2  0
 20 19  1  0
 21 20  1  0
 22 21  1  0
 23 22  1  6
 23 24  1  0
 24 17  1  0
 25 23  1  0
 26 25  1  0
 27 25  2  0
M  END
$$$$
