CNH.pdb
     RDKit          3D

 25 25  0  0  1  0  0  0  0  0999 V2000
   26.6935  -11.4629  -16.5930 N   0  0  0  0  0  0  0  0  0  0  0  0
   25.2799  -11.2592  -16.6966 C   0  0  1  0  0  0  0  0  0  0  0  0
   24.4900  -11.9953  -15.6402 C   0  0  0  0  0  0  0  0  0  0  0  0
   24.8734  -13.7535  -15.6158 S   0  0  0  0  0  0  0  0  0  0  0  0
   24.9157   -9.8264  -16.6859 C   0  0  0  0  0  0  0  0  0  0  0  0
   25.3612   -9.0000  -15.8485 O   0  0  0  0  0  0  0  0  0  0  0  0
   24.3267   -8.1093  -21.4350 N   0  0  0  0  0  0  0  0  0  0  0  0
   24.4244   -7.5133  -20.1228 C   0  0  0  0  0  0  0  0  0  0  0  0
   25.4353   -6.8633  -19.8876 O   0  0  0  0  0  0  0  0  0  0  0  0
   23.3299   -7.7379  -19.2190 C   0  0  0  0  0  0  0  0  0  0  0  0
   23.6144   -7.9083  -17.7373 C   0  0  2  0  0  0  0  0  0  0  0  0
   24.0221   -9.3509  -17.6622 N   0  0  0  0  0  0  0  0  0  0  0  0
   22.4875   -7.6781  -16.8544 C   0  0  0  0  0  0  0  0  0  0  0  0
   21.6705   -8.6602  -16.7093 O   0  0  0  0  0  0  0  0  0  0  0  0
   22.1535   -6.5275  -16.1184 N   0  0  0  0  0  0  0  0  0  0  0  0
   20.9683   -6.4865  -15.2385 C   0  0  1  0  0  0  0  0  0  0  0  0
   20.9243   -7.5656  -14.2401 C   0  0  0  0  0  0  0  0  0  0  0  0
   20.2317   -8.7984  -14.5813 C   0  0  0  0  0  0  0  0  0  0  0  0
   19.5774   -9.2108  -15.7105 C   0  0  0  0  0  0  0  0  0  0  0  0
   19.1151  -10.4723  -15.5481 N   0  0  0  0  0  0  0  0  0  0  0  0
   19.4847  -10.8398  -14.3176 C   0  0  0  0  0  0  0  0  0  0  0  0
   20.1504   -9.8555  -13.7280 N   0  0  0  0  0  0  0  0  0  0  0  0
   20.8832   -5.1202  -14.6824 C   0  0  0  0  0  0  0  0  0  0  0  0
   19.9078   -4.7913  -13.9660 O   0  0  0  0  0  0  0  0  0  0  0  0
   21.8528   -4.1541  -14.9173 O   0  0  0  0  0  0  0  0  0  0  0  0
  2  1  1  1
  3  4  1  0
  3  2  1  0
  5  6  2  0
  5  2  1  0
  7  8  1  0
  8  9  2  0
  8 10  1  0
 11 10  1  6
 11 13  1  0
 11 12  1  0
 12  5  1  0
 13 15  1  0
 14 13  2  0
 15 16  1  0
 16 23  1  0
 17 18  1  0
 16 17  1  1
 18 22  1  0
 19 20  1  0
 19 18  2  0
 20 21  1  0
 21 22  2  0
 23 24  2  0
 23 25  1  0
M  END
$$$$
