CNH.pdb
     RDKit          3D

 25 25  0  0  1  0  0  0  0  0999 V2000
   26.1143  -22.5769  -11.1175 N   0  0  0  0  0  0  0  0  0  0  0  0
   25.4692  -21.3181  -11.3409 C   0  0  1  0  0  0  0  0  0  0  0  0
   26.3560  -20.1307  -11.0488 C   0  0  0  0  0  0  0  0  0  0  0  0
   26.3813  -19.7242   -9.2958 S   0  0  0  0  0  0  0  0  0  0  0  0
   24.9148  -21.2046  -12.7067 C   0  0  0  0  0  0  0  0  0  0  0  0
   25.3466  -21.8583  -13.6910 O   0  0  0  0  0  0  0  0  0  0  0  0
   21.9974  -22.9149  -13.9162 N   0  0  0  0  0  0  0  0  0  0  0  0
   21.1345  -21.8189  -13.5408 C   0  0  0  0  0  0  0  0  0  0  0  0
   20.0342  -22.1139  -13.0915 O   0  0  0  0  0  0  0  0  0  0  0  0
   21.6463  -20.4892  -13.7290 C   0  0  0  0  0  0  0  0  0  0  0  0
   23.0728  -20.3053  -14.2155 C   0  0  2  0  0  0  0  0  0  0  0  0
   23.8450  -20.3190  -12.9284 N   0  0  0  0  0  0  0  0  0  0  0  0
   23.3365  -19.0680  -14.9240 C   0  0  0  0  0  0  0  0  0  0  0  0
   23.1922  -17.9846  -14.2469 O   0  0  0  0  0  0  0  0  0  0  0  0
   23.7378  -18.8737  -16.2575 N   0  0  0  0  0  0  0  0  0  0  0  0
   24.0804  -17.5347  -16.7772 C   0  0  1  0  0  0  0  0  0  0  0  0
   25.4968  -17.3761  -17.1405 C   0  0  0  0  0  0  0  0  0  0  0  0
   26.5084  -17.7045  -16.1482 C   0  0  0  0  0  0  0  0  0  0  0  0
   26.8833  -17.1067  -14.9754 C   0  0  0  0  0  0  0  0  0  0  0  0
   27.8718  -17.8173  -14.3841 N   0  0  0  0  0  0  0  0  0  0  0  0
   28.1072  -18.8553  -15.1922 C   0  0  0  0  0  0  0  0  0  0  0  0
   27.3045  -18.8039  -16.2470 N   0  0  0  0  0  0  0  0  0  0  0  0
   23.1221  -17.2267  -17.8590 C   0  0  0  0  0  0  0  0  0  0  0  0
   22.3130  -18.1007  -18.2515 O   0  0  0  0  0  0  0  0  0  0  0  0
   23.0683  -15.9863  -18.4812 O   0  0  0  0  0  0  0  0  0  0  0  0
  2  1  1  6
  3  4  1  0
  3  2  1  0
  5  6  2  0
  5  2  1  0
  7  8  1  0
  8  9  2  0
  8 10  1  0
 11 10  1  1
 11 13  1  0
 11 12  1  0
 12  5  1  0
 13 15  1  0
 14 13  2  0
 15 16  1  0
 16 23  1  0
 17 18  1  0
 16 17  1  6
 18 22  1  0
 19 20  1  0
 19 18  2  0
 20 21  1  0
 21 22  2  0
 23 24  2  0
 23 25  1  0
M  END
$$$$
