CNH.pdb
     RDKit          3D

 25 25  0  0  1  0  0  0  0  0999 V2000
   14.0967  -11.6612  -10.4817 N   0  0  0  0  0  0  0  0  0  0  0  0
   15.3570  -11.0127  -10.6856 C   0  0  1  0  0  0  0  0  0  0  0  0
   16.1620  -11.6104  -11.8154 C   0  0  0  0  0  0  0  0  0  0  0  0
   16.5400  -13.3463  -11.5278 S   0  0  0  0  0  0  0  0  0  0  0  0
   15.2134   -9.5555  -10.8900 C   0  0  0  0  0  0  0  0  0  0  0  0
   14.2887   -9.0339  -11.5650 O   0  0  0  0  0  0  0  0  0  0  0  0
   14.8420   -5.2259   -7.5513 N   0  0  0  0  0  0  0  0  0  0  0  0
   14.8608   -6.3936   -8.4015 C   0  0  0  0  0  0  0  0  0  0  0  0
   13.8093   -7.0118   -8.5105 O   0  0  0  0  0  0  0  0  0  0  0  0
   16.1075   -6.7197   -9.0379 C   0  0  0  0  0  0  0  0  0  0  0  0
   16.1012   -7.2063  -10.4761 C   0  0  2  0  0  0  0  0  0  0  0  0
   16.1580   -8.6960  -10.3011 N   0  0  0  0  0  0  0  0  0  0  0  0
   17.2217   -6.7720  -11.2874 C   0  0  0  0  0  0  0  0  0  0  0  0
   18.2864   -7.4892  -11.2148 O   0  0  0  0  0  0  0  0  0  0  0  0
   17.3171   -5.6722  -12.1581 N   0  0  0  0  0  0  0  0  0  0  0  0
   18.4113   -5.5550  -13.1427 C   0  0  1  0  0  0  0  0  0  0  0  0
   18.5809   -6.7410  -13.9958 C   0  0  0  0  0  0  0  0  0  0  0  0
   19.3915   -7.8422  -13.4996 C   0  0  0  0  0  0  0  0  0  0  0  0
   19.0771   -8.9994  -12.8397 C   0  0  0  0  0  0  0  0  0  0  0  0
   20.1957   -9.7269  -12.6137 N   0  0  0  0  0  0  0  0  0  0  0  0
   21.2019   -9.0188  -13.1351 C   0  0  0  0  0  0  0  0  0  0  0  0
   20.7412   -7.8941  -13.6666 N   0  0  0  0  0  0  0  0  0  0  0  0
   18.2088   -4.2867  -13.8733 C   0  0  0  0  0  0  0  0  0  0  0  0
   17.0917   -3.7173  -13.8492 O   0  0  0  0  0  0  0  0  0  0  0  0
   19.2178   -3.6746  -14.6054 O   0  0  0  0  0  0  0  0  0  0  0  0
  2  1  1  6
  3  4  1  0
  3  2  1  0
  5  6  2  0
  5  2  1  0
  7  8  1  0
  8  9  2  0
  8 10  1  0
 11 10  1  1
 11 13  1  0
 11 12  1  0
 12  5  1  0
 13 15  1  0
 14 13  2  0
 15 16  1  0
 16 23  1  0
 17 18  1  0
 16 17  1  6
 18 22  1  0
 19 20  1  0
 19 18  2  0
 20 21  1  0
 21 22  2  0
 23 24  2  0
 23 25  1  0
M  END
$$$$
