CNH.pdb
     RDKit          3D

 25 25  0  0  1  0  0  0  0  0999 V2000
   27.6554  -22.1802  -15.8947 N   0  0  0  0  0  0  0  0  0  0  0  0
   26.8543  -21.0786  -15.4528 C   0  0  1  0  0  0  0  0  0  0  0  0
   26.3929  -20.1841  -16.5791 C   0  0  0  0  0  0  0  0  0  0  0  0
   27.7442  -19.2127  -17.2642 S   0  0  0  0  0  0  0  0  0  0  0  0
   25.6909  -21.5147  -14.6515 C   0  0  0  0  0  0  0  0  0  0  0  0
   25.0201  -22.5491  -14.9021 O   0  0  0  0  0  0  0  0  0  0  0  0
   26.2282  -22.2205  -10.9249 N   0  0  0  0  0  0  0  0  0  0  0  0
   25.6142  -20.9864  -10.4927 C   0  0  0  0  0  0  0  0  0  0  0  0
   26.0228  -20.5070   -9.4425 O   0  0  0  0  0  0  0  0  0  0  0  0
   24.5848  -20.4384  -11.3325 C   0  0  0  0  0  0  0  0  0  0  0  0
   24.2083  -21.1626  -12.6129 C   0  0  2  0  0  0  0  0  0  0  0  0
   25.3045  -20.7366  -13.5456 N   0  0  0  0  0  0  0  0  0  0  0  0
   22.9237  -20.8015  -13.1801 C   0  0  0  0  0  0  0  0  0  0  0  0
   22.8258  -19.6084  -13.6493 O   0  0  0  0  0  0  0  0  0  0  0  0
   21.7550  -21.5737  -13.3008 N   0  0  0  0  0  0  0  0  0  0  0  0
   20.5778  -21.0876  -14.0481 C   0  0  1  0  0  0  0  0  0  0  0  0
   20.3104  -21.8248  -15.2924 C   0  0  0  0  0  0  0  0  0  0  0  0
   21.2900  -21.7531  -16.3653 C   0  0  0  0  0  0  0  0  0  0  0  0
   21.7952  -20.7074  -17.0895 C   0  0  0  0  0  0  0  0  0  0  0  0
   22.7192  -21.1535  -17.9720 N   0  0  0  0  0  0  0  0  0  0  0  0
   22.7853  -22.4761  -17.7922 C   0  0  0  0  0  0  0  0  0  0  0  0
   21.9414  -22.8500  -16.8396 N   0  0  0  0  0  0  0  0  0  0  0  0
   19.4466  -21.0380  -13.0988 C   0  0  0  0  0  0  0  0  0  0  0  0
   19.5005  -21.6761  -12.0206 O   0  0  0  0  0  0  0  0  0  0  0  0
   18.2949  -20.3016  -13.3439 O   0  0  0  0  0  0  0  0  0  0  0  0
  2  1  1  6
  3  4  1  0
  3  2  1  0
  5  6  2  0
  5  2  1  0
  7  8  1  0
  8  9  2  0
  8 10  1  0
 11 10  1  1
 11 13  1  0
 11 12  1  0
 12  5  1  0
 13 15  1  0
 14 13  2  0
 15 16  1  0
 16 23  1  0
 17 18  1  0
 16 17  1  6
 18 22  1  0
 19 20  1  0
 19 18  2  0
 20 21  1  0
 21 22  2  0
 23 24  2  0
 23 25  1  0
M  END
$$$$
