CNH.pdb
     RDKit          3D

 25 25  0  0  1  0  0  0  0  0999 V2000
   21.9576  -15.0132  -16.9481 N   0  0  0  0  0  0  0  0  0  0  0  0
   22.4188  -13.8523  -16.2481 C   0  0  1  0  0  0  0  0  0  0  0  0
   23.8930  -13.5841  -16.4394 C   0  0  0  0  0  0  0  0  0  0  0  0
   24.9139  -14.8209  -15.6226 S   0  0  0  0  0  0  0  0  0  0  0  0
   21.6415  -12.6424  -16.5913 C   0  0  0  0  0  0  0  0  0  0  0  0
   21.5308  -12.1936  -17.7614 O   0  0  0  0  0  0  0  0  0  0  0  0
   17.5195  -11.5883  -16.5956 N   0  0  0  0  0  0  0  0  0  0  0  0
   17.7277  -11.3596  -15.1845 C   0  0  0  0  0  0  0  0  0  0  0  0
   16.7731  -11.5688  -14.4465 O   0  0  0  0  0  0  0  0  0  0  0  0
   19.0313  -10.9097  -14.7799 C   0  0  0  0  0  0  0  0  0  0  0  0
   20.1194  -10.7512  -15.8269 C   0  0  2  0  0  0  0  0  0  0  0  0
   20.9857  -11.9475  -15.5595 N   0  0  0  0  0  0  0  0  0  0  0  0
   20.9163   -9.5444  -15.7219 C   0  0  0  0  0  0  0  0  0  0  0  0
   21.6744   -9.4533  -14.6873 O   0  0  0  0  0  0  0  0  0  0  0  0
   20.9894   -8.4467  -16.5974 N   0  0  0  0  0  0  0  0  0  0  0  0
   21.9162   -7.3227  -16.3565 C   0  0  1  0  0  0  0  0  0  0  0  0
   22.2435   -6.5456  -17.5616 C   0  0  0  0  0  0  0  0  0  0  0  0
   23.1169   -5.3904  -17.4261 C   0  0  0  0  0  0  0  0  0  0  0  0
   24.3508   -5.2241  -16.8574 C   0  0  0  0  0  0  0  0  0  0  0  0
   24.7681   -3.9461  -17.0123 N   0  0  0  0  0  0  0  0  0  0  0  0
   23.7915   -3.3224  -17.6779 C   0  0  0  0  0  0  0  0  0  0  0  0
   22.8010   -4.1673  -17.9325 N   0  0  0  0  0  0  0  0  0  0  0  0
   21.3639   -6.5320  -15.2371 C   0  0  0  0  0  0  0  0  0  0  0  0
   22.1141   -6.1412  -14.3113 O   0  0  0  0  0  0  0  0  0  0  0  0
   20.0207   -6.1891  -15.1534 O   0  0  0  0  0  0  0  0  0  0  0  0
  2  1  1  6
  3  4  1  0
  3  2  1  0
  5  6  2  0
  5  2  1  0
  7  8  1  0
  8  9  2  0
  8 10  1  0
 11 10  1  1
 11 13  1  0
 11 12  1  0
 12  5  1  0
 13 15  1  0
 14 13  2  0
 15 16  1  0
 16 23  1  0
 17 18  1  0
 16 17  1  6
 18 22  1  0
 19 20  1  0
 19 18  2  0
 20 21  1  0
 21 22  2  0
 23 24  2  0
 23 25  1  0
M  END
$$$$
