CNH.pdb
     RDKit          3D

 25 25  0  0  1  0  0  0  0  0999 V2000
   13.5810  -10.4854  -10.0393 N   0  0  0  0  0  0  0  0  0  0  0  0
   14.9855  -10.2380  -10.1679 C   0  0  1  0  0  0  0  0  0  0  0  0
   15.6724  -11.1741  -11.1342 C   0  0  0  0  0  0  0  0  0  0  0  0
   15.7108  -12.8656  -10.5207 S   0  0  0  0  0  0  0  0  0  0  0  0
   15.2786   -8.8363  -10.5356 C   0  0  0  0  0  0  0  0  0  0  0  0
   14.6573   -8.2055  -11.4294 O   0  0  0  0  0  0  0  0  0  0  0  0
   17.6456   -4.0887  -10.0614 N   0  0  0  0  0  0  0  0  0  0  0  0
   16.9157   -4.6124   -8.9302 C   0  0  0  0  0  0  0  0  0  0  0  0
   16.6537   -3.8232   -8.0313 O   0  0  0  0  0  0  0  0  0  0  0  0
   16.5663   -6.0060   -8.9652 C   0  0  0  0  0  0  0  0  0  0  0  0
   16.7622   -6.7877  -10.2520 C   0  0  2  0  0  0  0  0  0  0  0  0
   16.3074   -8.1617   -9.8542 N   0  0  0  0  0  0  0  0  0  0  0  0
   18.1253   -6.8530  -10.7419 C   0  0  0  0  0  0  0  0  0  0  0  0
   19.0053   -7.2932   -9.9142 O   0  0  0  0  0  0  0  0  0  0  0  0
   18.6346   -6.5078  -12.0062 N   0  0  0  0  0  0  0  0  0  0  0  0
   20.0710   -6.6334  -12.3246 C   0  0  1  0  0  0  0  0  0  0  0  0
   20.3540   -7.4662  -13.5035 C   0  0  0  0  0  0  0  0  0  0  0  0
   19.9463   -8.8623  -13.4804 C   0  0  0  0  0  0  0  0  0  0  0  0
   19.3609   -9.6402  -12.5184 C   0  0  0  0  0  0  0  0  0  0  0  0
   19.1510  -10.8904  -12.9925 N   0  0  0  0  0  0  0  0  0  0  0  0
   19.6065  -10.8845  -14.2487 C   0  0  0  0  0  0  0  0  0  0  0  0
   20.0833   -9.6853  -14.5557 N   0  0  0  0  0  0  0  0  0  0  0  0
   20.6283   -5.2661  -12.3803 C   0  0  0  0  0  0  0  0  0  0  0  0
   19.8617   -4.2751  -12.4340 O   0  0  0  0  0  0  0  0  0  0  0  0
   21.9938   -5.0130  -12.3761 O   0  0  0  0  0  0  0  0  0  0  0  0
  2  1  1  6
  3  4  1  0
  3  2  1  0
  5  6  2  0
  5  2  1  0
  7  8  1  0
  8  9  2  0
  8 10  1  0
 11 10  1  1
 11 13  1  0
 11 12  1  0
 12  5  1  0
 13 15  1  0
 14 13  2  0
 15 16  1  0
 16 23  1  0
 17 18  1  0
 16 17  1  6
 18 22  1  0
 19 20  1  0
 19 18  2  0
 20 21  1  0
 21 22  2  0
 23 24  2  0
 23 25  1  0
M  END
$$$$
