CNH.pdb
     RDKit          3D

 25 25  0  0  1  0  0  0  0  0999 V2000
   28.1967  -20.8237  -12.6975 N   0  0  0  0  0  0  0  0  0  0  0  0
   27.2012  -19.9569  -13.2526 C   0  0  1  0  0  0  0  0  0  0  0  0
   27.4923  -19.5455  -14.6766 C   0  0  0  0  0  0  0  0  0  0  0  0
   28.6045  -18.1328  -14.7553 S   0  0  0  0  0  0  0  0  0  0  0  0
   25.8423  -20.5327  -13.1661 C   0  0  0  0  0  0  0  0  0  0  0  0
   25.5224  -21.6428  -13.6641 O   0  0  0  0  0  0  0  0  0  0  0  0
   24.3770  -19.9110   -9.0302 N   0  0  0  0  0  0  0  0  0  0  0  0
   23.2997  -20.4286   -9.8416 C   0  0  0  0  0  0  0  0  0  0  0  0
   22.7340  -21.4333   -9.4291 O   0  0  0  0  0  0  0  0  0  0  0  0
   22.9933  -19.7184  -11.0528 C   0  0  0  0  0  0  0  0  0  0  0  0
   23.4310  -20.3007  -12.3850 C   0  0  2  0  0  0  0  0  0  0  0  0
   24.8444  -19.8067  -12.4916 N   0  0  0  0  0  0  0  0  0  0  0  0
   22.6753  -19.8557  -13.5397 C   0  0  0  0  0  0  0  0  0  0  0  0
   22.7679  -18.6069  -13.8316 O   0  0  0  0  0  0  0  0  0  0  0  0
   21.8499  -20.5972  -14.4033 N   0  0  0  0  0  0  0  0  0  0  0  0
   21.2276  -19.9870  -15.5954 C   0  0  1  0  0  0  0  0  0  0  0  0
   21.4506  -20.7384  -16.8399 C   0  0  0  0  0  0  0  0  0  0  0  0
   20.8466  -20.2429  -18.0670 C   0  0  0  0  0  0  0  0  0  0  0  0
   21.0971  -19.1447  -18.8444 C   0  0  0  0  0  0  0  0  0  0  0  0
   20.2720  -19.1337  -19.9171 N   0  0  0  0  0  0  0  0  0  0  0  0
   19.5115  -20.2265  -19.8025 C   0  0  0  0  0  0  0  0  0  0  0  0
   19.8402  -20.8985  -18.7070 N   0  0  0  0  0  0  0  0  0  0  0  0
   19.8095  -19.7330  -15.2673 C   0  0  0  0  0  0  0  0  0  0  0  0
   19.2088  -20.4737  -14.4530 O   0  0  0  0  0  0  0  0  0  0  0  0
   19.0864  -18.6884  -15.8283 O   0  0  0  0  0  0  0  0  0  0  0  0
  2  1  1  6
  3  4  1  0
  3  2  1  0
  5  6  2  0
  5  2  1  0
  7  8  1  0
  8  9  2  0
  8 10  1  0
 11 10  1  1
 11 13  1  0
 11 12  1  0
 12  5  1  0
 13 15  1  0
 14 13  2  0
 15 16  1  0
 16 23  1  0
 17 18  1  0
 16 17  1  6
 18 22  1  0
 19 20  1  0
 19 18  2  0
 20 21  1  0
 21 22  2  0
 23 24  2  0
 23 25  1  0
M  END
$$$$
