CNH.pdb
     RDKit          3D

 25 25  0  0  1  0  0  0  0  0999 V2000
   39.8081  -34.5796   -0.8784 N   0  0  0  0  0  0  0  0  0  0  0  0
   38.5179  -34.7034   -0.2698 C   0  0  1  0  0  0  0  0  0  0  0  0
   37.9921  -33.4023    0.2891 C   0  0  0  0  0  0  0  0  0  0  0  0
   39.0940  -32.7093    1.5320 S   0  0  0  0  0  0  0  0  0  0  0  0
   37.5185  -35.2950   -1.1848 C   0  0  0  0  0  0  0  0  0  0  0  0
   37.8055  -35.7874   -2.3063 O   0  0  0  0  0  0  0  0  0  0  0  0
   35.8249  -39.2385   -3.2454 N   0  0  0  0  0  0  0  0  0  0  0  0
   34.9865  -38.4598   -2.3638 C   0  0  0  0  0  0  0  0  0  0  0  0
   33.7882  -38.7118   -2.3793 O   0  0  0  0  0  0  0  0  0  0  0  0
   35.6347  -37.4655   -1.5535 C   0  0  0  0  0  0  0  0  0  0  0  0
   35.1157  -36.0387   -1.5734 C   0  0  2  0  0  0  0  0  0  0  0  0
   36.1693  -35.3130   -0.7885 N   0  0  0  0  0  0  0  0  0  0  0  0
   33.8227  -35.8356   -0.9495 C   0  0  0  0  0  0  0  0  0  0  0  0
   33.7064  -34.7882   -0.2129 O   0  0  0  0  0  0  0  0  0  0  0  0
   32.6593  -36.6205   -1.0358 N   0  0  0  0  0  0  0  0  0  0  0  0
   31.4684  -36.1633   -1.7797 C   0  0  1  0  0  0  0  0  0  0  0  0
   31.7519  -35.7224   -3.1540 C   0  0  0  0  0  0  0  0  0  0  0  0
   30.6538  -35.2092   -3.9581 C   0  0  0  0  0  0  0  0  0  0  0  0
   29.3531  -34.9032   -3.6616 C   0  0  0  0  0  0  0  0  0  0  0  0
   28.7238  -34.4243   -4.7599 N   0  0  0  0  0  0  0  0  0  0  0  0
   29.6368  -34.4339   -5.7357 C   0  0  0  0  0  0  0  0  0  0  0  0
   30.7913  -34.8980   -5.2759 N   0  0  0  0  0  0  0  0  0  0  0  0
   30.4464  -37.2242   -1.6647 C   0  0  0  0  0  0  0  0  0  0  0  0
   30.7780  -38.4304   -1.7513 O   0  0  0  0  0  0  0  0  0  0  0  0
   29.1007  -36.9487   -1.4599 O   0  0  0  0  0  0  0  0  0  0  0  0
  2  1  1  6
  3  4  1  0
  3  2  1  0
  5  6  2  0
  5  2  1  0
  7  8  1  0
  8  9  2  0
  8 10  1  0
 11 10  1  1
 11 13  1  0
 11 12  1  0
 12  5  1  0
 13 15  1  0
 14 13  2  0
 15 16  1  0
 16 23  1  0
 17 18  1  0
 16 17  1  6
 18 22  1  0
 19 20  1  0
 19 18  2  0
 20 21  1  0
 21 22  2  0
 23 24  2  0
 23 25  1  0
M  END
$$$$
