CNH.pdb
     RDKit          3D

 25 25  0  0  1  0  0  0  0  0999 V2000
   17.1448  -12.1436  -14.0680 N   0  0  0  0  0  0  0  0  0  0  0  0
   16.5727  -10.8318  -14.0170 C   0  0  1  0  0  0  0  0  0  0  0  0
   15.0622  -10.8363  -14.0353 C   0  0  0  0  0  0  0  0  0  0  0  0
   14.4093  -11.6027  -15.5270 S   0  0  0  0  0  0  0  0  0  0  0  0
   17.0566  -10.0516  -12.8582 C   0  0  0  0  0  0  0  0  0  0  0  0
   17.1475  -10.5173  -11.6931 O   0  0  0  0  0  0  0  0  0  0  0  0
   20.6913   -9.0140  -12.4150 N   0  0  0  0  0  0  0  0  0  0  0  0
   20.4705   -7.6833  -12.9319 C   0  0  0  0  0  0  0  0  0  0  0  0
   21.4290   -7.1313  -13.4575 O   0  0  0  0  0  0  0  0  0  0  0  0
   19.1513   -7.1335  -12.7817 C   0  0  0  0  0  0  0  0  0  0  0  0
   18.1119   -7.9051  -11.9882 C   0  0  2  0  0  0  0  0  0  0  0  0
   17.4390   -8.7133  -13.0592 N   0  0  0  0  0  0  0  0  0  0  0  0
   17.1241   -7.0965  -11.3005 C   0  0  0  0  0  0  0  0  0  0  0  0
   16.2900   -6.4635  -12.0466 O   0  0  0  0  0  0  0  0  0  0  0  0
   16.9358   -6.9035   -9.9206 N   0  0  0  0  0  0  0  0  0  0  0  0
   15.8313   -6.0751   -9.3968 C   0  0  1  0  0  0  0  0  0  0  0  0
   15.1187   -6.6751   -8.2586 C   0  0  0  0  0  0  0  0  0  0  0  0
   14.1719   -7.7478   -8.5205 C   0  0  0  0  0  0  0  0  0  0  0  0
   13.7526   -8.3513   -9.6753 C   0  0  0  0  0  0  0  0  0  0  0  0
   12.8655   -9.3338   -9.3934 N   0  0  0  0  0  0  0  0  0  0  0  0
   12.7373   -9.3377   -8.0632 C   0  0  0  0  0  0  0  0  0  0  0  0
   13.5079   -8.4002   -7.5276 N   0  0  0  0  0  0  0  0  0  0  0  0
   16.3770   -4.7248   -9.1476 C   0  0  0  0  0  0  0  0  0  0  0  0
   17.6166   -4.5355   -9.1524 O   0  0  0  0  0  0  0  0  0  0  0  0
   15.5675   -3.6235   -8.9016 O   0  0  0  0  0  0  0  0  0  0  0  0
  2  1  1  1
  3  4  1  0
  3  2  1  0
  5  6  2  0
  5  2  1  0
  7  8  1  0
  8  9  2  0
  8 10  1  0
 11 10  1  6
 11 13  1  0
 11 12  1  0
 12  5  1  0
 13 15  1  0
 14 13  2  0
 15 16  1  0
 16 23  1  0
 17 18  1  0
 16 17  1  1
 18 22  1  0
 19 20  1  0
 19 18  2  0
 20 21  1  0
 21 22  2  0
 23 24  2  0
 23 25  1  0
M  END
$$$$
