CNH.pdb
     RDKit          3D

 25 25  0  0  1  0  0  0  0  0999 V2000
   34.6767  -27.5506  -18.6921 N   0  0  0  0  0  0  0  0  0  0  0  0
   33.6760  -28.5745  -18.6653 C   0  0  1  0  0  0  0  0  0  0  0  0
   34.2496  -29.9713  -18.6228 C   0  0  0  0  0  0  0  0  0  0  0  0
   34.5036  -30.6452  -20.2722 S   0  0  0  0  0  0  0  0  0  0  0  0
   32.7159  -28.3940  -17.5556 C   0  0  0  0  0  0  0  0  0  0  0  0
   32.5363  -29.2424  -16.6442 O   0  0  0  0  0  0  0  0  0  0  0  0
   33.3237  -26.7125  -14.8997 N   0  0  0  0  0  0  0  0  0  0  0  0
   32.6183  -25.4859  -15.1906 C   0  0  0  0  0  0  0  0  0  0  0  0
   33.1385  -24.4470  -14.8035 O   0  0  0  0  0  0  0  0  0  0  0  0
   31.3763  -25.5989  -15.9048 C   0  0  0  0  0  0  0  0  0  0  0  0
   30.9432  -26.9562  -16.4295 C   0  0  2  0  0  0  0  0  0  0  0  0
   31.9563  -27.2115  -17.5072 N   0  0  0  0  0  0  0  0  0  0  0  0
   29.6100  -27.0101  -16.9972 C   0  0  0  0  0  0  0  0  0  0  0  0
   28.6489  -26.6482  -16.2236 O   0  0  0  0  0  0  0  0  0  0  0  0
   29.2065  -27.3984  -18.2869 N   0  0  0  0  0  0  0  0  0  0  0  0
   27.7916  -27.3444  -18.7061 C   0  0  1  0  0  0  0  0  0  0  0  0
   27.1594  -26.0299  -18.5172 C   0  0  0  0  0  0  0  0  0  0  0  0
   26.2810  -25.8407  -17.3733 C   0  0  0  0  0  0  0  0  0  0  0  0
   25.8815  -26.6752  -16.3647 C   0  0  0  0  0  0  0  0  0  0  0  0
   25.0667  -26.0161  -15.5083 N   0  0  0  0  0  0  0  0  0  0  0  0
   24.9634  -24.7732  -15.9880 C   0  0  0  0  0  0  0  0  0  0  0  0
   25.6799  -24.6512  -17.0976 N   0  0  0  0  0  0  0  0  0  0  0  0
   27.7225  -27.8761  -20.0830 C   0  0  0  0  0  0  0  0  0  0  0  0
   28.7759  -28.1012  -20.7250 O   0  0  0  0  0  0  0  0  0  0  0  0
   26.5194  -28.1474  -20.7216 O   0  0  0  0  0  0  0  0  0  0  0  0
  2  1  1  1
  3  4  1  0
  3  2  1  0
  5  6  2  0
  5  2  1  0
  7  8  1  0
  8  9  2  0
  8 10  1  0
 11 10  1  6
 11 13  1  0
 11 12  1  0
 12  5  1  0
 13 15  1  0
 14 13  2  0
 15 16  1  0
 16 23  1  0
 17 18  1  0
 16 17  1  6
 18 22  1  0
 19 20  1  0
 19 18  2  0
 20 21  1  0
 21 22  2  0
 23 24  2  0
 23 25  1  0
M  END
$$$$
