CNH.pdb
     RDKit          3D

 25 25  0  0  1  0  0  0  0  0999 V2000
   28.1952  -11.5727  -18.4175 N   0  0  0  0  0  0  0  0  0  0  0  0
   27.5063  -10.5193  -17.7348 C   0  0  1  0  0  0  0  0  0  0  0  0
   28.0608   -9.1470  -18.0367 C   0  0  0  0  0  0  0  0  0  0  0  0
   29.8274   -9.0474  -17.7078 S   0  0  0  0  0  0  0  0  0  0  0  0
   26.0508  -10.5386  -17.9934 C   0  0  0  0  0  0  0  0  0  0  0  0
   25.5447  -10.8247  -19.1091 O   0  0  0  0  0  0  0  0  0  0  0  0
   23.0134  -13.3314  -18.2011 N   0  0  0  0  0  0  0  0  0  0  0  0
   23.8225  -12.8769  -17.0941 C   0  0  0  0  0  0  0  0  0  0  0  0
   24.8014  -13.5567  -16.8125 O   0  0  0  0  0  0  0  0  0  0  0  0
   23.4046  -11.6735  -16.4289 C   0  0  0  0  0  0  0  0  0  0  0  0
   23.6843  -10.3306  -17.0798 C   0  0  2  0  0  0  0  0  0  0  0  0
   25.1748  -10.2211  -16.9401 N   0  0  0  0  0  0  0  0  0  0  0  0
   23.0545   -9.1872  -16.4487 C   0  0  0  0  0  0  0  0  0  0  0  0
   23.6065   -8.7595  -15.3691 O   0  0  0  0  0  0  0  0  0  0  0  0
   21.9182   -8.4627  -16.8497 N   0  0  0  0  0  0  0  0  0  0  0  0
   21.3837   -7.3483  -16.0416 C   0  0  1  0  0  0  0  0  0  0  0  0
   21.2284   -7.6631  -14.6133 C   0  0  0  0  0  0  0  0  0  0  0  0
   20.2843   -8.7015  -14.2306 C   0  0  0  0  0  0  0  0  0  0  0  0
   19.5121   -9.5651  -14.9594 C   0  0  0  0  0  0  0  0  0  0  0  0
   18.8088  -10.3739  -14.1331 N   0  0  0  0  0  0  0  0  0  0  0  0
   19.1474  -10.0099  -12.8926 C   0  0  0  0  0  0  0  0  0  0  0  0
   20.0248   -9.0158  -12.9321 N   0  0  0  0  0  0  0  0  0  0  0  0
   22.2140   -6.1606  -16.3304 C   0  0  0  0  0  0  0  0  0  0  0  0
   21.9317   -5.0537  -15.8130 O   0  0  0  0  0  0  0  0  0  0  0  0
   23.3212   -6.2063  -17.1676 O   0  0  0  0  0  0  0  0  0  0  0  0
  2  1  1  6
  3  4  1  0
  3  2  1  0
  5  6  2  0
  5  2  1  0
  7  8  1  0
  8  9  2  0
  8 10  1  0
 11 10  1  1
 11 13  1  0
 11 12  1  0
 12  5  1  0
 13 15  1  0
 14 13  2  0
 15 16  1  0
 16 23  1  0
 17 18  1  0
 16 17  1  1
 18 22  1  0
 19 20  1  0
 19 18  2  0
 20 21  1  0
 21 22  2  0
 23 24  2  0
 23 25  1  0
M  END
$$$$
