KGG.pdb
     RDKit          3D

 18 17  0  0  1  0  0  0  0  0999 V2000
   25.6553  -20.2194  -15.3430 N   0  0  0  0  0  0  0  0  0  0  0  0
   25.9977  -19.0439  -14.6599 C   0  0  1  0  0  0  0  0  0  0  0  0
   26.7237  -19.1308  -13.3723 C   0  0  0  0  0  0  0  0  0  0  0  0
   26.3429  -20.1646  -12.4085 C   0  0  0  0  0  0  0  0  0  0  0  0
   26.2904  -21.5839  -12.6964 C   0  0  0  0  0  0  0  0  0  0  0  0
   25.9492  -22.6225  -11.7241 C   0  0  0  0  0  0  0  0  0  0  0  0
   25.8871  -23.9759  -12.2139 N   0  0  0  0  0  0  0  0  0  0  0  0
   26.7610  -18.0823  -15.5639 C   0  0  0  0  0  0  0  0  0  0  0  0
   27.7788  -18.4726  -16.1902 O   0  0  0  0  0  0  0  0  0  0  0  0
   26.3585  -16.7345  -15.7294 N   0  0  0  0  0  0  0  0  0  0  0  0
   27.1089  -15.8194  -16.5645 C   0  0  0  0  0  0  0  0  0  0  0  0
   26.5369  -14.4495  -16.5288 C   0  0  0  0  0  0  0  0  0  0  0  0
   27.3369  -13.4802  -16.5476 O   0  0  0  0  0  0  0  0  0  0  0  0
   25.1592  -14.1775  -16.4755 N   0  0  0  0  0  0  0  0  0  0  0  0
   24.5966  -12.8467  -16.4335 C   0  0  0  0  0  0  0  0  0  0  0  0
   23.1316  -12.9560  -16.3721 C   0  0  0  0  0  0  0  0  0  0  0  0
   22.3684  -11.8115  -16.2954 O   0  0  0  0  0  0  0  0  0  0  0  0
   22.5703  -14.0669  -16.3884 O   0  0  0  0  0  0  0  0  0  0  0  0
  2  1  1  6
  3  2  1  0
  4  3  1  0
  5  6  1  0
  5  4  1  0
  7  6  1  0
  8  2  1  0
  8  9  2  0
 10  8  1  0
 11 10  1  0
 11 12  1  0
 12 14  1  0
 13 12  2  0
 14 15  1  0
 15 16  1  0
 16 17  1  0
 18 16  2  0
M  END
$$$$
