KGG.pdb
     RDKit          3D

 18 17  0  0  1  0  0  0  0  0999 V2000
   22.6505  -21.7045  -13.4810 N   0  0  0  0  0  0  0  0  0  0  0  0
   23.2973  -20.5566  -13.9605 C   0  0  1  0  0  0  0  0  0  0  0  0
   24.7631  -20.4219  -13.8005 C   0  0  0  0  0  0  0  0  0  0  0  0
   25.4242  -21.1075  -12.6889 C   0  0  0  0  0  0  0  0  0  0  0  0
   26.8323  -20.9916  -12.3666 C   0  0  0  0  0  0  0  0  0  0  0  0
   27.4814  -21.6198  -11.2156 C   0  0  0  0  0  0  0  0  0  0  0  0
   28.9122  -21.4809  -11.1207 N   0  0  0  0  0  0  0  0  0  0  0  0
   22.9611  -20.3050  -15.4261 C   0  0  0  0  0  0  0  0  0  0  0  0
   23.6057  -20.8881  -16.3344 O   0  0  0  0  0  0  0  0  0  0  0  0
   21.9263  -19.4188  -15.8133 N   0  0  0  0  0  0  0  0  0  0  0  0
   21.6345  -19.1624  -17.2087 C   0  0  0  0  0  0  0  0  0  0  0  0
   20.5541  -18.1560  -17.3672 C   0  0  0  0  0  0  0  0  0  0  0  0
   20.2508  -17.8014  -18.5343 O   0  0  0  0  0  0  0  0  0  0  0  0
   19.8557  -17.5812  -16.2917 N   0  0  0  0  0  0  0  0  0  0  0  0
   18.9247  -16.4835  -16.4237 C   0  0  0  0  0  0  0  0  0  0  0  0
   19.6413  -15.2246  -16.1714 C   0  0  0  0  0  0  0  0  0  0  0  0
   18.9387  -14.0401  -16.1316 O   0  0  0  0  0  0  0  0  0  0  0  0
   20.8732  -15.2127  -15.9931 O   0  0  0  0  0  0  0  0  0  0  0  0
  2  1  1  6
  3  2  1  0
  4  3  1  0
  5  6  1  0
  5  4  1  0
  7  6  1  0
  8  2  1  0
  8  9  2  0
 10  8  1  0
 11 10  1  0
 11 12  1  0
 12 14  1  0
 13 12  2  0
 14 15  1  0
 15 16  1  0
 16 17  1  0
 18 16  2  0
M  END
$$$$
