KGG.pdb
     RDKit          3D

 18 17  0  0  1  0  0  0  0  0999 V2000
   19.8925  -11.3176  -16.9350 N   0  0  0  0  0  0  0  0  0  0  0  0
   18.6008  -11.5171  -16.4275 C   0  0  1  0  0  0  0  0  0  0  0  0
   18.1721  -12.8780  -16.0320 C   0  0  0  0  0  0  0  0  0  0  0  0
   18.3629  -13.9855  -16.9700 C   0  0  0  0  0  0  0  0  0  0  0  0
   18.1127  -15.3798  -16.6644 C   0  0  0  0  0  0  0  0  0  0  0  0
   18.2083  -16.4773  -17.6271 C   0  0  0  0  0  0  0  0  0  0  0  0
   17.9551  -17.8044  -17.1268 N   0  0  0  0  0  0  0  0  0  0  0  0
   18.3151  -10.5785  -15.2604 C   0  0  0  0  0  0  0  0  0  0  0  0
   17.5137  -10.9189  -14.3536 O   0  0  0  0  0  0  0  0  0  0  0  0
   18.9321   -9.3079  -15.1558 N   0  0  0  0  0  0  0  0  0  0  0  0
   18.6825   -8.4381  -14.0248 C   0  0  0  0  0  0  0  0  0  0  0  0
   19.5153   -7.2100  -14.0830 C   0  0  0  0  0  0  0  0  0  0  0  0
   19.2357   -6.2748  -13.2912 O   0  0  0  0  0  0  0  0  0  0  0  0
   20.5925   -7.0358  -14.9687 N   0  0  0  0  0  0  0  0  0  0  0  0
   21.3811   -5.8278  -15.0582 C   0  0  0  0  0  0  0  0  0  0  0  0
   22.0617   -5.6128  -13.7728 C   0  0  0  0  0  0  0  0  0  0  0  0
   22.3182   -6.6895  -12.9523 O   0  0  0  0  0  0  0  0  0  0  0  0
   22.4099   -4.4727  -13.4144 O   0  0  0  0  0  0  0  0  0  0  0  0
  2  1  1  1
  3  2  1  0
  4  3  1  0
  5  6  1  0
  5  4  1  0
  7  6  1  0
  8  2  1  0
  8  9  2  0
 10  8  1  0
 11 10  1  0
 11 12  1  0
 12 14  1  0
 13 12  2  0
 14 15  1  0
 15 16  1  0
 16 17  1  0
 18 16  2  0
M  END
$$$$
