KGG.pdb
     RDKit          3D

 18 17  0  0  1  0  0  0  0  0999 V2000
   20.4871   -8.1230  -16.9841 N   0  0  0  0  0  0  0  0  0  0  0  0
   20.7694   -9.1588  -16.0822 C   0  0  1  0  0  0  0  0  0  0  0  0
   21.6727  -10.2586  -16.4905 C   0  0  0  0  0  0  0  0  0  0  0  0
   21.2170  -11.2177  -17.4981 C   0  0  0  0  0  0  0  0  0  0  0  0
   20.5207  -12.4547  -17.2062 C   0  0  0  0  0  0  0  0  0  0  0  0
   20.1115  -13.4405  -18.2069 C   0  0  0  0  0  0  0  0  0  0  0  0
   19.3242  -14.5526  -17.7394 N   0  0  0  0  0  0  0  0  0  0  0  0
   21.2711   -8.6104  -14.7511 C   0  0  0  0  0  0  0  0  0  0  0  0
   21.5095   -9.3890  -13.7932 O   0  0  0  0  0  0  0  0  0  0  0  0
   21.4839   -7.2251  -14.5468 N   0  0  0  0  0  0  0  0  0  0  0  0
   21.9749   -6.7149  -13.2833 C   0  0  0  0  0  0  0  0  0  0  0  0
   22.1312   -5.2384  -13.3115 C   0  0  0  0  0  0  0  0  0  0  0  0
   22.6148   -4.6812  -12.2939 O   0  0  0  0  0  0  0  0  0  0  0  0
   21.7709   -4.4338  -14.4059 N   0  0  0  0  0  0  0  0  0  0  0  0
   22.0093   -3.0100  -14.4786 C   0  0  0  0  0  0  0  0  0  0  0  0
   21.0016   -2.3208  -13.6592 C   0  0  0  0  0  0  0  0  0  0  0  0
   20.0012   -3.0520  -13.0570 O   0  0  0  0  0  0  0  0  0  0  0  0
   21.0387   -1.0867  -13.5012 O   0  0  0  0  0  0  0  0  0  0  0  0
  2  1  1  6
  3  2  1  0
  4  3  1  0
  5  6  1  0
  5  4  1  0
  7  6  1  0
  8  2  1  0
  8  9  2  0
 10  8  1  0
 11 10  1  0
 11 12  1  0
 12 14  1  0
 13 12  2  0
 14 15  1  0
 15 16  1  0
 16 17  1  0
 18 16  2  0
M  END
$$$$
