KDH.pdb
     RDKit          3D

 28 28  0  0  1  0  0  0  0  0999 V2000
   20.1783  -16.5485  -17.3212 N   0  0  0  0  0  0  0  0  0  0  0  0
   20.3079  -15.8511  -16.0771 C   0  0  1  0  0  0  0  0  0  0  0  0
   21.0045  -16.5912  -15.0089 C   0  0  0  0  0  0  0  0  0  0  0  0
   21.0799  -18.0616  -15.2158 C   0  0  0  0  0  0  0  0  0  0  0  0
   20.0124  -18.8491  -14.5389 C   0  0  0  0  0  0  0  0  0  0  0  0
   20.1687  -20.3251  -14.8044 C   0  0  0  0  0  0  0  0  0  0  0  0
   19.1167  -21.0624  -14.0897 N   0  0  0  0  0  0  0  0  0  0  0  0
   20.8561  -14.4955  -16.3367 C   0  0  0  0  0  0  0  0  0  0  0  0
   21.1144  -13.7832  -15.3280 O   0  0  0  0  0  0  0  0  0  0  0  0
   21.0593  -14.0753  -17.6589 N   0  0  0  0  0  0  0  0  0  0  0  0
   21.5373  -12.7114  -17.9013 C   0  0  1  0  0  0  0  0  0  0  0  0
   22.2583  -12.6834  -19.2067 C   0  0  0  0  0  0  0  0  0  0  0  0
   23.5444  -13.3544  -19.1407 C   0  0  0  0  0  0  0  0  0  0  0  0
   23.8510  -14.4476  -19.6419 O   0  0  0  0  0  0  0  0  0  0  0  0
   20.3498  -11.7865  -17.8600 C   0  0  0  0  0  0  0  0  0  0  0  0
   19.3290  -11.9242  -18.5579 O   0  0  0  0  0  0  0  0  0  0  0  0
   24.5592  -12.6759  -18.4197 O   0  0  0  0  0  0  0  0  0  0  0  0
   20.3464  -10.6573  -16.9741 N   0  0  0  0  0  0  0  0  0  0  0  0
   19.1920   -9.7482  -16.8689 C   0  0  1  0  0  0  0  0  0  0  0  0
   18.3174  -10.1346  -15.7261 C   0  0  0  0  0  0  0  0  0  0  0  0
   17.2049   -9.1767  -15.5831 C   0  0  0  0  0  0  0  0  0  0  0  0
   16.0592   -9.1058  -16.3676 C   0  0  0  0  0  0  0  0  0  0  0  0
   15.2825   -8.0961  -15.9571 N   0  0  0  0  0  0  0  0  0  0  0  0
   15.8989   -7.5152  -14.9283 C   0  0  0  0  0  0  0  0  0  0  0  0
   17.0735   -8.1628  -14.6875 N   0  0  0  0  0  0  0  0  0  0  0  0
   19.6122   -8.3484  -16.9246 C   0  0  0  0  0  0  0  0  0  0  0  0
   18.7846   -7.2848  -17.2638 O   0  0  0  0  0  0  0  0  0  0  0  0
   20.7976   -8.0532  -16.6525 O   0  0  0  0  0  0  0  0  0  0  0  0
  2  1  1  6
  3  2  1  0
  3  4  1  0
  4  5  1  0
  5  6  1  0
  7  6  1  0
  8  9  2  0
  8  2  1  0
 10  8  1  0
 11 10  1  0
 11 12  1  6
 12 13  1  0
 13 17  1  0
 14 13  2  0
 15 11  1  0
 16 15  2  0
 18 15  1  0
 19 18  1  0
 19 20  1  1
 20 21  1  0
 21 25  1  0
 21 22  2  0
 22 23  1  0
 24 23  1  0
 25 24  2  0
 26 19  1  0
 27 26  1  0
 28 26  2  0
M  END
$$$$
