KDH.pdb
     RDKit          3D

 28 28  0  0  1  0  0  0  0  0999 V2000
   17.9214  -14.8455  -17.9349 N   0  0  0  0  0  0  0  0  0  0  0  0
   17.6816  -13.7243  -17.0768 C   0  0  1  0  0  0  0  0  0  0  0  0
   16.7847  -13.9839  -15.9358 C   0  0  0  0  0  0  0  0  0  0  0  0
   16.2339  -15.3637  -15.8766 C   0  0  0  0  0  0  0  0  0  0  0  0
   16.6940  -16.1769  -14.7169 C   0  0  0  0  0  0  0  0  0  0  0  0
   15.9111  -17.4607  -14.6033 C   0  0  0  0  0  0  0  0  0  0  0  0
   16.5430  -18.3288  -13.5992 N   0  0  0  0  0  0  0  0  0  0  0  0
   18.9828  -13.1139  -16.7028 C   0  0  0  0  0  0  0  0  0  0  0  0
   19.3727  -13.2877  -15.5156 O   0  0  0  0  0  0  0  0  0  0  0  0
   19.7055  -12.3890  -17.6611 N   0  0  0  0  0  0  0  0  0  0  0  0
   20.9860  -11.7895  -17.2758 C   0  0  1  0  0  0  0  0  0  0  0  0
   22.0066  -12.1417  -18.3050 C   0  0  0  0  0  0  0  0  0  0  0  0
   23.2833  -11.4946  -18.0594 C   0  0  0  0  0  0  0  0  0  0  0  0
   23.8737  -11.3796  -16.9738 O   0  0  0  0  0  0  0  0  0  0  0  0
   20.7807  -10.3052  -17.1282 C   0  0  0  0  0  0  0  0  0  0  0  0
   20.1333   -9.6039  -17.9263 O   0  0  0  0  0  0  0  0  0  0  0  0
   23.9203  -10.9335  -19.1949 O   0  0  0  0  0  0  0  0  0  0  0  0
   21.3490   -9.6068  -16.0104 N   0  0  0  0  0  0  0  0  0  0  0  0
   21.2905   -8.1396  -15.8920 C   0  0  1  0  0  0  0  0  0  0  0  0
   21.6232   -7.7076  -14.5053 C   0  0  0  0  0  0  0  0  0  0  0  0
   21.5187   -6.2413  -14.3845 C   0  0  0  0  0  0  0  0  0  0  0  0
   20.3526   -5.4969  -14.2447 C   0  0  0  0  0  0  0  0  0  0  0  0
   20.6443   -4.1919  -14.1869 N   0  0  0  0  0  0  0  0  0  0  0  0
   21.9683   -4.0773  -14.2857 C   0  0  0  0  0  0  0  0  0  0  0  0
   22.5166   -5.3188  -14.4070 N   0  0  0  0  0  0  0  0  0  0  0  0
   22.0313   -7.4902  -16.9730 C   0  0  0  0  0  0  0  0  0  0  0  0
   21.6631   -6.2959  -17.5810 O   0  0  0  0  0  0  0  0  0  0  0  0
   23.0779   -8.0233  -17.4052 O   0  0  0  0  0  0  0  0  0  0  0  0
  2  1  1  1
  3  2  1  0
  3  4  1  0
  4  5  1  0
  5  6  1  0
  7  6  1  0
  8  9  2  0
  8  2  1  0
 10  8  1  0
 11 10  1  0
 11 12  1  6
 12 13  1  0
 13 17  1  0
 14 13  2  0
 15 11  1  0
 16 15  2  0
 18 15  1  0
 19 18  1  0
 19 20  1  1
 20 21  1  0
 21 25  1  0
 21 22  2  0
 22 23  1  0
 24 23  1  0
 25 24  2  0
 26 19  1  0
 27 26  1  0
 28 26  2  0
M  END
$$$$
