KDH.pdb
     RDKit          3D

 28 28  0  0  1  0  0  0  0  0999 V2000
   20.4220  -15.6098  -16.1223 N   0  0  0  0  0  0  0  0  0  0  0  0
   19.7177  -14.4881  -16.6670 C   0  0  1  0  0  0  0  0  0  0  0  0
   18.3040  -14.3749  -16.2638 C   0  0  0  0  0  0  0  0  0  0  0  0
   17.4756  -15.5758  -16.5503 C   0  0  0  0  0  0  0  0  0  0  0  0
   17.3117  -16.5159  -15.4070 C   0  0  0  0  0  0  0  0  0  0  0  0
   16.3051  -17.5931  -15.7236 C   0  0  0  0  0  0  0  0  0  0  0  0
   16.2920  -18.5820  -14.6359 N   0  0  0  0  0  0  0  0  0  0  0  0
   20.5171  -13.2574  -16.4389 C   0  0  0  0  0  0  0  0  0  0  0  0
   21.1333  -13.1742  -15.3411 O   0  0  0  0  0  0  0  0  0  0  0  0
   20.5531  -12.2650  -17.4287 N   0  0  0  0  0  0  0  0  0  0  0  0
   21.3489  -11.0577  -17.1903 C   0  0  1  0  0  0  0  0  0  0  0  0
   22.3571  -10.9275  -18.2819 C   0  0  0  0  0  0  0  0  0  0  0  0
   23.1479   -9.7157  -18.1603 C   0  0  0  0  0  0  0  0  0  0  0  0
   22.7886   -8.5532  -18.4051 O   0  0  0  0  0  0  0  0  0  0  0  0
   20.4068   -9.8859  -17.1108 C   0  0  0  0  0  0  0  0  0  0  0  0
   19.5642   -9.6031  -17.9814 O   0  0  0  0  0  0  0  0  0  0  0  0
   24.4808   -9.8901  -17.7099 O   0  0  0  0  0  0  0  0  0  0  0  0
   20.4435   -9.0075  -15.9762 N   0  0  0  0  0  0  0  0  0  0  0  0
   19.5569   -7.8365  -15.8636 C   0  0  1  0  0  0  0  0  0  0  0  0
   18.2260   -8.2314  -15.3221 C   0  0  0  0  0  0  0  0  0  0  0  0
   17.3285   -7.0625  -15.2604 C   0  0  0  0  0  0  0  0  0  0  0  0
   17.6492   -5.7471  -15.5767 C   0  0  0  0  0  0  0  0  0  0  0  0
   16.5883   -4.9551  -15.3800 N   0  0  0  0  0  0  0  0  0  0  0  0
   15.5929   -5.7272  -14.9453 C   0  0  0  0  0  0  0  0  0  0  0  0
   16.0284   -7.0160  -14.8669 N   0  0  0  0  0  0  0  0  0  0  0  0
   20.2297   -6.7239  -15.1939 C   0  0  0  0  0  0  0  0  0  0  0  0
   21.5309   -6.7610  -14.7074 O   0  0  0  0  0  0  0  0  0  0  0  0
   19.6160   -5.6453  -15.0311 O   0  0  0  0  0  0  0  0  0  0  0  0
  2  1  1  1
  3  2  1  0
  3  4  1  0
  4  5  1  0
  5  6  1  0
  7  6  1  0
  8  9  2  0
  8  2  1  0
 10  8  1  0
 11 10  1  0
 11 12  1  6
 12 13  1  0
 13 17  1  0
 14 13  2  0
 15 11  1  0
 16 15  2  0
 18 15  1  0
 19 18  1  0
 19 20  1  1
 20 21  1  0
 21 25  1  0
 21 22  2  0
 22 23  1  0
 24 23  1  0
 25 24  2  0
 26 19  1  0
 27 26  1  0
 28 26  2  0
M  END
$$$$
