KDH.pdb
     RDKit          3D

 28 28  0  0  1  0  0  0  0  0999 V2000
   24.0936  -18.2632  -19.9866 N   0  0  0  0  0  0  0  0  0  0  0  0
   24.9945  -19.1983  -19.3826 C   0  0  1  0  0  0  0  0  0  0  0  0
   26.3153  -18.6549  -19.0164 C   0  0  0  0  0  0  0  0  0  0  0  0
   26.6769  -17.3829  -19.6960 C   0  0  0  0  0  0  0  0  0  0  0  0
   28.0060  -16.8243  -19.3226 C   0  0  0  0  0  0  0  0  0  0  0  0
   28.2665  -15.5151  -20.0239 C   0  0  0  0  0  0  0  0  0  0  0  0
   29.6049  -15.0267  -19.6617 N   0  0  0  0  0  0  0  0  0  0  0  0
   24.2950  -19.8983  -18.2752 C   0  0  0  0  0  0  0  0  0  0  0  0
   24.8786  -20.8992  -17.7759 O   0  0  0  0  0  0  0  0  0  0  0  0
   23.0471  -19.4285  -17.8415 N   0  0  0  0  0  0  0  0  0  0  0  0
   22.4332  -20.0409  -16.6601 C   0  0  1  0  0  0  0  0  0  0  0  0
   23.1981  -19.6178  -15.4515 C   0  0  0  0  0  0  0  0  0  0  0  0
   22.6363  -20.1583  -14.2263 C   0  0  0  0  0  0  0  0  0  0  0  0
   22.5975  -21.3482  -13.8754 O   0  0  0  0  0  0  0  0  0  0  0  0
   20.9856  -19.6286  -16.6198 C   0  0  0  0  0  0  0  0  0  0  0  0
   20.5767  -18.4791  -16.8634 O   0  0  0  0  0  0  0  0  0  0  0  0
   22.0700  -19.2116  -13.3358 O   0  0  0  0  0  0  0  0  0  0  0  0
   19.9722  -20.5879  -16.2835 N   0  0  0  0  0  0  0  0  0  0  0  0
   18.5387  -20.2493  -16.2957 C   0  0  1  0  0  0  0  0  0  0  0  0
   18.2846  -18.9983  -15.5271 C   0  0  0  0  0  0  0  0  0  0  0  0
   16.8425  -18.6891  -15.5100 C   0  0  0  0  0  0  0  0  0  0  0  0
   15.8403  -19.4192  -14.8808 C   0  0  0  0  0  0  0  0  0  0  0  0
   14.6494  -18.8488  -15.0996 N   0  0  0  0  0  0  0  0  0  0  0  0
   14.8594  -17.7702  -15.8535 C   0  0  0  0  0  0  0  0  0  0  0  0
   16.1926  -17.6587  -16.1127 N   0  0  0  0  0  0  0  0  0  0  0  0
   17.9919  -20.3046  -17.6510 C   0  0  0  0  0  0  0  0  0  0  0  0
   18.0430  -19.2634  -18.5701 O   0  0  0  0  0  0  0  0  0  0  0  0
   17.4303  -21.3521  -18.0429 O   0  0  0  0  0  0  0  0  0  0  0  0
  2  1  1  1
  3  2  1  0
  3  4  1  0
  4  5  1  0
  5  6  1  0
  7  6  1  0
  8  9  2  0
  8  2  1  0
 10  8  1  0
 11 10  1  0
 11 12  1  1
 12 13  1  0
 13 17  1  0
 14 13  2  0
 15 11  1  0
 16 15  2  0
 18 15  1  0
 19 18  1  0
 19 20  1  6
 20 21  1  0
 21 25  1  0
 21 22  2  0
 22 23  1  0
 24 23  1  0
 25 24  2  0
 26 19  1  0
 27 26  1  0
 28 26  2  0
M  END
$$$$
