KDH.pdb
     RDKit          3D

 28 28  0  0  1  0  0  0  0  0999 V2000
   19.8496  -12.8480  -17.5151 N   0  0  0  0  0  0  0  0  0  0  0  0
   20.6382  -11.7214  -17.9149 C   0  0  1  0  0  0  0  0  0  0  0  0
   20.7036  -11.4814  -19.3682 C   0  0  0  0  0  0  0  0  0  0  0  0
   21.7829  -12.2208  -20.0746 C   0  0  0  0  0  0  0  0  0  0  0  0
   21.4600  -13.6342  -20.4152 C   0  0  0  0  0  0  0  0  0  0  0  0
   22.6156  -14.3074  -21.1118 C   0  0  0  0  0  0  0  0  0  0  0  0
   22.2274  -15.6744  -21.4883 N   0  0  0  0  0  0  0  0  0  0  0  0
   20.2280  -10.5364  -17.1192 C   0  0  0  0  0  0  0  0  0  0  0  0
   18.9967  -10.2625  -17.0997 O   0  0  0  0  0  0  0  0  0  0  0  0
   21.2020   -9.7912  -16.4395 N   0  0  0  0  0  0  0  0  0  0  0  0
   20.7768   -8.6520  -15.6216 C   0  0  1  0  0  0  0  0  0  0  0  0
   21.6048   -8.6196  -14.3814 C   0  0  0  0  0  0  0  0  0  0  0  0
   21.1957   -7.5632  -13.4728 C   0  0  0  0  0  0  0  0  0  0  0  0
   20.3204   -6.7037  -13.6612 O   0  0  0  0  0  0  0  0  0  0  0  0
   20.9080   -7.4046  -16.4547 C   0  0  0  0  0  0  0  0  0  0  0  0
   21.8770   -7.1533  -17.1934 O   0  0  0  0  0  0  0  0  0  0  0  0
   21.8794   -7.5162  -12.2318 O   0  0  0  0  0  0  0  0  0  0  0  0
   19.8739   -6.4094  -16.4298 N   0  0  0  0  0  0  0  0  0  0  0  0
   19.9608   -5.1702  -17.2215 C   0  0  1  0  0  0  0  0  0  0  0  0
   19.5577   -5.4166  -18.6347 C   0  0  0  0  0  0  0  0  0  0  0  0
   19.6886   -4.1811  -19.4297 C   0  0  0  0  0  0  0  0  0  0  0  0
   20.8306   -3.4019  -19.5783 C   0  0  0  0  0  0  0  0  0  0  0  0
   20.5677   -2.3444  -20.3554 N   0  0  0  0  0  0  0  0  0  0  0  0
   19.2858   -2.4230  -20.7109 C   0  0  0  0  0  0  0  0  0  0  0  0
   18.7352   -3.5382  -20.1542 N   0  0  0  0  0  0  0  0  0  0  0  0
   19.3008   -4.0575  -16.5395 C   0  0  0  0  0  0  0  0  0  0  0  0
   19.5627   -2.7136  -16.7776 O   0  0  0  0  0  0  0  0  0  0  0  0
   18.4314   -4.2993  -15.6722 O   0  0  0  0  0  0  0  0  0  0  0  0
  2  1  1  6
  3  2  1  0
  3  4  1  0
  4  5  1  0
  5  6  1  0
  7  6  1  0
  8  9  2  0
  8  2  1  0
 10  8  1  0
 11 10  1  0
 11 12  1  1
 12 13  1  0
 13 17  1  0
 14 13  2  0
 15 11  1  0
 16 15  2  0
 18 15  1  0
 19 18  1  0
 19 20  1  6
 20 21  1  0
 21 25  1  0
 21 22  2  0
 22 23  1  0
 24 23  1  0
 25 24  2  0
 26 19  1  0
 27 26  1  0
 28 26  2  0
M  END
$$$$
