KDH.pdb
     RDKit          3D

 28 28  0  0  1  0  0  0  0  0999 V2000
   27.0764  -18.8689  -16.7819 N   0  0  0  0  0  0  0  0  0  0  0  0
   26.1524  -19.9516  -16.6244 C   0  0  1  0  0  0  0  0  0  0  0  0
   26.7488  -21.2340  -16.2076 C   0  0  0  0  0  0  0  0  0  0  0  0
   25.9854  -22.4409  -16.6216 C   0  0  0  0  0  0  0  0  0  0  0  0
   26.5553  -23.7367  -16.1590 C   0  0  0  0  0  0  0  0  0  0  0  0
   25.7449  -24.9032  -16.6653 C   0  0  0  0  0  0  0  0  0  0  0  0
   26.3370  -26.1564  -16.1753 N   0  0  0  0  0  0  0  0  0  0  0  0
   25.0197  -19.5019  -15.7758 C   0  0  0  0  0  0  0  0  0  0  0  0
   25.3136  -18.9423  -14.6839 O   0  0  0  0  0  0  0  0  0  0  0  0
   23.7042  -19.7120  -16.2133 N   0  0  0  0  0  0  0  0  0  0  0  0
   22.5971  -19.2569  -15.3677 C   0  0  1  0  0  0  0  0  0  0  0  0
   21.8955  -18.1383  -16.0614 C   0  0  0  0  0  0  0  0  0  0  0  0
   22.5638  -16.8637  -15.8674 C   0  0  0  0  0  0  0  0  0  0  0  0
   22.6242  -16.1952  -14.8235 O   0  0  0  0  0  0  0  0  0  0  0  0
   21.7037  -20.4375  -15.0933 C   0  0  0  0  0  0  0  0  0  0  0  0
   22.0865  -21.6213  -15.0914 O   0  0  0  0  0  0  0  0  0  0  0  0
   23.2194  -16.3301  -17.0056 O   0  0  0  0  0  0  0  0  0  0  0  0
   20.3111  -20.2367  -14.8097 N   0  0  0  0  0  0  0  0  0  0  0  0
   19.3986  -21.3596  -14.5332 C   0  0  1  0  0  0  0  0  0  0  0  0
   19.8841  -22.1624  -13.3756 C   0  0  0  0  0  0  0  0  0  0  0  0
   20.5122  -23.4122  -13.8438 C   0  0  0  0  0  0  0  0  0  0  0  0
   20.6723  -23.8219  -15.1628 C   0  0  0  0  0  0  0  0  0  0  0  0
   21.2657  -25.0210  -15.2029 N   0  0  0  0  0  0  0  0  0  0  0  0
   21.4916  -25.3935  -13.9436 C   0  0  0  0  0  0  0  0  0  0  0  0
   21.0376  -24.4226  -13.1020 N   0  0  0  0  0  0  0  0  0  0  0  0
   18.0074  -20.9118  -14.4788 C   0  0  0  0  0  0  0  0  0  0  0  0
   16.9227  -21.7272  -14.1788 O   0  0  0  0  0  0  0  0  0  0  0  0
   17.7402  -19.7120  -14.7147 O   0  0  0  0  0  0  0  0  0  0  0  0
  2  1  1  1
  3  2  1  0
  3  4  1  0
  4  5  1  0
  5  6  1  0
  7  6  1  0
  8  9  2  0
  8  2  1  0
 10  8  1  0
 11 10  1  0
 11 12  1  6
 12 13  1  0
 13 17  1  0
 14 13  2  0
 15 11  1  0
 16 15  2  0
 18 15  1  0
 19 18  1  0
 19 20  1  1
 20 21  1  0
 21 25  1  0
 21 22  2  0
 22 23  1  0
 24 23  1  0
 25 24  2  0
 26 19  1  0
 27 26  1  0
 28 26  2  0
M  END
$$$$
