VGI.pdb
     RDKit          3D

 20 19  0  0  1  0  0  0  0  0999 V2000
   22.7233  -20.5566  -14.4257 C   0  0  0  0  0  0  0  0  0  0  0  0
   22.6319  -20.8297  -12.9253 C   0  0  1  0  0  0  0  0  0  0  0  0
   22.6788  -22.3174  -12.6849 C   0  0  0  0  0  0  0  0  0  0  0  0
   23.8467  -20.1915  -12.2894 C   0  0  2  0  0  0  0  0  0  0  0  0
   25.0768  -20.7239  -12.7847 N   0  0  0  0  0  0  0  0  0  0  0  0
   23.8141  -20.2465  -10.8176 C   0  0  0  0  0  0  0  0  0  0  0  0
   22.9248  -19.6957  -10.1196 O   0  0  0  0  0  0  0  0  0  0  0  0
   24.8352  -20.9562  -10.1329 N   0  0  0  0  0  0  0  0  0  0  0  0
   24.9668  -20.9433   -8.7076 C   0  0  0  0  0  0  0  0  0  0  0  0
   26.1853  -20.1720   -8.2728 C   0  0  0  0  0  0  0  0  0  0  0  0
   26.5631  -19.2359   -9.0116 O   0  0  0  0  0  0  0  0  0  0  0  0
   27.7839  -19.5339   -2.9683 C   0  0  0  0  0  0  0  0  0  0  0  0
   27.5041  -19.4216   -4.4305 C   0  0  0  0  0  0  0  0  0  0  0  0
   28.5314  -19.9404   -5.3664 C   0  0  2  0  0  0  0  0  0  0  0  0
   29.8906  -19.3147   -5.0873 C   0  0  0  0  0  0  0  0  0  0  0  0
   28.1766  -19.9066   -6.8061 C   0  0  2  0  0  0  0  0  0  0  0  0
   26.8815  -20.4762   -7.0906 N   0  0  0  0  0  0  0  0  0  0  0  0
   29.2717  -20.4462   -7.6332 C   0  0  0  0  0  0  0  0  0  0  0  0
   30.3113  -19.6900   -8.1180 O   0  0  0  0  0  0  0  0  0  0  0  0
   29.2627  -21.6694   -7.9202 O   0  0  0  0  0  0  0  0  0  0  0  0
  2  1  1  6
  2  3  1  0
  4  2  1  0
  4  5  1  6
  6  4  1  0
  6  8  1  0
  7  6  2  0
  9  8  1  0
  9 10  1  0
 10 17  1  0
 11 10  2  0
 12 13  1  0
 14 13  1  0
 14 15  1  6
 16 14  1  0
 16 17  1  1
 18 19  1  0
 18 16  1  0
 20 18  2  0
M  END
$$$$
