VGI.pdb
     RDKit          3D

 20 19  0  0  1  0  0  0  0  0999 V2000
   24.7359  -21.5563  -16.2408 C   0  0  0  0  0  0  0  0  0  0  0  0
   25.1408  -20.5935  -15.1258 C   0  0  1  0  0  0  0  0  0  0  0  0
   25.1275  -19.1821  -15.6556 C   0  0  0  0  0  0  0  0  0  0  0  0
   24.0971  -20.7191  -14.0385 C   0  0  2  0  0  0  0  0  0  0  0  0
   22.7645  -20.5495  -14.5259 N   0  0  0  0  0  0  0  0  0  0  0  0
   24.3502  -19.8196  -12.8996 C   0  0  0  0  0  0  0  0  0  0  0  0
   23.9884  -18.6156  -12.8691 O   0  0  0  0  0  0  0  0  0  0  0  0
   25.0394  -20.3231  -11.7653 N   0  0  0  0  0  0  0  0  0  0  0  0
   25.4059  -19.5010  -10.6523 C   0  0  0  0  0  0  0  0  0  0  0  0
   26.0626  -20.3076   -9.5628 C   0  0  0  0  0  0  0  0  0  0  0  0
   26.3146  -21.5072   -9.8125 O   0  0  0  0  0  0  0  0  0  0  0  0
   29.4980  -19.7503   -4.4112 C   0  0  0  0  0  0  0  0  0  0  0  0
   28.5855  -20.5104   -5.3159 C   0  0  0  0  0  0  0  0  0  0  0  0
   27.9039  -19.7539   -6.3946 C   0  0  2  0  0  0  0  0  0  0  0  0
   27.2338  -18.5027   -5.8450 C   0  0  0  0  0  0  0  0  0  0  0  0
   27.0033  -20.5405   -7.2721 C   0  0  2  0  0  0  0  0  0  0  0  0
   26.3861  -19.7537   -8.3126 N   0  0  0  0  0  0  0  0  0  0  0  0
   26.0564  -21.3422   -6.4751 C   0  0  0  0  0  0  0  0  0  0  0  0
   26.3950  -22.5004   -5.8182 O   0  0  0  0  0  0  0  0  0  0  0  0
   24.8649  -20.9535   -6.3861 O   0  0  0  0  0  0  0  0  0  0  0  0
  2  1  1  6
  2  3  1  0
  4  2  1  0
  4  5  1  6
  6  4  1  0
  6  8  1  0
  7  6  2  0
  9  8  1  0
  9 10  1  0
 10 17  1  0
 11 10  2  0
 12 13  1  0
 14 13  1  0
 14 15  1  1
 16 14  1  0
 16 17  1  6
 18 19  1  0
 18 16  1  0
 20 18  2  0
M  END
$$$$
