VGI.pdb
     RDKit          3D

 20 19  0  0  1  0  0  0  0  0999 V2000
   19.5529  -19.4446  -15.9573 C   0  0  0  0  0  0  0  0  0  0  0  0
   20.1090  -20.2255  -14.7678 C   0  0  1  0  0  0  0  0  0  0  0  0
   19.8878  -21.7000  -14.9912 C   0  0  0  0  0  0  0  0  0  0  0  0
   21.5961  -19.9540  -14.7225 C   0  0  2  0  0  0  0  0  0  0  0  0
   22.2552  -20.2663  -15.9514 N   0  0  0  0  0  0  0  0  0  0  0  0
   22.2631  -20.6237  -13.5926 C   0  0  0  0  0  0  0  0  0  0  0  0
   22.7135  -21.7967  -13.6456 O   0  0  0  0  0  0  0  0  0  0  0  0
   22.4144  -19.9210  -12.3685 N   0  0  0  0  0  0  0  0  0  0  0  0
   23.0595  -20.4878  -11.2233 C   0  0  0  0  0  0  0  0  0  0  0  0
   24.5492  -20.2689  -11.2642 C   0  0  0  0  0  0  0  0  0  0  0  0
   25.0074  -19.6360  -12.2411 O   0  0  0  0  0  0  0  0  0  0  0  0
   27.1292  -19.7057   -6.5947 C   0  0  0  0  0  0  0  0  0  0  0  0
   26.9034  -19.4845   -8.0538 C   0  0  0  0  0  0  0  0  0  0  0  0
   27.4813  -20.4753   -8.9944 C   0  0  2  0  0  0  0  0  0  0  0  0
   28.9923  -20.3200   -9.0912 C   0  0  0  0  0  0  0  0  0  0  0  0
   26.8339  -20.5631  -10.3260 C   0  0  2  0  0  0  0  0  0  0  0  0
   25.4043  -20.7476  -10.2571 N   0  0  0  0  0  0  0  0  0  0  0  0
   27.5302  -21.5350  -11.1892 C   0  0  0  0  0  0  0  0  0  0  0  0
   27.0743  -22.8077  -11.4346 O   0  0  0  0  0  0  0  0  0  0  0  0
   28.6073  -21.1904  -11.7366 O   0  0  0  0  0  0  0  0  0  0  0  0
  2  1  1  6
  2  3  1  0
  4  2  1  0
  4  5  1  6
  6  4  1  0
  6  8  1  0
  7  6  2  0
  9  8  1  0
  9 10  1  0
 10 17  1  0
 11 10  2  0
 12 13  1  0
 14 13  1  0
 14 15  1  6
 16 14  1  0
 16 17  1  1
 18 19  1  0
 18 16  1  0
 20 18  2  0
M  END
$$$$
