VGI.pdb
     RDKit          3D

 20 19  0  0  1  0  0  0  0  0999 V2000
   28.8297  -20.2529  -13.8041 C   0  0  0  0  0  0  0  0  0  0  0  0
   27.3725  -19.8322  -13.9878 C   0  0  1  0  0  0  0  0  0  0  0  0
   27.3238  -18.4571  -14.6041 C   0  0  0  0  0  0  0  0  0  0  0  0
   26.7487  -20.8217  -14.9465 C   0  0  2  0  0  0  0  0  0  0  0  0
   27.4862  -20.9565  -16.1631 N   0  0  0  0  0  0  0  0  0  0  0  0
   25.3335  -20.5261  -15.2291 C   0  0  0  0  0  0  0  0  0  0  0  0
   24.9441  -19.8818  -16.2364 O   0  0  0  0  0  0  0  0  0  0  0  0
   24.3407  -20.9863  -14.3247 N   0  0  0  0  0  0  0  0  0  0  0  0
   22.9534  -20.6629  -14.4654 C   0  0  0  0  0  0  0  0  0  0  0  0
   22.1244  -21.3061  -13.3848 C   0  0  0  0  0  0  0  0  0  0  0  0
   22.7330  -21.7558  -12.3886 O   0  0  0  0  0  0  0  0  0  0  0  0
   19.4893  -17.8327  -11.0256 C   0  0  0  0  0  0  0  0  0  0  0  0
   19.4638  -19.0199  -11.9306 C   0  0  0  0  0  0  0  0  0  0  0  0
   20.0307  -20.2888  -11.4121 C   0  0  2  0  0  0  0  0  0  0  0  0
   21.4582  -20.0898  -10.9228 C   0  0  0  0  0  0  0  0  0  0  0  0
   19.8941  -21.4718  -12.2962 C   0  0  2  0  0  0  0  0  0  0  0  0
   20.7256  -21.4062  -13.4739 N   0  0  0  0  0  0  0  0  0  0  0  0
   18.4753  -21.7654  -12.5708 C   0  0  0  0  0  0  0  0  0  0  0  0
   17.5717  -22.1509  -11.6102 O   0  0  0  0  0  0  0  0  0  0  0  0
   18.0569  -21.6626  -13.7510 O   0  0  0  0  0  0  0  0  0  0  0  0
  2  1  1  6
  2  3  1  0
  4  2  1  0
  4  5  1  6
  6  4  1  0
  6  8  1  0
  7  6  2  0
  9  8  1  0
  9 10  1  0
 10 17  1  0
 11 10  2  0
 12 13  1  0
 14 13  1  0
 14 15  1  6
 16 14  1  0
 16 17  1  6
 18 19  1  0
 18 16  1  0
 20 18  2  0
M  END
$$$$
