VGI.pdb
     RDKit          3D

 20 19  0  0  1  0  0  0  0  0999 V2000
   23.8781  -18.6609  -18.1356 C   0  0  0  0  0  0  0  0  0  0  0  0
   22.7711  -18.4996  -17.0951 C   0  0  1  0  0  0  0  0  0  0  0  0
   21.5909  -19.3527  -17.4855 C   0  0  0  0  0  0  0  0  0  0  0  0
   23.3275  -19.0034  -15.7822 C   0  0  2  0  0  0  0  0  0  0  0  0
   23.8429  -20.3333  -15.8713 N   0  0  0  0  0  0  0  0  0  0  0  0
   22.3612  -18.8958  -14.6754 C   0  0  0  0  0  0  0  0  0  0  0  0
   21.8241  -17.8149  -14.3223 O   0  0  0  0  0  0  0  0  0  0  0  0
   22.0051  -20.0671  -13.9568 N   0  0  0  0  0  0  0  0  0  0  0  0
   21.0199  -20.0706  -12.9184 C   0  0  0  0  0  0  0  0  0  0  0  0
   19.9571  -21.1080  -13.1694 C   0  0  0  0  0  0  0  0  0  0  0  0
   19.8040  -21.4959  -14.3488 O   0  0  0  0  0  0  0  0  0  0  0  0
   19.0454  -24.9531   -9.2012 C   0  0  0  0  0  0  0  0  0  0  0  0
   18.6642  -23.7863  -10.0510 C   0  0  0  0  0  0  0  0  0  0  0  0
   18.7334  -23.9589  -11.5226 C   0  0  2  0  0  0  0  0  0  0  0  0
   20.0861  -24.5148  -11.9444 C   0  0  0  0  0  0  0  0  0  0  0  0
   18.3234  -22.7878  -12.3352 C   0  0  2  0  0  0  0  0  0  0  0  0
   19.1613  -21.6300  -12.1355 N   0  0  0  0  0  0  0  0  0  0  0  0
   16.8797  -22.5240  -12.1912 C   0  0  0  0  0  0  0  0  0  0  0  0
   15.8966  -23.3344  -12.7056 O   0  0  0  0  0  0  0  0  0  0  0  0
   16.5149  -21.4981  -11.5642 O   0  0  0  0  0  0  0  0  0  0  0  0
  2  1  1  6
  2  3  1  0
  4  2  1  0
  4  5  1  6
  6  4  1  0
  6  8  1  0
  7  6  2  0
  9  8  1  0
  9 10  1  0
 10 17  1  0
 11 10  2  0
 12 13  1  0
 14 13  1  0
 14 15  1  1
 16 14  1  0
 16 17  1  1
 18 19  1  0
 18 16  1  0
 20 18  2  0
M  END
$$$$
