VGI.pdb
     RDKit          3D

 20 19  0  0  1  0  0  0  0  0999 V2000
   16.6471  -15.8865  -18.8820 C   0  0  0  0  0  0  0  0  0  0  0  0
   17.7854  -14.8771  -19.0213 C   0  0  1  0  0  0  0  0  0  0  0  0
   17.8244  -14.3610  -20.4374 C   0  0  0  0  0  0  0  0  0  0  0  0
   17.4687  -13.7288  -18.0894 C   0  0  2  0  0  0  0  0  0  0  0  0
   16.2357  -13.0800  -18.4067 N   0  0  0  0  0  0  0  0  0  0  0  0
   18.5634  -12.7466  -18.0036 C   0  0  0  0  0  0  0  0  0  0  0  0
   19.7132  -13.0208  -17.5746 O   0  0  0  0  0  0  0  0  0  0  0  0
   18.3246  -11.4120  -18.4243 N   0  0  0  0  0  0  0  0  0  0  0  0
   19.3600  -10.4268  -18.5040 C   0  0  0  0  0  0  0  0  0  0  0  0
   19.6132   -9.7826  -17.1662 C   0  0  0  0  0  0  0  0  0  0  0  0
   18.7054   -9.8677  -16.3097 O   0  0  0  0  0  0  0  0  0  0  0  0
   23.5406  -11.1775  -14.3118 C   0  0  0  0  0  0  0  0  0  0  0  0
   22.3149  -10.5644  -14.9041 C   0  0  0  0  0  0  0  0  0  0  0  0
   22.1980   -9.0863  -14.8587 C   0  0  2  0  0  0  0  0  0  0  0  0
   22.3048   -8.5735  -13.4296 C   0  0  0  0  0  0  0  0  0  0  0  0
   21.0449   -8.5021  -15.5860 C   0  0  2  0  0  0  0  0  0  0  0  0
   20.8120   -9.1103  -16.8738 N   0  0  0  0  0  0  0  0  0  0  0  0
   21.1301   -7.0302  -15.6166 C   0  0  0  0  0  0  0  0  0  0  0  0
   20.7063   -6.2157  -14.5945 O   0  0  0  0  0  0  0  0  0  0  0  0
   21.6156   -6.4765  -16.6346 O   0  0  0  0  0  0  0  0  0  0  0  0
  2  1  1  6
  2  3  1  0
  4  2  1  0
  4  5  1  6
  6  4  1  0
  6  8  1  0
  7  6  2  0
  9  8  1  0
  9 10  1  0
 10 17  1  0
 11 10  2  0
 12 13  1  0
 14 13  1  0
 14 15  1  1
 16 14  1  0
 16 17  1  6
 18 19  1  0
 18 16  1  0
 20 18  2  0
M  END
$$$$
