VGI.pdb
     RDKit          3D

 20 19  0  0  1  0  0  0  0  0999 V2000
   24.2110  -16.6474  -19.8822 C   0  0  0  0  0  0  0  0  0  0  0  0
   24.8695  -16.5192  -18.5096 C   0  0  1  0  0  0  0  0  0  0  0  0
   24.0373  -15.6118  -17.6395 C   0  0  0  0  0  0  0  0  0  0  0  0
   24.8854  -17.9035  -17.9007 C   0  0  2  0  0  0  0  0  0  0  0  0
   23.5771  -18.4572  -17.7462 N   0  0  0  0  0  0  0  0  0  0  0  0
   25.6239  -17.9569  -16.6271 C   0  0  0  0  0  0  0  0  0  0  0  0
   26.8781  -17.9123  -16.5468 O   0  0  0  0  0  0  0  0  0  0  0  0
   24.8954  -18.0647  -15.4135 N   0  0  0  0  0  0  0  0  0  0  0  0
   25.5282  -18.1108  -14.1304 C   0  0  0  0  0  0  0  0  0  0  0  0
   25.1548  -19.3595  -13.3753 C   0  0  0  0  0  0  0  0  0  0  0  0
   24.8487  -20.3665  -14.0515 O   0  0  0  0  0  0  0  0  0  0  0  0
   26.6367  -19.3773   -8.1649 C   0  0  0  0  0  0  0  0  0  0  0  0
   26.4627  -20.0997   -9.4598 C   0  0  0  0  0  0  0  0  0  0  0  0
   25.0959  -20.5568   -9.8110 C   0  0  2  0  0  0  0  0  0  0  0  0
   24.7514  -21.8527   -9.0908 C   0  0  0  0  0  0  0  0  0  0  0  0
   24.7801  -20.6116  -11.2591 C   0  0  2  0  0  0  0  0  0  0  0  0
   25.1449  -19.4105  -11.9711 N   0  0  0  0  0  0  0  0  0  0  0  0
   23.3894  -21.0494  -11.4805 C   0  0  0  0  0  0  0  0  0  0  0  0
   22.3344  -20.1889  -11.6657 O   0  0  0  0  0  0  0  0  0  0  0  0
   23.1422  -22.2811  -11.5008 O   0  0  0  0  0  0  0  0  0  0  0  0
  2  1  1  6
  2  3  1  0
  4  2  1  0
  4  5  1  1
  6  4  1  0
  6  8  1  0
  7  6  2  0
  9  8  1  0
  9 10  1  0
 10 17  1  0
 11 10  2  0
 12 13  1  0
 14 13  1  0
 14 15  1  6
 16 14  1  0
 16 17  1  1
 18 19  1  0
 18 16  1  0
 20 18  2  0
M  END
$$$$
