VGI.pdb
     RDKit          3D

 20 19  0  0  1  0  0  0  0  0999 V2000
   18.1583  -13.8059  -21.5026 C   0  0  0  0  0  0  0  0  0  0  0  0
   18.7783  -12.7486  -20.5906 C   0  0  1  0  0  0  0  0  0  0  0  0
   18.6359  -13.1830  -19.1539 C   0  0  0  0  0  0  0  0  0  0  0  0
   20.2485  -12.6782  -20.9383 C   0  0  2  0  0  0  0  0  0  0  0  0
   20.8737  -13.9628  -20.9697 N   0  0  0  0  0  0  0  0  0  0  0  0
   20.9972  -11.7593  -20.0635 C   0  0  0  0  0  0  0  0  0  0  0  0
   21.8822  -12.1352  -19.2530 O   0  0  0  0  0  0  0  0  0  0  0  0
   20.7170  -10.3690  -20.1256 N   0  0  0  0  0  0  0  0  0  0  0  0
   21.4747   -9.3920  -19.4042 C   0  0  0  0  0  0  0  0  0  0  0  0
   21.0707   -9.3408  -17.9541 C   0  0  0  0  0  0  0  0  0  0  0  0
   20.0632  -10.0016  -17.6175 O   0  0  0  0  0  0  0  0  0  0  0  0
   23.9117  -11.1395  -14.2798 C   0  0  0  0  0  0  0  0  0  0  0  0
   22.8247  -10.5254  -15.0986 C   0  0  0  0  0  0  0  0  0  0  0  0
   22.3422   -9.1809  -14.6986 C   0  0  2  0  0  0  0  0  0  0  0  0
   21.8575   -9.1813  -13.2557 C   0  0  0  0  0  0  0  0  0  0  0  0
   21.3766   -8.5351  -15.6208 C   0  0  2  0  0  0  0  0  0  0  0  0
   21.7826   -8.5882  -17.0046 N   0  0  0  0  0  0  0  0  0  0  0  0
   21.0133   -7.1870  -15.1464 C   0  0  0  0  0  0  0  0  0  0  0  0
   19.9510   -6.9267  -14.3147 O   0  0  0  0  0  0  0  0  0  0  0  0
   21.7083   -6.2096  -15.5208 O   0  0  0  0  0  0  0  0  0  0  0  0
  2  1  1  6
  2  3  1  0
  4  2  1  0
  4  5  1  1
  6  4  1  0
  6  8  1  0
  7  6  2  0
  9  8  1  0
  9 10  1  0
 10 17  1  0
 11 10  2  0
 12 13  1  0
 14 13  1  0
 14 15  1  1
 16 14  1  0
 16 17  1  6
 18 19  1  0
 18 16  1  0
 20 18  2  0
M  END
$$$$
