CGD.pdb
     RDKit          3D

 19 18  0  0  1  0  0  0  0  0999 V2000
    7.9487  -18.3514   17.0726 N   0  0  0  0  0  0  0  0  0  0  0  0
    8.0975  -18.1532   18.5246 C   0  0  1  0  0  0  0  0  0  0  0  0
    7.2544  -19.2516   19.1446 C   0  0  0  0  0  0  0  0  0  0  0  0
    5.5565  -18.7037   19.2975 S   0  0  0  0  0  0  0  0  0  0  0  0
    9.5450  -18.3302   18.8108 C   0  0  0  0  0  0  0  0  0  0  0  0
   10.0792  -19.4569   18.7352 O   0  0  0  0  0  0  0  0  0  0  0  0
   10.4132  -17.2488   19.1847 N   0  0  0  0  0  0  0  0  0  0  0  0
   11.8188  -17.4270   19.4487 C   0  0  0  0  0  0  0  0  0  0  0  0
   12.2647  -16.6901   20.6615 C   0  0  0  0  0  0  0  0  0  0  0  0
   12.5979  -15.4813   20.6119 O   0  0  0  0  0  0  0  0  0  0  0  0
   12.3170  -17.3602   21.9134 N   0  0  0  0  0  0  0  0  0  0  0  0
   12.8856  -16.7785   23.1177 C   0  0  1  0  0  0  0  0  0  0  0  0
   12.7847  -17.8615   24.2028 C   0  0  0  0  0  0  0  0  0  0  0  0
   13.1225  -17.2665   25.4959 C   0  0  0  0  0  0  0  0  0  0  0  0
   13.4371  -16.0280   25.5381 O   0  0  0  0  0  0  0  0  0  0  0  0
   14.3350  -16.4705   22.9292 C   0  0  0  0  0  0  0  0  0  0  0  0
   15.0614  -17.2409   22.2913 O   0  0  0  0  0  0  0  0  0  0  0  0
   13.1125  -18.0096   26.6734 O   0  0  0  0  0  0  0  0  0  0  0  0
   14.8848  -15.3036   23.4765 O   0  0  0  0  0  0  0  0  0  0  0  0
  2  1  1  6
  2  3  1  0
  4  3  1  0
  5  2  1  0
  6  5  2  0
  7  5  1  0
  8  7  1  0
  9  8  1  0
  9 10  2  0
 11  9  1  0
 12 11  1  0
 12 13  1  1
 14 13  1  0
 15 14  2  0
 16 12  1  0
 17 16  2  0
 18 14  1  0
 19 16  1  0
M  END
$$$$
