CGD.pdb
     RDKit          3D

 19 18  0  0  1  0  0  0  0  0999 V2000
    6.4737  -11.8242   25.0758 N   0  0  0  0  0  0  0  0  0  0  0  0
    7.3069  -12.8746   25.6861 C   0  0  1  0  0  0  0  0  0  0  0  0
    6.6849  -13.1055   27.0504 C   0  0  0  0  0  0  0  0  0  0  0  0
    6.5424  -11.5503   27.9263 S   0  0  0  0  0  0  0  0  0  0  0  0
    7.1729  -14.0617   24.8021 C   0  0  0  0  0  0  0  0  0  0  0  0
    6.0766  -14.3473   24.2758 O   0  0  0  0  0  0  0  0  0  0  0  0
    8.2641  -14.9440   24.4955 N   0  0  0  0  0  0  0  0  0  0  0  0
    8.3334  -15.7115   23.2775 C   0  0  0  0  0  0  0  0  0  0  0  0
    9.5348  -16.5872   23.2281 C   0  0  0  0  0  0  0  0  0  0  0  0
    9.7774  -17.3168   22.2364 O   0  0  0  0  0  0  0  0  0  0  0  0
   10.4388  -16.6053   24.3244 N   0  0  0  0  0  0  0  0  0  0  0  0
   11.8498  -16.9310   24.2023 C   0  0  1  0  0  0  0  0  0  0  0  0
   12.5273  -15.6798   23.6226 C   0  0  0  0  0  0  0  0  0  0  0  0
   13.8155  -16.0652   23.0463 C   0  0  0  0  0  0  0  0  0  0  0  0
   14.8405  -16.1099   23.8093 O   0  0  0  0  0  0  0  0  0  0  0  0
   12.4571  -17.1857   25.5429 C   0  0  0  0  0  0  0  0  0  0  0  0
   13.6091  -17.6244   25.6358 O   0  0  0  0  0  0  0  0  0  0  0  0
   13.9538  -16.3803   21.6970 O   0  0  0  0  0  0  0  0  0  0  0  0
   11.7237  -16.9302   26.7093 O   0  0  0  0  0  0  0  0  0  0  0  0
  2  1  1  6
  2  3  1  0
  4  3  1  0
  5  2  1  0
  6  5  2  0
  7  5  1  0
  8  7  1  0
  9  8  1  0
  9 10  2  0
 11  9  1  0
 12 11  1  0
 12 13  1  1
 14 13  1  0
 15 14  2  0
 16 12  1  0
 17 16  2  0
 18 14  1  0
 19 16  1  0
M  END
$$$$
