CGD.pdb
     RDKit          3D

 19 18  0  0  1  0  0  0  0  0999 V2000
    6.1598  -14.0740   26.2400 N   0  0  0  0  0  0  0  0  0  0  0  0
    6.6007  -13.0017   25.3314 C   0  0  1  0  0  0  0  0  0  0  0  0
    7.5691  -12.1785   26.1598 C   0  0  0  0  0  0  0  0  0  0  0  0
    6.7698  -11.6305   27.6655 S   0  0  0  0  0  0  0  0  0  0  0  0
    7.2755  -13.6846   24.1970 C   0  0  0  0  0  0  0  0  0  0  0  0
    7.9124  -13.0311   23.3440 O   0  0  0  0  0  0  0  0  0  0  0  0
    7.2467  -15.1075   24.0031 N   0  0  0  0  0  0  0  0  0  0  0  0
    7.8720  -15.7586   22.8796 C   0  0  0  0  0  0  0  0  0  0  0  0
    9.0167  -16.6163   23.2879 C   0  0  0  0  0  0  0  0  0  0  0  0
    9.2420  -17.7204   22.7356 O   0  0  0  0  0  0  0  0  0  0  0  0
    9.8850  -16.1846   24.3267 N   0  0  0  0  0  0  0  0  0  0  0  0
   10.8212  -17.0594   25.0124 C   0  0  1  0  0  0  0  0  0  0  0  0
   12.1180  -16.2517   25.1755 C   0  0  0  0  0  0  0  0  0  0  0  0
   12.8154  -16.2147   23.8900 C   0  0  0  0  0  0  0  0  0  0  0  0
   13.6541  -15.2743   23.6737 O   0  0  0  0  0  0  0  0  0  0  0  0
   10.3314  -17.3970   26.3825 C   0  0  0  0  0  0  0  0  0  0  0  0
    9.3256  -16.8446   26.8422 O   0  0  0  0  0  0  0  0  0  0  0  0
   12.5892  -17.1695   22.9019 O   0  0  0  0  0  0  0  0  0  0  0  0
   11.0106  -18.3441   27.1606 O   0  0  0  0  0  0  0  0  0  0  0  0
  2  1  1  1
  2  3  1  0
  4  3  1  0
  5  2  1  0
  6  5  2  0
  7  5  1  0
  8  7  1  0
  9  8  1  0
  9 10  2  0
 11  9  1  0
 12 11  1  0
 12 13  1  1
 14 13  1  0
 15 14  2  0
 16 12  1  0
 17 16  2  0
 18 14  1  0
 19 16  1  0
M  END
$$$$
