CGD.pdb
     RDKit          3D

 19 18  0  0  1  0  0  0  0  0999 V2000
    8.5374  -14.6253   19.2780 N   0  0  0  0  0  0  0  0  0  0  0  0
    8.2013  -14.0747   20.6022 C   0  0  1  0  0  0  0  0  0  0  0  0
    7.2018  -12.9714   20.3105 C   0  0  0  0  0  0  0  0  0  0  0  0
    8.0280  -11.5947   19.5177 S   0  0  0  0  0  0  0  0  0  0  0  0
    7.5907  -15.1956   21.3633 C   0  0  0  0  0  0  0  0  0  0  0  0
    7.2833  -16.2637   20.7932 O   0  0  0  0  0  0  0  0  0  0  0  0
    7.3171  -15.1358   22.7721 N   0  0  0  0  0  0  0  0  0  0  0  0
    6.7004  -16.2178   23.4977 C   0  0  0  0  0  0  0  0  0  0  0  0
    7.6852  -17.0002   24.2918 C   0  0  0  0  0  0  0  0  0  0  0  0
    7.3428  -18.0080   24.9566 O   0  0  0  0  0  0  0  0  0  0  0  0
    9.0509  -16.6078   24.3044 N   0  0  0  0  0  0  0  0  0  0  0  0
   10.0854  -17.3075   25.0474 C   0  0  1  0  0  0  0  0  0  0  0  0
   11.4135  -16.6374   24.6628 C   0  0  0  0  0  0  0  0  0  0  0  0
   11.6855  -16.9056   23.2506 C   0  0  0  0  0  0  0  0  0  0  0  0
   12.0591  -15.9380   22.5031 O   0  0  0  0  0  0  0  0  0  0  0  0
    9.9035  -17.1240   26.5185 C   0  0  0  0  0  0  0  0  0  0  0  0
    9.2345  -16.1802   26.9542 O   0  0  0  0  0  0  0  0  0  0  0  0
   11.5468  -18.1782   22.7028 O   0  0  0  0  0  0  0  0  0  0  0  0
   10.4923  -18.0216   27.4192 O   0  0  0  0  0  0  0  0  0  0  0  0
  2  1  1  6
  2  3  1  0
  4  3  1  0
  5  2  1  0
  6  5  2  0
  7  5  1  0
  8  7  1  0
  9  8  1  0
  9 10  2  0
 11  9  1  0
 12 11  1  0
 12 13  1  6
 14 13  1  0
 15 14  2  0
 16 12  1  0
 17 16  2  0
 18 14  1  0
 19 16  1  0
M  END
$$$$
