CGD.pdb
     RDKit          3D

 19 18  0  0  1  0  0  0  0  0999 V2000
    7.7808  -14.7460   19.2974 N   0  0  0  0  0  0  0  0  0  0  0  0
    8.9651  -14.0873   18.7201 C   0  0  1  0  0  0  0  0  0  0  0  0
    9.0170  -12.7346   19.4050 C   0  0  0  0  0  0  0  0  0  0  0  0
    7.5374  -11.8011   19.0234 S   0  0  0  0  0  0  0  0  0  0  0  0
   10.1231  -14.9441   19.0856 C   0  0  0  0  0  0  0  0  0  0  0  0
   10.1252  -15.5969   20.1506 O   0  0  0  0  0  0  0  0  0  0  0  0
   11.2929  -15.0819   18.2637 N   0  0  0  0  0  0  0  0  0  0  0  0
   12.4026  -15.9318   18.6153 C   0  0  0  0  0  0  0  0  0  0  0  0
   13.3500  -15.2675   19.5501 C   0  0  0  0  0  0  0  0  0  0  0  0
   13.4735  -14.0193   19.5855 O   0  0  0  0  0  0  0  0  0  0  0  0
   14.1390  -16.0553   20.4312 N   0  0  0  0  0  0  0  0  0  0  0  0
   15.1259  -15.5029   21.3439 C   0  0  1  0  0  0  0  0  0  0  0  0
   15.3655  -16.5787   22.4143 C   0  0  0  0  0  0  0  0  0  0  0  0
   14.1632  -16.6996   23.2390 C   0  0  0  0  0  0  0  0  0  0  0  0
   13.6134  -15.6338   23.6822 O   0  0  0  0  0  0  0  0  0  0  0  0
   16.4264  -15.2701   20.6473 C   0  0  0  0  0  0  0  0  0  0  0  0
   16.5765  -15.6132   19.4692 O   0  0  0  0  0  0  0  0  0  0  0  0
   13.6074  -17.9370   23.5534 O   0  0  0  0  0  0  0  0  0  0  0  0
   17.4903  -14.6605   21.3256 O   0  0  0  0  0  0  0  0  0  0  0  0
  2  1  1  1
  2  3  1  0
  4  3  1  0
  5  2  1  0
  6  5  2  0
  7  5  1  0
  8  7  1  0
  9  8  1  0
  9 10  2  0
 11  9  1  0
 12 11  1  0
 12 13  1  1
 14 13  1  0
 15 14  2  0
 16 12  1  0
 17 16  2  0
 18 14  1  0
 19 16  1  0
M  END
$$$$
