CGD.pdb
     RDKit          3D

 19 18  0  0  1  0  0  0  0  0999 V2000
   -5.4243  -22.1513   24.9586 N   0  0  0  0  0  0  0  0  0  0  0  0
   -4.0217  -21.7464   25.1556 C   0  0  1  0  0  0  0  0  0  0  0  0
   -4.0816  -20.2384   25.3097 C   0  0  0  0  0  0  0  0  0  0  0  0
   -4.6775  -19.4941   23.7940 S   0  0  0  0  0  0  0  0  0  0  0  0
   -3.5781  -22.4191   26.4042 C   0  0  0  0  0  0  0  0  0  0  0  0
   -2.4704  -22.1519   26.9163 O   0  0  0  0  0  0  0  0  0  0  0  0
   -4.3684  -23.3988   27.0961 N   0  0  0  0  0  0  0  0  0  0  0  0
   -3.9122  -24.0787   28.2822 C   0  0  0  0  0  0  0  0  0  0  0  0
   -4.8710  -23.9502   29.4122 C   0  0  0  0  0  0  0  0  0  0  0  0
   -4.6493  -24.4813   30.5274 O   0  0  0  0  0  0  0  0  0  0  0  0
   -6.0703  -23.2084   29.2375 N   0  0  0  0  0  0  0  0  0  0  0  0
   -7.1409  -23.1610   30.2192 C   0  0  1  0  0  0  0  0  0  0  0  0
   -8.1368  -22.1062   29.7130 C   0  0  0  0  0  0  0  0  0  0  0  0
   -9.2403  -22.0028   30.6679 C   0  0  0  0  0  0  0  0  0  0  0  0
   -8.9667  -21.8686   31.9096 O   0  0  0  0  0  0  0  0  0  0  0  0
   -7.8665  -24.4650   30.2817 C   0  0  0  0  0  0  0  0  0  0  0  0
   -8.2564  -24.9137   31.3656 O   0  0  0  0  0  0  0  0  0  0  0  0
  -10.5716  -22.0489   30.2625 O   0  0  0  0  0  0  0  0  0  0  0  0
   -8.1105  -25.1930   29.1095 O   0  0  0  0  0  0  0  0  0  0  0  0
  2  1  1  1
  2  3  1  0
  4  3  1  0
  5  2  1  0
  6  5  2  0
  7  5  1  0
  8  7  1  0
  9  8  1  0
  9 10  2  0
 11  9  1  0
 12 11  1  0
 12 13  1  6
 14 13  1  0
 15 14  2  0
 16 12  1  0
 17 16  2  0
 18 14  1  0
 19 16  1  0
M  END
$$$$
