CGD.pdb
     RDKit          3D

 19 18  0  0  1  0  0  0  0  0999 V2000
    5.8890  -13.9569   26.2167 N   0  0  0  0  0  0  0  0  0  0  0  0
    6.6321  -13.0609   25.3140 C   0  0  1  0  0  0  0  0  0  0  0  0
    7.7012  -12.4400   26.1933 C   0  0  0  0  0  0  0  0  0  0  0  0
    6.9484  -11.7119   27.6457 S   0  0  0  0  0  0  0  0  0  0  0  0
    7.2119  -13.9363   24.2622 C   0  0  0  0  0  0  0  0  0  0  0  0
    7.9041  -13.4561   23.3399 O   0  0  0  0  0  0  0  0  0  0  0  0
    7.0250  -15.3600   24.2296 N   0  0  0  0  0  0  0  0  0  0  0  0
    7.4571  -16.1825   23.1277 C   0  0  0  0  0  0  0  0  0  0  0  0
    8.7644  -16.8412   23.3920 C   0  0  0  0  0  0  0  0  0  0  0  0
    9.1800  -17.7882   22.6812 O   0  0  0  0  0  0  0  0  0  0  0  0
    9.5726  -16.3946   24.4721 N   0  0  0  0  0  0  0  0  0  0  0  0
   10.7443  -17.1075   24.9526 C   0  0  1  0  0  0  0  0  0  0  0  0
   11.9233  -16.1321   24.8135 C   0  0  0  0  0  0  0  0  0  0  0  0
   12.5390  -16.3206   23.5000 C   0  0  0  0  0  0  0  0  0  0  0  0
   12.0766  -17.2309   22.7304 O   0  0  0  0  0  0  0  0  0  0  0  0
   10.6100  -17.4401   26.4024 C   0  0  0  0  0  0  0  0  0  0  0  0
   11.3241  -18.3095   26.9147 O   0  0  0  0  0  0  0  0  0  0  0  0
   13.6099  -15.5412   23.0700 O   0  0  0  0  0  0  0  0  0  0  0  0
    9.6699  -16.7687   27.1957 O   0  0  0  0  0  0  0  0  0  0  0  0
  2  1  1  1
  2  3  1  0
  4  3  1  0
  5  2  1  0
  6  5  2  0
  7  5  1  0
  8  7  1  0
  9  8  1  0
  9 10  2  0
 11  9  1  0
 12 11  1  0
 12 13  1  1
 14 13  1  0
 15 14  2  0
 16 12  1  0
 17 16  2  0
 18 14  1  0
 19 16  1  0
M  END
$$$$
