CGD.pdb
     RDKit          3D

 19 18  0  0  1  0  0  0  0  0999 V2000
    7.4786  -12.7584   18.8640 N   0  0  0  0  0  0  0  0  0  0  0  0
    7.1525  -13.9265   19.7000 C   0  0  1  0  0  0  0  0  0  0  0  0
    7.3552  -15.1171   18.7818 C   0  0  0  0  0  0  0  0  0  0  0  0
    9.0805  -15.2434   18.3195 S   0  0  0  0  0  0  0  0  0  0  0  0
    8.1313  -13.9096   20.8182 C   0  0  0  0  0  0  0  0  0  0  0  0
    9.1256  -13.1542   20.7869 O   0  0  0  0  0  0  0  0  0  0  0  0
    8.0095  -14.7373   21.9857 N   0  0  0  0  0  0  0  0  0  0  0  0
    8.9088  -14.6467   23.1084 C   0  0  0  0  0  0  0  0  0  0  0  0
    9.9585  -15.7002   23.0790 C   0  0  0  0  0  0  0  0  0  0  0  0
    9.7896  -16.7809   22.4639 O   0  0  0  0  0  0  0  0  0  0  0  0
   11.1882  -15.4886   23.7589 N   0  0  0  0  0  0  0  0  0  0  0  0
   12.2694  -16.4590   23.7933 C   0  0  1  0  0  0  0  0  0  0  0  0
   13.4845  -15.7226   24.3782 C   0  0  0  0  0  0  0  0  0  0  0  0
   14.7050  -16.3520   23.8740 C   0  0  0  0  0  0  0  0  0  0  0  0
   14.6006  -17.2890   23.0103 O   0  0  0  0  0  0  0  0  0  0  0  0
   11.9454  -17.5873   24.7168 C   0  0  0  0  0  0  0  0  0  0  0  0
   11.2492  -17.3957   25.7201 O   0  0  0  0  0  0  0  0  0  0  0  0
   15.9688  -15.9613   24.3091 O   0  0  0  0  0  0  0  0  0  0  0  0
   12.4305  -18.8754   24.4536 O   0  0  0  0  0  0  0  0  0  0  0  0
  2  1  1  6
  2  3  1  0
  4  3  1  0
  5  2  1  0
  6  5  2  0
  7  5  1  0
  8  7  1  0
  9  8  1  0
  9 10  2  0
 11  9  1  0
 12 11  1  0
 12 13  1  1
 14 13  1  0
 15 14  2  0
 16 12  1  0
 17 16  2  0
 18 14  1  0
 19 16  1  0
M  END
$$$$
