VTQ.pdb
     RDKit          3D

 24 23  0  0  1  0  0  0  0  0999 V2000
   26.7057  -34.7201   -8.7691 C   0  0  0  0  0  0  0  0  0  0  0  0
   26.2564  -33.2873   -8.9400 C   0  0  2  0  0  0  0  0  0  0  0  0
   27.2892  -32.3628   -8.3718 C   0  0  0  0  0  0  0  0  0  0  0  0
   24.9416  -33.0185   -8.2607 C   0  0  2  0  0  0  0  0  0  0  0  0
   24.4116  -31.7113   -8.5338 N   0  0  0  0  0  0  0  0  0  0  0  0
   25.0083  -33.2202   -6.7896 C   0  0  0  0  0  0  0  0  0  0  0  0
   25.1712  -32.2624   -5.9863 O   0  0  0  0  0  0  0  0  0  0  0  0
   23.5894  -35.9019   -2.9791 C   0  0  0  0  0  0  0  0  0  0  0  0
   23.5648  -35.4486   -4.4149 C   0  0  1  0  0  0  0  0  0  0  0  0
   22.5468  -34.4841   -4.5102 O   0  0  0  0  0  0  0  0  0  0  0  0
   24.8766  -34.7629   -4.7780 C   0  0  2  0  0  0  0  0  0  0  0  0
   24.8896  -34.5167   -6.2243 N   0  0  0  0  0  0  0  0  0  0  0  0
   26.0677  -35.5877   -4.4926 C   0  0  0  0  0  0  0  0  0  0  0  0
   26.3438  -36.5301   -5.3184 O   0  0  0  0  0  0  0  0  0  0  0  0
   30.3595  -34.8002   -0.0430 N   0  0  0  0  0  0  0  0  0  0  0  0
   30.8954  -35.9413   -0.6739 C   0  0  0  0  0  0  0  0  0  0  0  0
   32.0014  -36.3918   -0.2868 O   0  0  0  0  0  0  0  0  0  0  0  0
   30.1183  -36.5721   -1.7860 C   0  0  0  0  0  0  0  0  0  0  0  0
   28.8569  -35.7298   -1.9792 C   0  0  0  0  0  0  0  0  0  0  0  0
   28.0287  -36.2794   -3.1217 C   0  0  2  0  0  0  0  0  0  0  0  0
   26.8966  -35.3844   -3.3762 N   0  0  0  0  0  0  0  0  0  0  0  0
   27.4656  -37.5995   -2.7504 C   0  0  0  0  0  0  0  0  0  0  0  0
   28.2063  -38.6357   -2.7781 O   0  0  0  0  0  0  0  0  0  0  0  0
   26.1492  -37.7974   -2.3624 O   0  0  0  0  0  0  0  0  0  0  0  0
  2  1  1  1
  2  3  1  0
  4  6  1  0
  4  2  1  0
  4  5  1  1
  6  7  2  0
  9  8  1  1
 10  9  1  0
 11  9  1  0
 11 12  1  6
 12  6  1  0
 13 21  1  0
 13 11  1  0
 14 13  2  0
 16 15  1  0
 16 17  2  0
 18 16  1  0
 19 18  1  0
 20 19  1  1
 20 21  1  0
 22 20  1  0
 22 24  1  0
 23 22  2  0
M  END
$$$$
