VTQ.pdb
     RDKit          3D

 24 23  0  0  1  0  0  0  0  0999 V2000
   15.4825  -12.7972  -14.6398 C   0  0  0  0  0  0  0  0  0  0  0  0
   15.0944  -11.4727  -14.0240 C   0  0  2  0  0  0  0  0  0  0  0  0
   14.3491  -10.6478  -15.0280 C   0  0  0  0  0  0  0  0  0  0  0  0
   16.2905  -10.6931  -13.5508 C   0  0  2  0  0  0  0  0  0  0  0  0
   17.0991  -11.4045  -12.5997 N   0  0  0  0  0  0  0  0  0  0  0  0
   15.9205   -9.3700  -12.9834 C   0  0  0  0  0  0  0  0  0  0  0  0
   15.1788   -8.5579  -13.5994 O   0  0  0  0  0  0  0  0  0  0  0  0
   16.1821   -6.3649   -8.9922 C   0  0  0  0  0  0  0  0  0  0  0  0
   16.4558   -7.6977   -9.6375 C   0  0  1  0  0  0  0  0  0  0  0  0
   15.6048   -8.6249   -9.0115 O   0  0  0  0  0  0  0  0  0  0  0  0
   16.0802   -7.6602  -11.1140 C   0  0  2  0  0  0  0  0  0  0  0  0
   16.3945   -8.9641  -11.7086 N   0  0  0  0  0  0  0  0  0  0  0  0
   16.8450   -6.6622  -11.8883 C   0  0  0  0  0  0  0  0  0  0  0  0
   18.0344   -6.9812  -12.2487 O   0  0  0  0  0  0  0  0  0  0  0  0
   16.3303   -5.3919  -17.0859 N   0  0  0  0  0  0  0  0  0  0  0  0
   17.1770   -4.2809  -16.8957 C   0  0  0  0  0  0  0  0  0  0  0  0
   17.6081   -3.6614  -17.8990 O   0  0  0  0  0  0  0  0  0  0  0  0
   17.5289   -3.8838  -15.4968 C   0  0  0  0  0  0  0  0  0  0  0  0
   16.7845   -4.8395  -14.5638 C   0  0  0  0  0  0  0  0  0  0  0  0
   17.0961   -4.5113  -13.1187 C   0  0  2  0  0  0  0  0  0  0  0  0
   16.3320   -5.4026  -12.2418 N   0  0  0  0  0  0  0  0  0  0  0  0
   16.6693   -3.1255  -12.8102 C   0  0  0  0  0  0  0  0  0  0  0  0
   15.5598   -2.9202  -12.2187 O   0  0  0  0  0  0  0  0  0  0  0  0
   17.4122   -1.9986  -13.1279 O   0  0  0  0  0  0  0  0  0  0  0  0
  2  1  1  6
  2  3  1  0
  4  6  1  0
  4  2  1  0
  4  5  1  1
  6  7  2  0
  9  8  1  1
 10  9  1  0
 11  9  1  0
 11 12  1  6
 12  6  1  0
 13 21  1  0
 13 11  1  0
 14 13  2  0
 16 15  1  0
 16 17  2  0
 18 16  1  0
 19 18  1  0
 20 19  1  6
 20 21  1  0
 22 20  1  0
 22 24  1  0
 23 22  2  0
M  END
$$$$
