VTQ.pdb
     RDKit          3D

 24 23  0  0  1  0  0  0  0  0999 V2000
   17.3752  -15.1661  -18.7976 C   0  0  0  0  0  0  0  0  0  0  0  0
   17.8927  -14.1612  -17.7945 C   0  0  2  0  0  0  0  0  0  0  0  0
   17.8854  -12.7917  -18.4015 C   0  0  0  0  0  0  0  0  0  0  0  0
   19.2902  -14.4800  -17.3389 C   0  0  2  0  0  0  0  0  0  0  0  0
   19.4274  -15.8012  -16.7909 N   0  0  0  0  0  0  0  0  0  0  0  0
   19.8107  -13.4897  -16.3602 C   0  0  0  0  0  0  0  0  0  0  0  0
   19.5052  -13.5281  -15.1377 O   0  0  0  0  0  0  0  0  0  0  0  0
   23.1850  -12.9539  -15.3342 C   0  0  0  0  0  0  0  0  0  0  0  0
   22.7721  -11.6051  -15.8615 C   0  0  1  0  0  0  0  0  0  0  0  0
   23.1775  -11.5629  -17.2067 O   0  0  0  0  0  0  0  0  0  0  0  0
   21.2544  -11.4679  -15.8392 C   0  0  2  0  0  0  0  0  0  0  0  0
   20.6836  -12.4482  -16.7696 N   0  0  0  0  0  0  0  0  0  0  0  0
   20.7787  -10.1462  -16.2944 C   0  0  0  0  0  0  0  0  0  0  0  0
   20.0849  -10.1089  -17.3731 O   0  0  0  0  0  0  0  0  0  0  0  0
   16.3638   -7.7229  -15.5809 N   0  0  0  0  0  0  0  0  0  0  0  0
   16.8555   -6.5700  -16.2263 C   0  0  0  0  0  0  0  0  0  0  0  0
   16.0491   -5.6732  -16.5751 O   0  0  0  0  0  0  0  0  0  0  0  0
   18.3277   -6.4626  -16.4701 C   0  0  0  0  0  0  0  0  0  0  0  0
   18.9574   -7.7598  -15.9616 C   0  0  0  0  0  0  0  0  0  0  0  0
   20.4665   -7.6860  -16.0636 C   0  0  2  0  0  0  0  0  0  0  0  0
   21.0474   -8.9510  -15.6059 N   0  0  0  0  0  0  0  0  0  0  0  0
   20.9833   -6.6210  -15.1710 C   0  0  0  0  0  0  0  0  0  0  0  0
   21.5189   -6.9310  -14.0575 O   0  0  0  0  0  0  0  0  0  0  0  0
   20.9255   -5.2677  -15.4676 O   0  0  0  0  0  0  0  0  0  0  0  0
  2  1  1  6
  2  3  1  0
  4  6  1  0
  4  2  1  0
  4  5  1  1
  6  7  2  0
  9  8  1  6
 10  9  1  0
 11  9  1  0
 11 12  1  6
 12  6  1  0
 13 21  1  0
 13 11  1  0
 14 13  2  0
 16 15  1  0
 16 17  2  0
 18 16  1  0
 19 18  1  0
 20 19  1  1
 20 21  1  0
 22 20  1  0
 22 24  1  0
 23 22  2  0
M  END
$$$$
