VTQ.pdb
     RDKit          3D

 24 23  0  0  1  0  0  0  0  0999 V2000
   16.9936  -15.1768  -16.2467 C   0  0  0  0  0  0  0  0  0  0  0  0
   17.7195  -13.8648  -16.4360 C   0  0  2  0  0  0  0  0  0  0  0  0
   16.8834  -12.7430  -15.9006 C   0  0  0  0  0  0  0  0  0  0  0  0
   18.0289  -13.5892  -17.8819 C   0  0  2  0  0  0  0  0  0  0  0  0
   18.8824  -14.5758  -18.4840 N   0  0  0  0  0  0  0  0  0  0  0  0
   18.6183  -12.2409  -18.0918 C   0  0  0  0  0  0  0  0  0  0  0  0
   19.8633  -12.0540  -18.1560 O   0  0  0  0  0  0  0  0  0  0  0  0
   17.7387   -7.6752  -19.7962 C   0  0  0  0  0  0  0  0  0  0  0  0
   17.3250   -9.0984  -19.5300 C   0  0  1  0  0  0  0  0  0  0  0  0
   17.4045   -9.7725  -20.7609 O   0  0  0  0  0  0  0  0  0  0  0  0
   18.3100   -9.7690  -18.5798 C   0  0  2  0  0  0  0  0  0  0  0  0
   17.7910  -11.0960  -18.2300 N   0  0  0  0  0  0  0  0  0  0  0  0
   18.4779   -9.0457  -17.3034 C   0  0  0  0  0  0  0  0  0  0  0  0
   17.6337   -9.2940  -16.3696 O   0  0  0  0  0  0  0  0  0  0  0  0
   22.8273   -9.0861  -13.6407 N   0  0  0  0  0  0  0  0  0  0  0  0
   21.9542   -8.2842  -12.8777 C   0  0  0  0  0  0  0  0  0  0  0  0
   22.1162   -8.2150  -11.6347 O   0  0  0  0  0  0  0  0  0  0  0  0
   20.8639   -7.5440  -13.5860 C   0  0  0  0  0  0  0  0  0  0  0  0
   20.7516   -8.1512  -14.9848 C   0  0  0  0  0  0  0  0  0  0  0  0
   19.6444   -7.4730  -15.7641 C   0  0  2  0  0  0  0  0  0  0  0  0
   19.5066   -8.1164  -17.0734 N   0  0  0  0  0  0  0  0  0  0  0  0
   19.9940   -6.0536  -16.0107 C   0  0  0  0  0  0  0  0  0  0  0  0
   20.6589   -5.7353  -17.0497 O   0  0  0  0  0  0  0  0  0  0  0  0
   19.6397   -5.0119  -15.1669 O   0  0  0  0  0  0  0  0  0  0  0  0
  2  1  1  6
  2  3  1  0
  4  6  1  0
  4  2  1  0
  4  5  1  1
  6  7  2  0
  9  8  1  6
 10  9  1  0
 11  9  1  0
 11 12  1  1
 12  6  1  0
 13 21  1  0
 13 11  1  0
 14 13  2  0
 16 15  1  0
 16 17  2  0
 18 16  1  0
 19 18  1  0
 20 19  1  1
 20 21  1  0
 22 20  1  0
 22 24  1  0
 23 22  2  0
M  END
$$$$
