VTQ.pdb
     RDKit          3D

 24 23  0  0  1  0  0  0  0  0999 V2000
   25.0167  -14.9341  -18.2718 C   0  0  0  0  0  0  0  0  0  0  0  0
   26.3084  -14.3631  -17.7338 C   0  0  2  0  0  0  0  0  0  0  0  0
   27.0895  -15.4407  -17.0462 C   0  0  0  0  0  0  0  0  0  0  0  0
   26.0726  -13.2413  -16.7600 C   0  0  2  0  0  0  0  0  0  0  0  0
   25.3242  -13.6373  -15.5991 N   0  0  0  0  0  0  0  0  0  0  0  0
   25.4108  -12.0690  -17.3903 C   0  0  0  0  0  0  0  0  0  0  0  0
   25.9140  -11.4609  -18.3731 O   0  0  0  0  0  0  0  0  0  0  0  0
   22.6569  -11.6642  -19.5225 C   0  0  0  0  0  0  0  0  0  0  0  0
   22.2398  -10.9789  -18.2481 C   0  0  1  0  0  0  0  0  0  0  0  0
   21.6539  -11.9673  -17.4384 O   0  0  0  0  0  0  0  0  0  0  0  0
   23.4607  -10.4481  -17.5063 C   0  0  2  0  0  0  0  0  0  0  0  0
   24.1697  -11.5822  -16.9032 N   0  0  0  0  0  0  0  0  0  0  0  0
   23.1209   -9.5391  -16.3933 C   0  0  0  0  0  0  0  0  0  0  0  0
   23.0182  -10.0537  -15.2224 O   0  0  0  0  0  0  0  0  0  0  0  0
   22.9843   -3.3190  -16.4381 N   0  0  0  0  0  0  0  0  0  0  0  0
   22.6402   -3.5369  -15.0885 C   0  0  0  0  0  0  0  0  0  0  0  0
   22.4319   -2.5486  -14.3429 O   0  0  0  0  0  0  0  0  0  0  0  0
   22.5370   -4.9465  -14.5977 C   0  0  0  0  0  0  0  0  0  0  0  0
   22.6989   -5.8540  -15.8176 C   0  0  0  0  0  0  0  0  0  0  0  0
   22.6220   -7.3086  -15.4037 C   0  0  2  0  0  0  0  0  0  0  0  0
   22.9123   -8.1596  -16.5608 N   0  0  0  0  0  0  0  0  0  0  0  0
   21.2473   -7.6362  -14.9558 C   0  0  0  0  0  0  0  0  0  0  0  0
   20.3581   -7.9482  -15.8131 O   0  0  0  0  0  0  0  0  0  0  0  0
   20.8436   -7.6283  -13.6293 O   0  0  0  0  0  0  0  0  0  0  0  0
  2  1  1  1
  2  3  1  0
  4  6  1  0
  4  2  1  0
  4  5  1  1
  6  7  2  0
  9  8  1  6
 10  9  1  0
 11  9  1  0
 11 12  1  1
 12  6  1  0
 13 21  1  0
 13 11  1  0
 14 13  2  0
 16 15  1  0
 16 17  2  0
 18 16  1  0
 19 18  1  0
 20 19  1  6
 20 21  1  0
 22 20  1  0
 22 24  1  0
 23 22  2  0
M  END
$$$$
