VTQ.pdb
     RDKit          3D

 24 23  0  0  1  0  0  0  0  0999 V2000
   23.9158  -19.9977  -16.3780 C   0  0  0  0  0  0  0  0  0  0  0  0
   22.8681  -19.4399  -15.4424 C   0  0  2  0  0  0  0  0  0  0  0  0
   21.8660  -20.5039  -15.1140 C   0  0  0  0  0  0  0  0  0  0  0  0
   22.1450  -18.2619  -16.0355 C   0  0  2  0  0  0  0  0  0  0  0  0
   22.3371  -18.1253  -17.4529 N   0  0  0  0  0  0  0  0  0  0  0  0
   22.4996  -16.9811  -15.3696 C   0  0  0  0  0  0  0  0  0  0  0  0
   22.4321  -16.8320  -14.1197 O   0  0  0  0  0  0  0  0  0  0  0  0
   25.6633  -15.3411  -15.0997 C   0  0  0  0  0  0  0  0  0  0  0  0
   24.8017  -14.3392  -15.8218 C   0  0  1  0  0  0  0  0  0  0  0  0
   24.9893  -14.5702  -17.1956 O   0  0  0  0  0  0  0  0  0  0  0  0
   23.3292  -14.5866  -15.5159 C   0  0  2  0  0  0  0  0  0  0  0  0
   22.9338  -15.8611  -16.1256 N   0  0  0  0  0  0  0  0  0  0  0  0
   22.4317  -13.5632  -16.0882 C   0  0  0  0  0  0  0  0  0  0  0  0
   21.4852  -13.9703  -16.8528 O   0  0  0  0  0  0  0  0  0  0  0  0
   17.8939  -11.8254  -14.6253 N   0  0  0  0  0  0  0  0  0  0  0  0
   17.9284  -10.7676  -15.5567 C   0  0  0  0  0  0  0  0  0  0  0  0
   16.8808  -10.1118  -15.7767 O   0  0  0  0  0  0  0  0  0  0  0  0
   19.2209  -10.4688  -16.2486 C   0  0  0  0  0  0  0  0  0  0  0  0
   20.2371  -11.4990  -15.7547 C   0  0  0  0  0  0  0  0  0  0  0  0
   21.5947  -11.2345  -16.3712 C   0  0  2  0  0  0  0  0  0  0  0  0
   22.5679  -12.1882  -15.8321 N   0  0  0  0  0  0  0  0  0  0  0  0
   22.0636   -9.8776  -16.0018 C   0  0  0  0  0  0  0  0  0  0  0  0
   21.4682   -8.8519  -16.4671 O   0  0  0  0  0  0  0  0  0  0  0  0
   23.1377   -9.6331  -15.1595 O   0  0  0  0  0  0  0  0  0  0  0  0
  2  1  1  6
  2  3  1  0
  4  6  1  0
  4  2  1  0
  4  5  1  6
  6  7  2  0
  9  8  1  1
 10  9  1  0
 11  9  1  0
 11 12  1  6
 12  6  1  0
 13 21  1  0
 13 11  1  0
 14 13  2  0
 16 15  1  0
 16 17  2  0
 18 16  1  0
 19 18  1  0
 20 19  1  1
 20 21  1  0
 22 20  1  0
 22 24  1  0
 23 22  2  0
M  END
$$$$
