VTQ.pdb
     RDKit          3D

 24 23  0  0  1  0  0  0  0  0999 V2000
   18.2259  -13.2496  -16.8842 C   0  0  0  0  0  0  0  0  0  0  0  0
   17.7138  -13.7259  -15.5444 C   0  0  2  0  0  0  0  0  0  0  0  0
   16.8967  -14.9679  -15.7283 C   0  0  0  0  0  0  0  0  0  0  0  0
   16.8683  -12.6889  -14.8572 C   0  0  2  0  0  0  0  0  0  0  0  0
   15.6462  -12.3928  -15.5523 N   0  0  0  0  0  0  0  0  0  0  0  0
   17.6076  -11.4233  -14.6097 C   0  0  0  0  0  0  0  0  0  0  0  0
   18.6783  -11.3890  -13.9453 O   0  0  0  0  0  0  0  0  0  0  0  0
   18.7125   -6.9003  -16.0383 C   0  0  0  0  0  0  0  0  0  0  0  0
   18.1620   -8.2891  -16.2273 C   0  0  1  0  0  0  0  0  0  0  0  0
   19.2017   -9.0573  -16.7796 O   0  0  0  0  0  0  0  0  0  0  0  0
   17.8058   -8.9072  -14.8805 C   0  0  2  0  0  0  0  0  0  0  0  0
   17.1301  -10.1875  -15.1188 N   0  0  0  0  0  0  0  0  0  0  0  0
   16.8645   -8.0884  -14.0906 C   0  0  0  0  0  0  0  0  0  0  0  0
   15.6114   -8.2509  -14.3134 O   0  0  0  0  0  0  0  0  0  0  0  0
   15.6715   -7.6213   -8.5729 N   0  0  0  0  0  0  0  0  0  0  0  0
   14.8813   -6.5133   -8.9413 C   0  0  0  0  0  0  0  0  0  0  0  0
   14.0441   -6.0599   -8.1231 O   0  0  0  0  0  0  0  0  0  0  0  0
   15.0749   -5.9203  -10.3011 C   0  0  0  0  0  0  0  0  0  0  0  0
   16.0900   -6.8020  -11.0293 C   0  0  0  0  0  0  0  0  0  0  0  0
   16.2945   -6.3071  -12.4457 C   0  0  2  0  0  0  0  0  0  0  0  0
   17.2774   -7.1585  -13.1213 N   0  0  0  0  0  0  0  0  0  0  0  0
   16.8485   -4.9322  -12.4273 C   0  0  0  0  0  0  0  0  0  0  0  0
   18.1071   -4.7541  -12.5127 O   0  0  0  0  0  0  0  0  0  0  0  0
   16.0735   -3.7873  -12.3206 O   0  0  0  0  0  0  0  0  0  0  0  0
  2  1  1  6
  2  3  1  0
  4  6  1  0
  4  2  1  0
  4  5  1  6
  6  7  2  0
  9  8  1  1
 10  9  1  0
 11  9  1  0
 11 12  1  6
 12  6  1  0
 13 21  1  0
 13 11  1  0
 14 13  2  0
 16 15  1  0
 16 17  2  0
 18 16  1  0
 19 18  1  0
 20 19  1  1
 20 21  1  0
 22 20  1  0
 22 24  1  0
 23 22  2  0
M  END
$$$$
