SKR.pdb
     RDKit          3D

 27 26  0  0  1  0  0  0  0  0999 V2000
   14.2798  -15.2786   18.4049 O   0  0  0  0  0  0  0  0  0  0  0  0
   15.0107  -16.4384   18.4862 C   0  0  0  0  0  0  0  0  0  0  0  0
   14.2315  -17.6826   18.1447 C   0  0  2  0  0  0  0  0  0  0  0  0
   13.6129  -17.4611   16.8502 N   0  0  0  0  0  0  0  0  0  0  0  0
   13.2154  -18.0503   19.1308 C   0  0  0  0  0  0  0  0  0  0  0  0
   11.9874  -17.8644   18.8540 O   0  0  0  0  0  0  0  0  0  0  0  0
   13.4762  -18.6096   20.4007 N   0  0  0  0  0  0  0  0  0  0  0  0
   12.4127  -18.9649   21.3473 C   0  0  1  0  0  0  0  0  0  0  0  0
   12.8638  -20.2114   22.0593 C   0  0  0  0  0  0  0  0  0  0  0  0
   12.7507  -21.4500   21.2446 C   0  0  0  0  0  0  0  0  0  0  0  0
   13.2992  -22.6686   21.9287 C   0  0  0  0  0  0  0  0  0  0  0  0
   13.1760  -23.8816   21.0396 C   0  0  0  0  0  0  0  0  0  0  0  0
   13.9438  -24.9744   21.6379 N   0  0  0  0  0  0  0  0  0  0  0  0
   12.1273  -17.8208   22.2564 C   0  0  0  0  0  0  0  0  0  0  0  0
   13.0563  -17.2061   22.8359 O   0  0  0  0  0  0  0  0  0  0  0  0
    8.1003  -11.5685   20.0668 N   0  0  0  0  0  0  0  0  0  0  0  0
    8.2486  -12.7304   19.2492 C   0  0  0  0  0  0  0  0  0  0  0  0
    8.2252  -12.6424   17.9758 N   0  0  0  0  0  0  0  0  0  0  0  0
    8.4260  -14.0127   19.8495 N   0  0  0  0  0  0  0  0  0  0  0  0
    8.6853  -14.1327   21.2649 C   0  0  0  0  0  0  0  0  0  0  0  0
    8.7225  -15.5805   21.6922 C   0  0  0  0  0  0  0  0  0  0  0  0
    9.0444  -15.7590   23.1363 C   0  0  0  0  0  0  0  0  0  0  0  0
   10.4000  -16.3300   23.3621 C   0  0  2  0  0  0  0  0  0  0  0  0
   10.8020  -17.3789   22.5056 N   0  0  0  0  0  0  0  0  0  0  0  0
   10.6254  -16.6358   24.8102 C   0  0  0  0  0  0  0  0  0  0  0  0
   10.5182  -15.7163   25.6429 O   0  0  0  0  0  0  0  0  0  0  0  0
   10.9469  -17.9033   25.2416 O   0  0  0  0  0  0  0  0  0  0  0  0
  1  2  1  0
  3  2  1  0
  3  4  1  6
  5  3  1  0
  6  5  2  0
  7  5  1  0
  8  9  1  1
  8  7  1  0
 10  9  1  0
 11 10  1  0
 12 11  1  0
 13 12  1  0
 14  8  1  0
 15 14  2  0
 17 16  1  0
 17 19  1  0
 18 17  2  0
 20 19  1  0
 20 21  1  0
 21 22  1  0
 23 22  1  1
 23 24  1  0
 24 14  1  0
 25 23  1  0
 25 27  1  0
 26 25  2  0
M  END
$$$$
