SKR.pdb
     RDKit          3D

 27 26  0  0  1  0  0  0  0  0999 V2000
   10.8475  -20.0533   19.9260 O   0  0  0  0  0  0  0  0  0  0  0  0
   11.7398  -19.5675   19.0022 C   0  0  0  0  0  0  0  0  0  0  0  0
   11.3368  -18.2504   18.3901 C   0  0  2  0  0  0  0  0  0  0  0  0
   12.4313  -17.8182   17.5401 N   0  0  0  0  0  0  0  0  0  0  0  0
   11.0119  -17.2057   19.3612 C   0  0  0  0  0  0  0  0  0  0  0  0
   11.9470  -16.6914   20.0542 O   0  0  0  0  0  0  0  0  0  0  0  0
    9.7184  -16.6979   19.6106 N   0  0  0  0  0  0  0  0  0  0  0  0
    9.4469  -15.6770   20.6291 C   0  0  1  0  0  0  0  0  0  0  0  0
    8.2537  -14.8941   20.1521 C   0  0  0  0  0  0  0  0  0  0  0  0
    8.4851  -14.1453   18.8886 C   0  0  0  0  0  0  0  0  0  0  0  0
    7.2639  -13.4340   18.3822 C   0  0  0  0  0  0  0  0  0  0  0  0
    7.5681  -12.6953   17.1019 C   0  0  0  0  0  0  0  0  0  0  0  0
    6.3449  -12.0325   16.6478 N   0  0  0  0  0  0  0  0  0  0  0  0
    9.2568  -16.3146   21.9612 C   0  0  0  0  0  0  0  0  0  0  0  0
    8.5044  -17.3099   22.1018 O   0  0  0  0  0  0  0  0  0  0  0  0
   10.6103  -16.0445   30.0383 N   0  0  0  0  0  0  0  0  0  0  0  0
   11.5602  -17.0651   29.7278 C   0  0  0  0  0  0  0  0  0  0  0  0
   12.5506  -17.2947   30.4999 N   0  0  0  0  0  0  0  0  0  0  0  0
   11.4131  -17.8462   28.5427 N   0  0  0  0  0  0  0  0  0  0  0  0
   11.6639  -17.2667   27.2441 C   0  0  0  0  0  0  0  0  0  0  0  0
   10.5134  -16.3925   26.8051 C   0  0  0  0  0  0  0  0  0  0  0  0
   10.7163  -15.7863   25.4590 C   0  0  0  0  0  0  0  0  0  0  0  0
    9.7345  -16.2706   24.4509 C   0  0  2  0  0  0  0  0  0  0  0  0
    9.9132  -15.8278   23.1214 N   0  0  0  0  0  0  0  0  0  0  0  0
    8.3291  -16.1067   24.9401 C   0  0  0  0  0  0  0  0  0  0  0  0
    7.9499  -16.7796   25.9167 O   0  0  0  0  0  0  0  0  0  0  0  0
    7.4498  -15.2339   24.3393 O   0  0  0  0  0  0  0  0  0  0  0  0
  1  2  1  0
  3  2  1  0
  3  4  1  1
  5  3  1  0
  6  5  2  0
  7  5  1  0
  8  9  1  6
  8  7  1  0
 10  9  1  0
 11 10  1  0
 12 11  1  0
 13 12  1  0
 14  8  1  0
 15 14  2  0
 17 16  1  0
 17 19  1  0
 18 17  2  0
 20 19  1  0
 20 21  1  0
 21 22  1  0
 23 22  1  1
 23 24  1  0
 24 14  1  0
 25 23  1  0
 25 27  1  0
 26 25  2  0
M  END
$$$$
