SKR.pdb
     RDKit          3D

 27 26  0  0  1  0  0  0  0  0999 V2000
    8.5016  -18.0037   15.7745 O   0  0  0  0  0  0  0  0  0  0  0  0
    8.2847  -18.2997   17.0978 C   0  0  0  0  0  0  0  0  0  0  0  0
    9.2566  -17.6416   18.0434 C   0  0  2  0  0  0  0  0  0  0  0  0
   10.5503  -17.6212   17.3853 N   0  0  0  0  0  0  0  0  0  0  0  0
    9.3669  -18.2933   19.3485 C   0  0  0  0  0  0  0  0  0  0  0  0
    8.3102  -18.5129   20.0227 O   0  0  0  0  0  0  0  0  0  0  0  0
   10.5725  -18.7149   19.9502 N   0  0  0  0  0  0  0  0  0  0  0  0
   10.6166  -19.4113   21.2410 C   0  0  1  0  0  0  0  0  0  0  0  0
   11.8848  -20.2211   21.2544 C   0  0  0  0  0  0  0  0  0  0  0  0
   12.0554  -21.0610   22.4694 C   0  0  0  0  0  0  0  0  0  0  0  0
   13.3564  -21.8095   22.5017 C   0  0  0  0  0  0  0  0  0  0  0  0
   13.5140  -22.5511   23.8064 C   0  0  0  0  0  0  0  0  0  0  0  0
   14.8105  -23.2300   23.7997 N   0  0  0  0  0  0  0  0  0  0  0  0
   10.5136  -18.4334   22.3590 C   0  0  0  0  0  0  0  0  0  0  0  0
   10.3853  -18.8185   23.5472 O   0  0  0  0  0  0  0  0  0  0  0  0
    8.7261  -11.9656   20.0136 N   0  0  0  0  0  0  0  0  0  0  0  0
    7.8755  -12.9089   19.3600 C   0  0  0  0  0  0  0  0  0  0  0  0
    7.8009  -12.9507   18.0862 N   0  0  0  0  0  0  0  0  0  0  0  0
    7.0931  -13.8225   20.1277 N   0  0  0  0  0  0  0  0  0  0  0  0
    7.4307  -14.1045   21.5030 C   0  0  0  0  0  0  0  0  0  0  0  0
    8.7339  -14.8611   21.6011 C   0  0  0  0  0  0  0  0  0  0  0  0
    9.0888  -15.2417   22.9975 C   0  0  0  0  0  0  0  0  0  0  0  0
   10.3613  -16.0085   23.0840 C   0  0  2  0  0  0  0  0  0  0  0  0
   10.5555  -17.0333   22.1313 N   0  0  0  0  0  0  0  0  0  0  0  0
   10.6323  -16.4531   24.4877 C   0  0  0  0  0  0  0  0  0  0  0  0
   10.2730  -17.5928   24.8375 O   0  0  0  0  0  0  0  0  0  0  0  0
   11.2663  -15.6363   25.3969 O   0  0  0  0  0  0  0  0  0  0  0  0
  1  2  1  0
  3  2  1  0
  3  4  1  6
  5  3  1  0
  6  5  2  0
  7  5  1  0
  8  9  1  1
  8  7  1  0
 10  9  1  0
 11 10  1  0
 12 11  1  0
 13 12  1  0
 14  8  1  0
 15 14  2  0
 17 16  1  0
 17 19  1  0
 18 17  2  0
 20 19  1  0
 20 21  1  0
 21 22  1  0
 23 22  1  1
 23 24  1  0
 24 14  1  0
 25 23  1  0
 25 27  1  0
 26 25  2  0
M  END
$$$$
