SKR.pdb
     RDKit          3D

 27 26  0  0  1  0  0  0  0  0999 V2000
   10.1671  -16.8285   16.1043 O   0  0  0  0  0  0  0  0  0  0  0  0
   10.0840  -18.0735   15.5307 C   0  0  0  0  0  0  0  0  0  0  0  0
    8.8113  -18.8150   15.8503 C   0  0  2  0  0  0  0  0  0  0  0  0
    7.7304  -18.1296   15.1654 N   0  0  0  0  0  0  0  0  0  0  0  0
    8.5143  -18.9201   17.2789 C   0  0  0  0  0  0  0  0  0  0  0  0
    7.7668  -18.0453   17.8223 O   0  0  0  0  0  0  0  0  0  0  0  0
    8.9935  -19.9318   18.1392 N   0  0  0  0  0  0  0  0  0  0  0  0
    8.7718  -19.9139   19.5897 C   0  0  1  0  0  0  0  0  0  0  0  0
    8.7734  -21.3474   20.0469 C   0  0  0  0  0  0  0  0  0  0  0  0
    7.5883  -22.1273   19.6022 C   0  0  0  0  0  0  0  0  0  0  0  0
    7.6601  -23.5830   19.9624 C   0  0  0  0  0  0  0  0  0  0  0  0
    6.4419  -24.3186   19.4603 C   0  0  0  0  0  0  0  0  0  0  0  0
    6.5723  -25.7309   19.8209 N   0  0  0  0  0  0  0  0  0  0  0  0
    9.7974  -19.0664   20.2582 C   0  0  0  0  0  0  0  0  0  0  0  0
   10.8451  -18.7222   19.6579 O   0  0  0  0  0  0  0  0  0  0  0  0
    6.8253  -12.1879   18.8968 N   0  0  0  0  0  0  0  0  0  0  0  0
    8.0944  -12.7103   19.2928 C   0  0  0  0  0  0  0  0  0  0  0  0
    9.1773  -12.1202   18.9628 N   0  0  0  0  0  0  0  0  0  0  0  0
    8.1683  -13.9063   20.0675 N   0  0  0  0  0  0  0  0  0  0  0  0
    9.4403  -14.3970   20.5433 C   0  0  0  0  0  0  0  0  0  0  0  0
    9.2890  -15.7373   21.2222 C   0  0  0  0  0  0  0  0  0  0  0  0
   10.5887  -16.3337   21.6416 C   0  0  0  0  0  0  0  0  0  0  0  0
   10.4352  -17.6708   22.2767 C   0  0  2  0  0  0  0  0  0  0  0  0
    9.6360  -18.6144   21.5937 N   0  0  0  0  0  0  0  0  0  0  0  0
   10.0851  -17.5455   23.7269 C   0  0  0  0  0  0  0  0  0  0  0  0
    9.0467  -18.0914   24.1443 O   0  0  0  0  0  0  0  0  0  0  0  0
   10.8797  -16.8447   24.6063 O   0  0  0  0  0  0  0  0  0  0  0  0
  1  2  1  0
  3  2  1  0
  3  4  1  6
  5  3  1  0
  6  5  2  0
  7  5  1  0
  8  9  1  1
  8  7  1  0
 10  9  1  0
 11 10  1  0
 12 11  1  0
 13 12  1  0
 14  8  1  0
 15 14  2  0
 17 16  1  0
 17 19  1  0
 18 17  2  0
 20 19  1  0
 20 21  1  0
 21 22  1  0
 23 22  1  6
 23 24  1  0
 24 14  1  0
 25 23  1  0
 25 27  1  0
 26 25  2  0
M  END
$$$$
