SKR.pdb
     RDKit          3D

 27 26  0  0  1  0  0  0  0  0999 V2000
   13.5445  -19.1022   14.6529 O   0  0  0  0  0  0  0  0  0  0  0  0
   12.2099  -19.0170   14.3407 C   0  0  0  0  0  0  0  0  0  0  0  0
   11.5183  -17.8087   14.9182 C   0  0  2  0  0  0  0  0  0  0  0  0
   11.9741  -16.6526   14.1678 N   0  0  0  0  0  0  0  0  0  0  0  0
   11.7510  -17.6035   16.3478 C   0  0  0  0  0  0  0  0  0  0  0  0
   12.3929  -16.5732   16.7295 O   0  0  0  0  0  0  0  0  0  0  0  0
   11.3175  -18.4675   17.3768 N   0  0  0  0  0  0  0  0  0  0  0  0
   11.5400  -18.1851   18.7995 C   0  0  1  0  0  0  0  0  0  0  0  0
   10.6325  -19.1039   19.5717 C   0  0  0  0  0  0  0  0  0  0  0  0
   10.8370  -19.0620   21.0438 C   0  0  0  0  0  0  0  0  0  0  0  0
    9.9525  -20.0121   21.7982 C   0  0  0  0  0  0  0  0  0  0  0  0
   10.3086  -20.0237   23.2646 C   0  0  0  0  0  0  0  0  0  0  0  0
    9.4959  -21.0424   23.9305 N   0  0  0  0  0  0  0  0  0  0  0  0
   12.9822  -18.3384   19.1367 C   0  0  0  0  0  0  0  0  0  0  0  0
   13.6844  -19.2254   18.5921 O   0  0  0  0  0  0  0  0  0  0  0  0
   18.3901  -11.6953   17.8266 N   0  0  0  0  0  0  0  0  0  0  0  0
   17.1837  -12.3831   17.4919 C   0  0  0  0  0  0  0  0  0  0  0  0
   16.6654  -12.2691   16.3308 N   0  0  0  0  0  0  0  0  0  0  0  0
   16.5384  -13.2119   18.4577 N   0  0  0  0  0  0  0  0  0  0  0  0
   16.6955  -14.6468   18.4180 C   0  0  0  0  0  0  0  0  0  0  0  0
   15.8634  -15.3167   19.4853 C   0  0  0  0  0  0  0  0  0  0  0  0
   15.8974  -16.8046   19.4092 C   0  0  0  0  0  0  0  0  0  0  0  0
   14.9970  -17.4567   20.3986 C   0  0  2  0  0  0  0  0  0  0  0  0
   13.6207  -17.4942   20.0820 N   0  0  0  0  0  0  0  0  0  0  0  0
   15.2667  -16.9625   21.7858 C   0  0  0  0  0  0  0  0  0  0  0  0
   16.4251  -17.0374   22.2363 O   0  0  0  0  0  0  0  0  0  0  0  0
   14.2698  -16.4297   22.5719 O   0  0  0  0  0  0  0  0  0  0  0  0
  1  2  1  0
  3  2  1  0
  3  4  1  6
  5  3  1  0
  6  5  2  0
  7  5  1  0
  8  9  1  1
  8  7  1  0
 10  9  1  0
 11 10  1  0
 12 11  1  0
 13 12  1  0
 14  8  1  0
 15 14  2  0
 17 16  1  0
 17 19  1  0
 18 17  2  0
 20 19  1  0
 20 21  1  0
 21 22  1  0
 23 22  1  6
 23 24  1  0
 24 14  1  0
 25 23  1  0
 25 27  1  0
 26 25  2  0
M  END
$$$$
