SKR.pdb
     RDKit          3D

 27 26  0  0  1  0  0  0  0  0999 V2000
   17.5675  -19.8251   23.2342 O   0  0  0  0  0  0  0  0  0  0  0  0
   17.1214  -20.1983   21.9903 C   0  0  0  0  0  0  0  0  0  0  0  0
   15.7186  -19.7446   21.6773 C   0  0  2  0  0  0  0  0  0  0  0  0
   15.6907  -18.3006   21.8236 N   0  0  0  0  0  0  0  0  0  0  0  0
   14.6844  -20.3544   22.5132 C   0  0  0  0  0  0  0  0  0  0  0  0
   13.8053  -19.6096   23.0533 O   0  0  0  0  0  0  0  0  0  0  0  0
   14.5654  -21.7344   22.7865 N   0  0  0  0  0  0  0  0  0  0  0  0
   13.4953  -22.2908   23.6222 C   0  0  1  0  0  0  0  0  0  0  0  0
   13.1242  -23.6208   23.0241 C   0  0  0  0  0  0  0  0  0  0  0  0
   11.7822  -24.1152   23.4304 C   0  0  0  0  0  0  0  0  0  0  0  0
   10.6649  -23.5785   22.5833 C   0  0  0  0  0  0  0  0  0  0  0  0
    9.3333  -24.1066   23.0578 C   0  0  0  0  0  0  0  0  0  0  0  0
    8.2753  -23.4640   22.2771 N   0  0  0  0  0  0  0  0  0  0  0  0
   13.9374  -22.3701   25.0419 C   0  0  0  0  0  0  0  0  0  0  0  0
   15.1562  -22.4227   25.3391 O   0  0  0  0  0  0  0  0  0  0  0  0
   11.9304  -18.6473   31.8094 N   0  0  0  0  0  0  0  0  0  0  0  0
   11.9962  -19.9015   32.4897 C   0  0  0  0  0  0  0  0  0  0  0  0
   12.0379  -19.9536   33.7646 N   0  0  0  0  0  0  0  0  0  0  0  0
   12.0164  -21.1204   31.7480 N   0  0  0  0  0  0  0  0  0  0  0  0
   12.7052  -21.1991   30.4812 C   0  0  0  0  0  0  0  0  0  0  0  0
   12.5449  -22.5646   29.8567 C   0  0  0  0  0  0  0  0  0  0  0  0
   12.1381  -22.5116   28.4241 C   0  0  0  0  0  0  0  0  0  0  0  0
   13.2975  -22.4319   27.4945 C   0  0  2  0  0  0  0  0  0  0  0  0
   13.0065  -22.3898   26.1128 N   0  0  0  0  0  0  0  0  0  0  0  0
   14.3432  -23.4448   27.8434 C   0  0  0  0  0  0  0  0  0  0  0  0
   14.2072  -24.6140   27.4374 O   0  0  0  0  0  0  0  0  0  0  0  0
   15.4465  -23.1166   28.5989 O   0  0  0  0  0  0  0  0  0  0  0  0
  1  2  1  0
  3  2  1  0
  3  4  1  1
  5  3  1  0
  6  5  2  0
  7  5  1  0
  8  9  1  6
  8  7  1  0
 10  9  1  0
 11 10  1  0
 12 11  1  0
 13 12  1  0
 14  8  1  0
 15 14  2  0
 17 16  1  0
 17 19  1  0
 18 17  2  0
 20 19  1  0
 20 21  1  0
 21 22  1  0
 23 22  1  1
 23 24  1  0
 24 14  1  0
 25 23  1  0
 25 27  1  0
 26 25  2  0
M  END
$$$$
