SKR.pdb
     RDKit          3D

 27 26  0  0  1  0  0  0  0  0999 V2000
   13.9330  -25.9965   25.0588 O   0  0  0  0  0  0  0  0  0  0  0  0
   13.3850  -26.0431   23.8005 C   0  0  0  0  0  0  0  0  0  0  0  0
   13.4820  -24.7465   23.0381 C   0  0  2  0  0  0  0  0  0  0  0  0
   14.8928  -24.4722   22.8336 N   0  0  0  0  0  0  0  0  0  0  0  0
   12.8389  -23.6085   23.6947 C   0  0  0  0  0  0  0  0  0  0  0  0
   13.5644  -22.7168   24.2404 O   0  0  0  0  0  0  0  0  0  0  0  0
   11.4455  -23.3989   23.7834 N   0  0  0  0  0  0  0  0  0  0  0  0
   10.8537  -22.2966   24.5503 C   0  0  1  0  0  0  0  0  0  0  0  0
    9.4817  -22.0583   23.9802 C   0  0  0  0  0  0  0  0  0  0  0  0
    9.4859  -21.4508   22.6232 C   0  0  0  0  0  0  0  0  0  0  0  0
    8.1336  -21.4329   21.9713 C   0  0  0  0  0  0  0  0  0  0  0  0
    8.2299  -20.9218   20.5547 C   0  0  0  0  0  0  0  0  0  0  0  0
    6.9171  -21.0588   19.9226 N   0  0  0  0  0  0  0  0  0  0  0  0
   10.8552  -22.6197   26.0038 C   0  0  0  0  0  0  0  0  0  0  0  0
   10.8329  -23.8099   26.4030 O   0  0  0  0  0  0  0  0  0  0  0  0
   14.5421  -22.5575   33.2553 N   0  0  0  0  0  0  0  0  0  0  0  0
   13.9164  -23.8293   33.0779 C   0  0  0  0  0  0  0  0  0  0  0  0
   13.6926  -24.5938   34.0755 N   0  0  0  0  0  0  0  0  0  0  0  0
   13.5310  -24.2642   31.7746 N   0  0  0  0  0  0  0  0  0  0  0  0
   13.7574  -23.4242   30.6221 C   0  0  0  0  0  0  0  0  0  0  0  0
   12.4995  -22.6876   30.2279 C   0  0  0  0  0  0  0  0  0  0  0  0
   12.3686  -22.4938   28.7562 C   0  0  0  0  0  0  0  0  0  0  0  0
   11.1285  -21.7648   28.3751 C   0  0  2  0  0  0  0  0  0  0  0  0
   10.8815  -21.6032   26.9937 N   0  0  0  0  0  0  0  0  0  0  0  0
   10.9884  -20.4911   29.1492 C   0  0  0  0  0  0  0  0  0  0  0  0
   11.4089  -19.4324   28.6465 O   0  0  0  0  0  0  0  0  0  0  0  0
   10.4086  -20.4619   30.3978 O   0  0  0  0  0  0  0  0  0  0  0  0
  1  2  1  0
  3  2  1  0
  3  4  1  1
  5  3  1  0
  6  5  2  0
  7  5  1  0
  8  9  1  6
  8  7  1  0
 10  9  1  0
 11 10  1  0
 12 11  1  0
 13 12  1  0
 14  8  1  0
 15 14  2  0
 17 16  1  0
 17 19  1  0
 18 17  2  0
 20 19  1  0
 20 21  1  0
 21 22  1  0
 23 22  1  6
 23 24  1  0
 24 14  1  0
 25 23  1  0
 25 27  1  0
 26 25  2  0
M  END
$$$$
