SKR.pdb
     RDKit          3D

 27 26  0  0  1  0  0  0  0  0999 V2000
    8.6410  -21.0419   20.3566 O   0  0  0  0  0  0  0  0  0  0  0  0
    7.3896  -20.7606   19.8662 C   0  0  0  0  0  0  0  0  0  0  0  0
    7.3140  -19.4857   19.0658 C   0  0  2  0  0  0  0  0  0  0  0  0
    7.7428  -19.7997   17.7149 N   0  0  0  0  0  0  0  0  0  0  0  0
    8.1135  -18.3849   19.6036 C   0  0  0  0  0  0  0  0  0  0  0  0
    9.2952  -18.2064   19.1669 O   0  0  0  0  0  0  0  0  0  0  0  0
    7.6848  -17.4730   20.5925 N   0  0  0  0  0  0  0  0  0  0  0  0
    8.5021  -16.3379   21.0362 C   0  0  1  0  0  0  0  0  0  0  0  0
    7.5531  -15.3095   21.5895 C   0  0  0  0  0  0  0  0  0  0  0  0
    7.7872  -13.9323   21.0806 C   0  0  0  0  0  0  0  0  0  0  0  0
    7.6432  -13.8121   19.5910 C   0  0  0  0  0  0  0  0  0  0  0  0
    8.0681  -12.4422   19.1218 C   0  0  0  0  0  0  0  0  0  0  0  0
    7.9463  -12.3934   17.6643 N   0  0  0  0  0  0  0  0  0  0  0  0
    9.5328  -16.7931   22.0096 C   0  0  0  0  0  0  0  0  0  0  0  0
    9.2577  -17.6374   22.8974 O   0  0  0  0  0  0  0  0  0  0  0  0
   19.0961  -17.2663   23.4419 N   0  0  0  0  0  0  0  0  0  0  0  0
   18.1046  -16.2809   23.7355 C   0  0  0  0  0  0  0  0  0  0  0  0
   18.4225  -15.0519   23.8704 N   0  0  0  0  0  0  0  0  0  0  0  0
   16.7369  -16.6604   23.8826 N   0  0  0  0  0  0  0  0  0  0  0  0
   15.7232  -16.1091   23.0145 C   0  0  0  0  0  0  0  0  0  0  0  0
   14.3545  -16.6408   23.3671 C   0  0  0  0  0  0  0  0  0  0  0  0
   13.2775  -16.1308   22.4723 C   0  0  0  0  0  0  0  0  0  0  0  0
   11.9346  -16.6740   22.8132 C   0  0  2  0  0  0  0  0  0  0  0  0
   10.8613  -16.2955   21.9763 N   0  0  0  0  0  0  0  0  0  0  0  0
   11.6328  -16.5004   24.2693 C   0  0  0  0  0  0  0  0  0  0  0  0
   11.0263  -15.4781   24.6401 O   0  0  0  0  0  0  0  0  0  0  0  0
   12.0079  -17.4392   25.2040 O   0  0  0  0  0  0  0  0  0  0  0  0
  1  2  1  0
  3  2  1  0
  3  4  1  6
  5  3  1  0
  6  5  2  0
  7  5  1  0
  8  9  1  1
  8  7  1  0
 10  9  1  0
 11 10  1  0
 12 11  1  0
 13 12  1  0
 14  8  1  0
 15 14  2  0
 17 16  1  0
 17 19  1  0
 18 17  2  0
 20 19  1  0
 20 21  1  0
 21 22  1  0
 23 22  1  6
 23 24  1  0
 24 14  1  0
 25 23  1  0
 25 27  1  0
 26 25  2  0
M  END
$$$$
