NMI.pdb
     RDKit          3D

 25 24  0  0  1  0  0  0  0  0999 V2000
   13.2638  -17.7097   19.2532 N   0  0  0  0  0  0  0  0  0  0  0  0
   12.1543  -16.9777   18.7411 C   0  0  0  0  0  0  0  0  0  0  0  0
   11.9317  -16.9429   17.5079 O   0  0  0  0  0  0  0  0  0  0  0  0
   11.2468  -16.2465   19.6469 C   0  0  0  0  0  0  0  0  0  0  0  0
   10.8326  -16.9714   20.8732 C   0  0  2  0  0  0  0  0  0  0  0  0
    9.7210  -17.8608   20.4675 N   0  0  0  0  0  0  0  0  0  0  0  0
   10.3963  -16.1853   22.0152 C   0  0  0  0  0  0  0  0  0  0  0  0
   11.2148  -15.3487   22.5220 O   0  0  0  0  0  0  0  0  0  0  0  0
    6.1697  -12.5945   26.5723 C   0  0  0  0  0  0  0  0  0  0  0  0
    7.0349  -13.2896   25.1249 S   0  0  0  0  0  0  0  0  0  0  0  0
    6.6142  -15.0859   25.0790 C   0  0  0  0  0  0  0  0  0  0  0  0
    7.2395  -15.6949   23.8654 C   0  0  0  0  0  0  0  0  0  0  0  0
    8.7342  -15.5824   23.7904 C   0  0  2  0  0  0  0  0  0  0  0  0
    9.0984  -16.3223   22.5671 N   0  0  0  0  0  0  0  0  0  0  0  0
    9.4711  -16.1001   24.9344 C   0  0  0  0  0  0  0  0  0  0  0  0
    9.9494  -17.2783   24.8601 O   0  0  0  0  0  0  0  0  0  0  0  0
   10.0263  -13.0171   29.5796 C   0  0  0  0  0  0  0  0  0  0  0  0
   10.5356  -13.8043   28.4263 C   0  0  0  0  0  0  0  0  0  0  0  0
   10.2965  -15.2831   28.5232 C   0  0  2  0  0  0  0  0  0  0  0  0
   11.2227  -15.8350   29.5820 C   0  0  0  0  0  0  0  0  0  0  0  0
   10.5016  -16.0050   27.2139 C   0  0  2  0  0  0  0  0  0  0  0  0
    9.7124  -15.3863   26.1530 N   0  0  0  0  0  0  0  0  0  0  0  0
    9.9691  -17.3824   27.4120 C   0  0  0  0  0  0  0  0  0  0  0  0
    8.5799  -17.6212   27.3743 O   0  0  0  0  0  0  0  0  0  0  0  0
   10.6785  -18.3843   27.6176 O   0  0  0  0  0  0  0  0  0  0  0  0
  2  1  1  0
  2  3  2  0
  4  2  1  0
  5  4  1  0
  5  6  1  6
  7  5  1  0
  8  7  2  0
  9 10  1  0
 10 11  1  0
 11 12  1  0
 13 12  1  1
 13 14  1  0
 14  7  1  0
 15 13  1  0
 15 16  2  0
 18 19  1  0
 18 17  1  0
 19 21  1  0
 19 20  1  1
 21 22  1  6
 22 15  1  0
 23 21  1  0
 24 23  1  0
 25 23  2  0
M  END
$$$$
