NMI.pdb
     RDKit          3D

 25 24  0  0  1  0  0  0  0  0999 V2000
    8.5050  -20.3758   20.1496 N   0  0  0  0  0  0  0  0  0  0  0  0
    8.7202  -19.1785   19.4084 C   0  0  0  0  0  0  0  0  0  0  0  0
    8.7924  -19.2111   18.1573 O   0  0  0  0  0  0  0  0  0  0  0  0
    8.8632  -17.8791   20.0939 C   0  0  0  0  0  0  0  0  0  0  0  0
    8.8663  -17.9257   21.5767 C   0  0  2  0  0  0  0  0  0  0  0  0
    7.4697  -18.2043   21.9806 N   0  0  0  0  0  0  0  0  0  0  0  0
    9.3240  -16.7477   22.2946 C   0  0  0  0  0  0  0  0  0  0  0  0
   10.5271  -16.3622   22.1200 O   0  0  0  0  0  0  0  0  0  0  0  0
    5.1522  -13.1179   25.0950 C   0  0  0  0  0  0  0  0  0  0  0  0
    6.4888  -12.4910   26.1660 S   0  0  0  0  0  0  0  0  0  0  0  0
    8.0738  -13.0476   25.4020 C   0  0  0  0  0  0  0  0  0  0  0  0
    7.7977  -14.2307   24.5309 C   0  0  0  0  0  0  0  0  0  0  0  0
    9.0123  -14.9074   23.9661 C   0  0  2  0  0  0  0  0  0  0  0  0
    8.4737  -16.0254   23.1683 N   0  0  0  0  0  0  0  0  0  0  0  0
    9.9793  -15.3976   24.9379 C   0  0  0  0  0  0  0  0  0  0  0  0
   11.1513  -14.8988   24.9261 O   0  0  0  0  0  0  0  0  0  0  0  0
    9.2165  -13.8005   29.3539 C   0  0  0  0  0  0  0  0  0  0  0  0
    9.9566  -14.4362   28.2326 C   0  0  0  0  0  0  0  0  0  0  0  0
   10.0322  -15.9339   28.3017 C   0  0  2  0  0  0  0  0  0  0  0  0
   10.8482  -16.3021   29.5191 C   0  0  0  0  0  0  0  0  0  0  0  0
   10.6244  -16.5565   27.0611 C   0  0  2  0  0  0  0  0  0  0  0  0
    9.7213  -16.4041   25.9242 N   0  0  0  0  0  0  0  0  0  0  0  0
   10.7355  -18.0156   27.3419 C   0  0  0  0  0  0  0  0  0  0  0  0
   11.8405  -18.5211   28.0574 O   0  0  0  0  0  0  0  0  0  0  0  0
    9.8985  -18.8635   26.9817 O   0  0  0  0  0  0  0  0  0  0  0  0
  2  1  1  0
  2  3  2  0
  4  2  1  0
  5  4  1  0
  5  6  1  1
  7  5  1  0
  8  7  2  0
  9 10  1  0
 10 11  1  0
 11 12  1  0
 13 12  1  1
 13 14  1  0
 14  7  1  0
 15 13  1  0
 15 16  2  0
 18 19  1  0
 18 17  1  0
 19 21  1  0
 19 20  1  1
 21 22  1  6
 22 15  1  0
 23 21  1  0
 24 23  1  0
 25 23  2  0
M  END
$$$$
