NMI.pdb
     RDKit          3D

 25 24  0  0  1  0  0  0  0  0999 V2000
   12.4450  -17.1961   18.2924 N   0  0  0  0  0  0  0  0  0  0  0  0
   11.0815  -16.8659   18.5395 C   0  0  0  0  0  0  0  0  0  0  0  0
   10.1785  -17.2886   17.7795 O   0  0  0  0  0  0  0  0  0  0  0  0
   10.7034  -16.0218   19.6898 C   0  0  0  0  0  0  0  0  0  0  0  0
   10.2574  -16.7454   20.9057 C   0  0  2  0  0  0  0  0  0  0  0  0
    8.9389  -17.3305   20.5735 N   0  0  0  0  0  0  0  0  0  0  0  0
   10.1245  -15.9882   22.1392 C   0  0  0  0  0  0  0  0  0  0  0  0
   11.1469  -15.3669   22.5809 O   0  0  0  0  0  0  0  0  0  0  0  0
    5.8077  -11.5837   25.4297 C   0  0  0  0  0  0  0  0  0  0  0  0
    5.4144  -13.3647   25.4188 S   0  0  0  0  0  0  0  0  0  0  0  0
    7.0185  -14.2543   25.6217 C   0  0  0  0  0  0  0  0  0  0  0  0
    7.3753  -14.9036   24.3233 C   0  0  0  0  0  0  0  0  0  0  0  0
    8.8326  -15.2118   24.1407 C   0  0  2  0  0  0  0  0  0  0  0  0
    8.9000  -15.9221   22.8494 N   0  0  0  0  0  0  0  0  0  0  0  0
    9.4527  -16.0080   25.1902 C   0  0  0  0  0  0  0  0  0  0  0  0
    9.7874  -17.2067   24.9192 O   0  0  0  0  0  0  0  0  0  0  0  0
   10.3725  -13.5969   30.0388 C   0  0  0  0  0  0  0  0  0  0  0  0
   10.8394  -14.3077   28.8197 C   0  0  0  0  0  0  0  0  0  0  0  0
   10.5556  -15.7817   28.8072 C   0  0  2  0  0  0  0  0  0  0  0  0
   11.6036  -16.4638   29.6557 C   0  0  0  0  0  0  0  0  0  0  0  0
   10.5357  -16.3709   27.4179 C   0  0  2  0  0  0  0  0  0  0  0  0
    9.7275  -15.5512   26.5200 N   0  0  0  0  0  0  0  0  0  0  0  0
    9.8573  -17.6921   27.5375 C   0  0  0  0  0  0  0  0  0  0  0  0
   10.6152  -18.8802   27.5845 O   0  0  0  0  0  0  0  0  0  0  0  0
    8.6233  -17.8421   27.6015 O   0  0  0  0  0  0  0  0  0  0  0  0
  2  1  1  0
  2  3  2  0
  4  2  1  0
  5  4  1  0
  5  6  1  6
  7  5  1  0
  8  7  2  0
  9 10  1  0
 10 11  1  0
 11 12  1  0
 13 12  1  1
 13 14  1  0
 14  7  1  0
 15 13  1  0
 15 16  2  0
 18 19  1  0
 18 17  1  0
 19 21  1  0
 19 20  1  1
 21 22  1  6
 22 15  1  0
 23 21  1  0
 24 23  1  0
 25 23  2  0
M  END
$$$$
