NMI.pdb
     RDKit          3D

 25 24  0  0  1  0  0  0  0  0999 V2000
   11.5566  -18.1161   18.5056 N   0  0  0  0  0  0  0  0  0  0  0  0
   10.8665  -16.8944   18.2601 C   0  0  0  0  0  0  0  0  0  0  0  0
   10.5538  -16.5661   17.0913 O   0  0  0  0  0  0  0  0  0  0  0  0
   10.5068  -15.9916   19.3710 C   0  0  0  0  0  0  0  0  0  0  0  0
    9.5503  -16.5369   20.3654 C   0  0  2  0  0  0  0  0  0  0  0  0
    8.2370  -16.5892   19.6844 N   0  0  0  0  0  0  0  0  0  0  0  0
    9.3876  -15.8197   21.6191 C   0  0  0  0  0  0  0  0  0  0  0  0
    9.0651  -14.5866   21.5733 O   0  0  0  0  0  0  0  0  0  0  0  0
    5.8631  -11.9109   25.0518 C   0  0  0  0  0  0  0  0  0  0  0  0
    5.7980  -13.7157   24.7963 S   0  0  0  0  0  0  0  0  0  0  0  0
    7.4884  -14.3562   25.1680 C   0  0  0  0  0  0  0  0  0  0  0  0
    7.9990  -15.0884   23.9689 C   0  0  0  0  0  0  0  0  0  0  0  0
    9.3640  -15.6933   24.1213 C   0  0  2  0  0  0  0  0  0  0  0  0
    9.5720  -16.4524   22.8735 N   0  0  0  0  0  0  0  0  0  0  0  0
    9.5535  -16.5571   25.2779 C   0  0  0  0  0  0  0  0  0  0  0  0
    9.8263  -17.7847   25.0750 O   0  0  0  0  0  0  0  0  0  0  0  0
   10.0415  -13.3890   29.8424 C   0  0  0  0  0  0  0  0  0  0  0  0
   10.3580  -14.1911   28.6318 C   0  0  0  0  0  0  0  0  0  0  0  0
   10.3943  -15.6750   28.8559 C   0  0  2  0  0  0  0  0  0  0  0  0
   11.5402  -15.9753   29.7941 C   0  0  0  0  0  0  0  0  0  0  0  0
   10.5370  -16.4654   27.5782 C   0  0  2  0  0  0  0  0  0  0  0  0
    9.4630  -16.1384   26.6450 N   0  0  0  0  0  0  0  0  0  0  0  0
   10.3711  -17.8972   27.9555 C   0  0  0  0  0  0  0  0  0  0  0  0
   11.5011  -18.7125   28.1713 O   0  0  0  0  0  0  0  0  0  0  0  0
    9.2703  -18.4594   28.1021 O   0  0  0  0  0  0  0  0  0  0  0  0
  2  1  1  0
  2  3  2  0
  4  2  1  0
  5  4  1  0
  5  6  1  6
  7  5  1  0
  8  7  2  0
  9 10  1  0
 10 11  1  0
 11 12  1  0
 13 12  1  6
 13 14  1  0
 14  7  1  0
 15 13  1  0
 15 16  2  0
 18 19  1  0
 18 17  1  0
 19 21  1  0
 19 20  1  1
 21 22  1  6
 22 15  1  0
 23 21  1  0
 24 23  1  0
 25 23  2  0
M  END
$$$$
