NMI.pdb
     RDKit          3D

 25 24  0  0  1  0  0  0  0  0999 V2000
    9.5779  -18.1654   18.4263 N   0  0  0  0  0  0  0  0  0  0  0  0
    9.8290  -16.7656   18.3443 C   0  0  0  0  0  0  0  0  0  0  0  0
   10.1511  -16.2417   17.2519 O   0  0  0  0  0  0  0  0  0  0  0  0
    9.7171  -15.9051   19.5384 C   0  0  0  0  0  0  0  0  0  0  0  0
    9.3726  -16.5963   20.8051 C   0  0  2  0  0  0  0  0  0  0  0  0
    7.9322  -16.9251   20.7136 N   0  0  0  0  0  0  0  0  0  0  0  0
    9.6018  -15.8868   22.0527 C   0  0  0  0  0  0  0  0  0  0  0  0
   10.7903  -15.5148   22.3277 O   0  0  0  0  0  0  0  0  0  0  0  0
    5.0486  -12.8234   24.5185 C   0  0  0  0  0  0  0  0  0  0  0  0
    5.9894  -12.5483   26.0567 S   0  0  0  0  0  0  0  0  0  0  0  0
    7.5039  -13.5960   25.9361 C   0  0  0  0  0  0  0  0  0  0  0  0
    7.5343  -14.2432   24.5889 C   0  0  0  0  0  0  0  0  0  0  0  0
    8.8321  -14.9027   24.2246 C   0  0  2  0  0  0  0  0  0  0  0  0
    8.5480  -15.5990   22.9554 N   0  0  0  0  0  0  0  0  0  0  0  0
    9.3713  -15.8348   25.2046 C   0  0  0  0  0  0  0  0  0  0  0  0
    9.2519  -17.0826   24.9788 O   0  0  0  0  0  0  0  0  0  0  0  0
   11.2232  -14.3786   30.4175 C   0  0  0  0  0  0  0  0  0  0  0  0
   10.5287  -15.0294   29.2759 C   0  0  0  0  0  0  0  0  0  0  0  0
   11.4154  -15.8618   28.3959 C   0  0  2  0  0  0  0  0  0  0  0  0
   12.5365  -14.9792   27.8982 C   0  0  0  0  0  0  0  0  0  0  0  0
   10.6815  -16.4879   27.2354 C   0  0  2  0  0  0  0  0  0  0  0  0
   10.0388  -15.4640   26.4169 N   0  0  0  0  0  0  0  0  0  0  0  0
    9.5978  -17.3197   27.8302 C   0  0  0  0  0  0  0  0  0  0  0  0
    9.9081  -18.5223   28.4978 O   0  0  0  0  0  0  0  0  0  0  0  0
    8.3882  -17.0300   27.7849 O   0  0  0  0  0  0  0  0  0  0  0  0
  2  1  1  0
  2  3  2  0
  4  2  1  0
  5  4  1  0
  5  6  1  6
  7  5  1  0
  8  7  2  0
  9 10  1  0
 10 11  1  0
 11 12  1  0
 13 12  1  1
 13 14  1  0
 14  7  1  0
 15 13  1  0
 15 16  2  0
 18 19  1  0
 18 17  1  0
 19 21  1  0
 19 20  1  6
 21 22  1  6
 22 15  1  0
 23 21  1  0
 24 23  1  0
 25 23  2  0
M  END
$$$$
