NMI.pdb
     RDKit          3D

 25 24  0  0  1  0  0  0  0  0999 V2000
    7.7182  -12.5424   17.3963 N   0  0  0  0  0  0  0  0  0  0  0  0
    7.8883  -13.9396   17.6154 C   0  0  0  0  0  0  0  0  0  0  0  0
    8.3283  -14.6763   16.7015 O   0  0  0  0  0  0  0  0  0  0  0  0
    7.5507  -14.5484   18.9170 C   0  0  0  0  0  0  0  0  0  0  0  0
    8.6809  -14.7272   19.8613 C   0  0  2  0  0  0  0  0  0  0  0  0
    9.6289  -15.6487   19.1956 N   0  0  0  0  0  0  0  0  0  0  0  0
    8.3868  -15.2506   21.1849 C   0  0  0  0  0  0  0  0  0  0  0  0
    7.4482  -14.7070   21.8558 O   0  0  0  0  0  0  0  0  0  0  0  0
   11.3327  -20.3574   22.9380 C   0  0  0  0  0  0  0  0  0  0  0  0
   10.2890  -20.4354   24.4318 S   0  0  0  0  0  0  0  0  0  0  0  0
    9.3754  -18.8340   24.5138 C   0  0  0  0  0  0  0  0  0  0  0  0
    9.4666  -18.1602   23.1825 C   0  0  0  0  0  0  0  0  0  0  0  0
    8.7851  -16.8262   23.0919 C   0  0  2  0  0  0  0  0  0  0  0  0
    9.1064  -16.3395   21.7368 N   0  0  0  0  0  0  0  0  0  0  0  0
    9.1757  -15.8412   24.0904 C   0  0  0  0  0  0  0  0  0  0  0  0
   10.2858  -15.2356   23.9374 O   0  0  0  0  0  0  0  0  0  0  0  0
    6.1748  -11.8528   25.8743 C   0  0  0  0  0  0  0  0  0  0  0  0
    7.3425  -12.7009   25.5187 C   0  0  0  0  0  0  0  0  0  0  0  0
    7.8606  -13.5545   26.6396 C   0  0  2  0  0  0  0  0  0  0  0  0
    8.3819  -12.6360   27.7203 C   0  0  0  0  0  0  0  0  0  0  0  0
    8.9356  -14.5196   26.2030 C   0  0  2  0  0  0  0  0  0  0  0  0
    8.4057  -15.4853   25.2449 N   0  0  0  0  0  0  0  0  0  0  0  0
    9.3298  -15.2804   27.4220 C   0  0  0  0  0  0  0  0  0  0  0  0
   10.3888  -14.8253   28.2342 O   0  0  0  0  0  0  0  0  0  0  0  0
    8.7792  -16.3307   27.8001 O   0  0  0  0  0  0  0  0  0  0  0  0
  2  1  1  0
  2  3  2  0
  4  2  1  0
  5  4  1  0
  5  6  1  6
  7  5  1  0
  8  7  2  0
  9 10  1  0
 10 11  1  0
 11 12  1  0
 13 12  1  1
 13 14  1  0
 14  7  1  0
 15 13  1  0
 15 16  2  0
 18 19  1  0
 18 17  1  0
 19 21  1  0
 19 20  1  1
 21 22  1  6
 22 15  1  0
 23 21  1  0
 24 23  1  0
 25 23  2  0
M  END
$$$$
