NMI.pdb
     RDKit          3D

 25 24  0  0  1  0  0  0  0  0999 V2000
    6.4740  -17.8344   18.1410 N   0  0  0  0  0  0  0  0  0  0  0  0
    7.8198  -17.5177   18.4840 C   0  0  0  0  0  0  0  0  0  0  0  0
    8.7518  -18.3013   18.1857 O   0  0  0  0  0  0  0  0  0  0  0  0
    8.1452  -16.2663   19.1958 C   0  0  0  0  0  0  0  0  0  0  0  0
    9.2655  -16.3447   20.1652 C   0  0  2  0  0  0  0  0  0  0  0  0
    9.4412  -17.7820   20.4726 N   0  0  0  0  0  0  0  0  0  0  0  0
    9.1339  -15.6212   21.4189 C   0  0  0  0  0  0  0  0  0  0  0  0
    8.9906  -14.3547   21.3744 O   0  0  0  0  0  0  0  0  0  0  0  0
    5.9162  -12.9120   26.2569 C   0  0  0  0  0  0  0  0  0  0  0  0
    6.3458  -12.5420   24.5233 S   0  0  0  0  0  0  0  0  0  0  0  0
    8.0270  -13.2486   24.2404 C   0  0  0  0  0  0  0  0  0  0  0  0
    7.8840  -14.6794   23.8313 C   0  0  0  0  0  0  0  0  0  0  0  0
    9.1377  -15.4994   23.9214 C   0  0  2  0  0  0  0  0  0  0  0  0
    9.1560  -16.2831   22.6716 N   0  0  0  0  0  0  0  0  0  0  0  0
    9.2413  -16.3818   25.0749 C   0  0  0  0  0  0  0  0  0  0  0  0
    9.2992  -17.6376   24.8696 O   0  0  0  0  0  0  0  0  0  0  0  0
   10.1794  -13.0458   29.3450 C   0  0  0  0  0  0  0  0  0  0  0  0
   10.4567  -13.9224   28.1771 C   0  0  0  0  0  0  0  0  0  0  0  0
   10.4940  -15.3900   28.4908 C   0  0  2  0  0  0  0  0  0  0  0  0
   11.7445  -15.6615   29.2945 C   0  0  0  0  0  0  0  0  0  0  0  0
   10.4582  -16.2616   27.2593 C   0  0  2  0  0  0  0  0  0  0  0  0
    9.2892  -15.9531   26.4410 N   0  0  0  0  0  0  0  0  0  0  0  0
   10.2975  -17.6606   27.7460 C   0  0  0  0  0  0  0  0  0  0  0  0
   11.4301  -18.4637   27.9921 O   0  0  0  0  0  0  0  0  0  0  0  0
    9.1990  -18.2046   27.9626 O   0  0  0  0  0  0  0  0  0  0  0  0
  2  1  1  0
  2  3  2  0
  4  2  1  0
  5  4  1  0
  5  6  1  1
  7  5  1  0
  8  7  2  0
  9 10  1  0
 10 11  1  0
 11 12  1  0
 13 12  1  1
 13 14  1  0
 14  7  1  0
 15 13  1  0
 15 16  2  0
 18 19  1  0
 18 17  1  0
 19 21  1  0
 19 20  1  6
 21 22  1  6
 22 15  1  0
 23 21  1  0
 24 23  1  0
 25 23  2  0
M  END
$$$$
