NMI.pdb
     RDKit          3D

 25 24  0  0  1  0  0  0  0  0999 V2000
    8.4507  -18.4309   17.4039 N   0  0  0  0  0  0  0  0  0  0  0  0
    9.3032  -18.5639   18.5374 C   0  0  0  0  0  0  0  0  0  0  0  0
    9.8198  -19.6715   18.8164 O   0  0  0  0  0  0  0  0  0  0  0  0
    9.5949  -17.4060   19.4052 C   0  0  0  0  0  0  0  0  0  0  0  0
    9.6017  -17.6751   20.8641 C   0  0  2  0  0  0  0  0  0  0  0  0
    8.2743  -18.2485   21.1811 N   0  0  0  0  0  0  0  0  0  0  0  0
    9.8441  -16.5582   21.7621 C   0  0  0  0  0  0  0  0  0  0  0  0
   10.9476  -15.9272   21.6587 O   0  0  0  0  0  0  0  0  0  0  0  0
    5.6672  -13.9767   26.2548 C   0  0  0  0  0  0  0  0  0  0  0  0
    7.1154  -12.8767   26.1145 S   0  0  0  0  0  0  0  0  0  0  0  0
    7.7661  -13.0874   24.4004 C   0  0  0  0  0  0  0  0  0  0  0  0
    7.8468  -14.5482   24.0934 C   0  0  0  0  0  0  0  0  0  0  0  0
    9.1927  -15.0340   23.6410 C   0  0  2  0  0  0  0  0  0  0  0  0
    8.8929  -16.1574   22.7329 N   0  0  0  0  0  0  0  0  0  0  0  0
   10.1034  -15.4619   24.6934 C   0  0  0  0  0  0  0  0  0  0  0  0
   11.3558  -15.3861   24.4742 O   0  0  0  0  0  0  0  0  0  0  0  0
    9.7687  -13.8141   29.7258 C   0  0  0  0  0  0  0  0  0  0  0  0
    9.6208  -14.8522   28.6724 C   0  0  0  0  0  0  0  0  0  0  0  0
   10.8978  -15.2239   27.9760 C   0  0  2  0  0  0  0  0  0  0  0  0
   11.4463  -13.9798   27.3166 C   0  0  0  0  0  0  0  0  0  0  0  0
   10.7214  -16.3259   26.9603 C   0  0  2  0  0  0  0  0  0  0  0  0
    9.7066  -15.9639   25.9752 N   0  0  0  0  0  0  0  0  0  0  0  0
   10.2042  -17.5038   27.7119 C   0  0  0  0  0  0  0  0  0  0  0  0
   11.0388  -18.1959   28.6135 O   0  0  0  0  0  0  0  0  0  0  0  0
    9.0465  -17.9486   27.6059 O   0  0  0  0  0  0  0  0  0  0  0  0
  2  1  1  0
  2  3  2  0
  4  2  1  0
  5  4  1  0
  5  6  1  1
  7  5  1  0
  8  7  2  0
  9 10  1  0
 10 11  1  0
 11 12  1  0
 13 12  1  1
 13 14  1  0
 14  7  1  0
 15 13  1  0
 15 16  2  0
 18 19  1  0
 18 17  1  0
 19 21  1  0
 19 20  1  6
 21 22  1  6
 22 15  1  0
 23 21  1  0
 24 23  1  0
 25 23  2  0
M  END
$$$$
