NMI.pdb
     RDKit          3D

 25 24  0  0  1  0  0  0  0  0999 V2000
    9.6048  -16.3470   17.1887 N   0  0  0  0  0  0  0  0  0  0  0  0
   10.4058  -16.5364   18.3514 C   0  0  0  0  0  0  0  0  0  0  0  0
   11.3599  -17.3494   18.3391 O   0  0  0  0  0  0  0  0  0  0  0  0
   10.1306  -15.7840   19.5911 C   0  0  0  0  0  0  0  0  0  0  0  0
    9.8382  -16.6016   20.7940 C   0  0  2  0  0  0  0  0  0  0  0  0
    8.4862  -17.1674   20.5858 N   0  0  0  0  0  0  0  0  0  0  0  0
    9.8640  -15.9422   22.0890 C   0  0  0  0  0  0  0  0  0  0  0  0
   10.9814  -15.5089   22.5251 O   0  0  0  0  0  0  0  0  0  0  0  0
    5.9762  -11.2697   25.4093 C   0  0  0  0  0  0  0  0  0  0  0  0
    5.5442  -13.0186   25.6947 S   0  0  0  0  0  0  0  0  0  0  0  0
    7.1374  -13.9488   25.7391 C   0  0  0  0  0  0  0  0  0  0  0  0
    7.3817  -14.5478   24.3914 C   0  0  0  0  0  0  0  0  0  0  0  0
    8.7641  -15.0894   24.1724 C   0  0  2  0  0  0  0  0  0  0  0  0
    8.6909  -15.7683   22.8647 N   0  0  0  0  0  0  0  0  0  0  0  0
    9.2598  -16.0036   25.1914 C   0  0  0  0  0  0  0  0  0  0  0  0
    9.5382  -17.1975   24.8457 O   0  0  0  0  0  0  0  0  0  0  0  0
   11.0196  -13.3043   29.6344 C   0  0  0  0  0  0  0  0  0  0  0  0
   11.0956  -14.1315   28.4019 C   0  0  0  0  0  0  0  0  0  0  0  0
   10.8114  -15.5910   28.6090 C   0  0  2  0  0  0  0  0  0  0  0  0
   11.9981  -16.1989   29.3200 C   0  0  0  0  0  0  0  0  0  0  0  0
   10.5309  -16.3297   27.3233 C   0  0  2  0  0  0  0  0  0  0  0  0
    9.4694  -15.6700   26.5688 N   0  0  0  0  0  0  0  0  0  0  0  0
   10.0199  -17.6721   27.7194 C   0  0  0  0  0  0  0  0  0  0  0  0
   10.8860  -18.7846   27.7456 O   0  0  0  0  0  0  0  0  0  0  0  0
    8.8407  -17.9048   28.0426 O   0  0  0  0  0  0  0  0  0  0  0  0
  2  1  1  0
  2  3  2  0
  4  2  1  0
  5  4  1  0
  5  6  1  6
  7  5  1  0
  8  7  2  0
  9 10  1  0
 10 11  1  0
 11 12  1  0
 13 12  1  1
 13 14  1  0
 14  7  1  0
 15 13  1  0
 15 16  2  0
 18 19  1  0
 18 17  1  0
 19 21  1  0
 19 20  1  6
 21 22  1  6
 22 15  1  0
 23 21  1  0
 24 23  1  0
 25 23  2  0
M  END
$$$$
