NMI.pdb
     RDKit          3D

 25 24  0  0  1  0  0  0  0  0999 V2000
   10.4865  -17.1811   16.9126 N   0  0  0  0  0  0  0  0  0  0  0  0
   11.0532  -17.2910   18.2149 C   0  0  0  0  0  0  0  0  0  0  0  0
   11.9306  -18.1539   18.4543 O   0  0  0  0  0  0  0  0  0  0  0  0
   10.6213  -16.3963   19.3065 C   0  0  0  0  0  0  0  0  0  0  0  0
   10.2938  -17.0564   20.5941 C   0  0  2  0  0  0  0  0  0  0  0  0
    8.9506  -17.6533   20.4183 N   0  0  0  0  0  0  0  0  0  0  0  0
   10.2772  -16.2376   21.7949 C   0  0  0  0  0  0  0  0  0  0  0  0
   11.3156  -15.5518   22.0740 O   0  0  0  0  0  0  0  0  0  0  0  0
    5.5492  -12.0491   26.3070 C   0  0  0  0  0  0  0  0  0  0  0  0
    5.7343  -13.3455   25.0373 S   0  0  0  0  0  0  0  0  0  0  0  0
    7.4919  -13.9029   25.1134 C   0  0  0  0  0  0  0  0  0  0  0  0
    7.7382  -14.8689   23.9995 C   0  0  0  0  0  0  0  0  0  0  0  0
    9.1632  -15.3115   23.8392 C   0  0  2  0  0  0  0  0  0  0  0  0
    9.1470  -16.1815   22.6478 N   0  0  0  0  0  0  0  0  0  0  0  0
    9.7439  -16.0158   24.9735 C   0  0  0  0  0  0  0  0  0  0  0  0
   10.0021  -17.2564   24.8445 O   0  0  0  0  0  0  0  0  0  0  0  0
   10.6786  -13.1982   29.5980 C   0  0  0  0  0  0  0  0  0  0  0  0
   11.1901  -14.0575   28.4984 C   0  0  0  0  0  0  0  0  0  0  0  0
   10.7648  -15.4950   28.5777 C   0  0  2  0  0  0  0  0  0  0  0  0
   11.6762  -16.1956   29.5584 C   0  0  0  0  0  0  0  0  0  0  0  0
   10.7884  -16.1959   27.2415 C   0  0  2  0  0  0  0  0  0  0  0  0
   10.0592  -15.4241   26.2395 N   0  0  0  0  0  0  0  0  0  0  0  0
   10.0513  -17.4767   27.4320 C   0  0  0  0  0  0  0  0  0  0  0  0
    8.6468  -17.5147   27.3129 O   0  0  0  0  0  0  0  0  0  0  0  0
   10.5948  -18.5639   27.6999 O   0  0  0  0  0  0  0  0  0  0  0  0
  2  1  1  0
  2  3  2  0
  4  2  1  0
  5  4  1  0
  5  6  1  6
  7  5  1  0
  8  7  2  0
  9 10  1  0
 10 11  1  0
 11 12  1  0
 13 12  1  1
 13 14  1  0
 14  7  1  0
 15 13  1  0
 15 16  2  0
 18 19  1  0
 18 17  1  0
 19 21  1  0
 19 20  1  1
 21 22  1  6
 22 15  1  0
 23 21  1  0
 24 23  1  0
 25 23  2  0
M  END
$$$$
