NMI.pdb
     RDKit          3D

 25 24  0  0  1  0  0  0  0  0999 V2000
    8.7690  -20.9247   18.4633 N   0  0  0  0  0  0  0  0  0  0  0  0
    9.9470  -20.3942   19.0633 C   0  0  0  0  0  0  0  0  0  0  0  0
   10.9165  -21.1433   19.3288 O   0  0  0  0  0  0  0  0  0  0  0  0
   10.0515  -18.9574   19.3851 C   0  0  0  0  0  0  0  0  0  0  0  0
   10.3508  -18.6306   20.8009 C   0  0  2  0  0  0  0  0  0  0  0  0
    9.3188  -19.3203   21.6074 N   0  0  0  0  0  0  0  0  0  0  0  0
   10.3728  -17.2295   21.1870 C   0  0  0  0  0  0  0  0  0  0  0  0
   11.3233  -16.4976   20.7543 O   0  0  0  0  0  0  0  0  0  0  0  0
    7.2364  -11.9096   20.2983 C   0  0  0  0  0  0  0  0  0  0  0  0
    6.5032  -13.5716   20.1346 S   0  0  0  0  0  0  0  0  0  0  0  0
    7.8389  -14.7743   20.5530 C   0  0  0  0  0  0  0  0  0  0  0  0
    8.1573  -14.6516   22.0085 C   0  0  0  0  0  0  0  0  0  0  0  0
    9.4662  -15.2523   22.4305 C   0  0  2  0  0  0  0  0  0  0  0  0
    9.3730  -16.6657   22.0180 N   0  0  0  0  0  0  0  0  0  0  0  0
    9.7839  -15.1578   23.8483 C   0  0  0  0  0  0  0  0  0  0  0  0
   10.9967  -14.9569   24.1819 O   0  0  0  0  0  0  0  0  0  0  0  0
    6.6537  -12.0375   26.5198 C   0  0  0  0  0  0  0  0  0  0  0  0
    7.7894  -12.8504   26.0111 C   0  0  0  0  0  0  0  0  0  0  0  0
    8.1873  -13.9943   26.8981 C   0  0  2  0  0  0  0  0  0  0  0  0
    8.7019  -13.4179   28.1967 C   0  0  0  0  0  0  0  0  0  0  0  0
    9.2230  -14.8973   26.2741 C   0  0  2  0  0  0  0  0  0  0  0  0
    8.8354  -15.2680   24.9163 N   0  0  0  0  0  0  0  0  0  0  0  0
    9.2278  -16.1463   27.0865 C   0  0  0  0  0  0  0  0  0  0  0  0
   10.1591  -16.3122   28.1322 O   0  0  0  0  0  0  0  0  0  0  0  0
    8.4448  -17.0980   26.9118 O   0  0  0  0  0  0  0  0  0  0  0  0
  2  1  1  0
  2  3  2  0
  4  2  1  0
  5  4  1  0
  5  6  1  1
  7  5  1  0
  8  7  2  0
  9 10  1  0
 10 11  1  0
 11 12  1  0
 13 12  1  1
 13 14  1  0
 14  7  1  0
 15 13  1  0
 15 16  2  0
 18 19  1  0
 18 17  1  0
 19 21  1  0
 19 20  1  1
 21 22  1  6
 22 15  1  0
 23 21  1  0
 24 23  1  0
 25 23  2  0
M  END
$$$$
