NMI.pdb
     RDKit          3D

 25 24  0  0  1  0  0  0  0  0999 V2000
   10.9285  -19.6912   18.2458 N   0  0  0  0  0  0  0  0  0  0  0  0
    9.8710  -19.4049   19.1562 C   0  0  0  0  0  0  0  0  0  0  0  0
    9.0106  -20.2766   19.4237 O   0  0  0  0  0  0  0  0  0  0  0  0
    9.7647  -18.0815   19.8011 C   0  0  0  0  0  0  0  0  0  0  0  0
    9.5133  -18.0914   21.2632 C   0  0  2  0  0  0  0  0  0  0  0  0
    8.0879  -18.4535   21.4312 N   0  0  0  0  0  0  0  0  0  0  0  0
    9.7655  -16.8680   22.0064 C   0  0  0  0  0  0  0  0  0  0  0  0
   10.9311  -16.3538   21.9478 O   0  0  0  0  0  0  0  0  0  0  0  0
    5.6944  -13.0395   26.4579 C   0  0  0  0  0  0  0  0  0  0  0  0
    7.4979  -13.0231   26.1855 S   0  0  0  0  0  0  0  0  0  0  0  0
    7.7491  -13.0146   24.3572 C   0  0  0  0  0  0  0  0  0  0  0  0
    7.7244  -14.4250   23.8624 C   0  0  0  0  0  0  0  0  0  0  0  0
    9.0665  -15.0141   23.5400 C   0  0  2  0  0  0  0  0  0  0  0  0
    8.7578  -16.2403   22.7800 N   0  0  0  0  0  0  0  0  0  0  0  0
    9.9172  -15.3248   24.6800 C   0  0  0  0  0  0  0  0  0  0  0  0
   10.9986  -14.6670   24.8219 O   0  0  0  0  0  0  0  0  0  0  0  0
    8.6043  -13.8899   29.1327 C   0  0  0  0  0  0  0  0  0  0  0  0
    9.4572  -14.4081   28.0312 C   0  0  0  0  0  0  0  0  0  0  0  0
    9.7092  -15.8873   28.0774 C   0  0  2  0  0  0  0  0  0  0  0  0
   10.4717  -16.1891   29.3467 C   0  0  0  0  0  0  0  0  0  0  0  0
   10.4628  -16.3993   26.8744 C   0  0  2  0  0  0  0  0  0  0  0  0
    9.6366  -16.3182   25.6735 N   0  0  0  0  0  0  0  0  0  0  0  0
   10.7235  -17.8434   27.1321 C   0  0  0  0  0  0  0  0  0  0  0  0
   11.8474  -18.2409   27.8852 O   0  0  0  0  0  0  0  0  0  0  0  0
   10.0014  -18.7696   26.7198 O   0  0  0  0  0  0  0  0  0  0  0  0
  2  1  1  0
  2  3  2  0
  4  2  1  0
  5  4  1  0
  5  6  1  6
  7  5  1  0
  8  7  2  0
  9 10  1  0
 10 11  1  0
 11 12  1  0
 13 12  1  1
 13 14  1  0
 14  7  1  0
 15 13  1  0
 15 16  2  0
 18 19  1  0
 18 17  1  0
 19 21  1  0
 19 20  1  1
 21 22  1  6
 22 15  1  0
 23 21  1  0
 24 23  1  0
 25 23  2  0
M  END
$$$$
