NMI.pdb
     RDKit          3D

 25 24  0  0  1  0  0  0  0  0999 V2000
    8.0345  -21.0359   20.5831 N   0  0  0  0  0  0  0  0  0  0  0  0
    8.2622  -19.9761   19.6589 C   0  0  0  0  0  0  0  0  0  0  0  0
    8.2443  -20.1957   18.4248 O   0  0  0  0  0  0  0  0  0  0  0  0
    8.5241  -18.6026   20.1316 C   0  0  0  0  0  0  0  0  0  0  0  0
    8.5760  -18.4226   21.6033 C   0  0  2  0  0  0  0  0  0  0  0  0
    7.2028  -18.6745   22.0954 N   0  0  0  0  0  0  0  0  0  0  0  0
    9.0179  -17.1370   22.1176 C   0  0  0  0  0  0  0  0  0  0  0  0
   10.1615  -16.7021   21.7578 O   0  0  0  0  0  0  0  0  0  0  0  0
    5.3824  -12.9697   26.0172 C   0  0  0  0  0  0  0  0  0  0  0  0
    7.1456  -12.5256   25.8738 S   0  0  0  0  0  0  0  0  0  0  0  0
    7.6251  -12.8534   24.1220 C   0  0  0  0  0  0  0  0  0  0  0  0
    7.4421  -14.3096   23.8383 C   0  0  0  0  0  0  0  0  0  0  0  0
    8.6928  -15.0520   23.4684 C   0  0  2  0  0  0  0  0  0  0  0  0
    8.2154  -16.3647   22.9937 N   0  0  0  0  0  0  0  0  0  0  0  0
    9.6715  -15.2230   24.5327 C   0  0  0  0  0  0  0  0  0  0  0  0
   10.7616  -14.5680   24.4599 O   0  0  0  0  0  0  0  0  0  0  0  0
    9.7656  -13.0470   28.8592 C   0  0  0  0  0  0  0  0  0  0  0  0
   10.3223  -13.8633   27.7489 C   0  0  0  0  0  0  0  0  0  0  0  0
   10.1540  -15.3456   27.9162 C   0  0  2  0  0  0  0  0  0  0  0  0
   10.9733  -15.7742   29.1114 C   0  0  0  0  0  0  0  0  0  0  0  0
   10.5556  -16.1310   26.6917 C   0  0  2  0  0  0  0  0  0  0  0  0
    9.5101  -16.0733   25.6743 N   0  0  0  0  0  0  0  0  0  0  0  0
   10.6668  -17.5513   27.1280 C   0  0  0  0  0  0  0  0  0  0  0  0
    9.6814  -18.4894   26.7575 O   0  0  0  0  0  0  0  0  0  0  0  0
   11.5970  -17.9992   27.8233 O   0  0  0  0  0  0  0  0  0  0  0  0
  2  1  1  0
  2  3  2  0
  4  2  1  0
  5  4  1  0
  5  6  1  6
  7  5  1  0
  8  7  2  0
  9 10  1  0
 10 11  1  0
 11 12  1  0
 13 12  1  1
 13 14  1  0
 14  7  1  0
 15 13  1  0
 15 16  2  0
 18 19  1  0
 18 17  1  0
 19 21  1  0
 19 20  1  1
 21 22  1  6
 22 15  1  0
 23 21  1  0
 24 23  1  0
 25 23  2  0
M  END
$$$$
