EHV.pdb
     RDKit          3D

 27 27  0  0  1  0  0  0  0  0999 V2000
    8.0356  -13.2240   18.9293 N   0  0  0  0  0  0  0  0  0  0  0  0
    8.4213  -14.5598   19.3817 C   0  0  1  0  0  0  0  0  0  0  0  0
    9.9016  -14.7091   19.2283 C   0  0  0  0  0  0  0  0  0  0  0  0
   10.7166  -13.7030   19.9953 C   0  0  0  0  0  0  0  0  0  0  0  0
   12.1804  -13.9239   19.7622 C   0  0  0  0  0  0  0  0  0  0  0  0
   13.0718  -13.2238   20.3076 O   0  0  0  0  0  0  0  0  0  0  0  0
    8.0422  -14.7346   20.8154 C   0  0  0  0  0  0  0  0  0  0  0  0
    7.4563  -13.8723   21.5068 O   0  0  0  0  0  0  0  0  0  0  0  0
   12.6440  -14.9385   18.9104 O   0  0  0  0  0  0  0  0  0  0  0  0
    8.3450  -15.9597   21.5104 N   0  0  0  0  0  0  0  0  0  0  0  0
    7.7624  -16.2541   22.8022 C   0  0  1  0  0  0  0  0  0  0  0  0
    7.8088  -17.7252   23.0570 C   0  0  0  0  0  0  0  0  0  0  0  0
    7.3494  -18.0779   24.4258 C   0  0  0  0  0  0  0  0  0  0  0  0
    6.9125  -17.2860   25.4570 C   0  0  0  0  0  0  0  0  0  0  0  0
    6.5982  -18.0555   26.5196 N   0  0  0  0  0  0  0  0  0  0  0  0
    6.8279  -19.3186   26.1801 C   0  0  0  0  0  0  0  0  0  0  0  0
    7.2810  -19.3489   24.9210 N   0  0  0  0  0  0  0  0  0  0  0  0
    8.3956  -15.4228   23.8135 C   0  0  0  0  0  0  0  0  0  0  0  0
    9.6268  -15.1871   23.7384 O   0  0  0  0  0  0  0  0  0  0  0  0
    6.3212  -13.2928   27.0357 C   0  0  0  0  0  0  0  0  0  0  0  0
    7.6382  -12.9293   26.4122 C   0  0  2  0  0  0  0  0  0  0  0  0
    7.4525  -11.9230   25.3043 C   0  0  0  0  0  0  0  0  0  0  0  0
    8.4262  -14.1414   25.9631 C   0  0  2  0  0  0  0  0  0  0  0  0
    7.7117  -14.8347   24.9178 N   0  0  0  0  0  0  0  0  0  0  0  0
    8.6723  -15.0009   27.1403 C   0  0  0  0  0  0  0  0  0  0  0  0
    9.5424  -14.6376   28.1565 O   0  0  0  0  0  0  0  0  0  0  0  0
    8.0905  -16.1239   27.2750 O   0  0  0  0  0  0  0  0  0  0  0  0
  2  1  1  1
  2  3  1  0
  4  5  1  0
  4  3  1  0
  5  6  2  0
  7  2  1  0
  7 10  1  0
  8  7  2  0
  9  5  1  0
 11 10  1  0
 12 13  1  0
 11 12  1  1
 13 17  1  0
 13 14  2  0
 14 15  1  0
 16 15  1  0
 17 16  2  0
 18 11  1  0
 19 18  2  0
 21 20  1  6
 21 23  1  0
 22 21  1  0
 23 24  1  6
 23 25  1  0
 24 18  1  0
 25 26  1  0
 27 25  2  0
M  END
$$$$
