EHV.pdb
     RDKit          3D

 27 27  0  0  1  0  0  0  0  0999 V2000
   11.9578  -17.1849   19.7284 N   0  0  0  0  0  0  0  0  0  0  0  0
   11.9073  -17.7244   21.0864 C   0  0  1  0  0  0  0  0  0  0  0  0
   13.2894  -18.1241   21.4952 C   0  0  0  0  0  0  0  0  0  0  0  0
   14.3416  -17.9135   20.4399 C   0  0  0  0  0  0  0  0  0  0  0  0
   15.4300  -18.9353   20.5706 C   0  0  0  0  0  0  0  0  0  0  0  0
   16.1622  -19.0262   21.5894 O   0  0  0  0  0  0  0  0  0  0  0  0
   11.3852  -16.6843   22.0221 C   0  0  0  0  0  0  0  0  0  0  0  0
   11.7238  -15.4802   22.0083 O   0  0  0  0  0  0  0  0  0  0  0  0
   15.6961  -19.8603   19.5491 O   0  0  0  0  0  0  0  0  0  0  0  0
   10.4211  -17.0273   23.0363 N   0  0  0  0  0  0  0  0  0  0  0  0
    9.8240  -16.0129   23.8785 C   0  0  1  0  0  0  0  0  0  0  0  0
    8.3370  -16.0502   23.7421 C   0  0  0  0  0  0  0  0  0  0  0  0
    7.8645  -15.3785   22.5033 C   0  0  0  0  0  0  0  0  0  0  0  0
    8.5591  -14.7312   21.5135 C   0  0  0  0  0  0  0  0  0  0  0  0
    7.7000  -14.2761   20.5781 N   0  0  0  0  0  0  0  0  0  0  0  0
    6.4756  -14.6233   20.9575 C   0  0  0  0  0  0  0  0  0  0  0  0
    6.5579  -15.2886   22.1160 N   0  0  0  0  0  0  0  0  0  0  0  0
   10.3327  -16.1554   25.2334 C   0  0  0  0  0  0  0  0  0  0  0  0
   11.0229  -17.1609   25.5324 O   0  0  0  0  0  0  0  0  0  0  0  0
    8.9951  -13.7984   28.6244 C   0  0  0  0  0  0  0  0  0  0  0  0
   10.4328  -14.1989   28.4565 C   0  0  2  0  0  0  0  0  0  0  0  0
   11.2573  -13.0486   27.9357 C   0  0  0  0  0  0  0  0  0  0  0  0
   10.5967  -15.4502   27.6201 C   0  0  2  0  0  0  0  0  0  0  0  0
   10.1051  -15.2175   26.2829 N   0  0  0  0  0  0  0  0  0  0  0  0
    9.8878  -16.5585   28.2939 C   0  0  0  0  0  0  0  0  0  0  0  0
    8.7120  -17.0994   27.7972 O   0  0  0  0  0  0  0  0  0  0  0  0
   10.3296  -17.0710   29.3710 O   0  0  0  0  0  0  0  0  0  0  0  0
  2  1  1  6
  2  3  1  0
  4  5  1  0
  4  3  1  0
  5  6  2  0
  7  2  1  0
  7 10  1  0
  8  7  2  0
  9  5  1  0
 11 10  1  0
 12 13  1  0
 11 12  1  1
 13 17  1  0
 13 14  2  0
 14 15  1  0
 16 15  1  0
 17 16  2  0
 18 11  1  0
 19 18  2  0
 21 20  1  6
 21 23  1  0
 22 21  1  0
 23 24  1  6
 23 25  1  0
 24 18  1  0
 25 26  1  0
 27 25  2  0
M  END
$$$$
