EHV.pdb
     RDKit          3D

 27 27  0  0  1  0  0  0  0  0999 V2000
   11.7262  -16.6914   19.6858 N   0  0  0  0  0  0  0  0  0  0  0  0
   11.1891  -17.4326   20.8259 C   0  0  1  0  0  0  0  0  0  0  0  0
   12.2503  -18.3503   21.3442 C   0  0  0  0  0  0  0  0  0  0  0  0
   13.5493  -17.6746   21.6919 C   0  0  0  0  0  0  0  0  0  0  0  0
   14.5889  -18.6897   22.0585 C   0  0  0  0  0  0  0  0  0  0  0  0
   15.4616  -19.0962   21.2489 O   0  0  0  0  0  0  0  0  0  0  0  0
   10.7792  -16.4781   21.8987 C   0  0  0  0  0  0  0  0  0  0  0  0
   11.3425  -15.3860   22.1328 O   0  0  0  0  0  0  0  0  0  0  0  0
   14.6472  -19.2508   23.3438 O   0  0  0  0  0  0  0  0  0  0  0  0
    9.6638  -16.7773   22.7601 N   0  0  0  0  0  0  0  0  0  0  0  0
    9.1564  -15.7994   23.6988 C   0  0  1  0  0  0  0  0  0  0  0  0
    7.6639  -15.8523   23.7304 C   0  0  0  0  0  0  0  0  0  0  0  0
    7.0808  -14.8463   24.6560 C   0  0  0  0  0  0  0  0  0  0  0  0
    7.0965  -13.4754   24.6158 C   0  0  0  0  0  0  0  0  0  0  0  0
    6.4304  -12.9816   25.6801 N   0  0  0  0  0  0  0  0  0  0  0  0
    5.9936  -14.0139   26.3922 C   0  0  0  0  0  0  0  0  0  0  0  0
    6.3775  -15.1450   25.7881 N   0  0  0  0  0  0  0  0  0  0  0  0
    9.8170  -15.9796   24.9817 C   0  0  0  0  0  0  0  0  0  0  0  0
   10.3539  -17.0823   25.2515 O   0  0  0  0  0  0  0  0  0  0  0  0
   10.3052  -12.7816   27.6802 C   0  0  0  0  0  0  0  0  0  0  0  0
   10.1428  -14.1581   28.2583 C   0  0  2  0  0  0  0  0  0  0  0  0
   10.8899  -14.2887   29.5619 C   0  0  0  0  0  0  0  0  0  0  0  0
   10.5046  -15.2510   27.2752 C   0  0  2  0  0  0  0  0  0  0  0  0
    9.9081  -14.9754   25.9898 N   0  0  0  0  0  0  0  0  0  0  0  0
   10.0624  -16.5464   27.8333 C   0  0  0  0  0  0  0  0  0  0  0  0
   10.9151  -17.3818   28.5380 O   0  0  0  0  0  0  0  0  0  0  0  0
    8.8669  -16.9568   27.6904 O   0  0  0  0  0  0  0  0  0  0  0  0
  2  1  1  6
  2  3  1  0
  4  5  1  0
  4  3  1  0
  5  6  2  0
  7  2  1  0
  7 10  1  0
  8  7  2  0
  9  5  1  0
 11 10  1  0
 12 13  1  0
 11 12  1  1
 13 17  1  0
 13 14  2  0
 14 15  1  0
 16 15  1  0
 17 16  2  0
 18 11  1  0
 19 18  2  0
 21 20  1  6
 21 23  1  0
 22 21  1  0
 23 24  1  6
 23 25  1  0
 24 18  1  0
 25 26  1  0
 27 25  2  0
M  END
$$$$
