EHV.pdb
     RDKit          3D

 27 27  0  0  1  0  0  0  0  0999 V2000
    9.5304  -16.8739   19.5340 N   0  0  0  0  0  0  0  0  0  0  0  0
   10.4496  -16.9777   20.6663 C   0  0  1  0  0  0  0  0  0  0  0  0
   11.4692  -15.8888   20.5575 C   0  0  0  0  0  0  0  0  0  0  0  0
   12.5556  -16.1450   19.5480 C   0  0  0  0  0  0  0  0  0  0  0  0
   13.5086  -14.9896   19.4959 C   0  0  0  0  0  0  0  0  0  0  0  0
   13.3439  -14.0027   18.7335 O   0  0  0  0  0  0  0  0  0  0  0  0
    9.6916  -16.8335   21.9447 C   0  0  0  0  0  0  0  0  0  0  0  0
    8.7990  -15.9817   22.1506 O   0  0  0  0  0  0  0  0  0  0  0  0
   14.6536  -14.9442   20.3064 O   0  0  0  0  0  0  0  0  0  0  0  0
    9.9599  -17.7062   23.0592 N   0  0  0  0  0  0  0  0  0  0  0  0
    9.0909  -17.7356   24.2162 C   0  0  1  0  0  0  0  0  0  0  0  0
    9.1309  -19.0888   24.8474 C   0  0  0  0  0  0  0  0  0  0  0  0
    8.2490  -19.1841   26.0399 C   0  0  0  0  0  0  0  0  0  0  0  0
    7.3348  -18.2992   26.5522 C   0  0  0  0  0  0  0  0  0  0  0  0
    6.7670  -18.8216   27.6589 N   0  0  0  0  0  0  0  0  0  0  0  0
    7.3045  -20.0199   27.8561 C   0  0  0  0  0  0  0  0  0  0  0  0
    8.1996  -20.2531   26.8886 N   0  0  0  0  0  0  0  0  0  0  0  0
    9.4243  -16.6249   25.0938 C   0  0  0  0  0  0  0  0  0  0  0  0
   10.6128  -16.2250   25.1610 O   0  0  0  0  0  0  0  0  0  0  0  0
    6.7355  -13.6731   25.8452 C   0  0  0  0  0  0  0  0  0  0  0  0
    7.6182  -13.9620   27.0253 C   0  0  2  0  0  0  0  0  0  0  0  0
    7.9489  -12.6965   27.7760 C   0  0  0  0  0  0  0  0  0  0  0  0
    8.8558  -14.7493   26.6501 C   0  0  2  0  0  0  0  0  0  0  0  0
    8.4830  -15.9308   25.9093 N   0  0  0  0  0  0  0  0  0  0  0  0
    9.5964  -15.0730   27.8878 C   0  0  0  0  0  0  0  0  0  0  0  0
   10.4343  -14.1620   28.5120 O   0  0  0  0  0  0  0  0  0  0  0  0
    9.4967  -16.2139   28.4413 O   0  0  0  0  0  0  0  0  0  0  0  0
  2  1  1  6
  2  3  1  0
  4  5  1  0
  4  3  1  0
  5  6  2  0
  7  2  1  0
  7 10  1  0
  8  7  2  0
  9  5  1  0
 11 10  1  0
 12 13  1  0
 11 12  1  1
 13 17  1  0
 13 14  2  0
 14 15  1  0
 16 15  1  0
 17 16  2  0
 18 11  1  0
 19 18  2  0
 21 20  1  6
 21 23  1  0
 22 21  1  0
 23 24  1  1
 23 25  1  0
 24 18  1  0
 25 26  1  0
 27 25  2  0
M  END
$$$$
