EHV.pdb
     RDKit          3D

 27 27  0  0  1  0  0  0  0  0999 V2000
   12.8336  -15.3608   20.1138 N   0  0  0  0  0  0  0  0  0  0  0  0
   12.2322  -16.0420   21.2592 C   0  0  1  0  0  0  0  0  0  0  0  0
   13.3103  -16.3683   22.2433 C   0  0  0  0  0  0  0  0  0  0  0  0
   12.8545  -17.1759   23.4286 C   0  0  0  0  0  0  0  0  0  0  0  0
   13.5804  -18.4858   23.4833 C   0  0  0  0  0  0  0  0  0  0  0  0
   14.7612  -18.6296   23.0742 O   0  0  0  0  0  0  0  0  0  0  0  0
   11.2178  -15.1519   21.8984 C   0  0  0  0  0  0  0  0  0  0  0  0
   11.4693  -14.0377   22.4083 O   0  0  0  0  0  0  0  0  0  0  0  0
   12.9743  -19.6409   24.0014 O   0  0  0  0  0  0  0  0  0  0  0  0
    9.8338  -15.5465   21.9655 N   0  0  0  0  0  0  0  0  0  0  0  0
    8.8106  -14.6240   22.4092 C   0  0  1  0  0  0  0  0  0  0  0  0
    7.5606  -14.8333   21.6187 C   0  0  0  0  0  0  0  0  0  0  0  0
    7.6665  -14.2938   20.2378 C   0  0  0  0  0  0  0  0  0  0  0  0
    8.6833  -13.6156   19.6155 C   0  0  0  0  0  0  0  0  0  0  0  0
    8.3264  -13.3244   18.3475 N   0  0  0  0  0  0  0  0  0  0  0  0
    7.1035  -13.8055   18.1561 C   0  0  0  0  0  0  0  0  0  0  0  0
    6.6918  -14.3929   19.2862 N   0  0  0  0  0  0  0  0  0  0  0  0
    8.6643  -14.7293   23.8522 C   0  0  0  0  0  0  0  0  0  0  0  0
    9.2590  -15.6475   24.4688 O   0  0  0  0  0  0  0  0  0  0  0  0
    5.4814  -12.9412   26.1519 C   0  0  0  0  0  0  0  0  0  0  0  0
    6.8925  -12.9344   26.6659 C   0  0  2  0  0  0  0  0  0  0  0  0
    7.5251  -11.5765   26.4914 C   0  0  0  0  0  0  0  0  0  0  0  0
    7.7356  -14.0431   26.0726 C   0  0  2  0  0  0  0  0  0  0  0  0
    7.8767  -13.8477   24.6493 N   0  0  0  0  0  0  0  0  0  0  0  0
    7.1030  -15.3379   26.4016 C   0  0  0  0  0  0  0  0  0  0  0  0
    7.2397  -15.9371   27.6442 O   0  0  0  0  0  0  0  0  0  0  0  0
    6.3975  -15.9668   25.5504 O   0  0  0  0  0  0  0  0  0  0  0  0
  2  1  1  6
  2  3  1  0
  4  5  1  0
  4  3  1  0
  5  6  2  0
  7  2  1  0
  7 10  1  0
  8  7  2  0
  9  5  1  0
 11 10  1  0
 12 13  1  0
 11 12  1  6
 13 17  1  0
 13 14  2  0
 14 15  1  0
 16 15  1  0
 17 16  2  0
 18 11  1  0
 19 18  2  0
 21 20  1  6
 21 23  1  0
 22 21  1  0
 23 24  1  6
 23 25  1  0
 24 18  1  0
 25 26  1  0
 27 25  2  0
M  END
$$$$
