YMF.pdb
     RDKit          3D

 32 33  0  0  1  0  0  0  0  0999 V2000
   27.8816  -25.1938  -22.0345 O   0  0  0  0  0  0  0  0  0  0  0  0
   27.8619  -24.1602  -21.1013 C   0  0  0  0  0  0  0  0  0  0  0  0
   26.8821  -24.1255  -20.1300 C   0  0  0  0  0  0  0  0  0  0  0  0
   26.8454  -23.1033  -19.1902 C   0  0  0  0  0  0  0  0  0  0  0  0
   27.7705  -22.0999  -19.1902 C   0  0  0  0  0  0  0  0  0  0  0  0
   27.7750  -20.9786  -18.2039 C   0  0  0  0  0  0  0  0  0  0  0  0
   26.6392  -20.0430  -18.5503 C   0  0  2  0  0  0  0  0  0  0  0  0
   27.0573  -19.2032  -19.6446 N   0  0  0  0  0  0  0  0  0  0  0  0
   26.1342  -19.2889  -17.4010 C   0  0  0  0  0  0  0  0  0  0  0  0
   26.2270  -18.0291  -17.4237 O   0  0  0  0  0  0  0  0  0  0  0  0
   28.7597  -22.1383  -20.1739 C   0  0  0  0  0  0  0  0  0  0  0  0
   28.7945  -23.1539  -21.1062 C   0  0  0  0  0  0  0  0  0  0  0  0
   19.8427  -19.1009  -16.8747 C   0  0  0  0  0  0  0  0  0  0  0  0
   21.1438  -18.4330  -15.7933 S   0  0  0  0  0  0  0  0  0  0  0  0
   22.7844  -18.9782  -16.4082 C   0  0  0  0  0  0  0  0  0  0  0  0
   23.8090  -18.2317  -15.6129 C   0  0  0  0  0  0  0  0  0  0  0  0
   24.9744  -19.0848  -15.1744 C   0  0  2  0  0  0  0  0  0  0  0  0
   25.5371  -19.8520  -16.2387 N   0  0  0  0  0  0  0  0  0  0  0  0
   24.5091  -19.9448  -14.0584 C   0  0  0  0  0  0  0  0  0  0  0  0
   23.9930  -21.0714  -14.2283 O   0  0  0  0  0  0  0  0  0  0  0  0
   24.6460  -19.4871  -12.7171 N   0  0  0  0  0  0  0  0  0  0  0  0
   24.2883  -20.3572  -11.6049 C   0  0  1  0  0  0  0  0  0  0  0  0
   25.1945  -20.1914  -10.4435 C   0  0  0  0  0  0  0  0  0  0  0  0
   26.5863  -20.5348  -10.8249 C   0  0  0  0  0  0  0  0  0  0  0  0
   27.0105  -21.8477  -10.7685 C   0  0  0  0  0  0  0  0  0  0  0  0
   28.2829  -22.2003  -11.1406 C   0  0  0  0  0  0  0  0  0  0  0  0
   29.1888  -21.2656  -11.5847 C   0  0  0  0  0  0  0  0  0  0  0  0
   28.7584  -19.9595  -11.6382 C   0  0  0  0  0  0  0  0  0  0  0  0
   27.4875  -19.5892  -11.2694 C   0  0  0  0  0  0  0  0  0  0  0  0
   22.8962  -20.0616  -11.2282 C   0  0  0  0  0  0  0  0  0  0  0  0
   22.2299  -20.9166  -10.3288 O   0  0  0  0  0  0  0  0  0  0  0  0
   22.2204  -19.0796  -11.6508 O   0  0  0  0  0  0  0  0  0  0  0  0
  2  1  1  0
  3  2  2  0
  4  3  1  0
  5 11  1  0
  5  4  2  0
  6  5  1  0
  7  6  1  0
  7  8  1  6
  9  7  1  0
  9 10  2  0
 11 12  2  0
 12  2  1  0
 13 14  1  0
 14 15  1  0
 15 16  1  0
 17 16  1  6
 17 19  1  0
 17 18  1  0
 18  9  1  0
 19 20  2  0
 21 22  1  0
 21 19  1  0
 22 30  1  0
 22 23  1  1
 24 23  1  0
 25 24  2  0
 26 25  1  0
 27 26  2  0
 27 28  1  0
 28 29  2  0
 29 24  1  0
 30 31  1  0
 32 30  2  0
M  END
$$$$
