YMF.pdb
     RDKit          3D

 32 33  0  0  1  0  0  0  0  0999 V2000
   21.1448  -15.6793  -19.8810 O   0  0  0  0  0  0  0  0  0  0  0  0
   22.0202  -16.0895  -18.8785 C   0  0  0  0  0  0  0  0  0  0  0  0
   21.6355  -17.0670  -17.9833 C   0  0  0  0  0  0  0  0  0  0  0  0
   22.4942  -17.4899  -16.9767 C   0  0  0  0  0  0  0  0  0  0  0  0
   23.7435  -16.9593  -16.8342 C   0  0  0  0  0  0  0  0  0  0  0  0
   24.7038  -17.3777  -15.7698 C   0  0  0  0  0  0  0  0  0  0  0  0
   25.6690  -18.3731  -16.3720 C   0  0  2  0  0  0  0  0  0  0  0  0
   25.0897  -18.8946  -17.5843 N   0  0  0  0  0  0  0  0  0  0  0  0
   26.0899  -19.4169  -15.4349 C   0  0  0  0  0  0  0  0  0  0  0  0
   25.2679  -20.3333  -15.1507 O   0  0  0  0  0  0  0  0  0  0  0  0
   24.1290  -15.9712  -17.7413 C   0  0  0  0  0  0  0  0  0  0  0  0
   23.2751  -15.5525  -18.7400 C   0  0  0  0  0  0  0  0  0  0  0  0
   31.6008  -21.7103  -10.1282 C   0  0  0  0  0  0  0  0  0  0  0  0
   31.1890  -20.9779  -11.7414 S   0  0  0  0  0  0  0  0  0  0  0  0
   29.3724  -21.0417  -11.9920 C   0  0  0  0  0  0  0  0  0  0  0  0
   29.0884  -20.2940  -13.2569 C   0  0  0  0  0  0  0  0  0  0  0  0
   27.6258  -20.2665  -13.6285 C   0  0  2  0  0  0  0  0  0  0  0  0
   27.3616  -19.4980  -14.8022 N   0  0  0  0  0  0  0  0  0  0  0  0
   26.8718  -19.7611  -12.4548 C   0  0  0  0  0  0  0  0  0  0  0  0
   26.7190  -18.5444  -12.2084 O   0  0  0  0  0  0  0  0  0  0  0  0
   26.2827  -20.6878  -11.5485 N   0  0  0  0  0  0  0  0  0  0  0  0
   25.6244  -20.2134  -10.3387 C   0  0  1  0  0  0  0  0  0  0  0  0
   24.4134  -19.4103  -10.6321 C   0  0  0  0  0  0  0  0  0  0  0  0
   23.3929  -20.2482  -11.3081 C   0  0  0  0  0  0  0  0  0  0  0  0
   23.7271  -20.9533  -12.4472 C   0  0  0  0  0  0  0  0  0  0  0  0
   22.8132  -21.7579  -13.0791 C   0  0  0  0  0  0  0  0  0  0  0  0
   21.5287  -21.8973  -12.6079 C   0  0  0  0  0  0  0  0  0  0  0  0
   21.2033  -21.1915  -11.4721 C   0  0  0  0  0  0  0  0  0  0  0  0
   22.1066  -20.3814  -10.8268 C   0  0  0  0  0  0  0  0  0  0  0  0
   25.2869  -21.3871   -9.5167 C   0  0  0  0  0  0  0  0  0  0  0  0
   24.6412  -21.1984   -8.2792 O   0  0  0  0  0  0  0  0  0  0  0  0
   25.5307  -22.5885   -9.8279 O   0  0  0  0  0  0  0  0  0  0  0  0
  2  1  1  0
  3  2  2  0
  4  3  1  0
  5 11  1  0
  5  4  2  0
  6  5  1  0
  7  6  1  0
  7  8  1  6
  9  7  1  0
  9 10  2  0
 11 12  2  0
 12  2  1  0
 13 14  1  0
 14 15  1  0
 15 16  1  0
 17 16  1  1
 17 19  1  0
 17 18  1  0
 18  9  1  0
 19 20  2  0
 21 22  1  0
 21 19  1  0
 22 30  1  0
 22 23  1  6
 24 23  1  0
 25 24  2  0
 26 25  1  0
 27 26  2  0
 27 28  1  0
 28 29  2  0
 29 24  1  0
 30 31  1  0
 32 30  2  0
M  END
$$$$
