YMF.pdb
     RDKit          3D

 32 33  0  0  1  0  0  0  0  0999 V2000
   17.3268  -17.9918  -22.2968 O   0  0  0  0  0  0  0  0  0  0  0  0
   17.8882  -17.0182  -21.4743 C   0  0  0  0  0  0  0  0  0  0  0  0
   17.1998  -16.5710  -20.3648 C   0  0  0  0  0  0  0  0  0  0  0  0
   17.7427  -15.6008  -19.5320 C   0  0  0  0  0  0  0  0  0  0  0  0
   18.9696  -15.0554  -19.7763 C   0  0  0  0  0  0  0  0  0  0  0  0
   19.5971  -14.0100  -18.9139 C   0  0  0  0  0  0  0  0  0  0  0  0
   20.8125  -14.6157  -18.2497 C   0  0  2  0  0  0  0  0  0  0  0  0
   20.4033  -15.8061  -17.5476 N   0  0  0  0  0  0  0  0  0  0  0  0
   21.5483  -13.6701  -17.4076 C   0  0  0  0  0  0  0  0  0  0  0  0
   21.0687  -13.3772  -16.2761 O   0  0  0  0  0  0  0  0  0  0  0  0
   19.6626  -15.5100  -20.8992 C   0  0  0  0  0  0  0  0  0  0  0  0
   19.1221  -16.4733  -21.7249 C   0  0  0  0  0  0  0  0  0  0  0  0
   28.2854  -10.1494  -15.3047 C   0  0  0  0  0  0  0  0  0  0  0  0
   27.3900  -11.2394  -16.4530 S   0  0  0  0  0  0  0  0  0  0  0  0
   25.5839  -11.0046  -16.2305 C   0  0  0  0  0  0  0  0  0  0  0  0
   24.9108  -12.0545  -17.0577 C   0  0  0  0  0  0  0  0  0  0  0  0
   23.4048  -12.0271  -16.9621 C   0  0  2  0  0  0  0  0  0  0  0  0
   22.7762  -13.0381  -17.7500 N   0  0  0  0  0  0  0  0  0  0  0  0
   22.9532  -10.6666  -17.3450 C   0  0  0  0  0  0  0  0  0  0  0  0
   22.7645  -10.3135  -18.5299 O   0  0  0  0  0  0  0  0  0  0  0  0
   22.7155   -9.6960  -16.3307 N   0  0  0  0  0  0  0  0  0  0  0  0
   22.1669   -8.3918  -16.6775 C   0  0  1  0  0  0  0  0  0  0  0  0
   20.9235   -8.4964  -17.4778 C   0  0  0  0  0  0  0  0  0  0  0  0
   20.3918   -7.1449  -17.7797 C   0  0  0  0  0  0  0  0  0  0  0  0
   19.3308   -6.6449  -17.0510 C   0  0  0  0  0  0  0  0  0  0  0  0
   18.8347   -5.3882  -17.2882 C   0  0  0  0  0  0  0  0  0  0  0  0
   19.3700   -4.5737  -18.2586 C   0  0  0  0  0  0  0  0  0  0  0  0
   20.4272   -5.0791  -18.9804 C   0  0  0  0  0  0  0  0  0  0  0  0
   20.9364   -6.3355  -18.7555 C   0  0  0  0  0  0  0  0  0  0  0  0
   21.9228   -7.6559  -15.4260 C   0  0  0  0  0  0  0  0  0  0  0  0
   22.1236   -8.3077  -14.1937 O   0  0  0  0  0  0  0  0  0  0  0  0
   21.5369   -6.4538  -15.3516 O   0  0  0  0  0  0  0  0  0  0  0  0
  2  1  1  0
  3  2  2  0
  4  3  1  0
  5 11  1  0
  5  4  2  0
  6  5  1  0
  7  6  1  0
  7  8  1  1
  9  7  1  0
  9 10  2  0
 11 12  2  0
 12  2  1  0
 13 14  1  0
 14 15  1  0
 15 16  1  0
 17 16  1  6
 17 19  1  0
 17 18  1  0
 18  9  1  0
 19 20  2  0
 21 22  1  0
 21 19  1  0
 22 30  1  0
 22 23  1  1
 24 23  1  0
 25 24  2  0
 26 25  1  0
 27 26  2  0
 27 28  1  0
 28 29  2  0
 29 24  1  0
 30 31  1  0
 32 30  2  0
M  END
$$$$
