YMF.pdb
     RDKit          3D

 32 33  0  0  1  0  0  0  0  0999 V2000
   24.8418  -12.9821  -22.0564 O   0  0  0  0  0  0  0  0  0  0  0  0
   24.6042  -13.9998  -21.1357 C   0  0  0  0  0  0  0  0  0  0  0  0
   25.1629  -13.9349  -19.8754 C   0  0  0  0  0  0  0  0  0  0  0  0
   24.9377  -14.9396  -18.9430 C   0  0  0  0  0  0  0  0  0  0  0  0
   24.1605  -16.0229  -19.2344 C   0  0  0  0  0  0  0  0  0  0  0  0
   23.8882  -17.1296  -18.2693 C   0  0  0  0  0  0  0  0  0  0  0  0
   25.1502  -17.9492  -18.1253 C   0  0  2  0  0  0  0  0  0  0  0  0
   25.3879  -18.6429  -19.3662 N   0  0  0  0  0  0  0  0  0  0  0  0
   25.1403  -18.8346  -16.9589 C   0  0  0  0  0  0  0  0  0  0  0  0
   24.4813  -19.9103  -17.0292 O   0  0  0  0  0  0  0  0  0  0  0  0
   23.5973  -16.0850  -20.5098 C   0  0  0  0  0  0  0  0  0  0  0  0
   23.8220  -15.0867  -21.4342 C   0  0  0  0  0  0  0  0  0  0  0  0
   25.9223  -22.2145  -10.7791 C   0  0  0  0  0  0  0  0  0  0  0  0
   26.4150  -21.3360  -12.2937 S   0  0  0  0  0  0  0  0  0  0  0  0
   26.1174  -19.5384  -12.0779 C   0  0  0  0  0  0  0  0  0  0  0  0
   26.4548  -18.8890  -13.3834 C   0  0  0  0  0  0  0  0  0  0  0  0
   25.5211  -19.2679  -14.5071 C   0  0  2  0  0  0  0  0  0  0  0  0
   25.8157  -18.5932  -15.7301 N   0  0  0  0  0  0  0  0  0  0  0  0
   24.1345  -19.0041  -14.0496 C   0  0  0  0  0  0  0  0  0  0  0  0
   23.7351  -17.8773  -13.6819 O   0  0  0  0  0  0  0  0  0  0  0  0
   23.1920  -20.0709  -14.0187 N   0  0  0  0  0  0  0  0  0  0  0  0
   21.8656  -19.8619  -13.4538 C   0  0  1  0  0  0  0  0  0  0  0  0
   20.8730  -19.4556  -14.4771 C   0  0  0  0  0  0  0  0  0  0  0  0
   20.8155  -20.4625  -15.5650 C   0  0  0  0  0  0  0  0  0  0  0  0
   21.5633  -20.2796  -16.7113 C   0  0  0  0  0  0  0  0  0  0  0  0
   21.5522  -21.2061  -17.7228 C   0  0  0  0  0  0  0  0  0  0  0  0
   20.7987  -22.3537  -17.6404 C   0  0  0  0  0  0  0  0  0  0  0  0
   20.0563  -22.5288  -16.4949 C   0  0  0  0  0  0  0  0  0  0  0  0
   20.0563  -21.6109  -15.4722 C   0  0  0  0  0  0  0  0  0  0  0  0
   21.4533  -21.1107  -12.7922 C   0  0  0  0  0  0  0  0  0  0  0  0
   20.2337  -21.1468  -12.0884 O   0  0  0  0  0  0  0  0  0  0  0  0
   22.1134  -22.1895  -12.7967 O   0  0  0  0  0  0  0  0  0  0  0  0
  2  1  1  0
  3  2  2  0
  4  3  1  0
  5 11  1  0
  5  4  2  0
  6  5  1  0
  7  6  1  0
  7  8  1  6
  9  7  1  0
  9 10  2  0
 11 12  2  0
 12  2  1  0
 13 14  1  0
 14 15  1  0
 15 16  1  0
 17 16  1  1
 17 19  1  0
 17 18  1  0
 18  9  1  0
 19 20  2  0
 21 22  1  0
 21 19  1  0
 22 30  1  0
 22 23  1  6
 24 23  1  0
 25 24  2  0
 26 25  1  0
 27 26  2  0
 27 28  1  0
 28 29  2  0
 29 24  1  0
 30 31  1  0
 32 30  2  0
M  END
$$$$
