YMF.pdb
     RDKit          3D

 32 33  0  0  1  0  0  0  0  0999 V2000
   12.9325   -7.5310  -23.7141 O   0  0  0  0  0  0  0  0  0  0  0  0
   14.1167   -7.5758  -22.9826 C   0  0  0  0  0  0  0  0  0  0  0  0
   15.0551   -8.5526  -23.2471 C   0  0  0  0  0  0  0  0  0  0  0  0
   16.2425   -8.6139  -22.5287 C   0  0  0  0  0  0  0  0  0  0  0  0
   16.5259   -7.7169  -21.5400 C   0  0  0  0  0  0  0  0  0  0  0  0
   17.7857   -7.7397  -20.7383 C   0  0  0  0  0  0  0  0  0  0  0  0
   18.7244   -6.7006  -21.3078 C   0  0  2  0  0  0  0  0  0  0  0  0
   19.4774   -7.3038  -22.3787 N   0  0  0  0  0  0  0  0  0  0  0  0
   19.5671   -6.0596  -20.2961 C   0  0  0  0  0  0  0  0  0  0  0  0
   20.6832   -6.5861  -20.0253 O   0  0  0  0  0  0  0  0  0  0  0  0
   15.5745   -6.7307  -21.2754 C   0  0  0  0  0  0  0  0  0  0  0  0
   14.3963   -6.6713  -21.9896 C   0  0  0  0  0  0  0  0  0  0  0  0
   21.0685    0.3434  -15.8132 C   0  0  0  0  0  0  0  0  0  0  0  0
   19.9981   -0.5157  -17.0069 S   0  0  0  0  0  0  0  0  0  0  0  0
   20.5640   -2.2514  -17.1914 C   0  0  0  0  0  0  0  0  0  0  0  0
   19.6831   -2.8811  -18.2244 C   0  0  0  0  0  0  0  0  0  0  0  0
   20.0683   -4.3003  -18.5646 C   0  0  2  0  0  0  0  0  0  0  0  0
   19.2413   -4.8768  -19.5754 N   0  0  0  0  0  0  0  0  0  0  0  0
   20.0382   -5.0893  -17.3084 C   0  0  0  0  0  0  0  0  0  0  0  0
   18.9801   -5.4794  -16.7674 O   0  0  0  0  0  0  0  0  0  0  0  0
   21.2622   -5.4326  -16.6672 N   0  0  0  0  0  0  0  0  0  0  0  0
   21.2573   -6.2814  -15.4833 C   0  0  1  0  0  0  0  0  0  0  0  0
   21.6458   -7.6791  -15.7883 C   0  0  0  0  0  0  0  0  0  0  0  0
   21.9452   -8.4140  -14.5350 C   0  0  0  0  0  0  0  0  0  0  0  0
   20.9229   -8.7292  -13.6619 C   0  0  0  0  0  0  0  0  0  0  0  0
   21.1642   -9.4317  -12.5086 C   0  0  0  0  0  0  0  0  0  0  0  0
   22.4300   -9.8515  -12.1722 C   0  0  0  0  0  0  0  0  0  0  0  0
   23.4433   -9.5335  -13.0474 C   0  0  0  0  0  0  0  0  0  0  0  0
   23.2190   -8.8308  -14.2068 C   0  0  0  0  0  0  0  0  0  0  0  0
   22.1741   -5.6873  -14.4964 C   0  0  0  0  0  0  0  0  0  0  0  0
   21.8259   -5.7108  -13.1318 O   0  0  0  0  0  0  0  0  0  0  0  0
   23.2813   -5.1398  -14.7684 O   0  0  0  0  0  0  0  0  0  0  0  0
  2  1  1  0
  3  2  2  0
  4  3  1  0
  5 11  1  0
  5  4  2  0
  6  5  1  0
  7  6  1  0
  7  8  1  6
  9  7  1  0
  9 10  2  0
 11 12  2  0
 12  2  1  0
 13 14  1  0
 14 15  1  0
 15 16  1  0
 17 16  1  1
 17 19  1  0
 17 18  1  0
 18  9  1  0
 19 20  2  0
 21 22  1  0
 21 19  1  0
 22 30  1  0
 22 23  1  6
 24 23  1  0
 25 24  2  0
 26 25  1  0
 27 26  2  0
 27 28  1  0
 28 29  2  0
 29 24  1  0
 30 31  1  0
 32 30  2  0
M  END
$$$$
