YMF.pdb
     RDKit          3D

 32 33  0  0  1  0  0  0  0  0999 V2000
   17.4668  -21.0798  -29.2720 O   0  0  0  0  0  0  0  0  0  0  0  0
   17.5593  -20.9019  -27.8938 C   0  0  0  0  0  0  0  0  0  0  0  0
   18.0597  -19.7218  -27.3821 C   0  0  0  0  0  0  0  0  0  0  0  0
   18.1598  -19.5250  -26.0107 C   0  0  0  0  0  0  0  0  0  0  0  0
   17.7698  -20.4840  -25.1214 C   0  0  0  0  0  0  0  0  0  0  0  0
   17.8575  -20.3229  -23.6393 C   0  0  0  0  0  0  0  0  0  0  0  0
   19.2799  -20.6138  -23.2180 C   0  0  2  0  0  0  0  0  0  0  0  0
   19.5338  -22.0198  -23.4084 N   0  0  0  0  0  0  0  0  0  0  0  0
   19.5946  -20.1457  -21.8665 C   0  0  0  0  0  0  0  0  0  0  0  0
   19.3425  -20.9114  -20.8937 O   0  0  0  0  0  0  0  0  0  0  0  0
   17.2644  -21.6759  -25.6426 C   0  0  0  0  0  0  0  0  0  0  0  0
   17.1658  -21.8696  -27.0045 C   0  0  0  0  0  0  0  0  0  0  0  0
   24.0156  -18.5140  -19.0376 C   0  0  0  0  0  0  0  0  0  0  0  0
   22.5695  -18.1490  -17.9965 S   0  0  0  0  0  0  0  0  0  0  0  0
   21.6103  -16.7770  -18.7479 C   0  0  0  0  0  0  0  0  0  0  0  0
   21.2742  -17.2034  -20.1424 C   0  0  0  0  0  0  0  0  0  0  0  0
   20.3991  -18.4315  -20.2056 C   0  0  2  0  0  0  0  0  0  0  0  0
   20.1688  -18.8857  -21.5392 N   0  0  0  0  0  0  0  0  0  0  0  0
   19.1314  -18.1187  -19.5009 C   0  0  0  0  0  0  0  0  0  0  0  0
   18.3672  -17.1891  -19.8419 O   0  0  0  0  0  0  0  0  0  0  0  0
   18.7430  -18.9017  -18.3770 N   0  0  0  0  0  0  0  0  0  0  0  0
   17.5069  -18.6027  -17.6665 C   0  0  1  0  0  0  0  0  0  0  0  0
   16.3561  -19.3822  -18.1818 C   0  0  0  0  0  0  0  0  0  0  0  0
   16.5109  -20.8163  -17.8357 C   0  0  0  0  0  0  0  0  0  0  0  0
   16.9283  -21.7145  -18.7978 C   0  0  0  0  0  0  0  0  0  0  0  0
   17.1070  -23.0419  -18.5013 C   0  0  0  0  0  0  0  0  0  0  0  0
   16.8793  -23.5349  -17.2378 C   0  0  0  0  0  0  0  0  0  0  0  0
   16.4637  -22.6335  -16.2845 C   0  0  0  0  0  0  0  0  0  0  0  0
   16.2800  -21.3007  -16.5645 C   0  0  0  0  0  0  0  0  0  0  0  0
   17.7277  -18.8791  -16.2374 C   0  0  0  0  0  0  0  0  0  0  0  0
   16.6710  -18.6831  -15.3270 O   0  0  0  0  0  0  0  0  0  0  0  0
   18.8131  -19.2893  -15.7344 O   0  0  0  0  0  0  0  0  0  0  0  0
  2  1  1  0
  3  2  2  0
  4  3  1  0
  5 11  1  0
  5  4  2  0
  6  5  1  0
  7  6  1  0
  7  8  1  1
  9  7  1  0
  9 10  2  0
 11 12  2  0
 12  2  1  0
 13 14  1  0
 14 15  1  0
 15 16  1  0
 17 16  1  6
 17 19  1  0
 17 18  1  0
 18  9  1  0
 19 20  2  0
 21 22  1  0
 21 19  1  0
 22 30  1  0
 22 23  1  6
 24 23  1  0
 25 24  2  0
 26 25  1  0
 27 26  2  0
 27 28  1  0
 28 29  2  0
 29 24  1  0
 30 31  1  0
 32 30  2  0
M  END
$$$$
