YMF.pdb
     RDKit          3D

 32 33  0  0  1  0  0  0  0  0999 V2000
   30.8948  -16.4770  -19.5217 O   0  0  0  0  0  0  0  0  0  0  0  0
   29.9277  -17.1873  -18.8146 C   0  0  0  0  0  0  0  0  0  0  0  0
   29.3103  -18.2772  -19.3941 C   0  0  0  0  0  0  0  0  0  0  0  0
   28.3436  -18.9987  -18.7053 C   0  0  0  0  0  0  0  0  0  0  0  0
   27.9688  -18.6607  -17.4372 C   0  0  0  0  0  0  0  0  0  0  0  0
   26.9353  -19.4018  -16.6546 C   0  0  0  0  0  0  0  0  0  0  0  0
   27.6466  -20.3322  -15.6988 C   0  0  2  0  0  0  0  0  0  0  0  0
   28.2751  -21.3794  -16.4641 N   0  0  0  0  0  0  0  0  0  0  0  0
   26.7860  -20.8350  -14.6259 C   0  0  0  0  0  0  0  0  0  0  0  0
   26.0518  -21.8347  -14.8660 O   0  0  0  0  0  0  0  0  0  0  0  0
   28.5953  -17.5580  -16.8547 C   0  0  0  0  0  0  0  0  0  0  0  0
   29.5549  -16.8428  -17.5400 C   0  0  0  0  0  0  0  0  0  0  0  0
   26.5109  -21.3123   -7.3441 C   0  0  0  0  0  0  0  0  0  0  0  0
   25.6814  -20.0094   -8.3047 S   0  0  0  0  0  0  0  0  0  0  0  0
   25.1083  -20.7043   -9.9033 C   0  0  0  0  0  0  0  0  0  0  0  0
   26.0564  -20.2088  -10.9497 C   0  0  0  0  0  0  0  0  0  0  0  0
   25.7385  -20.7060  -12.3389 C   0  0  2  0  0  0  0  0  0  0  0  0
   26.6969  -20.2935  -13.3132 N   0  0  0  0  0  0  0  0  0  0  0  0
   24.3696  -20.2464  -12.6801 C   0  0  0  0  0  0  0  0  0  0  0  0
   24.0925  -19.0581  -12.9554 O   0  0  0  0  0  0  0  0  0  0  0  0
   23.3002  -21.1861  -12.7022 N   0  0  0  0  0  0  0  0  0  0  0  0
   21.9668  -20.7705  -13.1162 C   0  0  1  0  0  0  0  0  0  0  0  0
   21.7072  -21.0491  -14.5488 C   0  0  0  0  0  0  0  0  0  0  0  0
   20.3308  -20.6320  -14.9120 C   0  0  0  0  0  0  0  0  0  0  0  0
   19.3307  -21.5783  -15.0163 C   0  0  0  0  0  0  0  0  0  0  0  0
   18.0425  -21.2205  -15.3237 C   0  0  0  0  0  0  0  0  0  0  0  0
   17.6916  -19.9086  -15.5406 C   0  0  0  0  0  0  0  0  0  0  0  0
   18.6938  -18.9714  -15.4348 C   0  0  0  0  0  0  0  0  0  0  0  0
   19.9890  -19.3127  -15.1275 C   0  0  0  0  0  0  0  0  0  0  0  0
   20.9900  -21.4669  -12.2628 C   0  0  0  0  0  0  0  0  0  0  0  0
   19.9319  -20.7354  -11.6892 O   0  0  0  0  0  0  0  0  0  0  0  0
   21.0130  -22.7011  -11.9875 O   0  0  0  0  0  0  0  0  0  0  0  0
  2  1  1  0
  3  2  2  0
  4  3  1  0
  5 11  1  0
  5  4  2  0
  6  5  1  0
  7  6  1  0
  7  8  1  6
  9  7  1  0
  9 10  2  0
 11 12  2  0
 12  2  1  0
 13 14  1  0
 14 15  1  0
 15 16  1  0
 17 16  1  1
 17 19  1  0
 17 18  1  0
 18  9  1  0
 19 20  2  0
 21 22  1  0
 21 19  1  0
 22 30  1  0
 22 23  1  6
 24 23  1  0
 25 24  2  0
 26 25  1  0
 27 26  2  0
 27 28  1  0
 28 29  2  0
 29 24  1  0
 30 31  1  0
 32 30  2  0
M  END
$$$$
