YMF.pdb
     RDKit          3D

 32 33  0  0  1  0  0  0  0  0999 V2000
   29.7686  -16.2642  -18.2826 O   0  0  0  0  0  0  0  0  0  0  0  0
   28.9299  -17.0744  -17.5211 C   0  0  0  0  0  0  0  0  0  0  0  0
   28.5251  -16.6637  -16.2672 C   0  0  0  0  0  0  0  0  0  0  0  0
   27.6887  -17.4573  -15.4924 C   0  0  0  0  0  0  0  0  0  0  0  0
   27.2373  -18.6659  -15.9375 C   0  0  0  0  0  0  0  0  0  0  0  0
   26.3386  -19.5567  -15.1444 C   0  0  0  0  0  0  0  0  0  0  0  0
   27.2024  -20.5126  -14.3536 C   0  0  2  0  0  0  0  0  0  0  0  0
   27.7778  -21.4688  -15.2657 N   0  0  0  0  0  0  0  0  0  0  0  0
   26.5030  -21.1341  -13.2270 C   0  0  0  0  0  0  0  0  0  0  0  0
   25.8217  -22.1753  -13.4460 O   0  0  0  0  0  0  0  0  0  0  0  0
   27.6488  -19.0778  -17.2059 C   0  0  0  0  0  0  0  0  0  0  0  0
   28.4792  -18.2886  -17.9737 C   0  0  0  0  0  0  0  0  0  0  0  0
   26.3935  -20.1718   -6.5117 C   0  0  0  0  0  0  0  0  0  0  0  0
   27.8532  -20.3318   -7.5851 S   0  0  0  0  0  0  0  0  0  0  0  0
   27.3744  -21.1809   -9.1397 C   0  0  0  0  0  0  0  0  0  0  0  0
   26.0028  -20.6942   -9.4881 C   0  0  0  0  0  0  0  0  0  0  0  0
   25.5704  -21.0541  -10.8886 C   0  0  2  0  0  0  0  0  0  0  0  0
   26.5187  -20.6672  -11.8831 N   0  0  0  0  0  0  0  0  0  0  0  0
   24.2409  -20.4383  -11.1225 C   0  0  0  0  0  0  0  0  0  0  0  0
   23.9976  -19.2292  -10.9139 O   0  0  0  0  0  0  0  0  0  0  0  0
   23.1718  -21.2430  -11.6087 N   0  0  0  0  0  0  0  0  0  0  0  0
   21.8992  -20.6325  -11.9693 C   0  0  1  0  0  0  0  0  0  0  0  0
   22.0521  -19.5671  -12.9885 C   0  0  0  0  0  0  0  0  0  0  0  0
   22.6702  -20.1185  -14.2191 C   0  0  0  0  0  0  0  0  0  0  0  0
   22.6382  -21.4788  -14.4543 C   0  0  0  0  0  0  0  0  0  0  0  0
   23.1769  -22.0158  -15.5960 C   0  0  0  0  0  0  0  0  0  0  0  0
   23.7703  -21.2262  -16.5530 C   0  0  0  0  0  0  0  0  0  0  0  0
   23.7981  -19.8716  -16.3114 C   0  0  0  0  0  0  0  0  0  0  0  0
   23.2631  -19.3174  -15.1734 C   0  0  0  0  0  0  0  0  0  0  0  0
   21.0076  -21.6980  -12.4563 C   0  0  0  0  0  0  0  0  0  0  0  0
   19.6691  -21.3876  -12.7661 O   0  0  0  0  0  0  0  0  0  0  0  0
   21.3422  -22.9055  -12.6281 O   0  0  0  0  0  0  0  0  0  0  0  0
  2  1  1  0
  3  2  2  0
  4  3  1  0
  5 11  1  0
  5  4  2  0
  6  5  1  0
  7  6  1  0
  7  8  1  6
  9  7  1  0
  9 10  2  0
 11 12  2  0
 12  2  1  0
 13 14  1  0
 14 15  1  0
 15 16  1  0
 17 16  1  1
 17 19  1  0
 17 18  1  0
 18  9  1  0
 19 20  2  0
 21 22  1  0
 21 19  1  0
 22 30  1  0
 22 23  1  6
 24 23  1  0
 25 24  2  0
 26 25  1  0
 27 26  2  0
 27 28  1  0
 28 29  2  0
 29 24  1  0
 30 31  1  0
 32 30  2  0
M  END
$$$$
