YMF.pdb
     RDKit          3D

 32 33  0  0  1  0  0  0  0  0999 V2000
   28.6853  -14.4401  -17.7993 O   0  0  0  0  0  0  0  0  0  0  0  0
   27.9997  -15.4726  -17.1642 C   0  0  0  0  0  0  0  0  0  0  0  0
   27.8224  -15.4444  -15.7958 C   0  0  0  0  0  0  0  0  0  0  0  0
   27.1413  -16.4645  -15.1438 C   0  0  0  0  0  0  0  0  0  0  0  0
   26.6241  -17.5274  -15.8260 C   0  0  0  0  0  0  0  0  0  0  0  0
   25.8854  -18.6493  -15.1733 C   0  0  0  0  0  0  0  0  0  0  0  0
   26.8975  -19.6719  -14.7094 C   0  0  2  0  0  0  0  0  0  0  0  0
   27.4916  -20.2853  -15.8705 N   0  0  0  0  0  0  0  0  0  0  0  0
   26.3519  -20.6412  -13.7568 C   0  0  0  0  0  0  0  0  0  0  0  0
   25.6977  -21.6226  -14.2096 O   0  0  0  0  0  0  0  0  0  0  0  0
   26.8055  -17.5525  -17.2095 C   0  0  0  0  0  0  0  0  0  0  0  0
   27.4820  -16.5389  -17.8551 C   0  0  0  0  0  0  0  0  0  0  0  0
   27.1882  -20.1952   -7.4828 C   0  0  0  0  0  0  0  0  0  0  0  0
   25.5594  -20.9894   -7.3257 S   0  0  0  0  0  0  0  0  0  0  0  0
   24.8788  -21.3168   -8.9979 C   0  0  0  0  0  0  0  0  0  0  0  0
   25.8916  -20.8136   -9.9781 C   0  0  0  0  0  0  0  0  0  0  0  0
   25.5147  -21.0606  -11.4186 C   0  0  2  0  0  0  0  0  0  0  0  0
   26.4918  -20.5809  -12.3422 N   0  0  0  0  0  0  0  0  0  0  0  0
   24.1853  -20.4433  -11.6491 C   0  0  0  0  0  0  0  0  0  0  0  0
   23.9632  -19.2198  -11.5138 O   0  0  0  0  0  0  0  0  0  0  0  0
   23.0910  -21.2636  -12.0453 N   0  0  0  0  0  0  0  0  0  0  0  0
   21.7571  -20.6935  -12.1781 C   0  0  1  0  0  0  0  0  0  0  0  0
   21.6046  -19.8950  -13.4177 C   0  0  0  0  0  0  0  0  0  0  0  0
   21.7318  -20.7683  -14.6101 C   0  0  0  0  0  0  0  0  0  0  0  0
   22.8986  -20.7581  -15.3484 C   0  0  0  0  0  0  0  0  0  0  0  0
   23.0565  -21.5740  -16.4398 C   0  0  0  0  0  0  0  0  0  0  0  0
   22.0636  -22.4350  -16.8453 C   0  0  0  0  0  0  0  0  0  0  0  0
   20.9039  -22.4394  -16.1043 C   0  0  0  0  0  0  0  0  0  0  0  0
   20.7294  -21.6289  -15.0084 C   0  0  0  0  0  0  0  0  0  0  0  0
   20.7865  -21.8000  -12.1462 C   0  0  0  0  0  0  0  0  0  0  0  0
   21.2544  -23.1230  -12.0257 O   0  0  0  0  0  0  0  0  0  0  0  0
   19.5306  -21.6693  -12.2193 O   0  0  0  0  0  0  0  0  0  0  0  0
  2  1  1  0
  3  2  2  0
  4  3  1  0
  5 11  1  0
  5  4  2  0
  6  5  1  0
  7  6  1  0
  7  8  1  6
  9  7  1  0
  9 10  2  0
 11 12  2  0
 12  2  1  0
 13 14  1  0
 14 15  1  0
 15 16  1  0
 17 16  1  1
 17 19  1  0
 17 18  1  0
 18  9  1  0
 19 20  2  0
 21 22  1  0
 21 19  1  0
 22 30  1  0
 22 23  1  6
 24 23  1  0
 25 24  2  0
 26 25  1  0
 27 26  2  0
 27 28  1  0
 28 29  2  0
 29 24  1  0
 30 31  1  0
 32 30  2  0
M  END
$$$$
