YMF.pdb
     RDKit          3D

 32 33  0  0  1  0  0  0  0  0999 V2000
   24.0043  -10.2484  -14.8897 O   0  0  0  0  0  0  0  0  0  0  0  0
   22.9333   -9.5009  -14.4061 C   0  0  0  0  0  0  0  0  0  0  0  0
   22.0774   -8.8712  -15.2869 C   0  0  0  0  0  0  0  0  0  0  0  0
   21.0035   -8.1213  -14.8245 C   0  0  0  0  0  0  0  0  0  0  0  0
   20.7540   -7.9787  -13.4903 C   0  0  0  0  0  0  0  0  0  0  0  0
   19.6150   -7.1836  -12.9418 C   0  0  0  0  0  0  0  0  0  0  0  0
   18.6441   -8.1412  -12.2894 C   0  0  2  0  0  0  0  0  0  0  0  0
   18.2580   -9.1326  -13.2617 N   0  0  0  0  0  0  0  0  0  0  0  0
   17.5038   -7.4743  -11.6572 C   0  0  0  0  0  0  0  0  0  0  0  0
   16.5411   -7.1106  -12.3901 O   0  0  0  0  0  0  0  0  0  0  0  0
   21.6217   -8.6168  -12.6028 C   0  0  0  0  0  0  0  0  0  0  0  0
   22.6874   -9.3609  -13.0637 C   0  0  0  0  0  0  0  0  0  0  0  0
   12.1911   -8.1767   -7.8092 C   0  0  0  0  0  0  0  0  0  0  0  0
   13.7197   -9.1469   -7.9848 S   0  0  0  0  0  0  0  0  0  0  0  0
   14.7530   -8.4180   -9.3144 C   0  0  0  0  0  0  0  0  0  0  0  0
   15.4944   -7.2721   -8.7004 C   0  0  0  0  0  0  0  0  0  0  0  0
   16.2897   -6.4629   -9.6958 C   0  0  2  0  0  0  0  0  0  0  0  0
   17.3752   -7.1919  -10.2687 N   0  0  0  0  0  0  0  0  0  0  0  0
   16.7515   -5.2312   -9.0093 C   0  0  0  0  0  0  0  0  0  0  0  0
   17.6445   -5.2265   -8.1335 O   0  0  0  0  0  0  0  0  0  0  0  0
   16.1642   -3.9789   -9.3470 N   0  0  0  0  0  0  0  0  0  0  0  0
   16.6156   -2.7571   -8.6944 C   0  0  1  0  0  0  0  0  0  0  0  0
   17.5407   -1.9709   -9.5449 C   0  0  0  0  0  0  0  0  0  0  0  0
   16.8577   -1.5476  -10.7918 C   0  0  0  0  0  0  0  0  0  0  0  0
   16.1976   -0.3356  -10.8367 C   0  0  0  0  0  0  0  0  0  0  0  0
   15.5800    0.0956  -11.9832 C   0  0  0  0  0  0  0  0  0  0  0  0
   15.5908   -0.6572  -13.1341 C   0  0  0  0  0  0  0  0  0  0  0  0
   16.2507   -1.8637  -13.0814 C   0  0  0  0  0  0  0  0  0  0  0  0
   16.8747   -2.3105  -11.9414 C   0  0  0  0  0  0  0  0  0  0  0  0
   15.4255   -1.9643   -8.3447 C   0  0  0  0  0  0  0  0  0  0  0  0
   15.5872   -0.7494   -7.6505 O   0  0  0  0  0  0  0  0  0  0  0  0
   14.2323   -2.2825   -8.6181 O   0  0  0  0  0  0  0  0  0  0  0  0
  2  1  1  0
  3  2  2  0
  4  3  1  0
  5 11  1  0
  5  4  2  0
  6  5  1  0
  7  6  1  0
  7  8  1  6
  9  7  1  0
  9 10  2  0
 11 12  2  0
 12  2  1  0
 13 14  1  0
 14 15  1  0
 15 16  1  0
 17 16  1  1
 17 19  1  0
 17 18  1  0
 18  9  1  0
 19 20  2  0
 21 22  1  0
 21 19  1  0
 22 30  1  0
 22 23  1  6
 24 23  1  0
 25 24  2  0
 26 25  1  0
 27 26  2  0
 27 28  1  0
 28 29  2  0
 29 24  1  0
 30 31  1  0
 32 30  2  0
M  END
$$$$
