YMF.pdb
     RDKit          3D

 32 33  0  0  1  0  0  0  0  0999 V2000
   29.0899  -15.0221  -18.4003 O   0  0  0  0  0  0  0  0  0  0  0  0
   28.2849  -15.9511  -17.7455 C   0  0  0  0  0  0  0  0  0  0  0  0
   28.1272  -15.8842  -16.3761 C   0  0  0  0  0  0  0  0  0  0  0  0
   27.3285  -16.8012  -15.7047 C   0  0  0  0  0  0  0  0  0  0  0  0
   26.6728  -17.7975  -16.3681 C   0  0  0  0  0  0  0  0  0  0  0  0
   25.8040  -18.8080  -15.6942 C   0  0  0  0  0  0  0  0  0  0  0  0
   26.6961  -19.7638  -14.9353 C   0  0  2  0  0  0  0  0  0  0  0  0
   27.4799  -20.5100  -15.8873 N   0  0  0  0  0  0  0  0  0  0  0  0
   25.9688  -20.6138  -13.9901 C   0  0  0  0  0  0  0  0  0  0  0  0
   25.4673  -21.6917  -14.4175 O   0  0  0  0  0  0  0  0  0  0  0  0
   26.8348  -17.8619  -17.7528 C   0  0  0  0  0  0  0  0  0  0  0  0
   27.6282  -16.9507  -18.4177 C   0  0  0  0  0  0  0  0  0  0  0  0
   25.6530  -20.1373   -7.5698 C   0  0  0  0  0  0  0  0  0  0  0  0
   27.0587  -21.0528   -8.2728 S   0  0  0  0  0  0  0  0  0  0  0  0
   26.7224  -21.4209  -10.0386 C   0  0  0  0  0  0  0  0  0  0  0  0
   25.3074  -21.0095  -10.2996 C   0  0  0  0  0  0  0  0  0  0  0  0
   24.9120  -21.0901  -11.7539 C   0  0  2  0  0  0  0  0  0  0  0  0
   25.7700  -20.3349  -12.6092 N   0  0  0  0  0  0  0  0  0  0  0  0
   23.4984  -20.6523  -11.8619 C   0  0  0  0  0  0  0  0  0  0  0  0
   23.0966  -19.5288  -11.4867 O   0  0  0  0  0  0  0  0  0  0  0  0
   22.5313  -21.5375  -12.4172 N   0  0  0  0  0  0  0  0  0  0  0  0
   21.1597  -21.0912  -12.6210 C   0  0  1  0  0  0  0  0  0  0  0  0
   21.0774  -19.9013  -13.5013 C   0  0  0  0  0  0  0  0  0  0  0  0
   21.6237  -20.2169  -14.8438 C   0  0  0  0  0  0  0  0  0  0  0  0
   20.9315  -21.0648  -15.6857 C   0  0  0  0  0  0  0  0  0  0  0  0
   21.3971  -21.3542  -16.9432 C   0  0  0  0  0  0  0  0  0  0  0  0
   22.5693  -20.8148  -17.4192 C   0  0  0  0  0  0  0  0  0  0  0  0
   23.2532  -19.9708  -16.5744 C   0  0  0  0  0  0  0  0  0  0  0  0
   22.8009  -19.6702  -15.3120 C   0  0  0  0  0  0  0  0  0  0  0  0
   20.3972  -22.2153  -13.1888 C   0  0  0  0  0  0  0  0  0  0  0  0
   19.0028  -22.0922  -13.3451 O   0  0  0  0  0  0  0  0  0  0  0  0
   20.8935  -23.3173  -13.5614 O   0  0  0  0  0  0  0  0  0  0  0  0
  2  1  1  0
  3  2  2  0
  4  3  1  0
  5 11  1  0
  5  4  2  0
  6  5  1  0
  7  6  1  0
  7  8  1  6
  9  7  1  0
  9 10  2  0
 11 12  2  0
 12  2  1  0
 13 14  1  0
 14 15  1  0
 15 16  1  0
 17 16  1  1
 17 19  1  0
 17 18  1  0
 18  9  1  0
 19 20  2  0
 21 22  1  0
 21 19  1  0
 22 30  1  0
 22 23  1  6
 24 23  1  0
 25 24  2  0
 26 25  1  0
 27 26  2  0
 27 28  1  0
 28 29  2  0
 29 24  1  0
 30 31  1  0
 32 30  2  0
M  END
$$$$
