YMF.pdb
     RDKit          3D

 32 33  0  0  1  0  0  0  0  0999 V2000
   29.3033  -16.5532  -18.8127 O   0  0  0  0  0  0  0  0  0  0  0  0
   28.5706  -17.2538  -17.8578 C   0  0  0  0  0  0  0  0  0  0  0  0
   28.7311  -16.9670  -16.5174 C   0  0  0  0  0  0  0  0  0  0  0  0
   28.0095  -17.6544  -15.5497 C   0  0  0  0  0  0  0  0  0  0  0  0
   27.1195  -18.6335  -15.8840 C   0  0  0  0  0  0  0  0  0  0  0  0
   26.3206  -19.4022  -14.8835 C   0  0  0  0  0  0  0  0  0  0  0  0
   27.2386  -20.3999  -14.2149 C   0  0  2  0  0  0  0  0  0  0  0  0
   27.6534  -21.3687  -15.1982 N   0  0  0  0  0  0  0  0  0  0  0  0
   26.6641  -21.0050  -13.0114 C   0  0  0  0  0  0  0  0  0  0  0  0
   26.0056  -22.0760  -13.1355 O   0  0  0  0  0  0  0  0  0  0  0  0
   26.9600  -18.9207  -17.2404 C   0  0  0  0  0  0  0  0  0  0  0  0
   27.6773  -18.2373  -18.1997 C   0  0  0  0  0  0  0  0  0  0  0  0
   26.8130  -18.4233   -6.8369 C   0  0  0  0  0  0  0  0  0  0  0  0
   26.4453  -20.1882   -6.5948 S   0  0  0  0  0  0  0  0  0  0  0  0
   25.6354  -20.8526   -8.1013 C   0  0  0  0  0  0  0  0  0  0  0  0
   26.4305  -20.3573   -9.2684 C   0  0  0  0  0  0  0  0  0  0  0  0
   25.9579  -20.8978  -10.5960 C   0  0  2  0  0  0  0  0  0  0  0  0
   26.7799  -20.4907  -11.6899 N   0  0  0  0  0  0  0  0  0  0  0  0
   24.5467  -20.4771  -10.7777 C   0  0  0  0  0  0  0  0  0  0  0  0
   24.1925  -19.2808  -10.8661 O   0  0  0  0  0  0  0  0  0  0  0  0
   23.5257  -21.4661  -10.8587 N   0  0  0  0  0  0  0  0  0  0  0  0
   22.1285  -21.0704  -10.9745 C   0  0  1  0  0  0  0  0  0  0  0  0
   21.5445  -21.4359  -12.2870 C   0  0  0  0  0  0  0  0  0  0  0  0
   21.8840  -20.4104  -13.3037 C   0  0  0  0  0  0  0  0  0  0  0  0
   21.0642  -19.3123  -13.4729 C   0  0  0  0  0  0  0  0  0  0  0  0
   21.3659  -18.3336  -14.3855 C   0  0  0  0  0  0  0  0  0  0  0  0
   22.4939  -18.4026  -15.1694 C   0  0  0  0  0  0  0  0  0  0  0  0
   23.3059  -19.4999  -14.9948 C   0  0  0  0  0  0  0  0  0  0  0  0
   23.0185  -20.4890  -14.0851 C   0  0  0  0  0  0  0  0  0  0  0  0
   21.3847  -21.7078   -9.8755 C   0  0  0  0  0  0  0  0  0  0  0  0
   20.0025  -21.4678   -9.7495 O   0  0  0  0  0  0  0  0  0  0  0  0
   21.8873  -22.4758   -9.0053 O   0  0  0  0  0  0  0  0  0  0  0  0
  2  1  1  0
  3  2  2  0
  4  3  1  0
  5 11  1  0
  5  4  2  0
  6  5  1  0
  7  6  1  0
  7  8  1  6
  9  7  1  0
  9 10  2  0
 11 12  2  0
 12  2  1  0
 13 14  1  0
 14 15  1  0
 15 16  1  0
 17 16  1  1
 17 19  1  0
 17 18  1  0
 18  9  1  0
 19 20  2  0
 21 22  1  0
 21 19  1  0
 22 30  1  0
 22 23  1  6
 24 23  1  0
 25 24  2  0
 26 25  1  0
 27 26  2  0
 27 28  1  0
 28 29  2  0
 29 24  1  0
 30 31  1  0
 32 30  2  0
M  END
$$$$
