QVH.pdb
     RDKit          3D

 27 27  0  0  1  0  0  0  0  0999 V2000
   10.9823  -20.5052   19.0263 N   0  0  0  0  0  0  0  0  0  0  0  0
   12.0948  -20.0230   18.2976 C   0  0  0  0  0  0  0  0  0  0  0  0
   13.0564  -20.7979   18.0913 O   0  0  0  0  0  0  0  0  0  0  0  0
   12.1242  -18.6531   17.7958 C   0  0  0  0  0  0  0  0  0  0  0  0
   10.9186  -17.8254   18.0762 C   0  0  0  0  0  0  0  0  0  0  0  0
   10.9589  -16.4287   17.5548 C   0  0  2  0  0  0  0  0  0  0  0  0
   12.2439  -16.0981   16.9697 N   0  0  0  0  0  0  0  0  0  0  0  0
   10.7078  -15.4916   18.7069 C   0  0  0  0  0  0  0  0  0  0  0  0
   11.6640  -15.1119   19.4314 O   0  0  0  0  0  0  0  0  0  0  0  0
    8.1127  -12.5796   18.6627 C   0  0  0  0  0  0  0  0  0  0  0  0
    7.7852  -13.4700   19.8485 C   0  0  2  0  0  0  0  0  0  0  0  0
    7.3772  -12.5902   20.9893 C   0  0  0  0  0  0  0  0  0  0  0  0
    9.0530  -14.2581   20.1658 C   0  0  2  0  0  0  0  0  0  0  0  0
    9.4108  -15.0155   19.0076 N   0  0  0  0  0  0  0  0  0  0  0  0
    8.8795  -15.0932   21.3761 C   0  0  0  0  0  0  0  0  0  0  0  0
    8.3429  -16.2253   21.2665 O   0  0  0  0  0  0  0  0  0  0  0  0
    9.2871  -14.6922   22.6784 N   0  0  0  0  0  0  0  0  0  0  0  0
    9.2269  -15.6001   23.8205 C   0  0  1  0  0  0  0  0  0  0  0  0
    8.3722  -16.8008   23.5161 C   0  0  0  0  0  0  0  0  0  0  0  0
    8.2667  -17.7629   24.6173 C   0  0  0  0  0  0  0  0  0  0  0  0
    8.7812  -17.5159   25.8947 C   0  0  0  0  0  0  0  0  0  0  0  0
    8.5090  -18.5975   26.6418 N   0  0  0  0  0  0  0  0  0  0  0  0
    7.8610  -19.4754   25.8805 C   0  0  0  0  0  0  0  0  0  0  0  0
    7.6965  -18.9975   24.6389 N   0  0  0  0  0  0  0  0  0  0  0  0
   10.5634  -16.0133   24.2602 C   0  0  0  0  0  0  0  0  0  0  0  0
   10.8815  -15.7999   25.4659 O   0  0  0  0  0  0  0  0  0  0  0  0
   11.4748  -16.6179   23.4215 O   0  0  0  0  0  0  0  0  0  0  0  0
  2  1  1  0
  3  2  2  0
  4  2  1  0
  5  4  1  0
  6  8  1  0
  6  5  1  0
  6  7  1  1
  8  9  2  0
 11 10  1  6
 11 12  1  0
 13 11  1  0
 14  8  1  0
 13 14  1  6
 15 17  1  0
 15 13  1  0
 16 15  2  0
 18 25  1  0
 18 17  1  0
 18 19  1  6
 20 24  1  0
 20 19  1  0
 21 20  2  0
 22 21  1  0
 22 23  1  0
 23 24  2  0
 25 27  1  0
 26 25  2  0
M  END
$$$$
