QVH.pdb
     RDKit          3D

 27 27  0  0  1  0  0  0  0  0999 V2000
    8.7835  -20.4666   15.3261 N   0  0  0  0  0  0  0  0  0  0  0  0
    7.5152  -20.2053   15.8956 C   0  0  0  0  0  0  0  0  0  0  0  0
    6.5921  -21.0292   15.7039 O   0  0  0  0  0  0  0  0  0  0  0  0
    7.2846  -19.0030   16.6898 C   0  0  0  0  0  0  0  0  0  0  0  0
    8.4460  -18.0835   16.8410 C   0  0  0  0  0  0  0  0  0  0  0  0
    8.1223  -16.6277   16.8314 C   0  0  2  0  0  0  0  0  0  0  0  0
    8.4827  -15.9935   15.5781 N   0  0  0  0  0  0  0  0  0  0  0  0
    8.9021  -15.9676   17.9379 C   0  0  0  0  0  0  0  0  0  0  0  0
   10.1510  -15.8461   17.8441 O   0  0  0  0  0  0  0  0  0  0  0  0
    6.7169  -14.3436   21.1101 C   0  0  0  0  0  0  0  0  0  0  0  0
    8.0391  -13.7126   20.7106 C   0  0  2  0  0  0  0  0  0  0  0  0
    7.7648  -12.6991   19.6431 C   0  0  0  0  0  0  0  0  0  0  0  0
    8.9271  -14.8450   20.2023 C   0  0  2  0  0  0  0  0  0  0  0  0
    8.2672  -15.4707   19.0996 N   0  0  0  0  0  0  0  0  0  0  0  0
    9.2683  -15.7912   21.2889 C   0  0  0  0  0  0  0  0  0  0  0  0
    8.4697  -16.7238   21.5612 O   0  0  0  0  0  0  0  0  0  0  0  0
   10.4614  -15.7136   22.0591 N   0  0  0  0  0  0  0  0  0  0  0  0
   10.7571  -16.6682   23.1238 C   0  0  1  0  0  0  0  0  0  0  0  0
   12.2272  -16.9863   23.1760 C   0  0  0  0  0  0  0  0  0  0  0  0
   12.7416  -17.6660   21.9832 C   0  0  0  0  0  0  0  0  0  0  0  0
   12.0488  -18.6951   21.3362 C   0  0  0  0  0  0  0  0  0  0  0  0
   12.8036  -19.0802   20.2951 N   0  0  0  0  0  0  0  0  0  0  0  0
   13.9077  -18.3379   20.2856 C   0  0  0  0  0  0  0  0  0  0  0  0
   13.9018  -17.4645   21.3026 N   0  0  0  0  0  0  0  0  0  0  0  0
   10.2826  -16.1952   24.4281 C   0  0  0  0  0  0  0  0  0  0  0  0
    9.7380  -15.0545   24.4811 O   0  0  0  0  0  0  0  0  0  0  0  0
   10.4051  -16.9359   25.5840 O   0  0  0  0  0  0  0  0  0  0  0  0
  2  1  1  0
  3  2  2  0
  4  2  1  0
  5  4  1  0
  6  8  1  0
  6  5  1  0
  6  7  1  6
  8  9  2  0
 11 10  1  6
 11 12  1  0
 13 11  1  0
 14  8  1  0
 13 14  1  6
 15 17  1  0
 15 13  1  0
 16 15  2  0
 18 25  1  0
 18 17  1  0
 18 19  1  1
 20 24  1  0
 20 19  1  0
 21 20  2  0
 22 21  1  0
 22 23  1  0
 23 24  2  0
 25 27  1  0
 26 25  2  0
M  END
$$$$
