QVH.pdb
     RDKit          3D

 27 27  0  0  1  0  0  0  0  0999 V2000
    3.4556  -18.5469   21.2735 N   0  0  0  0  0  0  0  0  0  0  0  0
    4.8171  -18.7483   21.6005 C   0  0  0  0  0  0  0  0  0  0  0  0
    5.1292  -19.7629   22.2646 O   0  0  0  0  0  0  0  0  0  0  0  0
    5.8380  -17.7966   21.1745 C   0  0  0  0  0  0  0  0  0  0  0  0
    6.6418  -17.1673   22.2586 C   0  0  0  0  0  0  0  0  0  0  0  0
    7.2274  -15.8340   21.9370 C   0  0  2  0  0  0  0  0  0  0  0  0
    8.1644  -15.8980   20.8320 N   0  0  0  0  0  0  0  0  0  0  0  0
    7.9637  -15.3402   23.1545 C   0  0  0  0  0  0  0  0  0  0  0  0
    9.1834  -15.6095   23.3067 O   0  0  0  0  0  0  0  0  0  0  0  0
    5.9930  -12.8042   26.0896 C   0  0  0  0  0  0  0  0  0  0  0  0
    7.4393  -12.6976   25.6391 C   0  0  2  0  0  0  0  0  0  0  0  0
    7.4784  -11.8530   24.4034 C   0  0  0  0  0  0  0  0  0  0  0  0
    7.9180  -14.1211   25.3681 C   0  0  2  0  0  0  0  0  0  0  0  0
    7.3194  -14.5704   24.1504 N   0  0  0  0  0  0  0  0  0  0  0  0
    7.6376  -15.0118   26.5173 C   0  0  0  0  0  0  0  0  0  0  0  0
    6.4508  -15.1482   26.9102 O   0  0  0  0  0  0  0  0  0  0  0  0
    8.6404  -15.7363   27.2190 N   0  0  0  0  0  0  0  0  0  0  0  0
    8.5034  -17.1608   27.5095 C   0  0  1  0  0  0  0  0  0  0  0  0
    8.2168  -17.9459   26.2579 C   0  0  0  0  0  0  0  0  0  0  0  0
    7.9518  -19.3699   26.4847 C   0  0  0  0  0  0  0  0  0  0  0  0
    7.9046  -19.9407   27.7612 C   0  0  0  0  0  0  0  0  0  0  0  0
    7.6427  -21.2469   27.5960 N   0  0  0  0  0  0  0  0  0  0  0  0
    7.5312  -21.4862   26.2919 C   0  0  0  0  0  0  0  0  0  0  0  0
    7.7143  -20.3619   25.5851 N   0  0  0  0  0  0  0  0  0  0  0  0
    9.6843  -17.6936   28.1965 C   0  0  0  0  0  0  0  0  0  0  0  0
    9.6059  -18.8546   28.6930 O   0  0  0  0  0  0  0  0  0  0  0  0
   10.8616  -16.9878   28.3202 O   0  0  0  0  0  0  0  0  0  0  0  0
  2  1  1  0
  3  2  2  0
  4  2  1  0
  5  4  1  0
  6  8  1  0
  6  5  1  0
  6  7  1  6
  8  9  2  0
 11 10  1  6
 11 12  1  0
 13 11  1  0
 14  8  1  0
 13 14  1  6
 15 17  1  0
 15 13  1  0
 16 15  2  0
 18 25  1  0
 18 17  1  0
 18 19  1  6
 20 24  1  0
 20 19  1  0
 21 20  2  0
 22 21  1  0
 22 23  1  0
 23 24  2  0
 25 27  1  0
 26 25  2  0
M  END
$$$$
