QVH.pdb
     RDKit          3D

 27 27  0  0  1  0  0  0  0  0999 V2000
    8.5862  -21.3121   20.1010 N   0  0  0  0  0  0  0  0  0  0  0  0
    8.3914  -21.1160   18.7137 C   0  0  0  0  0  0  0  0  0  0  0  0
    8.4727  -22.1067   17.9522 O   0  0  0  0  0  0  0  0  0  0  0  0
    8.1013  -19.7899   18.1785 C   0  0  0  0  0  0  0  0  0  0  0  0
    7.9573  -18.6958   19.1783 C   0  0  0  0  0  0  0  0  0  0  0  0
    8.1894  -17.3157   18.6628 C   0  0  2  0  0  0  0  0  0  0  0  0
    8.9394  -17.3121   17.4217 N   0  0  0  0  0  0  0  0  0  0  0  0
    8.9797  -16.5568   19.6962 C   0  0  0  0  0  0  0  0  0  0  0  0
   10.2341  -16.4996   19.6145 O   0  0  0  0  0  0  0  0  0  0  0  0
    6.8305  -14.5725   22.7062 C   0  0  0  0  0  0  0  0  0  0  0  0
    8.1654  -14.0134   22.2463 C   0  0  2  0  0  0  0  0  0  0  0  0
    7.9090  -13.0895   21.0962 C   0  0  0  0  0  0  0  0  0  0  0  0
    9.0202  -15.2085   21.8336 C   0  0  2  0  0  0  0  0  0  0  0  0
    8.3489  -15.8945   20.7745 N   0  0  0  0  0  0  0  0  0  0  0  0
    9.3223  -16.0802   22.9917 C   0  0  0  0  0  0  0  0  0  0  0  0
    8.4791  -16.9445   23.3433 O   0  0  0  0  0  0  0  0  0  0  0  0
   10.5253  -16.0032   23.7466 N   0  0  0  0  0  0  0  0  0  0  0  0
   10.7812  -16.8825   24.8840 C   0  0  1  0  0  0  0  0  0  0  0  0
   12.2561  -17.1199   25.0668 C   0  0  0  0  0  0  0  0  0  0  0  0
   12.8853  -17.8798   23.9823 C   0  0  0  0  0  0  0  0  0  0  0  0
   12.1515  -18.5298   22.9841 C   0  0  0  0  0  0  0  0  0  0  0  0
   13.0390  -19.1180   22.1667 N   0  0  0  0  0  0  0  0  0  0  0  0
   14.2610  -18.8548   22.6223 C   0  0  0  0  0  0  0  0  0  0  0  0
   14.2032  -18.1011   23.7295 N   0  0  0  0  0  0  0  0  0  0  0  0
   10.1826  -16.3657   26.1188 C   0  0  0  0  0  0  0  0  0  0  0  0
   10.2986  -17.0620   27.1687 O   0  0  0  0  0  0  0  0  0  0  0  0
    9.5073  -15.1657   26.1793 O   0  0  0  0  0  0  0  0  0  0  0  0
  2  1  1  0
  3  2  2  0
  4  2  1  0
  5  4  1  0
  6  8  1  0
  6  5  1  0
  6  7  1  6
  8  9  2  0
 11 10  1  6
 11 12  1  0
 13 11  1  0
 14  8  1  0
 13 14  1  6
 15 17  1  0
 15 13  1  0
 16 15  2  0
 18 25  1  0
 18 17  1  0
 18 19  1  1
 20 24  1  0
 20 19  1  0
 21 20  2  0
 22 21  1  0
 22 23  1  0
 23 24  2  0
 25 27  1  0
 26 25  2  0
M  END
$$$$
