QVH.pdb
     RDKit          3D

 27 27  0  0  1  0  0  0  0  0999 V2000
    7.6763  -20.6637   16.5602 N   0  0  0  0  0  0  0  0  0  0  0  0
    8.6460  -20.3249   15.5875 C   0  0  0  0  0  0  0  0  0  0  0  0
    8.8785  -21.1394   14.6655 O   0  0  0  0  0  0  0  0  0  0  0  0
    9.3610  -19.0546   15.6541 C   0  0  0  0  0  0  0  0  0  0  0  0
    8.9982  -18.1558   16.7845 C   0  0  0  0  0  0  0  0  0  0  0  0
    8.8891  -16.7070   16.4478 C   0  0  2  0  0  0  0  0  0  0  0  0
    9.7231  -16.3414   15.3191 N   0  0  0  0  0  0  0  0  0  0  0  0
    9.3387  -15.9129   17.6460 C   0  0  0  0  0  0  0  0  0  0  0  0
   10.5647  -15.8070   17.9090 O   0  0  0  0  0  0  0  0  0  0  0  0
    7.2112  -12.8118   19.1201 C   0  0  0  0  0  0  0  0  0  0  0  0
    7.5067  -13.8418   20.1962 C   0  0  2  0  0  0  0  0  0  0  0  0
    7.7625  -13.1118   21.4782 C   0  0  0  0  0  0  0  0  0  0  0  0
    8.7353  -14.6185   19.7313 C   0  0  2  0  0  0  0  0  0  0  0  0
    8.4134  -15.2706   18.5008 N   0  0  0  0  0  0  0  0  0  0  0  0
    9.2101  -15.5524   20.7778 C   0  0  0  0  0  0  0  0  0  0  0  0
    8.5850  -16.6269   20.9680 O   0  0  0  0  0  0  0  0  0  0  0  0
   10.3472  -15.3098   21.5969 N   0  0  0  0  0  0  0  0  0  0  0  0
   10.8232  -16.2911   22.5679 C   0  0  1  0  0  0  0  0  0  0  0  0
   12.3052  -16.1582   22.7934 C   0  0  0  0  0  0  0  0  0  0  0  0
   13.1295  -16.5612   21.6499 C   0  0  0  0  0  0  0  0  0  0  0  0
   12.7137  -17.5104   20.7099 C   0  0  0  0  0  0  0  0  0  0  0  0
   13.7045  -17.6319   19.8124 N   0  0  0  0  0  0  0  0  0  0  0  0
   14.6877  -16.8079   20.1653 C   0  0  0  0  0  0  0  0  0  0  0  0
   14.3691  -16.1391   21.2826 N   0  0  0  0  0  0  0  0  0  0  0  0
   10.0955  -16.1995   23.8377 C   0  0  0  0  0  0  0  0  0  0  0  0
    9.2917  -15.2345   23.9903 O   0  0  0  0  0  0  0  0  0  0  0  0
   10.2512  -17.1125   24.8584 O   0  0  0  0  0  0  0  0  0  0  0  0
  2  1  1  0
  3  2  2  0
  4  2  1  0
  5  4  1  0
  6  8  1  0
  6  5  1  0
  6  7  1  6
  8  9  2  0
 11 10  1  6
 11 12  1  0
 13 11  1  0
 14  8  1  0
 13 14  1  6
 15 17  1  0
 15 13  1  0
 16 15  2  0
 18 25  1  0
 18 17  1  0
 18 19  1  1
 20 24  1  0
 20 19  1  0
 21 20  2  0
 22 21  1  0
 22 23  1  0
 23 24  2  0
 25 27  1  0
 26 25  2  0
M  END
$$$$
