QVH.pdb
     RDKit          3D

 27 27  0  0  1  0  0  0  0  0999 V2000
    8.0712  -21.5208   19.2682 N   0  0  0  0  0  0  0  0  0  0  0  0
    7.0278  -21.0565   18.4334 C   0  0  0  0  0  0  0  0  0  0  0  0
    5.9805  -21.7377   18.3497 O   0  0  0  0  0  0  0  0  0  0  0  0
    7.1655  -19.8113   17.6852 C   0  0  0  0  0  0  0  0  0  0  0  0
    8.4042  -19.0255   17.9410 C   0  0  0  0  0  0  0  0  0  0  0  0
    8.3767  -17.6081   17.4778 C   0  0  2  0  0  0  0  0  0  0  0  0
    9.1471  -17.4119   16.2650 N   0  0  0  0  0  0  0  0  0  0  0  0
    8.9732  -16.7497   18.5621 C   0  0  0  0  0  0  0  0  0  0  0  0
   10.2031  -16.8210   18.8183 O   0  0  0  0  0  0  0  0  0  0  0  0
    7.5779  -13.0860   19.4694 C   0  0  0  0  0  0  0  0  0  0  0  0
    7.6101  -13.9794   20.6970 C   0  0  2  0  0  0  0  0  0  0  0  0
    7.9926  -13.1361   21.8736 C   0  0  0  0  0  0  0  0  0  0  0  0
    8.6444  -15.0665   20.4186 C   0  0  2  0  0  0  0  0  0  0  0  0
    8.1841  -15.8503   19.3156 N   0  0  0  0  0  0  0  0  0  0  0  0
    8.9188  -15.8721   21.6304 C   0  0  0  0  0  0  0  0  0  0  0  0
    7.9866  -16.5429   22.1430 O   0  0  0  0  0  0  0  0  0  0  0  0
   10.1902  -15.9385   22.2643 N   0  0  0  0  0  0  0  0  0  0  0  0
   10.4114  -16.7314   23.4705 C   0  0  1  0  0  0  0  0  0  0  0  0
   11.7550  -17.4086   23.4371 C   0  0  0  0  0  0  0  0  0  0  0  0
   11.8894  -18.4348   22.3987 C   0  0  0  0  0  0  0  0  0  0  0  0
   10.8218  -18.8461   21.5934 C   0  0  0  0  0  0  0  0  0  0  0  0
   11.2981  -19.7872   20.7632 N   0  0  0  0  0  0  0  0  0  0  0  0
   12.5903  -19.9598   21.0290 C   0  0  0  0  0  0  0  0  0  0  0  0
   12.9834  -19.1497   22.0222 N   0  0  0  0  0  0  0  0  0  0  0  0
   10.2673  -15.9257   24.6872 C   0  0  0  0  0  0  0  0  0  0  0  0
   10.1402  -14.6738   24.5558 O   0  0  0  0  0  0  0  0  0  0  0  0
   10.2645  -16.4725   25.9523 O   0  0  0  0  0  0  0  0  0  0  0  0
  2  1  1  0
  3  2  2  0
  4  2  1  0
  5  4  1  0
  6  8  1  0
  6  5  1  0
  6  7  1  6
  8  9  2  0
 11 10  1  6
 11 12  1  0
 13 11  1  0
 14  8  1  0
 13 14  1  6
 15 17  1  0
 15 13  1  0
 16 15  2  0
 18 25  1  0
 18 17  1  0
 18 19  1  6
 20 24  1  0
 20 19  1  0
 21 20  2  0
 22 21  1  0
 22 23  1  0
 23 24  2  0
 25 27  1  0
 26 25  2  0
M  END
$$$$
