SHH.pdb
     RDKit          3D

 27 28  0  0  1  0  0  0  0  0999 V2000
   24.7464   -8.4839  -21.6338 O   0  0  0  0  0  0  0  0  0  0  0  0
   24.1729   -8.4267  -20.3710 C   0  0  0  0  0  0  0  0  0  0  0  0
   23.6632   -9.8104  -19.9480 C   0  0  2  0  0  0  0  0  0  0  0  0
   22.5247  -10.0930  -20.8015 N   0  0  0  0  0  0  0  0  0  0  0  0
   23.1645   -9.6575  -18.5531 C   0  0  0  0  0  0  0  0  0  0  0  0
   21.9713   -9.2792  -18.3150 O   0  0  0  0  0  0  0  0  0  0  0  0
   23.9674   -9.9174  -17.4108 N   0  0  0  0  0  0  0  0  0  0  0  0
   23.4960   -9.7512  -16.0711 C   0  0  1  0  0  0  0  0  0  0  0  0
   24.3194  -10.5022  -15.0464 C   0  0  0  0  0  0  0  0  0  0  0  0
   24.2611  -11.9580  -15.2062 C   0  0  0  0  0  0  0  0  0  0  0  0
   23.4950  -12.6188  -16.1443 C   0  0  0  0  0  0  0  0  0  0  0  0
   23.6775  -13.9508  -16.0147 N   0  0  0  0  0  0  0  0  0  0  0  0
   24.5545  -14.1465  -15.0007 C   0  0  0  0  0  0  0  0  0  0  0  0
   24.8958  -12.9282  -14.5245 N   0  0  0  0  0  0  0  0  0  0  0  0
   23.4910   -8.2833  -15.7335 C   0  0  0  0  0  0  0  0  0  0  0  0
   24.4714   -7.5459  -16.0238 O   0  0  0  0  0  0  0  0  0  0  0  0
   22.3870   -7.6734  -15.0776 N   0  0  0  0  0  0  0  0  0  0  0  0
   22.3122   -6.1953  -14.9830 C   0  0  1  0  0  0  0  0  0  0  0  0
   22.1666   -5.7186  -16.3848 C   0  0  0  0  0  0  0  0  0  0  0  0
   22.0099   -4.2738  -16.5682 C   0  0  0  0  0  0  0  0  0  0  0  0
   22.1765   -3.3909  -15.5096 C   0  0  0  0  0  0  0  0  0  0  0  0
   21.9773   -2.1530  -15.9556 N   0  0  0  0  0  0  0  0  0  0  0  0
   21.6930   -2.2227  -17.2482 C   0  0  0  0  0  0  0  0  0  0  0  0
   21.7109   -3.5099  -17.6281 N   0  0  0  0  0  0  0  0  0  0  0  0
   21.0572   -5.8729  -14.2153 C   0  0  0  0  0  0  0  0  0  0  0  0
   20.8164   -4.7043  -13.8095 O   0  0  0  0  0  0  0  0  0  0  0  0
   20.1301   -6.8546  -13.9339 O   0  0  0  0  0  0  0  0  0  0  0  0
  2  1  1  0
  2  3  1  0
  3  4  1  6
  5  3  1  0
  5  6  2  0
  7  5  1  0
  8  7  1  0
  8  9  1  1
 10  9  1  0
 10 11  2  0
 12 11  1  0
 13 14  2  0
 13 12  1  0
 14 10  1  0
 15  8  1  0
 16 15  2  0
 17 15  1  0
 18 17  1  0
 18 19  1  6
 19 20  1  0
 20 24  1  0
 20 21  2  0
 21 22  1  0
 23 22  1  0
 24 23  2  0
 25 18  1  0
 26 25  2  0
 27 25  1  0
M  END
$$$$
