SHH.pdb
     RDKit          3D

 27 28  0  0  1  0  0  0  0  0999 V2000
   26.3796   -7.5821  -19.7234 O   0  0  0  0  0  0  0  0  0  0  0  0
   25.0673   -7.5286  -19.2739 C   0  0  0  0  0  0  0  0  0  0  0  0
   24.4667   -8.9382  -19.1969 C   0  0  2  0  0  0  0  0  0  0  0  0
   24.2077   -9.3357  -20.5679 N   0  0  0  0  0  0  0  0  0  0  0  0
   23.1556   -8.7907  -18.5063 C   0  0  0  0  0  0  0  0  0  0  0  0
   22.1871   -8.1677  -19.0518 O   0  0  0  0  0  0  0  0  0  0  0  0
   22.8960   -9.3232  -17.2155 N   0  0  0  0  0  0  0  0  0  0  0  0
   21.6124   -9.2602  -16.5887 C   0  0  1  0  0  0  0  0  0  0  0  0
   21.3083  -10.4614  -15.7189 C   0  0  0  0  0  0  0  0  0  0  0  0
   19.9123  -10.5214  -15.2762 C   0  0  0  0  0  0  0  0  0  0  0  0
   18.9561   -9.5652  -15.5495 C   0  0  0  0  0  0  0  0  0  0  0  0
   17.7816   -9.9336  -14.9934 N   0  0  0  0  0  0  0  0  0  0  0  0
   17.9800  -11.1183  -14.3666 C   0  0  0  0  0  0  0  0  0  0  0  0
   19.2759  -11.4571  -14.5494 N   0  0  0  0  0  0  0  0  0  0  0  0
   21.5355   -8.0060  -15.7581 C   0  0  0  0  0  0  0  0  0  0  0  0
   22.3774   -7.7757  -14.8486 O   0  0  0  0  0  0  0  0  0  0  0  0
   20.5161   -7.0368  -15.9648 N   0  0  0  0  0  0  0  0  0  0  0  0
   20.4040   -5.8792  -15.0448 C   0  0  1  0  0  0  0  0  0  0  0  0
   20.8392   -4.7003  -15.8415 C   0  0  0  0  0  0  0  0  0  0  0  0
   22.2838   -4.5243  -16.0078 C   0  0  0  0  0  0  0  0  0  0  0  0
   22.8924   -4.6930  -17.2443 C   0  0  0  0  0  0  0  0  0  0  0  0
   24.1979   -4.4741  -17.1067 N   0  0  0  0  0  0  0  0  0  0  0  0
   24.4330   -4.1756  -15.8370 C   0  0  0  0  0  0  0  0  0  0  0  0
   23.2730   -4.2041  -15.1621 N   0  0  0  0  0  0  0  0  0  0  0  0
   18.9442   -5.7367  -14.7030 C   0  0  0  0  0  0  0  0  0  0  0  0
   18.5460   -4.8898  -13.8589 O   0  0  0  0  0  0  0  0  0  0  0  0
   17.9963   -6.5345  -15.3091 O   0  0  0  0  0  0  0  0  0  0  0  0
  2  1  1  0
  2  3  1  0
  3  4  1  6
  5  3  1  0
  5  6  2  0
  7  5  1  0
  8  7  1  0
  8  9  1  1
 10  9  1  0
 10 11  2  0
 12 11  1  0
 13 14  2  0
 13 12  1  0
 14 10  1  0
 15  8  1  0
 16 15  2  0
 17 15  1  0
 18 17  1  0
 18 19  1  6
 19 20  1  0
 20 24  1  0
 20 21  2  0
 21 22  1  0
 23 22  1  0
 24 23  2  0
 25 18  1  0
 26 25  2  0
 27 25  1  0
M  END
$$$$
