SHH.pdb
     RDKit          3D

 27 28  0  0  1  0  0  0  0  0999 V2000
   13.1003  -13.1608  -12.2074 O   0  0  0  0  0  0  0  0  0  0  0  0
   13.9934  -12.3191  -11.5587 C   0  0  0  0  0  0  0  0  0  0  0  0
   15.4387  -12.6892  -11.9160 C   0  0  2  0  0  0  0  0  0  0  0  0
   15.7416  -13.8878  -11.1570 N   0  0  0  0  0  0  0  0  0  0  0  0
   16.2891  -11.5857  -11.3899 C   0  0  0  0  0  0  0  0  0  0  0  0
   16.4684  -11.4279  -10.1383 O   0  0  0  0  0  0  0  0  0  0  0  0
   16.9482  -10.6485  -12.2292 N   0  0  0  0  0  0  0  0  0  0  0  0
   17.7125   -9.5506  -11.7240 C   0  0  1  0  0  0  0  0  0  0  0  0
   18.7900   -9.0790  -12.6772 C   0  0  0  0  0  0  0  0  0  0  0  0
   19.5777   -7.9577  -12.1569 C   0  0  0  0  0  0  0  0  0  0  0  0
   20.5114   -8.0515  -11.1457 C   0  0  0  0  0  0  0  0  0  0  0  0
   21.0486   -6.8336  -10.9167 N   0  0  0  0  0  0  0  0  0  0  0  0
   20.4651   -5.9618  -11.7742 C   0  0  0  0  0  0  0  0  0  0  0  0
   19.5779   -6.6617  -12.5162 N   0  0  0  0  0  0  0  0  0  0  0  0
   16.7807   -8.4084  -11.4142 C   0  0  0  0  0  0  0  0  0  0  0  0
   15.8848   -8.0604  -12.2298 O   0  0  0  0  0  0  0  0  0  0  0  0
   16.8733   -7.6808  -10.1963 N   0  0  0  0  0  0  0  0  0  0  0  0
   15.9744   -6.5253   -9.9593 C   0  0  1  0  0  0  0  0  0  0  0  0
   16.0258   -6.2819   -8.4924 C   0  0  0  0  0  0  0  0  0  0  0  0
   15.2379   -5.1530   -7.9918 C   0  0  0  0  0  0  0  0  0  0  0  0
   14.4592   -4.3832   -8.8454 C   0  0  0  0  0  0  0  0  0  0  0  0
   13.8576   -3.4355   -8.1304 N   0  0  0  0  0  0  0  0  0  0  0  0
   14.2263   -3.5789   -6.8654 C   0  0  0  0  0  0  0  0  0  0  0  0
   15.0662   -4.6219   -6.7733 N   0  0  0  0  0  0  0  0  0  0  0  0
   16.5800   -5.3497  -10.6799 C   0  0  0  0  0  0  0  0  0  0  0  0
   17.8287   -5.2006  -10.7618 O   0  0  0  0  0  0  0  0  0  0  0  0
   15.7788   -4.3975  -11.2747 O   0  0  0  0  0  0  0  0  0  0  0  0
  2  1  1  0
  2  3  1  0
  3  4  1  1
  5  3  1  0
  5  6  2  0
  7  5  1  0
  8  7  1  0
  8  9  1  6
 10  9  1  0
 10 11  2  0
 12 11  1  0
 13 14  2  0
 13 12  1  0
 14 10  1  0
 15  8  1  0
 16 15  2  0
 17 15  1  0
 18 17  1  0
 18 19  1  1
 19 20  1  0
 20 24  1  0
 20 21  2  0
 21 22  1  0
 23 22  1  0
 24 23  2  0
 25 18  1  0
 26 25  2  0
 27 25  1  0
M  END
$$$$
