SHH.pdb
     RDKit          3D

 27 28  0  0  1  0  0  0  0  0999 V2000
   19.5232  -13.7647  -17.1597 O   0  0  0  0  0  0  0  0  0  0  0  0
   20.2961  -12.8206  -16.4977 C   0  0  0  0  0  0  0  0  0  0  0  0
   21.7173  -12.7878  -17.0746 C   0  0  2  0  0  0  0  0  0  0  0  0
   22.3368  -14.0379  -16.6772 N   0  0  0  0  0  0  0  0  0  0  0  0
   22.4228  -11.6816  -16.3703 C   0  0  0  0  0  0  0  0  0  0  0  0
   22.5029  -11.6517  -15.0990 O   0  0  0  0  0  0  0  0  0  0  0  0
   23.0447  -10.6019  -17.0519 N   0  0  0  0  0  0  0  0  0  0  0  0
   23.7590   -9.5617  -16.3791 C   0  0  1  0  0  0  0  0  0  0  0  0
   25.2312   -9.5194  -16.7295 C   0  0  0  0  0  0  0  0  0  0  0  0
   25.9794  -10.6818  -16.2425 C   0  0  0  0  0  0  0  0  0  0  0  0
   26.4787  -11.6899  -17.0412 C   0  0  0  0  0  0  0  0  0  0  0  0
   27.1125  -12.6004  -16.2707 N   0  0  0  0  0  0  0  0  0  0  0  0
   27.0221  -12.1817  -14.9853 C   0  0  0  0  0  0  0  0  0  0  0  0
   26.3328  -11.0189  -14.9894 N   0  0  0  0  0  0  0  0  0  0  0  0
   23.1244   -8.2375  -16.7145 C   0  0  0  0  0  0  0  0  0  0  0  0
   23.0065   -7.8573  -17.9105 O   0  0  0  0  0  0  0  0  0  0  0  0
   22.6356   -7.3678  -15.7017 N   0  0  0  0  0  0  0  0  0  0  0  0
   21.8622   -6.1601  -16.0791 C   0  0  1  0  0  0  0  0  0  0  0  0
   20.5393   -6.3176  -15.4166 C   0  0  0  0  0  0  0  0  0  0  0  0
   19.5778   -7.1985  -16.0838 C   0  0  0  0  0  0  0  0  0  0  0  0
   19.6131   -7.3941  -17.4579 C   0  0  0  0  0  0  0  0  0  0  0  0
   18.6353   -8.2333  -17.7911 N   0  0  0  0  0  0  0  0  0  0  0  0
   17.9892   -8.5715  -16.6844 C   0  0  0  0  0  0  0  0  0  0  0  0
   18.5569   -7.9458  -15.6415 N   0  0  0  0  0  0  0  0  0  0  0  0
   22.5809   -4.9800  -15.4799 C   0  0  0  0  0  0  0  0  0  0  0  0
   23.5605   -5.1324  -14.7018 O   0  0  0  0  0  0  0  0  0  0  0  0
   22.1843   -3.6910  -15.7688 O   0  0  0  0  0  0  0  0  0  0  0  0
  2  1  1  0
  2  3  1  0
  3  4  1  1
  5  3  1  0
  5  6  2  0
  7  5  1  0
  8  7  1  0
  8  9  1  6
 10  9  1  0
 10 11  2  0
 12 11  1  0
 13 14  2  0
 13 12  1  0
 14 10  1  0
 15  8  1  0
 16 15  2  0
 17 15  1  0
 18 17  1  0
 18 19  1  1
 19 20  1  0
 20 24  1  0
 20 21  2  0
 21 22  1  0
 23 22  1  0
 24 23  2  0
 25 18  1  0
 26 25  2  0
 27 25  1  0
M  END
$$$$
