SHH.pdb
     RDKit          3D

 27 28  0  0  1  0  0  0  0  0999 V2000
   17.3243  -10.7523  -22.3111 O   0  0  0  0  0  0  0  0  0  0  0  0
   18.6658  -11.0774  -22.4589 C   0  0  0  0  0  0  0  0  0  0  0  0
   19.0412  -12.2461  -21.5388 C   0  0  2  0  0  0  0  0  0  0  0  0
   18.0034  -13.2436  -21.7191 N   0  0  0  0  0  0  0  0  0  0  0  0
   18.9400  -11.7246  -20.1476 C   0  0  0  0  0  0  0  0  0  0  0  0
   17.8430  -11.7732  -19.5011 O   0  0  0  0  0  0  0  0  0  0  0  0
   20.0374  -11.1472  -19.4552 N   0  0  0  0  0  0  0  0  0  0  0  0
   19.9790  -10.7677  -18.0778 C   0  0  1  0  0  0  0  0  0  0  0  0
   20.8162  -11.6489  -17.1754 C   0  0  0  0  0  0  0  0  0  0  0  0
   20.3362  -13.0320  -17.1037 C   0  0  0  0  0  0  0  0  0  0  0  0
   20.7784  -14.0631  -17.9066 C   0  0  0  0  0  0  0  0  0  0  0  0
   20.1291  -15.2001  -17.5748 N   0  0  0  0  0  0  0  0  0  0  0  0
   19.2750  -14.9033  -16.5657 C   0  0  0  0  0  0  0  0  0  0  0  0
   19.4155  -13.5863  -16.2952 N   0  0  0  0  0  0  0  0  0  0  0  0
   20.4331   -9.3376  -17.9455 C   0  0  0  0  0  0  0  0  0  0  0  0
   21.4089   -8.9007  -18.6132 O   0  0  0  0  0  0  0  0  0  0  0  0
   19.7834   -8.4279  -17.0672 N   0  0  0  0  0  0  0  0  0  0  0  0
   20.1940   -7.0030  -17.0482 C   0  0  1  0  0  0  0  0  0  0  0  0
   18.9422   -6.2302  -17.2702 C   0  0  0  0  0  0  0  0  0  0  0  0
   18.3910   -6.2594  -18.6271 C   0  0  0  0  0  0  0  0  0  0  0  0
   19.0980   -5.7400  -19.7032 C   0  0  0  0  0  0  0  0  0  0  0  0
   18.3680   -5.8975  -20.8048 N   0  0  0  0  0  0  0  0  0  0  0  0
   17.2340   -6.4933  -20.4646 C   0  0  0  0  0  0  0  0  0  0  0  0
   17.2408   -6.7167  -19.1411 N   0  0  0  0  0  0  0  0  0  0  0  0
   20.7140   -6.7200  -15.6634 C   0  0  0  0  0  0  0  0  0  0  0  0
   20.7314   -7.6112  -14.7725 O   0  0  0  0  0  0  0  0  0  0  0  0
   21.1893   -5.4688  -15.3300 O   0  0  0  0  0  0  0  0  0  0  0  0
  2  1  1  0
  2  3  1  0
  3  4  1  1
  5  3  1  0
  5  6  2  0
  7  5  1  0
  8  7  1  0
  8  9  1  1
 10  9  1  0
 10 11  2  0
 12 11  1  0
 13 14  2  0
 13 12  1  0
 14 10  1  0
 15  8  1  0
 16 15  2  0
 17 15  1  0
 18 17  1  0
 18 19  1  1
 19 20  1  0
 20 24  1  0
 20 21  2  0
 21 22  1  0
 23 22  1  0
 24 23  2  0
 25 18  1  0
 26 25  2  0
 27 25  1  0
M  END
$$$$
