SHH.pdb
     RDKit          3D

 27 28  0  0  1  0  0  0  0  0999 V2000
   18.6226  -12.3385  -17.6815 O   0  0  0  0  0  0  0  0  0  0  0  0
   18.4905  -11.1312  -17.0093 C   0  0  0  0  0  0  0  0  0  0  0  0
   19.7870  -10.3167  -17.1053 C   0  0  2  0  0  0  0  0  0  0  0  0
   20.8137  -11.1279  -16.4790 N   0  0  0  0  0  0  0  0  0  0  0  0
   19.5782   -9.1080  -16.2609 C   0  0  0  0  0  0  0  0  0  0  0  0
   18.6774   -8.2519  -16.5426 O   0  0  0  0  0  0  0  0  0  0  0  0
   20.3528   -8.8285  -15.1038 N   0  0  0  0  0  0  0  0  0  0  0  0
   20.1365   -7.6814  -14.2780 C   0  0  1  0  0  0  0  0  0  0  0  0
   20.2577   -7.9747  -12.7977 C   0  0  0  0  0  0  0  0  0  0  0  0
   19.0574   -8.5919  -12.2261 C   0  0  0  0  0  0  0  0  0  0  0  0
   17.9113   -8.8915  -12.9332 C   0  0  0  0  0  0  0  0  0  0  0  0
   17.0048   -9.4502  -12.1023 N   0  0  0  0  0  0  0  0  0  0  0  0
   17.5630   -9.5099  -10.8692 C   0  0  0  0  0  0  0  0  0  0  0  0
   18.8053   -8.9856  -10.9651 N   0  0  0  0  0  0  0  0  0  0  0  0
   21.1246   -6.6107  -14.6606 C   0  0  0  0  0  0  0  0  0  0  0  0
   22.3303   -6.8928  -14.8961 O   0  0  0  0  0  0  0  0  0  0  0  0
   20.7395   -5.2467  -14.7708 N   0  0  0  0  0  0  0  0  0  0  0  0
   21.6886   -4.2575  -15.3365 C   0  0  1  0  0  0  0  0  0  0  0  0
   21.9236   -4.6956  -16.7388 C   0  0  0  0  0  0  0  0  0  0  0  0
   22.6648   -3.7670  -17.5955 C   0  0  0  0  0  0  0  0  0  0  0  0
   23.9439   -4.0663  -18.0451 C   0  0  0  0  0  0  0  0  0  0  0  0
   24.3751   -3.0566  -18.7973 N   0  0  0  0  0  0  0  0  0  0  0  0
   23.4208   -2.1378  -18.8380 C   0  0  0  0  0  0  0  0  0  0  0  0
   22.3770   -2.5630  -18.1092 N   0  0  0  0  0  0  0  0  0  0  0  0
   20.9785   -2.9295  -15.3429 C   0  0  0  0  0  0  0  0  0  0  0  0
   21.5600   -1.8745  -15.7131 O   0  0  0  0  0  0  0  0  0  0  0  0
   19.6625   -2.8309  -14.9415 O   0  0  0  0  0  0  0  0  0  0  0  0
  2  1  1  0
  2  3  1  0
  3  4  1  1
  5  3  1  0
  5  6  2  0
  7  5  1  0
  8  7  1  0
  8  9  1  1
 10  9  1  0
 10 11  2  0
 12 11  1  0
 13 14  2  0
 13 12  1  0
 14 10  1  0
 15  8  1  0
 16 15  2  0
 17 15  1  0
 18 17  1  0
 18 19  1  6
 19 20  1  0
 20 24  1  0
 20 21  2  0
 21 22  1  0
 23 22  1  0
 24 23  2  0
 25 18  1  0
 26 25  2  0
 27 25  1  0
M  END
$$$$
