SHH.pdb
     RDKit          3D

 27 28  0  0  1  0  0  0  0  0999 V2000
   20.9977  -14.4051  -18.9761 O   0  0  0  0  0  0  0  0  0  0  0  0
   21.3387  -13.5881  -17.9068 C   0  0  0  0  0  0  0  0  0  0  0  0
   22.7681  -13.0557  -18.0705 C   0  0  2  0  0  0  0  0  0  0  0  0
   23.6452  -14.1547  -17.7139 N   0  0  0  0  0  0  0  0  0  0  0  0
   22.9302  -11.9877  -17.0454 C   0  0  0  0  0  0  0  0  0  0  0  0
   23.1705  -12.2718  -15.8266 O   0  0  0  0  0  0  0  0  0  0  0  0
   22.8306  -10.6034  -17.3468 N   0  0  0  0  0  0  0  0  0  0  0  0
   22.9479   -9.5785  -16.3566 C   0  0  1  0  0  0  0  0  0  0  0  0
   24.1987   -8.7387  -16.5057 C   0  0  0  0  0  0  0  0  0  0  0  0
   25.4349   -9.4856  -16.2563 C   0  0  0  0  0  0  0  0  0  0  0  0
   26.3020   -9.9257  -17.2351 C   0  0  0  0  0  0  0  0  0  0  0  0
   27.3356  -10.5768  -16.6589 N   0  0  0  0  0  0  0  0  0  0  0  0
   27.1357  -10.5563  -15.3190 C   0  0  0  0  0  0  0  0  0  0  0  0
   25.9801   -9.8913  -15.0957 N   0  0  0  0  0  0  0  0  0  0  0  0
   21.7342   -8.6893  -16.4278 C   0  0  0  0  0  0  0  0  0  0  0  0
   21.2551   -8.3306  -17.5372 O   0  0  0  0  0  0  0  0  0  0  0  0
   21.0836   -8.2213  -15.2536 N   0  0  0  0  0  0  0  0  0  0  0  0
   19.8628   -7.3878  -15.3714 C   0  0  1  0  0  0  0  0  0  0  0  0
   18.9281   -7.9116  -14.3391 C   0  0  0  0  0  0  0  0  0  0  0  0
   18.1618   -9.1065  -14.7008 C   0  0  0  0  0  0  0  0  0  0  0  0
   18.2610   -9.6703  -15.9657 C   0  0  0  0  0  0  0  0  0  0  0  0
   17.4643  -10.7351  -16.0180 N   0  0  0  0  0  0  0  0  0  0  0  0
   16.8704  -10.8622  -14.8400 C   0  0  0  0  0  0  0  0  0  0  0  0
   17.2899   -9.8748  -14.0333 N   0  0  0  0  0  0  0  0  0  0  0  0
   20.2620   -5.9807  -15.0124 C   0  0  0  0  0  0  0  0  0  0  0  0
   19.4358   -5.0302  -15.0600 O   0  0  0  0  0  0  0  0  0  0  0  0
   21.5518   -5.6918  -14.6183 O   0  0  0  0  0  0  0  0  0  0  0  0
  2  1  1  0
  2  3  1  0
  3  4  1  1
  5  3  1  0
  5  6  2  0
  7  5  1  0
  8  7  1  0
  8  9  1  6
 10  9  1  0
 10 11  2  0
 12 11  1  0
 13 14  2  0
 13 12  1  0
 14 10  1  0
 15  8  1  0
 16 15  2  0
 17 15  1  0
 18 17  1  0
 18 19  1  1
 19 20  1  0
 20 24  1  0
 20 21  2  0
 21 22  1  0
 23 22  1  0
 24 23  2  0
 25 18  1  0
 26 25  2  0
 27 25  1  0
M  END
$$$$
