SHH.pdb
     RDKit          3D

 27 28  0  0  1  0  0  0  0  0999 V2000
   25.7623  -19.3057  -18.6003 O   0  0  0  0  0  0  0  0  0  0  0  0
   26.9975  -18.8088  -18.2076 C   0  0  0  0  0  0  0  0  0  0  0  0
   27.8459  -19.9169  -17.5705 C   0  0  2  0  0  0  0  0  0  0  0  0
   27.8715  -21.0016  -18.5334 N   0  0  0  0  0  0  0  0  0  0  0  0
   27.0877  -20.3813  -16.3759 C   0  0  0  0  0  0  0  0  0  0  0  0
   26.3390  -21.4112  -16.4269 O   0  0  0  0  0  0  0  0  0  0  0  0
   27.1438  -19.7227  -15.1189 N   0  0  0  0  0  0  0  0  0  0  0  0
   26.4624  -20.2005  -13.9561 C   0  0  1  0  0  0  0  0  0  0  0  0
   26.8780  -19.4945  -12.6830 C   0  0  0  0  0  0  0  0  0  0  0  0
   26.1740  -19.9787  -11.4921 C   0  0  0  0  0  0  0  0  0  0  0  0
   25.2480  -21.0014  -11.4843 C   0  0  0  0  0  0  0  0  0  0  0  0
   24.7971  -21.1886  -10.2249 N   0  0  0  0  0  0  0  0  0  0  0  0
   25.4280  -20.2931   -9.4276 C   0  0  0  0  0  0  0  0  0  0  0  0
   26.2571  -19.5702  -10.2135 N   0  0  0  0  0  0  0  0  0  0  0  0
   24.9785  -20.0392  -14.1586 C   0  0  0  0  0  0  0  0  0  0  0  0
   24.5011  -18.9841  -14.6564 O   0  0  0  0  0  0  0  0  0  0  0  0
   24.0617  -21.0643  -13.7986 N   0  0  0  0  0  0  0  0  0  0  0  0
   22.6037  -20.8267  -13.9293 C   0  0  1  0  0  0  0  0  0  0  0  0
   22.0152  -22.1569  -14.2421 C   0  0  0  0  0  0  0  0  0  0  0  0
   21.4406  -22.3163  -15.5801 C   0  0  0  0  0  0  0  0  0  0  0  0
   21.3370  -21.2411  -16.4524 C   0  0  0  0  0  0  0  0  0  0  0  0
   20.7834  -21.6670  -17.5852 N   0  0  0  0  0  0  0  0  0  0  0  0
   20.5359  -22.9630  -17.4597 C   0  0  0  0  0  0  0  0  0  0  0  0
   20.9331  -23.3652  -16.2423 N   0  0  0  0  0  0  0  0  0  0  0  0
   22.1156  -20.3722  -12.5791 C   0  0  0  0  0  0  0  0  0  0  0  0
   22.8366  -20.4742  -11.5505 O   0  0  0  0  0  0  0  0  0  0  0  0
   20.8572  -19.8274  -12.4301 O   0  0  0  0  0  0  0  0  0  0  0  0
  2  1  1  0
  2  3  1  0
  3  4  1  6
  5  3  1  0
  5  6  2  0
  7  5  1  0
  8  7  1  0
  8  9  1  1
 10  9  1  0
 10 11  2  0
 12 11  1  0
 13 14  2  0
 13 12  1  0
 14 10  1  0
 15  8  1  0
 16 15  2  0
 17 15  1  0
 18 17  1  0
 18 19  1  1
 19 20  1  0
 20 24  1  0
 20 21  2  0
 21 22  1  0
 23 22  1  0
 24 23  2  0
 25 18  1  0
 26 25  2  0
 27 25  1  0
M  END
$$$$
