SHH.pdb
     RDKit          3D

 27 28  0  0  1  0  0  0  0  0999 V2000
   24.1825   -4.5625  -16.0899 O   0  0  0  0  0  0  0  0  0  0  0  0
   22.9663   -4.9803  -15.5674 C   0  0  0  0  0  0  0  0  0  0  0  0
   22.4590   -6.2226  -16.3110 C   0  0  2  0  0  0  0  0  0  0  0  0
   22.0744   -5.7654  -17.6330 N   0  0  0  0  0  0  0  0  0  0  0  0
   21.2252   -6.6549  -15.5979 C   0  0  0  0  0  0  0  0  0  0  0  0
   20.0957   -6.1202  -15.8465 O   0  0  0  0  0  0  0  0  0  0  0  0
   21.2194   -7.6743  -14.6090 N   0  0  0  0  0  0  0  0  0  0  0  0
   20.0553   -8.0249  -13.8561 C   0  0  1  0  0  0  0  0  0  0  0  0
   19.9695   -9.5018  -13.5346 C   0  0  0  0  0  0  0  0  0  0  0  0
   19.5550  -10.3231  -14.6756 C   0  0  0  0  0  0  0  0  0  0  0  0
   19.1276   -9.8279  -15.8903 C   0  0  0  0  0  0  0  0  0  0  0  0
   18.8247  -10.8560  -16.7123 N   0  0  0  0  0  0  0  0  0  0  0  0
   19.0554  -12.0048  -16.0320 C   0  0  0  0  0  0  0  0  0  0  0  0
   19.4969  -11.6608  -14.8014 N   0  0  0  0  0  0  0  0  0  0  0  0
   20.0436   -7.2305  -12.5764 C   0  0  0  0  0  0  0  0  0  0  0  0
   21.0589   -6.5831  -12.2036 O   0  0  0  0  0  0  0  0  0  0  0  0
   18.8937   -7.1790  -11.7420 N   0  0  0  0  0  0  0  0  0  0  0  0
   18.7920   -6.1360  -10.6928 C   0  0  1  0  0  0  0  0  0  0  0  0
   18.6621   -4.8495  -11.4288 C   0  0  0  0  0  0  0  0  0  0  0  0
   18.3847   -3.6610  -10.6186 C   0  0  0  0  0  0  0  0  0  0  0  0
   18.3644   -3.7233   -9.2317 C   0  0  0  0  0  0  0  0  0  0  0  0
   18.0897   -2.5104   -8.7577 N   0  0  0  0  0  0  0  0  0  0  0  0
   17.9370   -1.6913   -9.7884 C   0  0  0  0  0  0  0  0  0  0  0  0
   18.1151   -2.3842  -10.9240 N   0  0  0  0  0  0  0  0  0  0  0  0
   17.5190   -6.4059   -9.9348 C   0  0  0  0  0  0  0  0  0  0  0  0
   17.4441   -6.2260   -8.6897 O   0  0  0  0  0  0  0  0  0  0  0  0
   16.3919   -6.8602  -10.5873 O   0  0  0  0  0  0  0  0  0  0  0  0
  2  1  1  0
  2  3  1  0
  3  4  1  6
  5  3  1  0
  5  6  2  0
  7  5  1  0
  8  7  1  0
  8  9  1  1
 10  9  1  0
 10 11  2  0
 12 11  1  0
 13 14  2  0
 13 12  1  0
 14 10  1  0
 15  8  1  0
 16 15  2  0
 17 15  1  0
 18 17  1  0
 18 19  1  6
 19 20  1  0
 20 24  1  0
 20 21  2  0
 21 22  1  0
 23 22  1  0
 24 23  2  0
 25 18  1  0
 26 25  2  0
 27 25  1  0
M  END
$$$$
