NMW.pdb
     RDKit          3D

 31 32  0  0  1  0  0  0  0  0999 V2000
   30.0013  -22.3931  -19.1095 N   0  0  0  0  0  0  0  0  0  0  0  0
   29.3342  -23.5969  -18.7863 C   0  0  0  0  0  0  0  0  0  0  0  0
   29.5606  -24.6502  -19.4312 O   0  0  0  0  0  0  0  0  0  0  0  0
   28.3608  -23.5932  -17.6701 C   0  0  0  0  0  0  0  0  0  0  0  0
   28.3306  -22.2117  -17.0492 C   0  0  2  0  0  0  0  0  0  0  0  0
   29.6130  -21.9603  -16.4540 N   0  0  0  0  0  0  0  0  0  0  0  0
   27.2352  -22.2227  -16.0425 C   0  0  0  0  0  0  0  0  0  0  0  0
   26.4441  -23.1996  -15.9721 O   0  0  0  0  0  0  0  0  0  0  0  0
   27.4742  -20.9078   -9.6057 C   0  0  0  0  0  0  0  0  0  0  0  0
   25.9793  -20.9158  -10.5632 S   0  0  0  0  0  0  0  0  0  0  0  0
   25.9146  -19.7493  -11.9008 C   0  0  0  0  0  0  0  0  0  0  0  0
   26.7441  -20.1160  -13.0738 C   0  0  0  0  0  0  0  0  0  0  0  0
   26.1619  -21.1020  -14.0345 C   0  0  2  0  0  0  0  0  0  0  0  0
   27.0999  -21.1301  -15.1762 N   0  0  0  0  0  0  0  0  0  0  0  0
   24.9037  -20.4872  -14.5624 C   0  0  0  0  0  0  0  0  0  0  0  0
   24.9827  -19.4745  -15.2816 O   0  0  0  0  0  0  0  0  0  0  0  0
   23.6294  -20.9798  -14.2990 N   0  0  0  0  0  0  0  0  0  0  0  0
   22.4268  -20.3548  -14.7795 C   0  0  1  0  0  0  0  0  0  0  0  0
   21.1869  -20.7820  -14.1754 C   0  0  0  0  0  0  0  0  0  0  0  0
   21.0124  -20.3428  -12.7822 C   0  0  0  0  0  0  0  0  0  0  0  0
   22.0241  -19.7805  -11.9823 C   0  0  0  0  0  0  0  0  0  0  0  0
   21.5720  -19.5257  -10.7548 N   0  0  0  0  0  0  0  0  0  0  0  0
   20.3011  -19.9004  -10.7242 C   0  0  0  0  0  0  0  0  0  0  0  0
   19.3749  -19.8231   -9.6786 C   0  0  0  0  0  0  0  0  0  0  0  0
   18.0794  -20.2481   -9.8627 C   0  0  0  0  0  0  0  0  0  0  0  0
   17.7225  -20.7479  -11.0955 C   0  0  0  0  0  0  0  0  0  0  0  0
   18.6304  -20.8272  -12.1282 C   0  0  0  0  0  0  0  0  0  0  0  0
   19.9253  -20.4041  -11.9461 C   0  0  0  0  0  0  0  0  0  0  0  0
   22.6256  -18.9171  -14.7607 C   0  0  0  0  0  0  0  0  0  0  0  0
   21.8002  -18.1162  -15.5342 O   0  0  0  0  0  0  0  0  0  0  0  0
   23.4939  -18.3064  -14.0966 O   0  0  0  0  0  0  0  0  0  0  0  0
  2  1  1  0
  3  2  2  0
  4  2  1  0
  5  6  1  1
  5  4  1  0
  7  5  1  0
  8  7  2  0
 10  9  1  0
 11 10  1  0
 12 11  1  0
 13 12  1  1
 13 14  1  0
 14  7  1  0
 15 13  1  0
 15 16  2  0
 17 15  1  0
 18 17  1  0
 18 19  1  1
 20 19  1  0
 20 21  2  0
 22 21  1  0
 23 22  1  0
 24 23  2  0
 25 24  1  0
 26 25  2  0
 26 27  1  0
 27 28  2  0
 28 23  1  0
 28 20  1  0
 29 18  1  0
 30 29  1  0
 31 29  2  0
M  END
$$$$
