NMW.pdb
     RDKit          3D

 31 32  0  0  1  0  0  0  0  0999 V2000
   28.9887  -18.7454  -16.8695 N   0  0  0  0  0  0  0  0  0  0  0  0
   27.6081  -18.7812  -17.1717 C   0  0  0  0  0  0  0  0  0  0  0  0
   27.1210  -18.0191  -18.0426 O   0  0  0  0  0  0  0  0  0  0  0  0
   26.7443  -19.7364  -16.4403 C   0  0  0  0  0  0  0  0  0  0  0  0
   27.5855  -20.4798  -15.4231 C   0  0  2  0  0  0  0  0  0  0  0  0
   28.3563  -21.4718  -16.1188 N   0  0  0  0  0  0  0  0  0  0  0  0
   26.6373  -21.0849  -14.4493 C   0  0  0  0  0  0  0  0  0  0  0  0
   25.8732  -22.0216  -14.8015 O   0  0  0  0  0  0  0  0  0  0  0  0
   25.0349  -20.1753   -6.6629 C   0  0  0  0  0  0  0  0  0  0  0  0
   25.9429  -19.8587   -8.1551 S   0  0  0  0  0  0  0  0  0  0  0  0
   25.3969  -20.7470   -9.5928 C   0  0  0  0  0  0  0  0  0  0  0  0
   26.1916  -20.4803  -10.8158 C   0  0  0  0  0  0  0  0  0  0  0  0
   25.7433  -21.1492  -12.0751 C   0  0  2  0  0  0  0  0  0  0  0  0
   26.6097  -20.5957  -13.1369 N   0  0  0  0  0  0  0  0  0  0  0  0
   24.3699  -20.6301  -12.3650 C   0  0  0  0  0  0  0  0  0  0  0  0
   24.1906  -19.4001  -12.4272 O   0  0  0  0  0  0  0  0  0  0  0  0
   23.2607  -21.4438  -12.5734 N   0  0  0  0  0  0  0  0  0  0  0  0
   21.9307  -20.9315  -12.7641 C   0  0  1  0  0  0  0  0  0  0  0  0
   21.5921  -20.4828  -14.0941 C   0  0  0  0  0  0  0  0  0  0  0  0
   21.8525  -19.0547  -14.3331 C   0  0  0  0  0  0  0  0  0  0  0  0
   22.8645  -18.5498  -15.1701 C   0  0  0  0  0  0  0  0  0  0  0  0
   22.8780  -17.2173  -15.1476 N   0  0  0  0  0  0  0  0  0  0  0  0
   21.9107  -16.8336  -14.3269 C   0  0  0  0  0  0  0  0  0  0  0  0
   21.4990  -15.5431  -13.9776 C   0  0  0  0  0  0  0  0  0  0  0  0
   20.4417  -15.3581  -13.1169 C   0  0  0  0  0  0  0  0  0  0  0  0
   19.8047  -16.4703  -12.6127 C   0  0  0  0  0  0  0  0  0  0  0  0
   20.2063  -17.7433  -12.9524 C   0  0  0  0  0  0  0  0  0  0  0  0
   21.2630  -17.9302  -13.8113 C   0  0  0  0  0  0  0  0  0  0  0  0
   20.9927  -21.8909  -12.2104 C   0  0  0  0  0  0  0  0  0  0  0  0
   19.6650  -21.5216  -12.0627 O   0  0  0  0  0  0  0  0  0  0  0  0
   21.2684  -23.0550  -11.8403 O   0  0  0  0  0  0  0  0  0  0  0  0
  2  1  1  0
  3  2  2  0
  4  2  1  0
  5  6  1  6
  5  4  1  0
  7  5  1  0
  8  7  2  0
 10  9  1  0
 11 10  1  0
 12 11  1  0
 13 12  1  1
 13 14  1  0
 14  7  1  0
 15 13  1  0
 15 16  2  0
 17 15  1  0
 18 17  1  0
 18 19  1  6
 20 19  1  0
 20 21  2  0
 22 21  1  0
 23 22  1  0
 24 23  2  0
 25 24  1  0
 26 25  2  0
 26 27  1  0
 27 28  2  0
 28 23  1  0
 28 20  1  0
 29 18  1  0
 30 29  1  0
 31 29  2  0
M  END
$$$$
