NMW.pdb
     RDKit          3D

 31 32  0  0  1  0  0  0  0  0999 V2000
   20.0130  -18.2284  -14.1918 N   0  0  0  0  0  0  0  0  0  0  0  0
   19.8507  -18.5255  -12.8192 C   0  0  0  0  0  0  0  0  0  0  0  0
   19.0968  -17.8291  -12.0958 O   0  0  0  0  0  0  0  0  0  0  0  0
   20.5879  -19.6762  -12.2484 C   0  0  0  0  0  0  0  0  0  0  0  0
   21.3126  -20.3984  -13.3657 C   0  0  2  0  0  0  0  0  0  0  0  0
   20.3712  -21.2568  -14.0283 N   0  0  0  0  0  0  0  0  0  0  0  0
   22.4196  -21.1621  -12.7295 C   0  0  0  0  0  0  0  0  0  0  0  0
   22.1792  -21.9808  -11.8037 O   0  0  0  0  0  0  0  0  0  0  0  0
   27.2233  -22.6900  -16.8001 C   0  0  0  0  0  0  0  0  0  0  0  0
   27.9653  -22.8030  -15.1913 S   0  0  0  0  0  0  0  0  0  0  0  0
   26.8346  -22.8452  -13.8223 C   0  0  0  0  0  0  0  0  0  0  0  0
   25.8890  -21.7042  -13.7737 C   0  0  0  0  0  0  0  0  0  0  0  0
   24.9006  -21.6899  -12.6525 C   0  0  2  0  0  0  0  0  0  0  0  0
   23.7307  -20.9550  -13.1774 N   0  0  0  0  0  0  0  0  0  0  0  0
   25.4812  -20.8138  -11.5869 C   0  0  0  0  0  0  0  0  0  0  0  0
   25.4318  -19.5783  -11.7285 O   0  0  0  0  0  0  0  0  0  0  0  0
   26.0827  -21.2957  -10.4286 N   0  0  0  0  0  0  0  0  0  0  0  0
   26.7673  -20.4531   -9.4856 C   0  0  1  0  0  0  0  0  0  0  0  0
   26.2479  -20.4304   -8.1386 C   0  0  0  0  0  0  0  0  0  0  0  0
   26.9381  -19.4900   -7.2421 C   0  0  0  0  0  0  0  0  0  0  0  0
   26.9536  -18.0919   -7.3991 C   0  0  0  0  0  0  0  0  0  0  0  0
   27.6983  -17.5166   -6.4553 N   0  0  0  0  0  0  0  0  0  0  0  0
   28.1690  -18.4884   -5.6868 C   0  0  0  0  0  0  0  0  0  0  0  0
   28.9807  -18.4108   -4.5501 C   0  0  0  0  0  0  0  0  0  0  0  0
   29.3405  -19.5524   -3.8717 C   0  0  0  0  0  0  0  0  0  0  0  0
   28.8828  -20.7644   -4.3392 C   0  0  0  0  0  0  0  0  0  0  0  0
   28.0842  -20.8469   -5.4584 C   0  0  0  0  0  0  0  0  0  0  0  0
   27.7244  -19.7078   -6.1381 C   0  0  0  0  0  0  0  0  0  0  0  0
   28.1866  -20.7468   -9.5639 C   0  0  0  0  0  0  0  0  0  0  0  0
   29.0714  -19.7130   -9.8274 O   0  0  0  0  0  0  0  0  0  0  0  0
   28.7107  -21.8740   -9.4135 O   0  0  0  0  0  0  0  0  0  0  0  0
  2  1  1  0
  3  2  2  0
  4  2  1  0
  5  6  1  1
  5  4  1  0
  7  5  1  0
  8  7  2  0
 10  9  1  0
 11 10  1  0
 12 11  1  0
 13 12  1  6
 13 14  1  0
 14  7  1  0
 15 13  1  0
 15 16  2  0
 17 15  1  0
 18 17  1  0
 18 19  1  1
 20 19  1  0
 20 21  2  0
 22 21  1  0
 23 22  1  0
 24 23  2  0
 25 24  1  0
 26 25  2  0
 26 27  1  0
 27 28  2  0
 28 23  1  0
 28 20  1  0
 29 18  1  0
 30 29  1  0
 31 29  2  0
M  END
$$$$
