NMW.pdb
     RDKit          3D

 31 32  0  0  1  0  0  0  0  0999 V2000
   25.0249  -25.7972  -17.9815 N   0  0  0  0  0  0  0  0  0  0  0  0
   24.9172  -26.5587  -16.7952 C   0  0  0  0  0  0  0  0  0  0  0  0
   24.8461  -27.8115  -16.8402 O   0  0  0  0  0  0  0  0  0  0  0  0
   24.8896  -25.8501  -15.4951 C   0  0  0  0  0  0  0  0  0  0  0  0
   25.0465  -24.3637  -15.7423 C   0  0  2  0  0  0  0  0  0  0  0  0
   26.4350  -24.0956  -15.9919 N   0  0  0  0  0  0  0  0  0  0  0  0
   24.5514  -23.6756  -14.5197 C   0  0  0  0  0  0  0  0  0  0  0  0
   23.4272  -23.9686  -14.0345 O   0  0  0  0  0  0  0  0  0  0  0  0
   25.3684  -19.7903   -8.2934 C   0  0  0  0  0  0  0  0  0  0  0  0
   25.5983  -20.9388   -9.6273 S   0  0  0  0  0  0  0  0  0  0  0  0
   26.0476  -20.2250  -11.1903 C   0  0  0  0  0  0  0  0  0  0  0  0
   26.1935  -21.2061  -12.2923 C   0  0  0  0  0  0  0  0  0  0  0  0
   24.9627  -21.9439  -12.7107 C   0  0  2  0  0  0  0  0  0  0  0  0
   25.3559  -22.6984  -13.9192 N   0  0  0  0  0  0  0  0  0  0  0  0
   23.9882  -20.9100  -13.1812 C   0  0  0  0  0  0  0  0  0  0  0  0
   23.4759  -20.1405  -12.3480 O   0  0  0  0  0  0  0  0  0  0  0  0
   23.6097  -20.7483  -14.5102 N   0  0  0  0  0  0  0  0  0  0  0  0
   22.6754  -19.7468  -14.9485 C   0  0  1  0  0  0  0  0  0  0  0  0
   23.0966  -18.8981  -16.0380 C   0  0  0  0  0  0  0  0  0  0  0  0
   22.0517  -17.9878  -16.5319 C   0  0  0  0  0  0  0  0  0  0  0  0
   21.5982  -16.8401  -15.8559 C   0  0  0  0  0  0  0  0  0  0  0  0
   20.6161  -16.2471  -16.5340 N   0  0  0  0  0  0  0  0  0  0  0  0
   20.4123  -16.9653  -17.6291 C   0  0  0  0  0  0  0  0  0  0  0  0
   19.5096  -16.7547  -18.6768 C   0  0  0  0  0  0  0  0  0  0  0  0
   19.4744  -17.6155  -19.7496 C   0  0  0  0  0  0  0  0  0  0  0  0
   20.3459  -18.6819  -19.7630 C   0  0  0  0  0  0  0  0  0  0  0  0
   21.2361  -18.8947  -18.7338 C   0  0  0  0  0  0  0  0  0  0  0  0
   21.2722  -18.0365  -17.6608 C   0  0  0  0  0  0  0  0  0  0  0  0
   21.3922  -20.3896  -15.1658 C   0  0  0  0  0  0  0  0  0  0  0  0
   20.2506  -19.7997  -14.6464 O   0  0  0  0  0  0  0  0  0  0  0  0
   21.2045  -21.4565  -15.7938 O   0  0  0  0  0  0  0  0  0  0  0  0
  2  1  1  0
  3  2  2  0
  4  2  1  0
  5  6  1  1
  5  4  1  0
  7  5  1  0
  8  7  2  0
 10  9  1  0
 11 10  1  0
 12 11  1  0
 13 12  1  6
 13 14  1  0
 14  7  1  0
 15 13  1  0
 15 16  2  0
 17 15  1  0
 18 17  1  0
 18 19  1  6
 20 19  1  0
 20 21  2  0
 22 21  1  0
 23 22  1  0
 24 23  2  0
 25 24  1  0
 26 25  2  0
 26 27  1  0
 27 28  2  0
 28 23  1  0
 28 20  1  0
 29 18  1  0
 30 29  1  0
 31 29  2  0
M  END
$$$$
