NMW.pdb
     RDKit          3D

 31 32  0  0  1  0  0  0  0  0999 V2000
   28.2026  -23.4163  -16.4892 N   0  0  0  0  0  0  0  0  0  0  0  0
   29.0248  -22.4102  -15.9320 C   0  0  0  0  0  0  0  0  0  0  0  0
   30.2724  -22.4515  -16.0681 O   0  0  0  0  0  0  0  0  0  0  0  0
   28.3863  -21.3037  -15.1830 C   0  0  0  0  0  0  0  0  0  0  0  0
   26.8930  -21.5509  -15.1194 C   0  0  2  0  0  0  0  0  0  0  0  0
   26.3500  -21.3520  -16.4338 N   0  0  0  0  0  0  0  0  0  0  0  0
   26.3443  -20.5833  -14.1314 C   0  0  0  0  0  0  0  0  0  0  0  0
   26.3104  -19.3528  -14.3957 O   0  0  0  0  0  0  0  0  0  0  0  0
   20.4963  -19.1902  -15.1648 C   0  0  0  0  0  0  0  0  0  0  0  0
   21.2724  -20.2237  -13.9479 S   0  0  0  0  0  0  0  0  0  0  0  0
   22.9178  -19.7531  -13.4732 C   0  0  0  0  0  0  0  0  0  0  0  0
   23.5693  -20.6822  -12.5189 C   0  0  0  0  0  0  0  0  0  0  0  0
   24.9354  -20.3127  -12.0381 C   0  0  2  0  0  0  0  0  0  0  0  0
   25.8672  -21.0640  -12.9051 N   0  0  0  0  0  0  0  0  0  0  0  0
   25.0817  -20.9128  -10.6749 C   0  0  0  0  0  0  0  0  0  0  0  0
   25.1668  -22.1497  -10.5663 O   0  0  0  0  0  0  0  0  0  0  0  0
   25.1298  -20.1685   -9.5004 N   0  0  0  0  0  0  0  0  0  0  0  0
   25.2726  -20.7591   -8.1971 C   0  0  1  0  0  0  0  0  0  0  0  0
   25.9173  -19.9542   -7.1865 C   0  0  0  0  0  0  0  0  0  0  0  0
   27.3838  -20.0700   -7.1684 C   0  0  0  0  0  0  0  0  0  0  0  0
   28.1665  -20.5548   -8.2324 C   0  0  0  0  0  0  0  0  0  0  0  0
   29.4567  -20.5800   -7.8993 N   0  0  0  0  0  0  0  0  0  0  0  0
   29.5452  -20.1283   -6.6564 C   0  0  0  0  0  0  0  0  0  0  0  0
   30.6770  -19.9382   -5.8565 C   0  0  0  0  0  0  0  0  0  0  0  0
   30.5538  -19.4265   -4.5854 C   0  0  0  0  0  0  0  0  0  0  0  0
   29.2948  -19.1089   -4.1259 C   0  0  0  0  0  0  0  0  0  0  0  0
   28.1768  -19.2948   -4.9087 C   0  0  0  0  0  0  0  0  0  0  0  0
   28.2977  -19.8069   -6.1785 C   0  0  0  0  0  0  0  0  0  0  0  0
   23.9808  -21.2846   -7.7947 C   0  0  0  0  0  0  0  0  0  0  0  0
   23.9128  -22.1286   -6.6973 O   0  0  0  0  0  0  0  0  0  0  0  0
   22.8865  -21.0468   -8.3550 O   0  0  0  0  0  0  0  0  0  0  0  0
  2  1  1  0
  3  2  2  0
  4  2  1  0
  5  6  1  6
  5  4  1  0
  7  5  1  0
  8  7  2  0
 10  9  1  0
 11 10  1  0
 12 11  1  0
 13 12  1  6
 13 14  1  0
 14  7  1  0
 15 13  1  0
 15 16  2  0
 17 15  1  0
 18 17  1  0
 18 19  1  1
 20 19  1  0
 20 21  2  0
 22 21  1  0
 23 22  1  0
 24 23  2  0
 25 24  1  0
 26 25  2  0
 26 27  1  0
 27 28  2  0
 28 23  1  0
 28 20  1  0
 29 18  1  0
 30 29  1  0
 31 29  2  0
M  END
$$$$
