NMW.pdb
     RDKit          3D

 31 32  0  0  1  0  0  0  0  0999 V2000
   18.3741  -21.3947  -12.2805 N   0  0  0  0  0  0  0  0  0  0  0  0
   19.0784  -20.9186  -11.1509 C   0  0  0  0  0  0  0  0  0  0  0  0
   18.5426  -20.9120  -10.0154 O   0  0  0  0  0  0  0  0  0  0  0  0
   20.4635  -20.4263  -11.3318 C   0  0  0  0  0  0  0  0  0  0  0  0
   20.8627  -20.6044  -12.7823 C   0  0  2  0  0  0  0  0  0  0  0  0
   20.6819  -21.9859  -13.1299 N   0  0  0  0  0  0  0  0  0  0  0  0
   22.2846  -20.1793  -12.8864 C   0  0  0  0  0  0  0  0  0  0  0  0
   22.6698  -19.1063  -12.3520 O   0  0  0  0  0  0  0  0  0  0  0  0
   26.5577  -20.7086   -9.4549 C   0  0  0  0  0  0  0  0  0  0  0  0
   26.1601  -20.5100  -11.1736 S   0  0  0  0  0  0  0  0  0  0  0  0
   25.6643  -21.9874  -12.0256 C   0  0  0  0  0  0  0  0  0  0  0  0
   25.4006  -21.8005  -13.4726 C   0  0  0  0  0  0  0  0  0  0  0  0
   24.5859  -20.6105  -13.8654 C   0  0  2  0  0  0  0  0  0  0  0  0
   23.1852  -20.9917  -13.5875 N   0  0  0  0  0  0  0  0  0  0  0  0
   24.6853  -20.5016  -15.3548 C   0  0  0  0  0  0  0  0  0  0  0  0
   24.7943  -21.5416  -16.0296 O   0  0  0  0  0  0  0  0  0  0  0  0
   24.6638  -19.2955  -16.0478 N   0  0  0  0  0  0  0  0  0  0  0  0
   24.6298  -19.2103  -17.4829 C   0  0  1  0  0  0  0  0  0  0  0  0
   23.6049  -18.3726  -18.0596 C   0  0  0  0  0  0  0  0  0  0  0  0
   23.4362  -17.0758  -17.3857 C   0  0  0  0  0  0  0  0  0  0  0  0
   24.2411  -15.9430  -17.6058 C   0  0  0  0  0  0  0  0  0  0  0  0
   23.8692  -14.9359  -16.8163 N   0  0  0  0  0  0  0  0  0  0  0  0
   22.8497  -15.3695  -16.0889 C   0  0  0  0  0  0  0  0  0  0  0  0
   22.0898  -14.6935  -15.1285 C   0  0  0  0  0  0  0  0  0  0  0  0
   21.0424  -15.3247  -14.4980 C   0  0  0  0  0  0  0  0  0  0  0  0
   20.7650  -16.6307  -14.8363 C   0  0  0  0  0  0  0  0  0  0  0  0
   21.5104  -17.3016  -15.7805 C   0  0  0  0  0  0  0  0  0  0  0  0
   22.5577  -16.6731  -16.4107 C   0  0  0  0  0  0  0  0  0  0  0  0
   25.9700  -18.9057  -17.9497 C   0  0  0  0  0  0  0  0  0  0  0  0
   26.2878  -19.1450  -19.2775 O   0  0  0  0  0  0  0  0  0  0  0  0
   26.8985  -18.4344  -17.2541 O   0  0  0  0  0  0  0  0  0  0  0  0
  2  1  1  0
  3  2  2  0
  4  2  1  0
  5  6  1  1
  5  4  1  0
  7  5  1  0
  8  7  2  0
 10  9  1  0
 11 10  1  0
 12 11  1  0
 13 12  1  6
 13 14  1  0
 14  7  1  0
 15 13  1  0
 15 16  2  0
 17 15  1  0
 18 17  1  0
 18 19  1  1
 20 19  1  0
 20 21  2  0
 22 21  1  0
 23 22  1  0
 24 23  2  0
 25 24  1  0
 26 25  2  0
 26 27  1  0
 27 28  2  0
 28 23  1  0
 28 20  1  0
 29 18  1  0
 30 29  1  0
 31 29  2  0
M  END
$$$$
