VAR.pdb
     RDKit          3D

 24 23  0  0  1  0  0  0  0  0999 V2000
    9.4320  -14.8331   17.9647 C   0  0  0  0  0  0  0  0  0  0  0  0
    7.9369  -14.6581   18.1311 C   0  0  2  0  0  0  0  0  0  0  0  0
    7.3525  -14.4341   16.7464 C   0  0  0  0  0  0  0  0  0  0  0  0
    7.7001  -13.4780   19.0455 C   0  0  2  0  0  0  0  0  0  0  0  0
    8.3242  -12.3372   18.3973 N   0  0  0  0  0  0  0  0  0  0  0  0
    8.3213  -13.7591   20.3608 C   0  0  0  0  0  0  0  0  0  0  0  0
    9.5488  -13.6154   20.5841 O   0  0  0  0  0  0  0  0  0  0  0  0
    7.0596  -15.1705   23.6866 C   0  0  0  0  0  0  0  0  0  0  0  0
    8.0909  -14.6743   22.7028 C   0  0  2  0  0  0  0  0  0  0  0  0
    7.5442  -14.2161   21.4656 N   0  0  0  0  0  0  0  0  0  0  0  0
    9.1503  -15.6665   22.5730 C   0  0  0  0  0  0  0  0  0  0  0  0
    9.1469  -16.6235   21.7265 O   0  0  0  0  0  0  0  0  0  0  0  0
   17.2110  -14.0726   21.0834 N   0  0  0  0  0  0  0  0  0  0  0  0
   16.2812  -14.6330   20.1745 C   0  0  0  0  0  0  0  0  0  0  0  0
   16.4283  -14.4044   18.9285 N   0  0  0  0  0  0  0  0  0  0  0  0
   15.1942  -15.4467   20.6599 N   0  0  0  0  0  0  0  0  0  0  0  0
   14.9781  -15.5746   22.0492 C   0  0  0  0  0  0  0  0  0  0  0  0
   13.8476  -16.4077   22.5442 C   0  0  0  0  0  0  0  0  0  0  0  0
   12.5283  -15.7838   22.7241 C   0  0  0  0  0  0  0  0  0  0  0  0
   11.3967  -16.5844   23.2767 C   0  0  2  0  0  0  0  0  0  0  0  0
   10.2803  -15.6007   23.4238 N   0  0  0  0  0  0  0  0  0  0  0  0
   11.7650  -17.0615   24.6399 C   0  0  0  0  0  0  0  0  0  0  0  0
   11.2647  -16.5419   25.6406 O   0  0  0  0  0  0  0  0  0  0  0  0
   12.6908  -18.1089   24.7126 O   0  0  0  0  0  0  0  0  0  0  0  0
  2  1  1  6
  3  2  1  0
  4  2  1  0
  4  5  1  6
  6  4  1  0
  6  7  2  0
  9  8  1  1
  9 10  1  0
 10  6  1  0
 11  9  1  0
 11 12  2  0
 13 14  1  0
 14 15  2  0
 16 14  1  0
 16 17  1  0
 18 17  1  0
 19 18  1  0
 20 21  1  0
 20 19  1  1
 21 11  1  0
 22 20  1  0
 23 22  2  0
 24 22  1  0
M  END
$$$$
