VAR.pdb
     RDKit          3D

 24 23  0  0  1  0  0  0  0  0999 V2000
    7.8265  -12.3602   26.8871 C   0  0  0  0  0  0  0  0  0  0  0  0
    6.8782  -11.8036   25.8456 C   0  0  2  0  0  0  0  0  0  0  0  0
    6.1327  -10.6457   26.4878 C   0  0  0  0  0  0  0  0  0  0  0  0
    5.9448  -12.9132   25.4182 C   0  0  2  0  0  0  0  0  0  0  0  0
    5.3038  -13.3877   26.6326 N   0  0  0  0  0  0  0  0  0  0  0  0
    6.7385  -13.9842   24.7717 C   0  0  0  0  0  0  0  0  0  0  0  0
    7.3070  -14.9002   25.4160 O   0  0  0  0  0  0  0  0  0  0  0  0
    7.7242  -14.8352   21.1739 C   0  0  0  0  0  0  0  0  0  0  0  0
    7.6031  -15.0661   22.6605 C   0  0  2  0  0  0  0  0  0  0  0  0
    6.9025  -14.0343   23.3561 N   0  0  0  0  0  0  0  0  0  0  0  0
    8.9147  -15.3901   23.2067 C   0  0  0  0  0  0  0  0  0  0  0  0
    9.7779  -14.5252   23.5800 O   0  0  0  0  0  0  0  0  0  0  0  0
    8.4990  -21.2334   27.0232 N   0  0  0  0  0  0  0  0  0  0  0  0
    7.9583  -19.9450   27.2522 C   0  0  0  0  0  0  0  0  0  0  0  0
    6.6909  -19.8030   27.2488 N   0  0  0  0  0  0  0  0  0  0  0  0
    8.8337  -18.8232   27.4858 N   0  0  0  0  0  0  0  0  0  0  0  0
    9.6283  -18.3208   26.4326 C   0  0  0  0  0  0  0  0  0  0  0  0
    9.8307  -19.1424   25.2074 C   0  0  0  0  0  0  0  0  0  0  0  0
   10.5968  -18.5753   24.0878 C   0  0  0  0  0  0  0  0  0  0  0  0
   10.6465  -17.0965   23.8947 C   0  0  2  0  0  0  0  0  0  0  0  0
    9.2982  -16.7454   23.3519 N   0  0  0  0  0  0  0  0  0  0  0  0
   11.6558  -16.7817   22.8440 C   0  0  0  0  0  0  0  0  0  0  0  0
   11.3451  -16.8086   21.6504 O   0  0  0  0  0  0  0  0  0  0  0  0
   12.9455  -16.4621   23.2842 O   0  0  0  0  0  0  0  0  0  0  0  0
  2  1  1  1
  3  2  1  0
  4  2  1  0
  4  5  1  1
  6  4  1  0
  6  7  2  0
  9  8  1  6
  9 10  1  0
 10  6  1  0
 11  9  1  0
 11 12  2  0
 13 14  1  0
 14 15  2  0
 16 14  1  0
 16 17  1  0
 18 17  1  0
 19 18  1  0
 20 21  1  0
 20 19  1  6
 21 11  1  0
 22 20  1  0
 23 22  2  0
 24 22  1  0
M  END
$$$$
