VAR.pdb
     RDKit          3D

 24 23  0  0  1  0  0  0  0  0999 V2000
    5.5369  -12.8761   27.0640 C   0  0  0  0  0  0  0  0  0  0  0  0
    6.9564  -12.4292   27.3447 C   0  0  2  0  0  0  0  0  0  0  0  0
    6.9497  -10.9105   27.3922 C   0  0  0  0  0  0  0  0  0  0  0  0
    7.8436  -12.9593   26.2416 C   0  0  2  0  0  0  0  0  0  0  0  0
    7.2591  -12.4901   24.9970 N   0  0  0  0  0  0  0  0  0  0  0  0
    7.8578  -14.4393   26.3080 C   0  0  0  0  0  0  0  0  0  0  0  0
    8.3654  -15.0779   27.2630 O   0  0  0  0  0  0  0  0  0  0  0  0
    6.0342  -17.2771   24.6888 C   0  0  0  0  0  0  0  0  0  0  0  0
    7.2922  -16.6618   25.2515 C   0  0  2  0  0  0  0  0  0  0  0  0
    7.2847  -15.2338   25.2719 N   0  0  0  0  0  0  0  0  0  0  0  0
    8.4528  -17.2579   24.6026 C   0  0  0  0  0  0  0  0  0  0  0  0
    8.6730  -18.5140   24.5233 O   0  0  0  0  0  0  0  0  0  0  0  0
    9.4682  -13.0363   18.8892 N   0  0  0  0  0  0  0  0  0  0  0  0
    8.2330  -13.7260   18.9474 C   0  0  0  0  0  0  0  0  0  0  0  0
    7.1846  -13.1429   18.5146 N   0  0  0  0  0  0  0  0  0  0  0  0
    8.1744  -15.0625   19.4857 N   0  0  0  0  0  0  0  0  0  0  0  0
    9.3236  -15.6343   20.0736 C   0  0  0  0  0  0  0  0  0  0  0  0
    9.6651  -15.3113   21.4865 C   0  0  0  0  0  0  0  0  0  0  0  0
   10.7932  -16.0067   22.1236 C   0  0  0  0  0  0  0  0  0  0  0  0
   10.5364  -17.0139   23.1943 C   0  0  2  0  0  0  0  0  0  0  0  0
    9.4275  -16.4228   24.0046 N   0  0  0  0  0  0  0  0  0  0  0  0
   11.7401  -17.1047   24.0686 C   0  0  0  0  0  0  0  0  0  0  0  0
   11.7040  -16.6846   25.2279 O   0  0  0  0  0  0  0  0  0  0  0  0
   12.8853  -17.6814   23.5070 O   0  0  0  0  0  0  0  0  0  0  0  0
  2  1  1  6
  3  2  1  0
  4  2  1  0
  4  5  1  6
  6  4  1  0
  6  7  2  0
  9  8  1  6
  9 10  1  0
 10  6  1  0
 11  9  1  0
 11 12  2  0
 13 14  1  0
 14 15  2  0
 16 14  1  0
 16 17  1  0
 18 17  1  0
 19 18  1  0
 20 21  1  0
 20 19  1  6
 21 11  1  0
 22 20  1  0
 23 22  2  0
 24 22  1  0
M  END
$$$$
