VAR.pdb
     RDKit          3D

 24 23  0  0  1  0  0  0  0  0999 V2000
    7.1157  -14.1315   18.0232 C   0  0  0  0  0  0  0  0  0  0  0  0
    7.6559  -14.4941   19.3908 C   0  0  2  0  0  0  0  0  0  0  0  0
    6.8291  -15.6596   19.9074 C   0  0  0  0  0  0  0  0  0  0  0  0
    7.5406  -13.2773   20.2801 C   0  0  2  0  0  0  0  0  0  0  0  0
    8.2885  -12.2233   19.6162 N   0  0  0  0  0  0  0  0  0  0  0  0
    8.1182  -13.5970   21.6064 C   0  0  0  0  0  0  0  0  0  0  0  0
    9.3156  -13.9394   21.7683 O   0  0  0  0  0  0  0  0  0  0  0  0
    6.8063  -13.6612   25.1991 C   0  0  0  0  0  0  0  0  0  0  0  0
    7.7734  -13.9641   24.0806 C   0  0  2  0  0  0  0  0  0  0  0  0
    7.3310  -13.5314   22.7936 N   0  0  0  0  0  0  0  0  0  0  0  0
    8.1700  -15.3645   24.1520 C   0  0  0  0  0  0  0  0  0  0  0  0
    7.3721  -16.3519   24.0071 O   0  0  0  0  0  0  0  0  0  0  0  0
   12.9962  -18.7155   18.9489 N   0  0  0  0  0  0  0  0  0  0  0  0
   11.7373  -18.6734   19.5955 C   0  0  0  0  0  0  0  0  0  0  0  0
   11.1191  -19.7691   19.8049 N   0  0  0  0  0  0  0  0  0  0  0  0
   11.1761  -17.4103   20.0067 N   0  0  0  0  0  0  0  0  0  0  0  0
   11.4294  -16.9184   21.3055 C   0  0  0  0  0  0  0  0  0  0  0  0
   11.2565  -17.8180   22.4794 C   0  0  0  0  0  0  0  0  0  0  0  0
   11.2274  -17.2322   23.8278 C   0  0  0  0  0  0  0  0  0  0  0  0
    9.9340  -17.1260   24.5643 C   0  0  2  0  0  0  0  0  0  0  0  0
    9.5245  -15.6978   24.3956 N   0  0  0  0  0  0  0  0  0  0  0  0
   10.1854  -17.3586   26.0149 C   0  0  0  0  0  0  0  0  0  0  0  0
   10.4835  -18.4831   26.4255 O   0  0  0  0  0  0  0  0  0  0  0  0
   10.0650  -16.2503   26.8614 O   0  0  0  0  0  0  0  0  0  0  0  0
  2  1  1  6
  3  2  1  0
  4  2  1  0
  4  5  1  6
  6  4  1  0
  6  7  2  0
  9  8  1  1
  9 10  1  0
 10  6  1  0
 11  9  1  0
 11 12  2  0
 13 14  1  0
 14 15  2  0
 16 14  1  0
 16 17  1  0
 18 17  1  0
 19 18  1  0
 20 21  1  0
 20 19  1  6
 21 11  1  0
 22 20  1  0
 23 22  2  0
 24 22  1  0
M  END
$$$$
