VAR.pdb
     RDKit          3D

 24 23  0  0  1  0  0  0  0  0999 V2000
    7.5641  -12.5285   18.8371 C   0  0  0  0  0  0  0  0  0  0  0  0
    7.8012  -13.6053   19.8753 C   0  0  2  0  0  0  0  0  0  0  0  0
    8.3014  -12.9157   21.1336 C   0  0  0  0  0  0  0  0  0  0  0  0
    8.8149  -14.5794   19.3199 C   0  0  2  0  0  0  0  0  0  0  0  0
    8.2031  -15.1646   18.1392 N   0  0  0  0  0  0  0  0  0  0  0  0
    9.1024  -15.6085   20.3463 C   0  0  0  0  0  0  0  0  0  0  0  0
    8.2766  -16.4941   20.6793 O   0  0  0  0  0  0  0  0  0  0  0  0
   12.1804  -16.8273   22.1926 C   0  0  0  0  0  0  0  0  0  0  0  0
   10.6968  -16.5998   22.0347 C   0  0  2  0  0  0  0  0  0  0  0  0
   10.3563  -15.6501   21.0239 N   0  0  0  0  0  0  0  0  0  0  0  0
   10.1069  -16.3397   23.3416 C   0  0  0  0  0  0  0  0  0  0  0  0
   10.1606  -15.2178   23.9505 O   0  0  0  0  0  0  0  0  0  0  0  0
    7.0270  -21.2991   25.1005 N   0  0  0  0  0  0  0  0  0  0  0  0
    5.7684  -21.2209   24.4565 C   0  0  0  0  0  0  0  0  0  0  0  0
    4.9899  -22.2296   24.5083 N   0  0  0  0  0  0  0  0  0  0  0  0
    5.3846  -20.0178   23.7602 N   0  0  0  0  0  0  0  0  0  0  0  0
    6.2886  -18.9367   23.6746 C   0  0  0  0  0  0  0  0  0  0  0  0
    6.5465  -18.0967   24.8767 C   0  0  0  0  0  0  0  0  0  0  0  0
    7.8412  -18.2144   25.5637 C   0  0  0  0  0  0  0  0  0  0  0  0
    8.8730  -17.1501   25.3922 C   0  0  2  0  0  0  0  0  0  0  0  0
    9.4162  -17.3748   24.0173 N   0  0  0  0  0  0  0  0  0  0  0  0
    9.9784  -17.3904   26.3628 C   0  0  0  0  0  0  0  0  0  0  0  0
   11.0229  -17.9364   25.9984 O   0  0  0  0  0  0  0  0  0  0  0  0
    9.7635  -16.9691   27.6802 O   0  0  0  0  0  0  0  0  0  0  0  0
  2  1  1  6
  3  2  1  0
  4  2  1  0
  4  5  1  6
  6  4  1  0
  6  7  2  0
  9  8  1  1
  9 10  1  0
 10  6  1  0
 11  9  1  0
 11 12  2  0
 13 14  1  0
 14 15  2  0
 16 14  1  0
 16 17  1  0
 18 17  1  0
 19 18  1  0
 20 21  1  0
 20 19  1  1
 21 11  1  0
 22 20  1  0
 23 22  2  0
 24 22  1  0
M  END
$$$$
