VAR.pdb
     RDKit          3D

 24 23  0  0  1  0  0  0  0  0999 V2000
    6.8835  -14.6087   19.0583 C   0  0  0  0  0  0  0  0  0  0  0  0
    7.4663  -13.3846   19.7333 C   0  0  2  0  0  0  0  0  0  0  0  0
    7.3996  -12.2433   18.7323 C   0  0  0  0  0  0  0  0  0  0  0  0
    8.8874  -13.7025   20.1386 C   0  0  2  0  0  0  0  0  0  0  0  0
    9.5786  -14.0766   18.9166 N   0  0  0  0  0  0  0  0  0  0  0  0
    8.8693  -14.8184   21.1129 C   0  0  0  0  0  0  0  0  0  0  0  0
    8.2457  -14.7678   22.2019 O   0  0  0  0  0  0  0  0  0  0  0  0
   10.2994  -18.3670   21.1855 C   0  0  0  0  0  0  0  0  0  0  0  0
    9.5399  -17.1764   21.7178 C   0  0  2  0  0  0  0  0  0  0  0  0
    9.5720  -16.0336   20.8619 N   0  0  0  0  0  0  0  0  0  0  0  0
    9.9459  -16.9213   23.0939 C   0  0  0  0  0  0  0  0  0  0  0  0
   10.9799  -16.2513   23.4320 O   0  0  0  0  0  0  0  0  0  0  0  0
    7.8062  -11.1530   27.0419 N   0  0  0  0  0  0  0  0  0  0  0  0
    6.6963  -11.9555   26.6830 C   0  0  0  0  0  0  0  0  0  0  0  0
    5.5338  -11.6022   27.0707 N   0  0  0  0  0  0  0  0  0  0  0  0
    6.8887  -13.1459   25.8922 N   0  0  0  0  0  0  0  0  0  0  0  0
    7.5047  -14.2791   26.4665 C   0  0  0  0  0  0  0  0  0  0  0  0
    7.6545  -15.5222   25.6608 C   0  0  0  0  0  0  0  0  0  0  0  0
    8.3642  -16.6694   26.2461 C   0  0  0  0  0  0  0  0  0  0  0  0
    9.5855  -17.2072   25.5784 C   0  0  2  0  0  0  0  0  0  0  0  0
    9.1673  -17.4324   24.1606 N   0  0  0  0  0  0  0  0  0  0  0  0
    9.9138  -18.5345   26.1719 C   0  0  0  0  0  0  0  0  0  0  0  0
    9.5972  -19.5752   25.5901 O   0  0  0  0  0  0  0  0  0  0  0  0
   10.5863  -18.5273   27.3995 O   0  0  0  0  0  0  0  0  0  0  0  0
  2  1  1  6
  3  2  1  0
  4  2  1  0
  4  5  1  6
  6  4  1  0
  6  7  2  0
  9  8  1  6
  9 10  1  0
 10  6  1  0
 11  9  1  0
 11 12  2  0
 13 14  1  0
 14 15  2  0
 16 14  1  0
 16 17  1  0
 18 17  1  0
 19 18  1  0
 20 21  1  0
 20 19  1  1
 21 11  1  0
 22 20  1  0
 23 22  2  0
 24 22  1  0
M  END
$$$$
