LIM.pdb
     RDKit          3D

 25 24  0  0  1  0  0  0  0  0999 V2000
    8.2782  -20.6840   27.8272 C   0  0  0  0  0  0  0  0  0  0  0  0
    7.2290  -20.2130   26.8544 C   0  0  1  0  0  0  0  0  0  0  0  0
    5.8760  -20.2782   27.5674 C   0  0  0  0  0  0  0  0  0  0  0  0
    7.4277  -18.8056   26.4296 C   0  0  0  0  0  0  0  0  0  0  0  0
    6.4550  -18.2468   25.4511 C   0  0  2  0  0  0  0  0  0  0  0  0
    5.9711  -19.2217   24.5141 N   0  0  0  0  0  0  0  0  0  0  0  0
    6.9282  -16.9861   24.8445 C   0  0  0  0  0  0  0  0  0  0  0  0
    7.4136  -16.9824   23.6841 O   0  0  0  0  0  0  0  0  0  0  0  0
    4.5015  -12.3662   25.6260 C   0  0  0  0  0  0  0  0  0  0  0  0
    5.4176  -13.2465   24.8723 C   0  0  0  0  0  0  0  0  0  0  0  0
    6.8349  -13.3364   25.2258 C   0  0  2  0  0  0  0  0  0  0  0  0
    7.5418  -12.0941   24.5966 C   0  0  0  0  0  0  0  0  0  0  0  0
    7.6381  -14.5508   24.9907 C   0  0  2  0  0  0  0  0  0  0  0  0
    6.8734  -15.7316   25.5036 N   0  0  0  0  0  0  0  0  0  0  0  0
    9.0066  -14.6305   25.5186 C   0  0  0  0  0  0  0  0  0  0  0  0
    9.4814  -13.8913   26.4117 O   0  0  0  0  0  0  0  0  0  0  0  0
   11.0968  -15.0330   30.1902 C   0  0  0  0  0  0  0  0  0  0  0  0
   12.1613  -16.3849   29.6466 S   0  0  0  0  0  0  0  0  0  0  0  0
   12.3537  -16.3055   27.8463 C   0  0  0  0  0  0  0  0  0  0  0  0
   11.0239  -16.0743   27.1615 C   0  0  0  0  0  0  0  0  0  0  0  0
   11.2115  -15.8216   25.6732 C   0  0  2  0  0  0  0  0  0  0  0  0
    9.9392  -15.6169   25.0149 N   0  0  0  0  0  0  0  0  0  0  0  0
   12.0064  -16.8852   25.0358 C   0  0  0  0  0  0  0  0  0  0  0  0
   11.3785  -17.9748   24.4785 O   0  0  0  0  0  0  0  0  0  0  0  0
   13.2504  -16.7985   25.0010 O   0  0  0  0  0  0  0  0  0  0  0  0
  2  4  1  0
  2  1  1  1
  2  3  1  0
  5  6  1  6
  5  4  1  0
  7  5  1  0
  8  7  2  0
  9 10  1  0
 10 11  1  0
 11 13  1  0
 11 12  1  6
 13 14  1  1
 14  7  1  0
 15 13  1  0
 15 16  2  0
 18 17  1  0
 19 20  1  0
 19 18  1  0
 21 20  1  1
 21 22  1  0
 22 15  1  0
 23 21  1  0
 24 23  1  0
 25 23  2  0
M  END
$$$$
