LIM.pdb
     RDKit          3D

 25 24  0  0  1  0  0  0  0  0999 V2000
    7.5650  -22.2513   24.5712 C   0  0  0  0  0  0  0  0  0  0  0  0
    6.4031  -21.3058   24.7301 C   0  0  1  0  0  0  0  0  0  0  0  0
    6.1482  -21.1358   26.2299 C   0  0  0  0  0  0  0  0  0  0  0  0
    6.6802  -19.9556   24.1817 C   0  0  0  0  0  0  0  0  0  0  0  0
    5.6311  -18.9165   24.3705 C   0  0  2  0  0  0  0  0  0  0  0  0
    4.3815  -19.2542   23.7487 N   0  0  0  0  0  0  0  0  0  0  0  0
    6.1249  -17.5572   24.0705 C   0  0  0  0  0  0  0  0  0  0  0  0
    6.0738  -17.1074   22.8970 O   0  0  0  0  0  0  0  0  0  0  0  0
    5.7974  -13.1623   27.4704 C   0  0  0  0  0  0  0  0  0  0  0  0
    5.9146  -13.9529   26.2281 C   0  0  0  0  0  0  0  0  0  0  0  0
    7.2127  -14.4550   25.7757 C   0  0  2  0  0  0  0  0  0  0  0  0
    8.1234  -13.2101   25.5311 C   0  0  0  0  0  0  0  0  0  0  0  0
    7.3515  -15.4122   24.6623 C   0  0  2  0  0  0  0  0  0  0  0  0
    6.6750  -16.6907   25.0492 N   0  0  0  0  0  0  0  0  0  0  0  0
    8.6881  -15.7415   24.1494 C   0  0  0  0  0  0  0  0  0  0  0  0
    9.4396  -16.6326   24.6083 O   0  0  0  0  0  0  0  0  0  0  0  0
    7.6836  -12.5787   18.8713 C   0  0  0  0  0  0  0  0  0  0  0  0
    9.3137  -12.8715   19.5877 S   0  0  0  0  0  0  0  0  0  0  0  0
    9.3620  -14.5377   20.2988 C   0  0  0  0  0  0  0  0  0  0  0  0
   10.6595  -14.7817   21.0389 C   0  0  0  0  0  0  0  0  0  0  0  0
   10.4150  -15.5335   22.3386 C   0  0  2  0  0  0  0  0  0  0  0  0
    9.2491  -15.0211   23.0256 N   0  0  0  0  0  0  0  0  0  0  0  0
   11.6118  -15.5412   23.1971 C   0  0  0  0  0  0  0  0  0  0  0  0
   12.7807  -16.1077   22.7448 O   0  0  0  0  0  0  0  0  0  0  0  0
   11.5660  -15.0334   24.3357 O   0  0  0  0  0  0  0  0  0  0  0  0
  2  4  1  0
  2  1  1  1
  2  3  1  0
  5  6  1  6
  5  4  1  0
  7  5  1  0
  8  7  2  0
  9 10  1  0
 10 11  1  0
 11 13  1  0
 11 12  1  6
 13 14  1  1
 14  7  1  0
 15 13  1  0
 15 16  2  0
 18 17  1  0
 19 20  1  0
 19 18  1  0
 21 20  1  6
 21 22  1  0
 22 15  1  0
 23 21  1  0
 24 23  1  0
 25 23  2  0
M  END
$$$$
