LIM.pdb
     RDKit          3D

 25 24  0  0  1  0  0  0  0  0999 V2000
    5.3156  -21.3652   23.9290 C   0  0  0  0  0  0  0  0  0  0  0  0
    5.4888  -20.1857   23.0083 C   0  0  1  0  0  0  0  0  0  0  0  0
    4.1419  -19.9300   22.3273 C   0  0  0  0  0  0  0  0  0  0  0  0
    5.8533  -18.9412   23.7288 C   0  0  0  0  0  0  0  0  0  0  0  0
    6.1856  -17.7490   22.9018 C   0  0  2  0  0  0  0  0  0  0  0  0
    6.4625  -18.0710   21.5299 N   0  0  0  0  0  0  0  0  0  0  0  0
    7.1878  -16.8775   23.5479 C   0  0  0  0  0  0  0  0  0  0  0  0
    8.4142  -17.0455   23.3245 O   0  0  0  0  0  0  0  0  0  0  0  0
    5.9636  -12.1040   26.7053 C   0  0  0  0  0  0  0  0  0  0  0  0
    6.1219  -13.3037   25.8580 C   0  0  0  0  0  0  0  0  0  0  0  0
    7.4046  -13.6139   25.2254 C   0  0  2  0  0  0  0  0  0  0  0  0
    7.4135  -12.8983   23.8373 C   0  0  0  0  0  0  0  0  0  0  0  0
    7.9121  -14.9919   25.0894 C   0  0  2  0  0  0  0  0  0  0  0  0
    6.8524  -15.8252   24.4376 N   0  0  0  0  0  0  0  0  0  0  0  0
    8.3897  -15.7111   26.2780 C   0  0  0  0  0  0  0  0  0  0  0  0
    7.7469  -16.5888   26.8991 O   0  0  0  0  0  0  0  0  0  0  0  0
   12.1124  -21.1261   29.4216 C   0  0  0  0  0  0  0  0  0  0  0  0
   11.5004  -20.1650   28.0223 S   0  0  0  0  0  0  0  0  0  0  0  0
   11.0850  -18.4927   28.5836 C   0  0  0  0  0  0  0  0  0  0  0  0
   10.5382  -17.6526   27.4496 C   0  0  0  0  0  0  0  0  0  0  0  0
   10.2131  -16.2430   27.9202 C   0  0  2  0  0  0  0  0  0  0  0  0
    9.6981  -15.4369   26.8344 N   0  0  0  0  0  0  0  0  0  0  0  0
   11.3644  -15.6123   28.5878 C   0  0  0  0  0  0  0  0  0  0  0  0
   12.0455  -14.5904   27.9682 O   0  0  0  0  0  0  0  0  0  0  0  0
   11.7229  -16.0046   29.7164 O   0  0  0  0  0  0  0  0  0  0  0  0
  2  4  1  0
  2  1  1  1
  2  3  1  0
  5  6  1  6
  5  4  1  0
  7  5  1  0
  8  7  2  0
  9 10  1  0
 10 11  1  0
 11 13  1  0
 11 12  1  6
 13 14  1  1
 14  7  1  0
 15 13  1  0
 15 16  2  0
 18 17  1  0
 19 20  1  0
 19 18  1  0
 21 20  1  6
 21 22  1  0
 22 15  1  0
 23 21  1  0
 24 23  1  0
 25 23  2  0
M  END
$$$$
