LIM.pdb
     RDKit          3D

 25 24  0  0  1  0  0  0  0  0999 V2000
    2.6555  -18.2730   21.2770 C   0  0  0  0  0  0  0  0  0  0  0  0
    3.7364  -18.6454   22.2579 C   0  0  1  0  0  0  0  0  0  0  0  0
    4.2557  -20.0316   21.8682 C   0  0  0  0  0  0  0  0  0  0  0  0
    4.8956  -17.7207   22.2161 C   0  0  0  0  0  0  0  0  0  0  0  0
    5.9743  -17.9366   23.2189 C   0  0  2  0  0  0  0  0  0  0  0  0
    5.4921  -18.4657   24.4639 N   0  0  0  0  0  0  0  0  0  0  0  0
    6.8659  -16.7661   23.3472 C   0  0  0  0  0  0  0  0  0  0  0  0
    7.4521  -16.3002   22.3366 O   0  0  0  0  0  0  0  0  0  0  0  0
    5.6248  -12.6746   26.7659 C   0  0  0  0  0  0  0  0  0  0  0  0
    6.1970  -13.3898   25.6069 C   0  0  0  0  0  0  0  0  0  0  0  0
    7.5248  -14.0008   25.6808 C   0  0  2  0  0  0  0  0  0  0  0  0
    8.5466  -12.8442   25.9198 C   0  0  0  0  0  0  0  0  0  0  0  0
    8.0345  -14.9235   24.6493 C   0  0  2  0  0  0  0  0  0  0  0  0
    7.1186  -16.1059   24.5767 N   0  0  0  0  0  0  0  0  0  0  0  0
    9.4139  -15.4209   24.7369 C   0  0  0  0  0  0  0  0  0  0  0  0
   10.4447  -14.7175   24.6268 O   0  0  0  0  0  0  0  0  0  0  0  0
   10.8228  -13.0708   28.3775 C   0  0  0  0  0  0  0  0  0  0  0  0
   11.2860  -14.6632   29.0887 S   0  0  0  0  0  0  0  0  0  0  0  0
   11.6751  -15.8229   27.7515 C   0  0  0  0  0  0  0  0  0  0  0  0
   10.4362  -16.5535   27.2802 C   0  0  0  0  0  0  0  0  0  0  0  0
   10.6762  -17.2285   25.9383 C   0  0  2  0  0  0  0  0  0  0  0  0
    9.6825  -16.8250   24.9669 N   0  0  0  0  0  0  0  0  0  0  0  0
   10.7648  -18.6926   26.0728 C   0  0  0  0  0  0  0  0  0  0  0  0
   11.9461  -19.2785   26.4642 O   0  0  0  0  0  0  0  0  0  0  0  0
    9.7677  -19.4025   25.8318 O   0  0  0  0  0  0  0  0  0  0  0  0
  2  4  1  0
  2  1  1  6
  2  3  1  0
  5  6  1  1
  5  4  1  0
  7  5  1  0
  8  7  2  0
  9 10  1  0
 10 11  1  0
 11 13  1  0
 11 12  1  6
 13 14  1  1
 14  7  1  0
 15 13  1  0
 15 16  2  0
 18 17  1  0
 19 20  1  0
 19 18  1  0
 21 20  1  1
 21 22  1  0
 22 15  1  0
 23 21  1  0
 24 23  1  0
 25 23  2  0
M  END
$$$$
