LIM.pdb
     RDKit          3D

 25 24  0  0  1  0  0  0  0  0999 V2000
    6.2976  -19.8781   21.0169 C   0  0  0  0  0  0  0  0  0  0  0  0
    6.4177  -18.3863   20.8453 C   0  0  1  0  0  0  0  0  0  0  0  0
    5.0011  -17.8064   20.8430 C   0  0  0  0  0  0  0  0  0  0  0  0
    7.1506  -17.7357   21.9590 C   0  0  0  0  0  0  0  0  0  0  0  0
    7.1692  -16.2474   21.9832 C   0  0  2  0  0  0  0  0  0  0  0  0
    7.4591  -15.6641   20.7034 N   0  0  0  0  0  0  0  0  0  0  0  0
    7.9697  -15.7127   23.1033 C   0  0  0  0  0  0  0  0  0  0  0  0
    9.2037  -15.5129   22.9638 O   0  0  0  0  0  0  0  0  0  0  0  0
    6.0150  -11.7450   26.0600 C   0  0  0  0  0  0  0  0  0  0  0  0
    7.0495  -12.6078   25.4538 C   0  0  0  0  0  0  0  0  0  0  0  0
    7.5571  -13.7841   26.1613 C   0  0  2  0  0  0  0  0  0  0  0  0
    8.3849  -13.2624   27.3785 C   0  0  0  0  0  0  0  0  0  0  0  0
    8.2862  -14.8696   25.4793 C   0  0  2  0  0  0  0  0  0  0  0  0
    7.4248  -15.3980   24.3743 N   0  0  0  0  0  0  0  0  0  0  0  0
    8.7813  -16.0132   26.2572 C   0  0  0  0  0  0  0  0  0  0  0  0
    8.0624  -16.8434   26.8599 O   0  0  0  0  0  0  0  0  0  0  0  0
   13.8824  -20.0627   24.8963 C   0  0  0  0  0  0  0  0  0  0  0  0
   14.0357  -19.7628   26.6691 S   0  0  0  0  0  0  0  0  0  0  0  0
   12.4510  -19.1625   27.3115 C   0  0  0  0  0  0  0  0  0  0  0  0
   11.9877  -17.9294   26.5661 C   0  0  0  0  0  0  0  0  0  0  0  0
   10.6768  -17.4070   27.1341 C   0  0  2  0  0  0  0  0  0  0  0  0
   10.2016  -16.2652   26.3827 N   0  0  0  0  0  0  0  0  0  0  0  0
   10.7820  -17.1235   28.5755 C   0  0  0  0  0  0  0  0  0  0  0  0
   10.7467  -18.1547   29.4851 O   0  0  0  0  0  0  0  0  0  0  0  0
   10.9033  -15.9471   28.9727 O   0  0  0  0  0  0  0  0  0  0  0  0
  2  4  1  0
  2  1  1  1
  2  3  1  0
  5  6  1  6
  5  4  1  0
  7  5  1  0
  8  7  2  0
  9 10  1  0
 10 11  1  0
 11 13  1  0
 11 12  1  1
 13 14  1  6
 14  7  1  0
 15 13  1  0
 15 16  2  0
 18 17  1  0
 19 20  1  0
 19 18  1  0
 21 20  1  6
 21 22  1  0
 22 15  1  0
 23 21  1  0
 24 23  1  0
 25 23  2  0
M  END
$$$$
