LIM.pdb
     RDKit          3D

 25 24  0  0  1  0  0  0  0  0999 V2000
   11.5234  -21.6861   20.2122 C   0  0  0  0  0  0  0  0  0  0  0  0
   10.4554  -20.7246   19.7604 C   0  0  1  0  0  0  0  0  0  0  0  0
    9.1005  -21.3993   19.9886 C   0  0  0  0  0  0  0  0  0  0  0  0
   10.4485  -19.4632   20.5410 C   0  0  0  0  0  0  0  0  0  0  0  0
    9.4200  -18.4481   20.1838 C   0  0  2  0  0  0  0  0  0  0  0  0
    9.0990  -18.4358   18.7841 N   0  0  0  0  0  0  0  0  0  0  0  0
    9.7132  -17.1217   20.7637 C   0  0  0  0  0  0  0  0  0  0  0  0
   10.8769  -16.6476   20.7090 O   0  0  0  0  0  0  0  0  0  0  0  0
    7.0063  -13.0014   19.0239 C   0  0  0  0  0  0  0  0  0  0  0  0
    8.0712  -13.7918   19.6744 C   0  0  0  0  0  0  0  0  0  0  0  0
    8.0644  -14.0167   21.1205 C   0  0  2  0  0  0  0  0  0  0  0  0
    8.0551  -12.6109   21.8007 C   0  0  0  0  0  0  0  0  0  0  0  0
    9.0355  -14.8997   21.7930 C   0  0  2  0  0  0  0  0  0  0  0  0
    8.7383  -16.3147   21.4038 N   0  0  0  0  0  0  0  0  0  0  0  0
    9.1730  -14.8489   23.2547 C   0  0  0  0  0  0  0  0  0  0  0  0
    9.9500  -14.0926   23.8821 O   0  0  0  0  0  0  0  0  0  0  0  0
    6.2857  -11.9153   27.7730 C   0  0  0  0  0  0  0  0  0  0  0  0
    7.4742  -12.2826   26.4658 S   0  0  0  0  0  0  0  0  0  0  0  0
    6.8452  -13.6487   25.4547 C   0  0  0  0  0  0  0  0  0  0  0  0
    7.1477  -14.9881   26.0915 C   0  0  0  0  0  0  0  0  0  0  0  0
    8.4397  -15.5752   25.5436 C   0  0  2  0  0  0  0  0  0  0  0  0
    8.3803  -15.7128   24.1043 N   0  0  0  0  0  0  0  0  0  0  0  0
    8.7903  -16.8397   26.2124 C   0  0  0  0  0  0  0  0  0  0  0  0
    8.9930  -17.9792   25.4693 O   0  0  0  0  0  0  0  0  0  0  0  0
    8.9037  -16.8780   27.4542 O   0  0  0  0  0  0  0  0  0  0  0  0
  2  4  1  0
  2  1  1  1
  2  3  1  0
  5  6  1  6
  5  4  1  0
  7  5  1  0
  8  7  2  0
  9 10  1  0
 10 11  1  0
 11 13  1  0
 11 12  1  1
 13 14  1  1
 14  7  1  0
 15 13  1  0
 15 16  2  0
 18 17  1  0
 19 20  1  0
 19 18  1  0
 21 20  1  1
 21 22  1  0
 22 15  1  0
 23 21  1  0
 24 23  1  0
 25 23  2  0
M  END
$$$$
