LIM.pdb
     RDKit          3D

 25 24  0  0  1  0  0  0  0  0999 V2000
    6.3967  -11.1433   27.1663 C   0  0  0  0  0  0  0  0  0  0  0  0
    5.8657  -12.4681   26.6845 C   0  0  1  0  0  0  0  0  0  0  0  0
    4.7082  -12.1801   25.7251 C   0  0  0  0  0  0  0  0  0  0  0  0
    6.8724  -13.2509   25.9266 C   0  0  0  0  0  0  0  0  0  0  0  0
    6.4282  -14.5465   25.3436 C   0  0  2  0  0  0  0  0  0  0  0  0
    5.9206  -15.4642   26.3246 N   0  0  0  0  0  0  0  0  0  0  0  0
    7.4267  -15.1189   24.4179 C   0  0  0  0  0  0  0  0  0  0  0  0
    8.0711  -16.1507   24.7375 O   0  0  0  0  0  0  0  0  0  0  0  0
    7.1515  -13.1158   19.4175 C   0  0  0  0  0  0  0  0  0  0  0  0
    7.3154  -14.2794   20.3126 C   0  0  0  0  0  0  0  0  0  0  0  0
    8.6154  -14.5945   20.9062 C   0  0  2  0  0  0  0  0  0  0  0  0
    9.3973  -15.4536   19.8624 C   0  0  0  0  0  0  0  0  0  0  0  0
    8.7544  -15.1807   22.2524 C   0  0  2  0  0  0  0  0  0  0  0  0
    7.7227  -14.5652   23.1462 N   0  0  0  0  0  0  0  0  0  0  0  0
   10.0499  -15.1182   22.9421 C   0  0  0  0  0  0  0  0  0  0  0  0
   10.6353  -14.0658   23.2876 O   0  0  0  0  0  0  0  0  0  0  0  0
   11.4503  -15.6106   29.8748 C   0  0  0  0  0  0  0  0  0  0  0  0
   10.4242  -15.5727   28.3909 S   0  0  0  0  0  0  0  0  0  0  0  0
   11.3209  -16.3582   27.0258 C   0  0  0  0  0  0  0  0  0  0  0  0
   10.5693  -16.2140   25.7199 C   0  0  0  0  0  0  0  0  0  0  0  0
   11.4949  -16.4198   24.5303 C   0  0  2  0  0  0  0  0  0  0  0  0
   10.7677  -16.3287   23.2825 N   0  0  0  0  0  0  0  0  0  0  0  0
   12.2567  -17.6751   24.6434 C   0  0  0  0  0  0  0  0  0  0  0  0
   11.8730  -18.7816   23.9219 O   0  0  0  0  0  0  0  0  0  0  0  0
   13.2512  -17.7358   25.3941 O   0  0  0  0  0  0  0  0  0  0  0  0
  2  4  1  0
  2  1  1  6
  2  3  1  0
  5  6  1  1
  5  4  1  0
  7  5  1  0
  8  7  2  0
  9 10  1  0
 10 11  1  0
 11 13  1  0
 11 12  1  6
 13 14  1  1
 14  7  1  0
 15 13  1  0
 15 16  2  0
 18 17  1  0
 19 20  1  0
 19 18  1  0
 21 20  1  1
 21 22  1  0
 22 15  1  0
 23 21  1  0
 24 23  1  0
 25 23  2  0
M  END
$$$$
