DRR.pdb
     RDKit          3D

 31 30  0  0  1  0  0  0  0  0999 V2000
   26.9584  -19.0044  -19.3662 N   0  0  0  0  0  0  0  0  0  0  0  0
   27.1727  -18.4562  -18.0533 C   0  0  1  0  0  0  0  0  0  0  0  0
   28.1109  -17.2809  -18.0786 C   0  0  0  0  0  0  0  0  0  0  0  0
   29.4191  -17.6665  -18.6459 C   0  0  0  0  0  0  0  0  0  0  0  0
   29.5768  -18.8578  -19.0662 O   0  0  0  0  0  0  0  0  0  0  0  0
   25.8310  -18.0657  -17.5074 C   0  0  0  0  0  0  0  0  0  0  0  0
   25.6969  -17.6547  -16.3301 O   0  0  0  0  0  0  0  0  0  0  0  0
   30.4895  -16.7982  -18.7466 O   0  0  0  0  0  0  0  0  0  0  0  0
   18.1974  -18.4945  -18.8352 N   0  0  0  0  0  0  0  0  0  0  0  0
   17.9862  -17.0972  -18.9765 C   0  0  0  0  0  0  0  0  0  0  0  0
   16.8570  -16.5641  -18.6585 N   0  0  0  0  0  0  0  0  0  0  0  0
   18.9928  -16.2193  -19.4697 N   0  0  0  0  0  0  0  0  0  0  0  0
   20.2840  -16.7381  -19.8494 C   0  0  0  0  0  0  0  0  0  0  0  0
   21.0680  -17.0560  -18.5836 C   0  0  0  0  0  0  0  0  0  0  0  0
   22.4564  -17.4535  -18.9649 C   0  0  0  0  0  0  0  0  0  0  0  0
   23.3273  -17.8073  -17.7894 C   0  0  2  0  0  0  0  0  0  0  0  0
   24.6526  -18.1427  -18.2933 N   0  0  0  0  0  0  0  0  0  0  0  0
   22.7883  -18.9310  -16.9600 C   0  0  0  0  0  0  0  0  0  0  0  0
   23.3217  -20.0685  -16.9663 O   0  0  0  0  0  0  0  0  0  0  0  0
   16.7427  -15.5465  -18.7584 N   0  0  0  0  0  0  0  0  0  0  0  0
   26.2225  -21.2908  -10.7430 C   0  0  0  0  0  0  0  0  0  0  0  0
   26.0365  -21.6918  -12.0973 N   0  0  0  0  0  0  0  0  0  0  0  0
   26.9365  -22.3338  -12.7397 N   0  0  0  0  0  0  0  0  0  0  0  0
   24.8146  -21.3551  -12.7180 C   0  0  0  0  0  0  0  0  0  0  0  0
   23.8858  -20.4671  -11.9564 C   0  0  0  0  0  0  0  0  0  0  0  0
   22.6780  -20.2983  -12.7912 C   0  0  0  0  0  0  0  0  0  0  0  0
   22.6824  -19.6170  -14.0865 C   0  0  2  0  0  0  0  0  0  0  0  0
   21.4506  -19.4804  -14.8471 N   0  0  0  0  0  0  0  0  0  0  0  0
   21.6535  -18.7710  -16.1297 C   0  0  0  0  0  0  0  0  0  0  0  0
   20.1864  -19.1075  -14.2448 O   0  0  0  0  0  0  0  0  0  0  0  0
   19.4685  -20.0464  -13.6539 O   0  0  0  0  0  0  0  0  0  0  0  0
  2  1  1  6
  3  2  1  0
  3  4  1  0
  4  8  1  0
  4  5  2  0
  6  7  2  0
  6  2  1  0
  9 10  1  0
 10 12  1  0
 11 10  2  0
 12 13  1  0
 13 14  1  0
 14 15  1  0
 16 15  1  6
 16 17  1  0
 17  6  1  0
 18 19  2  0
 18 16  1  0
 20 21  1  0
 21 23  1  0
 21 22  2  0
 23 24  1  0
 25 24  1  0
 25 26  1  0
 27 26  1  6
 27 29  1  0
 27 28  1  0
 28 18  1  0
 29 31  1  0
 30 29  2  0
M  END
$$$$
