DRR.pdb
     RDKit          3D

 31 30  0  0  1  0  0  0  0  0999 V2000
   28.5511  -22.4000  -12.0667 N   0  0  0  0  0  0  0  0  0  0  0  0
   27.9337  -21.5036  -11.1258 C   0  0  1  0  0  0  0  0  0  0  0  0
   28.9303  -20.5653  -10.5027 C   0  0  0  0  0  0  0  0  0  0  0  0
   30.1327  -21.2982  -10.0567 C   0  0  0  0  0  0  0  0  0  0  0  0
   30.1511  -22.5666  -10.1634 O   0  0  0  0  0  0  0  0  0  0  0  0
   26.8666  -20.7485  -11.8619 C   0  0  0  0  0  0  0  0  0  0  0  0
   26.6674  -19.5275  -11.6560 O   0  0  0  0  0  0  0  0  0  0  0  0
   31.2477  -20.6777   -9.5260 O   0  0  0  0  0  0  0  0  0  0  0  0
   25.7549  -18.2575  -19.5612 N   0  0  0  0  0  0  0  0  0  0  0  0
   26.6449  -18.5034  -18.4821 C   0  0  0  0  0  0  0  0  0  0  0  0
   27.8258  -17.9879  -18.4691 N   0  0  0  0  0  0  0  0  0  0  0  0
   26.2902  -19.3201  -17.3712 N   0  0  0  0  0  0  0  0  0  0  0  0
   25.0438  -20.0462  -17.3745 C   0  0  0  0  0  0  0  0  0  0  0  0
   24.4733  -20.0326  -15.9630 C   0  0  0  0  0  0  0  0  0  0  0  0
   25.4757  -20.6346  -15.0334 C   0  0  0  0  0  0  0  0  0  0  0  0
   25.0242  -20.6671  -13.5979 C   0  0  2  0  0  0  0  0  0  0  0  0
   26.0332  -21.3767  -12.8226 N   0  0  0  0  0  0  0  0  0  0  0  0
   23.6817  -21.3011  -13.4053 C   0  0  0  0  0  0  0  0  0  0  0  0
   23.5328  -22.5483  -13.4321 O   0  0  0  0  0  0  0  0  0  0  0  0
   28.4511  -18.1990  -17.6796 N   0  0  0  0  0  0  0  0  0  0  0  0
   16.3815  -23.7101  -13.4368 C   0  0  0  0  0  0  0  0  0  0  0  0
   15.8681  -22.6884  -12.5871 N   0  0  0  0  0  0  0  0  0  0  0  0
   14.6508  -22.6856  -12.1959 N   0  0  0  0  0  0  0  0  0  0  0  0
   16.7532  -21.6655  -12.1846 C   0  0  0  0  0  0  0  0  0  0  0  0
   18.1358  -21.6999  -12.7490 C   0  0  0  0  0  0  0  0  0  0  0  0
   18.8393  -20.5104  -12.2251 C   0  0  0  0  0  0  0  0  0  0  0  0
   20.1695  -20.0978  -12.6751 C   0  0  2  0  0  0  0  0  0  0  0  0
   21.1519  -21.0948  -13.0695 N   0  0  0  0  0  0  0  0  0  0  0  0
   22.5150  -20.5310  -13.1849 C   0  0  0  0  0  0  0  0  0  0  0  0
   20.9094  -22.0768  -14.1073 O   0  0  0  0  0  0  0  0  0  0  0  0
   20.5964  -23.3093  -13.7480 O   0  0  0  0  0  0  0  0  0  0  0  0
  2  1  1  6
  3  2  1  0
  3  4  1  0
  4  8  1  0
  4  5  2  0
  6  7  2  0
  6  2  1  0
  9 10  1  0
 10 12  1  0
 11 10  2  0
 12 13  1  0
 13 14  1  0
 14 15  1  0
 16 15  1  6
 16 17  1  0
 17  6  1  0
 18 19  2  0
 18 16  1  0
 20 21  1  0
 21 23  1  0
 21 22  2  0
 23 24  1  0
 25 24  1  0
 25 26  1  0
 27 26  1  1
 27 29  1  0
 27 28  1  0
 28 18  1  0
 29 31  1  0
 30 29  2  0
M  END
$$$$
