DRR.pdb
     RDKit          3D

 31 30  0  0  1  0  0  0  0  0999 V2000
   28.0337  -19.5177  -16.4329 N   0  0  0  0  0  0  0  0  0  0  0  0
   27.0636  -20.4222  -16.9905 C   0  0  1  0  0  0  0  0  0  0  0  0
   27.7094  -21.5205  -17.7895 C   0  0  0  0  0  0  0  0  0  0  0  0
   28.2528  -20.9954  -19.0587 C   0  0  0  0  0  0  0  0  0  0  0  0
   27.8627  -19.8541  -19.4660 O   0  0  0  0  0  0  0  0  0  0  0  0
   26.2656  -20.9808  -15.8494 C   0  0  0  0  0  0  0  0  0  0  0  0
   25.4135  -21.8839  -16.0260 O   0  0  0  0  0  0  0  0  0  0  0  0
   29.1689  -21.6803  -19.8344 O   0  0  0  0  0  0  0  0  0  0  0  0
   26.9163  -19.4175   -7.1382 N   0  0  0  0  0  0  0  0  0  0  0  0
   25.8997  -20.3912   -7.3262 C   0  0  0  0  0  0  0  0  0  0  0  0
   24.9911  -20.5789   -6.4321 N   0  0  0  0  0  0  0  0  0  0  0  0
   25.8269  -21.2028   -8.4937 N   0  0  0  0  0  0  0  0  0  0  0  0
   26.5436  -20.8225   -9.6863 C   0  0  0  0  0  0  0  0  0  0  0  0
   25.6625  -21.1148  -10.8930 C   0  0  0  0  0  0  0  0  0  0  0  0
   26.4092  -20.7483  -12.1337 C   0  0  0  0  0  0  0  0  0  0  0  0
   25.6259  -20.9755  -13.3988 C   0  0  2  0  0  0  0  0  0  0  0  0
   26.4348  -20.5157  -14.5201 N   0  0  0  0  0  0  0  0  0  0  0  0
   24.2920  -20.2960  -13.4088 C   0  0  0  0  0  0  0  0  0  0  0  0
   24.1850  -19.0533  -13.2577 O   0  0  0  0  0  0  0  0  0  0  0  0
   24.2841  -21.3100   -6.5883 N   0  0  0  0  0  0  0  0  0  0  0  0
   21.3809  -16.2772  -17.3135 C   0  0  0  0  0  0  0  0  0  0  0  0
   20.0663  -16.1079  -16.7912 N   0  0  0  0  0  0  0  0  0  0  0  0
   19.5653  -14.9490  -16.5894 N   0  0  0  0  0  0  0  0  0  0  0  0
   19.3232  -17.2715  -16.4985 C   0  0  0  0  0  0  0  0  0  0  0  0
   20.0328  -18.5806  -16.6170 C   0  0  0  0  0  0  0  0  0  0  0  0
   20.5636  -18.9002  -15.2753 C   0  0  0  0  0  0  0  0  0  0  0  0
   21.2727  -20.1422  -14.9642 C   0  0  2  0  0  0  0  0  0  0  0  0
   21.7418  -20.3994  -13.6120 N   0  0  0  0  0  0  0  0  0  0  0  0
   23.0867  -21.0158  -13.5875 C   0  0  0  0  0  0  0  0  0  0  0  0
   20.8980  -20.9590  -12.5752 O   0  0  0  0  0  0  0  0  0  0  0  0
   19.9626  -20.1929  -12.0421 O   0  0  0  0  0  0  0  0  0  0  0  0
  2  1  1  1
  3  2  1  0
  3  4  1  0
  4  8  1  0
  4  5  2  0
  6  7  2  0
  6  2  1  0
  9 10  1  0
 10 12  1  0
 11 10  2  0
 12 13  1  0
 13 14  1  0
 14 15  1  0
 16 15  1  1
 16 17  1  0
 17  6  1  0
 18 19  2  0
 18 16  1  0
 20 21  1  0
 21 23  1  0
 21 22  2  0
 23 24  1  0
 25 24  1  0
 25 26  1  0
 27 26  1  1
 27 29  1  0
 27 28  1  0
 28 18  1  0
 29 31  1  0
 30 29  2  0
M  END
$$$$
