DRR.pdb
     RDKit          3D

 31 30  0  0  1  0  0  0  0  0999 V2000
   23.1770  -14.1685  -19.6865 N   0  0  0  0  0  0  0  0  0  0  0  0
   24.3980  -14.7910  -20.1246 C   0  0  1  0  0  0  0  0  0  0  0  0
   25.6145  -14.0660  -19.6184 C   0  0  0  0  0  0  0  0  0  0  0  0
   25.7407  -12.7418  -20.2605 C   0  0  0  0  0  0  0  0  0  0  0  0
   25.2331  -11.7290  -19.6797 O   0  0  0  0  0  0  0  0  0  0  0  0
   24.3742  -16.2110  -19.6413 C   0  0  0  0  0  0  0  0  0  0  0  0
   23.9246  -17.1388  -20.3554 O   0  0  0  0  0  0  0  0  0  0  0  0
   26.3848  -12.5402  -21.4665 O   0  0  0  0  0  0  0  0  0  0  0  0
   27.7717  -22.3533  -16.3148 N   0  0  0  0  0  0  0  0  0  0  0  0
   28.5929  -21.3428  -16.8819 C   0  0  0  0  0  0  0  0  0  0  0  0
   29.4774  -21.6330  -17.7729 N   0  0  0  0  0  0  0  0  0  0  0  0
   28.4884  -19.9738  -16.5051 N   0  0  0  0  0  0  0  0  0  0  0  0
   27.4708  -19.5547  -15.5726 C   0  0  0  0  0  0  0  0  0  0  0  0
   26.1472  -19.4495  -16.3173 C   0  0  0  0  0  0  0  0  0  0  0  0
   26.0756  -18.1151  -16.9848 C   0  0  0  0  0  0  0  0  0  0  0  0
   24.8605  -17.9402  -17.8556 C   0  0  2  0  0  0  0  0  0  0  0  0
   24.8569  -16.5722  -18.3572 N   0  0  0  0  0  0  0  0  0  0  0  0
   23.5718  -18.2387  -17.1546 C   0  0  0  0  0  0  0  0  0  0  0  0
   23.0444  -17.4140  -16.3671 O   0  0  0  0  0  0  0  0  0  0  0  0
   30.0642  -20.8787  -18.1542 N   0  0  0  0  0  0  0  0  0  0  0  0
   15.6619  -19.1071  -18.1629 C   0  0  0  0  0  0  0  0  0  0  0  0
   15.7092  -18.6740  -16.8065 N   0  0  0  0  0  0  0  0  0  0  0  0
   14.6775  -18.7074  -16.0520 N   0  0  0  0  0  0  0  0  0  0  0  0
   16.9436  -18.2001  -16.3132 C   0  0  0  0  0  0  0  0  0  0  0  0
   18.0643  -18.0714  -17.2923 C   0  0  0  0  0  0  0  0  0  0  0  0
   19.1449  -18.9633  -16.8223 C   0  0  0  0  0  0  0  0  0  0  0  0
   20.5578  -18.7558  -17.1433 C   0  0  1  0  0  0  0  0  0  0  0  0
   21.5462  -19.7603  -16.7846 N   0  0  0  0  0  0  0  0  0  0  0  0
   22.8841  -19.4615  -17.3413 C   0  0  0  0  0  0  0  0  0  0  0  0
   21.2769  -21.1837  -16.8225 O   0  0  0  0  0  0  0  0  0  0  0  0
   20.5891  -21.7216  -15.8307 O   0  0  0  0  0  0  0  0  0  0  0  0
  2  1  1  1
  3  2  1  0
  3  4  1  0
  4  8  1  0
  4  5  2  0
  6  7  2  0
  6  2  1  0
  9 10  1  0
 10 12  1  0
 11 10  2  0
 12 13  1  0
 13 14  1  0
 14 15  1  0
 16 15  1  1
 16 17  1  0
 17  6  1  0
 18 19  2  0
 18 16  1  0
 20 21  1  0
 21 23  1  0
 21 22  2  0
 23 24  1  0
 25 24  1  0
 25 26  1  0
 27 26  1  1
 27 29  1  0
 27 28  1  0
 28 18  1  0
 29 31  1  0
 30 29  2  0
M  END
$$$$
