DRR.pdb
     RDKit          3D

 31 30  0  0  1  0  0  0  0  0999 V2000
   28.4820  -19.6652  -16.4433 N   0  0  0  0  0  0  0  0  0  0  0  0
   27.5490  -20.7578  -16.5183 C   0  0  1  0  0  0  0  0  0  0  0  0
   28.0695  -21.8877  -17.3635 C   0  0  0  0  0  0  0  0  0  0  0  0
   28.2439  -21.4565  -18.7654 C   0  0  0  0  0  0  0  0  0  0  0  0
   29.2516  -21.8828  -19.4161 O   0  0  0  0  0  0  0  0  0  0  0  0
   27.2790  -21.2123  -15.1142 C   0  0  0  0  0  0  0  0  0  0  0  0
   26.3335  -21.9922  -14.8484 O   0  0  0  0  0  0  0  0  0  0  0  0
   27.3661  -20.6093  -19.4148 O   0  0  0  0  0  0  0  0  0  0  0  0
   33.2718  -23.0076  -10.5856 N   0  0  0  0  0  0  0  0  0  0  0  0
   32.3548  -22.3857   -9.6972 C   0  0  0  0  0  0  0  0  0  0  0  0
   32.3636  -22.6618   -8.4386 N   0  0  0  0  0  0  0  0  0  0  0  0
   31.3887  -21.4374  -10.1382 N   0  0  0  0  0  0  0  0  0  0  0  0
   31.4555  -20.9043  -11.4769 C   0  0  0  0  0  0  0  0  0  0  0  0
   30.2877  -21.4633  -12.2780 C   0  0  0  0  0  0  0  0  0  0  0  0
   29.0300  -20.7985  -11.8226 C   0  0  0  0  0  0  0  0  0  0  0  0
   27.8218  -21.1677  -12.6407 C   0  0  2  0  0  0  0  0  0  0  0  0
   28.0768  -20.7831  -14.0227 N   0  0  0  0  0  0  0  0  0  0  0  0
   26.5528  -20.5402  -12.1537 C   0  0  0  0  0  0  0  0  0  0  0  0
   26.2944  -19.3288  -12.3641 O   0  0  0  0  0  0  0  0  0  0  0  0
   31.7281  -22.1483   -7.8131 N   0  0  0  0  0  0  0  0  0  0  0  0
   20.9235  -23.8402  -14.5429 C   0  0  0  0  0  0  0  0  0  0  0  0
   19.8621  -23.2951  -13.7646 N   0  0  0  0  0  0  0  0  0  0  0  0
   18.8526  -23.9979  -13.4154 N   0  0  0  0  0  0  0  0  0  0  0  0
   19.9578  -21.9391  -13.3853 C   0  0  0  0  0  0  0  0  0  0  0  0
   21.1692  -21.1898  -13.8352 C   0  0  0  0  0  0  0  0  0  0  0  0
   21.9804  -20.9277  -12.6280 C   0  0  0  0  0  0  0  0  0  0  0  0
   23.3998  -21.2684  -12.5214 C   0  0  2  0  0  0  0  0  0  0  0  0
   24.1544  -20.9019  -11.3336 N   0  0  0  0  0  0  0  0  0  0  0  0
   25.5825  -21.2762  -11.4329 C   0  0  0  0  0  0  0  0  0  0  0  0
   23.6589  -21.1068   -9.9873 O   0  0  0  0  0  0  0  0  0  0  0  0
   24.3279  -21.9173   -9.1861 O   0  0  0  0  0  0  0  0  0  0  0  0
  2  1  1  1
  3  2  1  0
  3  4  1  0
  4  8  1  0
  4  5  2  0
  6  7  2  0
  6  2  1  0
  9 10  1  0
 10 12  1  0
 11 10  2  0
 12 13  1  0
 13 14  1  0
 14 15  1  0
 16 15  1  1
 16 17  1  0
 17  6  1  0
 18 19  2  0
 18 16  1  0
 20 21  1  0
 21 23  1  0
 21 22  2  0
 23 24  1  0
 25 24  1  0
 25 26  1  0
 27 26  1  6
 27 29  1  0
 27 28  1  0
 28 18  1  0
 29 31  1  0
 30 29  2  0
M  END
$$$$
