DRR.pdb
     RDKit          3D

 31 30  0  0  1  0  0  0  0  0999 V2000
   27.4926  -21.5649  -17.6317 N   0  0  0  0  0  0  0  0  0  0  0  0
   27.8446  -20.5009  -16.7294 C   0  0  1  0  0  0  0  0  0  0  0  0
   27.0290  -19.2610  -16.9731 C   0  0  0  0  0  0  0  0  0  0  0  0
   27.3965  -18.6364  -18.2603 C   0  0  0  0  0  0  0  0  0  0  0  0
   28.4560  -19.0255  -18.8491 O   0  0  0  0  0  0  0  0  0  0  0  0
   27.6451  -21.0140  -15.3338 C   0  0  0  0  0  0  0  0  0  0  0  0
   26.8227  -21.9269  -15.0826 O   0  0  0  0  0  0  0  0  0  0  0  0
   26.6473  -17.6451  -18.8653 O   0  0  0  0  0  0  0  0  0  0  0  0
   33.6237  -22.0200   -9.4518 N   0  0  0  0  0  0  0  0  0  0  0  0
   33.0294  -22.5478  -10.6288 C   0  0  0  0  0  0  0  0  0  0  0  0
   33.7056  -23.2940  -11.4328 N   0  0  0  0  0  0  0  0  0  0  0  0
   31.6753  -22.2871  -10.9829 N   0  0  0  0  0  0  0  0  0  0  0  0
   30.8771  -21.3903  -10.1833 C   0  0  0  0  0  0  0  0  0  0  0  0
   29.4630  -21.3698  -10.7469 C   0  0  0  0  0  0  0  0  0  0  0  0
   29.5231  -20.9594  -12.1819 C   0  0  0  0  0  0  0  0  0  0  0  0
   28.1792  -20.9344  -12.8592 C   0  0  2  0  0  0  0  0  0  0  0  0
   28.3740  -20.4929  -14.2340 N   0  0  0  0  0  0  0  0  0  0  0  0
   27.1767  -20.0608  -12.1714 C   0  0  0  0  0  0  0  0  0  0  0  0
   27.0331  -18.8521  -12.4829 O   0  0  0  0  0  0  0  0  0  0  0  0
   33.2625  -23.6134  -12.3048 N   0  0  0  0  0  0  0  0  0  0  0  0
   19.3728  -21.5518  -12.9253 C   0  0  0  0  0  0  0  0  0  0  0  0
   19.6279  -20.2955  -13.5468 N   0  0  0  0  0  0  0  0  0  0  0  0
   18.6894  -19.4631  -13.7944 N   0  0  0  0  0  0  0  0  0  0  0  0
   20.9637  -19.9922  -13.8864 C   0  0  0  0  0  0  0  0  0  0  0  0
   21.9918  -21.0397  -13.6084 C   0  0  0  0  0  0  0  0  0  0  0  0
   22.7569  -20.5830  -12.4294 C   0  0  0  0  0  0  0  0  0  0  0  0
   24.2052  -20.7470  -12.2957 C   0  0  2  0  0  0  0  0  0  0  0  0
   24.8797  -20.3367  -11.0745 N   0  0  0  0  0  0  0  0  0  0  0  0
   26.3426  -20.5493  -11.1376 C   0  0  0  0  0  0  0  0  0  0  0  0
   24.3708  -20.6361   -9.7511 O   0  0  0  0  0  0  0  0  0  0  0  0
   25.0108  -21.5290   -9.0168 O   0  0  0  0  0  0  0  0  0  0  0  0
  2  1  1  6
  3  2  1  0
  3  4  1  0
  4  8  1  0
  4  5  2  0
  6  7  2  0
  6  2  1  0
  9 10  1  0
 10 12  1  0
 11 10  2  0
 12 13  1  0
 13 14  1  0
 14 15  1  0
 16 15  1  1
 16 17  1  0
 17  6  1  0
 18 19  2  0
 18 16  1  0
 20 21  1  0
 21 23  1  0
 21 22  2  0
 23 24  1  0
 25 24  1  0
 25 26  1  0
 27 26  1  6
 27 29  1  0
 27 28  1  0
 28 18  1  0
 29 31  1  0
 30 29  2  0
M  END
$$$$
