CPW.pdb
     RDKit          3D

 28 30  0  0  1  0  0  0  0  0999 V2000
    6.8121  -13.2411   18.8370 N   0  0  0  0  0  0  0  0  0  0  0  0
    7.9397  -14.1692   18.8818 C   0  0  1  0  0  0  0  0  0  0  0  0
    9.1957  -13.3013   18.9619 C   0  0  0  0  0  0  0  0  0  0  0  0
    9.5395  -12.5707   17.3411 S   0  0  0  0  0  0  0  0  0  0  0  0
    7.8342  -15.0377   20.0783 C   0  0  0  0  0  0  0  0  0  0  0  0
    7.3156  -14.5448   21.1383 O   0  0  0  0  0  0  0  0  0  0  0  0
    8.2821  -16.3831   20.0935 N   0  0  0  0  0  0  0  0  0  0  0  0
    8.7511  -17.1496   18.9641 C   0  0  0  0  0  0  0  0  0  0  0  0
    8.2878  -18.5446   19.3347 C   0  0  0  0  0  0  0  0  0  0  0  0
    8.7928  -18.5899   20.7863 C   0  0  0  0  0  0  0  0  0  0  0  0
    8.3558  -17.2373   21.2578 C   0  0  1  0  0  0  0  0  0  0  0  0
    9.2629  -16.6588   22.2786 C   0  0  0  0  0  0  0  0  0  0  0  0
   10.1919  -15.8744   21.9367 O   0  0  0  0  0  0  0  0  0  0  0  0
    9.1417  -16.9457   23.6606 N   0  0  0  0  0  0  0  0  0  0  0  0
   10.0426  -16.3584   24.6494 C   0  0  1  0  0  0  0  0  0  0  0  0
    9.7026  -14.8960   24.7164 C   0  0  0  0  0  0  0  0  0  0  0  0
    8.3166  -14.6163   25.0897 C   0  0  0  0  0  0  0  0  0  0  0  0
    7.2814  -15.5366   25.0816 C   0  0  0  0  0  0  0  0  0  0  0  0
    6.1638  -14.9085   25.4913 N   0  0  0  0  0  0  0  0  0  0  0  0
    6.4143  -13.6058   25.7717 C   0  0  0  0  0  0  0  0  0  0  0  0
    5.6477  -12.5484   26.2120 C   0  0  0  0  0  0  0  0  0  0  0  0
    6.2419  -11.3214   26.3943 C   0  0  0  0  0  0  0  0  0  0  0  0
    7.5833  -11.1086   26.1518 C   0  0  0  0  0  0  0  0  0  0  0  0
    8.3274  -12.1879   25.7110 C   0  0  0  0  0  0  0  0  0  0  0  0
    7.7719  -13.4362   25.5146 C   0  0  0  0  0  0  0  0  0  0  0  0
    9.8450  -17.0032   25.9761 C   0  0  0  0  0  0  0  0  0  0  0  0
    8.8653  -17.9469   26.1957 O   0  0  0  0  0  0  0  0  0  0  0  0
   10.5993  -16.6707   26.9189 O   0  0  0  0  0  0  0  0  0  0  0  0
  2  3  1  0
  2  1  1  1
  4  3  1  0
  5  2  1  0
  5  6  2  0
  7  5  1  0
  8  7  1  0
  9  8  1  0
 10  9  1  0
 10 11  1  0
 11  7  1  0
 12 13  2  0
 11 12  1  1
 14 12  1  0
 15 16  1  1
 15 14  1  0
 16 17  1  0
 17 18  2  0
 19 18  1  0
 20 19  1  0
 21 20  2  0
 22 21  1  0
 23 22  2  0
 23 24  1  0
 24 25  2  0
 25 20  1  0
 25 17  1  0
 26 15  1  0
 27 26  1  0
 28 26  2  0
M  END
$$$$
