CPW.pdb
     RDKit          3D

 28 30  0  0  1  0  0  0  0  0999 V2000
    7.5184  -12.6456   18.5059 N   0  0  0  0  0  0  0  0  0  0  0  0
    8.4978  -13.7116   18.7038 C   0  0  1  0  0  0  0  0  0  0  0  0
    9.8499  -13.0159   18.8629 C   0  0  0  0  0  0  0  0  0  0  0  0
   11.1165  -14.2328   19.3032 S   0  0  0  0  0  0  0  0  0  0  0  0
    8.1669  -14.4838   19.9250 C   0  0  0  0  0  0  0  0  0  0  0  0
    7.9204  -13.8367   21.0002 O   0  0  0  0  0  0  0  0  0  0  0  0
    8.1132  -15.9007   19.9476 N   0  0  0  0  0  0  0  0  0  0  0  0
    8.2797  -16.7889   18.8223 C   0  0  0  0  0  0  0  0  0  0  0  0
    7.3565  -17.9299   19.2011 C   0  0  0  0  0  0  0  0  0  0  0  0
    7.8172  -18.1425   20.6526 C   0  0  0  0  0  0  0  0  0  0  0  0
    7.8849  -16.7203   21.1167 C   0  0  1  0  0  0  0  0  0  0  0  0
    8.9402  -16.4925   22.1335 C   0  0  0  0  0  0  0  0  0  0  0  0
   10.1383  -16.3055   21.7801 O   0  0  0  0  0  0  0  0  0  0  0  0
    8.6711  -16.4718   23.5242 N   0  0  0  0  0  0  0  0  0  0  0  0
    9.7344  -16.2949   24.5104 C   0  0  1  0  0  0  0  0  0  0  0  0
    9.5685  -14.9092   25.0680 C   0  0  0  0  0  0  0  0  0  0  0  0
    8.2253  -14.6175   25.5672 C   0  0  0  0  0  0  0  0  0  0  0  0
    7.1845  -15.5278   25.6510 C   0  0  0  0  0  0  0  0  0  0  0  0
    6.1154  -14.8905   26.1631 N   0  0  0  0  0  0  0  0  0  0  0  0
    6.4035  -13.5914   26.4234 C   0  0  0  0  0  0  0  0  0  0  0  0
    5.6909  -12.5283   26.9351 C   0  0  0  0  0  0  0  0  0  0  0  0
    6.3115  -11.3079   27.0660 C   0  0  0  0  0  0  0  0  0  0  0  0
    7.6271  -11.1071   26.7025 C   0  0  0  0  0  0  0  0  0  0  0  0
    8.3171  -12.1919   26.1922 C   0  0  0  0  0  0  0  0  0  0  0  0
    7.7335  -13.4339   26.0438 C   0  0  0  0  0  0  0  0  0  0  0  0
    9.6124  -17.3119   25.5900 C   0  0  0  0  0  0  0  0  0  0  0  0
   10.5978  -17.5031   26.5340 O   0  0  0  0  0  0  0  0  0  0  0  0
    8.5757  -18.0130   25.6343 O   0  0  0  0  0  0  0  0  0  0  0  0
  2  3  1  0
  2  1  1  1
  4  3  1  0
  5  2  1  0
  5  6  2  0
  7  5  1  0
  8  7  1  0
  9  8  1  0
 10  9  1  0
 10 11  1  0
 11  7  1  0
 12 13  2  0
 11 12  1  1
 14 12  1  0
 15 16  1  1
 15 14  1  0
 16 17  1  0
 17 18  2  0
 19 18  1  0
 20 19  1  0
 21 20  2  0
 22 21  1  0
 23 22  2  0
 23 24  1  0
 24 25  2  0
 25 20  1  0
 25 17  1  0
 26 15  1  0
 27 26  1  0
 28 26  2  0
M  END
$$$$
