CPW.pdb
     RDKit          3D

 28 30  0  0  1  0  0  0  0  0999 V2000
    7.9415  -12.5565   18.1818 N   0  0  0  0  0  0  0  0  0  0  0  0
    8.6746  -13.8061   18.3712 C   0  0  1  0  0  0  0  0  0  0  0  0
   10.1536  -13.4546   18.2085 C   0  0  0  0  0  0  0  0  0  0  0  0
   11.1752  -14.8772   18.6681 S   0  0  0  0  0  0  0  0  0  0  0  0
    8.4174  -14.3442   19.7282 C   0  0  0  0  0  0  0  0  0  0  0  0
    8.5506  -13.5552   20.7258 O   0  0  0  0  0  0  0  0  0  0  0  0
    8.0322  -15.6888   19.9617 N   0  0  0  0  0  0  0  0  0  0  0  0
    7.8855  -16.7291   18.9720 C   0  0  0  0  0  0  0  0  0  0  0  0
    6.7550  -17.5482   19.5627 C   0  0  0  0  0  0  0  0  0  0  0  0
    7.2766  -17.6775   21.0033 C   0  0  0  0  0  0  0  0  0  0  0  0
    7.7189  -16.2680   21.2490 C   0  0  1  0  0  0  0  0  0  0  0  0
    8.8825  -16.1772   22.1642 C   0  0  0  0  0  0  0  0  0  0  0  0
   10.0559  -16.3300   21.7228 O   0  0  0  0  0  0  0  0  0  0  0  0
    8.7471  -15.9200   23.5507 N   0  0  0  0  0  0  0  0  0  0  0  0
    9.8976  -15.9340   24.4509 C   0  0  1  0  0  0  0  0  0  0  0  0
    9.6739  -14.8259   25.4413 C   0  0  0  0  0  0  0  0  0  0  0  0
    8.2668  -14.5455   25.7239 C   0  0  0  0  0  0  0  0  0  0  0  0
    7.2484  -15.4843   25.7399 C   0  0  0  0  0  0  0  0  0  0  0  0
    6.1018  -14.8483   26.0437 N   0  0  0  0  0  0  0  0  0  0  0  0
    6.3169  -13.5227   26.2305 C   0  0  0  0  0  0  0  0  0  0  0  0
    5.5123  -12.4494   26.5473 C   0  0  0  0  0  0  0  0  0  0  0  0
    6.0767  -11.2001   26.6589 C   0  0  0  0  0  0  0  0  0  0  0  0
    7.4247  -10.9801   26.4648 C   0  0  0  0  0  0  0  0  0  0  0  0
    8.2073  -12.0758   26.1482 C   0  0  0  0  0  0  0  0  0  0  0  0
    7.6826  -13.3467   26.0262 C   0  0  0  0  0  0  0  0  0  0  0  0
    9.9938  -17.2462   25.1464 C   0  0  0  0  0  0  0  0  0  0  0  0
   11.1339  -17.6442   25.8101 O   0  0  0  0  0  0  0  0  0  0  0  0
    9.0001  -18.0080   25.1223 O   0  0  0  0  0  0  0  0  0  0  0  0
  2  3  1  0
  2  1  1  1
  4  3  1  0
  5  2  1  0
  5  6  2  0
  7  5  1  0
  8  7  1  0
  9  8  1  0
 10  9  1  0
 10 11  1  0
 11  7  1  0
 12 13  2  0
 11 12  1  1
 14 12  1  0
 15 16  1  1
 15 14  1  0
 16 17  1  0
 17 18  2  0
 19 18  1  0
 20 19  1  0
 21 20  2  0
 22 21  1  0
 23 22  2  0
 23 24  1  0
 24 25  2  0
 25 20  1  0
 25 17  1  0
 26 15  1  0
 27 26  1  0
 28 26  2  0
M  END
$$$$
