CPW.pdb
     RDKit          3D

 28 30  0  0  1  0  0  0  0  0999 V2000
    7.3333  -18.7942   19.0445 N   0  0  0  0  0  0  0  0  0  0  0  0
    6.6530  -17.8810   19.9599 C   0  0  1  0  0  0  0  0  0  0  0  0
    5.9306  -18.7655   20.9764 C   0  0  0  0  0  0  0  0  0  0  0  0
    5.1973  -17.7354   22.2726 S   0  0  0  0  0  0  0  0  0  0  0  0
    7.6441  -17.0143   20.6409 C   0  0  0  0  0  0  0  0  0  0  0  0
    8.6253  -17.5745   21.2401 O   0  0  0  0  0  0  0  0  0  0  0  0
    7.5478  -15.5995   20.6539 N   0  0  0  0  0  0  0  0  0  0  0  0
    6.4848  -14.8015   20.0914 C   0  0  0  0  0  0  0  0  0  0  0  0
    7.2397  -13.5622   19.6528 C   0  0  0  0  0  0  0  0  0  0  0  0
    8.0430  -13.3007   20.9375 C   0  0  0  0  0  0  0  0  0  0  0  0
    8.5053  -14.6916   21.2449 C   0  0  1  0  0  0  0  0  0  0  0  0
    8.6453  -14.9474   22.6990 C   0  0  0  0  0  0  0  0  0  0  0  0
    7.8297  -14.4390   23.5186 O   0  0  0  0  0  0  0  0  0  0  0  0
    9.6758  -15.7565   23.2379 N   0  0  0  0  0  0  0  0  0  0  0  0
   10.2171  -15.5227   24.5746 C   0  0  1  0  0  0  0  0  0  0  0  0
    9.2398  -16.1323   25.5399 C   0  0  0  0  0  0  0  0  0  0  0  0
    7.9780  -15.4030   25.6609 C   0  0  0  0  0  0  0  0  0  0  0  0
    6.7225  -15.9192   25.3854 C   0  0  0  0  0  0  0  0  0  0  0  0
    5.8155  -14.9529   25.6198 N   0  0  0  0  0  0  0  0  0  0  0  0
    6.4179  -13.8134   26.0403 C   0  0  0  0  0  0  0  0  0  0  0  0
    5.9694  -12.5618   26.4041 C   0  0  0  0  0  0  0  0  0  0  0  0
    6.8838  -11.6091   26.7886 C   0  0  0  0  0  0  0  0  0  0  0  0
    8.2398  -11.8606   26.8241 C   0  0  0  0  0  0  0  0  0  0  0  0
    8.6605  -13.1252   26.4539 C   0  0  0  0  0  0  0  0  0  0  0  0
    7.7776  -14.1110   26.0614 C   0  0  0  0  0  0  0  0  0  0  0  0
   11.5544  -16.1616   24.7097 C   0  0  0  0  0  0  0  0  0  0  0  0
   12.1424  -16.8604   23.6779 O   0  0  0  0  0  0  0  0  0  0  0  0
   12.1583  -16.0553   25.8016 O   0  0  0  0  0  0  0  0  0  0  0  0
  2  3  1  0
  2  1  1  6
  4  3  1  0
  5  2  1  0
  5  6  2  0
  7  5  1  0
  8  7  1  0
  9  8  1  0
 10  9  1  0
 10 11  1  0
 11  7  1  0
 12 13  2  0
 11 12  1  1
 14 12  1  0
 15 16  1  1
 15 14  1  0
 16 17  1  0
 17 18  2  0
 19 18  1  0
 20 19  1  0
 21 20  2  0
 22 21  1  0
 23 22  2  0
 23 24  1  0
 24 25  2  0
 25 20  1  0
 25 17  1  0
 26 15  1  0
 27 26  1  0
 28 26  2  0
M  END
$$$$
