CPW.pdb
     RDKit          3D

 28 30  0  0  1  0  0  0  0  0999 V2000
    7.9526  -12.6566   18.4060 N   0  0  0  0  0  0  0  0  0  0  0  0
    8.7682  -13.8436   18.6516 C   0  0  1  0  0  0  0  0  0  0  0  0
   10.2118  -13.3493   18.7474 C   0  0  0  0  0  0  0  0  0  0  0  0
   11.2966  -14.7169   19.2290 S   0  0  0  0  0  0  0  0  0  0  0  0
    8.3568  -14.4875   19.9218 C   0  0  0  0  0  0  0  0  0  0  0  0
    8.1542  -13.7400   20.9396 O   0  0  0  0  0  0  0  0  0  0  0  0
    8.1804  -15.8885   20.0516 N   0  0  0  0  0  0  0  0  0  0  0  0
    8.2485  -16.8688   18.9944 C   0  0  0  0  0  0  0  0  0  0  0  0
    7.2365  -17.8928   19.4689 C   0  0  0  0  0  0  0  0  0  0  0  0
    7.7033  -18.0373   20.9267 C   0  0  0  0  0  0  0  0  0  0  0  0
    7.9031  -16.5961   21.2816 C   0  0  1  0  0  0  0  0  0  0  0  0
    8.9926  -16.3876   22.2660 C   0  0  0  0  0  0  0  0  0  0  0  0
   10.1924  -16.2985   21.8818 O   0  0  0  0  0  0  0  0  0  0  0  0
    8.7553  -16.2791   23.6584 N   0  0  0  0  0  0  0  0  0  0  0  0
    9.8509  -16.1714   24.6188 C   0  0  1  0  0  0  0  0  0  0  0  0
    9.6309  -14.8887   25.3704 C   0  0  0  0  0  0  0  0  0  0  0  0
    8.2277  -14.5897   25.6537 C   0  0  0  0  0  0  0  0  0  0  0  0
    7.2057  -15.5222   25.7213 C   0  0  0  0  0  0  0  0  0  0  0  0
    6.0647  -14.8682   26.0075 N   0  0  0  0  0  0  0  0  0  0  0  0
    6.2870  -13.5366   26.1330 C   0  0  0  0  0  0  0  0  0  0  0  0
    5.4899  -12.4466   26.4093 C   0  0  0  0  0  0  0  0  0  0  0  0
    6.0604  -11.1962   26.4597 C   0  0  0  0  0  0  0  0  0  0  0  0
    7.4074  -10.9911   26.2431 C   0  0  0  0  0  0  0  0  0  0  0  0
    8.1824  -12.1033   25.9681 C   0  0  0  0  0  0  0  0  0  0  0  0
    7.6513  -13.3760   25.9079 C   0  0  0  0  0  0  0  0  0  0  0  0
    9.8383  -17.3325   25.5497 C   0  0  0  0  0  0  0  0  0  0  0  0
   10.8863  -17.6016   26.4030 O   0  0  0  0  0  0  0  0  0  0  0  0
    8.8372  -18.0850   25.5508 O   0  0  0  0  0  0  0  0  0  0  0  0
  2  3  1  0
  2  1  1  1
  4  3  1  0
  5  2  1  0
  5  6  2  0
  7  5  1  0
  8  7  1  0
  9  8  1  0
 10  9  1  0
 10 11  1  0
 11  7  1  0
 12 13  2  0
 11 12  1  1
 14 12  1  0
 15 16  1  1
 15 14  1  0
 16 17  1  0
 17 18  2  0
 19 18  1  0
 20 19  1  0
 21 20  2  0
 22 21  1  0
 23 22  2  0
 23 24  1  0
 24 25  2  0
 25 20  1  0
 25 17  1  0
 26 15  1  0
 27 26  1  0
 28 26  2  0
M  END
$$$$
