CPW.pdb
     RDKit          3D

 28 30  0  0  1  0  0  0  0  0999 V2000
   11.7299  -17.2692   17.5911 N   0  0  0  0  0  0  0  0  0  0  0  0
   11.0203  -18.1741   18.4924 C   0  0  1  0  0  0  0  0  0  0  0  0
   12.0812  -19.1142   19.0653 C   0  0  0  0  0  0  0  0  0  0  0  0
   11.3717  -20.0858   20.4186 S   0  0  0  0  0  0  0  0  0  0  0  0
   10.3725  -17.4021   19.5793 C   0  0  0  0  0  0  0  0  0  0  0  0
   11.0476  -16.4763   20.1474 O   0  0  0  0  0  0  0  0  0  0  0  0
    9.0439  -17.6476   20.0102 N   0  0  0  0  0  0  0  0  0  0  0  0
    8.1302  -18.6284   19.4751 C   0  0  0  0  0  0  0  0  0  0  0  0
    6.7982  -17.9273   19.6548 C   0  0  0  0  0  0  0  0  0  0  0  0
    6.9565  -17.4778   21.1166 C   0  0  0  0  0  0  0  0  0  0  0  0
    8.3596  -16.9556   21.0795 C   0  0  1  0  0  0  0  0  0  0  0  0
    9.0776  -17.1321   22.3651 C   0  0  0  0  0  0  0  0  0  0  0  0
    9.8914  -18.0861   22.5166 O   0  0  0  0  0  0  0  0  0  0  0  0
    8.8962  -16.2624   23.4685 N   0  0  0  0  0  0  0  0  0  0  0  0
    9.6471  -16.4295   24.7105 C   0  0  1  0  0  0  0  0  0  0  0  0
    9.5303  -15.1289   25.4544 C   0  0  0  0  0  0  0  0  0  0  0  0
    8.1549  -14.6995   25.7046 C   0  0  0  0  0  0  0  0  0  0  0  0
    7.0361  -15.5141   25.6460 C   0  0  0  0  0  0  0  0  0  0  0  0
    5.9593  -14.7628   25.9418 N   0  0  0  0  0  0  0  0  0  0  0  0
    6.3173  -13.4798   26.1949 C   0  0  0  0  0  0  0  0  0  0  0  0
    5.6294  -12.3345   26.5341 C   0  0  0  0  0  0  0  0  0  0  0  0
    6.3283  -11.1646   26.7197 C   0  0  0  0  0  0  0  0  0  0  0  0
    7.6989  -11.0942   26.5786 C   0  0  0  0  0  0  0  0  0  0  0  0
    8.3623  -12.2591   26.2378 C   0  0  0  0  0  0  0  0  0  0  0  0
    7.7007  -13.4546   26.0420 C   0  0  0  0  0  0  0  0  0  0  0  0
    9.0763  -17.5450   25.5135 C   0  0  0  0  0  0  0  0  0  0  0  0
    9.7629  -18.1247   26.5581 O   0  0  0  0  0  0  0  0  0  0  0  0
    7.9327  -17.9646   25.2227 O   0  0  0  0  0  0  0  0  0  0  0  0
  2  3  1  0
  2  1  1  6
  4  3  1  0
  5  2  1  0
  5  6  2  0
  7  5  1  0
  8  7  1  0
  9  8  1  0
 10  9  1  0
 10 11  1  0
 11  7  1  0
 12 13  2  0
 11 12  1  1
 14 12  1  0
 15 16  1  1
 15 14  1  0
 16 17  1  0
 17 18  2  0
 19 18  1  0
 20 19  1  0
 21 20  2  0
 22 21  1  0
 23 22  2  0
 23 24  1  0
 24 25  2  0
 25 20  1  0
 25 17  1  0
 26 15  1  0
 27 26  1  0
 28 26  2  0
M  END
$$$$
