AYF.pdb
     RDKit          3D

 29 30  0  0  1  0  0  0  0  0999 V2000
   35.1738  -33.4317  -10.2937 C   0  0  0  0  0  0  0  0  0  0  0  0
   35.7223  -34.6993   -9.7269 C   0  0  2  0  0  0  0  0  0  0  0  0
   35.9312  -35.6433  -10.8030 N   0  0  0  0  0  0  0  0  0  0  0  0
   34.8421  -35.3192   -8.7146 C   0  0  0  0  0  0  0  0  0  0  0  0
   34.1349  -36.3008   -9.0550 O   0  0  0  0  0  0  0  0  0  0  0  0
   38.2845  -40.1294   -6.2198 O   0  0  0  0  0  0  0  0  0  0  0  0
   37.3530  -39.1357   -5.9689 C   0  0  0  0  0  0  0  0  0  0  0  0
   37.7912  -37.8137   -5.8983 C   0  0  0  0  0  0  0  0  0  0  0  0
   36.8474  -36.8403   -5.6470 C   0  0  0  0  0  0  0  0  0  0  0  0
   35.5182  -37.1017   -5.4656 C   0  0  0  0  0  0  0  0  0  0  0  0
   34.5672  -35.9952   -5.2022 C   0  0  0  0  0  0  0  0  0  0  0  0
   33.8539  -35.5635   -6.4639 C   0  0  2  0  0  0  0  0  0  0  0  0
   34.7351  -34.8885   -7.3839 N   0  0  0  0  0  0  0  0  0  0  0  0
   32.6720  -34.7224   -6.1587 C   0  0  0  0  0  0  0  0  0  0  0  0
   32.8442  -33.5518   -5.7456 O   0  0  0  0  0  0  0  0  0  0  0  0
   35.1050  -38.4293   -5.5409 C   0  0  0  0  0  0  0  0  0  0  0  0
   36.0245  -39.4404   -5.7924 C   0  0  0  0  0  0  0  0  0  0  0  0
   31.3901  -35.2490   -6.3365 N   0  0  0  0  0  0  0  0  0  0  0  0
   30.1636  -34.5423   -6.0010 C   0  0  1  0  0  0  0  0  0  0  0  0
   29.3952  -34.3688   -7.2662 C   0  0  0  0  0  0  0  0  0  0  0  0
   28.0803  -33.7408   -7.0754 C   0  0  0  0  0  0  0  0  0  0  0  0
   26.9601  -34.5562   -7.0342 C   0  0  0  0  0  0  0  0  0  0  0  0
   25.7353  -33.9598   -6.8576 C   0  0  0  0  0  0  0  0  0  0  0  0
   25.5566  -32.6038   -6.7199 C   0  0  0  0  0  0  0  0  0  0  0  0
   26.6795  -31.7815   -6.7606 C   0  0  0  0  0  0  0  0  0  0  0  0
   27.9269  -32.3569   -6.9375 C   0  0  0  0  0  0  0  0  0  0  0  0
   29.4420  -35.1903   -4.9020 C   0  0  0  0  0  0  0  0  0  0  0  0
   29.6269  -36.5211   -4.5360 O   0  0  0  0  0  0  0  0  0  0  0  0
   28.6005  -34.5509   -4.2242 O   0  0  0  0  0  0  0  0  0  0  0  0
  2  1  1  6
  3  2  1  0
  4 13  1  0
  4  2  1  0
  5  4  2  0
  7  8  2  0
  7  6  1  0
  9  8  1  0
 10  9  2  0
 11 10  1  0
 12 11  1  1
 12 13  1  0
 14 18  1  0
 14 12  1  0
 15 14  2  0
 16 10  1  0
 16 17  2  0
 17  7  1  0
 19 18  1  0
 19 20  1  6
 21 26  1  0
 21 20  1  0
 22 21  2  0
 23 24  2  0
 23 22  1  0
 24 25  1  0
 25 26  2  0
 27 19  1  0
 28 27  1  0
 29 27  2  0
M  END
$$$$
