AYF.pdb
     RDKit          3D

 29 30  0  0  1  0  0  0  0  0999 V2000
   24.7051   -2.5704  -22.2435 C   0  0  0  0  0  0  0  0  0  0  0  0
   24.2534   -3.7929  -21.5154 C   0  0  2  0  0  0  0  0  0  0  0  0
   23.5587   -4.6611  -22.4409 N   0  0  0  0  0  0  0  0  0  0  0  0
   23.3598   -3.5009  -20.3752 C   0  0  0  0  0  0  0  0  0  0  0  0
   23.8237   -2.8608  -19.3981 O   0  0  0  0  0  0  0  0  0  0  0  0
   16.7115   -1.2586  -15.2527 O   0  0  0  0  0  0  0  0  0  0  0  0
   17.4722   -1.6906  -16.3264 C   0  0  0  0  0  0  0  0  0  0  0  0
   18.3246   -0.7792  -16.9489 C   0  0  0  0  0  0  0  0  0  0  0  0
   19.0724   -1.2300  -18.0162 C   0  0  0  0  0  0  0  0  0  0  0  0
   19.0217   -2.5108  -18.4904 C   0  0  0  0  0  0  0  0  0  0  0  0
   19.8621   -2.9158  -19.6427 C   0  0  0  0  0  0  0  0  0  0  0  0
   21.1923   -3.4755  -19.1907 C   0  0  2  0  0  0  0  0  0  0  0  0
   22.0142   -3.8899  -20.3004 N   0  0  0  0  0  0  0  0  0  0  0  0
   21.0142   -4.5879  -18.2273 C   0  0  0  0  0  0  0  0  0  0  0  0
   20.4538   -5.6426  -18.6070 O   0  0  0  0  0  0  0  0  0  0  0  0
   18.1632   -3.4022  -17.8522 C   0  0  0  0  0  0  0  0  0  0  0  0
   17.3924   -2.9880  -16.7728 C   0  0  0  0  0  0  0  0  0  0  0  0
   21.4732   -4.4408  -16.9159 N   0  0  0  0  0  0  0  0  0  0  0  0
   21.3791   -5.4751  -15.8971 C   0  0  1  0  0  0  0  0  0  0  0  0
   22.7715   -5.8632  -15.5339 C   0  0  0  0  0  0  0  0  0  0  0  0
   22.8526   -7.1099  -14.7600 C   0  0  0  0  0  0  0  0  0  0  0  0
   23.6517   -8.1345  -15.2426 C   0  0  0  0  0  0  0  0  0  0  0  0
   23.7193   -9.2967  -14.5134 C   0  0  0  0  0  0  0  0  0  0  0  0
   23.0416   -9.5020  -13.3352 C   0  0  0  0  0  0  0  0  0  0  0  0
   22.2381   -8.4750  -12.8471 C   0  0  0  0  0  0  0  0  0  0  0  0
   22.1519   -7.2922  -13.5627 C   0  0  0  0  0  0  0  0  0  0  0  0
   20.5205   -5.0674  -14.7814 C   0  0  0  0  0  0  0  0  0  0  0  0
   19.5281   -5.8774  -14.2353 O   0  0  0  0  0  0  0  0  0  0  0  0
   20.6492   -3.9344  -14.2559 O   0  0  0  0  0  0  0  0  0  0  0  0
  2  1  1  6
  3  2  1  0
  4 13  1  0
  4  2  1  0
  5  4  2  0
  7  8  2  0
  7  6  1  0
  9  8  1  0
 10  9  2  0
 11 10  1  0
 12 11  1  6
 12 13  1  0
 14 18  1  0
 14 12  1  0
 15 14  2  0
 16 10  1  0
 16 17  2  0
 17  7  1  0
 19 18  1  0
 19 20  1  1
 21 26  1  0
 21 20  1  0
 22 21  2  0
 23 24  2  0
 23 22  1  0
 24 25  1  0
 25 26  2  0
 27 19  1  0
 28 27  1  0
 29 27  2  0
M  END
$$$$
