AYF.pdb
     RDKit          3D

 29 30  0  0  1  0  0  0  0  0999 V2000
   29.7735  -20.7523  -23.3462 C   0  0  0  0  0  0  0  0  0  0  0  0
   30.3914  -19.4676  -23.7894 C   0  0  2  0  0  0  0  0  0  0  0  0
   31.8280  -19.5644  -23.6495 N   0  0  0  0  0  0  0  0  0  0  0  0
   29.9174  -18.2941  -23.0266 C   0  0  0  0  0  0  0  0  0  0  0  0
   30.6948  -17.7679  -22.1909 O   0  0  0  0  0  0  0  0  0  0  0  0
   26.4411  -10.7182  -20.5861 O   0  0  0  0  0  0  0  0  0  0  0  0
   26.7405  -11.8828  -21.2734 C   0  0  0  0  0  0  0  0  0  0  0  0
   28.0495  -12.0800  -21.7122 C   0  0  0  0  0  0  0  0  0  0  0  0
   28.3257  -13.2458  -22.3948 C   0  0  0  0  0  0  0  0  0  0  0  0
   27.3923  -14.2081  -22.6607 C   0  0  0  0  0  0  0  0  0  0  0  0
   27.7731  -15.4360  -23.3992 C   0  0  0  0  0  0  0  0  0  0  0  0
   28.3158  -16.4979  -22.4692 C   0  0  2  0  0  0  0  0  0  0  0  0
   28.6474  -17.7151  -23.1670 N   0  0  0  0  0  0  0  0  0  0  0  0
   27.3792  -16.7728  -21.3536 C   0  0  0  0  0  0  0  0  0  0  0  0
   26.4033  -17.5349  -21.5475 O   0  0  0  0  0  0  0  0  0  0  0  0
   26.0925  -13.9885  -22.2123 C   0  0  0  0  0  0  0  0  0  0  0  0
   25.7725  -12.8266  -21.5205 C   0  0  0  0  0  0  0  0  0  0  0  0
   27.6006  -16.1784  -20.1087 N   0  0  0  0  0  0  0  0  0  0  0  0
   26.7069  -16.3139  -18.9688 C   0  0  1  0  0  0  0  0  0  0  0  0
   27.5419  -16.2036  -17.7392 C   0  0  0  0  0  0  0  0  0  0  0  0
   28.1170  -14.8666  -17.5358 C   0  0  0  0  0  0  0  0  0  0  0  0
   27.4835  -14.0035  -16.6552 C   0  0  0  0  0  0  0  0  0  0  0  0
   28.0273  -12.7553  -16.4734 C   0  0  0  0  0  0  0  0  0  0  0  0
   29.1611  -12.3134  -17.1129 C   0  0  0  0  0  0  0  0  0  0  0  0
   29.8003  -13.1775  -17.9979 C   0  0  0  0  0  0  0  0  0  0  0  0
   29.2731  -14.4423  -18.1999 C   0  0  0  0  0  0  0  0  0  0  0  0
   25.5710  -15.3913  -19.0516 C   0  0  0  0  0  0  0  0  0  0  0  0
   24.3574  -15.6011  -18.4017 O   0  0  0  0  0  0  0  0  0  0  0  0
   25.6488  -14.3405  -19.7343 O   0  0  0  0  0  0  0  0  0  0  0  0
  2  1  1  1
  3  2  1  0
  4 13  1  0
  4  2  1  0
  5  4  2  0
  7  8  2  0
  7  6  1  0
  9  8  1  0
 10  9  2  0
 11 10  1  0
 12 11  1  6
 12 13  1  0
 14 18  1  0
 14 12  1  0
 15 14  2  0
 16 10  1  0
 16 17  2  0
 17  7  1  0
 19 18  1  0
 19 20  1  1
 21 26  1  0
 21 20  1  0
 22 21  2  0
 23 24  2  0
 23 22  1  0
 24 25  1  0
 25 26  2  0
 27 19  1  0
 28 27  1  0
 29 27  2  0
M  END
$$$$
