AYF.pdb
     RDKit          3D

 29 30  0  0  1  0  0  0  0  0999 V2000
   27.4854  -18.6133  -15.5388 C   0  0  0  0  0  0  0  0  0  0  0  0
   27.9281  -19.6313  -14.5406 C   0  0  2  0  0  0  0  0  0  0  0  0
   27.8560  -20.9438  -15.1447 N   0  0  0  0  0  0  0  0  0  0  0  0
   27.1191  -19.6318  -13.3040 C   0  0  0  0  0  0  0  0  0  0  0  0
   26.9347  -18.5411  -12.7073 O   0  0  0  0  0  0  0  0  0  0  0  0
   20.9297  -19.2786  -15.5464 O   0  0  0  0  0  0  0  0  0  0  0  0
   21.7771  -19.7993  -14.5825 C   0  0  0  0  0  0  0  0  0  0  0  0
   22.6323  -20.8414  -14.9395 C   0  0  0  0  0  0  0  0  0  0  0  0
   23.4671  -21.3453  -13.9645 C   0  0  0  0  0  0  0  0  0  0  0  0
   23.4992  -20.8808  -12.6795 C   0  0  0  0  0  0  0  0  0  0  0  0
   24.4302  -21.4767  -11.6916 C   0  0  0  0  0  0  0  0  0  0  0  0
   25.7007  -20.6662  -11.5661 C   0  0  2  0  0  0  0  0  0  0  0  0
   26.5335  -20.7740  -12.7381 N   0  0  0  0  0  0  0  0  0  0  0  0
   26.4614  -21.0340  -10.3481 C   0  0  0  0  0  0  0  0  0  0  0  0
   27.2072  -22.0410  -10.3731 O   0  0  0  0  0  0  0  0  0  0  0  0
   22.6361  -19.8398  -12.3474 C   0  0  0  0  0  0  0  0  0  0  0  0
   21.7790  -19.3036  -13.3007 C   0  0  0  0  0  0  0  0  0  0  0  0
   26.3332  -20.2533   -9.1965 N   0  0  0  0  0  0  0  0  0  0  0  0
   26.9284  -20.5890   -7.9122 C   0  0  1  0  0  0  0  0  0  0  0  0
   27.8037  -19.4480   -7.5208 C   0  0  0  0  0  0  0  0  0  0  0  0
   28.4311  -19.6123   -6.2020 C   0  0  0  0  0  0  0  0  0  0  0  0
   27.9135  -18.8985   -5.1323 C   0  0  0  0  0  0  0  0  0  0  0  0
   28.5080  -19.0570   -3.9042 C   0  0  0  0  0  0  0  0  0  0  0  0
   29.5844  -19.8808   -3.6750 C   0  0  0  0  0  0  0  0  0  0  0  0
   30.1068  -20.5995   -4.7469 C   0  0  0  0  0  0  0  0  0  0  0  0
   29.5263  -20.4584   -5.9965 C   0  0  0  0  0  0  0  0  0  0  0  0
   25.9172  -20.9826   -6.9268 C   0  0  0  0  0  0  0  0  0  0  0  0
   26.2029  -21.7174   -5.7791 O   0  0  0  0  0  0  0  0  0  0  0  0
   24.7132  -20.6627   -7.0831 O   0  0  0  0  0  0  0  0  0  0  0  0
  2  1  1  6
  3  2  1  0
  4 13  1  0
  4  2  1  0
  5  4  2  0
  7  8  2  0
  7  6  1  0
  9  8  1  0
 10  9  2  0
 11 10  1  0
 12 11  1  6
 12 13  1  0
 14 18  1  0
 14 12  1  0
 15 14  2  0
 16 10  1  0
 16 17  2  0
 17  7  1  0
 19 18  1  0
 19 20  1  1
 21 26  1  0
 21 20  1  0
 22 21  2  0
 23 24  2  0
 23 22  1  0
 24 25  1  0
 25 26  2  0
 27 19  1  0
 28 27  1  0
 29 27  2  0
M  END
$$$$
