AYF.pdb
     RDKit          3D

 29 30  0  0  1  0  0  0  0  0999 V2000
   28.7686  -28.4406  -17.7879 C   0  0  0  0  0  0  0  0  0  0  0  0
   27.3512  -28.1163  -17.4495 C   0  0  2  0  0  0  0  0  0  0  0  0
   27.3322  -27.2265  -16.3091 N   0  0  0  0  0  0  0  0  0  0  0  0
   26.5347  -29.3076  -17.1368 C   0  0  0  0  0  0  0  0  0  0  0  0
   26.1881  -30.0619  -18.0805 O   0  0  0  0  0  0  0  0  0  0  0  0
   30.3879  -34.3889  -17.2644 O   0  0  0  0  0  0  0  0  0  0  0  0
   29.3043  -33.7817  -16.6518 C   0  0  0  0  0  0  0  0  0  0  0  0
   29.5396  -32.7116  -15.7891 C   0  0  0  0  0  0  0  0  0  0  0  0
   28.4469  -32.1220  -15.1895 C   0  0  0  0  0  0  0  0  0  0  0  0
   27.1582  -32.5281  -15.3951 C   0  0  0  0  0  0  0  0  0  0  0  0
   26.0380  -31.8371  -14.7126 C   0  0  0  0  0  0  0  0  0  0  0  0
   25.3399  -30.8643  -15.6364 C   0  0  2  0  0  0  0  0  0  0  0  0
   26.1115  -29.6649  -15.8480 N   0  0  0  0  0  0  0  0  0  0  0  0
   23.9801  -30.5324  -15.1482 C   0  0  0  0  0  0  0  0  0  0  0  0
   23.8483  -29.6901  -14.2296 O   0  0  0  0  0  0  0  0  0  0  0  0
   26.9487  -33.5984  -16.2608 C   0  0  0  0  0  0  0  0  0  0  0  0
   28.0229  -34.2203  -16.8854 C   0  0  0  0  0  0  0  0  0  0  0  0
   22.8723  -31.1637  -15.7195 N   0  0  0  0  0  0  0  0  0  0  0  0
   21.4981  -30.9407  -15.2975 C   0  0  1  0  0  0  0  0  0  0  0  0
   21.2337  -29.4785  -15.4131 C   0  0  0  0  0  0  0  0  0  0  0  0
   20.8872  -29.0485  -16.7749 C   0  0  0  0  0  0  0  0  0  0  0  0
   21.8582  -28.4121  -17.5324 C   0  0  0  0  0  0  0  0  0  0  0  0
   21.5242  -28.0119  -18.8032 C   0  0  0  0  0  0  0  0  0  0  0  0
   20.2851  -28.2055  -19.3663 C   0  0  0  0  0  0  0  0  0  0  0  0
   19.3073  -28.8445  -18.6086 C   0  0  0  0  0  0  0  0  0  0  0  0
   19.6174  -29.2585  -17.3238 C   0  0  0  0  0  0  0  0  0  0  0  0
   20.5594  -31.8152  -16.0065 C   0  0  0  0  0  0  0  0  0  0  0  0
   20.9254  -32.6448  -17.0633 O   0  0  0  0  0  0  0  0  0  0  0  0
   19.3479  -31.8526  -15.6790 O   0  0  0  0  0  0  0  0  0  0  0  0
  2  1  1  1
  3  2  1  0
  4 13  1  0
  4  2  1  0
  5  4  2  0
  7  8  2  0
  7  6  1  0
  9  8  1  0
 10  9  2  0
 11 10  1  0
 12 11  1  1
 12 13  1  0
 14 18  1  0
 14 12  1  0
 15 14  2  0
 16 10  1  0
 16 17  2  0
 17  7  1  0
 19 18  1  0
 19 20  1  6
 21 26  1  0
 21 20  1  0
 22 21  2  0
 23 24  2  0
 23 22  1  0
 24 25  1  0
 25 26  2  0
 27 19  1  0
 28 27  1  0
 29 27  2  0
M  END
$$$$
