AYF.pdb
     RDKit          3D

 29 30  0  0  1  0  0  0  0  0999 V2000
   29.3351  -19.0184  -14.1450 C   0  0  0  0  0  0  0  0  0  0  0  0
   27.9267  -19.4326  -14.4163 C   0  0  2  0  0  0  0  0  0  0  0  0
   27.3312  -18.4942  -15.3423 N   0  0  0  0  0  0  0  0  0  0  0  0
   27.0891  -19.4974  -13.2006 C   0  0  0  0  0  0  0  0  0  0  0  0
   26.5642  -18.4371  -12.7764 O   0  0  0  0  0  0  0  0  0  0  0  0
   21.0904  -19.6473  -15.1768 O   0  0  0  0  0  0  0  0  0  0  0  0
   21.9939  -20.0908  -14.2254 C   0  0  0  0  0  0  0  0  0  0  0  0
   22.8722  -21.1185  -14.5681 C   0  0  0  0  0  0  0  0  0  0  0  0
   23.7629  -21.5451  -13.6059 C   0  0  0  0  0  0  0  0  0  0  0  0
   23.8288  -21.0181  -12.3465 C   0  0  0  0  0  0  0  0  0  0  0  0
   24.8195  -21.5327  -11.3710 C   0  0  0  0  0  0  0  0  0  0  0  0
   26.0286  -20.6291  -11.2779 C   0  0  2  0  0  0  0  0  0  0  0  0
   26.8323  -20.6696  -12.4742 N   0  0  0  0  0  0  0  0  0  0  0  0
   26.8502  -20.9428  -10.0846 C   0  0  0  0  0  0  0  0  0  0  0  0
   27.7513  -21.8095  -10.1725 O   0  0  0  0  0  0  0  0  0  0  0  0
   22.9417  -19.9931  -12.0282 C   0  0  0  0  0  0  0  0  0  0  0  0
   22.0283  -19.5340  -12.9694 C   0  0  0  0  0  0  0  0  0  0  0  0
   26.6057  -20.2681   -8.8858 N   0  0  0  0  0  0  0  0  0  0  0  0
   27.2467  -20.5928   -7.6209 C   0  0  1  0  0  0  0  0  0  0  0  0
   28.1642  -19.4659   -7.2901 C   0  0  0  0  0  0  0  0  0  0  0  0
   28.6711  -19.5043   -5.9113 C   0  0  0  0  0  0  0  0  0  0  0  0
   28.0166  -18.7535   -4.9472 C   0  0  0  0  0  0  0  0  0  0  0  0
   28.4992  -18.7942   -3.6617 C   0  0  0  0  0  0  0  0  0  0  0  0
   29.5915  -19.5347   -3.2769 C   0  0  0  0  0  0  0  0  0  0  0  0
   30.2515  -20.2902   -4.2424 C   0  0  0  0  0  0  0  0  0  0  0  0
   29.7858  -20.2674   -5.5466 C   0  0  0  0  0  0  0  0  0  0  0  0
   26.2692  -20.9423   -6.5861 C   0  0  0  0  0  0  0  0  0  0  0  0
   26.5734  -21.7098   -5.4647 O   0  0  0  0  0  0  0  0  0  0  0  0
   25.0793  -20.5510   -6.6718 O   0  0  0  0  0  0  0  0  0  0  0  0
  2  1  1  1
  3  2  1  0
  4 13  1  0
  4  2  1  0
  5  4  2  0
  7  8  2  0
  7  6  1  0
  9  8  1  0
 10  9  2  0
 11 10  1  0
 12 11  1  6
 12 13  1  0
 14 18  1  0
 14 12  1  0
 15 14  2  0
 16 10  1  0
 16 17  2  0
 17  7  1  0
 19 18  1  0
 19 20  1  1
 21 26  1  0
 21 20  1  0
 22 21  2  0
 23 24  2  0
 23 22  1  0
 24 25  1  0
 25 26  2  0
 27 19  1  0
 28 27  1  0
 29 27  2  0
M  END
$$$$
