AYF.pdb
     RDKit          3D

 29 30  0  0  1  0  0  0  0  0999 V2000
   29.6365  -19.2196  -17.3204 C   0  0  0  0  0  0  0  0  0  0  0  0
   28.3377  -18.5238  -17.5604 C   0  0  2  0  0  0  0  0  0  0  0  0
   28.5845  -17.1060  -17.7080 N   0  0  0  0  0  0  0  0  0  0  0  0
   27.3545  -18.7249  -16.4757 C   0  0  0  0  0  0  0  0  0  0  0  0
   27.3503  -17.9173  -15.5126 O   0  0  0  0  0  0  0  0  0  0  0  0
   20.5800  -20.7383  -11.3842 O   0  0  0  0  0  0  0  0  0  0  0  0
   21.4589  -20.6730  -12.4526 C   0  0  0  0  0  0  0  0  0  0  0  0
   21.5205  -19.4934  -13.1939 C   0  0  0  0  0  0  0  0  0  0  0  0
   22.4018  -19.4501  -14.2536 C   0  0  0  0  0  0  0  0  0  0  0  0
   23.2097  -20.4929  -14.6110 C   0  0  0  0  0  0  0  0  0  0  0  0
   24.1329  -20.3631  -15.7639 C   0  0  0  0  0  0  0  0  0  0  0  0
   25.5012  -19.8881  -15.3292 C   0  0  2  0  0  0  0  0  0  0  0  0
   26.4126  -19.7637  -16.4394 N   0  0  0  0  0  0  0  0  0  0  0  0
   26.0722  -20.7651  -14.2792 C   0  0  0  0  0  0  0  0  0  0  0  0
   26.6174  -21.8433  -14.6122 O   0  0  0  0  0  0  0  0  0  0  0  0
   23.1302  -21.6598  -13.8556 C   0  0  0  0  0  0  0  0  0  0  0  0
   22.2550  -21.7445  -12.7795 C   0  0  0  0  0  0  0  0  0  0  0  0
   25.9921  -20.3746  -12.9401 N   0  0  0  0  0  0  0  0  0  0  0  0
   26.4857  -21.1705  -11.8268 C   0  0  1  0  0  0  0  0  0  0  0  0
   27.6364  -20.4320  -11.2337 C   0  0  0  0  0  0  0  0  0  0  0  0
   27.4801  -20.1517   -9.7996 C   0  0  0  0  0  0  0  0  0  0  0  0
   26.5081  -19.2446   -9.4073 C   0  0  0  0  0  0  0  0  0  0  0  0
   26.3711  -18.9875   -8.0649 C   0  0  0  0  0  0  0  0  0  0  0  0
   27.1408  -19.5764   -7.0900 C   0  0  0  0  0  0  0  0  0  0  0  0
   28.1180  -20.4882   -7.4801 C   0  0  0  0  0  0  0  0  0  0  0  0
   28.2774  -20.7659   -8.8276 C   0  0  0  0  0  0  0  0  0  0  0  0
   25.4134  -21.5323  -10.8952 C   0  0  0  0  0  0  0  0  0  0  0  0
   24.1583  -20.9293  -10.8914 O   0  0  0  0  0  0  0  0  0  0  0  0
   25.5892  -22.4298  -10.0349 O   0  0  0  0  0  0  0  0  0  0  0  0
  2  1  1  1
  3  2  1  0
  4 13  1  0
  4  2  1  0
  5  4  2  0
  7  8  2  0
  7  6  1  0
  9  8  1  0
 10  9  2  0
 11 10  1  0
 12 11  1  6
 12 13  1  0
 14 18  1  0
 14 12  1  0
 15 14  2  0
 16 10  1  0
 16 17  2  0
 17  7  1  0
 19 18  1  0
 19 20  1  1
 21 26  1  0
 21 20  1  0
 22 21  2  0
 23 24  2  0
 23 22  1  0
 24 25  1  0
 25 26  2  0
 27 19  1  0
 28 27  1  0
 29 27  2  0
M  END
$$$$
