IKD.pdb
     RDKit          3D

 26 25  0  0  1  0  0  0  0  0999 V2000
    6.7795  -11.5902   27.6676 C   0  0  0  0  0  0  0  0  0  0  0  0
    6.0724  -12.6793   26.8866 C   0  0  0  0  0  0  0  0  0  0  0  0
    7.0559  -13.5531   26.1320 C   0  0  2  0  0  0  0  0  0  0  0  0
    7.9664  -12.6797   25.3420 C   0  0  0  0  0  0  0  0  0  0  0  0
    6.2613  -14.5292   25.3047 C   0  0  2  0  0  0  0  0  0  0  0  0
    5.5125  -15.3855   26.1611 N   0  0  0  0  0  0  0  0  0  0  0  0
    7.1107  -15.3499   24.4160 C   0  0  0  0  0  0  0  0  0  0  0  0
    7.4558  -16.4918   24.8005 O   0  0  0  0  0  0  0  0  0  0  0  0
    7.5204  -14.8557   23.1669 N   0  0  0  0  0  0  0  0  0  0  0  0
    8.2786  -15.6707   22.1944 C   0  0  1  0  0  0  0  0  0  0  0  0
    8.2767  -15.0014   20.8713 C   0  0  0  0  0  0  0  0  0  0  0  0
    9.1057  -15.6797   19.8277 C   0  0  0  0  0  0  0  0  0  0  0  0
    8.3816  -16.8664   19.2786 C   0  0  0  0  0  0  0  0  0  0  0  0
    9.1932  -17.4264   18.1268 C   0  0  0  0  0  0  0  0  0  0  0  0
    8.5286  -18.5770   17.5838 N   0  0  0  0  0  0  0  0  0  0  0  0
    9.6140  -15.8588   22.8082 C   0  0  0  0  0  0  0  0  0  0  0  0
   10.1214  -14.8525   23.4259 O   0  0  0  0  0  0  0  0  0  0  0  0
   10.3714  -17.0458   22.7763 N   0  0  0  0  0  0  0  0  0  0  0  0
   11.6787  -17.0521   23.4754 C   0  0  1  0  0  0  0  0  0  0  0  0
   11.8121  -18.3407   24.2435 C   0  0  0  0  0  0  0  0  0  0  0  0
   13.1594  -18.4777   24.7907 C   0  0  0  0  0  0  0  0  0  0  0  0
   13.5695  -17.7263   25.6921 O   0  0  0  0  0  0  0  0  0  0  0  0
   12.7230  -16.9924   22.4096 C   0  0  0  0  0  0  0  0  0  0  0  0
   13.9307  -16.8000   22.7488 O   0  0  0  0  0  0  0  0  0  0  0  0
   14.0699  -19.4503   24.3453 O   0  0  0  0  0  0  0  0  0  0  0  0
   12.4511  -17.1342   21.0872 O   0  0  0  0  0  0  0  0  0  0  0  0
  1  2  1  0
  2  3  1  0
  3  4  1  6
  5  3  1  0
  5  6  1  1
  7  5  1  0
  8  7  2  0
  9  7  1  0
 10  9  1  0
 11 12  1  0
 10 11  1  6
 13 12  1  0
 13 14  1  0
 14 15  1  0
 16 10  1  0
 16 18  1  0
 17 16  2  0
 19 18  1  0
 19 20  1  6
 20 21  1  0
 21 22  2  0
 23 19  1  0
 24 23  2  0
 25 21  1  0
 26 23  1  0
M  END
$$$$
