IKD.pdb
     RDKit          3D

 26 25  0  0  1  0  0  0  0  0999 V2000
    6.4862  -11.0524   27.2357 C   0  0  0  0  0  0  0  0  0  0  0  0
    7.0808  -12.4221   26.9778 C   0  0  0  0  0  0  0  0  0  0  0  0
    6.4732  -13.0718   25.7494 C   0  0  2  0  0  0  0  0  0  0  0  0
    5.0056  -13.2107   25.9558 C   0  0  0  0  0  0  0  0  0  0  0  0
    7.1923  -14.3746   25.5165 C   0  0  2  0  0  0  0  0  0  0  0  0
    8.5194  -14.2875   26.0249 N   0  0  0  0  0  0  0  0  0  0  0  0
    7.2411  -14.7535   24.0886 C   0  0  0  0  0  0  0  0  0  0  0  0
    6.5404  -15.7166   23.6979 O   0  0  0  0  0  0  0  0  0  0  0  0
    8.0575  -14.0457   23.1915 N   0  0  0  0  0  0  0  0  0  0  0  0
    8.1870  -14.4154   21.7662 C   0  0  1  0  0  0  0  0  0  0  0  0
    8.2203  -13.1897   20.9323 C   0  0  0  0  0  0  0  0  0  0  0  0
    8.6583  -13.4083   19.5192 C   0  0  0  0  0  0  0  0  0  0  0  0
    7.6462  -14.2241   18.7814 C   0  0  0  0  0  0  0  0  0  0  0  0
    8.1660  -14.4694   17.3783 C   0  0  0  0  0  0  0  0  0  0  0  0
    7.2453  -15.3069   16.6632 N   0  0  0  0  0  0  0  0  0  0  0  0
    9.4004  -15.2630   21.6971 C   0  0  0  0  0  0  0  0  0  0  0  0
    9.6637  -15.8174   20.5679 O   0  0  0  0  0  0  0  0  0  0  0  0
   10.2908  -15.5086   22.7603 N   0  0  0  0  0  0  0  0  0  0  0  0
   11.4711  -16.3643   22.4914 C   0  0  1  0  0  0  0  0  0  0  0  0
   12.7113  -15.6336   22.9345 C   0  0  0  0  0  0  0  0  0  0  0  0
   13.8969  -16.4636   22.7374 C   0  0  0  0  0  0  0  0  0  0  0  0
   14.6640  -16.7275   23.6792 O   0  0  0  0  0  0  0  0  0  0  0  0
   11.2918  -17.5955   23.3172 C   0  0  0  0  0  0  0  0  0  0  0  0
   10.4047  -17.5976   24.2248 O   0  0  0  0  0  0  0  0  0  0  0  0
   14.2475  -17.0120   21.4925 O   0  0  0  0  0  0  0  0  0  0  0  0
   12.0299  -18.7225   23.1499 O   0  0  0  0  0  0  0  0  0  0  0  0
  1  2  1  0
  2  3  1  0
  3  4  1  1
  5  3  1  0
  5  6  1  6
  7  5  1  0
  8  7  2  0
  9  7  1  0
 10  9  1  0
 11 12  1  0
 10 11  1  6
 13 12  1  0
 13 14  1  0
 14 15  1  0
 16 10  1  0
 16 18  1  0
 17 16  2  0
 19 18  1  0
 19 20  1  1
 20 21  1  0
 21 22  2  0
 23 19  1  0
 24 23  2  0
 25 21  1  0
 26 23  1  0
M  END
$$$$
