IKD.pdb
     RDKit          3D

 26 25  0  0  1  0  0  0  0  0999 V2000
    6.8718  -11.0097   27.6522 C   0  0  0  0  0  0  0  0  0  0  0  0
    6.0850  -12.0500   26.8809 C   0  0  0  0  0  0  0  0  0  0  0  0
    6.9991  -13.0610   26.2158 C   0  0  2  0  0  0  0  0  0  0  0  0
    8.0105  -12.3320   25.4024 C   0  0  0  0  0  0  0  0  0  0  0  0
    6.1362  -14.0100   25.4263 C   0  0  2  0  0  0  0  0  0  0  0  0
    5.2213  -14.6652   26.2987 N   0  0  0  0  0  0  0  0  0  0  0  0
    6.9234  -15.0244   24.6942 C   0  0  0  0  0  0  0  0  0  0  0  0
    7.2621  -16.0710   25.2949 O   0  0  0  0  0  0  0  0  0  0  0  0
    7.2824  -14.8152   23.3526 N   0  0  0  0  0  0  0  0  0  0  0  0
    7.9926  -15.8312   22.5474 C   0  0  1  0  0  0  0  0  0  0  0  0
    8.0467  -15.3982   21.1302 C   0  0  0  0  0  0  0  0  0  0  0  0
    8.8171  -16.3092   20.2286 C   0  0  0  0  0  0  0  0  0  0  0  0
    7.8846  -17.1057   19.3741 C   0  0  0  0  0  0  0  0  0  0  0  0
    8.7133  -18.0088   18.4815 C   0  0  0  0  0  0  0  0  0  0  0  0
    9.2863  -17.2377   17.4151 N   0  0  0  0  0  0  0  0  0  0  0  0
    9.3072  -15.9977   23.2105 C   0  0  0  0  0  0  0  0  0  0  0  0
    9.9893  -14.9316   23.4340 O   0  0  0  0  0  0  0  0  0  0  0  0
    9.8698  -17.2222   23.6200 N   0  0  0  0  0  0  0  0  0  0  0  0
   11.2392  -17.1995   24.1876 C   0  0  1  0  0  0  0  0  0  0  0  0
   11.5307  -18.5419   24.8052 C   0  0  0  0  0  0  0  0  0  0  0  0
   11.3432  -18.4951   26.2529 C   0  0  0  0  0  0  0  0  0  0  0  0
   10.5462  -19.2580   26.8256 O   0  0  0  0  0  0  0  0  0  0  0  0
   12.1639  -16.9637   23.0391 C   0  0  0  0  0  0  0  0  0  0  0  0
   11.8260  -17.3788   21.8884 O   0  0  0  0  0  0  0  0  0  0  0  0
   12.0374  -17.6012   27.0850 O   0  0  0  0  0  0  0  0  0  0  0  0
   13.3556  -16.3243   23.1574 O   0  0  0  0  0  0  0  0  0  0  0  0
  1  2  1  0
  2  3  1  0
  3  4  1  6
  5  3  1  0
  5  6  1  1
  7  5  1  0
  8  7  2  0
  9  7  1  0
 10  9  1  0
 11 12  1  0
 10 11  1  6
 13 12  1  0
 13 14  1  0
 14 15  1  0
 16 10  1  0
 16 18  1  0
 17 16  2  0
 19 18  1  0
 19 20  1  6
 20 21  1  0
 21 22  2  0
 23 19  1  0
 24 23  2  0
 25 21  1  0
 26 23  1  0
M  END
$$$$
