IKD.pdb
     RDKit          3D

 26 25  0  0  1  0  0  0  0  0999 V2000
    6.8298  -11.8199   28.1215 C   0  0  0  0  0  0  0  0  0  0  0  0
    6.0812  -12.8323   27.2784 C   0  0  0  0  0  0  0  0  0  0  0  0
    7.0001  -13.5235   26.2895 C   0  0  2  0  0  0  0  0  0  0  0  0
    7.6854  -12.4893   25.4669 C   0  0  0  0  0  0  0  0  0  0  0  0
    6.1698  -14.4972   25.4951 C   0  0  2  0  0  0  0  0  0  0  0  0
    5.6442  -15.4977   26.3613 N   0  0  0  0  0  0  0  0  0  0  0  0
    6.9329  -15.1455   24.4079 C   0  0  0  0  0  0  0  0  0  0  0  0
    7.3042  -16.3330   24.5592 O   0  0  0  0  0  0  0  0  0  0  0  0
    7.2336  -14.4409   23.2308 N   0  0  0  0  0  0  0  0  0  0  0  0
    7.9128  -15.0661   22.0764 C   0  0  1  0  0  0  0  0  0  0  0  0
    7.7746  -14.1964   20.8833 C   0  0  0  0  0  0  0  0  0  0  0  0
    8.4974  -14.6844   19.6684 C   0  0  0  0  0  0  0  0  0  0  0  0
    8.2130  -13.7945   18.5017 C   0  0  0  0  0  0  0  0  0  0  0  0
    8.8771  -14.3917   17.2764 C   0  0  0  0  0  0  0  0  0  0  0  0
    8.7501  -13.4859   16.1701 N   0  0  0  0  0  0  0  0  0  0  0  0
    9.3031  -15.3040   22.5303 C   0  0  0  0  0  0  0  0  0  0  0  0
    9.8446  -14.3945   23.2594 O   0  0  0  0  0  0  0  0  0  0  0  0
   10.0788  -16.4419   22.2352 N   0  0  0  0  0  0  0  0  0  0  0  0
   11.4565  -16.5009   22.7794 C   0  0  1  0  0  0  0  0  0  0  0  0
   11.6415  -17.8155   23.4906 C   0  0  0  0  0  0  0  0  0  0  0  0
   13.0290  -17.9810   23.9158 C   0  0  0  0  0  0  0  0  0  0  0  0
   13.7209  -17.0057   24.2551 O   0  0  0  0  0  0  0  0  0  0  0  0
   12.3739  -16.4329   21.6031 C   0  0  0  0  0  0  0  0  0  0  0  0
   12.0955  -17.1181   20.5717 O   0  0  0  0  0  0  0  0  0  0  0  0
   13.6676  -19.2311   23.9703 O   0  0  0  0  0  0  0  0  0  0  0  0
   13.4982  -15.6727   21.5743 O   0  0  0  0  0  0  0  0  0  0  0  0
  1  2  1  0
  2  3  1  0
  3  4  1  6
  5  3  1  0
  5  6  1  1
  7  5  1  0
  8  7  2  0
  9  7  1  0
 10  9  1  0
 11 12  1  0
 10 11  1  6
 13 12  1  0
 13 14  1  0
 14 15  1  0
 16 10  1  0
 16 18  1  0
 17 16  2  0
 19 18  1  0
 19 20  1  6
 20 21  1  0
 21 22  2  0
 23 19  1  0
 24 23  2  0
 25 21  1  0
 26 23  1  0
M  END
$$$$
