IKD.pdb
     RDKit          3D

 26 25  0  0  1  0  0  0  0  0999 V2000
    6.9272  -12.0355   27.8400 C   0  0  0  0  0  0  0  0  0  0  0  0
    6.3123  -13.1217   26.9808 C   0  0  0  0  0  0  0  0  0  0  0  0
    7.3279  -13.7203   26.0268 C   0  0  2  0  0  0  0  0  0  0  0  0
    7.9331  -12.6252   25.2203 C   0  0  0  0  0  0  0  0  0  0  0  0
    6.6259  -14.7748   25.2120 C   0  0  2  0  0  0  0  0  0  0  0  0
    6.1527  -15.8079   26.0700 N   0  0  0  0  0  0  0  0  0  0  0  0
    7.4936  -15.3647   24.1709 C   0  0  0  0  0  0  0  0  0  0  0  0
    7.8955  -16.5426   24.3198 O   0  0  0  0  0  0  0  0  0  0  0  0
    7.8577  -14.6167   23.0394 N   0  0  0  0  0  0  0  0  0  0  0  0
    8.6560  -15.1813   21.9309 C   0  0  1  0  0  0  0  0  0  0  0  0
    8.8032  -14.1712   20.8552 C   0  0  0  0  0  0  0  0  0  0  0  0
    7.8701  -14.3494   19.7002 C   0  0  0  0  0  0  0  0  0  0  0  0
    8.3802  -13.6162   18.5018 C   0  0  0  0  0  0  0  0  0  0  0  0
    7.4122  -13.8457   17.3575 C   0  0  0  0  0  0  0  0  0  0  0  0
    7.8817  -13.1632   16.1853 N   0  0  0  0  0  0  0  0  0  0  0  0
    9.9216  -15.6297   22.5575 C   0  0  0  0  0  0  0  0  0  0  0  0
   10.6256  -14.7379   23.1582 O   0  0  0  0  0  0  0  0  0  0  0  0
   10.4157  -16.9486   22.5547 N   0  0  0  0  0  0  0  0  0  0  0  0
   11.8345  -17.1572   22.9306 C   0  0  1  0  0  0  0  0  0  0  0  0
   11.9179  -18.3194   23.8849 C   0  0  0  0  0  0  0  0  0  0  0  0
   12.8295  -18.0184   24.9857 C   0  0  0  0  0  0  0  0  0  0  0  0
   13.1666  -18.8930   25.8022 O   0  0  0  0  0  0  0  0  0  0  0  0
   12.5568  -17.4921   21.6673 C   0  0  0  0  0  0  0  0  0  0  0  0
   13.8152  -17.6514   21.7077 O   0  0  0  0  0  0  0  0  0  0  0  0
   13.3796  -16.7429   25.1954 O   0  0  0  0  0  0  0  0  0  0  0  0
   11.9379  -17.6376   20.4679 O   0  0  0  0  0  0  0  0  0  0  0  0
  1  2  1  0
  2  3  1  0
  3  4  1  6
  5  3  1  0
  5  6  1  1
  7  5  1  0
  8  7  2  0
  9  7  1  0
 10  9  1  0
 11 12  1  0
 10 11  1  6
 13 12  1  0
 13 14  1  0
 14 15  1  0
 16 10  1  0
 16 18  1  0
 17 16  2  0
 19 18  1  0
 19 20  1  1
 20 21  1  0
 21 22  2  0
 23 19  1  0
 24 23  2  0
 25 21  1  0
 26 23  1  0
M  END
$$$$
