KER.pdb
     RDKit          3D

 30 29  0  0  1  0  0  0  0  0999 V2000
    9.7058  -14.2676   18.4784 N   0  0  0  0  0  0  0  0  0  0  0  0
    8.9373  -13.8603   19.6196 C   0  0  1  0  0  0  0  0  0  0  0  0
    7.5379  -13.5385   19.1481 C   0  0  0  0  0  0  0  0  0  0  0  0
    7.5502  -13.0223   17.7542 C   0  0  0  0  0  0  0  0  0  0  0  0
    7.4820  -14.0360   16.6592 C   0  0  0  0  0  0  0  0  0  0  0  0
    7.3587  -13.4721   15.2871 C   0  0  0  0  0  0  0  0  0  0  0  0
    7.2787  -14.4358   14.2402 N   0  0  0  0  0  0  0  0  0  0  0  0
    8.9535  -14.9385   20.6288 C   0  0  0  0  0  0  0  0  0  0  0  0
    8.2761  -14.8852   21.6936 O   0  0  0  0  0  0  0  0  0  0  0  0
    9.7616  -16.0841   20.3980 N   0  0  0  0  0  0  0  0  0  0  0  0
    9.8425  -17.1948   21.3411 C   0  0  1  0  0  0  0  0  0  0  0  0
   10.3619  -18.3827   20.6013 C   0  0  0  0  0  0  0  0  0  0  0  0
   10.6257  -19.6036   21.4039 C   0  0  0  0  0  0  0  0  0  0  0  0
   11.8263  -20.3729   21.0695 C   0  0  0  0  0  0  0  0  0  0  0  0
   12.3393  -20.3252   19.8998 O   0  0  0  0  0  0  0  0  0  0  0  0
   10.5362  -16.8380   22.5819 C   0  0  0  0  0  0  0  0  0  0  0  0
   11.6618  -16.2358   22.5057 O   0  0  0  0  0  0  0  0  0  0  0  0
   12.5142  -21.2056   21.9518 O   0  0  0  0  0  0  0  0  0  0  0  0
   11.2957  -16.0117   30.2749 N   0  0  0  0  0  0  0  0  0  0  0  0
   10.3965  -14.9020   30.2649 C   0  0  0  0  0  0  0  0  0  0  0  0
    9.5513  -14.8343   31.2179 N   0  0  0  0  0  0  0  0  0  0  0  0
   10.4961  -13.9662   29.2235 N   0  0  0  0  0  0  0  0  0  0  0  0
    9.8209  -14.2684   27.9544 C   0  0  0  0  0  0  0  0  0  0  0  0
   10.6000  -15.2911   27.1750 C   0  0  0  0  0  0  0  0  0  0  0  0
   10.0737  -15.6696   25.8549 C   0  0  0  0  0  0  0  0  0  0  0  0
   10.7725  -16.7095   25.0584 C   0  0  2  0  0  0  0  0  0  0  0  0
   10.0382  -17.1132   23.8795 N   0  0  0  0  0  0  0  0  0  0  0  0
   11.0998  -17.9080   25.8445 C   0  0  0  0  0  0  0  0  0  0  0  0
   10.3969  -18.9524   25.7580 O   0  0  0  0  0  0  0  0  0  0  0  0
   12.1784  -17.9610   26.7128 O   0  0  0  0  0  0  0  0  0  0  0  0
  2  1  1  6
  2  3  1  0
  3  4  1  0
  4  5  1  0
  6  5  1  0
  7  6  1  0
  8  2  1  0
  8  9  2  0
 10  8  1  0
 11 16  1  0
 11 10  1  0
 11 12  1  6
 13 12  1  0
 14 18  1  0
 14 13  1  0
 15 14  2  0
 16 27  1  0
 17 16  2  0
 20 22  1  0
 20 19  1  0
 21 20  2  0
 23 22  1  0
 23 24  1  0
 25 24  1  0
 26 25  1  1
 26 28  1  0
 27 26  1  0
 28 29  2  0
 28 30  1  0
M  END
$$$$
