KER.pdb
     RDKit          3D

 30 29  0  0  1  0  0  0  0  0999 V2000
    8.2123  -12.2476   18.4867 N   0  0  0  0  0  0  0  0  0  0  0  0
    7.7242  -13.4785   19.0393 C   0  0  1  0  0  0  0  0  0  0  0  0
    7.5196  -14.4515   17.9009 C   0  0  0  0  0  0  0  0  0  0  0  0
    8.6119  -14.3376   16.8992 C   0  0  0  0  0  0  0  0  0  0  0  0
    8.5248  -15.2275   15.7025 C   0  0  0  0  0  0  0  0  0  0  0  0
    9.5351  -14.9574   14.6433 C   0  0  0  0  0  0  0  0  0  0  0  0
    9.4467  -15.7943   13.4931 N   0  0  0  0  0  0  0  0  0  0  0  0
    8.6888  -13.9812   20.0384 C   0  0  0  0  0  0  0  0  0  0  0  0
    9.9359  -13.9877   19.8380 O   0  0  0  0  0  0  0  0  0  0  0  0
    8.2000  -14.4786   21.2763 N   0  0  0  0  0  0  0  0  0  0  0  0
    9.0770  -15.0171   22.3110 C   0  0  1  0  0  0  0  0  0  0  0  0
    8.2339  -15.3371   23.5005 C   0  0  0  0  0  0  0  0  0  0  0  0
    8.9450  -15.8295   24.7072 C   0  0  0  0  0  0  0  0  0  0  0  0
    8.1221  -16.1833   25.8660 C   0  0  0  0  0  0  0  0  0  0  0  0
    6.8459  -16.1372   25.8113 O   0  0  0  0  0  0  0  0  0  0  0  0
    9.9500  -16.0858   21.8172 C   0  0  0  0  0  0  0  0  0  0  0  0
    9.5356  -16.8249   20.8593 O   0  0  0  0  0  0  0  0  0  0  0  0
    8.6174  -16.5933   27.1035 O   0  0  0  0  0  0  0  0  0  0  0  0
   16.9629  -13.8504   17.7700 N   0  0  0  0  0  0  0  0  0  0  0  0
   15.6821  -14.2883   17.3143 C   0  0  0  0  0  0  0  0  0  0  0  0
   15.6664  -15.1376   16.3628 N   0  0  0  0  0  0  0  0  0  0  0  0
   14.5349  -13.7665   17.9323 N   0  0  0  0  0  0  0  0  0  0  0  0
   14.2876  -14.1133   19.3381 C   0  0  0  0  0  0  0  0  0  0  0  0
   13.5309  -15.4089   19.4347 C   0  0  0  0  0  0  0  0  0  0  0  0
   12.4002  -15.4549   20.3741 C   0  0  0  0  0  0  0  0  0  0  0  0
   12.3821  -16.4789   21.4488 C   0  0  2  0  0  0  0  0  0  0  0  0
   11.2419  -16.3592   22.3306 N   0  0  0  0  0  0  0  0  0  0  0  0
   13.6085  -16.4785   22.2597 C   0  0  0  0  0  0  0  0  0  0  0  0
   13.6226  -15.9689   23.4141 O   0  0  0  0  0  0  0  0  0  0  0  0
   14.8004  -17.0259   21.8128 O   0  0  0  0  0  0  0  0  0  0  0  0
  2  1  1  6
  2  3  1  0
  3  4  1  0
  4  5  1  0
  6  5  1  0
  7  6  1  0
  8  2  1  0
  8  9  2  0
 10  8  1  0
 11 16  1  0
 11 10  1  0
 11 12  1  1
 13 12  1  0
 14 18  1  0
 14 13  1  0
 15 14  2  0
 16 27  1  0
 17 16  2  0
 20 22  1  0
 20 19  1  0
 21 20  2  0
 23 22  1  0
 23 24  1  0
 25 24  1  0
 26 25  1  6
 26 28  1  0
 27 26  1  0
 28 29  2  0
 28 30  1  0
M  END
$$$$
