KER.pdb
     RDKit          3D

 30 29  0  0  1  0  0  0  0  0999 V2000
    7.0217  -17.5432   18.9267 N   0  0  0  0  0  0  0  0  0  0  0  0
    8.0215  -16.7388   19.5688 C   0  0  1  0  0  0  0  0  0  0  0  0
    7.4117  -15.3886   19.8680 C   0  0  0  0  0  0  0  0  0  0  0  0
    8.3149  -14.2886   19.4392 C   0  0  0  0  0  0  0  0  0  0  0  0
    7.8828  -12.8961   19.7639 C   0  0  0  0  0  0  0  0  0  0  0  0
    8.8382  -11.8300   19.3561 C   0  0  0  0  0  0  0  0  0  0  0  0
    8.4005  -10.4963   19.6029 N   0  0  0  0  0  0  0  0  0  0  0  0
    8.4891  -17.4246   20.7904 C   0  0  0  0  0  0  0  0  0  0  0  0
    7.7841  -17.5115   21.8349 O   0  0  0  0  0  0  0  0  0  0  0  0
    9.7827  -18.0122   20.7966 N   0  0  0  0  0  0  0  0  0  0  0  0
   10.3689  -18.6151   21.9893 C   0  0  1  0  0  0  0  0  0  0  0  0
   11.1751  -19.7935   21.5539 C   0  0  0  0  0  0  0  0  0  0  0  0
   12.1360  -20.3445   22.5424 C   0  0  0  0  0  0  0  0  0  0  0  0
   11.8461  -21.6751   23.0815 C   0  0  0  0  0  0  0  0  0  0  0  0
   11.5640  -22.6552   22.3110 O   0  0  0  0  0  0  0  0  0  0  0  0
   11.0441  -17.6375   22.8475 C   0  0  0  0  0  0  0  0  0  0  0  0
   11.8704  -16.8192   22.3153 O   0  0  0  0  0  0  0  0  0  0  0  0
   11.8467  -22.0069   24.4361 O   0  0  0  0  0  0  0  0  0  0  0  0
    9.7099  -16.4245   29.0808 N   0  0  0  0  0  0  0  0  0  0  0  0
   10.0420  -15.0385   28.9873 C   0  0  0  0  0  0  0  0  0  0  0  0
   10.7488  -14.5486   29.9293 N   0  0  0  0  0  0  0  0  0  0  0  0
    9.5787  -14.3100   27.8806 N   0  0  0  0  0  0  0  0  0  0  0  0
    8.6369  -14.9670   26.9645 C   0  0  0  0  0  0  0  0  0  0  0  0
    9.3805  -15.6989   25.8819 C   0  0  0  0  0  0  0  0  0  0  0  0
   10.8175  -15.9282   26.0948 C   0  0  0  0  0  0  0  0  0  0  0  0
   11.6153  -16.6044   25.0411 C   0  0  2  0  0  0  0  0  0  0  0  0
   10.8397  -17.5303   24.2454 N   0  0  0  0  0  0  0  0  0  0  0  0
   12.7888  -17.3099   25.5767 C   0  0  0  0  0  0  0  0  0  0  0  0
   12.8427  -18.5706   25.5785 O   0  0  0  0  0  0  0  0  0  0  0  0
   13.8846  -16.6452   26.1034 O   0  0  0  0  0  0  0  0  0  0  0  0
  2  1  1  1
  2  3  1  0
  3  4  1  0
  4  5  1  0
  6  5  1  0
  7  6  1  0
  8  2  1  0
  8  9  2  0
 10  8  1  0
 11 16  1  0
 11 10  1  0
 11 12  1  6
 13 12  1  0
 14 18  1  0
 14 13  1  0
 15 14  2  0
 16 27  1  0
 17 16  2  0
 20 22  1  0
 20 19  1  0
 21 20  2  0
 23 22  1  0
 23 24  1  0
 25 24  1  0
 26 25  1  1
 26 28  1  0
 27 26  1  0
 28 29  2  0
 28 30  1  0
M  END
$$$$
