KER.pdb
     RDKit          3D

 30 29  0  0  1  0  0  0  0  0999 V2000
   10.9114  -15.2649   18.9001 N   0  0  0  0  0  0  0  0  0  0  0  0
    9.9365  -14.8414   19.8640 C   0  0  1  0  0  0  0  0  0  0  0  0
    8.5828  -14.8490   19.1917 C   0  0  0  0  0  0  0  0  0  0  0  0
    8.6295  -14.1318   17.8906 C   0  0  0  0  0  0  0  0  0  0  0  0
    7.3692  -14.1064   17.0891 C   0  0  0  0  0  0  0  0  0  0  0  0
    7.4541  -13.3539   15.8076 C   0  0  0  0  0  0  0  0  0  0  0  0
    6.2856  -13.4084   14.9935 N   0  0  0  0  0  0  0  0  0  0  0  0
    9.9849  -15.7409   21.0344 C   0  0  0  0  0  0  0  0  0  0  0  0
    8.9928  -15.9237   21.7945 O   0  0  0  0  0  0  0  0  0  0  0  0
   11.1932  -16.4309   21.3216 N   0  0  0  0  0  0  0  0  0  0  0  0
   11.3379  -17.3243   22.4664 C   0  0  1  0  0  0  0  0  0  0  0  0
   12.7188  -17.8900   22.4302 C   0  0  0  0  0  0  0  0  0  0  0  0
   13.0755  -18.8445   23.5100 C   0  0  0  0  0  0  0  0  0  0  0  0
   14.4354  -19.3882   23.4946 C   0  0  0  0  0  0  0  0  0  0  0  0
   15.1803  -19.3395   24.5322 O   0  0  0  0  0  0  0  0  0  0  0  0
   10.9128  -16.7078   23.7263 C   0  0  0  0  0  0  0  0  0  0  0  0
   11.4137  -15.5789   24.0582 O   0  0  0  0  0  0  0  0  0  0  0  0
   15.0421  -19.9943   22.3948 O   0  0  0  0  0  0  0  0  0  0  0  0
    5.9502  -11.1190   26.9866 N   0  0  0  0  0  0  0  0  0  0  0  0
    6.6871  -11.7898   25.9634 C   0  0  0  0  0  0  0  0  0  0  0  0
    7.2260  -11.0603   25.0665 N   0  0  0  0  0  0  0  0  0  0  0  0
    6.7738  -13.1901   26.0062 N   0  0  0  0  0  0  0  0  0  0  0  0
    7.6407  -13.7991   27.0238 C   0  0  0  0  0  0  0  0  0  0  0  0
    7.6462  -15.2959   26.8822 C   0  0  0  0  0  0  0  0  0  0  0  0
    8.2954  -15.8524   25.6856 C   0  0  0  0  0  0  0  0  0  0  0  0
    9.5742  -16.5938   25.8240 C   0  0  2  0  0  0  0  0  0  0  0  0
    9.9684  -17.2805   24.6137 N   0  0  0  0  0  0  0  0  0  0  0  0
    9.5577  -17.5604   26.9317 C   0  0  0  0  0  0  0  0  0  0  0  0
    9.5720  -18.8024   26.7090 O   0  0  0  0  0  0  0  0  0  0  0  0
    9.5243  -17.1729   28.2617 O   0  0  0  0  0  0  0  0  0  0  0  0
  2  1  1  6
  2  3  1  0
  3  4  1  0
  4  5  1  0
  6  5  1  0
  7  6  1  0
  8  2  1  0
  8  9  2  0
 10  8  1  0
 11 16  1  0
 11 10  1  0
 11 12  1  1
 13 12  1  0
 14 18  1  0
 14 13  1  0
 15 14  2  0
 16 27  1  0
 17 16  2  0
 20 22  1  0
 20 19  1  0
 21 20  2  0
 23 22  1  0
 23 24  1  0
 25 24  1  0
 26 25  1  6
 26 28  1  0
 27 26  1  0
 28 29  2  0
 28 30  1  0
M  END
$$$$
