KER.pdb
     RDKit          3D

 30 29  0  0  1  0  0  0  0  0999 V2000
    5.2403  -20.4814   20.7134 N   0  0  0  0  0  0  0  0  0  0  0  0
    5.6794  -19.2469   21.2981 C   0  0  1  0  0  0  0  0  0  0  0  0
    4.6536  -18.8273   22.3258 C   0  0  0  0  0  0  0  0  0  0  0  0
    3.2738  -19.0964   21.8427 C   0  0  0  0  0  0  0  0  0  0  0  0
    2.4774  -20.1047   22.6045 C   0  0  0  0  0  0  0  0  0  0  0  0
    1.0325  -20.1619   22.2512 C   0  0  0  0  0  0  0  0  0  0  0  0
    0.2590  -21.0889   23.0086 N   0  0  0  0  0  0  0  0  0  0  0  0
    7.0191  -19.4367   21.8902 C   0  0  0  0  0  0  0  0  0  0  0  0
    7.3876  -20.5297   22.4050 O   0  0  0  0  0  0  0  0  0  0  0  0
    7.9342  -18.3499   21.8830 N   0  0  0  0  0  0  0  0  0  0  0  0
    9.3108  -18.4753   22.3507 C   0  0  1  0  0  0  0  0  0  0  0  0
   10.1830  -17.7172   21.4059 C   0  0  0  0  0  0  0  0  0  0  0  0
   11.6364  -17.7018   21.7085 C   0  0  0  0  0  0  0  0  0  0  0  0
   12.5078  -17.0164   20.7514 C   0  0  0  0  0  0  0  0  0  0  0  0
   12.5116  -17.3341   19.5133 O   0  0  0  0  0  0  0  0  0  0  0  0
    9.4581  -18.1639   23.7753 C   0  0  0  0  0  0  0  0  0  0  0  0
    9.0339  -17.0367   24.2053 O   0  0  0  0  0  0  0  0  0  0  0  0
   13.3908  -15.9850   21.0699 O   0  0  0  0  0  0  0  0  0  0  0  0
   10.2365  -22.4818   31.6662 N   0  0  0  0  0  0  0  0  0  0  0  0
    9.3922  -22.4893   30.5143 C   0  0  0  0  0  0  0  0  0  0  0  0
    8.7438  -23.5625   30.2799 N   0  0  0  0  0  0  0  0  0  0  0  0
    9.3265  -21.3326   29.7221 N   0  0  0  0  0  0  0  0  0  0  0  0
   10.5862  -20.6698   29.3590 C   0  0  0  0  0  0  0  0  0  0  0  0
   10.3180  -19.4646   28.5012 C   0  0  0  0  0  0  0  0  0  0  0  0
   10.0316  -19.7059   27.0790 C   0  0  0  0  0  0  0  0  0  0  0  0
   10.2503  -18.6178   26.0930 C   0  0  2  0  0  0  0  0  0  0  0  0
   10.0419  -19.0383   24.7249 N   0  0  0  0  0  0  0  0  0  0  0  0
   11.5833  -18.0071   26.2016 C   0  0  0  0  0  0  0  0  0  0  0  0
   11.7706  -16.9808   26.9117 O   0  0  0  0  0  0  0  0  0  0  0  0
   12.6926  -18.5111   25.5419 O   0  0  0  0  0  0  0  0  0  0  0  0
  2  1  1  1
  2  3  1  0
  3  4  1  0
  4  5  1  0
  6  5  1  0
  7  6  1  0
  8  2  1  0
  8  9  2  0
 10  8  1  0
 11 16  1  0
 11 10  1  0
 11 12  1  6
 13 12  1  0
 14 18  1  0
 14 13  1  0
 15 14  2  0
 16 27  1  0
 17 16  2  0
 20 22  1  0
 20 19  1  0
 21 20  2  0
 23 22  1  0
 23 24  1  0
 25 24  1  0
 26 25  1  1
 26 28  1  0
 27 26  1  0
 28 29  2  0
 28 30  1  0
M  END
$$$$
