CNF.pdb
     RDKit          3D

 26 26  0  0  1  0  0  0  0  0999 V2000
   25.8666  -17.7483  -16.3116 N   0  0  0  0  0  0  0  0  0  0  0  0
   26.7234  -18.2987  -15.2538 C   0  0  1  0  0  0  0  0  0  0  0  0
   27.6817  -17.1690  -14.8845 C   0  0  0  0  0  0  0  0  0  0  0  0
   29.0769  -17.2593  -16.0425 S   0  0  0  0  0  0  0  0  0  0  0  0
   25.9104  -18.6227  -14.0502 C   0  0  0  0  0  0  0  0  0  0  0  0
   25.2025  -17.7262  -13.4993 O   0  0  0  0  0  0  0  0  0  0  0  0
   25.7700  -23.5980  -13.4400 N   0  0  0  0  0  0  0  0  0  0  0  0
   24.8861  -22.8791  -12.5820 C   0  0  0  0  0  0  0  0  0  0  0  0
   24.5698  -23.4090  -11.5043 O   0  0  0  0  0  0  0  0  0  0  0  0
   24.3773  -21.5746  -12.9597 C   0  0  0  0  0  0  0  0  0  0  0  0
   25.0987  -20.3761  -12.4614 C   0  0  2  0  0  0  0  0  0  0  0  0
   25.9714  -19.9534  -13.5698 N   0  0  0  0  0  0  0  0  0  0  0  0
   25.9278  -20.5476  -11.2703 C   0  0  0  0  0  0  0  0  0  0  0  0
   27.0711  -21.1215  -11.3681 O   0  0  0  0  0  0  0  0  0  0  0  0
   25.6080  -20.1339   -9.9522 N   0  0  0  0  0  0  0  0  0  0  0  0
   26.3453  -20.5536   -8.7750 C   0  0  1  0  0  0  0  0  0  0  0  0
   27.1273  -19.4194   -8.2017 C   0  0  0  0  0  0  0  0  0  0  0  0
   27.7465  -19.7156   -6.9170 C   0  0  0  0  0  0  0  0  0  0  0  0
   27.3144  -19.1703   -5.7176 C   0  0  0  0  0  0  0  0  0  0  0  0
   27.9083  -19.4576   -4.5138 C   0  0  0  0  0  0  0  0  0  0  0  0
   28.9806  -20.3269   -4.5015 C   0  0  0  0  0  0  0  0  0  0  0  0
   29.4477  -20.8976   -5.6817 C   0  0  0  0  0  0  0  0  0  0  0  0
   28.8258  -20.5841   -6.8646 C   0  0  0  0  0  0  0  0  0  0  0  0
   25.5128  -21.2078   -7.7740 C   0  0  0  0  0  0  0  0  0  0  0  0
   24.1199  -21.0481   -7.8433 O   0  0  0  0  0  0  0  0  0  0  0  0
   25.9281  -21.9203   -6.8282 O   0  0  0  0  0  0  0  0  0  0  0  0
  2  1  1  6
  3  2  1  0
  3  4  1  0
  5  6  2  0
  5  2  1  0
  7  8  1  0
  8  9  2  0
  8 10  1  0
 11 10  1  6
 11 13  1  0
 11 12  1  0
 12  5  1  0
 13 15  1  0
 14 13  2  0
 15 16  1  0
 16 17  1  1
 17 18  1  0
 18 23  2  0
 19 20  2  0
 19 18  1  0
 20 21  1  0
 21 22  2  0
 23 22  1  0
 24 25  1  0
 24 16  1  0
 26 24  2  0
M  END
$$$$
