CNF.pdb
     RDKit          3D

 26 26  0  0  1  0  0  0  0  0999 V2000
   17.6937  -12.3501  -17.6740 N   0  0  0  0  0  0  0  0  0  0  0  0
   18.6731  -11.6743  -16.8138 C   0  0  1  0  0  0  0  0  0  0  0  0
   20.0337  -12.2004  -17.2639 C   0  0  0  0  0  0  0  0  0  0  0  0
   20.2695  -13.8118  -16.4616 S   0  0  0  0  0  0  0  0  0  0  0  0
   18.6451  -10.2065  -17.0573 C   0  0  0  0  0  0  0  0  0  0  0  0
   18.3161   -9.7559  -18.1962 O   0  0  0  0  0  0  0  0  0  0  0  0
   17.9372   -5.2020  -16.4461 N   0  0  0  0  0  0  0  0  0  0  0  0
   16.9856   -6.2582  -16.3310 C   0  0  0  0  0  0  0  0  0  0  0  0
   15.7814   -5.9570  -16.3703 O   0  0  0  0  0  0  0  0  0  0  0  0
   17.4148   -7.6346  -16.1738 C   0  0  0  0  0  0  0  0  0  0  0  0
   18.8734   -7.9045  -16.1055 C   0  0  2  0  0  0  0  0  0  0  0  0
   18.9970   -9.3660  -15.9733 N   0  0  0  0  0  0  0  0  0  0  0  0
   19.6128   -7.2848  -15.0078 C   0  0  0  0  0  0  0  0  0  0  0  0
   19.3025   -7.5634  -13.7944 O   0  0  0  0  0  0  0  0  0  0  0  0
   20.6882   -6.3681  -15.1256 N   0  0  0  0  0  0  0  0  0  0  0  0
   21.4201   -5.8350  -13.9917 C   0  0  1  0  0  0  0  0  0  0  0  0
   22.7271   -6.5349  -13.8225 C   0  0  0  0  0  0  0  0  0  0  0  0
   23.5506   -6.5519  -15.0237 C   0  0  0  0  0  0  0  0  0  0  0  0
   24.2552   -5.4490  -15.4819 C   0  0  0  0  0  0  0  0  0  0  0  0
   25.0270   -5.4791  -16.6167 C   0  0  0  0  0  0  0  0  0  0  0  0
   25.1020   -6.6593  -17.3287 C   0  0  0  0  0  0  0  0  0  0  0  0
   24.4113   -7.7910  -16.9055 C   0  0  0  0  0  0  0  0  0  0  0  0
   23.6506   -7.7191  -15.7652 C   0  0  0  0  0  0  0  0  0  0  0  0
   21.5742   -4.3867  -14.0320 C   0  0  0  0  0  0  0  0  0  0  0  0
   21.1580   -3.6937  -15.1796 O   0  0  0  0  0  0  0  0  0  0  0  0
   22.0560   -3.6757  -13.1172 O   0  0  0  0  0  0  0  0  0  0  0  0
  2  1  1  6
  3  2  1  0
  3  4  1  0
  5  6  2  0
  5  2  1  0
  7  8  1  0
  8  9  2  0
  8 10  1  0
 11 10  1  1
 11 13  1  0
 11 12  1  0
 12  5  1  0
 13 15  1  0
 14 13  2  0
 15 16  1  0
 16 17  1  6
 17 18  1  0
 18 23  2  0
 19 20  2  0
 19 18  1  0
 20 21  1  0
 21 22  2  0
 23 22  1  0
 24 25  1  0
 24 16  1  0
 26 24  2  0
M  END
$$$$
