CNF.pdb
     RDKit          3D

 26 26  0  0  1  0  0  0  0  0999 V2000
   26.3360  -18.2865  -16.0819 N   0  0  0  0  0  0  0  0  0  0  0  0
   27.0232  -18.7747  -14.8796 C   0  0  1  0  0  0  0  0  0  0  0  0
   27.9902  -17.6599  -14.4890 C   0  0  0  0  0  0  0  0  0  0  0  0
   29.3702  -17.7199  -15.6672 S   0  0  0  0  0  0  0  0  0  0  0  0
   26.0506  -18.9495  -13.7668 C   0  0  0  0  0  0  0  0  0  0  0  0
   25.1371  -18.0903  -13.5784 O   0  0  0  0  0  0  0  0  0  0  0  0
   22.4899  -20.6568  -13.8277 N   0  0  0  0  0  0  0  0  0  0  0  0
   22.9563  -21.0920  -12.5521 C   0  0  0  0  0  0  0  0  0  0  0  0
   22.1263  -21.1770  -11.6321 O   0  0  0  0  0  0  0  0  0  0  0  0
   24.3527  -21.4228  -12.3418 C   0  0  0  0  0  0  0  0  0  0  0  0
   25.2553  -20.3499  -11.8527 C   0  0  2  0  0  0  0  0  0  0  0  0
   26.2006  -20.0992  -12.9539 N   0  0  0  0  0  0  0  0  0  0  0  0
   26.0286  -20.6317  -10.6452 C   0  0  0  0  0  0  0  0  0  0  0  0
   26.9003  -21.5731  -10.6532 O   0  0  0  0  0  0  0  0  0  0  0  0
   25.9302  -19.9558   -9.4026 N   0  0  0  0  0  0  0  0  0  0  0  0
   26.6092  -20.3873   -8.1950 C   0  0  1  0  0  0  0  0  0  0  0  0
   27.4690  -19.2978   -7.6469 C   0  0  0  0  0  0  0  0  0  0  0  0
   28.0751  -19.6112   -6.3601 C   0  0  0  0  0  0  0  0  0  0  0  0
   29.1069  -20.5243   -6.2045 C   0  0  0  0  0  0  0  0  0  0  0  0
   29.6683  -20.8108   -4.9850 C   0  0  0  0  0  0  0  0  0  0  0  0
   29.1819  -20.1599   -3.8691 C   0  0  0  0  0  0  0  0  0  0  0  0
   28.1472  -19.2356   -3.9787 C   0  0  0  0  0  0  0  0  0  0  0  0
   27.6133  -18.9775   -5.2168 C   0  0  0  0  0  0  0  0  0  0  0  0
   25.7082  -20.9340   -7.1889 C   0  0  0  0  0  0  0  0  0  0  0  0
   26.2118  -21.8585   -6.2604 O   0  0  0  0  0  0  0  0  0  0  0  0
   24.4913  -20.6534   -7.0656 O   0  0  0  0  0  0  0  0  0  0  0  0
  2  1  1  6
  3  2  1  0
  3  4  1  0
  5  6  2  0
  5  2  1  0
  7  8  1  0
  8  9  2  0
  8 10  1  0
 11 10  1  6
 11 13  1  0
 11 12  1  0
 12  5  1  0
 13 15  1  0
 14 13  2  0
 15 16  1  0
 16 17  1  1
 17 18  1  0
 18 23  2  0
 19 20  2  0
 19 18  1  0
 20 21  1  0
 21 22  2  0
 23 22  1  0
 24 25  1  0
 24 16  1  0
 26 24  2  0
M  END
$$$$
