CNF.pdb
     RDKit          3D

 26 26  0  0  1  0  0  0  0  0999 V2000
   16.8277  -13.3522  -15.2449 N   0  0  0  0  0  0  0  0  0  0  0  0
   17.1958  -12.0795  -15.8778 C   0  0  1  0  0  0  0  0  0  0  0  0
   16.0623  -11.1167  -15.5330 C   0  0  0  0  0  0  0  0  0  0  0  0
   14.6549  -11.5558  -16.5923 S   0  0  0  0  0  0  0  0  0  0  0  0
   18.4484  -11.5486  -15.2744 C   0  0  0  0  0  0  0  0  0  0  0  0
   18.6058  -11.5643  -14.0161 O   0  0  0  0  0  0  0  0  0  0  0  0
   24.0572  -11.6828  -15.5477 N   0  0  0  0  0  0  0  0  0  0  0  0
   23.1337  -10.7449  -16.0968 C   0  0  0  0  0  0  0  0  0  0  0  0
   23.5407   -9.5911  -16.3100 O   0  0  0  0  0  0  0  0  0  0  0  0
   21.7676  -11.1305  -16.3944 C   0  0  0  0  0  0  0  0  0  0  0  0
   20.6773  -10.4709  -15.6320 C   0  0  2  0  0  0  0  0  0  0  0  0
   19.4268  -11.0397  -16.1626 N   0  0  0  0  0  0  0  0  0  0  0  0
   20.5893   -9.0151  -15.7239 C   0  0  0  0  0  0  0  0  0  0  0  0
   20.0702   -8.4735  -16.7648 O   0  0  0  0  0  0  0  0  0  0  0  0
   21.0276   -8.0798  -14.7525 N   0  0  0  0  0  0  0  0  0  0  0  0
   21.0121   -6.6427  -14.9533 C   0  0  1  0  0  0  0  0  0  0  0  0
   21.6237   -5.9340  -13.7913 C   0  0  0  0  0  0  0  0  0  0  0  0
   21.6098   -4.4823  -13.9079 C   0  0  0  0  0  0  0  0  0  0  0  0
   22.6779   -3.7455  -14.3967 C   0  0  0  0  0  0  0  0  0  0  0  0
   22.6514   -2.3769  -14.5003 C   0  0  0  0  0  0  0  0  0  0  0  0
   21.5110   -1.7101  -14.0998 C   0  0  0  0  0  0  0  0  0  0  0  0
   20.4150   -2.4094  -13.6031 C   0  0  0  0  0  0  0  0  0  0  0  0
   20.4821   -3.7776  -13.5158 C   0  0  0  0  0  0  0  0  0  0  0  0
   21.6014   -6.2296  -16.2202 C   0  0  0  0  0  0  0  0  0  0  0  0
   22.8758   -6.7087  -16.5618 O   0  0  0  0  0  0  0  0  0  0  0  0
   21.0686   -5.4657  -17.0612 O   0  0  0  0  0  0  0  0  0  0  0  0
  2  1  1  1
  3  2  1  0
  3  4  1  0
  5  6  2  0
  5  2  1  0
  7  8  1  0
  8  9  2  0
  8 10  1  0
 11 10  1  6
 11 13  1  0
 11 12  1  0
 12  5  1  0
 13 15  1  0
 14 13  2  0
 15 16  1  0
 16 17  1  1
 17 18  1  0
 18 23  2  0
 19 20  2  0
 19 18  1  0
 20 21  1  0
 21 22  2  0
 23 22  1  0
 24 25  1  0
 24 16  1  0
 26 24  2  0
M  END
$$$$
