CNF.pdb
     RDKit          3D

 26 26  0  0  1  0  0  0  0  0999 V2000
   27.4395  -34.6036   -5.6178 N   0  0  0  0  0  0  0  0  0  0  0  0
   28.3480  -35.0829   -4.5687 C   0  0  1  0  0  0  0  0  0  0  0  0
   29.5514  -34.1448   -4.6199 C   0  0  0  0  0  0  0  0  0  0  0  0
   30.4839  -34.5624   -6.1205 S   0  0  0  0  0  0  0  0  0  0  0  0
   27.7107  -34.9393   -3.2315 C   0  0  0  0  0  0  0  0  0  0  0  0
   27.1340  -33.8554   -2.9138 O   0  0  0  0  0  0  0  0  0  0  0  0
   24.5874  -38.5241   -2.0453 N   0  0  0  0  0  0  0  0  0  0  0  0
   25.0617  -37.4777   -1.2003 C   0  0  0  0  0  0  0  0  0  0  0  0
   24.2248  -36.6850   -0.7378 O   0  0  0  0  0  0  0  0  0  0  0  0
   26.4735  -37.3483   -0.8944 C   0  0  0  0  0  0  0  0  0  0  0  0
   27.1000  -36.0116   -1.0556 C   0  0  2  0  0  0  0  0  0  0  0  0
   27.7835  -36.0526   -2.3595 N   0  0  0  0  0  0  0  0  0  0  0  0
   28.0747  -35.6087   -0.0440 C   0  0  0  0  0  0  0  0  0  0  0  0
   29.1694  -36.2658    0.0821 O   0  0  0  0  0  0  0  0  0  0  0  0
   27.9534  -34.5231    0.8600 N   0  0  0  0  0  0  0  0  0  0  0  0
   28.9893  -34.1388    1.8008 C   0  0  1  0  0  0  0  0  0  0  0  0
   29.1160  -32.6540    1.8791 C   0  0  0  0  0  0  0  0  0  0  0  0
   27.8977  -31.9763    2.3009 C   0  0  0  0  0  0  0  0  0  0  0  0
   27.6336  -31.6299    3.6173 C   0  0  0  0  0  0  0  0  0  0  0  0
   26.4802  -30.9920    4.0010 C   0  0  0  0  0  0  0  0  0  0  0  0
   25.5467  -30.6841    3.0318 C   0  0  0  0  0  0  0  0  0  0  0  0
   25.7703  -31.0130    1.6981 C   0  0  0  0  0  0  0  0  0  0  0  0
   26.9368  -31.6507    1.3562 C   0  0  0  0  0  0  0  0  0  0  0  0
   28.8305  -34.7462    3.1156 C   0  0  0  0  0  0  0  0  0  0  0  0
   27.5787  -35.2726    3.4710 O   0  0  0  0  0  0  0  0  0  0  0  0
   29.7267  -34.8488    3.9881 O   0  0  0  0  0  0  0  0  0  0  0  0
  2  1  1  6
  3  2  1  0
  3  4  1  0
  5  6  2  0
  5  2  1  0
  7  8  1  0
  8  9  2  0
  8 10  1  0
 11 10  1  1
 11 13  1  0
 11 12  1  0
 12  5  1  0
 13 15  1  0
 14 13  2  0
 15 16  1  0
 16 17  1  1
 17 18  1  0
 18 23  2  0
 19 20  2  0
 19 18  1  0
 20 21  1  0
 21 22  2  0
 23 22  1  0
 24 25  1  0
 24 16  1  0
 26 24  2  0
M  END
$$$$
