CNF.pdb
     RDKit          3D

 26 26  0  0  1  0  0  0  0  0999 V2000
   27.2260  -20.1341  -15.2735 N   0  0  0  0  0  0  0  0  0  0  0  0
   27.7352  -19.1043  -14.3591 C   0  0  1  0  0  0  0  0  0  0  0  0
   27.5088  -17.7783  -15.0810 C   0  0  0  0  0  0  0  0  0  0  0  0
   28.7423  -17.6821  -16.4095 S   0  0  0  0  0  0  0  0  0  0  0  0
   26.9329  -19.0873  -13.1058 C   0  0  0  0  0  0  0  0  0  0  0  0
   26.7780  -18.0050  -12.4632 O   0  0  0  0  0  0  0  0  0  0  0  0
   23.3381  -21.7450  -14.1583 N   0  0  0  0  0  0  0  0  0  0  0  0
   23.4636  -20.9436  -12.9852 C   0  0  0  0  0  0  0  0  0  0  0  0
   22.7640  -19.9204  -12.9074 O   0  0  0  0  0  0  0  0  0  0  0  0
   24.3780  -21.3154  -11.9225 C   0  0  0  0  0  0  0  0  0  0  0  0
   25.4363  -20.3447  -11.5448 C   0  0  2  0  0  0  0  0  0  0  0  0
   26.3682  -20.3158  -12.6849 N   0  0  0  0  0  0  0  0  0  0  0  0
   26.2051  -20.6370  -10.3368 C   0  0  0  0  0  0  0  0  0  0  0  0
   26.9104  -21.7070  -10.2749 O   0  0  0  0  0  0  0  0  0  0  0  0
   26.2723  -19.8407   -9.1655 N   0  0  0  0  0  0  0  0  0  0  0  0
   26.9243  -20.2638   -7.9401 C   0  0  1  0  0  0  0  0  0  0  0  0
   27.6486  -19.1271   -7.3000 C   0  0  0  0  0  0  0  0  0  0  0  0
   28.2879  -19.4676   -6.0364 C   0  0  0  0  0  0  0  0  0  0  0  0
   27.7699  -19.1150   -4.7995 C   0  0  0  0  0  0  0  0  0  0  0  0
   28.3839  -19.4418   -3.6160 C   0  0  0  0  0  0  0  0  0  0  0  0
   29.5667  -20.1518   -3.6641 C   0  0  0  0  0  0  0  0  0  0  0  0
   30.1227  -20.5268   -4.8836 C   0  0  0  0  0  0  0  0  0  0  0  0
   29.4771  -20.1801   -6.0444 C   0  0  0  0  0  0  0  0  0  0  0  0
   26.0266  -20.9361   -7.0100 C   0  0  0  0  0  0  0  0  0  0  0  0
   26.5690  -21.8277   -6.0712 O   0  0  0  0  0  0  0  0  0  0  0  0
   24.7807  -20.7943   -6.9626 O   0  0  0  0  0  0  0  0  0  0  0  0
  2  1  1  6
  3  2  1  0
  3  4  1  0
  5  6  2  0
  5  2  1  0
  7  8  1  0
  8  9  2  0
  8 10  1  0
 11 10  1  6
 11 13  1  0
 11 12  1  0
 12  5  1  0
 13 15  1  0
 14 13  2  0
 15 16  1  0
 16 17  1  1
 17 18  1  0
 18 23  2  0
 19 20  2  0
 19 18  1  0
 20 21  1  0
 21 22  2  0
 23 22  1  0
 24 25  1  0
 24 16  1  0
 26 24  2  0
M  END
$$$$
