CNF.pdb
     RDKit          3D

 26 26  0  0  1  0  0  0  0  0999 V2000
   25.2458  -15.2954  -16.9542 N   0  0  0  0  0  0  0  0  0  0  0  0
   26.0059  -15.6842  -15.7596 C   0  0  1  0  0  0  0  0  0  0  0  0
   25.3717  -14.9064  -14.6092 C   0  0  0  0  0  0  0  0  0  0  0  0
   25.8846  -13.1749  -14.7953 S   0  0  0  0  0  0  0  0  0  0  0  0
   25.8266  -17.1360  -15.4860 C   0  0  0  0  0  0  0  0  0  0  0  0
   24.6811  -17.6686  -15.5979 O   0  0  0  0  0  0  0  0  0  0  0  0
   26.5305  -19.4999  -17.7552 N   0  0  0  0  0  0  0  0  0  0  0  0
   27.7396  -19.9862  -17.1757 C   0  0  0  0  0  0  0  0  0  0  0  0
   28.5874  -20.4792  -17.9376 O   0  0  0  0  0  0  0  0  0  0  0  0
   27.9662  -19.9053  -15.7455 C   0  0  0  0  0  0  0  0  0  0  0  0
   26.8905  -19.3236  -14.9030 C   0  0  2  0  0  0  0  0  0  0  0  0
   26.9776  -17.8673  -15.1045 N   0  0  0  0  0  0  0  0  0  0  0  0
   26.9550  -19.5883  -13.4673 C   0  0  0  0  0  0  0  0  0  0  0  0
   27.7717  -18.9241  -12.7338 O   0  0  0  0  0  0  0  0  0  0  0  0
   26.1840  -20.5365  -12.7482 N   0  0  0  0  0  0  0  0  0  0  0  0
   26.3440  -20.7952  -11.3293 C   0  0  1  0  0  0  0  0  0  0  0  0
   26.1742  -19.5432  -10.5353 C   0  0  0  0  0  0  0  0  0  0  0  0
   26.3810  -19.7162   -9.1040 C   0  0  0  0  0  0  0  0  0  0  0  0
   25.8427  -20.7667   -8.3765 C   0  0  0  0  0  0  0  0  0  0  0  0
   26.0449  -20.9169   -7.0270 C   0  0  0  0  0  0  0  0  0  0  0  0
   26.8177  -19.9802   -6.3707 C   0  0  0  0  0  0  0  0  0  0  0  0
   27.3778  -18.9095   -7.0613 C   0  0  0  0  0  0  0  0  0  0  0  0
   27.1513  -18.7957   -8.4103 C   0  0  0  0  0  0  0  0  0  0  0  0
   25.4973  -21.8749  -10.8393 C   0  0  0  0  0  0  0  0  0  0  0  0
   26.0768  -22.8889  -10.0605 O   0  0  0  0  0  0  0  0  0  0  0  0
   24.2659  -21.9933  -11.0500 O   0  0  0  0  0  0  0  0  0  0  0  0
  2  1  1  6
  3  2  1  0
  3  4  1  0
  5  6  2  0
  5  2  1  0
  7  8  1  0
  8  9  2  0
  8 10  1  0
 11 10  1  6
 11 13  1  0
 11 12  1  0
 12  5  1  0
 13 15  1  0
 14 13  2  0
 15 16  1  0
 16 17  1  1
 17 18  1  0
 18 23  2  0
 19 20  2  0
 19 18  1  0
 20 21  1  0
 21 22  2  0
 23 22  1  0
 24 25  1  0
 24 16  1  0
 26 24  2  0
M  END
$$$$
