CNF.pdb
     RDKit          3D

 26 26  0  0  1  0  0  0  0  0999 V2000
   13.0932  -11.1866  -10.4263 N   0  0  0  0  0  0  0  0  0  0  0  0
   14.3788  -10.7071   -9.9038 C   0  0  1  0  0  0  0  0  0  0  0  0
   15.4419  -11.4268  -10.7299 C   0  0  0  0  0  0  0  0  0  0  0  0
   15.6454  -13.0791  -10.0058 S   0  0  0  0  0  0  0  0  0  0  0  0
   14.5199   -9.2457  -10.1473 C   0  0  0  0  0  0  0  0  0  0  0  0
   14.1199   -8.7404  -11.2395 O   0  0  0  0  0  0  0  0  0  0  0  0
   12.9476   -6.3969   -6.6759 N   0  0  0  0  0  0  0  0  0  0  0  0
   13.6171   -6.0419   -7.8841 C   0  0  0  0  0  0  0  0  0  0  0  0
   12.9594   -5.4512   -8.7564 O   0  0  0  0  0  0  0  0  0  0  0  0
   15.0178   -6.3618   -8.0821 C   0  0  0  0  0  0  0  0  0  0  0  0
   15.4028   -7.0484   -9.3412 C   0  0  2  0  0  0  0  0  0  0  0  0
   15.1099   -8.4742   -9.1169 N   0  0  0  0  0  0  0  0  0  0  0  0
   16.7975   -6.9317   -9.7616 C   0  0  0  0  0  0  0  0  0  0  0  0
   17.7362   -7.0747   -8.8988 O   0  0  0  0  0  0  0  0  0  0  0  0
   17.2644   -6.6686  -11.0744 N   0  0  0  0  0  0  0  0  0  0  0  0
   18.6535   -6.7929  -11.4753 C   0  0  1  0  0  0  0  0  0  0  0  0
   19.0221   -8.2229  -11.6893 C   0  0  0  0  0  0  0  0  0  0  0  0
   20.3788   -8.4182  -12.1820 C   0  0  0  0  0  0  0  0  0  0  0  0
   21.4776   -8.5748  -11.3509 C   0  0  0  0  0  0  0  0  0  0  0  0
   22.7513   -8.7571  -11.8292 C   0  0  0  0  0  0  0  0  0  0  0  0
   22.9416   -8.7854  -13.1962 C   0  0  0  0  0  0  0  0  0  0  0  0
   21.8673   -8.6324  -14.0677 C   0  0  0  0  0  0  0  0  0  0  0  0
   20.6094   -8.4523  -13.5486 C   0  0  0  0  0  0  0  0  0  0  0  0
   19.0023   -5.9592  -12.6182 C   0  0  0  0  0  0  0  0  0  0  0  0
   17.9827   -5.5448  -13.4896 O   0  0  0  0  0  0  0  0  0  0  0  0
   20.1565   -5.5631  -12.9108 O   0  0  0  0  0  0  0  0  0  0  0  0
  2  1  1  6
  3  2  1  0
  3  4  1  0
  5  6  2  0
  5  2  1  0
  7  8  1  0
  8  9  2  0
  8 10  1  0
 11 10  1  1
 11 13  1  0
 11 12  1  0
 12  5  1  0
 13 15  1  0
 14 13  2  0
 15 16  1  0
 16 17  1  6
 17 18  1  0
 18 23  2  0
 19 20  2  0
 19 18  1  0
 20 21  1  0
 21 22  2  0
 23 22  1  0
 24 25  1  0
 24 16  1  0
 26 24  2  0
M  END
$$$$
