CNF.pdb
     RDKit          3D

 26 26  0  0  1  0  0  0  0  0999 V2000
   26.3802  -18.0135  -15.4268 N   0  0  0  0  0  0  0  0  0  0  0  0
   27.1427  -18.9312  -14.5711 C   0  0  1  0  0  0  0  0  0  0  0  0
   28.3330  -18.1175  -14.0697 C   0  0  0  0  0  0  0  0  0  0  0  0
   29.4752  -17.9339  -15.4689 S   0  0  0  0  0  0  0  0  0  0  0  0
   26.3288  -19.3292  -13.3905 C   0  0  0  0  0  0  0  0  0  0  0  0
   25.4694  -18.5296  -12.9104 O   0  0  0  0  0  0  0  0  0  0  0  0
   24.5811  -23.4928  -14.3074 N   0  0  0  0  0  0  0  0  0  0  0  0
   24.3462  -22.6109  -13.2114 C   0  0  0  0  0  0  0  0  0  0  0  0
   23.2874  -21.9618  -13.2093 O   0  0  0  0  0  0  0  0  0  0  0  0
   25.3135  -22.4806  -12.1387 C   0  0  0  0  0  0  0  0  0  0  0  0
   25.7303  -21.1119  -11.7409 C   0  0  2  0  0  0  0  0  0  0  0  0
   26.5633  -20.6169  -12.8500 N   0  0  0  0  0  0  0  0  0  0  0  0
   26.4981  -20.9847  -10.5040 C   0  0  0  0  0  0  0  0  0  0  0  0
   27.7313  -21.3383  -10.4813 O   0  0  0  0  0  0  0  0  0  0  0  0
   26.0233  -20.4906   -9.2627 N   0  0  0  0  0  0  0  0  0  0  0  0
   26.7122  -20.6874   -8.0008 C   0  0  1  0  0  0  0  0  0  0  0  0
   27.4587  -19.4585   -7.6020 C   0  0  0  0  0  0  0  0  0  0  0  0
   28.1384  -19.5678   -6.3184 C   0  0  0  0  0  0  0  0  0  0  0  0
   29.1943  -20.4359   -6.0854 C   0  0  0  0  0  0  0  0  0  0  0  0
   29.8253  -20.5293   -4.8699 C   0  0  0  0  0  0  0  0  0  0  0  0
   29.3869  -19.7230   -3.8388 C   0  0  0  0  0  0  0  0  0  0  0  0
   28.3304  -18.8370   -4.0280 C   0  0  0  0  0  0  0  0  0  0  0  0
   27.7264  -18.7742   -5.2590 C   0  0  0  0  0  0  0  0  0  0  0  0
   25.8424  -21.1709   -6.9365 C   0  0  0  0  0  0  0  0  0  0  0  0
   26.4197  -21.8164   -5.8317 O   0  0  0  0  0  0  0  0  0  0  0  0
   24.5923  -21.0654   -6.9075 O   0  0  0  0  0  0  0  0  0  0  0  0
  2  1  1  6
  3  2  1  0
  3  4  1  0
  5  6  2  0
  5  2  1  0
  7  8  1  0
  8  9  2  0
  8 10  1  0
 11 10  1  6
 11 13  1  0
 11 12  1  0
 12  5  1  0
 13 15  1  0
 14 13  2  0
 15 16  1  0
 16 17  1  1
 17 18  1  0
 18 23  2  0
 19 20  2  0
 19 18  1  0
 20 21  1  0
 21 22  2  0
 23 22  1  0
 24 25  1  0
 24 16  1  0
 26 24  2  0
M  END
$$$$
