CNF.pdb
     RDKit          3D

 26 26  0  0  1  0  0  0  0  0999 V2000
   26.3189  -19.6456  -15.7653 N   0  0  0  0  0  0  0  0  0  0  0  0
   27.1080  -20.1492  -14.6340 C   0  0  1  0  0  0  0  0  0  0  0  0
   28.5013  -19.5533  -14.8191 C   0  0  0  0  0  0  0  0  0  0  0  0
   28.3111  -17.7479  -14.7994 S   0  0  0  0  0  0  0  0  0  0  0  0
   26.5552  -19.6342  -13.3518 C   0  0  0  0  0  0  0  0  0  0  0  0
   26.0455  -18.4742  -13.2982 O   0  0  0  0  0  0  0  0  0  0  0  0
   23.7715  -18.4476  -12.2005 N   0  0  0  0  0  0  0  0  0  0  0  0
   23.4207  -19.8299  -12.1847 C   0  0  0  0  0  0  0  0  0  0  0  0
   22.2888  -20.1429  -12.5887 O   0  0  0  0  0  0  0  0  0  0  0  0
   24.3573  -20.8315  -11.7124 C   0  0  0  0  0  0  0  0  0  0  0  0
   25.6448  -20.3637  -11.1391 C   0  0  2  0  0  0  0  0  0  0  0  0
   26.6291  -20.4914  -12.2271 N   0  0  0  0  0  0  0  0  0  0  0  0
   26.1560  -21.0871   -9.9767 C   0  0  0  0  0  0  0  0  0  0  0  0
   26.3184  -22.3583  -10.0393 O   0  0  0  0  0  0  0  0  0  0  0  0
   26.5153  -20.5270   -8.7246 N   0  0  0  0  0  0  0  0  0  0  0  0
   26.8841  -21.3171   -7.5648 C   0  0  1  0  0  0  0  0  0  0  0  0
   28.2769  -21.0075   -7.1280 C   0  0  0  0  0  0  0  0  0  0  0  0
   28.3534  -20.1312   -5.9671 C   0  0  0  0  0  0  0  0  0  0  0  0
   28.8225  -20.5435   -4.7291 C   0  0  0  0  0  0  0  0  0  0  0  0
   28.8881  -19.7068   -3.6428 C   0  0  0  0  0  0  0  0  0  0  0  0
   28.4685  -18.4004   -3.7940 C   0  0  0  0  0  0  0  0  0  0  0  0
   27.9905  -17.9436   -5.0186 C   0  0  0  0  0  0  0  0  0  0  0  0
   27.9411  -18.8124   -6.0801 C   0  0  0  0  0  0  0  0  0  0  0  0
   25.9297  -21.2153   -6.4685 C   0  0  0  0  0  0  0  0  0  0  0  0
   26.1283  -22.0025   -5.3234 O   0  0  0  0  0  0  0  0  0  0  0  0
   24.9182  -20.4731   -6.4446 O   0  0  0  0  0  0  0  0  0  0  0  0
  2  1  1  6
  3  2  1  0
  3  4  1  0
  5  6  2  0
  5  2  1  0
  7  8  1  0
  8  9  2  0
  8 10  1  0
 11 10  1  6
 11 13  1  0
 11 12  1  0
 12  5  1  0
 13 15  1  0
 14 13  2  0
 15 16  1  0
 16 17  1  1
 17 18  1  0
 18 23  2  0
 19 20  2  0
 19 18  1  0
 20 21  1  0
 21 22  2  0
 23 22  1  0
 24 25  1  0
 24 16  1  0
 26 24  2  0
M  END
$$$$
