GPC.pdb
     RDKit          3D

 18 18  0  0  1  0  0  0  0  0999 V2000
   23.0441  -18.6357  -16.6658 N   0  0  0  0  0  0  0  0  0  0  0  0
   24.3055  -18.2432  -15.9756 C   0  0  0  0  0  0  0  0  0  0  0  0
   24.9916  -19.4630  -15.5571 C   0  0  0  0  0  0  0  0  0  0  0  0
   24.1545  -20.4451  -15.2693 O   0  0  0  0  0  0  0  0  0  0  0  0
   26.3346  -19.7526  -15.4155 N   0  0  0  0  0  0  0  0  0  0  0  0
   27.3565  -19.1261  -16.3168 C   0  0  0  0  0  0  0  0  0  0  0  0
   28.2314  -18.4932  -15.2534 C   0  0  0  0  0  0  0  0  0  0  0  0
   28.1316  -19.4420  -14.0773 C   0  0  0  0  0  0  0  0  0  0  0  0
   27.1426  -20.5437  -14.6040 C   0  0  1  0  0  0  0  0  0  0  0  0
   26.6497  -21.3266  -13.5104 C   0  0  0  0  0  0  0  0  0  0  0  0
   26.5939  -22.5399  -13.4261 O   0  0  0  0  0  0  0  0  0  0  0  0
   26.1561  -20.5903  -12.3614 N   0  0  0  0  0  0  0  0  0  0  0  0
   25.4570  -21.2887  -11.3047 C   0  0  1  0  0  0  0  0  0  0  0  0
   26.1210  -21.0542   -9.9601 C   0  0  0  0  0  0  0  0  0  0  0  0
   25.0897  -19.9182   -9.0008 S   0  0  0  0  0  0  0  0  0  0  0  0
   24.0654  -20.7590  -11.1882 C   0  0  0  0  0  0  0  0  0  0  0  0
   23.7756  -19.6549  -11.7125 O   0  0  0  0  0  0  0  0  0  0  0  0
   23.1350  -21.5112  -10.4997 O   0  0  0  0  0  0  0  0  0  0  0  0
  1  2  1  0
  3  4  2  0
  3  2  1  0
  5  3  1  0
  6  5  1  0
  7  6  1  0
  8  7  1  0
  8  9  1  0
  9  5  1  0
 10 12  1  0
  9 10  1  1
 11 10  2  0
 13 12  1  0
 13 16  1  0
 13 14  1  1
 14 15  1  0
 16 18  1  0
 17 16  2  0
M  END
$$$$
