GPC.pdb
     RDKit          3D

 18 18  0  0  1  0  0  0  0  0999 V2000
   24.7235  -20.8576  -16.3078 N   0  0  0  0  0  0  0  0  0  0  0  0
   25.7860  -20.1050  -15.5824 C   0  0  0  0  0  0  0  0  0  0  0  0
   25.9637  -20.7225  -14.2706 C   0  0  0  0  0  0  0  0  0  0  0  0
   24.8189  -21.0930  -13.7227 O   0  0  0  0  0  0  0  0  0  0  0  0
   27.0997  -20.9763  -13.5271 N   0  0  0  0  0  0  0  0  0  0  0  0
   28.3299  -21.5440  -14.1702 C   0  0  0  0  0  0  0  0  0  0  0  0
   29.3111  -20.4628  -13.7638 C   0  0  0  0  0  0  0  0  0  0  0  0
   28.8058  -19.9897  -12.4170 C   0  0  0  0  0  0  0  0  0  0  0  0
   27.5172  -20.8635  -12.2041 C   0  0  1  0  0  0  0  0  0  0  0  0
   26.7111  -20.3061  -11.1594 C   0  0  0  0  0  0  0  0  0  0  0  0
   26.1293  -19.2366  -11.1550 O   0  0  0  0  0  0  0  0  0  0  0  0
   26.5667  -21.1085   -9.9588 N   0  0  0  0  0  0  0  0  0  0  0  0
   25.8398  -20.5822   -8.8241 C   0  0  1  0  0  0  0  0  0  0  0  0
   24.9186  -21.6315   -8.2290 C   0  0  0  0  0  0  0  0  0  0  0  0
   24.2353  -20.9853   -6.6830 S   0  0  0  0  0  0  0  0  0  0  0  0
   26.8002  -20.2008   -7.7458 C   0  0  0  0  0  0  0  0  0  0  0  0
   27.7255  -20.9899   -7.4312 O   0  0  0  0  0  0  0  0  0  0  0  0
   26.6349  -18.9790   -7.1250 O   0  0  0  0  0  0  0  0  0  0  0  0
  1  2  1  0
  3  4  2  0
  3  2  1  0
  5  3  1  0
  6  5  1  0
  7  6  1  0
  8  7  1  0
  8  9  1  0
  9  5  1  0
 10 12  1  0
  9 10  1  1
 11 10  2  0
 13 12  1  0
 13 16  1  0
 13 14  1  1
 14 15  1  0
 16 18  1  0
 17 16  2  0
M  END
$$$$
