GPC.pdb
     RDKit          3D

 18 18  0  0  1  0  0  0  0  0999 V2000
   28.2191  -20.9979  -14.6004 N   0  0  0  0  0  0  0  0  0  0  0  0
   27.5359  -20.3014  -13.4735 C   0  0  0  0  0  0  0  0  0  0  0  0
   26.1980  -20.8705  -13.3335 C   0  0  0  0  0  0  0  0  0  0  0  0
   25.6304  -21.1303  -14.4990 O   0  0  0  0  0  0  0  0  0  0  0  0
   25.4470  -21.1735  -12.2146 N   0  0  0  0  0  0  0  0  0  0  0  0
   26.0930  -21.7328  -10.9821 C   0  0  0  0  0  0  0  0  0  0  0  0
   25.6244  -20.6856   -9.9919 C   0  0  0  0  0  0  0  0  0  0  0  0
   24.2673  -20.2621  -10.5135 C   0  0  0  0  0  0  0  0  0  0  0  0
   24.1136  -21.1235  -11.8186 C   0  0  1  0  0  0  0  0  0  0  0  0
   23.0597  -20.5982  -12.6343 C   0  0  0  0  0  0  0  0  0  0  0  0
   22.9190  -19.4546  -13.0275 O   0  0  0  0  0  0  0  0  0  0  0  0
   22.0327  -21.5379  -13.0447 N   0  0  0  0  0  0  0  0  0  0  0  0
   20.9581  -21.0986  -13.9080 C   0  0  1  0  0  0  0  0  0  0  0  0
   20.9658  -21.8578  -15.2223 C   0  0  0  0  0  0  0  0  0  0  0  0
   19.5561  -21.3049  -16.2129 S   0  0  0  0  0  0  0  0  0  0  0  0
   19.6438  -21.3868  -13.2597 C   0  0  0  0  0  0  0  0  0  0  0  0
   19.5053  -22.4306  -12.5747 O   0  0  0  0  0  0  0  0  0  0  0  0
   18.6147  -20.4844  -13.4386 O   0  0  0  0  0  0  0  0  0  0  0  0
  1  2  1  0
  3  4  2  0
  3  2  1  0
  5  3  1  0
  6  5  1  0
  7  6  1  0
  8  7  1  0
  8  9  1  0
  9  5  1  0
 10 12  1  0
  9 10  1  6
 11 10  2  0
 13 12  1  0
 13 16  1  0
 13 14  1  6
 14 15  1  0
 16 18  1  0
 17 16  2  0
M  END
$$$$
