GPC.pdb
     RDKit          3D

 18 18  0  0  1  0  0  0  0  0999 V2000
   22.1568  -12.0852  -19.3346 N   0  0  0  0  0  0  0  0  0  0  0  0
   22.4771  -10.6728  -19.6872 C   0  0  0  0  0  0  0  0  0  0  0  0
   22.7264   -9.9416  -18.4476 C   0  0  0  0  0  0  0  0  0  0  0  0
   22.0350  -10.4190  -17.4267 O   0  0  0  0  0  0  0  0  0  0  0  0
   23.5428   -8.8620  -18.1725 N   0  0  0  0  0  0  0  0  0  0  0  0
   24.8963   -8.7390  -18.8067 C   0  0  0  0  0  0  0  0  0  0  0  0
   24.7157   -7.3797  -19.4521 C   0  0  0  0  0  0  0  0  0  0  0  0
   23.7938   -6.6390  -18.5062 C   0  0  0  0  0  0  0  0  0  0  0  0
   23.5071   -7.7098  -17.3925 C   0  0  1  0  0  0  0  0  0  0  0  0
   22.3759   -7.3139  -16.6081 C   0  0  0  0  0  0  0  0  0  0  0  0
   21.2026   -7.3202  -16.9332 O   0  0  0  0  0  0  0  0  0  0  0  0
   22.6558   -6.8481  -15.2624 N   0  0  0  0  0  0  0  0  0  0  0  0
   21.5705   -6.4113  -14.4113 C   0  0  1  0  0  0  0  0  0  0  0  0
   21.4126   -7.3270  -13.2111 C   0  0  0  0  0  0  0  0  0  0  0  0
   20.0853   -6.6794  -12.1655 S   0  0  0  0  0  0  0  0  0  0  0  0
   21.8726   -5.0522  -13.8705 C   0  0  0  0  0  0  0  0  0  0  0  0
   23.0638   -4.7260  -13.6415 O   0  0  0  0  0  0  0  0  0  0  0  0
   20.8185   -4.1916  -13.6386 O   0  0  0  0  0  0  0  0  0  0  0  0
  1  2  1  0
  3  4  2  0
  3  2  1  0
  5  3  1  0
  6  5  1  0
  7  6  1  0
  8  7  1  0
  8  9  1  0
  9  5  1  0
 10 12  1  0
  9 10  1  6
 11 10  2  0
 13 12  1  0
 13 16  1  0
 13 14  1  1
 14 15  1  0
 16 18  1  0
 17 16  2  0
M  END
$$$$
