GPC.pdb
     RDKit          3D

 18 18  0  0  1  0  0  0  0  0999 V2000
   17.8667  -11.5267  -15.4058 N   0  0  0  0  0  0  0  0  0  0  0  0
   18.7935  -11.1202  -16.5001 C   0  0  0  0  0  0  0  0  0  0  0  0
   19.7732  -10.1913  -15.9426 C   0  0  0  0  0  0  0  0  0  0  0  0
   19.2886   -9.4828  -14.9370 O   0  0  0  0  0  0  0  0  0  0  0  0
   21.0873   -9.9366  -16.2834 N   0  0  0  0  0  0  0  0  0  0  0  0
   22.0241  -11.0559  -16.6279 C   0  0  0  0  0  0  0  0  0  0  0  0
   22.4441  -10.5778  -18.0033 C   0  0  0  0  0  0  0  0  0  0  0  0
   22.4128   -9.0675  -17.8970 C   0  0  0  0  0  0  0  0  0  0  0  0
   21.9255   -8.8341  -16.4215 C   0  0  1  0  0  0  0  0  0  0  0  0
   21.4929   -7.4788  -16.2542 C   0  0  0  0  0  0  0  0  0  0  0  0
   20.6156   -6.8943  -16.8633 O   0  0  0  0  0  0  0  0  0  0  0  0
   22.1794   -6.7039  -15.2371 N   0  0  0  0  0  0  0  0  0  0  0  0
   21.8335   -5.3137  -15.0353 C   0  0  1  0  0  0  0  0  0  0  0  0
   21.4893   -5.0399  -13.5826 C   0  0  0  0  0  0  0  0  0  0  0  0
   21.1293   -3.2760  -13.4004 S   0  0  0  0  0  0  0  0  0  0  0  0
   23.0084   -4.4516  -15.3622 C   0  0  0  0  0  0  0  0  0  0  0  0
   22.8432   -3.4098  -16.0443 O   0  0  0  0  0  0  0  0  0  0  0  0
   24.2503   -4.8351  -14.8974 O   0  0  0  0  0  0  0  0  0  0  0  0
  1  2  1  0
  3  4  2  0
  3  2  1  0
  5  3  1  0
  6  5  1  0
  7  6  1  0
  8  7  1  0
  8  9  1  0
  9  5  1  0
 10 12  1  0
  9 10  1  6
 11 10  2  0
 13 12  1  0
 13 16  1  0
 13 14  1  1
 14 15  1  0
 16 18  1  0
 17 16  2  0
M  END
$$$$
