GPC.pdb
     RDKit          3D

 18 18  0  0  1  0  0  0  0  0999 V2000
   41.2919  -10.6097   -7.5241 N   0  0  0  0  0  0  0  0  0  0  0  0
   41.8015  -11.6166   -8.4979 C   0  0  0  0  0  0  0  0  0  0  0  0
   42.9428  -12.2967   -7.8911 C   0  0  0  0  0  0  0  0  0  0  0  0
   43.7105  -11.4785   -7.1916 O   0  0  0  0  0  0  0  0  0  0  0  0
   43.3429  -13.6182   -7.9266 N   0  0  0  0  0  0  0  0  0  0  0  0
   42.3364  -14.7289   -7.8763 C   0  0  0  0  0  0  0  0  0  0  0  0
   42.7278  -15.4405   -9.1558 C   0  0  0  0  0  0  0  0  0  0  0  0
   44.2219  -15.2179   -9.2625 C   0  0  0  0  0  0  0  0  0  0  0  0
   44.5321  -14.3378   -7.9982 C   0  0  1  0  0  0  0  0  0  0  0  0
   45.8236  -13.7313   -8.1250 C   0  0  0  0  0  0  0  0  0  0  0  0
   46.2344  -13.0321   -9.0332 O   0  0  0  0  0  0  0  0  0  0  0  0
   46.7598  -13.9762   -7.0435 N   0  0  0  0  0  0  0  0  0  0  0  0
   48.0872  -13.4033   -7.0966 C   0  0  1  0  0  0  0  0  0  0  0  0
   48.7064  -13.3259   -5.7129 C   0  0  0  0  0  0  0  0  0  0  0  0
   50.3559  -12.5971   -5.8620 S   0  0  0  0  0  0  0  0  0  0  0  0
   48.9800  -14.2800   -7.9120 C   0  0  0  0  0  0  0  0  0  0  0  0
   49.6640  -13.7788   -8.8387 O   0  0  0  0  0  0  0  0  0  0  0  0
   49.0225  -15.6273   -7.6145 O   0  0  0  0  0  0  0  0  0  0  0  0
  1  2  1  0
  3  4  2  0
  3  2  1  0
  5  3  1  0
  6  5  1  0
  7  6  1  0
  8  7  1  0
  8  9  1  0
  9  5  1  0
 10 12  1  0
  9 10  1  6
 11 10  2  0
 13 12  1  0
 13 16  1  0
 13 14  1  1
 14 15  1  0
 16 18  1  0
 17 16  2  0
M  END
$$$$
