GPC.pdb
     RDKit          3D

 18 18  0  0  1  0  0  0  0  0999 V2000
   22.7574  -20.3394  -12.3141 N   0  0  0  0  0  0  0  0  0  0  0  0
   24.2302  -20.1156  -12.3634 C   0  0  0  0  0  0  0  0  0  0  0  0
   24.8026  -20.5871  -11.1049 C   0  0  0  0  0  0  0  0  0  0  0  0
   23.9638  -20.4726  -10.0893 O   0  0  0  0  0  0  0  0  0  0  0  0
   26.0425  -21.1182  -10.8078 N   0  0  0  0  0  0  0  0  0  0  0  0
   26.7442  -22.0238  -11.7757 C   0  0  0  0  0  0  0  0  0  0  0  0
   28.0343  -21.2411  -11.9159 C   0  0  0  0  0  0  0  0  0  0  0  0
   28.2304  -20.6018  -10.5572 C   0  0  0  0  0  0  0  0  0  0  0  0
   26.9614  -21.0797   -9.7631 C   0  0  1  0  0  0  0  0  0  0  0  0
   26.7919  -20.2870   -8.5821 C   0  0  0  0  0  0  0  0  0  0  0  0
   26.4453  -19.1222   -8.5079 O   0  0  0  0  0  0  0  0  0  0  0  0
   27.0646  -20.9465   -7.3184 N   0  0  0  0  0  0  0  0  0  0  0  0
   27.3216  -20.1559   -6.1344 C   0  0  1  0  0  0  0  0  0  0  0  0
   27.3984  -21.0315   -4.8969 C   0  0  0  0  0  0  0  0  0  0  0  0
   27.9608  -20.0158   -3.5090 S   0  0  0  0  0  0  0  0  0  0  0  0
   28.6484  -19.4816   -6.2594 C   0  0  0  0  0  0  0  0  0  0  0  0
   29.5700  -20.0399   -6.9050 O   0  0  0  0  0  0  0  0  0  0  0  0
   28.8171  -18.2529   -5.6532 O   0  0  0  0  0  0  0  0  0  0  0  0
  1  2  1  0
  3  4  2  0
  3  2  1  0
  5  3  1  0
  6  5  1  0
  7  6  1  0
  8  7  1  0
  8  9  1  0
  9  5  1  0
 10 12  1  0
  9 10  1  1
 11 10  2  0
 13 12  1  0
 13 16  1  0
 13 14  1  1
 14 15  1  0
 16 18  1  0
 17 16  2  0
M  END
$$$$
