GPC.pdb
     RDKit          3D

 18 18  0  0  1  0  0  0  0  0999 V2000
   25.7598  -14.7633  -16.0375 N   0  0  0  0  0  0  0  0  0  0  0  0
   25.9344  -13.5505  -16.8862 C   0  0  0  0  0  0  0  0  0  0  0  0
   25.3422  -12.4157  -16.1825 C   0  0  0  0  0  0  0  0  0  0  0  0
   24.2315  -12.7372  -15.5415 O   0  0  0  0  0  0  0  0  0  0  0  0
   25.7396  -11.0969  -16.0791 N   0  0  0  0  0  0  0  0  0  0  0  0
   27.1850  -10.7403  -15.8983 C   0  0  0  0  0  0  0  0  0  0  0  0
   27.3392   -9.8265  -17.0974 C   0  0  0  0  0  0  0  0  0  0  0  0
   25.9811   -9.1728  -17.2433 C   0  0  0  0  0  0  0  0  0  0  0  0
   25.1515   -9.8355  -16.0850 C   0  0  1  0  0  0  0  0  0  0  0  0
   23.7518   -9.6102  -16.2903 C   0  0  0  0  0  0  0  0  0  0  0  0
   23.0399  -10.0777  -17.1604 O   0  0  0  0  0  0  0  0  0  0  0  0
   23.0979   -8.7180  -15.3509 N   0  0  0  0  0  0  0  0  0  0  0  0
   21.6928   -8.4112  -15.5080 C   0  0  1  0  0  0  0  0  0  0  0  0
   20.9465   -8.5730  -14.1963 C   0  0  0  0  0  0  0  0  0  0  0  0
   19.2252   -8.0761  -14.4499 S   0  0  0  0  0  0  0  0  0  0  0  0
   21.5333   -6.9825  -15.9129 C   0  0  0  0  0  0  0  0  0  0  0  0
   22.2945   -6.1104  -15.4251 O   0  0  0  0  0  0  0  0  0  0  0  0
   20.5423   -6.6667  -16.8205 O   0  0  0  0  0  0  0  0  0  0  0  0
  1  2  1  0
  3  4  2  0
  3  2  1  0
  5  3  1  0
  6  5  1  0
  7  6  1  0
  8  7  1  0
  8  9  1  0
  9  5  1  0
 10 12  1  0
  9 10  1  6
 11 10  2  0
 13 12  1  0
 13 16  1  0
 13 14  1  1
 14 15  1  0
 16 18  1  0
 17 16  2  0
M  END
$$$$
