IQD.pdb
     RDKit          3D

 26 25  0  0  1  0  0  0  0  0999 V2000
   29.1238  -12.9340  -15.6829 C   0  0  0  0  0  0  0  0  0  0  0  0
   27.7042  -13.3614  -15.9309 C   0  0  0  0  0  0  0  0  0  0  0  0
   26.7957  -12.2451  -16.2911 C   0  0  2  0  0  0  0  0  0  0  0  0
   26.9014  -11.1979  -15.2011 C   0  0  0  0  0  0  0  0  0  0  0  0
   25.3891  -12.5831  -16.6158 C   0  0  2  0  0  0  0  0  0  0  0  0
   25.4744  -13.5721  -17.7241 N   0  0  0  0  0  0  0  0  0  0  0  0
   24.5391  -11.5071  -17.1190 C   0  0  0  0  0  0  0  0  0  0  0  0
   24.7364  -10.9901  -18.2717 O   0  0  0  0  0  0  0  0  0  0  0  0
   20.3617  -13.1398  -17.1915 N   0  0  0  0  0  0  0  0  0  0  0  0
   20.6802  -12.5841  -18.4541 C   0  0  0  0  0  0  0  0  0  0  0  0
   20.5248  -13.2936  -19.4755 O   0  0  0  0  0  0  0  0  0  0  0  0
   21.1953  -11.1769  -18.5965 C   0  0  0  0  0  0  0  0  0  0  0  0
   21.2701  -10.5096  -17.2475 C   0  0  0  0  0  0  0  0  0  0  0  0
   22.6293   -9.8932  -16.9581 C   0  0  2  0  0  0  0  0  0  0  0  0
   23.4531  -10.9627  -16.4001 N   0  0  0  0  0  0  0  0  0  0  0  0
   22.6101   -8.7351  -16.1011 C   0  0  0  0  0  0  0  0  0  0  0  0
   22.6343   -8.9216  -14.8441 O   0  0  0  0  0  0  0  0  0  0  0  0
   22.5672   -7.3931  -16.5593 N   0  0  0  0  0  0  0  0  0  0  0  0
   22.5774   -6.2768  -15.6091 C   0  0  1  0  0  0  0  0  0  0  0  0
   22.8522   -4.9624  -16.2613 C   0  0  0  0  0  0  0  0  0  0  0  0
   22.8621   -3.8307  -15.3151 C   0  0  0  0  0  0  0  0  0  0  0  0
   22.5204   -2.6870  -15.6588 O   0  0  0  0  0  0  0  0  0  0  0  0
   21.2956   -6.2735  -14.8529 C   0  0  0  0  0  0  0  0  0  0  0  0
   21.2443   -6.1208  -13.4740 O   0  0  0  0  0  0  0  0  0  0  0  0
   23.2666   -4.0671  -14.0099 O   0  0  0  0  0  0  0  0  0  0  0  0
   20.2042   -6.4124  -15.4614 O   0  0  0  0  0  0  0  0  0  0  0  0
  1  2  1  0
  2  3  1  0
  3  5  1  0
  3  4  1  1
  5  7  1  0
  5  6  1  6
  7  8  2  0
  9 10  1  0
 10 12  1  0
 10 11  2  0
 12 13  1  0
 14 13  1  1
 15 14  1  0
 15  7  1  0
 16 17  2  0
 16 14  1  0
 18 16  1  0
 19 18  1  0
 19 23  1  0
 19 20  1  6
 21 20  1  0
 22 21  2  0
 23 24  1  0
 25 21  1  0
 26 23  2  0
M  END
$$$$
