IQD.pdb
     RDKit          3D

 26 25  0  0  1  0  0  0  0  0999 V2000
   26.5274  -15.0260  -15.8977 C   0  0  0  0  0  0  0  0  0  0  0  0
   25.1173  -15.1850  -15.4020 C   0  0  0  0  0  0  0  0  0  0  0  0
   24.2410  -14.0264  -15.7033 C   0  0  2  0  0  0  0  0  0  0  0  0
   24.9558  -12.7761  -15.2322 C   0  0  0  0  0  0  0  0  0  0  0  0
   22.8371  -14.0869  -15.2306 C   0  0  2  0  0  0  0  0  0  0  0  0
   22.2747  -15.3202  -15.8443 N   0  0  0  0  0  0  0  0  0  0  0  0
   21.9437  -13.0063  -15.6400 C   0  0  0  0  0  0  0  0  0  0  0  0
   21.5361  -12.9044  -16.8477 O   0  0  0  0  0  0  0  0  0  0  0  0
   16.7836  -11.7206  -13.2630 N   0  0  0  0  0  0  0  0  0  0  0  0
   17.1290  -12.5168  -14.3816 C   0  0  0  0  0  0  0  0  0  0  0  0
   16.3686  -13.4606  -14.7007 O   0  0  0  0  0  0  0  0  0  0  0  0
   18.3741  -12.2588  -15.1871 C   0  0  0  0  0  0  0  0  0  0  0  0
   19.2266  -11.2163  -14.5109 C   0  0  0  0  0  0  0  0  0  0  0  0
   20.5472  -10.9685  -15.2220 C   0  0  2  0  0  0  0  0  0  0  0  0
   21.4611  -12.0113  -14.7627 N   0  0  0  0  0  0  0  0  0  0  0  0
   21.1069   -9.6534  -15.0398 C   0  0  0  0  0  0  0  0  0  0  0  0
   21.7992   -9.4381  -13.9958 O   0  0  0  0  0  0  0  0  0  0  0  0
   20.9427   -8.5741  -15.9459 N   0  0  0  0  0  0  0  0  0  0  0  0
   21.5896   -7.2824  -15.6968 C   0  0  1  0  0  0  0  0  0  0  0  0
   21.6169   -6.4050  -16.9043 C   0  0  0  0  0  0  0  0  0  0  0  0
   22.1676   -5.0624  -16.6393 C   0  0  0  0  0  0  0  0  0  0  0  0
   23.3905   -4.8443  -16.6417 O   0  0  0  0  0  0  0  0  0  0  0  0
   20.9270   -6.6251  -14.5375 C   0  0  0  0  0  0  0  0  0  0  0  0
   21.5854   -5.7170  -13.7195 O   0  0  0  0  0  0  0  0  0  0  0  0
   21.2824   -4.0264  -16.3823 O   0  0  0  0  0  0  0  0  0  0  0  0
   19.7268   -6.8843  -14.2671 O   0  0  0  0  0  0  0  0  0  0  0  0
  1  2  1  0
  2  3  1  0
  3  5  1  0
  3  4  1  1
  5  7  1  0
  5  6  1  6
  7  8  2  0
  9 10  1  0
 10 12  1  0
 10 11  2  0
 12 13  1  0
 14 13  1  1
 15 14  1  0
 15  7  1  0
 16 17  2  0
 16 14  1  0
 18 16  1  0
 19 18  1  0
 19 23  1  0
 19 20  1  6
 21 20  1  0
 22 21  2  0
 23 24  1  0
 25 21  1  0
 26 23  2  0
M  END
$$$$
