IQD.pdb
     RDKit          3D

 26 25  0  0  1  0  0  0  0  0999 V2000
   25.1136  -15.2607  -17.5037 C   0  0  0  0  0  0  0  0  0  0  0  0
   24.7427  -14.3720  -16.3494 C   0  0  0  0  0  0  0  0  0  0  0  0
   23.9276  -13.1944  -16.7364 C   0  0  2  0  0  0  0  0  0  0  0  0
   24.6397  -12.4994  -17.8792 C   0  0  0  0  0  0  0  0  0  0  0  0
   23.5294  -12.2530  -15.6625 C   0  0  2  0  0  0  0  0  0  0  0  0
   22.7997  -13.0857  -14.6685 N   0  0  0  0  0  0  0  0  0  0  0  0
   22.6082  -11.1774  -16.0202 C   0  0  0  0  0  0  0  0  0  0  0  0
   22.9455  -10.2633  -16.8483 O   0  0  0  0  0  0  0  0  0  0  0  0
   18.1604  -12.8523  -14.4778 N   0  0  0  0  0  0  0  0  0  0  0  0
   18.2441  -12.8970  -15.8904 C   0  0  0  0  0  0  0  0  0  0  0  0
   17.9214  -13.9577  -16.4747 O   0  0  0  0  0  0  0  0  0  0  0  0
   18.7064  -11.7134  -16.6974 C   0  0  0  0  0  0  0  0  0  0  0  0
   18.9897  -10.5428  -15.7917 C   0  0  0  0  0  0  0  0  0  0  0  0
   20.4001   -9.9958  -15.9423 C   0  0  2  0  0  0  0  0  0  0  0  0
   21.3003  -11.0589  -15.5027 N   0  0  0  0  0  0  0  0  0  0  0  0
   20.6583   -8.7600  -15.2482 C   0  0  0  0  0  0  0  0  0  0  0  0
   21.5091   -8.7715  -14.3040 O   0  0  0  0  0  0  0  0  0  0  0  0
   20.0301   -7.5225  -15.5433 N   0  0  0  0  0  0  0  0  0  0  0  0
   20.4509   -6.2900  -14.8702 C   0  0  1  0  0  0  0  0  0  0  0  0
   21.9126   -6.0219  -15.0119 C   0  0  0  0  0  0  0  0  0  0  0  0
   22.3254   -4.7206  -14.4529 C   0  0  0  0  0  0  0  0  0  0  0  0
   22.4193   -4.5344  -13.2283 O   0  0  0  0  0  0  0  0  0  0  0  0
   19.6199   -5.1596  -15.3668 C   0  0  0  0  0  0  0  0  0  0  0  0
   19.3781   -4.0228  -14.6076 O   0  0  0  0  0  0  0  0  0  0  0  0
   22.6129   -3.6875  -15.3321 O   0  0  0  0  0  0  0  0  0  0  0  0
   19.1060   -5.2109  -16.5131 O   0  0  0  0  0  0  0  0  0  0  0  0
  1  2  1  0
  2  3  1  0
  3  5  1  0
  3  4  1  6
  5  7  1  0
  5  6  1  1
  7  8  2  0
  9 10  1  0
 10 12  1  0
 10 11  2  0
 12 13  1  0
 14 13  1  1
 15 14  1  0
 15  7  1  0
 16 17  2  0
 16 14  1  0
 18 16  1  0
 19 18  1  0
 19 23  1  0
 19 20  1  6
 21 20  1  0
 22 21  2  0
 23 24  1  0
 25 21  1  0
 26 23  2  0
M  END
$$$$
