IQD.pdb
     RDKit          3D

 26 25  0  0  1  0  0  0  0  0999 V2000
   38.8840   -8.1597  -12.9184 C   0  0  0  0  0  0  0  0  0  0  0  0
   37.7998   -9.0716  -13.4208 C   0  0  0  0  0  0  0  0  0  0  0  0
   36.8559   -8.4201  -14.3619 C   0  0  2  0  0  0  0  0  0  0  0  0
   36.2820   -7.2024  -13.6661 C   0  0  0  0  0  0  0  0  0  0  0  0
   35.8057   -9.2673  -14.9764 C   0  0  2  0  0  0  0  0  0  0  0  0
   36.5448  -10.3460  -15.6863 N   0  0  0  0  0  0  0  0  0  0  0  0
   34.9518   -8.6498  -15.9879 C   0  0  0  0  0  0  0  0  0  0  0  0
   35.3950   -8.3840  -17.1575 O   0  0  0  0  0  0  0  0  0  0  0  0
   29.3120   -9.9338  -17.6036 N   0  0  0  0  0  0  0  0  0  0  0  0
   29.4426   -8.6795  -18.2472 C   0  0  0  0  0  0  0  0  0  0  0  0
   28.5574   -8.3319  -19.0635 O   0  0  0  0  0  0  0  0  0  0  0  0
   30.6067   -7.7644  -17.9767 C   0  0  0  0  0  0  0  0  0  0  0  0
   31.5919   -8.4323  -17.0526 C   0  0  0  0  0  0  0  0  0  0  0  0
   32.8253   -7.5868  -16.7789 C   0  0  2  0  0  0  0  0  0  0  0  0
   33.5997   -8.3071  -15.7713 N   0  0  0  0  0  0  0  0  0  0  0  0
   32.5633   -6.2283  -16.3768 C   0  0  0  0  0  0  0  0  0  0  0  0
   32.0385   -6.0336  -15.2357 O   0  0  0  0  0  0  0  0  0  0  0  0
   32.8509   -5.0840  -17.1648 N   0  0  0  0  0  0  0  0  0  0  0  0
   32.6071   -3.7356  -16.6437 C   0  0  1  0  0  0  0  0  0  0  0  0
   33.4830   -2.7035  -17.2730 C   0  0  0  0  0  0  0  0  0  0  0  0
   33.2488   -1.3425  -16.7543 C   0  0  0  0  0  0  0  0  0  0  0  0
   32.5496   -1.1368  -15.7484 O   0  0  0  0  0  0  0  0  0  0  0  0
   31.1615   -3.4139  -16.7914 C   0  0  0  0  0  0  0  0  0  0  0  0
   30.4550   -2.7012  -15.8322 O   0  0  0  0  0  0  0  0  0  0  0  0
   33.8322   -0.2748  -17.4195 O   0  0  0  0  0  0  0  0  0  0  0  0
   30.5332   -3.7898  -17.8134 O   0  0  0  0  0  0  0  0  0  0  0  0
  1  2  1  0
  2  3  1  0
  3  5  1  0
  3  4  1  1
  5  7  1  0
  5  6  1  6
  7  8  2  0
  9 10  1  0
 10 12  1  0
 10 11  2  0
 12 13  1  0
 14 13  1  1
 15 14  1  0
 15  7  1  0
 16 17  2  0
 16 14  1  0
 18 16  1  0
 19 18  1  0
 19 23  1  0
 19 20  1  6
 21 20  1  0
 22 21  2  0
 23 24  1  0
 25 21  1  0
 26 23  2  0
M  END
$$$$
