IQD.pdb
     RDKit          3D

 26 25  0  0  1  0  0  0  0  0999 V2000
   14.3205  -10.4367  -17.4063 C   0  0  0  0  0  0  0  0  0  0  0  0
   15.6779  -11.0711  -17.2867 C   0  0  0  0  0  0  0  0  0  0  0  0
   16.6803  -10.2190  -16.6009 C   0  0  2  0  0  0  0  0  0  0  0  0
   16.7807   -8.9183  -17.3717 C   0  0  0  0  0  0  0  0  0  0  0  0
   18.0091  -10.8138  -16.3202 C   0  0  2  0  0  0  0  0  0  0  0  0
   17.7271  -12.0195  -15.4953 N   0  0  0  0  0  0  0  0  0  0  0  0
   18.9491  -10.0168  -15.5361 C   0  0  0  0  0  0  0  0  0  0  0  0
   18.7169   -9.7327  -14.3112 O   0  0  0  0  0  0  0  0  0  0  0  0
   25.0428   -9.9180  -16.1353 N   0  0  0  0  0  0  0  0  0  0  0  0
   24.1869  -10.8352  -15.4791 C   0  0  0  0  0  0  0  0  0  0  0  0
   24.6349  -11.9700  -15.1921 O   0  0  0  0  0  0  0  0  0  0  0  0
   22.7677  -10.4830  -15.1222 C   0  0  0  0  0  0  0  0  0  0  0  0
   22.4562   -9.0725  -15.5516 C   0  0  0  0  0  0  0  0  0  0  0  0
   21.0291   -8.6520  -15.2390 C   0  0  2  0  0  0  0  0  0  0  0  0
   20.1640   -9.5096  -16.0451 N   0  0  0  0  0  0  0  0  0  0  0  0
   20.7388   -7.2565  -15.4491 C   0  0  0  0  0  0  0  0  0  0  0  0
   19.7512   -6.9568  -16.1909 O   0  0  0  0  0  0  0  0  0  0  0  0
   21.4775   -6.1849  -14.8844 N   0  0  0  0  0  0  0  0  0  0  0  0
   21.1064   -4.7934  -15.1585 C   0  0  1  0  0  0  0  0  0  0  0  0
   19.7241   -4.4613  -14.7027 C   0  0  0  0  0  0  0  0  0  0  0  0
   19.3616   -3.0475  -14.9165 C   0  0  0  0  0  0  0  0  0  0  0  0
   18.6495   -2.4253  -14.1111 O   0  0  0  0  0  0  0  0  0  0  0  0
   22.1287   -3.8930  -14.5593 C   0  0  0  0  0  0  0  0  0  0  0  0
   22.6436   -2.7956  -15.2361 O   0  0  0  0  0  0  0  0  0  0  0  0
   19.8371   -2.4103  -16.0527 O   0  0  0  0  0  0  0  0  0  0  0  0
   22.5591   -4.1119  -13.3985 O   0  0  0  0  0  0  0  0  0  0  0  0
  1  2  1  0
  2  3  1  0
  3  5  1  0
  3  4  1  6
  5  7  1  0
  5  6  1  1
  7  8  2  0
  9 10  1  0
 10 12  1  0
 10 11  2  0
 12 13  1  0
 14 13  1  6
 15 14  1  0
 15  7  1  0
 16 17  2  0
 16 14  1  0
 18 16  1  0
 19 18  1  0
 19 23  1  0
 19 20  1  1
 21 20  1  0
 22 21  2  0
 23 24  1  0
 25 21  1  0
 26 23  2  0
M  END
$$$$
