IQD.pdb
     RDKit          3D

 26 25  0  0  1  0  0  0  0  0999 V2000
   29.7950  -21.4524   -9.8018 C   0  0  0  0  0  0  0  0  0  0  0  0
   28.4042  -20.8836   -9.7592 C   0  0  0  0  0  0  0  0  0  0  0  0
   27.6792  -20.9737  -11.0504 C   0  0  2  0  0  0  0  0  0  0  0  0
   28.5928  -20.4267  -12.1284 C   0  0  0  0  0  0  0  0  0  0  0  0
   26.3173  -20.3911  -11.1145 C   0  0  2  0  0  0  0  0  0  0  0  0
   25.5445  -21.0957  -10.0561 N   0  0  0  0  0  0  0  0  0  0  0  0
   25.5595  -20.5898  -12.3473 C   0  0  0  0  0  0  0  0  0  0  0  0
   25.7797  -19.8740  -13.3837 O   0  0  0  0  0  0  0  0  0  0  0  0
   22.6090  -25.8916  -13.9497 N   0  0  0  0  0  0  0  0  0  0  0  0
   23.4041  -25.4018  -15.0140 C   0  0  0  0  0  0  0  0  0  0  0  0
   23.6716  -26.1740  -15.9643 O   0  0  0  0  0  0  0  0  0  0  0  0
   23.9294  -23.9914  -15.0303 C   0  0  0  0  0  0  0  0  0  0  0  0
   23.4738  -23.2505  -13.7997 C   0  0  0  0  0  0  0  0  0  0  0  0
   23.8978  -21.7906  -13.7875 C   0  0  2  0  0  0  0  0  0  0  0  0
   24.5504  -21.5649  -12.5003 N   0  0  0  0  0  0  0  0  0  0  0  0
   22.8400  -20.8406  -14.0208 C   0  0  0  0  0  0  0  0  0  0  0  0
   22.1151  -20.4993  -13.0341 O   0  0  0  0  0  0  0  0  0  0  0  0
   22.5465  -20.2527  -15.2783 N   0  0  0  0  0  0  0  0  0  0  0  0
   21.4306  -19.3131  -15.4233 C   0  0  1  0  0  0  0  0  0  0  0  0
   21.6724  -18.2837  -16.4771 C   0  0  0  0  0  0  0  0  0  0  0  0
   20.5162  -17.3960  -16.7037 C   0  0  0  0  0  0  0  0  0  0  0  0
   19.8727  -16.9057  -15.7611 O   0  0  0  0  0  0  0  0  0  0  0  0
   20.1789  -20.0817  -15.6631 C   0  0  0  0  0  0  0  0  0  0  0  0
   18.9793  -19.7654  -15.0400 O   0  0  0  0  0  0  0  0  0  0  0  0
   20.1509  -17.1112  -18.0108 O   0  0  0  0  0  0  0  0  0  0  0  0
   20.1807  -21.0584  -16.4547 O   0  0  0  0  0  0  0  0  0  0  0  0
  1  2  1  0
  2  3  1  0
  3  5  1  0
  3  4  1  6
  5  7  1  0
  5  6  1  1
  7  8  2  0
  9 10  1  0
 10 12  1  0
 10 11  2  0
 12 13  1  0
 14 13  1  1
 15 14  1  0
 15  7  1  0
 16 17  2  0
 16 14  1  0
 18 16  1  0
 19 18  1  0
 19 23  1  0
 19 20  1  6
 21 20  1  0
 22 21  2  0
 23 24  1  0
 25 21  1  0
 26 23  2  0
M  END
$$$$
