IQD.pdb
     RDKit          3D

 26 25  0  0  1  0  0  0  0  0999 V2000
   19.5344  -16.4929  -16.1536 C   0  0  0  0  0  0  0  0  0  0  0  0
   18.9557  -15.1368  -16.4462 C   0  0  0  0  0  0  0  0  0  0  0  0
   19.9695  -14.0567  -16.5284 C   0  0  2  0  0  0  0  0  0  0  0  0
   20.8103  -14.1203  -15.2694 C   0  0  0  0  0  0  0  0  0  0  0  0
   19.4880  -12.6846  -16.8178 C   0  0  2  0  0  0  0  0  0  0  0  0
   18.8553  -12.7717  -18.1617 N   0  0  0  0  0  0  0  0  0  0  0  0
   20.4926  -11.6300  -16.9282 C   0  0  0  0  0  0  0  0  0  0  0  0
   21.1530  -11.2337  -15.9076 O   0  0  0  0  0  0  0  0  0  0  0  0
   23.1721   -9.5218  -22.2234 N   0  0  0  0  0  0  0  0  0  0  0  0
   23.6534   -8.5917  -21.2706 C   0  0  0  0  0  0  0  0  0  0  0  0
   24.4681   -7.7173  -21.6480 O   0  0  0  0  0  0  0  0  0  0  0  0
   23.2142   -8.6286  -19.8314 C   0  0  0  0  0  0  0  0  0  0  0  0
   22.2439   -9.7601  -19.6105 C   0  0  0  0  0  0  0  0  0  0  0  0
   21.7606   -9.8635  -18.1728 C   0  0  2  0  0  0  0  0  0  0  0  0
   20.8173  -10.9782  -18.1375 N   0  0  0  0  0  0  0  0  0  0  0  0
   21.1824   -8.6606  -17.6300 C   0  0  0  0  0  0  0  0  0  0  0  0
   19.9717   -8.3986  -17.9144 O   0  0  0  0  0  0  0  0  0  0  0  0
   21.8684   -7.7415  -16.7947 N   0  0  0  0  0  0  0  0  0  0  0  0
   21.2018   -6.5296  -16.3091 C   0  0  1  0  0  0  0  0  0  0  0  0
   20.7062   -6.6624  -14.9072 C   0  0  0  0  0  0  0  0  0  0  0  0
   20.0919   -5.4272  -14.3845 C   0  0  0  0  0  0  0  0  0  0  0  0
   19.4355   -4.6639  -15.1123 O   0  0  0  0  0  0  0  0  0  0  0  0
   22.1223   -5.3718  -16.4740 C   0  0  0  0  0  0  0  0  0  0  0  0
   21.7398   -4.0688  -16.1861 O   0  0  0  0  0  0  0  0  0  0  0  0
   20.2614   -5.1246  -13.0419 O   0  0  0  0  0  0  0  0  0  0  0  0
   23.2955   -5.5532  -16.8880 O   0  0  0  0  0  0  0  0  0  0  0  0
  1  2  1  0
  2  3  1  0
  3  5  1  0
  3  4  1  1
  5  7  1  0
  5  6  1  6
  7  8  2  0
  9 10  1  0
 10 12  1  0
 10 11  2  0
 12 13  1  0
 14 13  1  6
 15 14  1  0
 15  7  1  0
 16 17  2  0
 16 14  1  0
 18 16  1  0
 19 18  1  0
 19 23  1  0
 19 20  1  1
 21 20  1  0
 22 21  2  0
 23 24  1  0
 25 21  1  0
 26 23  2  0
M  END
$$$$
