IQD.pdb
     RDKit          3D

 26 25  0  0  1  0  0  0  0  0999 V2000
   28.0545  -19.9556   -7.4044 C   0  0  0  0  0  0  0  0  0  0  0  0
   27.9557  -20.7666   -8.6662 C   0  0  0  0  0  0  0  0  0  0  0  0
   26.7530  -20.4650   -9.4808 C   0  0  2  0  0  0  0  0  0  0  0  0
   25.5368  -20.7092   -8.6106 C   0  0  0  0  0  0  0  0  0  0  0  0
   26.6404  -21.1199  -10.8062 C   0  0  2  0  0  0  0  0  0  0  0  0
   27.9770  -20.9493  -11.4372 N   0  0  0  0  0  0  0  0  0  0  0  0
   25.6864  -20.5533  -11.7561 C   0  0  0  0  0  0  0  0  0  0  0  0
   25.7165  -19.3131  -12.0662 O   0  0  0  0  0  0  0  0  0  0  0  0
   25.6365  -20.4057  -17.1645 N   0  0  0  0  0  0  0  0  0  0  0  0
   24.3965  -19.7454  -16.9884 C   0  0  0  0  0  0  0  0  0  0  0  0
   23.9237  -19.0959  -17.9504 O   0  0  0  0  0  0  0  0  0  0  0  0
   23.6416  -19.8050  -15.6876 C   0  0  0  0  0  0  0  0  0  0  0  0
   24.4568  -20.5234  -14.6435 C   0  0  0  0  0  0  0  0  0  0  0  0
   23.7304  -20.6773  -13.3169 C   0  0  2  0  0  0  0  0  0  0  0  0
   24.6799  -21.3041  -12.4008 N   0  0  0  0  0  0  0  0  0  0  0  0
   22.4888  -21.4060  -13.3760 C   0  0  0  0  0  0  0  0  0  0  0  0
   22.2927  -22.3228  -12.5178 O   0  0  0  0  0  0  0  0  0  0  0  0
   21.4615  -21.1737  -14.3266 N   0  0  0  0  0  0  0  0  0  0  0  0
   20.0673  -21.5058  -14.0184 C   0  0  1  0  0  0  0  0  0  0  0  0
   19.6177  -20.9585  -12.7043 C   0  0  0  0  0  0  0  0  0  0  0  0
   18.2659  -21.4044  -12.3168 C   0  0  0  0  0  0  0  0  0  0  0  0
   17.9296  -22.5988  -12.3724 O   0  0  0  0  0  0  0  0  0  0  0  0
   19.2026  -21.0543  -15.1424 C   0  0  0  0  0  0  0  0  0  0  0  0
   18.2710  -20.0345  -15.0027 O   0  0  0  0  0  0  0  0  0  0  0  0
   17.3579  -20.4513  -11.8807 O   0  0  0  0  0  0  0  0  0  0  0  0
   19.2993  -21.6000  -16.2709 O   0  0  0  0  0  0  0  0  0  0  0  0
  1  2  1  0
  2  3  1  0
  3  5  1  0
  3  4  1  1
  5  7  1  0
  5  6  1  6
  7  8  2  0
  9 10  1  0
 10 12  1  0
 10 11  2  0
 12 13  1  0
 14 13  1  6
 15 14  1  0
 15  7  1  0
 16 17  2  0
 16 14  1  0
 18 16  1  0
 19 18  1  0
 19 23  1  0
 19 20  1  1
 21 20  1  0
 22 21  2  0
 23 24  1  0
 25 21  1  0
 26 23  2  0
M  END
$$$$
