LAR.pdb
     RDKit          3D

 25 24  0  0  1  0  0  0  0  0999 V2000
    6.1935  -14.3262   18.1773 C   0  0  0  0  0  0  0  0  0  0  0  0
    7.6810  -14.6841   18.0602 C   0  0  2  0  0  0  0  0  0  0  0  0
    7.7157  -15.9861   17.2950 C   0  0  0  0  0  0  0  0  0  0  0  0
    8.2621  -14.8104   19.4274 C   0  0  0  0  0  0  0  0  0  0  0  0
    8.1467  -13.5267   20.2349 C   0  0  2  0  0  0  0  0  0  0  0  0
    8.9478  -12.5224   19.5650 N   0  0  0  0  0  0  0  0  0  0  0  0
    8.6091  -13.7575   21.6273 C   0  0  0  0  0  0  0  0  0  0  0  0
    9.8783  -13.8124   21.7792 O   0  0  0  0  0  0  0  0  0  0  0  0
    7.3219  -14.0069   25.0856 C   0  0  0  0  0  0  0  0  0  0  0  0
    8.4060  -14.2515   24.0257 C   0  0  2  0  0  0  0  0  0  0  0  0
    7.7768  -13.9146   22.7504 N   0  0  0  0  0  0  0  0  0  0  0  0
    8.7154  -15.7031   24.1004 C   0  0  0  0  0  0  0  0  0  0  0  0
    7.8765  -16.4953   23.6004 O   0  0  0  0  0  0  0  0  0  0  0  0
   14.3991  -19.6721   21.7014 N   0  0  0  0  0  0  0  0  0  0  0  0
   13.8237  -18.8972   20.6712 C   0  0  0  0  0  0  0  0  0  0  0  0
   13.9065  -19.2818   19.4244 N   0  0  0  0  0  0  0  0  0  0  0  0
   13.1353  -17.6808   20.9091 N   0  0  0  0  0  0  0  0  0  0  0  0
   13.0368  -17.1781   22.3153 C   0  0  0  0  0  0  0  0  0  0  0  0
   12.0326  -18.0299   22.9949 C   0  0  0  0  0  0  0  0  0  0  0  0
   11.6187  -17.8387   24.3714 C   0  0  0  0  0  0  0  0  0  0  0  0
   10.1756  -17.7044   24.6929 C   0  0  2  0  0  0  0  0  0  0  0  0
    9.8629  -16.2307   24.6834 N   0  0  0  0  0  0  0  0  0  0  0  0
    9.9320  -18.0269   26.1363 C   0  0  0  0  0  0  0  0  0  0  0  0
    9.7747  -19.2468   26.7109 O   0  0  0  0  0  0  0  0  0  0  0  0
    9.8562  -17.0334   26.9380 O   0  0  0  0  0  0  0  0  0  0  0  0
  2  1  1  1
  3  2  1  0
  4  2  1  0
  5  6  1  6
  5  4  1  0
  7  8  2  0
  7  5  1  0
 10  9  1  1
 10 11  1  0
 11  7  1  0
 12 10  1  0
 12 22  1  0
 13 12  2  0
 15 14  1  0
 16 15  2  0
 17 15  1  0
 18 17  1  0
 19 20  1  0
 19 18  1  0
 21 20  1  1
 21 22  1  0
 21 23  1  0
 23 25  2  0
 23 24  1  0
M  END
$$$$
