LAR.pdb
     RDKit          3D

 25 24  0  0  1  0  0  0  0  0999 V2000
    5.4860  -11.7847   26.7168 C   0  0  0  0  0  0  0  0  0  0  0  0
    6.4298  -12.5347   27.6662 C   0  0  2  0  0  0  0  0  0  0  0  0
    6.9685  -11.4797   28.6035 C   0  0  0  0  0  0  0  0  0  0  0  0
    7.5045  -13.1916   26.8686 C   0  0  0  0  0  0  0  0  0  0  0  0
    6.9566  -14.1565   25.8284 C   0  0  2  0  0  0  0  0  0  0  0  0
    5.6629  -14.6084   26.2985 N   0  0  0  0  0  0  0  0  0  0  0  0
    7.8977  -15.2900   25.6393 C   0  0  0  0  0  0  0  0  0  0  0  0
    9.1364  -14.9716   25.6065 O   0  0  0  0  0  0  0  0  0  0  0  0
    7.9441  -18.9863   25.5130 C   0  0  0  0  0  0  0  0  0  0  0  0
    8.5981  -17.6170   25.2767 C   0  0  2  0  0  0  0  0  0  0  0  0
    7.5331  -16.6413   25.4985 N   0  0  0  0  0  0  0  0  0  0  0  0
    9.0288  -17.6218   23.8544 C   0  0  0  0  0  0  0  0  0  0  0  0
    8.1680  -17.9406   22.9949 O   0  0  0  0  0  0  0  0  0  0  0  0
    9.5091  -13.5995   18.1907 N   0  0  0  0  0  0  0  0  0  0  0  0
    8.2268  -13.5941   18.7812 C   0  0  0  0  0  0  0  0  0  0  0  0
    7.1640  -13.3477   18.0608 N   0  0  0  0  0  0  0  0  0  0  0  0
    8.0073  -13.8476   20.1587 N   0  0  0  0  0  0  0  0  0  0  0  0
    9.1950  -14.0494   21.0468 C   0  0  0  0  0  0  0  0  0  0  0  0
    9.6788  -15.4267   20.7924 C   0  0  0  0  0  0  0  0  0  0  0  0
   10.8244  -16.0108   21.4626 C   0  0  0  0  0  0  0  0  0  0  0  0
   10.7423  -17.3988   21.9828 C   0  0  2  0  0  0  0  0  0  0  0  0
   10.3113  -17.2991   23.4230 N   0  0  0  0  0  0  0  0  0  0  0  0
   12.1164  -17.9747   22.1473 C   0  0  0  0  0  0  0  0  0  0  0  0
   12.8747  -18.6190   21.2238 O   0  0  0  0  0  0  0  0  0  0  0  0
   12.6512  -17.8536   23.3026 O   0  0  0  0  0  0  0  0  0  0  0  0
  2  1  1  6
  3  2  1  0
  4  2  1  0
  5  6  1  1
  5  4  1  0
  7  8  2  0
  7  5  1  0
 10  9  1  6
 10 11  1  0
 11  7  1  0
 12 10  1  0
 12 22  1  0
 13 12  2  0
 15 14  1  0
 16 15  2  0
 17 15  1  0
 18 17  1  0
 19 20  1  0
 19 18  1  0
 21 20  1  1
 21 22  1  0
 21 23  1  0
 23 25  2  0
 23 24  1  0
M  END
$$$$
