LAR.pdb
     RDKit          3D

 25 24  0  0  1  0  0  0  0  0999 V2000
    3.4841  -18.6321   18.3235 C   0  0  0  0  0  0  0  0  0  0  0  0
    4.9058  -19.1255   18.0236 C   0  0  2  0  0  0  0  0  0  0  0  0
    4.8936  -20.5973   18.3634 C   0  0  0  0  0  0  0  0  0  0  0  0
    5.8753  -18.3562   18.8547 C   0  0  0  0  0  0  0  0  0  0  0  0
    6.1406  -16.9622   18.3074 C   0  0  2  0  0  0  0  0  0  0  0  0
    6.5965  -17.1151   16.9408 N   0  0  0  0  0  0  0  0  0  0  0  0
    7.1502  -16.2687   19.1476 C   0  0  0  0  0  0  0  0  0  0  0  0
    8.3616  -16.6346   18.9593 O   0  0  0  0  0  0  0  0  0  0  0  0
    7.3896  -13.5752   21.6903 C   0  0  0  0  0  0  0  0  0  0  0  0
    8.0058  -14.6650   20.8010 C   0  0  2  0  0  0  0  0  0  0  0  0
    6.8752  -15.2729   20.1024 N   0  0  0  0  0  0  0  0  0  0  0  0
    8.6369  -15.6322   21.7363 C   0  0  0  0  0  0  0  0  0  0  0  0
    7.8857  -16.4872   22.2712 O   0  0  0  0  0  0  0  0  0  0  0  0
   16.4617  -19.9070   21.0134 N   0  0  0  0  0  0  0  0  0  0  0  0
   15.7449  -20.3611   22.1416 C   0  0  0  0  0  0  0  0  0  0  0  0
   16.1895  -21.3644   22.8523 N   0  0  0  0  0  0  0  0  0  0  0  0
   14.5261  -19.7781   22.5713 N   0  0  0  0  0  0  0  0  0  0  0  0
   13.9234  -18.6879   21.7418 C   0  0  0  0  0  0  0  0  0  0  0  0
   12.7232  -18.2196   22.4740 C   0  0  0  0  0  0  0  0  0  0  0  0
   11.8451  -17.1729   21.9881 C   0  0  0  0  0  0  0  0  0  0  0  0
   10.6517  -16.7875   22.7825 C   0  0  2  0  0  0  0  0  0  0  0  0
    9.9917  -15.6475   22.0513 N   0  0  0  0  0  0  0  0  0  0  0  0
   11.0685  -16.0976   24.0463 C   0  0  0  0  0  0  0  0  0  0  0  0
   11.3636  -16.6524   25.2496 O   0  0  0  0  0  0  0  0  0  0  0  0
   11.1565  -14.8227   23.9980 O   0  0  0  0  0  0  0  0  0  0  0  0
  2  1  1  1
  3  2  1  0
  4  2  1  0
  5  6  1  6
  5  4  1  0
  7  8  2  0
  7  5  1  0
 10  9  1  1
 10 11  1  0
 11  7  1  0
 12 10  1  0
 12 22  1  0
 13 12  2  0
 15 14  1  0
 16 15  2  0
 17 15  1  0
 18 17  1  0
 19 20  1  0
 19 18  1  0
 21 20  1  6
 21 22  1  0
 21 23  1  0
 23 25  2  0
 23 24  1  0
M  END
$$$$
