LAR.pdb
     RDKit          3D

 25 24  0  0  1  0  0  0  0  0999 V2000
    8.7713  -13.3416   18.9823 C   0  0  0  0  0  0  0  0  0  0  0  0
    7.4639  -12.8863   19.6441 C   0  0  2  0  0  0  0  0  0  0  0  0
    7.4574  -11.3814   19.5133 C   0  0  0  0  0  0  0  0  0  0  0  0
    7.4537  -13.3353   21.0657 C   0  0  0  0  0  0  0  0  0  0  0  0
    7.3980  -14.8491   21.2024 C   0  0  2  0  0  0  0  0  0  0  0  0
    6.1322  -15.2856   20.6491 N   0  0  0  0  0  0  0  0  0  0  0  0
    7.5352  -15.2370   22.6296 C   0  0  0  0  0  0  0  0  0  0  0  0
    6.6302  -14.7789   23.4095 O   0  0  0  0  0  0  0  0  0  0  0  0
    7.2424  -17.6988   24.2618 C   0  0  0  0  0  0  0  0  0  0  0  0
    8.3365  -16.6431   24.4784 C   0  0  2  0  0  0  0  0  0  0  0  0
    8.5558  -16.0444   23.1635 N   0  0  0  0  0  0  0  0  0  0  0  0
    9.5351  -17.3983   24.9270 C   0  0  0  0  0  0  0  0  0  0  0  0
    9.4380  -18.0436   26.0019 O   0  0  0  0  0  0  0  0  0  0  0  0
   12.1420  -15.7455   18.9780 N   0  0  0  0  0  0  0  0  0  0  0  0
   13.4228  -15.6105   19.5558 C   0  0  0  0  0  0  0  0  0  0  0  0
   14.3771  -14.9837   18.9188 N   0  0  0  0  0  0  0  0  0  0  0  0
   13.7559  -16.1313   20.8318 N   0  0  0  0  0  0  0  0  0  0  0  0
   12.6616  -16.3185   21.8355 C   0  0  0  0  0  0  0  0  0  0  0  0
   13.2994  -16.8770   23.0508 C   0  0  0  0  0  0  0  0  0  0  0  0
   12.9468  -18.1618   23.6232 C   0  0  0  0  0  0  0  0  0  0  0  0
   11.9323  -18.2307   24.7049 C   0  0  2  0  0  0  0  0  0  0  0  0
   10.7427  -17.4331   24.2374 N   0  0  0  0  0  0  0  0  0  0  0  0
   12.3684  -17.4089   25.8802 C   0  0  0  0  0  0  0  0  0  0  0  0
   13.1659  -17.7777   26.9151 O   0  0  0  0  0  0  0  0  0  0  0  0
   11.9366  -16.2061   25.9271 O   0  0  0  0  0  0  0  0  0  0  0  0
  2  1  1  1
  3  2  1  0
  4  2  1  0
  5  6  1  1
  5  4  1  0
  7  8  2  0
  7  5  1  0
 10  9  1  6
 10 11  1  0
 11  7  1  0
 12 10  1  0
 12 22  1  0
 13 12  2  0
 15 14  1  0
 16 15  2  0
 17 15  1  0
 18 17  1  0
 19 20  1  0
 19 18  1  0
 21 20  1  6
 21 22  1  0
 21 23  1  0
 23 25  2  0
 23 24  1  0
M  END
$$$$
