LAR.pdb
     RDKit          3D

 25 24  0  0  1  0  0  0  0  0999 V2000
    6.1130  -15.5019   17.9534 C   0  0  0  0  0  0  0  0  0  0  0  0
    6.5064  -14.1394   18.5395 C   0  0  2  0  0  0  0  0  0  0  0  0
    6.8603  -13.2829   17.3467 C   0  0  0  0  0  0  0  0  0  0  0  0
    7.6554  -14.3220   19.4717 C   0  0  0  0  0  0  0  0  0  0  0  0
    7.9941  -13.0545   20.2410 C   0  0  2  0  0  0  0  0  0  0  0  0
    9.0676  -12.3916   19.5287 N   0  0  0  0  0  0  0  0  0  0  0  0
    8.3869  -13.3929   21.6328 C   0  0  0  0  0  0  0  0  0  0  0  0
    9.5417  -13.9290   21.7593 O   0  0  0  0  0  0  0  0  0  0  0  0
    7.1561  -13.0532   25.1158 C   0  0  0  0  0  0  0  0  0  0  0  0
    8.1595  -13.5676   24.0732 C   0  0  2  0  0  0  0  0  0  0  0  0
    7.6039  -13.1727   22.7805 N   0  0  0  0  0  0  0  0  0  0  0  0
    8.1650  -15.0462   24.2217 C   0  0  0  0  0  0  0  0  0  0  0  0
    7.1090  -15.6576   23.9178 O   0  0  0  0  0  0  0  0  0  0  0  0
   11.7147  -15.1278   19.4702 N   0  0  0  0  0  0  0  0  0  0  0  0
   12.7386  -15.3594   20.4139 C   0  0  0  0  0  0  0  0  0  0  0  0
   13.7941  -14.5889   20.4525 N   0  0  0  0  0  0  0  0  0  0  0  0
   12.6963  -16.4149   21.3596 N   0  0  0  0  0  0  0  0  0  0  0  0
   11.4406  -17.2209   21.4758 C   0  0  0  0  0  0  0  0  0  0  0  0
   11.0376  -17.1649   22.9007 C   0  0  0  0  0  0  0  0  0  0  0  0
    9.8136  -17.7510   23.4115 C   0  0  0  0  0  0  0  0  0  0  0  0
    9.2655  -17.2906   24.7121 C   0  0  2  0  0  0  0  0  0  0  0  0
    9.2548  -15.7845   24.6713 N   0  0  0  0  0  0  0  0  0  0  0  0
   10.2594  -17.5278   25.8088 C   0  0  0  0  0  0  0  0  0  0  0  0
   10.6041  -18.7044   26.3918 O   0  0  0  0  0  0  0  0  0  0  0  0
   10.8630  -16.4967   26.2647 O   0  0  0  0  0  0  0  0  0  0  0  0
  2  1  1  6
  3  2  1  0
  4  2  1  0
  5  6  1  6
  5  4  1  0
  7  8  2  0
  7  5  1  0
 10  9  1  1
 10 11  1  0
 11  7  1  0
 12 10  1  0
 12 22  1  0
 13 12  2  0
 15 14  1  0
 16 15  2  0
 17 15  1  0
 18 17  1  0
 19 20  1  0
 19 18  1  0
 21 20  1  6
 21 22  1  0
 21 23  1  0
 23 25  2  0
 23 24  1  0
M  END
$$$$
