EHT.pdb
     RDKit          3D

 27 27  0  0  1  0  0  0  0  0999 V2000
   15.5182  -14.5655   18.0009 N   0  0  0  0  0  0  0  0  0  0  0  0
   14.1334  -14.7539   17.5818 C   0  0  1  0  0  0  0  0  0  0  0  0
   14.1900  -15.1650   16.1362 C   0  0  0  0  0  0  0  0  0  0  0  0
   15.5473  -15.1100   15.5172 C   0  0  0  0  0  0  0  0  0  0  0  0
   15.6273  -15.6229   14.1405 C   0  0  0  0  0  0  0  0  0  0  0  0
   15.6940  -14.8328   13.1656 O   0  0  0  0  0  0  0  0  0  0  0  0
   13.4667  -15.7867   18.4130 C   0  0  0  0  0  0  0  0  0  0  0  0
   12.2866  -16.1614   18.2191 O   0  0  0  0  0  0  0  0  0  0  0  0
   15.6324  -16.9719   13.8551 O   0  0  0  0  0  0  0  0  0  0  0  0
   14.1407  -16.4285   19.5045 N   0  0  0  0  0  0  0  0  0  0  0  0
   13.5234  -17.3698   20.3888 C   0  0  1  0  0  0  0  0  0  0  0  0
   14.3894  -18.5552   20.7256 C   0  0  0  0  0  0  0  0  0  0  0  0
   13.6852  -19.5339   21.5946 C   0  0  0  0  0  0  0  0  0  0  0  0
   12.6692  -20.3762   21.1860 C   0  0  0  0  0  0  0  0  0  0  0  0
   12.2536  -21.1321   22.2179 N   0  0  0  0  0  0  0  0  0  0  0  0
   12.9931  -20.7814   23.2800 C   0  0  0  0  0  0  0  0  0  0  0  0
   13.8612  -19.8108   22.8986 N   0  0  0  0  0  0  0  0  0  0  0  0
   13.1028  -16.6727   21.6586 C   0  0  0  0  0  0  0  0  0  0  0  0
   13.8957  -15.8967   22.2528 O   0  0  0  0  0  0  0  0  0  0  0  0
    9.6488  -14.8131   22.3267 C   0  0  0  0  0  0  0  0  0  0  0  0
    9.9044  -15.8959   23.3653 C   0  0  1  0  0  0  0  0  0  0  0  0
    9.2475  -17.0435   22.9046 O   0  0  0  0  0  0  0  0  0  0  0  0
   11.3822  -16.2076   23.3806 C   0  0  2  0  0  0  0  0  0  0  0  0
   11.7979  -16.8998   22.1815 N   0  0  0  0  0  0  0  0  0  0  0  0
   11.6717  -17.1153   24.5411 C   0  0  0  0  0  0  0  0  0  0  0  0
   12.1662  -18.2577   24.3725 O   0  0  0  0  0  0  0  0  0  0  0  0
   11.3804  -16.6652   25.8176 O   0  0  0  0  0  0  0  0  0  0  0  0
  2  7  1  0
  2  1  1  1
  3  2  1  0
  4  3  1  0
  5  6  2  0
  5  4  1  0
  7  8  2  0
  9  5  1  0
 10 11  1  0
 10  7  1  0
 11 12  1  1
 12 13  1  0
 13 14  2  0
 14 15  1  0
 16 15  1  0
 17 13  1  0
 17 16  2  0
 18 19  2  0
 18 11  1  0
 21 20  1  6
 21 23  1  0
 22 21  1  0
 23 25  1  0
 23 24  1  6
 24 18  1  0
 25 27  1  0
 26 25  2  0
M  END
$$$$
