EHT.pdb
     RDKit          3D

 27 27  0  0  1  0  0  0  0  0999 V2000
   11.8599  -17.0953   15.5440 N   0  0  0  0  0  0  0  0  0  0  0  0
   11.1164  -17.7507   16.6148 C   0  0  1  0  0  0  0  0  0  0  0  0
   11.7371  -19.1108   16.7783 C   0  0  0  0  0  0  0  0  0  0  0  0
   13.1042  -19.1125   17.3779 C   0  0  0  0  0  0  0  0  0  0  0  0
   13.7470  -20.4332   17.4640 C   0  0  0  0  0  0  0  0  0  0  0  0
   13.1677  -21.4574   17.0225 O   0  0  0  0  0  0  0  0  0  0  0  0
   11.1966  -16.9640   17.8706 C   0  0  0  0  0  0  0  0  0  0  0  0
   12.1147  -16.1437   18.1043 O   0  0  0  0  0  0  0  0  0  0  0  0
   14.9944  -20.6114   18.0238 O   0  0  0  0  0  0  0  0  0  0  0  0
   10.2152  -17.0958   18.9083 N   0  0  0  0  0  0  0  0  0  0  0  0
   10.1872  -16.2955   20.0948 C   0  0  1  0  0  0  0  0  0  0  0  0
    8.8054  -15.8690   20.5155 C   0  0  0  0  0  0  0  0  0  0  0  0
    8.3143  -14.7076   19.7289 C   0  0  0  0  0  0  0  0  0  0  0  0
    9.0461  -14.0216   18.7789 C   0  0  0  0  0  0  0  0  0  0  0  0
    8.3065  -13.0271   18.2565 N   0  0  0  0  0  0  0  0  0  0  0  0
    7.1113  -13.0711   18.8626 C   0  0  0  0  0  0  0  0  0  0  0  0
    7.1190  -14.0923   19.7561 N   0  0  0  0  0  0  0  0  0  0  0  0
   10.8537  -17.0400   21.2248 C   0  0  0  0  0  0  0  0  0  0  0  0
   10.5584  -18.2408   21.4591 O   0  0  0  0  0  0  0  0  0  0  0  0
   14.3036  -17.1851   24.7372 C   0  0  0  0  0  0  0  0  0  0  0  0
   13.6751  -16.3550   23.6272 C   0  0  1  0  0  0  0  0  0  0  0  0
   14.6046  -16.3331   22.5802 O   0  0  0  0  0  0  0  0  0  0  0  0
   12.4520  -17.0804   23.1185 C   0  0  2  0  0  0  0  0  0  0  0  0
   11.8222  -16.3720   22.0269 N   0  0  0  0  0  0  0  0  0  0  0  0
   11.4465  -17.1689   24.2301 C   0  0  0  0  0  0  0  0  0  0  0  0
   10.3830  -16.5008   24.2069 O   0  0  0  0  0  0  0  0  0  0  0  0
   11.7155  -18.0112   25.2955 O   0  0  0  0  0  0  0  0  0  0  0  0
  2  7  1  0
  2  1  1  6
  3  2  1  0
  4  3  1  0
  5  6  2  0
  5  4  1  0
  7  8  2  0
  9  5  1  0
 10 11  1  0
 10  7  1  0
 11 12  1  1
 12 13  1  0
 13 14  2  0
 14 15  1  0
 16 15  1  0
 17 13  1  0
 17 16  2  0
 18 19  2  0
 18 11  1  0
 21 20  1  1
 21 23  1  0
 22 21  1  0
 23 25  1  0
 23 24  1  6
 24 18  1  0
 25 27  1  0
 26 25  2  0
M  END
$$$$
