EHT.pdb
     RDKit          3D

 27 27  0  0  1  0  0  0  0  0999 V2000
   12.4158  -17.7977   14.8166 N   0  0  0  0  0  0  0  0  0  0  0  0
   11.3928  -18.3100   15.7221 C   0  0  1  0  0  0  0  0  0  0  0  0
   11.9228  -19.6143   16.2509 C   0  0  0  0  0  0  0  0  0  0  0  0
   13.1507  -19.5018   17.0924 C   0  0  0  0  0  0  0  0  0  0  0  0
   13.6631  -20.7748   17.6233 C   0  0  0  0  0  0  0  0  0  0  0  0
   14.8239  -21.1653   17.3417 O   0  0  0  0  0  0  0  0  0  0  0  0
   11.1303  -17.3469   16.8201 C   0  0  0  0  0  0  0  0  0  0  0  0
   12.0286  -16.6468   17.3430 O   0  0  0  0  0  0  0  0  0  0  0  0
   12.9092  -21.5896   18.4413 O   0  0  0  0  0  0  0  0  0  0  0  0
    9.8145  -17.1553   17.3582 N   0  0  0  0  0  0  0  0  0  0  0  0
    9.4900  -16.1905   18.3647 C   0  0  1  0  0  0  0  0  0  0  0  0
    8.0705  -15.6912   18.3020 C   0  0  0  0  0  0  0  0  0  0  0  0
    7.8361  -14.5529   19.2284 C   0  0  0  0  0  0  0  0  0  0  0  0
    8.2114  -13.2442   18.9940 C   0  0  0  0  0  0  0  0  0  0  0  0
    7.8500  -12.4678   20.0311 N   0  0  0  0  0  0  0  0  0  0  0  0
    7.2484  -13.2667   20.9243 C   0  0  0  0  0  0  0  0  0  0  0  0
    7.2416  -14.5321   20.4342 N   0  0  0  0  0  0  0  0  0  0  0  0
    9.7633  -16.7704   19.7301 C   0  0  0  0  0  0  0  0  0  0  0  0
    9.4242  -17.9518   20.0008 O   0  0  0  0  0  0  0  0  0  0  0  0
   13.0278  -17.0679   21.5889 C   0  0  0  0  0  0  0  0  0  0  0  0
   12.0861  -16.2635   22.4734 C   0  0  1  0  0  0  0  0  0  0  0  0
   12.3604  -14.9152   22.2133 O   0  0  0  0  0  0  0  0  0  0  0  0
   10.6673  -16.5215   22.0242 C   0  0  2  0  0  0  0  0  0  0  0  0
   10.4096  -15.9686   20.7136 N   0  0  0  0  0  0  0  0  0  0  0  0
    9.7279  -15.8489   22.9832 C   0  0  0  0  0  0  0  0  0  0  0  0
    8.9332  -14.9533   22.6031 O   0  0  0  0  0  0  0  0  0  0  0  0
    9.7530  -16.2381   24.3116 O   0  0  0  0  0  0  0  0  0  0  0  0
  2  7  1  0
  2  1  1  6
  3  2  1  0
  4  3  1  0
  5  6  2  0
  5  4  1  0
  7  8  2  0
  9  5  1  0
 10 11  1  0
 10  7  1  0
 11 12  1  1
 12 13  1  0
 13 14  2  0
 14 15  1  0
 16 15  1  0
 17 13  1  0
 17 16  2  0
 18 19  2  0
 18 11  1  0
 21 20  1  6
 21 23  1  0
 22 21  1  0
 23 25  1  0
 23 24  1  6
 24 18  1  0
 25 27  1  0
 26 25  2  0
M  END
$$$$
