EHT.pdb
     RDKit          3D

 27 27  0  0  1  0  0  0  0  0999 V2000
   17.4981  -18.4835   17.5375 N   0  0  0  0  0  0  0  0  0  0  0  0
   17.6376  -19.0719   18.8654 C   0  0  1  0  0  0  0  0  0  0  0  0
   18.6543  -18.2308   19.5870 C   0  0  0  0  0  0  0  0  0  0  0  0
   18.1174  -16.9811   20.2020 C   0  0  0  0  0  0  0  0  0  0  0  0
   19.1222  -16.1190   20.8440 C   0  0  0  0  0  0  0  0  0  0  0  0
   19.3435  -16.2031   22.0782 O   0  0  0  0  0  0  0  0  0  0  0  0
   16.3361  -19.0790   19.5784 C   0  0  0  0  0  0  0  0  0  0  0  0
   15.3892  -18.3152   19.2776 O   0  0  0  0  0  0  0  0  0  0  0  0
   19.8582  -15.1916   20.1373 O   0  0  0  0  0  0  0  0  0  0  0  0
   16.0782  -19.9722   20.6707 N   0  0  0  0  0  0  0  0  0  0  0  0
   14.7956  -20.1449   21.2825 C   0  0  1  0  0  0  0  0  0  0  0  0
   14.5800  -21.5095   21.8823 C   0  0  0  0  0  0  0  0  0  0  0  0
   13.1570  -21.7449   22.2407 C   0  0  0  0  0  0  0  0  0  0  0  0
   12.1506  -22.0549   21.3465 C   0  0  0  0  0  0  0  0  0  0  0  0
   10.9837  -22.2035   21.9987 N   0  0  0  0  0  0  0  0  0  0  0  0
   11.2346  -21.9917   23.2987 C   0  0  0  0  0  0  0  0  0  0  0  0
   12.5549  -21.7134   23.4426 N   0  0  0  0  0  0  0  0  0  0  0  0
   14.5915  -19.0887   22.3398 C   0  0  0  0  0  0  0  0  0  0  0  0
   15.5744  -18.6190   22.9701 O   0  0  0  0  0  0  0  0  0  0  0  0
   11.6499  -16.1522   22.1432 C   0  0  0  0  0  0  0  0  0  0  0  0
   11.7146  -16.9304   23.4495 C   0  0  1  0  0  0  0  0  0  0  0  0
   10.7966  -17.9804   23.3259 O   0  0  0  0  0  0  0  0  0  0  0  0
   13.0855  -17.5527   23.5706 C   0  0  2  0  0  0  0  0  0  0  0  0
   13.2744  -18.6257   22.6204 N   0  0  0  0  0  0  0  0  0  0  0  0
   13.2272  -18.1442   24.9434 C   0  0  0  0  0  0  0  0  0  0  0  0
   13.3592  -19.3818   25.1136 O   0  0  0  0  0  0  0  0  0  0  0  0
   13.2097  -17.2904   26.0332 O   0  0  0  0  0  0  0  0  0  0  0  0
  2  7  1  0
  2  1  1  6
  3  2  1  0
  4  3  1  0
  5  6  2  0
  5  4  1  0
  7  8  2  0
  9  5  1  0
 10 11  1  0
 10  7  1  0
 11 12  1  1
 12 13  1  0
 13 14  2  0
 14 15  1  0
 16 15  1  0
 17 13  1  0
 17 16  2  0
 18 19  2  0
 18 11  1  0
 21 20  1  6
 21 23  1  0
 22 21  1  0
 23 25  1  0
 23 24  1  6
 24 18  1  0
 25 27  1  0
 26 25  2  0
M  END
$$$$
