EHT.pdb
     RDKit          3D

 27 27  0  0  1  0  0  0  0  0999 V2000
   10.9750  -17.4739   18.6639 N   0  0  0  0  0  0  0  0  0  0  0  0
    9.9496  -17.7436   19.6663 C   0  0  1  0  0  0  0  0  0  0  0  0
   10.2836  -19.0890   20.2496 C   0  0  0  0  0  0  0  0  0  0  0  0
   11.3013  -19.8718   19.4881 C   0  0  0  0  0  0  0  0  0  0  0  0
   12.1225  -20.7844   20.2991 C   0  0  0  0  0  0  0  0  0  0  0  0
   12.9417  -21.5652   19.7528 O   0  0  0  0  0  0  0  0  0  0  0  0
    9.9411  -16.6880   20.7093 C   0  0  0  0  0  0  0  0  0  0  0  0
   10.9412  -15.9797   20.9713 O   0  0  0  0  0  0  0  0  0  0  0  0
   12.0360  -20.8292   21.6745 O   0  0  0  0  0  0  0  0  0  0  0  0
    8.7722  -16.4095   21.4926 N   0  0  0  0  0  0  0  0  0  0  0  0
    8.6948  -15.3790   22.4831 C   0  0  1  0  0  0  0  0  0  0  0  0
    7.5793  -14.3926   22.2574 C   0  0  0  0  0  0  0  0  0  0  0  0
    7.7086  -13.6901   20.9541 C   0  0  0  0  0  0  0  0  0  0  0  0
    6.9557  -13.9564   19.8268 C   0  0  0  0  0  0  0  0  0  0  0  0
    7.3250  -13.1419   18.8223 N   0  0  0  0  0  0  0  0  0  0  0  0
    8.3050  -12.3590   19.2962 C   0  0  0  0  0  0  0  0  0  0  0  0
    8.5358  -12.6942   20.5906 N   0  0  0  0  0  0  0  0  0  0  0  0
    8.5534  -15.9994   23.8508 C   0  0  0  0  0  0  0  0  0  0  0  0
    7.4740  -15.8959   24.4895 O   0  0  0  0  0  0  0  0  0  0  0  0
    8.6709  -19.4848   24.8666 C   0  0  0  0  0  0  0  0  0  0  0  0
    9.7866  -18.8129   25.6540 C   0  0  1  0  0  0  0  0  0  0  0  0
   10.9548  -18.9828   24.9008 O   0  0  0  0  0  0  0  0  0  0  0  0
    9.5084  -17.3295   25.7112 C   0  0  2  0  0  0  0  0  0  0  0  0
    9.6538  -16.7051   24.4155 N   0  0  0  0  0  0  0  0  0  0  0  0
   10.5072  -16.6864   26.6294 C   0  0  0  0  0  0  0  0  0  0  0  0
   11.3235  -15.8276   26.2120 O   0  0  0  0  0  0  0  0  0  0  0  0
   10.5130  -17.0613   27.9622 O   0  0  0  0  0  0  0  0  0  0  0  0
  2  7  1  0
  2  1  1  6
  3  2  1  0
  4  3  1  0
  5  6  2  0
  5  4  1  0
  7  8  2  0
  9  5  1  0
 10 11  1  0
 10  7  1  0
 11 12  1  6
 12 13  1  0
 13 14  2  0
 14 15  1  0
 16 15  1  0
 17 13  1  0
 17 16  2  0
 18 19  2  0
 18 11  1  0
 21 20  1  6
 21 23  1  0
 22 21  1  0
 23 25  1  0
 23 24  1  6
 24 18  1  0
 25 27  1  0
 26 25  2  0
M  END
$$$$
