MLR.pdb
     RDKit          3D

 28 27  0  0  1  0  0  0  0  0999 V2000
   17.6529  -27.8672  -16.1709 C   0  0  0  0  0  0  0  0  0  0  0  0
   18.9634  -27.2721  -17.2542 S   0  0  0  0  0  0  0  0  0  0  0  0
   20.3935  -26.6808  -16.3343 C   0  0  0  0  0  0  0  0  0  0  0  0
   20.0415  -26.3954  -14.8771 C   0  0  0  0  0  0  0  0  0  0  0  0
   20.9446  -25.2712  -14.4015 C   0  0  2  0  0  0  0  0  0  0  0  0
   22.2639  -25.8654  -14.2474 N   0  0  0  0  0  0  0  0  0  0  0  0
   20.5329  -24.7801  -13.0609 C   0  0  0  0  0  0  0  0  0  0  0  0
   20.7123  -25.4476  -12.0239 O   0  0  0  0  0  0  0  0  0  0  0  0
   21.7394  -21.0046  -10.5407 C   0  0  0  0  0  0  0  0  0  0  0  0
   20.7315  -20.6913  -11.6171 C   0  0  2  0  0  0  0  0  0  0  0  0
   20.4438  -19.1840  -11.5380 C   0  0  0  0  0  0  0  0  0  0  0  0
   19.4890  -21.4727  -11.5091 C   0  0  0  0  0  0  0  0  0  0  0  0
   19.5622  -22.9513  -11.6251 C   0  0  2  0  0  0  0  0  0  0  0  0
   19.8982  -23.4906  -12.8968 N   0  0  0  0  0  0  0  0  0  0  0  0
   18.3418  -23.6102  -11.0323 C   0  0  0  0  0  0  0  0  0  0  0  0
   17.3622  -23.9243  -11.7573 O   0  0  0  0  0  0  0  0  0  0  0  0
   17.0950  -26.7126   -2.7221 N   0  0  0  0  0  0  0  0  0  0  0  0
   18.1014  -26.4906   -3.7244 C   0  0  0  0  0  0  0  0  0  0  0  0
   19.3330  -26.7326   -3.4344 N   0  0  0  0  0  0  0  0  0  0  0  0
   17.7470  -26.0126   -5.0138 N   0  0  0  0  0  0  0  0  0  0  0  0
   16.4045  -25.6803   -5.3813 C   0  0  0  0  0  0  0  0  0  0  0  0
   16.2148  -25.4164   -6.8272 C   0  0  0  0  0  0  0  0  0  0  0  0
   17.3115  -24.7352   -7.5509 C   0  0  0  0  0  0  0  0  0  0  0  0
   17.0743  -24.4208   -8.9885 C   0  0  2  0  0  0  0  0  0  0  0  0
   18.2454  -23.9006   -9.6562 N   0  0  0  0  0  0  0  0  0  0  0  0
   15.8438  -23.6707   -9.2190 C   0  0  0  0  0  0  0  0  0  0  0  0
   15.7977  -22.4196   -9.3182 O   0  0  0  0  0  0  0  0  0  0  0  0
   14.6501  -24.3621   -9.3393 O   0  0  0  0  0  0  0  0  0  0  0  0
  2  1  1  0
  3  2  1  0
  4  3  1  0
  5  6  1  1
  5  4  1  0
  7  5  1  0
  8  7  2  0
 10 12  1  0
 10  9  1  1
 11 10  1  0
 13 12  1  6
 13 14  1  0
 14  7  1  0
 15 13  1  0
 15 16  2  0
 18 20  1  0
 18 17  1  0
 19 18  2  0
 21 20  1  0
 22 21  1  0
 23 22  1  0
 24 23  1  1
 24 25  1  0
 25 15  1  0
 26 24  1  0
 27 26  2  0
 28 26  1  0
M  END
$$$$
