MLR.pdb
     RDKit          3D

 28 27  0  0  1  0  0  0  0  0999 V2000
   25.8002  -20.2383   -3.7539 C   0  0  0  0  0  0  0  0  0  0  0  0
   27.6001  -20.1656   -3.7743 S   0  0  0  0  0  0  0  0  0  0  0  0
   28.2626  -20.1245   -5.4478 C   0  0  0  0  0  0  0  0  0  0  0  0
   27.1478  -20.0978   -6.4895 C   0  0  0  0  0  0  0  0  0  0  0  0
   27.8032  -20.0166   -7.8568 C   0  0  2  0  0  0  0  0  0  0  0  0
   28.5150  -18.7476   -7.8767 N   0  0  0  0  0  0  0  0  0  0  0  0
   26.7865  -19.9585   -8.9388 C   0  0  0  0  0  0  0  0  0  0  0  0
   25.9286  -19.0564   -8.9978 O   0  0  0  0  0  0  0  0  0  0  0  0
   27.7497  -19.0079  -13.2136 C   0  0  0  0  0  0  0  0  0  0  0  0
   27.9915  -20.4532  -12.8597 C   0  0  2  0  0  0  0  0  0  0  0  0
   28.6447  -21.1123  -14.0842 C   0  0  0  0  0  0  0  0  0  0  0  0
   26.7736  -21.1753  -12.4577 C   0  0  0  0  0  0  0  0  0  0  0  0
   26.0702  -20.7561  -11.2190 C   0  0  2  0  0  0  0  0  0  0  0  0
   26.7459  -20.9572   -9.9845 N   0  0  0  0  0  0  0  0  0  0  0  0
   24.6564  -21.2805  -11.1855 C   0  0  0  0  0  0  0  0  0  0  0  0
   24.4065  -22.4334  -10.7472 O   0  0  0  0  0  0  0  0  0  0  0  0
   19.5981  -18.2729  -16.5398 N   0  0  0  0  0  0  0  0  0  0  0  0
   19.1142  -17.5659  -15.3852 C   0  0  0  0  0  0  0  0  0  0  0  0
   17.9843  -16.9517  -15.4597 N   0  0  0  0  0  0  0  0  0  0  0  0
   19.8669  -17.5434  -14.1812 N   0  0  0  0  0  0  0  0  0  0  0  0
   21.1064  -18.2406  -14.0224 C   0  0  0  0  0  0  0  0  0  0  0  0
   20.9646  -19.6374  -13.5479 C   0  0  0  0  0  0  0  0  0  0  0  0
   21.2398  -19.9090  -12.1192 C   0  0  0  0  0  0  0  0  0  0  0  0
   22.2151  -20.9951  -11.8175 C   0  0  2  0  0  0  0  0  0  0  0  0
   23.5649  -20.5116  -11.6380 N   0  0  0  0  0  0  0  0  0  0  0  0
   22.0818  -22.1507  -12.6988 C   0  0  0  0  0  0  0  0  0  0  0  0
   22.9235  -22.4574  -13.5789 O   0  0  0  0  0  0  0  0  0  0  0  0
   20.9709  -22.9671  -12.5697 O   0  0  0  0  0  0  0  0  0  0  0  0
  2  1  1  0
  3  2  1  0
  4  3  1  0
  5  6  1  1
  5  4  1  0
  7  5  1  0
  8  7  2  0
 10 12  1  0
 10  9  1  6
 11 10  1  0
 13 12  1  6
 13 14  1  0
 14  7  1  0
 15 13  1  0
 15 16  2  0
 18 20  1  0
 18 17  1  0
 19 18  2  0
 21 20  1  0
 22 21  1  0
 23 22  1  0
 24 23  1  6
 24 25  1  0
 25 15  1  0
 26 24  1  0
 27 26  2  0
 28 26  1  0
M  END
$$$$
