MLR.pdb
     RDKit          3D

 28 27  0  0  1  0  0  0  0  0999 V2000
   34.0285  -22.8584   -9.3952 C   0  0  0  0  0  0  0  0  0  0  0  0
   33.9529  -22.7429  -11.1914 S   0  0  0  0  0  0  0  0  0  0  0  0
   32.4249  -21.9813  -11.7626 C   0  0  0  0  0  0  0  0  0  0  0  0
   31.2354  -22.4039  -10.9053 C   0  0  0  0  0  0  0  0  0  0  0  0
   30.0041  -21.7094  -11.4595 C   0  0  2  0  0  0  0  0  0  0  0  0
   30.3773  -20.3114  -11.6134 N   0  0  0  0  0  0  0  0  0  0  0  0
   28.8793  -21.7518  -10.4894 C   0  0  0  0  0  0  0  0  0  0  0  0
   28.2027  -22.7812  -10.2999 O   0  0  0  0  0  0  0  0  0  0  0  0
   25.3622  -19.2938   -6.8980 C   0  0  0  0  0  0  0  0  0  0  0  0
   26.6527  -19.9240   -6.4396 C   0  0  2  0  0  0  0  0  0  0  0  0
   27.0971  -19.1699   -5.1768 C   0  0  0  0  0  0  0  0  0  0  0  0
   27.7117  -19.9132   -7.4617 C   0  0  0  0  0  0  0  0  0  0  0  0
   27.4621  -20.5953   -8.7568 C   0  0  2  0  0  0  0  0  0  0  0  0
   28.5146  -20.5875   -9.7123 N   0  0  0  0  0  0  0  0  0  0  0  0
   26.1455  -20.1697   -9.3573 C   0  0  0  0  0  0  0  0  0  0  0  0
   25.6991  -19.0074   -9.1747 O   0  0  0  0  0  0  0  0  0  0  0  0
   23.1755  -24.5593  -15.2619 N   0  0  0  0  0  0  0  0  0  0  0  0
   24.5614  -24.3863  -14.9209 C   0  0  0  0  0  0  0  0  0  0  0  0
   25.3067  -25.4296  -14.7957 N   0  0  0  0  0  0  0  0  0  0  0  0
   25.1028  -23.0882  -14.7247 N   0  0  0  0  0  0  0  0  0  0  0  0
   24.3551  -21.8887  -14.9479 C   0  0  0  0  0  0  0  0  0  0  0  0
   24.1002  -21.0918  -13.7247 C   0  0  0  0  0  0  0  0  0  0  0  0
   24.8571  -21.4464  -12.5033 C   0  0  0  0  0  0  0  0  0  0  0  0
   24.5555  -20.6597  -11.2738 C   0  0  2  0  0  0  0  0  0  0  0  0
   25.3659  -21.0446  -10.1411 N   0  0  0  0  0  0  0  0  0  0  0  0
   23.1266  -20.5395  -11.0024 C   0  0  0  0  0  0  0  0  0  0  0  0
   22.5900  -20.8889   -9.9221 O   0  0  0  0  0  0  0  0  0  0  0  0
   22.3011  -20.0107  -11.9803 O   0  0  0  0  0  0  0  0  0  0  0  0
  2  1  1  0
  3  2  1  0
  4  3  1  0
  5  6  1  1
  5  4  1  0
  7  5  1  0
  8  7  2  0
 10 12  1  0
 10  9  1  6
 11 10  1  0
 13 12  1  1
 13 14  1  0
 14  7  1  0
 15 13  1  0
 15 16  2  0
 18 20  1  0
 18 17  1  0
 19 18  2  0
 21 20  1  0
 22 21  1  0
 23 22  1  0
 24 23  1  6
 24 25  1  0
 25 15  1  0
 26 24  1  0
 27 26  2  0
 28 26  1  0
M  END
$$$$
