MLR.pdb
     RDKit          3D

 28 27  0  0  1  0  0  0  0  0999 V2000
   29.1979  -20.8209   -4.8620 C   0  0  0  0  0  0  0  0  0  0  0  0
   27.9897  -19.9109   -5.8405 S   0  0  0  0  0  0  0  0  0  0  0  0
   27.6416  -20.7136   -7.4138 C   0  0  0  0  0  0  0  0  0  0  0  0
   26.6200  -19.9259   -8.2290 C   0  0  0  0  0  0  0  0  0  0  0  0
   26.3481  -20.7105   -9.5002 C   0  0  2  0  0  0  0  0  0  0  0  0
   27.6541  -20.9805  -10.0824 N   0  0  0  0  0  0  0  0  0  0  0  0
   25.5959  -19.8932  -10.4872 C   0  0  0  0  0  0  0  0  0  0  0  0
   25.3751  -18.6788  -10.3148 O   0  0  0  0  0  0  0  0  0  0  0  0
   26.7031  -19.8175  -15.7753 C   0  0  0  0  0  0  0  0  0  0  0  0
   27.1056  -18.9849  -14.5847 C   0  0  2  0  0  0  0  0  0  0  0  0
   28.6143  -18.7222  -14.7097 C   0  0  0  0  0  0  0  0  0  0  0  0
   26.7833  -19.6085  -13.2911 C   0  0  0  0  0  0  0  0  0  0  0  0
   25.3692  -19.9521  -12.9959 C   0  0  2  0  0  0  0  0  0  0  0  0
   25.0802  -20.4764  -11.7065 N   0  0  0  0  0  0  0  0  0  0  0  0
   24.7648  -20.7863  -14.0976 C   0  0  0  0  0  0  0  0  0  0  0  0
   24.9265  -20.4738  -15.3058 O   0  0  0  0  0  0  0  0  0  0  0  0
   17.0495  -22.7234  -10.5617 N   0  0  0  0  0  0  0  0  0  0  0  0
   18.1116  -23.6522  -10.2854 C   0  0  0  0  0  0  0  0  0  0  0  0
   17.8156  -24.8147   -9.8161 N   0  0  0  0  0  0  0  0  0  0  0  0
   19.4655  -23.2969  -10.5250 N   0  0  0  0  0  0  0  0  0  0  0  0
   19.8569  -22.0285  -11.0594 C   0  0  0  0  0  0  0  0  0  0  0  0
   20.4805  -22.0978  -12.4020 C   0  0  0  0  0  0  0  0  0  0  0  0
   21.9558  -22.0083  -12.4799 C   0  0  0  0  0  0  0  0  0  0  0  0
   22.5582  -22.0141  -13.8433 C   0  0  2  0  0  0  0  0  0  0  0  0
   24.0012  -21.9399  -13.8261 N   0  0  0  0  0  0  0  0  0  0  0  0
   21.9005  -21.0964  -14.7679 C   0  0  0  0  0  0  0  0  0  0  0  0
   22.0736  -19.8525  -14.7575 O   0  0  0  0  0  0  0  0  0  0  0  0
   21.0342  -21.6095  -15.7185 O   0  0  0  0  0  0  0  0  0  0  0  0
  2  1  1  0
  3  2  1  0
  4  3  1  0
  5  6  1  6
  5  4  1  0
  7  5  1  0
  8  7  2  0
 10 12  1  0
 10  9  1  6
 11 10  1  0
 13 12  1  6
 13 14  1  0
 14  7  1  0
 15 13  1  0
 15 16  2  0
 18 20  1  0
 18 17  1  0
 19 18  2  0
 21 20  1  0
 22 21  1  0
 23 22  1  0
 24 23  1  1
 24 25  1  0
 25 15  1  0
 26 24  1  0
 27 26  2  0
 28 26  1  0
M  END
$$$$
