MLR.pdb
     RDKit          3D

 28 27  0  0  1  0  0  0  0  0999 V2000
   26.3138  -17.8285  -17.4809 C   0  0  0  0  0  0  0  0  0  0  0  0
   27.7849  -17.3240  -16.5718 S   0  0  0  0  0  0  0  0  0  0  0  0
   28.3663  -18.6056  -15.4490 C   0  0  0  0  0  0  0  0  0  0  0  0
   27.2105  -19.2463  -14.6860 C   0  0  0  0  0  0  0  0  0  0  0  0
   27.7955  -20.3295  -13.7972 C   0  0  2  0  0  0  0  0  0  0  0  0
   28.2063  -21.3968  -14.6969 N   0  0  0  0  0  0  0  0  0  0  0  0
   26.7636  -20.9001  -12.8931 C   0  0  0  0  0  0  0  0  0  0  0  0
   25.9858  -21.8031  -13.2574 O   0  0  0  0  0  0  0  0  0  0  0  0
   27.5331  -21.7129   -8.4695 C   0  0  0  0  0  0  0  0  0  0  0  0
   26.8854  -20.3661   -8.6679 C   0  0  2  0  0  0  0  0  0  0  0  0
   26.8162  -19.6933   -7.2883 C   0  0  0  0  0  0  0  0  0  0  0  0
   25.5529  -20.4366   -9.2889 C   0  0  0  0  0  0  0  0  0  0  0  0
   25.4572  -20.6893  -10.7490 C   0  0  2  0  0  0  0  0  0  0  0  0
   26.6134  -20.4282  -11.5339 N   0  0  0  0  0  0  0  0  0  0  0  0
   24.2178  -20.0610  -11.3355 C   0  0  0  0  0  0  0  0  0  0  0  0
   24.2921  -19.0127  -12.0278 O   0  0  0  0  0  0  0  0  0  0  0  0
   21.3641  -23.4576  -17.4114 N   0  0  0  0  0  0  0  0  0  0  0  0
   20.2678  -22.5414  -17.2516 C   0  0  0  0  0  0  0  0  0  0  0  0
   19.1829  -22.7470  -17.9151 N   0  0  0  0  0  0  0  0  0  0  0  0
   20.3758  -21.4273  -16.3776 N   0  0  0  0  0  0  0  0  0  0  0  0
   21.5127  -21.2009  -15.5386 C   0  0  0  0  0  0  0  0  0  0  0  0
   21.5960  -22.1039  -14.3665 C   0  0  0  0  0  0  0  0  0  0  0  0
   22.5269  -21.7322  -13.2775 C   0  0  0  0  0  0  0  0  0  0  0  0
   21.9728  -20.8934  -12.1769 C   0  0  2  0  0  0  0  0  0  0  0  0
   22.9362  -20.6137  -11.1369 N   0  0  0  0  0  0  0  0  0  0  0  0
   20.6673  -21.3467  -11.7081 C   0  0  0  0  0  0  0  0  0  0  0  0
   20.4961  -22.3752  -11.0080 O   0  0  0  0  0  0  0  0  0  0  0  0
   19.5426  -20.6120  -12.0437 O   0  0  0  0  0  0  0  0  0  0  0  0
  2  1  1  0
  3  2  1  0
  4  3  1  0
  5  6  1  6
  5  4  1  0
  7  5  1  0
  8  7  2  0
 10 12  1  0
 10  9  1  1
 11 10  1  0
 13 12  1  1
 13 14  1  0
 14  7  1  0
 15 13  1  0
 15 16  2  0
 18 20  1  0
 18 17  1  0
 19 18  2  0
 21 20  1  0
 22 21  1  0
 23 22  1  0
 24 23  1  6
 24 25  1  0
 25 15  1  0
 26 24  1  0
 27 26  2  0
 28 26  1  0
M  END
$$$$
