MLR.pdb
     RDKit          3D

 28 27  0  0  1  0  0  0  0  0999 V2000
   21.9968  -20.7248   -9.8306 C   0  0  0  0  0  0  0  0  0  0  0  0
   20.7965  -21.6802   -8.8863 S   0  0  0  0  0  0  0  0  0  0  0  0
   19.2510  -21.9096   -9.7808 C   0  0  0  0  0  0  0  0  0  0  0  0
   18.2390  -22.6983   -8.9546 C   0  0  0  0  0  0  0  0  0  0  0  0
   18.7840  -24.1057   -8.7884 C   0  0  2  0  0  0  0  0  0  0  0  0
   18.5945  -24.7553  -10.0767 N   0  0  0  0  0  0  0  0  0  0  0  0
   17.9914  -24.8764   -7.7955 C   0  0  0  0  0  0  0  0  0  0  0  0
   16.8617  -25.3334   -8.0563 O   0  0  0  0  0  0  0  0  0  0  0  0
   18.5408  -27.7961   -2.2629 C   0  0  0  0  0  0  0  0  0  0  0  0
   17.6882  -27.1971   -3.3524 C   0  0  2  0  0  0  0  0  0  0  0  0
   16.8797  -28.3467   -3.9733 C   0  0  0  0  0  0  0  0  0  0  0  0
   18.4598  -26.4788   -4.3794 C   0  0  0  0  0  0  0  0  0  0  0  0
   17.7264  -25.7563   -5.4495 C   0  0  2  0  0  0  0  0  0  0  0  0
   18.5009  -25.1342   -6.4663 N   0  0  0  0  0  0  0  0  0  0  0  0
   16.6907  -24.8238   -4.8727 C   0  0  0  0  0  0  0  0  0  0  0  0
   17.0331  -23.7759   -4.2658 O   0  0  0  0  0  0  0  0  0  0  0  0
   11.7397  -24.1485  -10.4722 N   0  0  0  0  0  0  0  0  0  0  0  0
   12.4874  -25.0454   -9.6335 C   0  0  0  0  0  0  0  0  0  0  0  0
   12.6835  -26.2541  -10.0337 N   0  0  0  0  0  0  0  0  0  0  0  0
   13.0025  -24.6092   -8.3841 N   0  0  0  0  0  0  0  0  0  0  0  0
   12.8223  -23.2796   -7.8869 C   0  0  0  0  0  0  0  0  0  0  0  0
   13.4446  -23.0326   -6.5647 C   0  0  0  0  0  0  0  0  0  0  0  0
   13.1663  -24.0030   -5.4824 C   0  0  0  0  0  0  0  0  0  0  0  0
   14.2533  -24.2304   -4.4880 C   0  0  2  0  0  0  0  0  0  0  0  0
   15.3093  -25.0814   -4.9866 N   0  0  0  0  0  0  0  0  0  0  0  0
   13.7564  -24.5717   -3.1590 C   0  0  0  0  0  0  0  0  0  0  0  0
   13.6187  -25.7502   -2.7472 O   0  0  0  0  0  0  0  0  0  0  0  0
   13.4142  -23.5504   -2.2888 O   0  0  0  0  0  0  0  0  0  0  0  0
  2  1  1  0
  3  2  1  0
  4  3  1  0
  5  6  1  6
  5  4  1  0
  7  5  1  0
  8  7  2  0
 10 12  1  0
 10  9  1  1
 11 10  1  0
 13 12  1  1
 13 14  1  0
 14  7  1  0
 15 13  1  0
 15 16  2  0
 18 20  1  0
 18 17  1  0
 19 18  2  0
 21 20  1  0
 22 21  1  0
 23 22  1  0
 24 23  1  6
 24 25  1  0
 25 15  1  0
 26 24  1  0
 27 26  2  0
 28 26  1  0
M  END
$$$$
