MLR.pdb
     RDKit          3D

 28 27  0  0  1  0  0  0  0  0999 V2000
   20.3848  -23.3790  -12.8481 C   0  0  0  0  0  0  0  0  0  0  0  0
   19.2150  -23.0700  -11.5134 S   0  0  0  0  0  0  0  0  0  0  0  0
   19.9138  -22.0304  -10.2204 C   0  0  0  0  0  0  0  0  0  0  0  0
   21.2936  -21.5070  -10.6089 C   0  0  0  0  0  0  0  0  0  0  0  0
   21.8564  -20.7689   -9.4072 C   0  0  2  0  0  0  0  0  0  0  0  0
   20.9704  -19.6348   -9.1923 N   0  0  0  0  0  0  0  0  0  0  0  0
   23.2041  -20.2149   -9.6981 C   0  0  0  0  0  0  0  0  0  0  0  0
   23.3640  -19.1039  -10.2397 O   0  0  0  0  0  0  0  0  0  0  0  0
   26.8474  -18.7493   -7.2215 C   0  0  0  0  0  0  0  0  0  0  0  0
   26.6609  -20.2420   -7.3192 C   0  0  2  0  0  0  0  0  0  0  0  0
   27.6962  -20.8862   -6.3843 C   0  0  0  0  0  0  0  0  0  0  0  0
   26.7880  -20.7653   -8.6889 C   0  0  0  0  0  0  0  0  0  0  0  0
   25.7101  -20.4746   -9.6680 C   0  0  2  0  0  0  0  0  0  0  0  0
   24.4051  -20.9480   -9.3621 N   0  0  0  0  0  0  0  0  0  0  0  0
   26.1308  -20.8333  -11.0713 C   0  0  0  0  0  0  0  0  0  0  0  0
   27.0404  -21.6787  -11.2756 O   0  0  0  0  0  0  0  0  0  0  0  0
   25.2911  -24.8248  -17.7973 N   0  0  0  0  0  0  0  0  0  0  0  0
   25.9391  -25.5584  -16.7442 C   0  0  0  0  0  0  0  0  0  0  0  0
   26.8139  -26.4515  -17.0547 N   0  0  0  0  0  0  0  0  0  0  0  0
   25.6222  -25.3048  -15.3833 N   0  0  0  0  0  0  0  0  0  0  0  0
   24.6923  -24.2975  -14.9730 C   0  0  0  0  0  0  0  0  0  0  0  0
   25.2709  -22.9369  -14.8729 C   0  0  0  0  0  0  0  0  0  0  0  0
   25.2179  -22.2628  -13.5564 C   0  0  0  0  0  0  0  0  0  0  0  0
   25.5244  -20.8042  -13.5355 C   0  0  2  0  0  0  0  0  0  0  0  0
   25.5307  -20.2449  -12.2032 N   0  0  0  0  0  0  0  0  0  0  0  0
   24.7691  -20.0423  -14.5249 C   0  0  0  0  0  0  0  0  0  0  0  0
   25.0475  -20.0203  -15.7493 O   0  0  0  0  0  0  0  0  0  0  0  0
   23.6795  -19.2968  -14.1074 O   0  0  0  0  0  0  0  0  0  0  0  0
  2  1  1  0
  3  2  1  0
  4  3  1  0
  5  6  1  6
  5  4  1  0
  7  5  1  0
  8  7  2  0
 10 12  1  0
 10  9  1  6
 11 10  1  0
 13 12  1  1
 13 14  1  0
 14  7  1  0
 15 13  1  0
 15 16  2  0
 18 20  1  0
 18 17  1  0
 19 18  2  0
 21 20  1  0
 22 21  1  0
 23 22  1  0
 24 23  1  1
 24 25  1  0
 25 15  1  0
 26 24  1  0
 27 26  2  0
 28 26  1  0
M  END
$$$$
