DLP.pdb
     RDKit          3D

 24 24  0  0  1  0  0  0  0  0999 V2000
    9.7127  -15.7528   20.4479 N   0  0  0  0  0  0  0  0  0  0  0  0
    9.5590  -16.5495   21.6325 C   0  0  1  0  0  0  0  0  0  0  0  0
   10.6185  -17.6394   21.5966 C   0  0  0  0  0  0  0  0  0  0  0  0
   10.2563  -18.5847   20.5060 C   0  0  0  0  0  0  0  0  0  0  0  0
    9.0808  -19.0733   20.4556 O   0  0  0  0  0  0  0  0  0  0  0  0
    9.6551  -15.7412   22.8705 C   0  0  0  0  0  0  0  0  0  0  0  0
   10.5846  -14.9196   22.9876 O   0  0  0  0  0  0  0  0  0  0  0  0
   11.1513  -18.9681   19.5225 O   0  0  0  0  0  0  0  0  0  0  0  0
    7.5526  -12.1392   25.0268 C   0  0  0  0  0  0  0  0  0  0  0  0
    6.7314  -13.3859   25.0205 C   0  0  2  0  0  0  0  0  0  0  0  0
    5.5745  -13.1677   26.0267 C   0  0  0  0  0  0  0  0  0  0  0  0
    7.3618  -14.6527   25.3829 C   0  0  0  0  0  0  0  0  0  0  0  0
    8.7806  -14.9526   25.0952 C   0  0  2  0  0  0  0  0  0  0  0  0
    8.7241  -15.8691   23.9313 N   0  0  0  0  0  0  0  0  0  0  0  0
    9.5535  -15.5872   26.1456 C   0  0  0  0  0  0  0  0  0  0  0  0
    9.9335  -16.8041   25.8879 O   0  0  0  0  0  0  0  0  0  0  0  0
    9.9624  -15.1184   27.3897 N   0  0  0  0  0  0  0  0  0  0  0  0
    9.5369  -13.9411   28.0875 C   0  0  0  0  0  0  0  0  0  0  0  0
   10.2291  -13.9766   29.4671 C   0  0  0  0  0  0  0  0  0  0  0  0
   11.5245  -14.6719   29.0604 C   0  0  0  0  0  0  0  0  0  0  0  0
   10.9566  -15.8021   28.2325 C   0  0  1  0  0  0  0  0  0  0  0  0
   10.3315  -16.8462   29.0619 C   0  0  0  0  0  0  0  0  0  0  0  0
   11.0111  -17.7330   29.8702 O   0  0  0  0  0  0  0  0  0  0  0  0
    9.0770  -16.9343   29.0289 O   0  0  0  0  0  0  0  0  0  0  0  0
  2  1  1  6
  2  3  1  0
  3  4  1  0
  4  8  1  0
  4  5  2  0
  6  2  1  0
  6  7  2  0
 10  9  1  1
 10 11  1  0
 10 12  1  0
 13 12  1  1
 13 14  1  0
 14  6  1  0
 15 13  1  0
 16 15  2  0
 17 15  1  0
 17 18  1  0
 19 18  1  0
 20 21  1  0
 20 19  1  0
 21 17  1  0
 21 22  1  1
 23 22  1  0
 24 22  2  0
M  END
$$$$
