DLP.pdb
     RDKit          3D

 24 24  0  0  1  0  0  0  0  0999 V2000
    9.5389  -15.8160   20.4263 N   0  0  0  0  0  0  0  0  0  0  0  0
    9.2957  -16.5463   21.6384 C   0  0  1  0  0  0  0  0  0  0  0  0
   10.2885  -17.6965   21.6917 C   0  0  0  0  0  0  0  0  0  0  0  0
    9.7722  -18.7789   20.8107 C   0  0  0  0  0  0  0  0  0  0  0  0
   10.4796  -19.1937   19.8358 O   0  0  0  0  0  0  0  0  0  0  0  0
    9.3959  -15.6881   22.8420 C   0  0  0  0  0  0  0  0  0  0  0  0
   10.3624  -14.9093   22.9527 O   0  0  0  0  0  0  0  0  0  0  0  0
    8.5356  -19.3704   21.0012 O   0  0  0  0  0  0  0  0  0  0  0  0
    7.4482  -11.9696   25.1532 C   0  0  0  0  0  0  0  0  0  0  0  0
    6.5838  -13.1856   25.1000 C   0  0  2  0  0  0  0  0  0  0  0  0
    5.4391  -12.9688   26.1204 C   0  0  0  0  0  0  0  0  0  0  0  0
    7.1708  -14.4875   25.4068 C   0  0  0  0  0  0  0  0  0  0  0  0
    8.5645  -14.8393   25.0611 C   0  0  2  0  0  0  0  0  0  0  0  0
    8.4282  -15.7207   23.8768 N   0  0  0  0  0  0  0  0  0  0  0  0
    9.3450  -15.5344   26.0667 C   0  0  0  0  0  0  0  0  0  0  0  0
    9.5832  -16.7864   25.8072 O   0  0  0  0  0  0  0  0  0  0  0  0
    9.8873  -15.0927   27.2691 N   0  0  0  0  0  0  0  0  0  0  0  0
    9.6298  -13.8711   27.9727 C   0  0  0  0  0  0  0  0  0  0  0  0
   10.4145  -13.9573   29.2996 C   0  0  0  0  0  0  0  0  0  0  0  0
   11.6033  -14.7810   28.8146 C   0  0  0  0  0  0  0  0  0  0  0  0
   10.8697  -15.8602   28.0514 C   0  0  1  0  0  0  0  0  0  0  0  0
   10.2089  -16.8279   28.9434 C   0  0  0  0  0  0  0  0  0  0  0  0
    8.8457  -16.9560   29.1078 O   0  0  0  0  0  0  0  0  0  0  0  0
   10.9490  -17.5982   29.6077 O   0  0  0  0  0  0  0  0  0  0  0  0
  2  1  1  6
  2  3  1  0
  3  4  1  0
  4  8  1  0
  4  5  2  0
  6  2  1  0
  6  7  2  0
 10  9  1  1
 10 11  1  0
 10 12  1  0
 13 12  1  1
 13 14  1  0
 14  6  1  0
 15 13  1  0
 16 15  2  0
 17 15  1  0
 17 18  1  0
 19 18  1  0
 20 21  1  0
 20 19  1  0
 21 17  1  0
 21 22  1  1
 23 22  1  0
 24 22  2  0
M  END
$$$$
