DLP.pdb
     RDKit          3D

 24 24  0  0  1  0  0  0  0  0999 V2000
    9.2885  -15.4445   20.0872 N   0  0  0  0  0  0  0  0  0  0  0  0
    9.2401  -16.2450   21.2781 C   0  0  1  0  0  0  0  0  0  0  0  0
   10.3344  -17.2953   21.1732 C   0  0  0  0  0  0  0  0  0  0  0  0
    9.8699  -18.5050   21.9048 C   0  0  0  0  0  0  0  0  0  0  0  0
    8.7852  -19.0767   21.5592 O   0  0  0  0  0  0  0  0  0  0  0  0
    9.3854  -15.4324   22.5085 C   0  0  0  0  0  0  0  0  0  0  0  0
   10.3651  -14.6706   22.6199 O   0  0  0  0  0  0  0  0  0  0  0  0
   10.5722  -19.0519   22.9646 O   0  0  0  0  0  0  0  0  0  0  0  0
    5.4999  -13.1828   26.6186 C   0  0  0  0  0  0  0  0  0  0  0  0
    6.9096  -13.2349   26.1302 C   0  0  2  0  0  0  0  0  0  0  0  0
    7.2921  -11.7955   25.7056 C   0  0  0  0  0  0  0  0  0  0  0  0
    7.2377  -14.1007   25.0004 C   0  0  0  0  0  0  0  0  0  0  0  0
    8.6008  -14.6189   24.7577 C   0  0  2  0  0  0  0  0  0  0  0  0
    8.4462  -15.4903   23.5682 N   0  0  0  0  0  0  0  0  0  0  0  0
    9.2186  -15.3910   25.8186 C   0  0  0  0  0  0  0  0  0  0  0  0
    9.2241  -16.6777   25.6286 O   0  0  0  0  0  0  0  0  0  0  0  0
    9.8107  -14.9930   27.0127 N   0  0  0  0  0  0  0  0  0  0  0  0
    9.6961  -13.7377   27.6946 C   0  0  0  0  0  0  0  0  0  0  0  0
   10.4689  -13.8895   29.0226 C   0  0  0  0  0  0  0  0  0  0  0  0
   11.5548  -14.8520   28.5518 C   0  0  0  0  0  0  0  0  0  0  0  0
   10.7010  -15.8537   27.8082 C   0  0  1  0  0  0  0  0  0  0  0  0
    9.9362  -16.7237   28.7176 C   0  0  0  0  0  0  0  0  0  0  0  0
   10.4768  -17.7049   29.5217 O   0  0  0  0  0  0  0  0  0  0  0  0
    8.6902  -16.5567   28.7629 O   0  0  0  0  0  0  0  0  0  0  0  0
  2  1  1  6
  2  3  1  0
  3  4  1  0
  4  8  1  0
  4  5  2  0
  6  2  1  0
  6  7  2  0
 10  9  1  6
 10 11  1  0
 10 12  1  0
 13 12  1  1
 13 14  1  0
 14  6  1  0
 15 13  1  0
 16 15  2  0
 17 15  1  0
 17 18  1  0
 19 18  1  0
 20 21  1  0
 20 19  1  0
 21 17  1  0
 21 22  1  1
 23 22  1  0
 24 22  2  0
M  END
$$$$
