DLP.pdb
     RDKit          3D

 24 24  0  0  1  0  0  0  0  0999 V2000
    8.7659  -15.2834   20.3220 N   0  0  0  0  0  0  0  0  0  0  0  0
    8.9074  -16.0689   21.5155 C   0  0  1  0  0  0  0  0  0  0  0  0
   10.0661  -17.0296   21.3013 C   0  0  0  0  0  0  0  0  0  0  0  0
    9.5779  -18.1398   20.4390 C   0  0  0  0  0  0  0  0  0  0  0  0
   10.1147  -18.3415   19.3014 O   0  0  0  0  0  0  0  0  0  0  0  0
    9.1144  -15.2307   22.7195 C   0  0  0  0  0  0  0  0  0  0  0  0
    9.9970  -14.3512   22.7017 O   0  0  0  0  0  0  0  0  0  0  0  0
    8.5478  -18.9824   20.8188 O   0  0  0  0  0  0  0  0  0  0  0  0
    7.6287  -11.6207   25.3509 C   0  0  0  0  0  0  0  0  0  0  0  0
    6.7459  -12.8196   25.2411 C   0  0  2  0  0  0  0  0  0  0  0  0
    5.5579  -12.5937   26.2086 C   0  0  0  0  0  0  0  0  0  0  0  0
    7.2938  -14.1359   25.5586 C   0  0  0  0  0  0  0  0  0  0  0  0
    8.6280  -14.5795   25.1019 C   0  0  2  0  0  0  0  0  0  0  0  0
    8.3415  -15.3934   23.8962 N   0  0  0  0  0  0  0  0  0  0  0  0
    9.4153  -15.3781   26.0216 C   0  0  0  0  0  0  0  0  0  0  0  0
    9.6223  -16.6052   25.6437 O   0  0  0  0  0  0  0  0  0  0  0  0
    9.9921  -15.0584   27.2464 N   0  0  0  0  0  0  0  0  0  0  0  0
    9.7900  -13.8923   28.0546 C   0  0  0  0  0  0  0  0  0  0  0  0
   10.5917  -14.1173   29.3547 C   0  0  0  0  0  0  0  0  0  0  0  0
   11.7423  -14.9378   28.7803 C   0  0  0  0  0  0  0  0  0  0  0  0
   10.9583  -15.9227   27.9433 C   0  0  1  0  0  0  0  0  0  0  0  0
   10.2771  -16.9387   28.7633 C   0  0  0  0  0  0  0  0  0  0  0  0
    8.9108  -17.0644   28.9011 O   0  0  0  0  0  0  0  0  0  0  0  0
   11.0015  -17.7564   29.3871 O   0  0  0  0  0  0  0  0  0  0  0  0
  2  1  1  6
  2  3  1  0
  3  4  1  0
  4  8  1  0
  4  5  2  0
  6  2  1  0
  6  7  2  0
 10  9  1  1
 10 11  1  0
 10 12  1  0
 13 12  1  1
 13 14  1  0
 14  6  1  0
 15 13  1  0
 16 15  2  0
 17 15  1  0
 17 18  1  0
 19 18  1  0
 20 21  1  0
 20 19  1  0
 21 17  1  0
 21 22  1  1
 23 22  1  0
 24 22  2  0
M  END
$$$$
