DLP.pdb
     RDKit          3D

 24 24  0  0  1  0  0  0  0  0999 V2000
    9.3438  -15.8602   20.2258 N   0  0  0  0  0  0  0  0  0  0  0  0
    9.4813  -16.5703   21.4661 C   0  0  1  0  0  0  0  0  0  0  0  0
   10.7815  -17.3561   21.4067 C   0  0  0  0  0  0  0  0  0  0  0  0
   10.6099  -18.4360   20.3974 C   0  0  0  0  0  0  0  0  0  0  0  0
    9.8143  -19.4027   20.6328 O   0  0  0  0  0  0  0  0  0  0  0  0
    9.4484  -15.6655   22.6390 C   0  0  0  0  0  0  0  0  0  0  0  0
   10.2472  -14.7106   22.6908 O   0  0  0  0  0  0  0  0  0  0  0  0
   11.2858  -18.4433   19.1897 O   0  0  0  0  0  0  0  0  0  0  0  0
    7.5238  -12.0991   25.0864 C   0  0  0  0  0  0  0  0  0  0  0  0
    6.5709  -13.2481   25.0660 C   0  0  2  0  0  0  0  0  0  0  0  0
    5.6849  -13.1203   26.3298 C   0  0  0  0  0  0  0  0  0  0  0  0
    7.1006  -14.6094   25.0676 C   0  0  0  0  0  0  0  0  0  0  0  0
    8.5325  -14.9120   24.8593 C   0  0  2  0  0  0  0  0  0  0  0  0
    8.5372  -15.8475   23.7091 N   0  0  0  0  0  0  0  0  0  0  0  0
    9.2499  -15.5285   25.9587 C   0  0  0  0  0  0  0  0  0  0  0  0
    9.4975  -16.7966   25.8095 O   0  0  0  0  0  0  0  0  0  0  0  0
    9.7229  -14.9965   27.1538 N   0  0  0  0  0  0  0  0  0  0  0  0
    9.3660  -13.7621   27.7882 C   0  0  0  0  0  0  0  0  0  0  0  0
   10.1096  -13.7349   29.1410 C   0  0  0  0  0  0  0  0  0  0  0  0
   11.3633  -14.5025   28.7335 C   0  0  0  0  0  0  0  0  0  0  0  0
   10.7248  -15.6614   28.0025 C   0  0  1  0  0  0  0  0  0  0  0  0
   10.0965  -16.6264   28.9206 C   0  0  0  0  0  0  0  0  0  0  0  0
    8.7388  -16.8222   29.0615 O   0  0  0  0  0  0  0  0  0  0  0  0
   10.8614  -17.3270   29.6323 O   0  0  0  0  0  0  0  0  0  0  0  0
  2  1  1  6
  2  3  1  0
  3  4  1  0
  4  8  1  0
  4  5  2  0
  6  2  1  0
  6  7  2  0
 10  9  1  1
 10 11  1  0
 10 12  1  0
 13 12  1  1
 13 14  1  0
 14  6  1  0
 15 13  1  0
 16 15  2  0
 17 15  1  0
 17 18  1  0
 19 18  1  0
 20 21  1  0
 20 19  1  0
 21 17  1  0
 21 22  1  1
 23 22  1  0
 24 22  2  0
M  END
$$$$
