DLP.pdb
     RDKit          3D

 24 24  0  0  1  0  0  0  0  0999 V2000
    9.9611  -16.3018   20.3271 N   0  0  0  0  0  0  0  0  0  0  0  0
    9.5695  -16.8411   21.5988 C   0  0  1  0  0  0  0  0  0  0  0  0
   10.5008  -18.0003   21.9154 C   0  0  0  0  0  0  0  0  0  0  0  0
   10.2761  -19.0529   20.8878 C   0  0  0  0  0  0  0  0  0  0  0  0
    9.2672  -19.8249   20.9818 O   0  0  0  0  0  0  0  0  0  0  0  0
    9.5901  -15.8208   22.6730 C   0  0  0  0  0  0  0  0  0  0  0  0
   10.5731  -15.0611   22.7689 O   0  0  0  0  0  0  0  0  0  0  0  0
   11.1264  -19.2393   19.8118 O   0  0  0  0  0  0  0  0  0  0  0  0
    5.5205  -13.0300   26.3255 C   0  0  0  0  0  0  0  0  0  0  0  0
    6.9499  -13.2136   25.9360 C   0  0  2  0  0  0  0  0  0  0  0  0
    7.4488  -11.8492   25.3992 C   0  0  0  0  0  0  0  0  0  0  0  0
    7.2864  -14.2066   24.9189 C   0  0  0  0  0  0  0  0  0  0  0  0
    8.6521  -14.7459   24.7468 C   0  0  2  0  0  0  0  0  0  0  0  0
    8.5276  -15.6768   23.5997 N   0  0  0  0  0  0  0  0  0  0  0  0
    9.2297  -15.4661   25.8654 C   0  0  0  0  0  0  0  0  0  0  0  0
    9.2408  -16.7603   25.7373 O   0  0  0  0  0  0  0  0  0  0  0  0
    9.7778  -15.0111   27.0601 N   0  0  0  0  0  0  0  0  0  0  0  0
    9.5964  -13.7434   27.7035 C   0  0  0  0  0  0  0  0  0  0  0  0
   10.3447  -13.8264   29.0515 C   0  0  0  0  0  0  0  0  0  0  0  0
   11.4795  -14.7553   28.6316 C   0  0  0  0  0  0  0  0  0  0  0  0
   10.6845  -15.8117   27.8986 C   0  0  1  0  0  0  0  0  0  0  0  0
    9.9358  -16.6875   28.8157 C   0  0  0  0  0  0  0  0  0  0  0  0
   10.4955  -17.6434   29.6372 O   0  0  0  0  0  0  0  0  0  0  0  0
    8.6857  -16.5512   28.8510 O   0  0  0  0  0  0  0  0  0  0  0  0
  2  1  1  6
  2  3  1  0
  3  4  1  0
  4  8  1  0
  4  5  2  0
  6  2  1  0
  6  7  2  0
 10  9  1  6
 10 11  1  0
 10 12  1  0
 13 12  1  1
 13 14  1  0
 14  6  1  0
 15 13  1  0
 16 15  2  0
 17 15  1  0
 17 18  1  0
 19 18  1  0
 20 21  1  0
 20 19  1  0
 21 17  1  0
 21 22  1  1
 23 22  1  0
 24 22  2  0
M  END
$$$$
