DLP.pdb
     RDKit          3D

 24 24  0  0  1  0  0  0  0  0999 V2000
    9.3364  -15.7554   20.3253 N   0  0  0  0  0  0  0  0  0  0  0  0
    9.4060  -16.4868   21.5589 C   0  0  1  0  0  0  0  0  0  0  0  0
   10.6129  -17.4082   21.4819 C   0  0  0  0  0  0  0  0  0  0  0  0
   10.3489  -18.4088   20.4126 C   0  0  0  0  0  0  0  0  0  0  0  0
    9.4195  -19.2669   20.5635 O   0  0  0  0  0  0  0  0  0  0  0  0
    9.4806  -15.5940   22.7389 C   0  0  0  0  0  0  0  0  0  0  0  0
   10.3376  -14.6897   22.7619 O   0  0  0  0  0  0  0  0  0  0  0  0
   11.0779  -18.4551   19.2371 O   0  0  0  0  0  0  0  0  0  0  0  0
    7.6077  -11.9694   25.0911 C   0  0  0  0  0  0  0  0  0  0  0  0
    6.7471  -13.1884   25.0458 C   0  0  2  0  0  0  0  0  0  0  0  0
    5.6038  -12.9702   26.0675 C   0  0  0  0  0  0  0  0  0  0  0  0
    7.3389  -14.4869   25.3579 C   0  0  0  0  0  0  0  0  0  0  0  0
    8.7359  -14.8325   25.0197 C   0  0  2  0  0  0  0  0  0  0  0  0
    8.6087  -15.7316   23.8477 N   0  0  0  0  0  0  0  0  0  0  0  0
    9.5199  -15.5073   26.0363 C   0  0  0  0  0  0  0  0  0  0  0  0
    9.8691  -16.7249   25.7411 O   0  0  0  0  0  0  0  0  0  0  0  0
    9.9670  -15.0766   27.2811 N   0  0  0  0  0  0  0  0  0  0  0  0
    9.5906  -13.9020   28.0108 C   0  0  0  0  0  0  0  0  0  0  0  0
   10.3084  -13.9864   29.3752 C   0  0  0  0  0  0  0  0  0  0  0  0
   11.5742  -14.7110   28.9285 C   0  0  0  0  0  0  0  0  0  0  0  0
   10.9568  -15.8066   28.0896 C   0  0  1  0  0  0  0  0  0  0  0  0
   10.3172  -16.8488   28.9103 C   0  0  0  0  0  0  0  0  0  0  0  0
   10.9853  -17.7638   29.6965 O   0  0  0  0  0  0  0  0  0  0  0  0
    9.0607  -16.9072   28.8912 O   0  0  0  0  0  0  0  0  0  0  0  0
  2  1  1  6
  2  3  1  0
  3  4  1  0
  4  8  1  0
  4  5  2  0
  6  2  1  0
  6  7  2  0
 10  9  1  1
 10 11  1  0
 10 12  1  0
 13 12  1  1
 13 14  1  0
 14  6  1  0
 15 13  1  0
 16 15  2  0
 17 15  1  0
 17 18  1  0
 19 18  1  0
 20 21  1  0
 20 19  1  0
 21 17  1  0
 21 22  1  1
 23 22  1  0
 24 22  2  0
M  END
$$$$
