IQC.pdb
     RDKit          3D

 24 23  0  0  1  0  0  0  0  0999 V2000
   29.0246  -16.2777  -17.1761 C   0  0  0  0  0  0  0  0  0  0  0  0
   27.6296  -16.4412  -17.7561 C   0  0  0  0  0  0  0  0  0  0  0  0
   26.6415  -15.6931  -16.9285 C   0  0  2  0  0  0  0  0  0  0  0  0
   26.7382  -16.1845  -15.4867 C   0  0  0  0  0  0  0  0  0  0  0  0
   25.2263  -15.8062  -17.4242 C   0  0  2  0  0  0  0  0  0  0  0  0
   25.2035  -15.4345  -18.8089 N   0  0  0  0  0  0  0  0  0  0  0  0
   24.2520  -15.0946  -16.5957 C   0  0  0  0  0  0  0  0  0  0  0  0
   24.0885  -15.4550  -15.4014 O   0  0  0  0  0  0  0  0  0  0  0  0
   21.9128   -9.3046  -17.4014 N   0  0  0  0  0  0  0  0  0  0  0  0
   21.1312   -9.7871  -16.3121 C   0  0  0  0  0  0  0  0  0  0  0  0
   20.3493   -8.9501  -15.7774 O   0  0  0  0  0  0  0  0  0  0  0  0
   21.2248  -11.1898  -15.8283 C   0  0  0  0  0  0  0  0  0  0  0  0
   22.2709  -11.8914  -16.6293 C   0  0  0  0  0  0  0  0  0  0  0  0
   22.5010  -13.3152  -16.2013 C   0  0  2  0  0  0  0  0  0  0  0  0
   23.4541  -14.0004  -17.0420 N   0  0  0  0  0  0  0  0  0  0  0  0
   21.2503  -14.0908  -16.1158 C   0  0  0  0  0  0  0  0  0  0  0  0
   20.7254  -14.5527  -17.1612 O   0  0  0  0  0  0  0  0  0  0  0  0
   20.5991  -14.3448  -14.8836 N   0  0  0  0  0  0  0  0  0  0  0  0
   19.3357  -15.0481  -14.8326 C   0  0  1  0  0  0  0  0  0  0  0  0
   19.4059  -16.0992  -13.7507 C   0  0  0  0  0  0  0  0  0  0  0  0
   17.8032  -16.9198  -13.5428 S   0  0  0  0  0  0  0  0  0  0  0  0
   18.2102  -14.1268  -14.5621 C   0  0  0  0  0  0  0  0  0  0  0  0
   18.4248  -13.0725  -13.9196 O   0  0  0  0  0  0  0  0  0  0  0  0
   16.9345  -14.3865  -14.9912 O   0  0  0  0  0  0  0  0  0  0  0  0
  1  2  1  0
  2  3  1  0
  3  4  1  1
  5  7  1  0
  5  3  1  0
  5  6  1  6
  7  8  2  0
 10  9  1  0
 11 10  2  0
 12 10  1  0
 13 12  1  0
 14 13  1  6
 15 14  1  0
 15  7  1  0
 16 17  2  0
 16 14  1  0
 18 16  1  0
 19 22  1  0
 19 18  1  0
 19 20  1  1
 21 20  1  0
 22 24  1  0
 23 22  2  0
M  END
$$$$
