IQC.pdb
     RDKit          3D

 24 23  0  0  1  0  0  0  0  0999 V2000
   16.8765  -12.8736  -19.6652 C   0  0  0  0  0  0  0  0  0  0  0  0
   18.2026  -12.6809  -18.9488 C   0  0  0  0  0  0  0  0  0  0  0  0
   18.0558  -11.6673  -17.8662 C   0  0  2  0  0  0  0  0  0  0  0  0
   17.5111  -10.3773  -18.4738 C   0  0  0  0  0  0  0  0  0  0  0  0
   19.3296  -11.3930  -17.1157 C   0  0  2  0  0  0  0  0  0  0  0  0
   19.7923  -12.6262  -16.5489 N   0  0  0  0  0  0  0  0  0  0  0  0
   19.2239  -10.2935  -16.1556 C   0  0  0  0  0  0  0  0  0  0  0  0
   18.6057  -10.4836  -15.0765 O   0  0  0  0  0  0  0  0  0  0  0  0
   23.3573   -6.1071  -14.5037 N   0  0  0  0  0  0  0  0  0  0  0  0
   22.1951   -5.5629  -13.8846 C   0  0  0  0  0  0  0  0  0  0  0  0
   22.3843   -4.5681  -13.1281 O   0  0  0  0  0  0  0  0  0  0  0  0
   20.8380   -6.1266  -14.1105 C   0  0  0  0  0  0  0  0  0  0  0  0
   20.9566   -7.2561  -15.0792 C   0  0  0  0  0  0  0  0  0  0  0  0
   19.6436   -7.9216  -15.3898 C   0  0  2  0  0  0  0  0  0  0  0  0
   19.7776   -8.9935  -16.3478 N   0  0  0  0  0  0  0  0  0  0  0  0
   18.6154   -6.9656  -15.8387 C   0  0  0  0  0  0  0  0  0  0  0  0
   18.6284   -6.5393  -17.0219 O   0  0  0  0  0  0  0  0  0  0  0  0
   17.5916   -6.4952  -14.9799 N   0  0  0  0  0  0  0  0  0  0  0  0
   16.5719   -5.5851  -15.4546 C   0  0  1  0  0  0  0  0  0  0  0  0
   15.2184   -6.1083  -15.0368 C   0  0  0  0  0  0  0  0  0  0  0  0
   14.8320   -7.6573  -15.8952 S   0  0  0  0  0  0  0  0  0  0  0  0
   16.7676   -4.2203  -14.9182 C   0  0  0  0  0  0  0  0  0  0  0  0
   17.7243   -4.0018  -14.1389 O   0  0  0  0  0  0  0  0  0  0  0  0
   15.9356   -3.1810  -15.2447 O   0  0  0  0  0  0  0  0  0  0  0  0
  1  2  1  0
  2  3  1  0
  3  4  1  6
  5  7  1  0
  5  3  1  0
  5  6  1  1
  7  8  2  0
 10  9  1  0
 11 10  2  0
 12 10  1  0
 13 12  1  0
 14 13  1  6
 15 14  1  0
 15  7  1  0
 16 17  2  0
 16 14  1  0
 18 16  1  0
 19 22  1  0
 19 18  1  0
 19 20  1  1
 21 20  1  0
 22 24  1  0
 23 22  2  0
M  END
$$$$
