IQC.pdb
     RDKit          3D

 24 23  0  0  1  0  0  0  0  0999 V2000
   17.6980  -15.3748  -19.2903 C   0  0  0  0  0  0  0  0  0  0  0  0
   18.9878  -15.7575  -18.5838 C   0  0  0  0  0  0  0  0  0  0  0  0
   19.5337  -14.5836  -17.8458 C   0  0  2  0  0  0  0  0  0  0  0  0
   19.7856  -13.4536  -18.8405 C   0  0  0  0  0  0  0  0  0  0  0  0
   20.7862  -14.8842  -17.0699 C   0  0  2  0  0  0  0  0  0  0  0  0
   20.5273  -16.0053  -16.2143 N   0  0  0  0  0  0  0  0  0  0  0  0
   21.3477  -13.7209  -16.3816 C   0  0  0  0  0  0  0  0  0  0  0  0
   20.6807  -13.1736  -15.4661 O   0  0  0  0  0  0  0  0  0  0  0  0
   27.3608  -11.7379  -16.3405 N   0  0  0  0  0  0  0  0  0  0  0  0
   26.7094  -10.7753  -15.5165 C   0  0  0  0  0  0  0  0  0  0  0  0
   27.4640   -9.9564  -14.9183 O   0  0  0  0  0  0  0  0  0  0  0  0
   25.2311  -10.7309  -15.3648 C   0  0  0  0  0  0  0  0  0  0  0  0
   24.6509  -11.8927  -16.1009 C   0  0  0  0  0  0  0  0  0  0  0  0
   23.1574  -12.0074  -15.9611 C   0  0  2  0  0  0  0  0  0  0  0  0
   22.6191  -13.1437  -16.6708 N   0  0  0  0  0  0  0  0  0  0  0  0
   22.4538  -10.7768  -16.3657 C   0  0  0  0  0  0  0  0  0  0  0  0
   22.3077  -10.5096  -17.5859 O   0  0  0  0  0  0  0  0  0  0  0  0
   21.9235   -9.8623  -15.4225 N   0  0  0  0  0  0  0  0  0  0  0  0
   21.2815   -8.6361  -15.8440 C   0  0  1  0  0  0  0  0  0  0  0  0
   19.8246   -8.6882  -15.4503 C   0  0  0  0  0  0  0  0  0  0  0  0
   19.0444   -7.0640  -15.6470 S   0  0  0  0  0  0  0  0  0  0  0  0
   21.9217   -7.4493  -15.2354 C   0  0  0  0  0  0  0  0  0  0  0  0
   22.5544   -7.5799  -14.1616 O   0  0  0  0  0  0  0  0  0  0  0  0
   21.8471   -6.2056  -15.8069 O   0  0  0  0  0  0  0  0  0  0  0  0
  1  2  1  0
  2  3  1  0
  3  4  1  6
  5  7  1  0
  5  3  1  0
  5  6  1  1
  7  8  2  0
 10  9  1  0
 11 10  2  0
 12 10  1  0
 13 12  1  0
 14 13  1  6
 15 14  1  0
 15  7  1  0
 16 17  2  0
 16 14  1  0
 18 16  1  0
 19 22  1  0
 19 18  1  0
 19 20  1  1
 21 20  1  0
 22 24  1  0
 23 22  2  0
M  END
$$$$
