IQC.pdb
     RDKit          3D

 24 23  0  0  1  0  0  0  0  0999 V2000
   23.3909  -16.8870  -15.1929 C   0  0  0  0  0  0  0  0  0  0  0  0
   24.5511  -16.1014  -15.7806 C   0  0  0  0  0  0  0  0  0  0  0  0
   24.4177  -14.6578  -15.4352 C   0  0  2  0  0  0  0  0  0  0  0  0
   23.0658  -14.1573  -15.9366 C   0  0  0  0  0  0  0  0  0  0  0  0
   25.5260  -13.7993  -15.9790 C   0  0  2  0  0  0  0  0  0  0  0  0
   26.7701  -14.2888  -15.4604 N   0  0  0  0  0  0  0  0  0  0  0  0
   25.3146  -12.3651  -15.7778 C   0  0  0  0  0  0  0  0  0  0  0  0
   25.6792  -11.8413  -14.6937 O   0  0  0  0  0  0  0  0  0  0  0  0
   26.9514   -7.8820  -19.2879 N   0  0  0  0  0  0  0  0  0  0  0  0
   26.0856   -7.1430  -18.4311 C   0  0  0  0  0  0  0  0  0  0  0  0
   26.1469   -5.8845  -18.5327 O   0  0  0  0  0  0  0  0  0  0  0  0
   25.1626   -7.8060  -17.4724 C   0  0  0  0  0  0  0  0  0  0  0  0
   25.3601   -9.2818  -17.5784 C   0  0  0  0  0  0  0  0  0  0  0  0
   24.5986  -10.0657  -16.5445 C   0  0  2  0  0  0  0  0  0  0  0  0
   24.7150  -11.4924  -16.7329 N   0  0  0  0  0  0  0  0  0  0  0  0
   23.1783   -9.6778  -16.4714 C   0  0  0  0  0  0  0  0  0  0  0  0
   22.3011  -10.4036  -17.0056 O   0  0  0  0  0  0  0  0  0  0  0  0
   22.7476   -8.4998  -15.8128 N   0  0  0  0  0  0  0  0  0  0  0  0
   21.3427   -8.1719  -15.7021 C   0  0  1  0  0  0  0  0  0  0  0  0
   20.7142   -9.0646  -14.6589 C   0  0  0  0  0  0  0  0  0  0  0  0
   19.0312   -8.5161  -14.2691 S   0  0  0  0  0  0  0  0  0  0  0  0
   21.1421   -6.7534  -15.3327 C   0  0  0  0  0  0  0  0  0  0  0  0
   22.0707   -6.1333  -14.7638 O   0  0  0  0  0  0  0  0  0  0  0  0
   19.9709   -6.0899  -15.5916 O   0  0  0  0  0  0  0  0  0  0  0  0
  1  2  1  0
  2  3  1  0
  3  4  1  6
  5  7  1  0
  5  3  1  0
  5  6  1  1
  7  8  2  0
 10  9  1  0
 11 10  2  0
 12 10  1  0
 13 12  1  0
 14 13  1  6
 15 14  1  0
 15  7  1  0
 16 17  2  0
 16 14  1  0
 18 16  1  0
 19 22  1  0
 19 18  1  0
 19 20  1  1
 21 20  1  0
 22 24  1  0
 23 22  2  0
M  END
$$$$
