IQC.pdb
     RDKit          3D

 24 23  0  0  1  0  0  0  0  0999 V2000
   16.4060  -16.2007  -16.8363 C   0  0  0  0  0  0  0  0  0  0  0  0
   17.1246  -15.2893  -15.8554 C   0  0  0  0  0  0  0  0  0  0  0  0
   17.1935  -13.9044  -16.4014 C   0  0  2  0  0  0  0  0  0  0  0  0
   17.9400  -13.9392  -17.7322 C   0  0  0  0  0  0  0  0  0  0  0  0
   17.8369  -12.9162  -15.4683 C   0  0  2  0  0  0  0  0  0  0  0  0
   17.1751  -12.9992  -14.1989 N   0  0  0  0  0  0  0  0  0  0  0  0
   17.9234  -11.5603  -16.0126 C   0  0  0  0  0  0  0  0  0  0  0  0
   18.5687  -11.3701  -17.0756 O   0  0  0  0  0  0  0  0  0  0  0  0
   15.3572   -6.3528  -17.8176 N   0  0  0  0  0  0  0  0  0  0  0  0
   15.0749   -7.6903  -18.2192 C   0  0  0  0  0  0  0  0  0  0  0  0
   14.4426   -7.8210  -19.3060 O   0  0  0  0  0  0  0  0  0  0  0  0
   15.4958   -8.8665  -17.4131 C   0  0  0  0  0  0  0  0  0  0  0  0
   16.1994   -8.3697  -16.1940 C   0  0  0  0  0  0  0  0  0  0  0  0
   17.5040   -9.0694  -15.9261 C   0  0  2  0  0  0  0  0  0  0  0  0
   17.3216  -10.4102  -15.4224 N   0  0  0  0  0  0  0  0  0  0  0  0
   18.3834   -8.3039  -15.0241 C   0  0  0  0  0  0  0  0  0  0  0  0
   18.3072   -8.4733  -13.7802 O   0  0  0  0  0  0  0  0  0  0  0  0
   19.3304   -7.3662  -15.5049 N   0  0  0  0  0  0  0  0  0  0  0  0
   20.0771   -6.5208  -14.5988 C   0  0  1  0  0  0  0  0  0  0  0  0
   21.4251   -7.1513  -14.3425 C   0  0  0  0  0  0  0  0  0  0  0  0
   22.4134   -6.1280  -13.2194 S   0  0  0  0  0  0  0  0  0  0  0  0
   20.2585   -5.1595  -15.1490 C   0  0  0  0  0  0  0  0  0  0  0  0
   20.3921   -5.0138  -16.3865 O   0  0  0  0  0  0  0  0  0  0  0  0
   20.2860   -4.0463  -14.3496 O   0  0  0  0  0  0  0  0  0  0  0  0
  1  2  1  0
  2  3  1  0
  3  4  1  6
  5  7  1  0
  5  3  1  0
  5  6  1  1
  7  8  2  0
 10  9  1  0
 11 10  2  0
 12 10  1  0
 13 12  1  0
 14 13  1  1
 15 14  1  0
 15  7  1  0
 16 17  2  0
 16 14  1  0
 18 16  1  0
 19 22  1  0
 19 18  1  0
 19 20  1  6
 21 20  1  0
 22 24  1  0
 23 22  2  0
M  END
$$$$
