IQC.pdb
     RDKit          3D

 24 23  0  0  1  0  0  0  0  0999 V2000
   25.1220  -12.2096  -15.4452 C   0  0  0  0  0  0  0  0  0  0  0  0
   23.7210  -12.4663  -15.9747 C   0  0  0  0  0  0  0  0  0  0  0  0
   22.9907  -11.1770  -16.1337 C   0  0  2  0  0  0  0  0  0  0  0  0
   22.9122  -10.4878  -14.7741 C   0  0  0  0  0  0  0  0  0  0  0  0
   21.6152  -11.3278  -16.7221 C   0  0  2  0  0  0  0  0  0  0  0  0
   21.7350  -12.0113  -17.9769 N   0  0  0  0  0  0  0  0  0  0  0  0
   20.8618  -10.0749  -16.7906 C   0  0  0  0  0  0  0  0  0  0  0  0
   21.1805   -9.2184  -17.6552 O   0  0  0  0  0  0  0  0  0  0  0  0
   14.8963   -8.9369  -15.5830 N   0  0  0  0  0  0  0  0  0  0  0  0
   15.4087   -7.6083  -15.6315 C   0  0  0  0  0  0  0  0  0  0  0  0
   14.5560   -6.6812  -15.5258 O   0  0  0  0  0  0  0  0  0  0  0  0
   16.8583   -7.3224  -15.7966 C   0  0  0  0  0  0  0  0  0  0  0  0
   17.5856   -8.6238  -15.8712 C   0  0  0  0  0  0  0  0  0  0  0  0
   19.0774   -8.4723  -15.9935 C   0  0  2  0  0  0  0  0  0  0  0  0
   19.7703   -9.7378  -15.9373 N   0  0  0  0  0  0  0  0  0  0  0  0
   19.6367   -7.5429  -14.9953 C   0  0  0  0  0  0  0  0  0  0  0  0
   20.0521   -7.9818  -13.8923 O   0  0  0  0  0  0  0  0  0  0  0  0
   19.7296   -6.1484  -15.2270 N   0  0  0  0  0  0  0  0  0  0  0  0
   20.3481   -5.2660  -14.2614 C   0  0  1  0  0  0  0  0  0  0  0  0
   21.8312   -5.5477  -14.2231 C   0  0  0  0  0  0  0  0  0  0  0  0
   22.6964   -4.3159  -13.2136 S   0  0  0  0  0  0  0  0  0  0  0  0
   20.1180   -3.8438  -14.5978 C   0  0  0  0  0  0  0  0  0  0  0  0
   20.2238   -2.9785  -13.6975 O   0  0  0  0  0  0  0  0  0  0  0  0
   19.7916   -3.4366  -15.8653 O   0  0  0  0  0  0  0  0  0  0  0  0
  1  2  1  0
  2  3  1  0
  3  4  1  1
  5  7  1  0
  5  3  1  0
  5  6  1  6
  7  8  2  0
 10  9  1  0
 11 10  2  0
 12 10  1  0
 13 12  1  0
 14 13  1  1
 15 14  1  0
 15  7  1  0
 16 17  2  0
 16 14  1  0
 18 16  1  0
 19 22  1  0
 19 18  1  0
 19 20  1  6
 21 20  1  0
 22 24  1  0
 23 22  2  0
M  END
$$$$
