IQC.pdb
     RDKit          3D

 24 23  0  0  1  0  0  0  0  0999 V2000
   14.0759  -14.3793  -15.5947 C   0  0  0  0  0  0  0  0  0  0  0  0
   15.3501  -13.5811  -15.3749 C   0  0  0  0  0  0  0  0  0  0  0  0
   15.0335  -12.2867  -14.7077 C   0  0  2  0  0  0  0  0  0  0  0  0
   14.0291  -11.5249  -15.5684 C   0  0  0  0  0  0  0  0  0  0  0  0
   16.2412  -11.4329  -14.4366 C   0  0  2  0  0  0  0  0  0  0  0  0
   17.0799  -12.1240  -13.5010 N   0  0  0  0  0  0  0  0  0  0  0  0
   15.9180  -10.0584  -14.0514 C   0  0  0  0  0  0  0  0  0  0  0  0
   15.2576   -9.3416  -14.8469 O   0  0  0  0  0  0  0  0  0  0  0  0
   15.6907   -7.6919   -8.2923 N   0  0  0  0  0  0  0  0  0  0  0  0
   14.4869   -7.6778   -9.0543 C   0  0  0  0  0  0  0  0  0  0  0  0
   13.4110   -7.6661   -8.3909 O   0  0  0  0  0  0  0  0  0  0  0  0
   14.4889   -7.6768  -10.5411 C   0  0  0  0  0  0  0  0  0  0  0  0
   15.8969   -7.8477  -11.0065 C   0  0  0  0  0  0  0  0  0  0  0  0
   16.0164   -8.0743  -12.4889 C   0  0  2  0  0  0  0  0  0  0  0  0
   16.2996   -9.4510  -12.8191 N   0  0  0  0  0  0  0  0  0  0  0  0
   17.0097   -7.1865  -13.1200 C   0  0  0  0  0  0  0  0  0  0  0  0
   18.1203   -7.6482  -13.4876 O   0  0  0  0  0  0  0  0  0  0  0  0
   16.7649   -5.8079  -13.3358 N   0  0  0  0  0  0  0  0  0  0  0  0
   17.6900   -4.9897  -14.0896 C   0  0  1  0  0  0  0  0  0  0  0  0
   17.8627   -5.5892  -15.4647 C   0  0  0  0  0  0  0  0  0  0  0  0
   18.8725   -4.5123  -16.5163 S   0  0  0  0  0  0  0  0  0  0  0  0
   17.2108   -3.5951  -14.2089 C   0  0  0  0  0  0  0  0  0  0  0  0
   15.9787   -3.3763  -14.2758 O   0  0  0  0  0  0  0  0  0  0  0  0
   18.0707   -2.5283  -14.2491 O   0  0  0  0  0  0  0  0  0  0  0  0
  1  2  1  0
  2  3  1  0
  3  4  1  6
  5  7  1  0
  5  3  1  0
  5  6  1  1
  7  8  2  0
 10  9  1  0
 11 10  2  0
 12 10  1  0
 13 12  1  0
 14 13  1  1
 15 14  1  0
 15  7  1  0
 16 17  2  0
 16 14  1  0
 18 16  1  0
 19 22  1  0
 19 18  1  0
 19 20  1  6
 21 20  1  0
 22 24  1  0
 23 22  2  0
M  END
$$$$
