IQC.pdb
     RDKit          3D

 24 23  0  0  1  0  0  0  0  0999 V2000
   16.0214  -14.3099  -16.5716 C   0  0  0  0  0  0  0  0  0  0  0  0
   17.0945  -13.4067  -15.9872 C   0  0  0  0  0  0  0  0  0  0  0  0
   16.5145  -12.0757  -15.6512 C   0  0  2  0  0  0  0  0  0  0  0  0
   15.9020  -11.4755  -16.9138 C   0  0  0  0  0  0  0  0  0  0  0  0
   17.5038  -11.1186  -15.0458 C   0  0  2  0  0  0  0  0  0  0  0  0
   18.1379  -11.7690  -13.9362 N   0  0  0  0  0  0  0  0  0  0  0  0
   16.9379   -9.8066  -14.7289 C   0  0  0  0  0  0  0  0  0  0  0  0
   16.2252   -9.2264  -15.5881 O   0  0  0  0  0  0  0  0  0  0  0  0
   16.2775   -7.0842   -9.0218 N   0  0  0  0  0  0  0  0  0  0  0  0
   15.4418   -8.1161   -9.5384 C   0  0  0  0  0  0  0  0  0  0  0  0
   14.7299   -8.7286   -8.6923 O   0  0  0  0  0  0  0  0  0  0  0  0
   15.4044   -8.4573  -10.9850 C   0  0  0  0  0  0  0  0  0  0  0  0
   16.4191   -7.6190  -11.6891 C   0  0  0  0  0  0  0  0  0  0  0  0
   16.4814   -7.8693  -13.1712 C   0  0  2  0  0  0  0  0  0  0  0  0
   17.1330   -9.1159  -13.4968 N   0  0  0  0  0  0  0  0  0  0  0  0
   17.1127   -6.7594  -13.9078 C   0  0  0  0  0  0  0  0  0  0  0  0
   18.3663   -6.6806  -13.9708 O   0  0  0  0  0  0  0  0  0  0  0  0
   16.3555   -5.7563  -14.5617 N   0  0  0  0  0  0  0  0  0  0  0  0
   16.9982   -4.6983  -15.3106 C   0  0  1  0  0  0  0  0  0  0  0  0
   16.3856   -4.6350  -16.6894 C   0  0  0  0  0  0  0  0  0  0  0  0
   17.0954   -3.2711  -17.6492 S   0  0  0  0  0  0  0  0  0  0  0  0
   16.8519   -3.3887  -14.6380 C   0  0  0  0  0  0  0  0  0  0  0  0
   15.7564   -3.0950  -14.1050 O   0  0  0  0  0  0  0  0  0  0  0  0
   17.8769   -2.4806  -14.5767 O   0  0  0  0  0  0  0  0  0  0  0  0
  1  2  1  0
  2  3  1  0
  3  4  1  6
  5  7  1  0
  5  3  1  0
  5  6  1  1
  7  8  2  0
 10  9  1  0
 11 10  2  0
 12 10  1  0
 13 12  1  0
 14 13  1  1
 15 14  1  0
 15  7  1  0
 16 17  2  0
 16 14  1  0
 18 16  1  0
 19 22  1  0
 19 18  1  0
 19 20  1  6
 21 20  1  0
 22 24  1  0
 23 22  2  0
M  END
$$$$
