IQC.pdb
     RDKit          3D

 24 23  0  0  1  0  0  0  0  0999 V2000
   29.2955  -18.2703  -18.9381 C   0  0  0  0  0  0  0  0  0  0  0  0
   27.7878  -18.4304  -19.0402 C   0  0  0  0  0  0  0  0  0  0  0  0
   27.1657  -18.2785  -17.6946 C   0  0  2  0  0  0  0  0  0  0  0  0
   27.8351  -19.2562  -16.7324 C   0  0  0  0  0  0  0  0  0  0  0  0
   25.6755  -18.4796  -17.6894 C   0  0  2  0  0  0  0  0  0  0  0  0
   25.0861  -17.4986  -18.5534 N   0  0  0  0  0  0  0  0  0  0  0  0
   25.0909  -18.5270  -16.3485 C   0  0  0  0  0  0  0  0  0  0  0  0
   24.9822  -17.4590  -15.6926 O   0  0  0  0  0  0  0  0  0  0  0  0
   20.0154  -20.9043  -14.3085 N   0  0  0  0  0  0  0  0  0  0  0  0
   20.5891  -20.4430  -13.0886 C   0  0  0  0  0  0  0  0  0  0  0  0
   19.8047  -20.3693  -12.1001 O   0  0  0  0  0  0  0  0  0  0  0  0
   22.0238  -20.0689  -12.9780 C   0  0  0  0  0  0  0  0  0  0  0  0
   22.6204  -20.0958  -14.3460 C   0  0  0  0  0  0  0  0  0  0  0  0
   24.0808  -19.7356  -14.3718 C   0  0  2  0  0  0  0  0  0  0  0  0
   24.6235  -19.7130  -15.7096 N   0  0  0  0  0  0  0  0  0  0  0  0
   24.8958  -20.6092  -13.5084 C   0  0  0  0  0  0  0  0  0  0  0  0
   24.8436  -21.8577  -13.6507 O   0  0  0  0  0  0  0  0  0  0  0  0
   25.7533  -20.0956  -12.5044 N   0  0  0  0  0  0  0  0  0  0  0  0
   26.3839  -20.9672  -11.5370 C   0  0  1  0  0  0  0  0  0  0  0  0
   27.7606  -20.4323  -11.2229 C   0  0  0  0  0  0  0  0  0  0  0  0
   28.7775  -20.3477  -12.7210 S   0  0  0  0  0  0  0  0  0  0  0  0
   25.5896  -21.0646  -10.2926 C   0  0  0  0  0  0  0  0  0  0  0  0
   24.5642  -20.3554  -10.1656 O   0  0  0  0  0  0  0  0  0  0  0  0
   25.9369  -21.9070   -9.2685 O   0  0  0  0  0  0  0  0  0  0  0  0
  1  2  1  0
  2  3  1  0
  3  4  1  1
  5  7  1  0
  5  3  1  0
  5  6  1  6
  7  8  2  0
 10  9  1  0
 11 10  2  0
 12 10  1  0
 13 12  1  0
 14 13  1  6
 15 14  1  0
 15  7  1  0
 16 17  2  0
 16 14  1  0
 18 16  1  0
 19 22  1  0
 19 18  1  0
 19 20  1  1
 21 20  1  0
 22 24  1  0
 23 22  2  0
M  END
$$$$
