IQC.pdb
     RDKit          3D

 24 23  0  0  1  0  0  0  0  0999 V2000
   28.0935  -15.7131  -15.5514 C   0  0  0  0  0  0  0  0  0  0  0  0
   26.5818  -15.8665  -15.5580 C   0  0  0  0  0  0  0  0  0  0  0  0
   25.9458  -14.6360  -16.1079 C   0  0  2  0  0  0  0  0  0  0  0  0
   26.2892  -13.4591  -15.1986 C   0  0  0  0  0  0  0  0  0  0  0  0
   24.4558  -14.7471  -16.2767 C   0  0  2  0  0  0  0  0  0  0  0  0
   24.1698  -15.9819  -16.9474 N   0  0  0  0  0  0  0  0  0  0  0  0
   23.8426  -13.5715  -16.8963 C   0  0  0  0  0  0  0  0  0  0  0  0
   24.0734  -13.3315  -18.1095 O   0  0  0  0  0  0  0  0  0  0  0  0
   18.1500  -12.2897  -18.6943 N   0  0  0  0  0  0  0  0  0  0  0  0
   19.0015  -12.9993  -17.7991 C   0  0  0  0  0  0  0  0  0  0  0  0
   18.4235  -13.7492  -16.9616 O   0  0  0  0  0  0  0  0  0  0  0  0
   20.4820  -12.8700  -17.8418 C   0  0  0  0  0  0  0  0  0  0  0  0
   20.8720  -11.6911  -17.0134 C   0  0  0  0  0  0  0  0  0  0  0  0
   22.3602  -11.5246  -16.8684 C   0  0  2  0  0  0  0  0  0  0  0  0
   22.9846  -12.6542  -16.2212 N   0  0  0  0  0  0  0  0  0  0  0  0
   22.7263  -10.2765  -16.1749 C   0  0  0  0  0  0  0  0  0  0  0  0
   22.6028  -10.1928  -14.9260 O   0  0  0  0  0  0  0  0  0  0  0  0
   23.2214   -9.1430  -16.8657 N   0  0  0  0  0  0  0  0  0  0  0  0
   23.6099   -7.9424  -16.1580 C   0  0  1  0  0  0  0  0  0  0  0  0
   24.6007   -7.1774  -17.0026 C   0  0  0  0  0  0  0  0  0  0  0  0
   26.0666   -8.1853  -17.3500 S   0  0  0  0  0  0  0  0  0  0  0  0
   22.4421   -7.0852  -15.8578 C   0  0  0  0  0  0  0  0  0  0  0  0
   21.3736   -7.2666  -16.4870 O   0  0  0  0  0  0  0  0  0  0  0  0
   22.4873   -6.0945  -14.9114 O   0  0  0  0  0  0  0  0  0  0  0  0
  1  2  1  0
  2  3  1  0
  3  4  1  1
  5  7  1  0
  5  3  1  0
  5  6  1  6
  7  8  2  0
 10  9  1  0
 11 10  2  0
 12 10  1  0
 13 12  1  0
 14 13  1  1
 15 14  1  0
 15  7  1  0
 16 17  2  0
 16 14  1  0
 18 16  1  0
 19 22  1  0
 19 18  1  0
 19 20  1  6
 21 20  1  0
 22 24  1  0
 23 22  2  0
M  END
$$$$
