RHP.pdb
     RDKit          3D

 29 30  0  0  1  0  0  0  0  0999 V2000
   29.1197  -28.8641  -16.6616 N   0  0  0  0  0  0  0  0  0  0  0  0
   27.6968  -28.8581  -16.6795 C   0  0  0  0  0  0  0  0  0  0  0  0
   27.0433  -29.9479  -16.7271 N   0  0  0  0  0  0  0  0  0  0  0  0
   26.9907  -27.6128  -16.6440 N   0  0  0  0  0  0  0  0  0  0  0  0
   27.3857  -26.5932  -17.5908 C   0  0  0  0  0  0  0  0  0  0  0  0
   28.3680  -25.6232  -16.9635 C   0  0  0  0  0  0  0  0  0  0  0  0
   27.6626  -24.6533  -16.0358 C   0  0  0  0  0  0  0  0  0  0  0  0
   27.5658  -23.3458  -16.7587 C   0  0  2  0  0  0  0  0  0  0  0  0
   28.8258  -22.8817  -17.2656 N   0  0  0  0  0  0  0  0  0  0  0  0
   26.8662  -22.2884  -15.9691 C   0  0  0  0  0  0  0  0  0  0  0  0
   27.5015  -21.7792  -15.0112 O   0  0  0  0  0  0  0  0  0  0  0  0
   26.0202  -29.9461  -16.7661 N   0  0  0  0  0  0  0  0  0  0  0  0
   25.5670  -21.8498  -16.2405 C   0  0  2  0  0  0  0  0  0  0  0  0
   24.8872  -20.7690  -15.4847 C   0  0  0  0  0  0  0  0  0  0  0  0
   23.7809  -20.1928  -16.2928 C   0  0  0  0  0  0  0  0  0  0  0  0
   22.9230  -19.2234  -15.5703 C   0  0  0  0  0  0  0  0  0  0  0  0
   21.6673  -19.4557  -15.1006 N   0  0  0  0  0  0  0  0  0  0  0  0
   21.1952  -18.3261  -14.5234 C   0  0  0  0  0  0  0  0  0  0  0  0
   22.1654  -17.4264  -14.6500 N   0  0  0  0  0  0  0  0  0  0  0  0
   23.2201  -17.9407  -15.2781 C   0  0  0  0  0  0  0  0  0  0  0  0
   24.3938  -21.3955  -14.2165 O   0  0  0  0  0  0  0  0  0  0  0  0
   23.7436  -22.5141  -14.3217 N   0  0  0  0  0  0  0  0  0  0  0  0
   24.5515  -20.9197  -12.9145 C   0  0  0  0  0  0  0  0  0  0  0  0
   25.3131  -19.6934  -12.6173 C   0  0  0  0  0  0  0  0  0  0  0  0
   25.6578  -19.7906  -11.1505 C   0  0  0  0  0  0  0  0  0  0  0  0
   24.5562  -20.6326  -10.5514 C   0  0  1  0  0  0  0  0  0  0  0  0
   24.0152  -21.4694  -11.7074 C   0  0  0  0  0  0  0  0  0  0  0  0
   22.5311  -21.3376  -11.6106 O   0  0  0  0  0  0  0  0  0  0  0  0
   21.9469  -20.6184  -12.4636 O   0  0  0  0  0  0  0  0  0  0  0  0
  2  1  1  0
  3  2  2  0
  4  2  1  0
  5  4  1  0
  6  5  1  0
  7  6  1  0
  8  7  1  0
  8  9  1  1
 10 12  1  0
 10  8  1  0
 11 10  2  0
 13 14  1  6
 13 12  1  0
 14 15  1  0
 15 19  1  0
 15 16  2  0
 16 17  1  0
 18 17  1  0
 19 18  2  0
 20 21  2  0
 20 13  1  0
 22 20  1  0
 23 22  1  0
 24 23  1  0
 24 25  1  0
 25 26  1  0
 26 22  1  0
 26 27  1  6
 28 27  2  0
 29 27  1  0
M  END
$$$$
