RHP.pdb
     RDKit          3D

 29 30  0  0  1  0  0  0  0  0999 V2000
   27.0713  -22.9359  -16.5225 N   0  0  0  0  0  0  0  0  0  0  0  0
   27.1083  -22.8279  -17.9410 C   0  0  0  0  0  0  0  0  0  0  0  0
   27.2502  -23.8618  -18.6675 N   0  0  0  0  0  0  0  0  0  0  0  0
   26.9851  -21.5422  -18.5594 N   0  0  0  0  0  0  0  0  0  0  0  0
   26.2603  -20.5198  -17.8374 C   0  0  0  0  0  0  0  0  0  0  0  0
   25.0526  -20.0528  -18.6265 C   0  0  0  0  0  0  0  0  0  0  0  0
   23.7957  -20.7749  -18.1816 C   0  0  0  0  0  0  0  0  0  0  0  0
   22.8228  -19.7281  -17.7351 C   0  0  2  0  0  0  0  0  0  0  0  0
   22.9558  -18.4882  -18.4456 N   0  0  0  0  0  0  0  0  0  0  0  0
   22.8230  -19.5188  -16.2562 C   0  0  0  0  0  0  0  0  0  0  0  0
   22.7127  -18.3345  -15.8489 O   0  0  0  0  0  0  0  0  0  0  0  0
   27.3413  -23.7815  -19.6841 N   0  0  0  0  0  0  0  0  0  0  0  0
   22.9378  -20.5559  -15.3261 C   0  0  2  0  0  0  0  0  0  0  0  0
   22.8122  -20.3658  -13.8599 C   0  0  0  0  0  0  0  0  0  0  0  0
   22.0675  -21.5012  -13.2554 C   0  0  0  0  0  0  0  0  0  0  0  0
   20.5971  -21.4458  -13.4350 C   0  0  0  0  0  0  0  0  0  0  0  0
   19.8877  -20.3998  -13.9390 N   0  0  0  0  0  0  0  0  0  0  0  0
   18.5703  -20.7098  -13.9219 C   0  0  0  0  0  0  0  0  0  0  0  0
   18.4968  -21.9340  -13.4094 N   0  0  0  0  0  0  0  0  0  0  0  0
   19.7051  -22.4026  -13.1065 C   0  0  0  0  0  0  0  0  0  0  0  0
   24.2107  -20.2626  -13.3329 O   0  0  0  0  0  0  0  0  0  0  0  0
   25.1427  -19.9523  -14.1814 N   0  0  0  0  0  0  0  0  0  0  0  0
   24.6426  -20.4590  -12.0208 C   0  0  0  0  0  0  0  0  0  0  0  0
   23.7023  -20.7483  -10.9234 C   0  0  0  0  0  0  0  0  0  0  0  0
   24.4574  -20.4121   -9.6599 C   0  0  0  0  0  0  0  0  0  0  0  0
   25.9109  -20.6219  -10.0130 C   0  0  1  0  0  0  0  0  0  0  0  0
   25.9857  -20.4526  -11.5279 C   0  0  0  0  0  0  0  0  0  0  0  0
   26.7907  -21.6173  -12.0017 O   0  0  0  0  0  0  0  0  0  0  0  0
   28.0427  -21.5568  -11.8786 O   0  0  0  0  0  0  0  0  0  0  0  0
  2  1  1  0
  3  2  2  0
  4  2  1  0
  5  4  1  0
  6  5  1  0
  7  6  1  0
  8  7  1  0
  8  9  1  6
 10 12  1  0
 10  8  1  0
 11 10  2  0
 13 14  1  6
 13 12  1  0
 14 15  1  0
 15 19  1  0
 15 16  2  0
 16 17  1  0
 18 17  1  0
 19 18  2  0
 20 21  2  0
 20 13  1  0
 22 20  1  0
 23 22  1  0
 24 23  1  0
 24 25  1  0
 25 26  1  0
 26 22  1  0
 26 27  1  6
 28 27  2  0
 29 27  1  0
M  END
$$$$
