RHP.pdb
     RDKit          3D

 29 30  0  0  1  0  0  0  0  0999 V2000
   21.9063  -20.5183  -11.3041 N   0  0  0  0  0  0  0  0  0  0  0  0
   22.4042  -20.8496  -10.0128 C   0  0  0  0  0  0  0  0  0  0  0  0
   21.6082  -21.0525   -9.0422 N   0  0  0  0  0  0  0  0  0  0  0  0
   23.8166  -20.9558   -9.8013 N   0  0  0  0  0  0  0  0  0  0  0  0
   24.6860  -20.5929  -10.8987 C   0  0  0  0  0  0  0  0  0  0  0  0
   25.5545  -21.7652  -11.3120 C   0  0  0  0  0  0  0  0  0  0  0  0
   26.3668  -21.4352  -12.5490 C   0  0  0  0  0  0  0  0  0  0  0  0
   25.5311  -21.8057  -13.7348 C   0  0  2  0  0  0  0  0  0  0  0  0
   25.8154  -23.1174  -14.2431 N   0  0  0  0  0  0  0  0  0  0  0  0
   25.5589  -20.7771  -14.8174 C   0  0  0  0  0  0  0  0  0  0  0  0
   26.6275  -20.6663  -15.4702 O   0  0  0  0  0  0  0  0  0  0  0  0
   21.9634  -21.2897   -8.1118 N   0  0  0  0  0  0  0  0  0  0  0  0
   24.4756  -19.9508  -15.1301 C   0  0  2  0  0  0  0  0  0  0  0  0
   24.4908  -18.9517  -16.2270 C   0  0  0  0  0  0  0  0  0  0  0  0
   23.3614  -19.1961  -17.1618 C   0  0  0  0  0  0  0  0  0  0  0  0
   23.4811  -20.4322  -17.9712 C   0  0  0  0  0  0  0  0  0  0  0  0
   24.6385  -20.9940  -18.4142 N   0  0  0  0  0  0  0  0  0  0  0  0
   24.3446  -22.0963  -19.1426 C   0  0  0  0  0  0  0  0  0  0  0  0
   23.0186  -22.1889  -19.1333 N   0  0  0  0  0  0  0  0  0  0  0  0
   22.4715  -21.1976  -18.4338 C   0  0  0  0  0  0  0  0  0  0  0  0
   24.3986  -17.6096  -15.5679 O   0  0  0  0  0  0  0  0  0  0  0  0
   23.5250  -17.4745  -14.6174 N   0  0  0  0  0  0  0  0  0  0  0  0
   25.1497  -16.4685  -15.8517 C   0  0  0  0  0  0  0  0  0  0  0  0
   26.2515  -16.4813  -16.8303 C   0  0  0  0  0  0  0  0  0  0  0  0
   27.0857  -15.2672  -16.4991 C   0  0  0  0  0  0  0  0  0  0  0  0
   26.1155  -14.2929  -15.8738 C   0  0  1  0  0  0  0  0  0  0  0  0
   24.9861  -15.1530  -15.3135 C   0  0  0  0  0  0  0  0  0  0  0  0
   23.7336  -14.4823  -15.7722 O   0  0  0  0  0  0  0  0  0  0  0  0
   23.1970  -14.8988  -16.8328 O   0  0  0  0  0  0  0  0  0  0  0  0
  2  1  1  0
  3  2  2  0
  4  2  1  0
  5  4  1  0
  6  5  1  0
  7  6  1  0
  8  7  1  0
  8  9  1  6
 10 12  1  0
 10  8  1  0
 11 10  2  0
 13 14  1  1
 13 12  1  0
 14 15  1  0
 15 19  1  0
 15 16  2  0
 16 17  1  0
 18 17  1  0
 19 18  2  0
 20 21  2  0
 20 13  1  0
 22 20  1  0
 23 22  1  0
 24 23  1  0
 24 25  1  0
 25 26  1  0
 26 22  1  0
 26 27  1  6
 28 27  2  0
 29 27  1  0
M  END
$$$$
