RHP.pdb
     RDKit          3D

 29 30  0  0  1  0  0  0  0  0999 V2000
   27.9577  -25.9378  -16.6943 N   0  0  0  0  0  0  0  0  0  0  0  0
   28.2917  -25.8064  -18.0714 C   0  0  0  0  0  0  0  0  0  0  0  0
   28.0335  -26.7407  -18.8943 N   0  0  0  0  0  0  0  0  0  0  0  0
   28.9259  -24.6102  -18.5379 N   0  0  0  0  0  0  0  0  0  0  0  0
   28.8072  -23.4262  -17.7158 C   0  0  0  0  0  0  0  0  0  0  0  0
   29.5627  -22.2633  -18.3289 C   0  0  0  0  0  0  0  0  0  0  0  0
   29.5152  -21.0442  -17.4286 C   0  0  0  0  0  0  0  0  0  0  0  0
   28.1795  -20.3994  -17.6329 C   0  0  2  0  0  0  0  0  0  0  0  0
   28.1529  -19.4843  -18.7381 N   0  0  0  0  0  0  0  0  0  0  0  0
   27.6307  -19.7786  -16.3900 C   0  0  0  0  0  0  0  0  0  0  0  0
   28.4204  -19.0785  -15.7069 O   0  0  0  0  0  0  0  0  0  0  0  0
   28.3134  -26.6685  -19.8765 N   0  0  0  0  0  0  0  0  0  0  0  0
   26.3096  -19.9376  -15.9618 C   0  0  2  0  0  0  0  0  0  0  0  0
   25.7416  -19.2579  -14.7715 C   0  0  0  0  0  0  0  0  0  0  0  0
   24.7441  -18.2378  -15.1881 C   0  0  0  0  0  0  0  0  0  0  0  0
   25.3248  -16.9823  -15.7210 C   0  0  0  0  0  0  0  0  0  0  0  0
   26.6460  -16.6590  -15.7557 N   0  0  0  0  0  0  0  0  0  0  0  0
   26.7848  -15.4220  -16.2872 C   0  0  0  0  0  0  0  0  0  0  0  0
   25.5518  -15.0115  -16.5665 N   0  0  0  0  0  0  0  0  0  0  0  0
   24.6508  -15.9332  -16.2351 C   0  0  0  0  0  0  0  0  0  0  0  0
   25.1300  -20.3357  -13.9299 O   0  0  0  0  0  0  0  0  0  0  0  0
   24.3937  -21.2159  -14.5367 N   0  0  0  0  0  0  0  0  0  0  0  0
   25.2578  -20.5157  -12.5522 C   0  0  0  0  0  0  0  0  0  0  0  0
   26.1262  -19.6555  -11.7288 C   0  0  0  0  0  0  0  0  0  0  0  0
   26.3686  -20.4398  -10.4616 C   0  0  0  0  0  0  0  0  0  0  0  0
   25.1491  -21.3187  -10.3139 C   0  0  1  0  0  0  0  0  0  0  0  0
   24.5934  -21.4768  -11.7266 C   0  0  0  0  0  0  0  0  0  0  0  0
   23.1287  -21.2214  -11.5900 O   0  0  0  0  0  0  0  0  0  0  0  0
   22.6844  -20.1132  -11.9910 O   0  0  0  0  0  0  0  0  0  0  0  0
  2  1  1  0
  3  2  2  0
  4  2  1  0
  5  4  1  0
  6  5  1  0
  7  6  1  0
  8  7  1  0
  8  9  1  6
 10 12  1  0
 10  8  1  0
 11 10  2  0
 13 14  1  6
 13 12  1  0
 14 15  1  0
 15 19  1  0
 15 16  2  0
 16 17  1  0
 18 17  1  0
 19 18  2  0
 20 21  2  0
 20 13  1  0
 22 20  1  0
 23 22  1  0
 24 23  1  0
 24 25  1  0
 25 26  1  0
 26 22  1  0
 26 27  1  1
 28 27  2  0
 29 27  1  0
M  END
$$$$
