RHP.pdb
     RDKit          3D

 29 30  0  0  1  0  0  0  0  0999 V2000
   19.4005  -21.4058  -18.2931 N   0  0  0  0  0  0  0  0  0  0  0  0
   20.1197  -21.4847  -17.0677 C   0  0  0  0  0  0  0  0  0  0  0  0
   19.5068  -21.6310  -15.9632 N   0  0  0  0  0  0  0  0  0  0  0  0
   21.5491  -21.3982  -17.0757 N   0  0  0  0  0  0  0  0  0  0  0  0
   22.2177  -21.4968  -18.3544 C   0  0  0  0  0  0  0  0  0  0  0  0
   22.9284  -22.8291  -18.4924 C   0  0  0  0  0  0  0  0  0  0  0  0
   23.8587  -23.0770  -17.3211 C   0  0  0  0  0  0  0  0  0  0  0  0
   25.1534  -22.3946  -17.6366 C   0  0  2  0  0  0  0  0  0  0  0  0
   26.0536  -23.2090  -18.4023 N   0  0  0  0  0  0  0  0  0  0  0  0
   25.8217  -21.8170  -16.4321 C   0  0  0  0  0  0  0  0  0  0  0  0
   26.7061  -22.5196  -15.8799 O   0  0  0  0  0  0  0  0  0  0  0  0
   20.0128  -21.6038  -15.0736 N   0  0  0  0  0  0  0  0  0  0  0  0
   25.5152  -20.5600  -15.9030 C   0  0  2  0  0  0  0  0  0  0  0  0
   26.1390  -20.0082  -14.6750 C   0  0  0  0  0  0  0  0  0  0  0  0
   26.1919  -18.5246  -14.7464 C   0  0  0  0  0  0  0  0  0  0  0  0
   27.1499  -17.9840  -15.7401 C   0  0  0  0  0  0  0  0  0  0  0  0
   28.0776  -18.6983  -16.4333 N   0  0  0  0  0  0  0  0  0  0  0  0
   28.7840  -17.8563  -17.2233 C   0  0  0  0  0  0  0  0  0  0  0  0
   28.2791  -16.6472  -17.0003 N   0  0  0  0  0  0  0  0  0  0  0  0
   27.2915  -16.6946  -16.1094 C   0  0  0  0  0  0  0  0  0  0  0  0
   25.3006  -20.4895  -13.5307 O   0  0  0  0  0  0  0  0  0  0  0  0
   24.0548  -20.7566  -13.7795 N   0  0  0  0  0  0  0  0  0  0  0  0
   25.6997  -20.6925  -12.2093 C   0  0  0  0  0  0  0  0  0  0  0  0
   27.0628  -20.3760  -11.7470 C   0  0  0  0  0  0  0  0  0  0  0  0
   27.2364  -21.1601  -10.4685 C   0  0  0  0  0  0  0  0  0  0  0  0
   25.8392  -21.3043   -9.9130 C   0  0  2  0  0  0  0  0  0  0  0  0
   24.9117  -21.1786  -11.1185 C   0  0  0  0  0  0  0  0  0  0  0  0
   23.8527  -20.2194  -10.6855 O   0  0  0  0  0  0  0  0  0  0  0  0
   23.9313  -19.0312  -11.0955 O   0  0  0  0  0  0  0  0  0  0  0  0
  2  1  1  0
  3  2  2  0
  4  2  1  0
  5  4  1  0
  6  5  1  0
  7  6  1  0
  8  7  1  0
  8  9  1  1
 10 12  1  0
 10  8  1  0
 11 10  2  0
 13 14  1  6
 13 12  1  0
 14 15  1  0
 15 19  1  0
 15 16  2  0
 16 17  1  0
 18 17  1  0
 19 18  2  0
 20 21  2  0
 20 13  1  0
 22 20  1  0
 23 22  1  0
 24 23  1  0
 24 25  1  0
 25 26  1  0
 26 22  1  0
 26 27  1  1
 28 27  2  0
 29 27  1  0
M  END
$$$$
