RHP.pdb
     RDKit          3D

 29 30  0  0  1  0  0  0  0  0999 V2000
   28.7321  -20.7741  -18.8964 N   0  0  0  0  0  0  0  0  0  0  0  0
   29.1610  -19.4351  -18.6767 C   0  0  0  0  0  0  0  0  0  0  0  0
   30.0780  -18.9212  -19.3922 N   0  0  0  0  0  0  0  0  0  0  0  0
   28.5555  -18.6560  -17.6389 N   0  0  0  0  0  0  0  0  0  0  0  0
   27.3550  -19.1787  -17.0244 C   0  0  0  0  0  0  0  0  0  0  0  0
   27.6581  -20.4285  -16.2210 C   0  0  0  0  0  0  0  0  0  0  0  0
   27.4576  -20.1875  -14.7376 C   0  0  0  0  0  0  0  0  0  0  0  0
   26.3865  -21.1286  -14.2808 C   0  0  2  0  0  0  0  0  0  0  0  0
   25.8924  -21.9784  -15.3264 N   0  0  0  0  0  0  0  0  0  0  0  0
   25.2746  -20.4450  -13.5545 C   0  0  0  0  0  0  0  0  0  0  0  0
   25.5942  -19.7122  -12.5842 O   0  0  0  0  0  0  0  0  0  0  0  0
   30.3918  -17.9597  -19.2337 N   0  0  0  0  0  0  0  0  0  0  0  0
   23.9261  -20.5802  -13.8967 C   0  0  1  0  0  0  0  0  0  0  0  0
   22.8251  -19.8623  -13.2082 C   0  0  0  0  0  0  0  0  0  0  0  0
   21.9475  -19.1907  -14.2021 C   0  0  0  0  0  0  0  0  0  0  0  0
   20.7904  -18.4684  -13.6217 C   0  0  0  0  0  0  0  0  0  0  0  0
   20.7950  -17.7298  -12.4789 N   0  0  0  0  0  0  0  0  0  0  0  0
   19.5491  -17.2489  -12.2582 C   0  0  0  0  0  0  0  0  0  0  0  0
   18.8073  -17.7002  -13.2647 N   0  0  0  0  0  0  0  0  0  0  0  0
   19.5307  -18.4390  -14.1026 C   0  0  0  0  0  0  0  0  0  0  0  0
   22.0892  -20.8958  -12.4116 O   0  0  0  0  0  0  0  0  0  0  0  0
   21.6966  -21.9610  -13.0412 N   0  0  0  0  0  0  0  0  0  0  0  0
   21.7706  -20.8563  -11.0539 C   0  0  0  0  0  0  0  0  0  0  0  0
   22.1816  -19.7378  -10.1867 C   0  0  0  0  0  0  0  0  0  0  0  0
   22.0917  -20.2778   -8.7795 C   0  0  0  0  0  0  0  0  0  0  0  0
   21.0300  -21.3500   -8.8460 C   0  0  1  0  0  0  0  0  0  0  0  0
   21.0094  -21.8064  -10.3023 C   0  0  0  0  0  0  0  0  0  0  0  0
   19.5636  -21.8270  -10.6742 O   0  0  0  0  0  0  0  0  0  0  0  0
   19.1154  -20.8625  -11.3488 O   0  0  0  0  0  0  0  0  0  0  0  0
  2  1  1  0
  3  2  2  0
  4  2  1  0
  5  4  1  0
  6  5  1  0
  7  6  1  0
  8  7  1  0
  8  9  1  6
 10 12  1  0
 10  8  1  0
 11 10  2  0
 13 14  1  1
 13 12  1  0
 14 15  1  0
 15 19  1  0
 15 16  2  0
 16 17  1  0
 18 17  1  0
 19 18  2  0
 20 21  2  0
 20 13  1  0
 22 20  1  0
 23 22  1  0
 24 23  1  0
 24 25  1  0
 25 26  1  0
 26 22  1  0
 26 27  1  6
 28 27  2  0
 29 27  1  0
M  END
$$$$
