RHP.pdb
     RDKit          3D

 29 30  0  0  1  0  0  0  0  0999 V2000
   29.2148  -26.7299  -17.2771 N   0  0  0  0  0  0  0  0  0  0  0  0
   28.0530  -26.6823  -16.4565 C   0  0  0  0  0  0  0  0  0  0  0  0
   27.7705  -27.6443  -15.6744 N   0  0  0  0  0  0  0  0  0  0  0  0
   27.1909  -25.5402  -16.5106 N   0  0  0  0  0  0  0  0  0  0  0  0
   27.5392  -24.4829  -17.4341 C   0  0  0  0  0  0  0  0  0  0  0  0
   28.2461  -23.3490  -16.7173 C   0  0  0  0  0  0  0  0  0  0  0  0
   27.2545  -22.4460  -16.0100 C   0  0  0  0  0  0  0  0  0  0  0  0
   26.7479  -21.4696  -17.0257 C   0  0  2  0  0  0  0  0  0  0  0  0
   27.7840  -20.6633  -17.6056 N   0  0  0  0  0  0  0  0  0  0  0  0
   25.6155  -20.6348  -16.5240 C   0  0  0  0  0  0  0  0  0  0  0  0
   25.9142  -19.6109  -15.8585 O   0  0  0  0  0  0  0  0  0  0  0  0
   26.9173  -27.6287  -15.1088 N   0  0  0  0  0  0  0  0  0  0  0  0
   24.2697  -20.9336  -16.7554 C   0  0  1  0  0  0  0  0  0  0  0  0
   23.1430  -20.1371  -16.2099 C   0  0  0  0  0  0  0  0  0  0  0  0
   22.4638  -19.3910  -17.3013 C   0  0  0  0  0  0  0  0  0  0  0  0
   23.2298  -18.2408  -17.8379 C   0  0  0  0  0  0  0  0  0  0  0  0
   23.8495  -18.1820  -19.0479 N   0  0  0  0  0  0  0  0  0  0  0  0
   24.4673  -16.9840  -19.1705 C   0  0  0  0  0  0  0  0  0  0  0  0
   24.2167  -16.3340  -18.0385 N   0  0  0  0  0  0  0  0  0  0  0  0
   23.4720  -17.0688  -17.2159 C   0  0  0  0  0  0  0  0  0  0  0  0
   22.2279  -21.1160  -15.5401 O   0  0  0  0  0  0  0  0  0  0  0  0
   21.9981  -22.2330  -16.1604 N   0  0  0  0  0  0  0  0  0  0  0  0
   21.5836  -20.9753  -14.3106 C   0  0  0  0  0  0  0  0  0  0  0  0
   21.7673  -19.7831  -13.4638 C   0  0  0  0  0  0  0  0  0  0  0  0
   21.3325  -20.2112  -12.0828 C   0  0  0  0  0  0  0  0  0  0  0  0
   20.3204  -21.3069  -12.3204 C   0  0  1  0  0  0  0  0  0  0  0  0
   20.6605  -21.8780  -13.6943 C   0  0  0  0  0  0  0  0  0  0  0  0
   19.3515  -21.9577  -14.4079 O   0  0  0  0  0  0  0  0  0  0  0  0
   19.1149  -21.1021  -15.3012 O   0  0  0  0  0  0  0  0  0  0  0  0
  2  1  1  0
  3  2  2  0
  4  2  1  0
  5  4  1  0
  6  5  1  0
  7  6  1  0
  8  7  1  0
  8  9  1  1
 10 12  1  0
 10  8  1  0
 11 10  2  0
 13 14  1  1
 13 12  1  0
 14 15  1  0
 15 19  1  0
 15 16  2  0
 16 17  1  0
 18 17  1  0
 19 18  2  0
 20 21  2  0
 20 13  1  0
 22 20  1  0
 23 22  1  0
 24 23  1  0
 24 25  1  0
 25 26  1  0
 26 22  1  0
 26 27  1  6
 28 27  2  0
 29 27  1  0
M  END
$$$$
