RHP.pdb
     RDKit          3D

 29 30  0  0  1  0  0  0  0  0999 V2000
   27.2222  -22.1238  -10.4786 N   0  0  0  0  0  0  0  0  0  0  0  0
   28.2052  -21.6189  -11.3753 C   0  0  0  0  0  0  0  0  0  0  0  0
   29.2499  -22.2934  -11.6405 N   0  0  0  0  0  0  0  0  0  0  0  0
   28.0184  -20.3374  -11.9865 N   0  0  0  0  0  0  0  0  0  0  0  0
   26.6598  -19.8819  -12.1828 C   0  0  0  0  0  0  0  0  0  0  0  0
   25.9050  -20.8139  -13.1107 C   0  0  0  0  0  0  0  0  0  0  0  0
   24.4763  -20.3473  -13.3114 C   0  0  0  0  0  0  0  0  0  0  0  0
   24.3918  -19.7731  -14.6916 C   0  0  2  0  0  0  0  0  0  0  0  0
   25.6738  -19.4666  -15.2593 N   0  0  0  0  0  0  0  0  0  0  0  0
   23.4544  -18.6143  -14.7892 C   0  0  0  0  0  0  0  0  0  0  0  0
   22.9083  -18.2325  -13.7232 O   0  0  0  0  0  0  0  0  0  0  0  0
   29.9798  -21.9142  -12.2501 N   0  0  0  0  0  0  0  0  0  0  0  0
   23.1634  -17.9508  -15.9846 C   0  0  1  0  0  0  0  0  0  0  0  0
   22.4551  -16.6488  -16.0532 C   0  0  0  0  0  0  0  0  0  0  0  0
   23.1984  -15.6170  -15.2838 C   0  0  0  0  0  0  0  0  0  0  0  0
   22.5979  -14.2622  -15.3201 C   0  0  0  0  0  0  0  0  0  0  0  0
   21.7807  -13.7196  -14.3771 N   0  0  0  0  0  0  0  0  0  0  0  0
   21.4127  -12.4784  -14.7721 C   0  0  0  0  0  0  0  0  0  0  0  0
   22.0078  -12.2844  -15.9447 N   0  0  0  0  0  0  0  0  0  0  0  0
   22.7295  -13.3447  -16.2998 C   0  0  0  0  0  0  0  0  0  0  0  0
   22.3553  -16.3061  -17.5081 O   0  0  0  0  0  0  0  0  0  0  0  0
   23.4400  -16.3992  -18.2149 N   0  0  0  0  0  0  0  0  0  0  0  0
   21.2217  -15.8953  -18.2101 C   0  0  0  0  0  0  0  0  0  0  0  0
   19.9239  -15.6843  -17.5444 C   0  0  0  0  0  0  0  0  0  0  0  0
   18.9004  -15.7346  -18.6533 C   0  0  0  0  0  0  0  0  0  0  0  0
   19.6465  -15.2818  -19.8861 C   0  0  2  0  0  0  0  0  0  0  0  0
   21.1147  -15.5880  -19.6033 C   0  0  0  0  0  0  0  0  0  0  0  0
   21.8439  -14.3433  -19.9880 O   0  0  0  0  0  0  0  0  0  0  0  0
   22.4565  -13.7164  -19.0836 O   0  0  0  0  0  0  0  0  0  0  0  0
  2  1  1  0
  3  2  2  0
  4  2  1  0
  5  4  1  0
  6  5  1  0
  7  6  1  0
  8  7  1  0
  8  9  1  1
 10 12  1  0
 10  8  1  0
 11 10  2  0
 13 14  1  1
 13 12  1  0
 14 15  1  0
 15 19  1  0
 15 16  2  0
 16 17  1  0
 18 17  1  0
 19 18  2  0
 20 21  2  0
 20 13  1  0
 22 20  1  0
 23 22  1  0
 24 23  1  0
 24 25  1  0
 25 26  1  0
 26 22  1  0
 26 27  1  1
 28 27  2  0
 29 27  1  0
M  END
$$$$
