RHP.pdb
     RDKit          3D

 29 30  0  0  1  0  0  0  0  0999 V2000
   30.2748  -33.8793  -16.4921 N   0  0  0  0  0  0  0  0  0  0  0  0
   30.3396  -32.4588  -16.4353 C   0  0  0  0  0  0  0  0  0  0  0  0
   31.3127  -31.8315  -16.9611 N   0  0  0  0  0  0  0  0  0  0  0  0
   29.2992  -31.7255  -15.7790 N   0  0  0  0  0  0  0  0  0  0  0  0
   28.1227  -32.4585  -15.3664 C   0  0  0  0  0  0  0  0  0  0  0  0
   27.1276  -32.5707  -16.5051 C   0  0  0  0  0  0  0  0  0  0  0  0
   25.9108  -33.3752  -16.0912 C   0  0  0  0  0  0  0  0  0  0  0  0
   24.9817  -32.4353  -15.3876 C   0  0  2  0  0  0  0  0  0  0  0  0
   24.9118  -31.1396  -16.0007 N   0  0  0  0  0  0  0  0  0  0  0  0
   25.2453  -32.3375  -13.9206 C   0  0  0  0  0  0  0  0  0  0  0  0
   25.4949  -31.1939  -13.4621 O   0  0  0  0  0  0  0  0  0  0  0  0
   31.3921  -30.8147  -16.8723 N   0  0  0  0  0  0  0  0  0  0  0  0
   25.2276  -33.4346  -13.0546 C   0  0  1  0  0  0  0  0  0  0  0  0
   25.3823  -33.3256  -11.5829 C   0  0  0  0  0  0  0  0  0  0  0  0
   24.4057  -32.3490  -11.0334 C   0  0  0  0  0  0  0  0  0  0  0  0
   24.3495  -32.2923   -9.5532 C   0  0  0  0  0  0  0  0  0  0  0  0
   25.3215  -31.8144   -8.7297 N   0  0  0  0  0  0  0  0  0  0  0  0
   24.9200  -31.9533   -7.4446 C   0  0  0  0  0  0  0  0  0  0  0  0
   23.7153  -32.5119   -7.5039 N   0  0  0  0  0  0  0  0  0  0  0  0
   23.3461  -32.7277   -8.7642 C   0  0  0  0  0  0  0  0  0  0  0  0
   25.1689  -34.7051  -11.0392 O   0  0  0  0  0  0  0  0  0  0  0  0
   24.1397  -35.3629  -11.4785 N   0  0  0  0  0  0  0  0  0  0  0  0
   25.9537  -35.3830  -10.1059 C   0  0  0  0  0  0  0  0  0  0  0  0
   27.1548  -34.7752   -9.5059 C   0  0  0  0  0  0  0  0  0  0  0  0
   27.9562  -35.9365   -8.9684 C   0  0  0  0  0  0  0  0  0  0  0  0
   26.9307  -37.0013   -8.6591 C   0  0  2  0  0  0  0  0  0  0  0  0
   25.7416  -36.6900   -9.5639 C   0  0  0  0  0  0  0  0  0  0  0  0
   24.5505  -36.7678   -8.6671 O   0  0  0  0  0  0  0  0  0  0  0  0
   23.9371  -35.6986   -8.4088 O   0  0  0  0  0  0  0  0  0  0  0  0
  2  1  1  0
  3  2  2  0
  4  2  1  0
  5  4  1  0
  6  5  1  0
  7  6  1  0
  8  7  1  0
  8  9  1  6
 10 12  1  0
 10  8  1  0
 11 10  2  0
 13 14  1  1
 13 12  1  0
 14 15  1  0
 15 19  1  0
 15 16  2  0
 16 17  1  0
 18 17  1  0
 19 18  2  0
 20 21  2  0
 20 13  1  0
 22 20  1  0
 23 22  1  0
 24 23  1  0
 24 25  1  0
 25 26  1  0
 26 22  1  0
 26 27  1  1
 28 27  2  0
 29 27  1  0
M  END
$$$$
