TYM.pdb
     RDKit          3D

 28 28  0  0  1  0  0  0  0  0999 V2000
    9.0897  -13.0804   19.6933 C   0  0  0  0  0  0  0  0  0  0  0  0
    8.1849  -13.7390   18.7013 C   0  0  1  0  0  0  0  0  0  0  0  0
    8.3834  -13.2431   17.4195 O   0  0  0  0  0  0  0  0  0  0  0  0
    8.4088  -15.2363   18.6616 C   0  0  2  0  0  0  0  0  0  0  0  0
    7.5119  -15.8570   17.6935 N   0  0  0  0  0  0  0  0  0  0  0  0
    8.2920  -15.8753   19.9878 C   0  0  0  0  0  0  0  0  0  0  0  0
    7.1283  -16.0225   20.4580 O   0  0  0  0  0  0  0  0  0  0  0  0
   10.1683  -20.3367   27.5129 O   0  0  0  0  0  0  0  0  0  0  0  0
   10.1535  -19.7661   26.2459 C   0  0  0  0  0  0  0  0  0  0  0  0
   11.2649  -19.1192   25.7472 C   0  0  0  0  0  0  0  0  0  0  0  0
   11.2636  -18.5487   24.4911 C   0  0  0  0  0  0  0  0  0  0  0  0
   10.1555  -18.5931   23.6678 C   0  0  0  0  0  0  0  0  0  0  0  0
   10.1393  -17.9846   22.3335 C   0  0  0  0  0  0  0  0  0  0  0  0
    9.1400  -16.8891   22.1308 C   0  0  2  0  0  0  0  0  0  0  0  0
    9.3601  -16.3393   20.7816 N   0  0  0  0  0  0  0  0  0  0  0  0
    9.2613  -15.8503   23.1595 C   0  0  0  0  0  0  0  0  0  0  0  0
   10.2866  -15.1250   23.1727 O   0  0  0  0  0  0  0  0  0  0  0  0
    9.0404  -19.2456   24.1762 C   0  0  0  0  0  0  0  0  0  0  0  0
    9.0406  -19.8167   25.4323 C   0  0  0  0  0  0  0  0  0  0  0  0
    5.8878  -10.3042   27.6256 C   0  0  0  0  0  0  0  0  0  0  0  0
    5.7023  -11.7427   26.5589 S   0  0  0  0  0  0  0  0  0  0  0  0
    7.1686  -12.7475   26.4189 C   0  0  0  0  0  0  0  0  0  0  0  0
    7.1315  -13.8278   25.4005 C   0  0  0  0  0  0  0  0  0  0  0  0
    8.4129  -14.5458   25.1546 C   0  0  2  0  0  0  0  0  0  0  0  0
    8.2846  -15.5996   24.1614 N   0  0  0  0  0  0  0  0  0  0  0  0
    8.9869  -15.0878   26.3889 C   0  0  0  0  0  0  0  0  0  0  0  0
    9.6130  -14.2523   27.3027 O   0  0  0  0  0  0  0  0  0  0  0  0
    8.9487  -16.3247   26.6893 O   0  0  0  0  0  0  0  0  0  0  0  0
  2  4  1  0
  2  1  1  1
  3  2  1  0
  4  6  1  0
  4  5  1  6
  6  7  2  0
  9  8  1  0
  9 10  2  0
 11 10  1  0
 12 11  2  0
 13 12  1  0
 14 13  1  1
 15 14  1  0
 15  6  1  0
 16 14  1  0
 16 17  2  0
 18 19  2  0
 18 12  1  0
 19  9  1  0
 21 20  1  0
 21 22  1  0
 22 23  1  0
 24 23  1  1
 24 25  1  0
 24 26  1  0
 25 16  1  0
 26 28  2  0
 26 27  1  0
M  END
$$$$
