TYM.pdb
     RDKit          3D

 28 28  0  0  1  0  0  0  0  0999 V2000
    6.2654  -20.4145   21.9675 C   0  0  0  0  0  0  0  0  0  0  0  0
    7.4267  -19.5062   22.2184 C   0  0  1  0  0  0  0  0  0  0  0  0
    8.5795  -20.2202   22.5178 O   0  0  0  0  0  0  0  0  0  0  0  0
    7.7165  -18.6376   21.0122 C   0  0  2  0  0  0  0  0  0  0  0  0
    8.1086  -19.4633   19.8758 N   0  0  0  0  0  0  0  0  0  0  0  0
    8.7178  -17.5861   21.2822 C   0  0  0  0  0  0  0  0  0  0  0  0
    9.8752  -17.7536   20.8037 O   0  0  0  0  0  0  0  0  0  0  0  0
    7.3195  -13.0548   16.6755 O   0  0  0  0  0  0  0  0  0  0  0  0
    7.7429  -13.3054   17.9751 C   0  0  0  0  0  0  0  0  0  0  0  0
    6.8380  -13.3785   19.0134 C   0  0  0  0  0  0  0  0  0  0  0  0
    7.2450  -13.6267   20.3080 C   0  0  0  0  0  0  0  0  0  0  0  0
    8.5738  -13.8147   20.6346 C   0  0  0  0  0  0  0  0  0  0  0  0
    9.0198  -14.0724   22.0078 C   0  0  0  0  0  0  0  0  0  0  0  0
    9.5837  -15.4350   22.2631 C   0  0  2  0  0  0  0  0  0  0  0  0
    8.5031  -16.4081   22.0256 N   0  0  0  0  0  0  0  0  0  0  0  0
   10.1206  -15.5512   23.6234 C   0  0  0  0  0  0  0  0  0  0  0  0
   11.0994  -14.8367   23.9533 O   0  0  0  0  0  0  0  0  0  0  0  0
    9.4792  -13.7397   19.5847 C   0  0  0  0  0  0  0  0  0  0  0  0
    9.0733  -13.4915   18.2894 C   0  0  0  0  0  0  0  0  0  0  0  0
    5.9551  -12.4193   27.0886 C   0  0  0  0  0  0  0  0  0  0  0  0
    7.6056  -13.0444   27.4442 S   0  0  0  0  0  0  0  0  0  0  0  0
    8.0366  -14.5284   26.5547 C   0  0  0  0  0  0  0  0  0  0  0  0
    9.4820  -14.8639   26.4953 C   0  0  0  0  0  0  0  0  0  0  0  0
    9.8208  -16.2406   26.0392 C   0  0  2  0  0  0  0  0  0  0  0  0
    9.6039  -16.4296   24.6143 N   0  0  0  0  0  0  0  0  0  0  0  0
    9.0981  -17.2657   26.7965 C   0  0  0  0  0  0  0  0  0  0  0  0
    9.3181  -17.4249   28.1571 O   0  0  0  0  0  0  0  0  0  0  0  0
    8.2486  -18.0525   26.2665 O   0  0  0  0  0  0  0  0  0  0  0  0
  2  4  1  0
  2  1  1  6
  3  2  1  0
  4  6  1  0
  4  5  1  6
  6  7  2  0
  9  8  1  0
  9 10  2  0
 11 10  1  0
 12 11  2  0
 13 12  1  0
 14 13  1  1
 15 14  1  0
 15  6  1  0
 16 14  1  0
 16 17  2  0
 18 19  2  0
 18 12  1  0
 19  9  1  0
 21 20  1  0
 21 22  1  0
 22 23  1  0
 24 23  1  1
 24 25  1  0
 24 26  1  0
 25 16  1  0
 26 28  2  0
 26 27  1  0
M  END
$$$$
