TYM.pdb
     RDKit          3D

 28 28  0  0  1  0  0  0  0  0999 V2000
    6.8835  -20.6931   27.7655 C   0  0  0  0  0  0  0  0  0  0  0  0
    7.3497  -19.6651   26.7845 C   0  0  1  0  0  0  0  0  0  0  0  0
    8.7292  -19.5104   26.8221 O   0  0  0  0  0  0  0  0  0  0  0  0
    6.9610  -20.0387   25.3693 C   0  0  2  0  0  0  0  0  0  0  0  0
    7.3896  -21.4000   25.0690 N   0  0  0  0  0  0  0  0  0  0  0  0
    7.4607  -19.0838   24.3596 C   0  0  0  0  0  0  0  0  0  0  0  0
    8.4761  -19.4283   23.6910 O   0  0  0  0  0  0  0  0  0  0  0  0
    8.3394  -11.8956   19.0849 O   0  0  0  0  0  0  0  0  0  0  0  0
    7.9066  -12.8560   19.9912 C   0  0  0  0  0  0  0  0  0  0  0  0
    7.8096  -12.5679   21.3365 C   0  0  0  0  0  0  0  0  0  0  0  0
    7.3812  -13.5120   22.2467 C   0  0  0  0  0  0  0  0  0  0  0  0
    7.0277  -14.7911   21.8637 C   0  0  0  0  0  0  0  0  0  0  0  0
    6.5774  -15.8056   22.8222 C   0  0  0  0  0  0  0  0  0  0  0  0
    7.5656  -16.8837   23.1399 C   0  0  2  0  0  0  0  0  0  0  0  0
    6.9093  -17.8197   24.0695 N   0  0  0  0  0  0  0  0  0  0  0  0
    8.7988  -16.3341   23.7138 C   0  0  0  0  0  0  0  0  0  0  0  0
    9.5324  -15.6096   22.9966 O   0  0  0  0  0  0  0  0  0  0  0  0
    7.1279  -15.0742   20.5080 C   0  0  0  0  0  0  0  0  0  0  0  0
    7.5561  -14.1307   19.5967 C   0  0  0  0  0  0  0  0  0  0  0  0
    6.8361  -11.5565   25.9330 C   0  0  0  0  0  0  0  0  0  0  0  0
    7.6469  -12.1828   27.4135 S   0  0  0  0  0  0  0  0  0  0  0  0
    8.9354  -13.3741   27.0974 C   0  0  0  0  0  0  0  0  0  0  0  0
    8.5847  -14.4986   26.1930 C   0  0  0  0  0  0  0  0  0  0  0  0
    9.6558  -15.5031   25.9446 C   0  0  2  0  0  0  0  0  0  0  0  0
    9.2321  -16.5657   25.0476 N   0  0  0  0  0  0  0  0  0  0  0  0
   10.1744  -16.0754   27.1897 C   0  0  0  0  0  0  0  0  0  0  0  0
   10.8241  -15.2746   28.1180 O   0  0  0  0  0  0  0  0  0  0  0  0
   10.0650  -17.3088   27.4870 O   0  0  0  0  0  0  0  0  0  0  0  0
  2  4  1  0
  2  1  1  1
  3  2  1  0
  4  6  1  0
  4  5  1  6
  6  7  2  0
  9  8  1  0
  9 10  2  0
 11 10  1  0
 12 11  2  0
 13 12  1  0
 14 13  1  1
 15 14  1  0
 15  6  1  0
 16 14  1  0
 16 17  2  0
 18 19  2  0
 18 12  1  0
 19  9  1  0
 21 20  1  0
 21 22  1  0
 22 23  1  0
 24 23  1  1
 24 25  1  0
 24 26  1  0
 25 16  1  0
 26 28  2  0
 26 27  1  0
M  END
$$$$
