TYM.pdb
     RDKit          3D

 28 28  0  0  1  0  0  0  0  0999 V2000
    9.8863  -16.3694   18.1342 C   0  0  0  0  0  0  0  0  0  0  0  0
    9.9915  -14.9233   17.7677 C   0  0  1  0  0  0  0  0  0  0  0  0
    9.9509  -14.7398   16.3919 O   0  0  0  0  0  0  0  0  0  0  0  0
    8.8644  -14.1173   18.3788 C   0  0  2  0  0  0  0  0  0  0  0  0
    8.8986  -12.7448   17.8869 N   0  0  0  0  0  0  0  0  0  0  0  0
    8.8566  -14.1581   19.8551 C   0  0  0  0  0  0  0  0  0  0  0  0
    9.7400  -13.4839   20.4566 O   0  0  0  0  0  0  0  0  0  0  0  0
    5.7925  -12.8797   27.7861 O   0  0  0  0  0  0  0  0  0  0  0  0
    6.0351  -13.4684   26.5509 C   0  0  0  0  0  0  0  0  0  0  0  0
    6.4126  -12.7067   25.4650 C   0  0  0  0  0  0  0  0  0  0  0  0
    6.6567  -13.2784   24.2334 C   0  0  0  0  0  0  0  0  0  0  0  0
    6.5372  -14.6379   24.0205 C   0  0  0  0  0  0  0  0  0  0  0  0
    6.7872  -15.2568   22.7147 C   0  0  0  0  0  0  0  0  0  0  0  0
    8.1340  -14.9935   22.1176 C   0  0  2  0  0  0  0  0  0  0  0  0
    7.9526  -14.8803   20.6598 N   0  0  0  0  0  0  0  0  0  0  0  0
    9.0920  -16.0511   22.4583 C   0  0  0  0  0  0  0  0  0  0  0  0
   10.0423  -16.2864   21.6716 O   0  0  0  0  0  0  0  0  0  0  0  0
    6.1568  -15.3986   25.1179 C   0  0  0  0  0  0  0  0  0  0  0  0
    5.9125  -14.8278   26.3502 C   0  0  0  0  0  0  0  0  0  0  0  0
   12.0630  -13.2377   28.5067 C   0  0  0  0  0  0  0  0  0  0  0  0
   10.8732  -13.4733   27.1762 S   0  0  0  0  0  0  0  0  0  0  0  0
   10.8609  -15.1164   26.4840 C   0  0  0  0  0  0  0  0  0  0  0  0
    9.9670  -15.3328   25.3180 C   0  0  0  0  0  0  0  0  0  0  0  0
    9.9516  -16.7076   24.7456 C   0  0  2  0  0  0  0  0  0  0  0  0
    9.0221  -16.8437   23.6362 N   0  0  0  0  0  0  0  0  0  0  0  0
    9.6711  -17.7249   25.7621 C   0  0  0  0  0  0  0  0  0  0  0  0
    8.4457  -18.3750   25.7911 O   0  0  0  0  0  0  0  0  0  0  0  0
   10.5111  -18.0640   26.6571 O   0  0  0  0  0  0  0  0  0  0  0  0
  2  4  1  0
  2  1  1  6
  3  2  1  0
  4  6  1  0
  4  5  1  1
  6  7  2  0
  9  8  1  0
  9 10  2  0
 11 10  1  0
 12 11  2  0
 13 12  1  0
 14 13  1  1
 15 14  1  0
 15  6  1  0
 16 14  1  0
 16 17  2  0
 18 19  2  0
 18 12  1  0
 19  9  1  0
 21 20  1  0
 21 22  1  0
 22 23  1  0
 24 23  1  1
 24 25  1  0
 24 26  1  0
 25 16  1  0
 26 28  2  0
 26 27  1  0
M  END
$$$$
