TYM.pdb
     RDKit          3D

 28 28  0  0  1  0  0  0  0  0999 V2000
    8.2595  -15.4596   18.0590 C   0  0  0  0  0  0  0  0  0  0  0  0
    8.2111  -15.7001   19.5343 C   0  0  1  0  0  0  0  0  0  0  0  0
    7.8539  -14.5517   20.2285 O   0  0  0  0  0  0  0  0  0  0  0  0
    7.2132  -16.7846   19.8825 C   0  0  2  0  0  0  0  0  0  0  0  0
    5.9088  -16.4764   19.3074 N   0  0  0  0  0  0  0  0  0  0  0  0
    7.1134  -17.0362   21.3344 C   0  0  0  0  0  0  0  0  0  0  0  0
    6.1529  -16.4933   21.9504 O   0  0  0  0  0  0  0  0  0  0  0  0
    8.6489  -19.9160   29.6643 O   0  0  0  0  0  0  0  0  0  0  0  0
    8.6243  -19.7225   28.2885 C   0  0  0  0  0  0  0  0  0  0  0  0
    9.7544  -19.3171   27.6097 C   0  0  0  0  0  0  0  0  0  0  0  0
    9.7436  -19.1215   26.2441 C   0  0  0  0  0  0  0  0  0  0  0  0
    8.6070  -19.3197   25.4848 C   0  0  0  0  0  0  0  0  0  0  0  0
    8.5808  -19.1087   24.0338 C   0  0  0  0  0  0  0  0  0  0  0  0
    7.9420  -17.8361   23.5733 C   0  0  2  0  0  0  0  0  0  0  0  0
    7.9916  -17.8286   22.1007 N   0  0  0  0  0  0  0  0  0  0  0  0
    8.6123  -16.6599   24.1385 C   0  0  0  0  0  0  0  0  0  0  0  0
    9.1922  -15.8600   23.3630 O   0  0  0  0  0  0  0  0  0  0  0  0
    7.4731  -19.7276   26.1746 C   0  0  0  0  0  0  0  0  0  0  0  0
    7.4827  -19.9236   27.5404 C   0  0  0  0  0  0  0  0  0  0  0  0
    6.2900  -10.2125   27.1343 C   0  0  0  0  0  0  0  0  0  0  0  0
    6.2267  -11.7872   26.2638 S   0  0  0  0  0  0  0  0  0  0  0  0
    7.6520  -12.8270   26.5216 C   0  0  0  0  0  0  0  0  0  0  0  0
    7.6348  -14.1476   25.8427 C   0  0  0  0  0  0  0  0  0  0  0  0
    8.8359  -15.0058   26.0399 C   0  0  2  0  0  0  0  0  0  0  0  0
    8.6540  -16.3533   25.5259 N   0  0  0  0  0  0  0  0  0  0  0  0
    9.2525  -15.0569   27.4437 C   0  0  0  0  0  0  0  0  0  0  0  0
   10.1804  -14.1517   27.9383 O   0  0  0  0  0  0  0  0  0  0  0  0
    8.8019  -15.9125   28.2723 O   0  0  0  0  0  0  0  0  0  0  0  0
  2  4  1  0
  2  1  1  6
  3  2  1  0
  4  6  1  0
  4  5  1  1
  6  7  2  0
  9  8  1  0
  9 10  2  0
 11 10  1  0
 12 11  2  0
 13 12  1  0
 14 13  1  1
 15 14  1  0
 15  6  1  0
 16 14  1  0
 16 17  2  0
 18 19  2  0
 18 12  1  0
 19  9  1  0
 21 20  1  0
 21 22  1  0
 22 23  1  0
 24 23  1  1
 24 25  1  0
 24 26  1  0
 25 16  1  0
 26 28  2  0
 26 27  1  0
M  END
$$$$
