IAQ.pdb
     RDKit          3D

 23 22  0  0  1  0  0  0  0  0999 V2000
   29.2338  -19.5969  -12.7742 C   0  0  0  0  0  0  0  0  0  0  0  0
   28.2373  -20.2824  -11.8437 C   0  0  0  0  0  0  0  0  0  0  0  0
   26.9379  -20.3898  -12.6073 C   0  0  2  0  0  0  0  0  0  0  0  0
   26.6201  -19.0302  -13.1871 C   0  0  0  0  0  0  0  0  0  0  0  0
   25.8138  -20.8936  -11.7242 C   0  0  2  0  0  0  0  0  0  0  0  0
   26.2368  -22.1970  -11.2112 N   0  0  0  0  0  0  0  0  0  0  0  0
   24.5627  -21.0268  -12.4939 C   0  0  0  0  0  0  0  0  0  0  0  0
   24.6038  -21.6904  -13.5659 O   0  0  0  0  0  0  0  0  0  0  0  0
   20.9689  -20.8664  -11.9849 C   0  0  0  0  0  0  0  0  0  0  0  0
   22.1616  -20.6132  -12.9204 C   0  0  2  0  0  0  0  0  0  0  0  0
   23.3283  -20.4518  -12.0927 N   0  0  0  0  0  0  0  0  0  0  0  0
   21.8855  -19.4532  -13.7708 C   0  0  0  0  0  0  0  0  0  0  0  0
   21.7670  -18.3024  -13.3084 O   0  0  0  0  0  0  0  0  0  0  0  0
   22.9733  -16.9292  -20.5340 N   0  0  0  0  0  0  0  0  0  0  0  0
   23.0387  -17.9127  -19.5283 C   0  0  0  0  0  0  0  0  0  0  0  0
   23.7567  -18.9372  -19.6417 O   0  0  0  0  0  0  0  0  0  0  0  0
   22.2203  -17.7116  -18.2957 C   0  0  0  0  0  0  0  0  0  0  0  0
   22.4075  -18.8606  -17.3250 C   0  0  0  0  0  0  0  0  0  0  0  0
   21.5720  -18.5851  -16.1164 C   0  0  2  0  0  0  0  0  0  0  0  0
   21.7473  -19.6426  -15.1703 N   0  0  0  0  0  0  0  0  0  0  0  0
   20.1434  -18.3470  -16.4482 C   0  0  0  0  0  0  0  0  0  0  0  0
   19.7598  -17.0500  -16.7271 O   0  0  0  0  0  0  0  0  0  0  0  0
   19.2891  -19.2519  -16.4854 O   0  0  0  0  0  0  0  0  0  0  0  0
  1  2  1  0
  2  3  1  0
  3  4  1  1
  5  3  1  0
  5  7  1  0
  5  6  1  6
  7 11  1  0
  7  8  2  0
 10  9  1  1
 11 10  1  0
 12 10  1  0
 12 13  2  0
 15 14  1  0
 15 17  1  0
 16 15  2  0
 18 17  1  0
 19 18  1  6
 19 20  1  0
 20 12  1  0
 21 19  1  0
 22 21  1  0
 23 21  2  0
M  END
$$$$
