IAQ.pdb
     RDKit          3D

 23 22  0  0  1  0  0  0  0  0999 V2000
   22.7272  -31.2014  -10.0060 C   0  0  0  0  0  0  0  0  0  0  0  0
   24.1083  -31.7913  -10.2761 C   0  0  0  0  0  0  0  0  0  0  0  0
   24.4515  -32.6502   -9.0813 C   0  0  2  0  0  0  0  0  0  0  0  0
   24.4275  -31.7732   -7.8500 C   0  0  0  0  0  0  0  0  0  0  0  0
   25.7951  -33.3304   -9.2527 C   0  0  2  0  0  0  0  0  0  0  0  0
   25.6900  -34.1696  -10.4467 N   0  0  0  0  0  0  0  0  0  0  0  0
   26.1190  -34.1547   -8.0733 C   0  0  0  0  0  0  0  0  0  0  0  0
   25.3900  -35.1583   -7.8436 O   0  0  0  0  0  0  0  0  0  0  0  0
   28.9574  -35.1163   -6.1341 C   0  0  0  0  0  0  0  0  0  0  0  0
   27.4632  -34.7598   -6.0871 C   0  0  2  0  0  0  0  0  0  0  0  0
   27.1984  -33.8781   -7.1937 N   0  0  0  0  0  0  0  0  0  0  0  0
   27.1350  -34.1754   -4.7849 C   0  0  0  0  0  0  0  0  0  0  0  0
   27.5594  -33.0589   -4.4308 O   0  0  0  0  0  0  0  0  0  0  0  0
   22.2019  -35.9677   -1.3518 N   0  0  0  0  0  0  0  0  0  0  0  0
   22.8247  -35.0361   -0.4990 C   0  0  0  0  0  0  0  0  0  0  0  0
   22.3210  -34.6961    0.6004 O   0  0  0  0  0  0  0  0  0  0  0  0
   24.1251  -34.4457   -0.9349 C   0  0  0  0  0  0  0  0  0  0  0  0
   24.5712  -35.0311   -2.2600 C   0  0  0  0  0  0  0  0  0  0  0  0
   25.8994  -34.4375   -2.6036 C   0  0  2  0  0  0  0  0  0  0  0  0
   26.3052  -34.9031   -3.8930 N   0  0  0  0  0  0  0  0  0  0  0  0
   26.9261  -34.6843   -1.5583 C   0  0  0  0  0  0  0  0  0  0  0  0
   27.0263  -33.7662   -0.5316 O   0  0  0  0  0  0  0  0  0  0  0  0
   27.6892  -35.6680   -1.5669 O   0  0  0  0  0  0  0  0  0  0  0  0
  1  2  1  0
  2  3  1  0
  3  4  1  1
  5  3  1  0
  5  7  1  0
  5  6  1  6
  7 11  1  0
  7  8  2  0
 10  9  1  1
 11 10  1  0
 12 10  1  0
 12 13  2  0
 15 14  1  0
 15 17  1  0
 16 15  2  0
 18 17  1  0
 19 18  1  1
 19 20  1  0
 20 12  1  0
 21 19  1  0
 22 21  1  0
 23 21  2  0
M  END
$$$$
