IAQ.pdb
     RDKit          3D

 23 22  0  0  1  0  0  0  0  0999 V2000
   26.0424  -12.5543  -17.1934 C   0  0  0  0  0  0  0  0  0  0  0  0
   24.6061  -12.7755  -16.7278 C   0  0  0  0  0  0  0  0  0  0  0  0
   24.0220  -11.4068  -16.4663 C   0  0  2  0  0  0  0  0  0  0  0  0
   24.8082  -10.7672  -15.3445 C   0  0  0  0  0  0  0  0  0  0  0  0
   22.5452  -11.4864  -16.1345 C   0  0  2  0  0  0  0  0  0  0  0  0
   21.9111  -12.2300  -17.2235 N   0  0  0  0  0  0  0  0  0  0  0  0
   21.9594  -10.1372  -16.0256 C   0  0  0  0  0  0  0  0  0  0  0  0
   22.2309   -9.3069  -16.9358 O   0  0  0  0  0  0  0  0  0  0  0  0
   19.4199   -8.3705  -13.9460 C   0  0  0  0  0  0  0  0  0  0  0  0
   20.6059   -8.3848  -14.9232 C   0  0  2  0  0  0  0  0  0  0  0  0
   21.1146   -9.7310  -14.9594 N   0  0  0  0  0  0  0  0  0  0  0  0
   21.6026   -7.3963  -14.5056 C   0  0  0  0  0  0  0  0  0  0  0  0
   22.6271   -7.7118  -13.8708 O   0  0  0  0  0  0  0  0  0  0  0  0
   24.0671   -5.6345  -19.0598 N   0  0  0  0  0  0  0  0  0  0  0  0
   24.1276   -5.8611  -17.6713 C   0  0  0  0  0  0  0  0  0  0  0  0
   24.7706   -6.8212  -17.1786 O   0  0  0  0  0  0  0  0  0  0  0  0
   23.3966   -4.9177  -16.7738 C   0  0  0  0  0  0  0  0  0  0  0  0
   23.6091   -5.2783  -15.3169 C   0  0  0  0  0  0  0  0  0  0  0  0
   22.3416   -4.9875  -14.5796 C   0  0  2  0  0  0  0  0  0  0  0  0
   21.3978   -6.0310  -14.8336 N   0  0  0  0  0  0  0  0  0  0  0  0
   21.7972   -3.6388  -14.8833 C   0  0  0  0  0  0  0  0  0  0  0  0
   22.5250   -2.5452  -14.4575 O   0  0  0  0  0  0  0  0  0  0  0  0
   20.7292   -3.4537  -15.4960 O   0  0  0  0  0  0  0  0  0  0  0  0
  1  2  1  0
  2  3  1  0
  3  4  1  1
  5  3  1  0
  5  7  1  0
  5  6  1  6
  7 11  1  0
  7  8  2  0
 10  9  1  1
 11 10  1  0
 12 10  1  0
 12 13  2  0
 15 14  1  0
 15 17  1  0
 16 15  2  0
 18 17  1  0
 19 18  1  6
 19 20  1  0
 20 12  1  0
 21 19  1  0
 22 21  1  0
 23 21  2  0
M  END
$$$$
