IAQ.pdb
     RDKit          3D

 23 22  0  0  1  0  0  0  0  0999 V2000
   18.4658  -11.6609  -16.3655 C   0  0  0  0  0  0  0  0  0  0  0  0
   19.4219  -10.5753  -16.8511 C   0  0  0  0  0  0  0  0  0  0  0  0
   19.2513   -9.4007  -15.9161 C   0  0  2  0  0  0  0  0  0  0  0  0
   17.7976   -8.9862  -15.9432 C   0  0  0  0  0  0  0  0  0  0  0  0
   20.1638   -8.2513  -16.2947 C   0  0  2  0  0  0  0  0  0  0  0  0
   21.5260   -8.7853  -16.3080 N   0  0  0  0  0  0  0  0  0  0  0  0
   20.0536   -7.1515  -15.3180 C   0  0  0  0  0  0  0  0  0  0  0  0
   18.9004   -6.8497  -14.9053 O   0  0  0  0  0  0  0  0  0  0  0  0
   22.3166   -4.9378  -13.3338 C   0  0  0  0  0  0  0  0  0  0  0  0
   20.9582   -5.2942  -13.9578 C   0  0  2  0  0  0  0  0  0  0  0  0
   21.1684   -6.4240  -14.8247 N   0  0  0  0  0  0  0  0  0  0  0  0
   20.4089   -4.1247  -14.6476 C   0  0  0  0  0  0  0  0  0  0  0  0
   20.5922   -3.9224  -15.8631 O   0  0  0  0  0  0  0  0  0  0  0  0
   15.2846   -1.2688  -12.7694 N   0  0  0  0  0  0  0  0  0  0  0  0
   15.3380   -1.3754  -14.1726 C   0  0  0  0  0  0  0  0  0  0  0  0
   14.3159   -1.2477  -14.8915 O   0  0  0  0  0  0  0  0  0  0  0  0
   16.6624   -1.6493  -14.8056 C   0  0  0  0  0  0  0  0  0  0  0  0
   17.7580   -1.7305  -13.7613 C   0  0  0  0  0  0  0  0  0  0  0  0
   19.0467   -2.0118  -14.4647 C   0  0  2  0  0  0  0  0  0  0  0  0
   19.6408   -3.1876  -13.9091 N   0  0  0  0  0  0  0  0  0  0  0  0
   19.9702   -0.8478  -14.4582 C   0  0  0  0  0  0  0  0  0  0  0  0
   21.1542   -0.9755  -13.7590 O   0  0  0  0  0  0  0  0  0  0  0  0
   19.7274    0.2221  -15.0468 O   0  0  0  0  0  0  0  0  0  0  0  0
  1  2  1  0
  2  3  1  0
  3  4  1  6
  5  3  1  0
  5  7  1  0
  5  6  1  1
  7 11  1  0
  7  8  2  0
 10  9  1  6
 11 10  1  0
 12 10  1  0
 12 13  2  0
 15 14  1  0
 15 17  1  0
 16 15  2  0
 18 17  1  0
 19 18  1  1
 19 20  1  0
 20 12  1  0
 21 19  1  0
 22 21  1  0
 23 21  2  0
M  END
$$$$
