IAQ.pdb
     RDKit          3D

 23 22  0  0  1  0  0  0  0  0999 V2000
   25.2987  -14.6146  -17.0188 C   0  0  0  0  0  0  0  0  0  0  0  0
   23.8654  -14.3731  -16.5544 C   0  0  0  0  0  0  0  0  0  0  0  0
   23.6887  -12.8753  -16.4619 C   0  0  2  0  0  0  0  0  0  0  0  0
   24.4776  -12.3820  -15.2703 C   0  0  0  0  0  0  0  0  0  0  0  0
   22.2258  -12.4933  -16.3562 C   0  0  2  0  0  0  0  0  0  0  0  0
   21.5587  -13.0633  -17.5271 N   0  0  0  0  0  0  0  0  0  0  0  0
   22.0673  -11.0270  -16.3389 C   0  0  0  0  0  0  0  0  0  0  0  0
   22.4020  -10.4153  -15.2876 O   0  0  0  0  0  0  0  0  0  0  0  0
   21.1504   -8.2716  -18.6809 C   0  0  0  0  0  0  0  0  0  0  0  0
   21.2847   -8.8749  -17.2738 C   0  0  2  0  0  0  0  0  0  0  0  0
   21.5625  -10.2782  -17.4343 N   0  0  0  0  0  0  0  0  0  0  0  0
   20.0691   -8.6060  -16.5024 C   0  0  0  0  0  0  0  0  0  0  0  0
   19.2302   -9.4925  -16.2523 O   0  0  0  0  0  0  0  0  0  0  0  0
   18.1657   -8.8927  -11.6558 N   0  0  0  0  0  0  0  0  0  0  0  0
   17.1584   -7.9786  -12.0202 C   0  0  0  0  0  0  0  0  0  0  0  0
   16.1492   -7.7750  -11.3007 O   0  0  0  0  0  0  0  0  0  0  0  0
   17.3151   -7.2382  -13.3075 C   0  0  0  0  0  0  0  0  0  0  0  0
   18.5472   -7.7049  -14.0569 C   0  0  0  0  0  0  0  0  0  0  0  0
   18.6663   -6.8888  -15.3036 C   0  0  2  0  0  0  0  0  0  0  0  0
   19.8352   -7.2916  -16.0216 N   0  0  0  0  0  0  0  0  0  0  0  0
   18.6347   -5.4272  -15.0382 C   0  0  0  0  0  0  0  0  0  0  0  0
   17.4396   -4.8805  -14.6140 O   0  0  0  0  0  0  0  0  0  0  0  0
   19.6237   -4.6842  -15.1792 O   0  0  0  0  0  0  0  0  0  0  0  0
  1  2  1  0
  2  3  1  0
  3  4  1  1
  5  3  1  0
  5  7  1  0
  5  6  1  6
  7 11  1  0
  7  8  2  0
 10  9  1  6
 11 10  1  0
 12 10  1  0
 12 13  2  0
 15 14  1  0
 15 17  1  0
 16 15  2  0
 18 17  1  0
 19 18  1  1
 19 20  1  0
 20 12  1  0
 21 19  1  0
 22 21  1  0
 23 21  2  0
M  END
$$$$
