IAQ.pdb
     RDKit          3D

 23 22  0  0  1  0  0  0  0  0999 V2000
   26.7497  -21.3874  -10.1536 C   0  0  0  0  0  0  0  0  0  0  0  0
   25.2402  -21.2170  -10.2975 C   0  0  0  0  0  0  0  0  0  0  0  0
   24.9657  -21.0311  -11.7717 C   0  0  2  0  0  0  0  0  0  0  0  0
   25.8250  -19.8911  -12.2694 C   0  0  0  0  0  0  0  0  0  0  0  0
   23.4955  -20.7749  -12.0358 C   0  0  2  0  0  0  0  0  0  0  0  0
   22.7764  -21.9703  -11.5944 N   0  0  0  0  0  0  0  0  0  0  0  0
   23.2555  -20.5327  -13.4708 C   0  0  0  0  0  0  0  0  0  0  0  0
   23.7685  -21.3398  -14.2936 O   0  0  0  0  0  0  0  0  0  0  0  0
   20.9391  -18.7231  -15.6504 C   0  0  0  0  0  0  0  0  0  0  0  0
   22.3578  -19.2521  -15.3871 C   0  0  2  0  0  0  0  0  0  0  0  0
   22.4846  -19.4486  -13.9667 N   0  0  0  0  0  0  0  0  0  0  0  0
   23.3435  -18.3185  -15.9365 C   0  0  0  0  0  0  0  0  0  0  0  0
   23.4946  -17.1678  -15.4835 O   0  0  0  0  0  0  0  0  0  0  0  0
   28.7945  -19.7047  -17.6380 N   0  0  0  0  0  0  0  0  0  0  0  0
   28.7267  -18.4851  -18.3388 C   0  0  0  0  0  0  0  0  0  0  0  0
   29.7571  -17.8561  -18.6859 O   0  0  0  0  0  0  0  0  0  0  0  0
   27.3765  -17.9401  -18.6698 C   0  0  0  0  0  0  0  0  0  0  0  0
   26.2806  -18.8213  -18.1038 C   0  0  0  0  0  0  0  0  0  0  0  0
   25.1774  -17.9347  -17.6226 C   0  0  2  0  0  0  0  0  0  0  0  0
   24.1562  -18.7354  -17.0223 N   0  0  0  0  0  0  0  0  0  0  0  0
   24.6512  -17.0431  -18.6884 C   0  0  0  0  0  0  0  0  0  0  0  0
   25.1456  -15.7550  -18.7456 O   0  0  0  0  0  0  0  0  0  0  0  0
   23.7966  -17.4008  -19.5201 O   0  0  0  0  0  0  0  0  0  0  0  0
  1  2  1  0
  2  3  1  0
  3  4  1  1
  5  3  1  0
  5  7  1  0
  5  6  1  6
  7 11  1  0
  7  8  2  0
 10  9  1  1
 11 10  1  0
 12 10  1  0
 12 13  2  0
 15 14  1  0
 15 17  1  0
 16 15  2  0
 18 17  1  0
 19 18  1  6
 19 20  1  0
 20 12  1  0
 21 19  1  0
 22 21  1  0
 23 21  2  0
M  END
$$$$
