IAQ.pdb
     RDKit          3D

 23 22  0  0  1  0  0  0  0  0999 V2000
   25.3809  -17.1730  -19.5925 C   0  0  0  0  0  0  0  0  0  0  0  0
   26.6224  -17.3420  -18.7214 C   0  0  0  0  0  0  0  0  0  0  0  0
   26.1311  -17.6258  -17.3210 C   0  0  2  0  0  0  0  0  0  0  0  0
   25.1351  -16.5520  -16.9459 C   0  0  0  0  0  0  0  0  0  0  0  0
   27.2775  -17.6901  -16.3316 C   0  0  2  0  0  0  0  0  0  0  0  0
   28.4947  -17.9044  -17.1149 N   0  0  0  0  0  0  0  0  0  0  0  0
   27.0822  -18.7953  -15.3747 C   0  0  0  0  0  0  0  0  0  0  0  0
   25.9090  -19.2313  -15.2168 O   0  0  0  0  0  0  0  0  0  0  0  0
   29.1663  -20.7437  -12.9431 C   0  0  0  0  0  0  0  0  0  0  0  0
   27.8356  -20.3464  -13.6014 C   0  0  2  0  0  0  0  0  0  0  0  0
   28.1370  -19.3862  -14.6307 N   0  0  0  0  0  0  0  0  0  0  0  0
   26.9124  -19.8394  -12.5838 C   0  0  0  0  0  0  0  0  0  0  0  0
   26.9986  -18.6851  -12.1232 O   0  0  0  0  0  0  0  0  0  0  0  0
   20.3822  -21.0189   -9.8261 N   0  0  0  0  0  0  0  0  0  0  0  0
   21.2033  -20.4287  -10.8062 C   0  0  0  0  0  0  0  0  0  0  0  0
   20.7790  -20.1547  -11.9563 O   0  0  0  0  0  0  0  0  0  0  0  0
   22.6206  -20.1273  -10.4455 C   0  0  0  0  0  0  0  0  0  0  0  0
   23.5714  -20.6204  -11.5182 C   0  0  0  0  0  0  0  0  0  0  0  0
   24.9673  -20.3422  -11.0615 C   0  0  2  0  0  0  0  0  0  0  0  0
   25.8828  -20.6894  -12.1033 N   0  0  0  0  0  0  0  0  0  0  0  0
   25.2921  -21.0045   -9.7717 C   0  0  0  0  0  0  0  0  0  0  0  0
   24.8807  -20.3795   -8.6110 O   0  0  0  0  0  0  0  0  0  0  0  0
   25.9099  -22.0825   -9.6922 O   0  0  0  0  0  0  0  0  0  0  0  0
  1  2  1  0
  2  3  1  0
  3  4  1  1
  5  3  1  0
  5  7  1  0
  5  6  1  6
  7 11  1  0
  7  8  2  0
 10  9  1  1
 11 10  1  0
 12 10  1  0
 12 13  2  0
 15 14  1  0
 15 17  1  0
 16 15  2  0
 18 17  1  0
 19 18  1  6
 19 20  1  0
 20 12  1  0
 21 19  1  0
 22 21  1  0
 23 21  2  0
M  END
$$$$
