IAQ.pdb
     RDKit          3D

 23 22  0  0  1  0  0  0  0  0999 V2000
   27.5636  -15.3291  -19.7732 C   0  0  0  0  0  0  0  0  0  0  0  0
   28.2924  -16.6669  -19.6856 C   0  0  0  0  0  0  0  0  0  0  0  0
   27.4097  -17.5863  -18.8740 C   0  0  2  0  0  0  0  0  0  0  0  0
   27.1759  -16.9436  -17.5257 C   0  0  0  0  0  0  0  0  0  0  0  0
   28.0233  -18.9651  -18.7331 C   0  0  2  0  0  0  0  0  0  0  0  0
   28.1549  -19.5048  -20.0867 N   0  0  0  0  0  0  0  0  0  0  0  0
   27.1636  -19.8396  -17.9136 C   0  0  0  0  0  0  0  0  0  0  0  0
   25.9681  -19.9974  -18.2842 O   0  0  0  0  0  0  0  0  0  0  0  0
   27.4929  -22.0105  -14.8787 C   0  0  0  0  0  0  0  0  0  0  0  0
   26.6835  -21.2914  -15.9694 C   0  0  2  0  0  0  0  0  0  0  0  0
   27.6097  -20.5053  -16.7417 N   0  0  0  0  0  0  0  0  0  0  0  0
   25.6185  -20.4976  -15.3524 C   0  0  0  0  0  0  0  0  0  0  0  0
   25.8474  -19.4315  -14.7497 O   0  0  0  0  0  0  0  0  0  0  0  0
   19.7607  -20.2217  -17.3095 N   0  0  0  0  0  0  0  0  0  0  0  0
   19.6362  -19.6331  -16.0363 C   0  0  0  0  0  0  0  0  0  0  0  0
   18.5530  -19.1440  -15.6297 O   0  0  0  0  0  0  0  0  0  0  0  0
   20.8429  -19.5998  -15.1575 C   0  0  0  0  0  0  0  0  0  0  0  0
   22.0081  -20.3203  -15.8062 C   0  0  0  0  0  0  0  0  0  0  0  0
   23.1568  -20.2955  -14.8499 C   0  0  2  0  0  0  0  0  0  0  0  0
   24.2784  -20.9553  -15.4421 N   0  0  0  0  0  0  0  0  0  0  0  0
   22.8062  -20.8507  -13.5170 C   0  0  0  0  0  0  0  0  0  0  0  0
   23.1456  -22.1649  -13.2628 O   0  0  0  0  0  0  0  0  0  0  0  0
   22.2282  -20.1929  -12.6319 O   0  0  0  0  0  0  0  0  0  0  0  0
  1  2  1  0
  2  3  1  0
  3  4  1  1
  5  3  1  0
  5  7  1  0
  5  6  1  6
  7 11  1  0
  7  8  2  0
 10  9  1  1
 11 10  1  0
 12 10  1  0
 12 13  2  0
 15 14  1  0
 15 17  1  0
 16 15  2  0
 18 17  1  0
 19 18  1  6
 19 20  1  0
 20 12  1  0
 21 19  1  0
 22 21  1  0
 23 21  2  0
M  END
$$$$
