IAQ.pdb
     RDKit          3D

 23 22  0  0  1  0  0  0  0  0999 V2000
   27.6068  -20.2130   -6.6636 C   0  0  0  0  0  0  0  0  0  0  0  0
   27.8796  -21.0973   -7.8769 C   0  0  0  0  0  0  0  0  0  0  0  0
   27.0404  -20.5489   -9.0075 C   0  0  2  0  0  0  0  0  0  0  0  0
   25.5888  -20.6166   -8.5905 C   0  0  0  0  0  0  0  0  0  0  0  0
   27.2834  -21.3055  -10.2982 C   0  0  2  0  0  0  0  0  0  0  0  0
   28.7344  -21.3934  -10.4649 N   0  0  0  0  0  0  0  0  0  0  0  0
   26.6778  -20.5980  -11.4419 C   0  0  0  0  0  0  0  0  0  0  0  0
   27.3623  -19.6983  -12.0016 O   0  0  0  0  0  0  0  0  0  0  0  0
   26.0525  -22.0443  -13.9211 C   0  0  0  0  0  0  0  0  0  0  0  0
   25.1515  -20.9332  -13.3593 C   0  0  2  0  0  0  0  0  0  0  0  0
   25.3773  -20.8762  -11.9387 N   0  0  0  0  0  0  0  0  0  0  0  0
   23.7565  -21.1995  -13.7173 C   0  0  0  0  0  0  0  0  0  0  0  0
   23.3953  -21.3816  -14.8957 O   0  0  0  0  0  0  0  0  0  0  0  0
   19.6926  -17.3942  -12.6758 N   0  0  0  0  0  0  0  0  0  0  0  0
   18.8036  -18.4608  -12.9106 C   0  0  0  0  0  0  0  0  0  0  0  0
   17.5682  -18.2819  -13.0514 O   0  0  0  0  0  0  0  0  0  0  0  0
   19.3687  -19.8406  -12.9911 C   0  0  0  0  0  0  0  0  0  0  0  0
   20.8691  -19.8271  -12.7765 C   0  0  0  0  0  0  0  0  0  0  0  0
   21.3678  -21.2297  -12.9131 C   0  0  2  0  0  0  0  0  0  0  0  0
   22.7798  -21.2525  -12.6894 N   0  0  0  0  0  0  0  0  0  0  0  0
   20.9846  -21.8519  -14.2068 C   0  0  0  0  0  0  0  0  0  0  0  0
   21.5776  -21.3601  -15.3528 O   0  0  0  0  0  0  0  0  0  0  0  0
   20.1642  -22.7835  -14.3020 O   0  0  0  0  0  0  0  0  0  0  0  0
  1  2  1  0
  2  3  1  0
  3  4  1  1
  5  3  1  0
  5  7  1  0
  5  6  1  6
  7 11  1  0
  7  8  2  0
 10  9  1  1
 11 10  1  0
 12 10  1  0
 12 13  2  0
 15 14  1  0
 15 17  1  0
 16 15  2  0
 18 17  1  0
 19 18  1  6
 19 20  1  0
 20 12  1  0
 21 19  1  0
 22 21  1  0
 23 21  2  0
M  END
$$$$
