ICH.pdb
     RDKit          3D

 25 25  0  0  1  0  0  0  0  0999 V2000
    8.4596  -11.9429   20.5867 C   0  0  0  0  0  0  0  0  0  0  0  0
    8.1434  -13.3503   21.0447 C   0  0  0  0  0  0  0  0  0  0  0  0
    8.3403  -14.2590   19.8548 C   0  0  2  0  0  0  0  0  0  0  0  0
    7.2693  -13.9069   18.8352 C   0  0  0  0  0  0  0  0  0  0  0  0
    8.1581  -15.7145   20.2125 C   0  0  2  0  0  0  0  0  0  0  0  0
    6.8593  -15.9216   20.8018 N   0  0  0  0  0  0  0  0  0  0  0  0
    9.2506  -16.0468   21.1941 C   0  0  0  0  0  0  0  0  0  0  0  0
   10.4577  -15.9836   20.8587 O   0  0  0  0  0  0  0  0  0  0  0  0
    8.9512  -16.4404   22.5242 N   0  0  0  0  0  0  0  0  0  0  0  0
    9.9626  -16.7882   23.5032 C   0  0  1  0  0  0  0  0  0  0  0  0
   10.9057  -15.6150   23.7008 C   0  0  0  0  0  0  0  0  0  0  0  0
   12.2659  -16.0510   24.7887 S   0  0  0  0  0  0  0  0  0  0  0  0
    9.3777  -17.2280   24.7803 C   0  0  0  0  0  0  0  0  0  0  0  0
    8.7148  -16.4053   25.4601 O   0  0  0  0  0  0  0  0  0  0  0  0
    9.5201  -18.5443   25.2967 N   0  0  0  0  0  0  0  0  0  0  0  0
    8.9097  -18.9296   26.5836 C   0  0  1  0  0  0  0  0  0  0  0  0
    8.1348  -20.2033   26.3343 C   0  0  0  0  0  0  0  0  0  0  0  0
    7.0402  -20.0411   25.3556 C   0  0  0  0  0  0  0  0  0  0  0  0
    6.5993  -18.8847   24.7514 C   0  0  0  0  0  0  0  0  0  0  0  0
    5.5615  -19.1746   23.9233 N   0  0  0  0  0  0  0  0  0  0  0  0
    5.3617  -20.4953   24.0134 C   0  0  0  0  0  0  0  0  0  0  0  0
    6.2436  -21.0369   24.8726 N   0  0  0  0  0  0  0  0  0  0  0  0
    9.9378  -19.1279   27.6137 C   0  0  0  0  0  0  0  0  0  0  0  0
   11.1456  -19.1215   27.2911 O   0  0  0  0  0  0  0  0  0  0  0  0
    9.5600  -19.3177   28.9233 O   0  0  0  0  0  0  0  0  0  0  0  0
  2  1  1  0
  2  3  1  0
  3  5  1  0
  3  4  1  6
  5  6  1  1
  5  7  1  0
  7  8  2  0
  9  7  1  0
  9 10  1  0
 10 11  1  1
 12 11  1  0
 13 14  2  0
 13 10  1  0
 15 13  1  0
 16 15  1  0
 16 17  1  6
 18 22  1  0
 18 17  1  0
 19 18  2  0
 20 19  1  0
 20 21  1  0
 21 22  2  0
 23 16  1  0
 24 23  2  0
 25 23  1  0
M  END
$$$$
