ICH.pdb
     RDKit          3D

 25 25  0  0  1  0  0  0  0  0999 V2000
    6.3803  -11.5980   27.0502 C   0  0  0  0  0  0  0  0  0  0  0  0
    5.7814  -12.5394   26.0276 C   0  0  0  0  0  0  0  0  0  0  0  0
    6.8030  -13.6206   25.7677 C   0  0  2  0  0  0  0  0  0  0  0  0
    8.0673  -12.9380   25.2717 C   0  0  0  0  0  0  0  0  0  0  0  0
    6.3576  -14.5786   24.6892 C   0  0  2  0  0  0  0  0  0  0  0  0
    5.0693  -15.1337   25.0199 N   0  0  0  0  0  0  0  0  0  0  0  0
    7.4054  -15.6582   24.6258 C   0  0  0  0  0  0  0  0  0  0  0  0
    7.4923  -16.5239   25.5296 O   0  0  0  0  0  0  0  0  0  0  0  0
    8.3241  -15.7309   23.5467 N   0  0  0  0  0  0  0  0  0  0  0  0
    9.3321  -16.7656   23.4216 C   0  0  1  0  0  0  0  0  0  0  0  0
    9.9398  -16.7198   22.0311 C   0  0  0  0  0  0  0  0  0  0  0  0
   11.0882  -18.0768   21.7790 S   0  0  0  0  0  0  0  0  0  0  0  0
   10.3671  -16.6678   24.4635 C   0  0  0  0  0  0  0  0  0  0  0  0
   11.0751  -15.6314   24.5210 O   0  0  0  0  0  0  0  0  0  0  0  0
   10.6165  -17.6885   25.4203 N   0  0  0  0  0  0  0  0  0  0  0  0
   11.8504  -17.6915   26.2293 C   0  0  1  0  0  0  0  0  0  0  0  0
   11.4231  -17.5960   27.6761 C   0  0  0  0  0  0  0  0  0  0  0  0
   11.1366  -16.2141   28.1124 C   0  0  0  0  0  0  0  0  0  0  0  0
   11.1693  -15.0582   27.3643 C   0  0  0  0  0  0  0  0  0  0  0  0
   10.8495  -13.9993   28.1538 N   0  0  0  0  0  0  0  0  0  0  0  0
   10.6213  -14.4934   29.3769 C   0  0  0  0  0  0  0  0  0  0  0  0
   10.7892  -15.8280   29.3733 N   0  0  0  0  0  0  0  0  0  0  0  0
   12.6336  -18.9103   25.9875 C   0  0  0  0  0  0  0  0  0  0  0  0
   12.1896  -19.7876   25.2154 O   0  0  0  0  0  0  0  0  0  0  0  0
   13.8486  -19.0727   26.6130 O   0  0  0  0  0  0  0  0  0  0  0  0
  2  1  1  0
  2  3  1  0
  3  5  1  0
  3  4  1  6
  5  6  1  1
  5  7  1  0
  7  8  2  0
  9  7  1  0
  9 10  1  0
 10 11  1  6
 12 11  1  0
 13 14  2  0
 13 10  1  0
 15 13  1  0
 16 15  1  0
 16 17  1  1
 18 22  1  0
 18 17  1  0
 19 18  2  0
 20 19  1  0
 20 21  1  0
 21 22  2  0
 23 16  1  0
 24 23  2  0
 25 23  1  0
M  END
$$$$
