ICH.pdb
     RDKit          3D

 25 25  0  0  1  0  0  0  0  0999 V2000
    7.7037  -11.8794   19.0114 C   0  0  0  0  0  0  0  0  0  0  0  0
    7.3405  -13.3424   19.1468 C   0  0  0  0  0  0  0  0  0  0  0  0
    7.5957  -13.7319   20.5833 C   0  0  2  0  0  0  0  0  0  0  0  0
    9.0998  -13.6998   20.7998 C   0  0  0  0  0  0  0  0  0  0  0  0
    7.1287  -15.1356   20.8851 C   0  0  2  0  0  0  0  0  0  0  0  0
    5.7555  -15.2995   20.4795 N   0  0  0  0  0  0  0  0  0  0  0  0
    7.2727  -15.3167   22.3730 C   0  0  0  0  0  0  0  0  0  0  0  0
    6.5064  -14.7240   23.1701 O   0  0  0  0  0  0  0  0  0  0  0  0
    8.2752  -16.1596   22.9191 N   0  0  0  0  0  0  0  0  0  0  0  0
    8.4215  -16.4137   24.3390 C   0  0  1  0  0  0  0  0  0  0  0  0
    7.1166  -16.9521   24.8977 C   0  0  0  0  0  0  0  0  0  0  0  0
    7.2639  -17.3248   26.6479 S   0  0  0  0  0  0  0  0  0  0  0  0
    9.5451  -17.3178   24.6331 C   0  0  0  0  0  0  0  0  0  0  0  0
    9.7264  -18.3205   23.8980 O   0  0  0  0  0  0  0  0  0  0  0  0
   10.4485  -17.1217   25.7125 N   0  0  0  0  0  0  0  0  0  0  0  0
   11.6557  -17.9573   25.8590 C   0  0  1  0  0  0  0  0  0  0  0  0
   12.8266  -17.1137   25.4093 C   0  0  0  0  0  0  0  0  0  0  0  0
   12.8551  -16.8809   23.9507 C   0  0  0  0  0  0  0  0  0  0  0  0
   11.9683  -17.3289   22.9970 C   0  0  0  0  0  0  0  0  0  0  0  0
   12.3667  -16.8979   21.7712 N   0  0  0  0  0  0  0  0  0  0  0  0
   13.4873  -16.1912   21.9633 C   0  0  0  0  0  0  0  0  0  0  0  0
   13.7991  -16.1688   23.2716 N   0  0  0  0  0  0  0  0  0  0  0  0
   11.8235  -18.3980   27.2500 C   0  0  0  0  0  0  0  0  0  0  0  0
   12.7297  -19.2101   27.5363 O   0  0  0  0  0  0  0  0  0  0  0  0
   10.9815  -17.9109   28.2235 O   0  0  0  0  0  0  0  0  0  0  0  0
  2  1  1  0
  2  3  1  0
  3  5  1  0
  3  4  1  6
  5  6  1  1
  5  7  1  0
  7  8  2  0
  9  7  1  0
  9 10  1  0
 10 11  1  6
 12 11  1  0
 13 14  2  0
 13 10  1  0
 15 13  1  0
 16 15  1  0
 16 17  1  1
 18 22  1  0
 18 17  1  0
 19 18  2  0
 20 19  1  0
 20 21  1  0
 21 22  2  0
 23 16  1  0
 24 23  2  0
 25 23  1  0
M  END
$$$$
