ICH.pdb
     RDKit          3D

 25 25  0  0  1  0  0  0  0  0999 V2000
    6.9223  -11.5751   27.2340 C   0  0  0  0  0  0  0  0  0  0  0  0
    6.1069  -12.7059   26.6450 C   0  0  0  0  0  0  0  0  0  0  0  0
    7.0632  -13.5938   25.8852 C   0  0  2  0  0  0  0  0  0  0  0  0
    7.6732  -12.7547   24.7743 C   0  0  0  0  0  0  0  0  0  0  0  0
    6.3618  -14.7607   25.2327 C   0  0  2  0  0  0  0  0  0  0  0  0
    5.7524  -15.5971   26.2358 N   0  0  0  0  0  0  0  0  0  0  0  0
    7.4200  -15.5180   24.4750 C   0  0  0  0  0  0  0  0  0  0  0  0
    8.0531  -16.4552   25.0177 O   0  0  0  0  0  0  0  0  0  0  0  0
    7.7337  -15.1975   23.1286 N   0  0  0  0  0  0  0  0  0  0  0  0
    8.6591  -15.9645   22.3177 C   0  0  1  0  0  0  0  0  0  0  0  0
    8.5727  -15.5053   20.8732 C   0  0  0  0  0  0  0  0  0  0  0  0
    6.8813  -15.5630   20.2733 S   0  0  0  0  0  0  0  0  0  0  0  0
   10.0397  -15.8910   22.8228 C   0  0  0  0  0  0  0  0  0  0  0  0
   10.5581  -14.7622   23.0117 O   0  0  0  0  0  0  0  0  0  0  0  0
   10.8310  -17.0352   23.1132 N   0  0  0  0  0  0  0  0  0  0  0  0
   12.1888  -16.9016   23.6750 C   0  0  1  0  0  0  0  0  0  0  0  0
   12.4550  -18.1566   24.4744 C   0  0  0  0  0  0  0  0  0  0  0  0
   11.6546  -18.2431   25.7130 C   0  0  0  0  0  0  0  0  0  0  0  0
   10.3225  -17.9425   25.8918 C   0  0  0  0  0  0  0  0  0  0  0  0
    9.9824  -18.1504   27.1910 N   0  0  0  0  0  0  0  0  0  0  0  0
   11.0910  -18.5748   27.8101 C   0  0  0  0  0  0  0  0  0  0  0  0
   12.1113  -18.6376   26.9359 N   0  0  0  0  0  0  0  0  0  0  0  0
   13.1840  -16.7319   22.6081 C   0  0  0  0  0  0  0  0  0  0  0  0
   12.8344  -16.8433   21.4131 O   0  0  0  0  0  0  0  0  0  0  0  0
   14.4907  -16.4511   22.9360 O   0  0  0  0  0  0  0  0  0  0  0  0
  2  1  1  0
  2  3  1  0
  3  5  1  0
  3  4  1  6
  5  6  1  1
  5  7  1  0
  7  8  2  0
  9  7  1  0
  9 10  1  0
 10 11  1  6
 12 11  1  0
 13 14  2  0
 13 10  1  0
 15 13  1  0
 16 15  1  0
 16 17  1  6
 18 22  1  0
 18 17  1  0
 19 18  2  0
 20 19  1  0
 20 21  1  0
 21 22  2  0
 23 16  1  0
 24 23  2  0
 25 23  1  0
M  END
$$$$
