ICH.pdb
     RDKit          3D

 25 25  0  0  1  0  0  0  0  0999 V2000
    7.3440  -18.5638   19.0753 C   0  0  0  0  0  0  0  0  0  0  0  0
    6.9415  -17.1072   19.1577 C   0  0  0  0  0  0  0  0  0  0  0  0
    7.5950  -16.5353   20.3932 C   0  0  2  0  0  0  0  0  0  0  0  0
    7.1017  -17.3451   21.5812 C   0  0  0  0  0  0  0  0  0  0  0  0
    7.1994  -15.0983   20.6342 C   0  0  2  0  0  0  0  0  0  0  0  0
    7.5783  -14.2839   19.5072 N   0  0  0  0  0  0  0  0  0  0  0  0
    7.9286  -14.6637   21.8780 C   0  0  0  0  0  0  0  0  0  0  0  0
    9.1627  -14.4399   21.8548 O   0  0  0  0  0  0  0  0  0  0  0  0
    7.2464  -14.4942   23.1106 N   0  0  0  0  0  0  0  0  0  0  0  0
    7.9013  -14.0887   24.3391 C   0  0  1  0  0  0  0  0  0  0  0  0
    6.8908  -13.4331   25.2631 C   0  0  0  0  0  0  0  0  0  0  0  0
    7.6364  -12.9991   26.8378 S   0  0  0  0  0  0  0  0  0  0  0  0
    8.5886  -15.2083   25.0029 C   0  0  0  0  0  0  0  0  0  0  0  0
    7.9185  -16.2134   25.3485 O   0  0  0  0  0  0  0  0  0  0  0  0
    9.9825  -15.2203   25.2796 N   0  0  0  0  0  0  0  0  0  0  0  0
   10.6236  -16.3850   25.9196 C   0  0  1  0  0  0  0  0  0  0  0  0
    9.8448  -16.6714   27.1830 C   0  0  0  0  0  0  0  0  0  0  0  0
    9.9072  -15.5750   28.1710 C   0  0  0  0  0  0  0  0  0  0  0  0
   10.1819  -14.2433   27.9527 C   0  0  0  0  0  0  0  0  0  0  0  0
   10.1495  -13.5750   29.1356 N   0  0  0  0  0  0  0  0  0  0  0  0
    9.8582  -14.4822   30.0760 C   0  0  0  0  0  0  0  0  0  0  0  0
    9.7081  -15.6954   29.5147 N   0  0  0  0  0  0  0  0  0  0  0  0
   10.6200  -17.5462   25.0202 C   0  0  0  0  0  0  0  0  0  0  0  0
   11.2602  -17.4994   23.9475 O   0  0  0  0  0  0  0  0  0  0  0  0
    9.9124  -18.6738   25.3690 O   0  0  0  0  0  0  0  0  0  0  0  0
  2  1  1  0
  2  3  1  0
  3  5  1  0
  3  4  1  1
  5  6  1  6
  5  7  1  0
  7  8  2  0
  9  7  1  0
  9 10  1  0
 10 11  1  1
 12 11  1  0
 13 14  2  0
 13 10  1  0
 15 13  1  0
 16 15  1  0
 16 17  1  1
 18 22  1  0
 18 17  1  0
 19 18  2  0
 20 19  1  0
 20 21  1  0
 21 22  2  0
 23 16  1  0
 24 23  2  0
 25 23  1  0
M  END
$$$$
