HRL.pdb
     RDKit          3D

 30 30  0  0  1  0  0  0  0  0999 V2000
   19.6047  -20.2266  -14.4259 N   0  0  0  0  0  0  0  0  0  0  0  0
   20.3528  -19.4055  -15.3398 C   0  0  1  0  0  0  0  0  0  0  0  0
   20.0264  -17.9248  -15.0436 C   0  0  0  0  0  0  0  0  0  0  0  0
   18.6575  -17.6145  -15.5577 C   0  0  0  0  0  0  0  0  0  0  0  0
   18.3266  -17.3464  -16.8655 C   0  0  0  0  0  0  0  0  0  0  0  0
   17.0081  -17.1067  -16.9381 N   0  0  0  0  0  0  0  0  0  0  0  0
   16.4942  -17.2157  -15.7092 C   0  0  0  0  0  0  0  0  0  0  0  0
   17.5202  -17.5288  -14.8677 N   0  0  0  0  0  0  0  0  0  0  0  0
   21.8086  -19.5916  -15.0655 C   0  0  0  0  0  0  0  0  0  0  0  0
   22.3419  -19.3524  -13.9530 O   0  0  0  0  0  0  0  0  0  0  0  0
   27.4589  -25.6655  -17.4531 N   0  0  0  0  0  0  0  0  0  0  0  0
   28.3119  -24.7704  -16.7885 C   0  0  0  0  0  0  0  0  0  0  0  0
   29.5645  -25.0377  -16.6766 N   0  0  0  0  0  0  0  0  0  0  0  0
   27.7657  -23.5688  -16.2447 N   0  0  0  0  0  0  0  0  0  0  0  0
   26.3673  -23.2850  -16.4768 C   0  0  0  0  0  0  0  0  0  0  0  0
   25.9913  -21.9156  -15.9982 C   0  0  0  0  0  0  0  0  0  0  0  0
   24.5097  -21.7056  -16.2817 C   0  0  0  0  0  0  0  0  0  0  0  0
   24.0938  -20.2805  -15.8922 C   0  0  2  0  0  0  0  0  0  0  0  0
   22.6982  -20.0706  -16.0950 N   0  0  0  0  0  0  0  0  0  0  0  0
   24.9455  -19.3995  -16.7453 C   0  0  0  0  0  0  0  0  0  0  0  0
   24.6834  -19.2820  -17.9827 O   0  0  0  0  0  0  0  0  0  0  0  0
   30.1906  -24.3407  -16.2249 C   0  0  0  0  0  0  0  0  0  0  0  0
   25.3910  -15.0709  -17.6117 C   0  0  1  0  0  0  0  0  0  0  0  0
   26.1095  -15.5225  -16.4007 C   0  0  0  0  0  0  0  0  0  0  0  0
   26.6575  -14.3228  -15.5932 C   0  0  0  0  0  0  0  0  0  0  0  0
   27.1535  -16.5608  -16.5175 C   0  0  2  0  0  0  0  0  0  0  0  0
   26.8396  -17.8421  -17.1871 N   0  0  0  0  0  0  0  0  0  0  0  0
   26.0437  -18.6769  -16.2386 C   0  0  0  0  0  0  0  0  0  0  0  0
   27.9403  -18.6606  -17.7048 O   0  0  0  0  0  0  0  0  0  0  0  0
   28.5288  -19.7253  -17.0721 O   0  0  0  0  0  0  0  0  0  0  0  0
  2  1  1  1
  2  3  1  0
  2  9  1  0
  3  4  1  0
  4  8  1  0
  4  5  2  0
  5  6  1  0
  7  6  1  0
  8  7  2  0
  9 10  2  0
 12 11  1  0
 12 14  1  0
 13 12  2  0
 15 14  1  0
 15 16  1  0
 17 16  1  0
 18 17  1  6
 18 20  1  0
 19 18  1  0
 19  9  1  0
 20 21  2  0
 23 22  1  1
 23 25  1  0
 24 23  1  0
 26 25  1  6
 26 28  1  0
 27 26  1  0
 27 20  1  0
 28 30  2  0
 28 29  1  0
M  END
$$$$
