HRL.pdb
     RDKit          3D

 30 30  0  0  1  0  0  0  0  0999 V2000
   28.8538  -27.6531  -18.5623 N   0  0  0  0  0  0  0  0  0  0  0  0
   28.1290  -27.3426  -17.3592 C   0  0  1  0  0  0  0  0  0  0  0  0
   28.3428  -25.8477  -17.0336 C   0  0  0  0  0  0  0  0  0  0  0  0
   29.7793  -25.6244  -16.6859 C   0  0  0  0  0  0  0  0  0  0  0  0
   30.3935  -25.9927  -15.5116 C   0  0  0  0  0  0  0  0  0  0  0  0
   31.6815  -25.6187  -15.5609 N   0  0  0  0  0  0  0  0  0  0  0  0
   31.8998  -25.0222  -16.7367 C   0  0  0  0  0  0  0  0  0  0  0  0
   30.7205  -25.0319  -17.4207 N   0  0  0  0  0  0  0  0  0  0  0  0
   26.6704  -27.5249  -17.6212 C   0  0  0  0  0  0  0  0  0  0  0  0
   26.1399  -27.3515  -18.7472 O   0  0  0  0  0  0  0  0  0  0  0  0
   22.6895  -34.4513  -16.9223 N   0  0  0  0  0  0  0  0  0  0  0  0
   23.2693  -33.6880  -15.8968 C   0  0  0  0  0  0  0  0  0  0  0  0
   23.7014  -34.2638  -14.8315 N   0  0  0  0  0  0  0  0  0  0  0  0
   23.3686  -32.2732  -16.0591 N   0  0  0  0  0  0  0  0  0  0  0  0
   22.6790  -31.6609  -17.1723 C   0  0  0  0  0  0  0  0  0  0  0  0
   22.7957  -30.1671  -17.1445 C   0  0  0  0  0  0  0  0  0  0  0  0
   24.2396  -29.8112  -16.8153 C   0  0  0  0  0  0  0  0  0  0  0  0
   24.4135  -28.2867  -16.7808 C   0  0  2  0  0  0  0  0  0  0  0  0
   25.7745  -27.9220  -16.5626 N   0  0  0  0  0  0  0  0  0  0  0  0
   23.5063  -27.8348  -15.6845 C   0  0  0  0  0  0  0  0  0  0  0  0
   23.7607  -28.1644  -14.4844 O   0  0  0  0  0  0  0  0  0  0  0  0
   24.0931  -33.6791  -14.0656 C   0  0  0  0  0  0  0  0  0  0  0  0
   20.9839  -24.8152  -12.2869 C   0  0  1  0  0  0  0  0  0  0  0  0
   20.8335  -24.3710  -13.6894 C   0  0  0  0  0  0  0  0  0  0  0  0
   19.3439  -24.1939  -14.0652 C   0  0  0  0  0  0  0  0  0  0  0  0
   21.5333  -25.1030  -14.7646 C   0  0  1  0  0  0  0  0  0  0  0  0
   21.5718  -26.5818  -14.7380 N   0  0  0  0  0  0  0  0  0  0  0  0
   22.3628  -27.0452  -15.9168 C   0  0  0  0  0  0  0  0  0  0  0  0
   20.3077  -27.3242  -14.7143 O   0  0  0  0  0  0  0  0  0  0  0  0
   19.8032  -28.1026  -15.7241 O   0  0  0  0  0  0  0  0  0  0  0  0
  2  1  1  6
  2  3  1  0
  2  9  1  0
  3  4  1  0
  4  8  1  0
  4  5  2  0
  5  6  1  0
  7  6  1  0
  8  7  2  0
  9 10  2  0
 12 11  1  0
 12 14  1  0
 13 12  2  0
 15 14  1  0
 15 16  1  0
 17 16  1  0
 18 17  1  1
 18 20  1  0
 19 18  1  0
 19  9  1  0
 20 21  2  0
 23 22  1  1
 23 25  1  0
 24 23  1  0
 26 25  1  1
 26 28  1  0
 27 26  1  0
 27 20  1  0
 28 30  2  0
 28 29  1  0
M  END
$$$$
