HRL.pdb
     RDKit          3D

 30 30  0  0  1  0  0  0  0  0999 V2000
   20.0173  -31.7031  -11.8932 N   0  0  0  0  0  0  0  0  0  0  0  0
   21.2382  -30.9427  -11.8775 C   0  0  1  0  0  0  0  0  0  0  0  0
   21.3319  -30.1992  -10.5267 C   0  0  0  0  0  0  0  0  0  0  0  0
   20.4003  -29.0303  -10.5472 C   0  0  0  0  0  0  0  0  0  0  0  0
   20.6806  -27.7819  -11.0519 C   0  0  0  0  0  0  0  0  0  0  0  0
   19.6054  -26.9962  -10.8852 N   0  0  0  0  0  0  0  0  0  0  0  0
   18.6502  -27.7146  -10.2873 C   0  0  0  0  0  0  0  0  0  0  0  0
   19.1520  -28.9659  -10.0843 N   0  0  0  0  0  0  0  0  0  0  0  0
   22.3906  -31.8906  -11.9314 C   0  0  0  0  0  0  0  0  0  0  0  0
   22.4960  -32.8988  -11.1885 O   0  0  0  0  0  0  0  0  0  0  0  0
   29.8799  -31.5015  -16.7126 N   0  0  0  0  0  0  0  0  0  0  0  0
   30.0336  -32.7154  -16.0246 C   0  0  0  0  0  0  0  0  0  0  0  0
   31.1108  -33.4031  -16.1655 N   0  0  0  0  0  0  0  0  0  0  0  0
   28.9799  -33.1665  -15.1737 N   0  0  0  0  0  0  0  0  0  0  0  0
   27.8528  -32.2884  -14.9539 C   0  0  0  0  0  0  0  0  0  0  0  0
   26.8642  -32.8821  -13.9969 C   0  0  0  0  0  0  0  0  0  0  0  0
   25.6806  -31.9297  -13.8877 C   0  0  0  0  0  0  0  0  0  0  0  0
   24.6683  -32.4599  -12.8632 C   0  0  2  0  0  0  0  0  0  0  0  0
   23.4691  -31.6886  -12.8678 N   0  0  0  0  0  0  0  0  0  0  0  0
   25.3942  -32.4006  -11.5599 C   0  0  0  0  0  0  0  0  0  0  0  0
   25.4283  -31.3094  -10.9105 O   0  0  0  0  0  0  0  0  0  0  0  0
   31.2157  -34.2907  -15.6336 C   0  0  0  0  0  0  0  0  0  0  0  0
   26.5338  -34.2898   -6.6167 C   0  0  1  0  0  0  0  0  0  0  0  0
   25.7791  -33.1751   -7.2288 C   0  0  0  0  0  0  0  0  0  0  0  0
   24.4665  -32.8973   -6.4597 C   0  0  0  0  0  0  0  0  0  0  0  0
   25.5105  -33.1876   -8.6811 C   0  0  1  0  0  0  0  0  0  0  0  0
   26.6287  -33.3809   -9.6304 N   0  0  0  0  0  0  0  0  0  0  0  0
   26.0534  -33.5137  -11.0020 C   0  0  0  0  0  0  0  0  0  0  0  0
   27.5588  -34.4935   -9.4142 O   0  0  0  0  0  0  0  0  0  0  0  0
   28.7217  -34.4515   -8.6890 O   0  0  0  0  0  0  0  0  0  0  0  0
  2  1  1  1
  2  3  1  0
  2  9  1  0
  3  4  1  0
  4  8  1  0
  4  5  2  0
  5  6  1  0
  7  6  1  0
  8  7  2  0
  9 10  2  0
 12 11  1  0
 12 14  1  0
 13 12  2  0
 15 14  1  0
 15 16  1  0
 17 16  1  0
 18 17  1  6
 18 20  1  0
 19 18  1  0
 19  9  1  0
 20 21  2  0
 23 22  1  1
 23 25  1  0
 24 23  1  0
 26 25  1  6
 26 28  1  0
 27 26  1  0
 27 20  1  0
 28 30  2  0
 28 29  1  0
M  END
$$$$
