HRL.pdb
     RDKit          3D

 30 30  0  0  1  0  0  0  0  0999 V2000
   27.1149  -17.6832  -20.6109 N   0  0  0  0  0  0  0  0  0  0  0  0
   26.7831  -17.3137  -19.2609 C   0  0  1  0  0  0  0  0  0  0  0  0
   25.6577  -16.2565  -19.3076 C   0  0  0  0  0  0  0  0  0  0  0  0
   26.2128  -14.9759  -19.8429 C   0  0  0  0  0  0  0  0  0  0  0  0
   25.8483  -14.3667  -21.0210 C   0  0  0  0  0  0  0  0  0  0  0  0
   26.5679  -13.2434  -21.1681 N   0  0  0  0  0  0  0  0  0  0  0  0
   27.3799  -13.1249  -20.1133 C   0  0  0  0  0  0  0  0  0  0  0  0
   27.1517  -14.1982  -19.3041 N   0  0  0  0  0  0  0  0  0  0  0  0
   26.2254  -18.5100  -18.5628 C   0  0  0  0  0  0  0  0  0  0  0  0
   25.2047  -19.1297  -18.9547 O   0  0  0  0  0  0  0  0  0  0  0  0
   30.5804  -24.0390  -15.0570 N   0  0  0  0  0  0  0  0  0  0  0  0
   30.2392  -24.1096  -16.4168 C   0  0  0  0  0  0  0  0  0  0  0  0
   30.0556  -25.2529  -16.9758 N   0  0  0  0  0  0  0  0  0  0  0  0
   30.1013  -22.8982  -17.1593 N   0  0  0  0  0  0  0  0  0  0  0  0
   29.4767  -21.7657  -16.5135 C   0  0  0  0  0  0  0  0  0  0  0  0
   28.0158  -21.9986  -16.2743 C   0  0  0  0  0  0  0  0  0  0  0  0
   27.4210  -20.7204  -15.6980 C   0  0  0  0  0  0  0  0  0  0  0  0
   26.3589  -20.1552  -16.6509 C   0  0  2  0  0  0  0  0  0  0  0  0
   26.8514  -19.0272  -17.3706 N   0  0  0  0  0  0  0  0  0  0  0  0
   25.2048  -19.8220  -15.7642 C   0  0  0  0  0  0  0  0  0  0  0  0
   25.1479  -18.6793  -15.2122 O   0  0  0  0  0  0  0  0  0  0  0  0
   29.8804  -25.2910  -18.0004 C   0  0  0  0  0  0  0  0  0  0  0  0
   20.0944  -18.3597  -16.5376 C   0  0  1  0  0  0  0  0  0  0  0  0
   21.1208  -18.4394  -15.4760 C   0  0  0  0  0  0  0  0  0  0  0  0
   21.3565  -17.0595  -14.8187 C   0  0  0  0  0  0  0  0  0  0  0  0
   22.4199  -19.0801  -15.7650 C   0  0  2  0  0  0  0  0  0  0  0  0
   22.8930  -20.1925  -14.9119 N   0  0  0  0  0  0  0  0  0  0  0  0
   24.1554  -20.7257  -15.5051 C   0  0  0  0  0  0  0  0  0  0  0  0
   21.9943  -21.3223  -14.6562 O   0  0  0  0  0  0  0  0  0  0  0  0
   21.0629  -21.4093  -13.6536 O   0  0  0  0  0  0  0  0  0  0  0  0
  2  1  1  6
  2  3  1  0
  2  9  1  0
  3  4  1  0
  4  8  1  0
  4  5  2  0
  5  6  1  0
  7  6  1  0
  8  7  2  0
  9 10  2  0
 12 11  1  0
 12 14  1  0
 13 12  2  0
 15 14  1  0
 15 16  1  0
 17 16  1  0
 18 17  1  1
 18 20  1  0
 19 18  1  0
 19  9  1  0
 20 21  2  0
 23 22  1  1
 23 25  1  0
 24 23  1  0
 26 25  1  1
 26 28  1  0
 27 26  1  0
 27 20  1  0
 28 30  2  0
 28 29  1  0
M  END
$$$$
