HRL.pdb
     RDKit          3D

 30 30  0  0  1  0  0  0  0  0999 V2000
   23.0988  -19.6072  -15.9480 N   0  0  0  0  0  0  0  0  0  0  0  0
   23.3644  -19.0842  -14.6346 C   0  0  1  0  0  0  0  0  0  0  0  0
   22.0196  -18.9310  -13.8900 C   0  0  0  0  0  0  0  0  0  0  0  0
   21.1590  -17.9594  -14.6315 C   0  0  0  0  0  0  0  0  0  0  0  0
   21.3053  -16.5917  -14.6388 C   0  0  0  0  0  0  0  0  0  0  0  0
   20.3436  -16.0576  -15.4076 N   0  0  0  0  0  0  0  0  0  0  0  0
   19.5908  -17.0519  -15.8880 C   0  0  0  0  0  0  0  0  0  0  0  0
   20.1032  -18.2184  -15.4028 N   0  0  0  0  0  0  0  0  0  0  0  0
   24.1682  -20.0879  -13.8756 C   0  0  0  0  0  0  0  0  0  0  0  0
   23.6707  -21.0994  -13.3199 O   0  0  0  0  0  0  0  0  0  0  0  0
   29.8719  -23.1029  -16.2954 N   0  0  0  0  0  0  0  0  0  0  0  0
   28.9012  -22.5493  -17.1449 C   0  0  0  0  0  0  0  0  0  0  0  0
   29.2052  -22.2428  -18.3561 N   0  0  0  0  0  0  0  0  0  0  0  0
   27.5825  -22.3355  -16.6419 N   0  0  0  0  0  0  0  0  0  0  0  0
   27.4198  -22.0937  -15.2260 C   0  0  0  0  0  0  0  0  0  0  0  0
   28.0903  -20.8235  -14.7985 C   0  0  0  0  0  0  0  0  0  0  0  0
   27.8914  -20.6656  -13.2967 C   0  0  0  0  0  0  0  0  0  0  0  0
   26.4042  -20.8027  -12.9432 C   0  0  2  0  0  0  0  0  0  0  0  0
   25.5968  -19.9403  -13.7414 N   0  0  0  0  0  0  0  0  0  0  0  0
   26.3381  -20.4799  -11.4870 C   0  0  0  0  0  0  0  0  0  0  0  0
   27.0983  -19.5815  -11.0088 O   0  0  0  0  0  0  0  0  0  0  0  0
   28.4560  -21.9068  -18.9945 C   0  0  0  0  0  0  0  0  0  0  0  0
   27.5920  -18.6712   -6.9862 C   0  0  1  0  0  0  0  0  0  0  0  0
   27.3490  -20.0393   -7.4923 C   0  0  0  0  0  0  0  0  0  0  0  0
   28.5621  -20.9603   -7.2245 C   0  0  0  0  0  0  0  0  0  0  0  0
   26.8772  -20.2303   -8.8789 C   0  0  2  0  0  0  0  0  0  0  0  0
   25.8709  -21.2745   -9.1721 N   0  0  0  0  0  0  0  0  0  0  0  0
   25.4581  -21.1311  -10.6000 C   0  0  0  0  0  0  0  0  0  0  0  0
   24.6590  -21.3428   -8.3498 O   0  0  0  0  0  0  0  0  0  0  0  0
   23.3839  -21.0425   -8.7548 O   0  0  0  0  0  0  0  0  0  0  0  0
  2  1  1  6
  2  3  1  0
  2  9  1  0
  3  4  1  0
  4  8  1  0
  4  5  2  0
  5  6  1  0
  7  6  1  0
  8  7  2  0
  9 10  2  0
 12 11  1  0
 12 14  1  0
 13 12  2  0
 15 14  1  0
 15 16  1  0
 17 16  1  0
 18 17  1  6
 18 20  1  0
 19 18  1  0
 19  9  1  0
 20 21  2  0
 23 22  1  1
 23 25  1  0
 24 23  1  0
 26 25  1  6
 26 28  1  0
 27 26  1  0
 27 20  1  0
 28 30  2  0
 28 29  1  0
M  END
$$$$
