HRL.pdb
     RDKit          3D

 30 30  0  0  1  0  0  0  0  0999 V2000
   22.0295  -18.9618  -15.7584 N   0  0  0  0  0  0  0  0  0  0  0  0
   21.8680  -18.5591  -14.3869 C   0  0  1  0  0  0  0  0  0  0  0  0
   20.3615  -18.5840  -14.0460 C   0  0  0  0  0  0  0  0  0  0  0  0
   19.6512  -17.5830  -14.8991 C   0  0  0  0  0  0  0  0  0  0  0  0
   19.8623  -16.2238  -14.8966 C   0  0  0  0  0  0  0  0  0  0  0  0
   19.0345  -15.6555  -15.7870 N   0  0  0  0  0  0  0  0  0  0  0  0
   18.3034  -16.6197  -16.3542 C   0  0  0  0  0  0  0  0  0  0  0  0
   18.6926  -17.8025  -15.7989 N   0  0  0  0  0  0  0  0  0  0  0  0
   22.5274  -19.5733  -13.5117 C   0  0  0  0  0  0  0  0  0  0  0  0
   21.9998  -20.0410  -12.4713 O   0  0  0  0  0  0  0  0  0  0  0  0
   29.2817  -22.7252  -16.6785 N   0  0  0  0  0  0  0  0  0  0  0  0
   28.0891  -23.4560  -16.5597 C   0  0  0  0  0  0  0  0  0  0  0  0
   28.0387  -24.6757  -16.9634 N   0  0  0  0  0  0  0  0  0  0  0  0
   26.9445  -22.8237  -15.9870 N   0  0  0  0  0  0  0  0  0  0  0  0
   26.9950  -21.3984  -15.7511 C   0  0  0  0  0  0  0  0  0  0  0  0
   26.6663  -21.0585  -14.3292 C   0  0  0  0  0  0  0  0  0  0  0  0
   25.4717  -21.9026  -13.9047 C   0  0  0  0  0  0  0  0  0  0  0  0
   24.5112  -21.0664  -13.0482 C   0  0  2  0  0  0  0  0  0  0  0  0
   23.8399  -20.0804  -13.8292 N   0  0  0  0  0  0  0  0  0  0  0  0
   25.3793  -20.4767  -11.9862 C   0  0  0  0  0  0  0  0  0  0  0  0
   25.6348  -19.2324  -12.0047 O   0  0  0  0  0  0  0  0  0  0  0  0
   27.1738  -25.2279  -16.7932 C   0  0  0  0  0  0  0  0  0  0  0  0
   28.4239  -19.8065   -7.5535 C   0  0  1  0  0  0  0  0  0  0  0  0
   26.9914  -19.4900   -7.7397 C   0  0  0  0  0  0  0  0  0  0  0  0
   26.2128  -19.6098   -6.4089 C   0  0  0  0  0  0  0  0  0  0  0  0
   26.2330  -20.1529   -8.8201 C   0  0  1  0  0  0  0  0  0  0  0  0
   26.9369  -20.5923  -10.0449 N   0  0  0  0  0  0  0  0  0  0  0  0
   25.9380  -21.2429  -10.9442 C   0  0  0  0  0  0  0  0  0  0  0  0
   28.0905  -21.4882   -9.9177 O   0  0  0  0  0  0  0  0  0  0  0  0
   28.0484  -22.8471   -9.7390 O   0  0  0  0  0  0  0  0  0  0  0  0
  2  1  1  6
  2  3  1  0
  2  9  1  0
  3  4  1  0
  4  8  1  0
  4  5  2  0
  5  6  1  0
  7  6  1  0
  8  7  2  0
  9 10  2  0
 12 11  1  0
 12 14  1  0
 13 12  2  0
 15 14  1  0
 15 16  1  0
 17 16  1  0
 18 17  1  6
 18 20  1  0
 19 18  1  0
 19  9  1  0
 20 21  2  0
 23 22  1  1
 23 25  1  0
 24 23  1  0
 26 25  1  6
 26 28  1  0
 27 26  1  0
 27 20  1  0
 28 30  2  0
 28 29  1  0
M  END
$$$$
