HLY.pdb
     RDKit          3D

 31 32  0  0  1  0  0  0  0  0999 V2000
    7.8683  -17.4870   20.2355 N   0  0  0  0  0  0  0  0  0  0  0  0
    9.0853  -16.7384   19.9948 C   0  0  1  0  0  0  0  0  0  0  0  0
    8.8509  -15.8358   18.8074 C   0  0  0  0  0  0  0  0  0  0  0  0
    8.7132  -16.7155   17.6132 C   0  0  0  0  0  0  0  0  0  0  0  0
    9.7238  -17.4222   16.9953 C   0  0  0  0  0  0  0  0  0  0  0  0
    9.1878  -18.1022   15.9412 N   0  0  0  0  0  0  0  0  0  0  0  0
    7.8743  -17.8256   15.9035 C   0  0  0  0  0  0  0  0  0  0  0  0
    7.6020  -16.9961   16.9071 N   0  0  0  0  0  0  0  0  0  0  0  0
    9.4630  -16.0028   21.2137 C   0  0  0  0  0  0  0  0  0  0  0  0
   10.5289  -15.3697   21.2445 O   0  0  0  0  0  0  0  0  0  0  0  0
    5.9661  -13.5423   24.9349 C   0  0  0  0  0  0  0  0  0  0  0  0
    7.1584  -13.8423   24.0553 C   0  0  1  0  0  0  0  0  0  0  0  0
    8.0226  -12.6680   23.7755 C   0  0  0  0  0  0  0  0  0  0  0  0
    7.9720  -15.0121   24.5288 C   0  0  0  0  0  0  0  0  0  0  0  0
    9.0575  -15.4374   23.6246 C   0  0  2  0  0  0  0  0  0  0  0  0
    8.6277  -15.9965   22.3767 N   0  0  0  0  0  0  0  0  0  0  0  0
   10.0293  -16.3725   24.2515 C   0  0  0  0  0  0  0  0  0  0  0  0
    9.7943  -17.5965   24.1737 O   0  0  0  0  0  0  0  0  0  0  0  0
   11.6441  -16.0994   32.6454 O   0  0  0  0  0  0  0  0  0  0  0  0
   11.6774  -15.8983   31.2789 C   0  0  0  0  0  0  0  0  0  0  0  0
   10.8785  -14.9214   30.7322 C   0  0  0  0  0  0  0  0  0  0  0  0
   10.8754  -14.6826   29.3800 C   0  0  0  0  0  0  0  0  0  0  0  0
   11.6918  -15.4396   28.5525 C   0  0  0  0  0  0  0  0  0  0  0  0
   11.6722  -15.1643   27.0980 C   0  0  0  0  0  0  0  0  0  0  0  0
   11.5717  -16.4011   26.2694 C   0  0  2  0  0  0  0  0  0  0  0  0
   11.1894  -15.9727   24.9226 N   0  0  0  0  0  0  0  0  0  0  0  0
   10.7070  -17.4520   26.7884 C   0  0  0  0  0  0  0  0  0  0  0  0
   11.2413  -18.6753   27.1573 O   0  0  0  0  0  0  0  0  0  0  0  0
   12.4871  -16.4154   29.1162 C   0  0  0  0  0  0  0  0  0  0  0  0
   12.5030  -16.6684   30.4680 C   0  0  0  0  0  0  0  0  0  0  0  0
    9.4580  -17.3140   26.9273 O   0  0  0  0  0  0  0  0  0  0  0  0
  2  3  1  0
  2  1  1  1
  3  4  1  0
  4  5  2  0
  5  6  1  0
  7  6  1  0
  8  4  1  0
  8  7  2  0
  9 16  1  0
  9  2  1  0
 10  9  2  0
 12 11  1  1
 12 13  1  0
 12 14  1  0
 15 14  1  1
 15 16  1  0
 17 18  2  0
 17 15  1  0
 19 20  1  0
 20 21  2  0
 21 22  1  0
 23 24  1  0
 23 22  2  0
 25 26  1  0
 25 24  1  1
 26 17  1  0
 27 25  1  0
 28 27  1  0
 29 23  1  0
 30 29  2  0
 30 20  1  0
 31 27  2  0
M  END
$$$$
