HLY.pdb
     RDKit          3D

 31 32  0  0  1  0  0  0  0  0999 V2000
    7.5575  -16.3892   21.4367 N   0  0  0  0  0  0  0  0  0  0  0  0
    8.5177  -15.3206   21.2480 C   0  0  1  0  0  0  0  0  0  0  0  0
    7.9194  -14.3196   20.2891 C   0  0  0  0  0  0  0  0  0  0  0  0
    7.8307  -14.9891   18.9612 C   0  0  0  0  0  0  0  0  0  0  0  0
    8.8896  -15.3788   18.1679 C   0  0  0  0  0  0  0  0  0  0  0  0
    8.3881  -15.9531   17.0367 N   0  0  0  0  0  0  0  0  0  0  0  0
    7.0485  -15.9216   17.1235 C   0  0  0  0  0  0  0  0  0  0  0  0
    6.7268  -15.3435   18.2775 N   0  0  0  0  0  0  0  0  0  0  0  0
    8.8669  -14.7329   22.5527 C   0  0  0  0  0  0  0  0  0  0  0  0
    9.8036  -13.9241   22.6320 O   0  0  0  0  0  0  0  0  0  0  0  0
    5.3755  -12.9123   26.2003 C   0  0  0  0  0  0  0  0  0  0  0  0
    6.7154  -13.0359   25.5114 C   0  0  1  0  0  0  0  0  0  0  0  0
    7.5366  -11.7995   25.5451 C   0  0  0  0  0  0  0  0  0  0  0  0
    7.5118  -14.2267   25.9611 C   0  0  0  0  0  0  0  0  0  0  0  0
    8.5865  -14.6538   25.0451 C   0  0  2  0  0  0  0  0  0  0  0  0
    8.1498  -15.0710   23.7451 N   0  0  0  0  0  0  0  0  0  0  0  0
    9.4709  -15.7090   25.6075 C   0  0  0  0  0  0  0  0  0  0  0  0
    9.9294  -15.5345   26.7559 O   0  0  0  0  0  0  0  0  0  0  0  0
    7.4842  -19.4901   30.6476 O   0  0  0  0  0  0  0  0  0  0  0  0
    8.0572  -19.4077   29.3931 C   0  0  0  0  0  0  0  0  0  0  0  0
    9.4277  -19.3566   29.2914 C   0  0  0  0  0  0  0  0  0  0  0  0
   10.0454  -19.2742   28.0678 C   0  0  0  0  0  0  0  0  0  0  0  0
    9.2733  -19.2420   26.9157 C   0  0  0  0  0  0  0  0  0  0  0  0
    9.9608  -19.1533   25.6076 C   0  0  0  0  0  0  0  0  0  0  0  0
   10.7498  -17.8974   25.4449 C   0  0  2  0  0  0  0  0  0  0  0  0
    9.8236  -16.8841   24.9362 N   0  0  0  0  0  0  0  0  0  0  0  0
   11.9611  -18.0007   24.6426 C   0  0  0  0  0  0  0  0  0  0  0  0
   12.9737  -18.8677   25.0181 O   0  0  0  0  0  0  0  0  0  0  0  0
    7.9001  -19.2940   27.0345 C   0  0  0  0  0  0  0  0  0  0  0  0
    7.2647  -19.3767   28.2514 C   0  0  0  0  0  0  0  0  0  0  0  0
   12.1534  -17.3263   23.5907 O   0  0  0  0  0  0  0  0  0  0  0  0
  2  3  1  0
  2  1  1  1
  3  4  1  0
  4  5  2  0
  5  6  1  0
  7  6  1  0
  8  4  1  0
  8  7  2  0
  9 16  1  0
  9  2  1  0
 10  9  2  0
 12 11  1  1
 12 13  1  0
 12 14  1  0
 15 14  1  1
 15 16  1  0
 17 18  2  0
 17 15  1  0
 19 20  1  0
 20 21  2  0
 21 22  1  0
 23 24  1  0
 23 22  2  0
 25 26  1  0
 25 24  1  6
 26 17  1  0
 27 25  1  0
 28 27  1  0
 29 23  1  0
 30 29  2  0
 30 20  1  0
 31 27  2  0
M  END
$$$$
