HLY.pdb
     RDKit          3D

 31 32  0  0  1  0  0  0  0  0999 V2000
    8.3477  -12.6781   19.4029 N   0  0  0  0  0  0  0  0  0  0  0  0
    8.0737  -13.9620   20.0160 C   0  0  1  0  0  0  0  0  0  0  0  0
    8.5766  -15.0400   19.0860 C   0  0  0  0  0  0  0  0  0  0  0  0
    7.7161  -15.0017   17.8706 C   0  0  0  0  0  0  0  0  0  0  0  0
    6.5148  -15.6568   17.6963 C   0  0  0  0  0  0  0  0  0  0  0  0
    6.0450  -15.3644   16.4494 N   0  0  0  0  0  0  0  0  0  0  0  0
    6.9327  -14.5465   15.8611 C   0  0  0  0  0  0  0  0  0  0  0  0
    7.9270  -14.3366   16.7194 N   0  0  0  0  0  0  0  0  0  0  0  0
    8.6939  -14.0156   21.3508 C   0  0  0  0  0  0  0  0  0  0  0  0
    9.8995  -13.7556   21.4797 O   0  0  0  0  0  0  0  0  0  0  0  0
    5.9203  -12.5243   25.7331 C   0  0  0  0  0  0  0  0  0  0  0  0
    7.1156  -12.7315   24.8312 C   0  0  1  0  0  0  0  0  0  0  0  0
    8.1522  -11.6739   24.9373 C   0  0  0  0  0  0  0  0  0  0  0  0
    7.7241  -14.0991   24.9490 C   0  0  0  0  0  0  0  0  0  0  0  0
    8.5491  -14.5272   23.8032 C   0  0  2  0  0  0  0  0  0  0  0  0
    7.9386  -14.3625   22.5169 N   0  0  0  0  0  0  0  0  0  0  0  0
    9.0508  -15.9229   23.9128 C   0  0  0  0  0  0  0  0  0  0  0  0
    8.2350  -16.8516   23.7348 O   0  0  0  0  0  0  0  0  0  0  0  0
   11.4190  -16.4327   31.8753 O   0  0  0  0  0  0  0  0  0  0  0  0
   11.3229  -16.2254   30.5127 C   0  0  0  0  0  0  0  0  0  0  0  0
   10.6576  -15.1118   30.0560 C   0  0  0  0  0  0  0  0  0  0  0  0
   10.5346  -14.8609   28.7116 C   0  0  0  0  0  0  0  0  0  0  0  0
   11.0909  -15.7459   27.7997 C   0  0  0  0  0  0  0  0  0  0  0  0
   10.9462  -15.4550   26.3554 C   0  0  0  0  0  0  0  0  0  0  0  0
   10.8680  -16.6857   25.5153 C   0  0  2  0  0  0  0  0  0  0  0  0
   10.3756  -16.2654   24.2021 N   0  0  0  0  0  0  0  0  0  0  0  0
   10.1030  -17.7937   26.0708 C   0  0  0  0  0  0  0  0  0  0  0  0
   10.7210  -19.0053   26.3320 O   0  0  0  0  0  0  0  0  0  0  0  0
   11.7549  -16.8581   28.2735 C   0  0  0  0  0  0  0  0  0  0  0  0
   11.8877  -17.1251   29.6162 C   0  0  0  0  0  0  0  0  0  0  0  0
    8.8697  -17.7171   26.3380 O   0  0  0  0  0  0  0  0  0  0  0  0
  2  3  1  0
  2  1  1  6
  3  4  1  0
  4  5  2  0
  5  6  1  0
  7  6  1  0
  8  4  1  0
  8  7  2  0
  9 16  1  0
  9  2  1  0
 10  9  2  0
 12 11  1  1
 12 13  1  0
 12 14  1  0
 15 14  1  1
 15 16  1  0
 17 18  2  0
 17 15  1  0
 19 20  1  0
 20 21  2  0
 21 22  1  0
 23 24  1  0
 23 22  2  0
 25 26  1  0
 25 24  1  1
 26 17  1  0
 27 25  1  0
 28 27  1  0
 29 23  1  0
 30 29  2  0
 30 20  1  0
 31 27  2  0
M  END
$$$$
