HLY.pdb
     RDKit          3D

 31 32  0  0  1  0  0  0  0  0999 V2000
    8.7501  -18.0369   18.2654 N   0  0  0  0  0  0  0  0  0  0  0  0
   10.0035  -17.3350   18.0760 C   0  0  1  0  0  0  0  0  0  0  0  0
    9.9852  -16.7097   16.7019 C   0  0  0  0  0  0  0  0  0  0  0  0
   10.0459  -17.8249   15.7161 C   0  0  0  0  0  0  0  0  0  0  0  0
   10.3691  -19.1388   15.9842 C   0  0  0  0  0  0  0  0  0  0  0  0
   10.3109  -19.8407   14.8160 N   0  0  0  0  0  0  0  0  0  0  0  0
    9.9597  -18.9843   13.8433 C   0  0  0  0  0  0  0  0  0  0  0  0
    9.8040  -17.7828   14.3926 N   0  0  0  0  0  0  0  0  0  0  0  0
   10.1875  -16.3504   19.1560 C   0  0  0  0  0  0  0  0  0  0  0  0
   11.2266  -15.6752   19.2022 O   0  0  0  0  0  0  0  0  0  0  0  0
    5.9965  -13.9744   20.9353 C   0  0  0  0  0  0  0  0  0  0  0  0
    7.4531  -14.0213   20.5335 C   0  0  1  0  0  0  0  0  0  0  0  0
    7.9299  -12.8095   19.8203 C   0  0  0  0  0  0  0  0  0  0  0  0
    8.3741  -14.3816   21.6631 C   0  0  0  0  0  0  0  0  0  0  0  0
    9.4360  -15.3507   21.3314 C   0  0  2  0  0  0  0  0  0  0  0  0
    9.1920  -16.1472   20.1650 N   0  0  0  0  0  0  0  0  0  0  0  0
    9.7948  -16.2563   22.4552 C   0  0  0  0  0  0  0  0  0  0  0  0
    8.9571  -17.1149   22.8027 O   0  0  0  0  0  0  0  0  0  0  0  0
   10.1734  -14.9310   30.7402 O   0  0  0  0  0  0  0  0  0  0  0  0
   10.1775  -14.9542   29.3587 C   0  0  0  0  0  0  0  0  0  0  0  0
   10.1261  -16.1685   28.7152 C   0  0  0  0  0  0  0  0  0  0  0  0
   10.1279  -16.2450   27.3441 C   0  0  0  0  0  0  0  0  0  0  0  0
   10.1824  -15.0776   26.5967 C   0  0  0  0  0  0  0  0  0  0  0  0
   10.1829  -15.1843   25.1202 C   0  0  0  0  0  0  0  0  0  0  0  0
   11.1431  -16.2047   24.6072 C   0  0  2  0  0  0  0  0  0  0  0  0
   11.0081  -16.2110   23.1494 N   0  0  0  0  0  0  0  0  0  0  0  0
   11.0318  -17.5372   25.1848 C   0  0  0  0  0  0  0  0  0  0  0  0
   12.0541  -18.0440   25.9698 O   0  0  0  0  0  0  0  0  0  0  0  0
   10.2336  -13.8678   27.2570 C   0  0  0  0  0  0  0  0  0  0  0  0
   10.2327  -13.7723   28.6291 C   0  0  0  0  0  0  0  0  0  0  0  0
   10.0282  -18.2856   25.0085 O   0  0  0  0  0  0  0  0  0  0  0  0
  2  3  1  0
  2  1  1  1
  3  4  1  0
  4  5  2  0
  5  6  1  0
  7  6  1  0
  8  4  1  0
  8  7  2  0
  9 16  1  0
  9  2  1  0
 10  9  2  0
 12 11  1  1
 12 13  1  0
 12 14  1  0
 15 14  1  1
 15 16  1  0
 17 18  2  0
 17 15  1  0
 19 20  1  0
 20 21  2  0
 21 22  1  0
 23 24  1  0
 23 22  2  0
 25 26  1  0
 25 24  1  1
 26 17  1  0
 27 25  1  0
 28 27  1  0
 29 23  1  0
 30 29  2  0
 30 20  1  0
 31 27  2  0
M  END
$$$$
