HLY.pdb
     RDKit          3D

 31 32  0  0  1  0  0  0  0  0999 V2000
    7.2285  -15.7398   20.7017 N   0  0  0  0  0  0  0  0  0  0  0  0
    8.4800  -15.0130   20.7711 C   0  0  1  0  0  0  0  0  0  0  0  0
    8.3988  -13.8513   19.8100 C   0  0  0  0  0  0  0  0  0  0  0  0
    8.1664  -14.4240   18.4546 C   0  0  0  0  0  0  0  0  0  0  0  0
    8.2235  -15.7578   18.1079 C   0  0  0  0  0  0  0  0  0  0  0  0
    7.9504  -15.8658   16.7758 N   0  0  0  0  0  0  0  0  0  0  0  0
    7.7284  -14.6284   16.3039 C   0  0  0  0  0  0  0  0  0  0  0  0
    7.8602  -13.7750   17.3157 N   0  0  0  0  0  0  0  0  0  0  0  0
    8.7338  -14.5960   22.1607 C   0  0  0  0  0  0  0  0  0  0  0  0
    9.8337  -14.1116   22.4664 O   0  0  0  0  0  0  0  0  0  0  0  0
    8.6789  -12.2988   26.6273 C   0  0  0  0  0  0  0  0  0  0  0  0
    7.4009  -13.1057   26.5989 C   0  0  1  0  0  0  0  0  0  0  0  0
    6.2515  -12.4546   27.2766 C   0  0  0  0  0  0  0  0  0  0  0  0
    7.0219  -13.5780   25.2250 C   0  0  0  0  0  0  0  0  0  0  0  0
    8.0092  -14.4486   24.5586 C   0  0  2  0  0  0  0  0  0  0  0  0
    7.7381  -14.7345   23.1805 N   0  0  0  0  0  0  0  0  0  0  0  0
    8.2532  -15.7325   25.2684 C   0  0  0  0  0  0  0  0  0  0  0  0
    7.2675  -16.3293   25.7498 O   0  0  0  0  0  0  0  0  0  0  0  0
   14.9655  -16.4195   22.6260 O   0  0  0  0  0  0  0  0  0  0  0  0
   13.8556  -16.9445   23.2596 C   0  0  0  0  0  0  0  0  0  0  0  0
   12.6238  -16.8061   22.6637 C   0  0  0  0  0  0  0  0  0  0  0  0
   11.4905  -17.3101   23.2528 C   0  0  0  0  0  0  0  0  0  0  0  0
   11.5906  -17.9697   24.4691 C   0  0  0  0  0  0  0  0  0  0  0  0
   10.3557  -18.5050   25.0855 C   0  0  0  0  0  0  0  0  0  0  0  0
    9.7678  -17.5908   26.1078 C   0  0  2  0  0  0  0  0  0  0  0  0
    9.5133  -16.3167   25.4329 N   0  0  0  0  0  0  0  0  0  0  0  0
   10.5308  -17.4293   27.3379 C   0  0  0  0  0  0  0  0  0  0  0  0
   10.8410  -18.5327   28.1154 O   0  0  0  0  0  0  0  0  0  0  0  0
   12.8330  -18.1003   25.0538 C   0  0  0  0  0  0  0  0  0  0  0  0
   13.9784  -17.6019   24.4782 C   0  0  0  0  0  0  0  0  0  0  0  0
   10.9409  -16.3086   27.7551 O   0  0  0  0  0  0  0  0  0  0  0  0
  2  3  1  0
  2  1  1  1
  3  4  1  0
  4  5  2  0
  5  6  1  0
  7  6  1  0
  8  4  1  0
  8  7  2  0
  9 16  1  0
  9  2  1  0
 10  9  2  0
 12 11  1  6
 12 13  1  0
 12 14  1  0
 15 14  1  1
 15 16  1  0
 17 18  2  0
 17 15  1  0
 19 20  1  0
 20 21  2  0
 21 22  1  0
 23 24  1  0
 23 22  2  0
 25 26  1  0
 25 24  1  6
 26 17  1  0
 27 25  1  0
 28 27  1  0
 29 23  1  0
 30 29  2  0
 30 20  1  0
 31 27  2  0
M  END
$$$$
