HLY.pdb
     RDKit          3D

 31 32  0  0  1  0  0  0  0  0999 V2000
   10.4799  -17.9976   17.0066 N   0  0  0  0  0  0  0  0  0  0  0  0
   11.6703  -17.3267   17.4886 C   0  0  1  0  0  0  0  0  0  0  0  0
   12.3335  -16.6507   16.3126 C   0  0  0  0  0  0  0  0  0  0  0  0
   12.8676  -17.7298   15.4354 C   0  0  0  0  0  0  0  0  0  0  0  0
   13.9678  -18.5223   15.6889 C   0  0  0  0  0  0  0  0  0  0  0  0
   14.1237  -19.3849   14.6438 N   0  0  0  0  0  0  0  0  0  0  0  0
   13.1437  -19.1356   13.7602 C   0  0  0  0  0  0  0  0  0  0  0  0
   12.3994  -18.1449   14.2436 N   0  0  0  0  0  0  0  0  0  0  0  0
   11.3084  -16.3888   18.5649 C   0  0  0  0  0  0  0  0  0  0  0  0
   12.1985  -15.7675   19.1645 O   0  0  0  0  0  0  0  0  0  0  0  0
    9.0760  -12.4870   19.5376 C   0  0  0  0  0  0  0  0  0  0  0  0
    8.1333  -13.3388   20.3569 C   0  0  1  0  0  0  0  0  0  0  0  0
    6.7225  -12.8766   20.3422 C   0  0  0  0  0  0  0  0  0  0  0  0
    8.2257  -14.8043   20.0436 C   0  0  0  0  0  0  0  0  0  0  0  0
    9.5848  -15.3768   20.0823 C   0  0  2  0  0  0  0  0  0  0  0  0
    9.9449  -16.1703   18.9441 N   0  0  0  0  0  0  0  0  0  0  0  0
    9.8717  -16.1597   21.3138 C   0  0  0  0  0  0  0  0  0  0  0  0
    9.5294  -17.3606   21.3345 O   0  0  0  0  0  0  0  0  0  0  0  0
   15.2017  -19.5325   20.4738 O   0  0  0  0  0  0  0  0  0  0  0  0
   14.4532  -18.7766   21.3555 C   0  0  0  0  0  0  0  0  0  0  0  0
   14.2967  -17.4324   21.1103 C   0  0  0  0  0  0  0  0  0  0  0  0
   13.5624  -16.6381   21.9562 C   0  0  0  0  0  0  0  0  0  0  0  0
   12.9690  -17.2017   23.0762 C   0  0  0  0  0  0  0  0  0  0  0  0
   12.1818  -16.3263   23.9738 C   0  0  0  0  0  0  0  0  0  0  0  0
   10.7158  -16.3736   23.6999 C   0  0  2  0  0  0  0  0  0  0  0  0
   10.4995  -15.6411   22.4508 N   0  0  0  0  0  0  0  0  0  0  0  0
    9.8475  -15.9139   24.7752 C   0  0  0  0  0  0  0  0  0  0  0  0
    9.8577  -16.5566   26.0020 O   0  0  0  0  0  0  0  0  0  0  0  0
   13.1353  -18.5512   23.3081 C   0  0  0  0  0  0  0  0  0  0  0  0
   13.8671  -19.3616   22.4720 C   0  0  0  0  0  0  0  0  0  0  0  0
    9.0585  -14.9334   24.6555 O   0  0  0  0  0  0  0  0  0  0  0  0
  2  3  1  0
  2  1  1  6
  3  4  1  0
  4  5  2  0
  5  6  1  0
  7  6  1  0
  8  4  1  0
  8  7  2  0
  9 16  1  0
  9  2  1  0
 10  9  2  0
 12 11  1  6
 12 13  1  0
 12 14  1  0
 15 14  1  6
 15 16  1  0
 17 18  2  0
 17 15  1  0
 19 20  1  0
 20 21  2  0
 21 22  1  0
 23 24  1  0
 23 22  2  0
 25 26  1  0
 25 24  1  1
 26 17  1  0
 27 25  1  0
 28 27  1  0
 29 23  1  0
 30 29  2  0
 30 20  1  0
 31 27  2  0
M  END
$$$$
