HLY.pdb
     RDKit          3D

 31 32  0  0  1  0  0  0  0  0999 V2000
    8.4912  -15.8134   19.3794 N   0  0  0  0  0  0  0  0  0  0  0  0
    7.9490  -16.2570   20.6478 C   0  0  1  0  0  0  0  0  0  0  0  0
    8.0440  -17.7631   20.6946 C   0  0  0  0  0  0  0  0  0  0  0  0
    7.1926  -18.2869   19.5901 C   0  0  0  0  0  0  0  0  0  0  0  0
    6.3841  -17.5434   18.7557 C   0  0  0  0  0  0  0  0  0  0  0  0
    5.7737  -18.3943   17.8816 N   0  0  0  0  0  0  0  0  0  0  0  0
    6.1920  -19.6384   18.1650 C   0  0  0  0  0  0  0  0  0  0  0  0
    7.0394  -19.5622   19.1875 N   0  0  0  0  0  0  0  0  0  0  0  0
    8.6689  -15.5985   21.7512 C   0  0  0  0  0  0  0  0  0  0  0  0
    9.8935  -15.4222   21.6680 O   0  0  0  0  0  0  0  0  0  0  0  0
    5.9178  -12.3563   25.5255 C   0  0  0  0  0  0  0  0  0  0  0  0
    6.9828  -12.7958   24.5468 C   0  0  1  0  0  0  0  0  0  0  0  0
    7.8239  -11.6908   24.0215 C   0  0  0  0  0  0  0  0  0  0  0  0
    7.8304  -13.9271   25.0529 C   0  0  0  0  0  0  0  0  0  0  0  0
    8.6871  -14.5786   24.0439 C   0  0  2  0  0  0  0  0  0  0  0  0
    7.9900  -15.1509   22.9299 N   0  0  0  0  0  0  0  0  0  0  0  0
    9.6025  -15.6067   24.6070 C   0  0  0  0  0  0  0  0  0  0  0  0
    9.1529  -16.7599   24.7726 O   0  0  0  0  0  0  0  0  0  0  0  0
    9.9804  -14.7333   31.1902 O   0  0  0  0  0  0  0  0  0  0  0  0
   10.2939  -15.3234   29.9808 C   0  0  0  0  0  0  0  0  0  0  0  0
   10.3069  -16.6960   29.8957 C   0  0  0  0  0  0  0  0  0  0  0  0
   10.6120  -17.3304   28.7167 C   0  0  0  0  0  0  0  0  0  0  0  0
   10.9120  -16.5735   27.5935 C   0  0  0  0  0  0  0  0  0  0  0  0
   11.2377  -17.2789   26.3334 C   0  0  0  0  0  0  0  0  0  0  0  0
   11.9048  -16.4020   25.3272 C   0  0  2  0  0  0  0  0  0  0  0  0
   10.9337  -15.3684   24.9636 N   0  0  0  0  0  0  0  0  0  0  0  0
   12.4678  -17.0741   24.1641 C   0  0  0  0  0  0  0  0  0  0  0  0
   13.4029  -18.0827   24.3270 O   0  0  0  0  0  0  0  0  0  0  0  0
   10.8947  -15.1981   27.6953 C   0  0  0  0  0  0  0  0  0  0  0  0
   10.5914  -14.5460   28.8676 C   0  0  0  0  0  0  0  0  0  0  0  0
   12.1470  -16.7851   22.9759 O   0  0  0  0  0  0  0  0  0  0  0  0
  2  3  1  0
  2  1  1  6
  3  4  1  0
  4  5  2  0
  5  6  1  0
  7  6  1  0
  8  4  1  0
  8  7  2  0
  9 16  1  0
  9  2  1  0
 10  9  2  0
 12 11  1  1
 12 13  1  0
 12 14  1  0
 15 14  1  1
 15 16  1  0
 17 18  2  0
 17 15  1  0
 19 20  1  0
 20 21  2  0
 21 22  1  0
 23 24  1  0
 23 22  2  0
 25 26  1  0
 25 24  1  1
 26 17  1  0
 27 25  1  0
 28 27  1  0
 29 23  1  0
 30 29  2  0
 30 20  1  0
 31 27  2  0
M  END
$$$$
