HLY.pdb
     RDKit          3D

 31 32  0  0  1  0  0  0  0  0999 V2000
   11.4961  -18.3626   17.1403 N   0  0  0  0  0  0  0  0  0  0  0  0
   10.5532  -18.6854   18.1921 C   0  0  1  0  0  0  0  0  0  0  0  0
   10.9977  -19.9760   18.8373 C   0  0  0  0  0  0  0  0  0  0  0  0
   10.3839  -21.0863   18.0564 C   0  0  0  0  0  0  0  0  0  0  0  0
    9.2058  -21.7408   18.3502 C   0  0  0  0  0  0  0  0  0  0  0  0
    8.9936  -22.6900   17.3937 N   0  0  0  0  0  0  0  0  0  0  0  0
   10.0155  -22.6281   16.5248 C   0  0  0  0  0  0  0  0  0  0  0  0
   10.8400  -21.6664   16.9307 N   0  0  0  0  0  0  0  0  0  0  0  0
   10.4691  -17.5636   19.1428 C   0  0  0  0  0  0  0  0  0  0  0  0
   11.5033  -16.9762   19.4940 O   0  0  0  0  0  0  0  0  0  0  0  0
    8.6317  -12.8494   20.7624 C   0  0  0  0  0  0  0  0  0  0  0  0
    7.7604  -13.9818   21.2561 C   0  0  1  0  0  0  0  0  0  0  0  0
    6.3455  -13.6034   21.4992 C   0  0  0  0  0  0  0  0  0  0  0  0
    7.8518  -15.2194   20.4109 C   0  0  0  0  0  0  0  0  0  0  0  0
    9.1080  -15.9826   20.5374 C   0  0  2  0  0  0  0  0  0  0  0  0
    9.2158  -17.1260   19.6797 N   0  0  0  0  0  0  0  0  0  0  0  0
    9.4159  -16.4057   21.9295 C   0  0  0  0  0  0  0  0  0  0  0  0
    8.9252  -17.4803   22.3346 O   0  0  0  0  0  0  0  0  0  0  0  0
   10.4153  -14.8805   30.5140 O   0  0  0  0  0  0  0  0  0  0  0  0
   10.3129  -14.7776   29.1400 C   0  0  0  0  0  0  0  0  0  0  0  0
   11.1750  -15.5055   28.3538 C   0  0  0  0  0  0  0  0  0  0  0  0
   11.1138  -15.4379   26.9836 C   0  0  0  0  0  0  0  0  0  0  0  0
   10.1663  -14.6215   26.3835 C   0  0  0  0  0  0  0  0  0  0  0  0
   10.1185  -14.5646   24.9049 C   0  0  0  0  0  0  0  0  0  0  0  0
   10.2859  -15.9005   24.2619 C   0  0  2  0  0  0  0  0  0  0  0  0
   10.2186  -15.6804   22.8160 N   0  0  0  0  0  0  0  0  0  0  0  0
    9.3775  -16.9467   24.7111 C   0  0  0  0  0  0  0  0  0  0  0  0
    9.8544  -18.0092   25.4604 O   0  0  0  0  0  0  0  0  0  0  0  0
    9.3089  -13.8979   27.1858 C   0  0  0  0  0  0  0  0  0  0  0  0
    9.3559  -13.9534   28.5592 C   0  0  0  0  0  0  0  0  0  0  0  0
    8.1402  -16.9465   24.4511 O   0  0  0  0  0  0  0  0  0  0  0  0
  2  3  1  0
  2  1  1  6
  3  4  1  0
  4  5  2  0
  5  6  1  0
  7  6  1  0
  8  4  1  0
  8  7  2  0
  9 16  1  0
  9  2  1  0
 10  9  2  0
 12 11  1  6
 12 13  1  0
 12 14  1  0
 15 14  1  1
 15 16  1  0
 17 18  2  0
 17 15  1  0
 19 20  1  0
 20 21  2  0
 21 22  1  0
 23 24  1  0
 23 22  2  0
 25 26  1  0
 25 24  1  1
 26 17  1  0
 27 25  1  0
 28 27  1  0
 29 23  1  0
 30 29  2  0
 30 20  1  0
 31 27  2  0
M  END
$$$$
