HLY.pdb
     RDKit          3D

 31 32  0  0  1  0  0  0  0  0999 V2000
   11.3293  -15.6689   14.7792 N   0  0  0  0  0  0  0  0  0  0  0  0
   10.7289  -16.5094   15.7953 C   0  0  1  0  0  0  0  0  0  0  0  0
   11.4633  -17.8286   15.8034 C   0  0  0  0  0  0  0  0  0  0  0  0
   10.9658  -18.6102   14.6369 C   0  0  0  0  0  0  0  0  0  0  0  0
    9.8911  -18.2894   13.8340 C   0  0  0  0  0  0  0  0  0  0  0  0
    9.7652  -19.2571   12.8808 N   0  0  0  0  0  0  0  0  0  0  0  0
   10.7385  -20.1593   13.0853 C   0  0  0  0  0  0  0  0  0  0  0  0
   11.4497  -19.7626   14.1370 N   0  0  0  0  0  0  0  0  0  0  0  0
   10.7681  -15.8188   17.0956 C   0  0  0  0  0  0  0  0  0  0  0  0
   11.8257  -15.3022   17.4859 O   0  0  0  0  0  0  0  0  0  0  0  0
    6.0153  -13.7530   19.4137 C   0  0  0  0  0  0  0  0  0  0  0  0
    7.4588  -13.7964   18.9669 C   0  0  1  0  0  0  0  0  0  0  0  0
    8.1056  -12.4644   18.8585 C   0  0  0  0  0  0  0  0  0  0  0  0
    8.3045  -14.7449   19.7668 C   0  0  0  0  0  0  0  0  0  0  0  0
    9.6303  -15.0488   19.1955 C   0  0  2  0  0  0  0  0  0  0  0  0
    9.6094  -15.7247   17.9317 N   0  0  0  0  0  0  0  0  0  0  0  0
   10.5239  -15.7990   20.1177 C   0  0  0  0  0  0  0  0  0  0  0  0
   10.5232  -17.0457   20.0447 O   0  0  0  0  0  0  0  0  0  0  0  0
   16.1039  -15.4964   17.0128 O   0  0  0  0  0  0  0  0  0  0  0  0
   15.4851  -15.4756   18.2479 C   0  0  0  0  0  0  0  0  0  0  0  0
   14.8149  -14.3389   18.6354 C   0  0  0  0  0  0  0  0  0  0  0  0
   14.1837  -14.2682   19.8528 C   0  0  0  0  0  0  0  0  0  0  0  0
   14.2234  -15.3618   20.7054 C   0  0  0  0  0  0  0  0  0  0  0  0
   13.5358  -15.2630   22.0127 C   0  0  0  0  0  0  0  0  0  0  0  0
   12.1992  -15.9262   22.0227 C   0  0  2  0  0  0  0  0  0  0  0  0
   11.3652  -15.2017   21.0619 N   0  0  0  0  0  0  0  0  0  0  0  0
   11.5613  -16.0632   23.3250 C   0  0  0  0  0  0  0  0  0  0  0  0
   12.1868  -16.7735   24.3360 O   0  0  0  0  0  0  0  0  0  0  0  0
   14.8997  -16.4943   20.3022 C   0  0  0  0  0  0  0  0  0  0  0  0
   15.5372  -16.5828   19.0868 C   0  0  0  0  0  0  0  0  0  0  0  0
   10.4351  -15.5587   23.5997 O   0  0  0  0  0  0  0  0  0  0  0  0
  2  3  1  0
  2  1  1  6
  3  4  1  0
  4  5  2  0
  5  6  1  0
  7  6  1  0
  8  4  1  0
  8  7  2  0
  9 16  1  0
  9  2  1  0
 10  9  2  0
 12 11  1  1
 12 13  1  0
 12 14  1  0
 15 14  1  1
 15 16  1  0
 17 18  2  0
 17 15  1  0
 19 20  1  0
 20 21  2  0
 21 22  1  0
 23 24  1  0
 23 22  2  0
 25 26  1  0
 25 24  1  1
 26 17  1  0
 27 25  1  0
 28 27  1  0
 29 23  1  0
 30 29  2  0
 30 20  1  0
 31 27  2  0
M  END
$$$$
