HLY.pdb
     RDKit          3D

 31 32  0  0  1  0  0  0  0  0999 V2000
   10.4358  -18.0373   16.9021 N   0  0  0  0  0  0  0  0  0  0  0  0
    9.3807  -18.0025   17.8945 C   0  0  1  0  0  0  0  0  0  0  0  0
    9.2197  -19.3958   18.4534 C   0  0  0  0  0  0  0  0  0  0  0  0
    8.5216  -20.2031   17.4140 C   0  0  0  0  0  0  0  0  0  0  0  0
    7.5228  -19.7644   16.5699 C   0  0  0  0  0  0  0  0  0  0  0  0
    7.1510  -20.8049   15.7700 N   0  0  0  0  0  0  0  0  0  0  0  0
    7.9005  -21.8666   16.1080 C   0  0  0  0  0  0  0  0  0  0  0  0
    8.7158  -21.4954   17.0913 N   0  0  0  0  0  0  0  0  0  0  0  0
    9.7033  -17.0008   18.9249 C   0  0  0  0  0  0  0  0  0  0  0  0
   10.8713  -16.8838   19.3247 O   0  0  0  0  0  0  0  0  0  0  0  0
    6.7751  -12.2669   19.6201 C   0  0  0  0  0  0  0  0  0  0  0  0
    7.9457  -13.2214   19.5568 C   0  0  1  0  0  0  0  0  0  0  0  0
    9.2532  -12.5687   19.2948 C   0  0  0  0  0  0  0  0  0  0  0  0
    8.0291  -14.1450   20.7376 C   0  0  0  0  0  0  0  0  0  0  0  0
    8.9632  -15.2777   20.5923 C   0  0  2  0  0  0  0  0  0  0  0  0
    8.6981  -16.1486   19.4851 N   0  0  0  0  0  0  0  0  0  0  0  0
    9.1005  -16.1041   21.8211 C   0  0  0  0  0  0  0  0  0  0  0  0
    8.0790  -16.6751   22.2572 O   0  0  0  0  0  0  0  0  0  0  0  0
   14.8143  -20.2637   20.4939 O   0  0  0  0  0  0  0  0  0  0  0  0
   13.6955  -19.8288   21.1781 C   0  0  0  0  0  0  0  0  0  0  0  0
   13.8097  -19.5308   22.5158 C   0  0  0  0  0  0  0  0  0  0  0  0
   12.7277  -19.0949   23.2401 C   0  0  0  0  0  0  0  0  0  0  0  0
   11.4993  -18.9530   22.6112 C   0  0  0  0  0  0  0  0  0  0  0  0
   10.3468  -18.4813   23.4117 C   0  0  0  0  0  0  0  0  0  0  0  0
   10.4358  -17.0357   23.7707 C   0  0  2  0  0  0  0  0  0  0  0  0
   10.2976  -16.2849   22.5214 N   0  0  0  0  0  0  0  0  0  0  0  0
   11.6088  -16.6363   24.5363 C   0  0  0  0  0  0  0  0  0  0  0  0
   11.8851  -17.2382   25.7526 O   0  0  0  0  0  0  0  0  0  0  0  0
   11.4012  -19.2558   21.2691 C   0  0  0  0  0  0  0  0  0  0  0  0
   12.4741  -19.6936   20.5283 C   0  0  0  0  0  0  0  0  0  0  0  0
   12.4171  -15.7450   24.1483 O   0  0  0  0  0  0  0  0  0  0  0  0
  2  3  1  0
  2  1  1  6
  3  4  1  0
  4  5  2  0
  5  6  1  0
  7  6  1  0
  8  4  1  0
  8  7  2  0
  9 16  1  0
  9  2  1  0
 10  9  2  0
 12 11  1  1
 12 13  1  0
 12 14  1  0
 15 14  1  1
 15 16  1  0
 17 18  2  0
 17 15  1  0
 19 20  1  0
 20 21  2  0
 21 22  1  0
 23 24  1  0
 23 22  2  0
 25 26  1  0
 25 24  1  6
 26 17  1  0
 27 25  1  0
 28 27  1  0
 29 23  1  0
 30 29  2  0
 30 20  1  0
 31 27  2  0
M  END
$$$$
