ESW.pdb
     RDKit          3D

 30 31  0  0  1  0  0  0  0  0999 V2000
   11.0925  -17.8338   18.5923 N   0  0  0  0  0  0  0  0  0  0  0  0
   11.6055  -17.4626   19.8410 C   0  0  1  0  0  0  0  0  0  0  0  0
   12.8377  -16.6490   19.7440 C   0  0  0  0  0  0  0  0  0  0  0  0
   12.7058  -15.1808   19.5660 C   0  0  0  0  0  0  0  0  0  0  0  0
   13.9259  -14.3982   19.4271 C   0  0  0  0  0  0  0  0  0  0  0  0
   14.6450  -14.3289   18.4009 O   0  0  0  0  0  0  0  0  0  0  0  0
   10.5877  -16.8197   20.7370 C   0  0  0  0  0  0  0  0  0  0  0  0
    9.5762  -16.3069   20.2039 O   0  0  0  0  0  0  0  0  0  0  0  0
   14.4275  -13.6102   20.4964 O   0  0  0  0  0  0  0  0  0  0  0  0
    9.3267  -19.4764   23.4877 O   0  0  0  0  0  0  0  0  0  0  0  0
    8.9553  -18.3270   22.8635 C   0  0  0  0  0  0  0  0  0  0  0  0
    9.7644  -17.1062   23.1112 C   0  0  2  0  0  0  0  0  0  0  0  0
   10.7822  -16.8033   22.1332 N   0  0  0  0  0  0  0  0  0  0  0  0
   10.2490  -16.9416   24.4899 C   0  0  0  0  0  0  0  0  0  0  0  0
   11.4548  -17.1999   24.8238 O   0  0  0  0  0  0  0  0  0  0  0  0
    9.4241  -16.4824   25.5484 N   0  0  0  0  0  0  0  0  0  0  0  0
   10.0436  -16.1717   26.8765 C   0  0  1  0  0  0  0  0  0  0  0  0
    8.9398  -15.4726   27.6270 C   0  0  0  0  0  0  0  0  0  0  0  0
    7.7894  -15.0529   26.8479 C   0  0  0  0  0  0  0  0  0  0  0  0
    6.6857  -15.7090   26.3788 C   0  0  0  0  0  0  0  0  0  0  0  0
    5.8732  -14.8412   25.7233 N   0  0  0  0  0  0  0  0  0  0  0  0
    6.4248  -13.5899   25.7466 C   0  0  0  0  0  0  0  0  0  0  0  0
    6.0114  -12.3761   25.2445 C   0  0  0  0  0  0  0  0  0  0  0  0
    6.7679  -11.2478   25.4218 C   0  0  0  0  0  0  0  0  0  0  0  0
    7.9429  -11.3651   26.1109 C   0  0  0  0  0  0  0  0  0  0  0  0
    8.3709  -12.5791   26.6194 C   0  0  0  0  0  0  0  0  0  0  0  0
    7.6074  -13.7277   26.4426 C   0  0  0  0  0  0  0  0  0  0  0  0
   10.3849  -17.4234   27.5597 C   0  0  0  0  0  0  0  0  0  0  0  0
   10.0121  -18.5224   27.1237 O   0  0  0  0  0  0  0  0  0  0  0  0
   11.1368  -17.3947   28.7169 O   0  0  0  0  0  0  0  0  0  0  0  0
  2  1  1  6
  2  7  1  0
  2  3  1  0
  4  3  1  0
  5  4  1  0
  5  6  2  0
  7  8  2  0
  9  5  1  0
 10 11  1  0
 12 11  1  1
 13 12  1  0
 13  7  1  0
 14 12  1  0
 14 15  2  0
 16 14  1  0
 17 16  1  0
 17 28  1  0
 17 18  1  1
 19 27  1  0
 19 18  1  0
 20 19  2  0
 21 20  1  0
 21 22  1  0
 22 27  2  0
 23 22  1  0
 23 24  2  0
 24 25  1  0
 25 26  2  0
 27 26  1  0
 28 29  2  0
 28 30  1  0
M  END
$$$$
