ESW.pdb
     RDKit          3D

 30 31  0  0  1  0  0  0  0  0999 V2000
   10.4456  -13.9667   19.4902 N   0  0  0  0  0  0  0  0  0  0  0  0
    9.1422  -13.9543   20.0014 C   0  0  1  0  0  0  0  0  0  0  0  0
    8.1051  -14.0448   18.9498 C   0  0  0  0  0  0  0  0  0  0  0  0
    8.5278  -14.3644   17.5627 C   0  0  0  0  0  0  0  0  0  0  0  0
    7.4887  -14.5914   16.5682 C   0  0  0  0  0  0  0  0  0  0  0  0
    6.9266  -15.6870   16.3256 O   0  0  0  0  0  0  0  0  0  0  0  0
    8.9176  -14.9650   21.0877 C   0  0  0  0  0  0  0  0  0  0  0  0
    7.7787  -15.0261   21.6068 O   0  0  0  0  0  0  0  0  0  0  0  0
    7.0027  -13.5383   15.7494 O   0  0  0  0  0  0  0  0  0  0  0  0
   11.6843  -18.2012   21.6111 O   0  0  0  0  0  0  0  0  0  0  0  0
   10.4265  -18.1740   22.1268 C   0  0  0  0  0  0  0  0  0  0  0  0
    9.8494  -16.8539   22.4881 C   0  0  2  0  0  0  0  0  0  0  0  0
    9.9687  -15.8103   21.4976 N   0  0  0  0  0  0  0  0  0  0  0  0
   10.1686  -16.3770   23.8420 C   0  0  0  0  0  0  0  0  0  0  0  0
   11.0576  -15.4855   24.0587 O   0  0  0  0  0  0  0  0  0  0  0  0
    9.5166  -16.8617   25.0048 N   0  0  0  0  0  0  0  0  0  0  0  0
    9.9711  -16.3853   26.3504 C   0  0  1  0  0  0  0  0  0  0  0  0
    8.6833  -16.0851   27.0731 C   0  0  0  0  0  0  0  0  0  0  0  0
    7.6942  -15.3129   26.3438 C   0  0  0  0  0  0  0  0  0  0  0  0
    6.6971  -15.6523   25.4724 C   0  0  0  0  0  0  0  0  0  0  0  0
    6.0162  -14.5416   25.0905 N   0  0  0  0  0  0  0  0  0  0  0  0
    6.5507  -13.4425   25.7042 C   0  0  0  0  0  0  0  0  0  0  0  0
    6.2330  -12.1031   25.6662 C   0  0  0  0  0  0  0  0  0  0  0  0
    6.9412  -11.1917   26.4043 C   0  0  0  0  0  0  0  0  0  0  0  0
    7.9701  -11.6530   27.1773 C   0  0  0  0  0  0  0  0  0  0  0  0
    8.3010  -12.9961   27.2236 C   0  0  0  0  0  0  0  0  0  0  0  0
    7.5860  -13.9258   26.4766 C   0  0  0  0  0  0  0  0  0  0  0  0
   10.6781  -17.4702   27.0382 C   0  0  0  0  0  0  0  0  0  0  0  0
   11.1280  -17.3265   28.1844 O   0  0  0  0  0  0  0  0  0  0  0  0
   10.8565  -18.6854   26.4083 O   0  0  0  0  0  0  0  0  0  0  0  0
  2  1  1  6
  2  7  1  0
  2  3  1  0
  4  3  1  0
  5  4  1  0
  5  6  2  0
  7  8  2  0
  9  5  1  0
 10 11  1  0
 12 11  1  6
 13 12  1  0
 13  7  1  0
 14 12  1  0
 14 15  2  0
 16 14  1  0
 17 16  1  0
 17 28  1  0
 17 18  1  1
 19 27  1  0
 19 18  1  0
 20 19  2  0
 21 20  1  0
 21 22  1  0
 22 27  2  0
 23 22  1  0
 23 24  2  0
 24 25  1  0
 25 26  2  0
 27 26  1  0
 28 29  2  0
 28 30  1  0
M  END
$$$$
