ESW.pdb
     RDKit          3D

 30 31  0  0  1  0  0  0  0  0999 V2000
   10.8756  -17.9837   17.6308 N   0  0  0  0  0  0  0  0  0  0  0  0
   11.0869  -18.6911   18.8204 C   0  0  1  0  0  0  0  0  0  0  0  0
   12.5185  -18.9340   19.1052 C   0  0  0  0  0  0  0  0  0  0  0  0
   13.4253  -17.7646   19.2286 C   0  0  0  0  0  0  0  0  0  0  0  0
   14.8495  -18.0202   19.3922 C   0  0  0  0  0  0  0  0  0  0  0  0
   15.7501  -17.1502   19.4757 O   0  0  0  0  0  0  0  0  0  0  0  0
   10.3817  -18.0940   20.0029 C   0  0  0  0  0  0  0  0  0  0  0  0
   10.4902  -16.8597   20.1900 O   0  0  0  0  0  0  0  0  0  0  0  0
   15.3615  -19.3419   19.4737 O   0  0  0  0  0  0  0  0  0  0  0  0
    8.1550  -20.4845   23.1049 O   0  0  0  0  0  0  0  0  0  0  0  0
    7.7640  -19.3551   22.4566 C   0  0  0  0  0  0  0  0  0  0  0  0
    8.8193  -18.4339   21.9626 C   0  0  2  0  0  0  0  0  0  0  0  0
    9.6255  -18.9137   20.8652 N   0  0  0  0  0  0  0  0  0  0  0  0
    9.6271  -17.7851   23.0062 C   0  0  0  0  0  0  0  0  0  0  0  0
   10.8774  -18.0109   23.1391 O   0  0  0  0  0  0  0  0  0  0  0  0
    9.0872  -16.8612   23.9373 N   0  0  0  0  0  0  0  0  0  0  0  0
    9.9781  -16.2821   24.9934 C   0  0  1  0  0  0  0  0  0  0  0  0
    9.4863  -14.8646   25.1329 C   0  0  0  0  0  0  0  0  0  0  0  0
    8.0709  -14.6920   25.4033 C   0  0  0  0  0  0  0  0  0  0  0  0
    7.0183  -15.5612   25.4769 C   0  0  0  0  0  0  0  0  0  0  0  0
    5.8835  -14.8900   25.8006 N   0  0  0  0  0  0  0  0  0  0  0  0
    6.1642  -13.5596   25.9487 C   0  0  0  0  0  0  0  0  0  0  0  0
    5.3868  -12.4704   26.2738 C   0  0  0  0  0  0  0  0  0  0  0  0
    5.9352  -11.2184   26.3671 C   0  0  0  0  0  0  0  0  0  0  0  0
    7.2747  -11.0854   26.1277 C   0  0  0  0  0  0  0  0  0  0  0  0
    8.0671  -12.1713   25.7986 C   0  0  0  0  0  0  0  0  0  0  0  0
    7.5162  -13.4445   25.7023 C   0  0  0  0  0  0  0  0  0  0  0  0
    9.7691  -17.0002   26.2546 C   0  0  0  0  0  0  0  0  0  0  0  0
    8.8285  -17.7946   26.4001 O   0  0  0  0  0  0  0  0  0  0  0  0
   10.6296  -16.7974   27.3146 O   0  0  0  0  0  0  0  0  0  0  0  0
  2  1  1  6
  2  7  1  0
  2  3  1  0
  4  3  1  0
  5  4  1  0
  5  6  2  0
  7  8  2  0
  9  5  1  0
 10 11  1  0
 12 11  1  1
 13 12  1  0
 13  7  1  0
 14 12  1  0
 14 15  2  0
 16 14  1  0
 17 16  1  0
 17 28  1  0
 17 18  1  1
 19 27  1  0
 19 18  1  0
 20 19  2  0
 21 20  1  0
 21 22  1  0
 22 27  2  0
 23 22  1  0
 23 24  2  0
 24 25  1  0
 25 26  2  0
 27 26  1  0
 28 29  2  0
 28 30  1  0
M  END
$$$$
