ESW.pdb
     RDKit          3D

 30 31  0  0  1  0  0  0  0  0999 V2000
   12.1762  -16.3292   18.7125 N   0  0  0  0  0  0  0  0  0  0  0  0
   10.8357  -16.6782   18.9160 C   0  0  1  0  0  0  0  0  0  0  0  0
   10.6100  -18.1406   18.9169 C   0  0  0  0  0  0  0  0  0  0  0  0
   11.2376  -18.9543   19.9887 C   0  0  0  0  0  0  0  0  0  0  0  0
   10.9292  -20.3767   20.0345 C   0  0  0  0  0  0  0  0  0  0  0  0
   10.1934  -20.9982   19.2299 O   0  0  0  0  0  0  0  0  0  0  0  0
   10.2250  -16.0239   20.1206 C   0  0  0  0  0  0  0  0  0  0  0  0
   10.9967  -15.5281   20.9743 O   0  0  0  0  0  0  0  0  0  0  0  0
   11.4621  -21.2191   21.0455 O   0  0  0  0  0  0  0  0  0  0  0  0
    6.1077  -16.9679   21.2866 O   0  0  0  0  0  0  0  0  0  0  0  0
    6.6532  -15.7348   21.4610 C   0  0  0  0  0  0  0  0  0  0  0  0
    8.1342  -15.6248   21.4868 C   0  0  2  0  0  0  0  0  0  0  0  0
    8.8238  -15.9792   20.2689 N   0  0  0  0  0  0  0  0  0  0  0  0
    8.7861  -16.1849   22.6801 C   0  0  0  0  0  0  0  0  0  0  0  0
   10.0289  -16.0140   22.9213 O   0  0  0  0  0  0  0  0  0  0  0  0
    8.0911  -16.9491   23.6522 N   0  0  0  0  0  0  0  0  0  0  0  0
    8.7759  -17.2911   24.9400 C   0  0  1  0  0  0  0  0  0  0  0  0
    8.9264  -15.9579   25.6257 C   0  0  0  0  0  0  0  0  0  0  0  0
    7.7061  -15.2099   25.8664 C   0  0  0  0  0  0  0  0  0  0  0  0
    6.3849  -15.5592   25.9024 C   0  0  0  0  0  0  0  0  0  0  0  0
    5.6265  -14.4762   26.2105 N   0  0  0  0  0  0  0  0  0  0  0  0
    6.4337  -13.3861   26.3857 C   0  0  0  0  0  0  0  0  0  0  0  0
    6.1746  -12.0730   26.7098 C   0  0  0  0  0  0  0  0  0  0  0  0
    7.1936  -11.1659   26.8350 C   0  0  0  0  0  0  0  0  0  0  0  0
    8.4719  -11.6045   26.6284 C   0  0  0  0  0  0  0  0  0  0  0  0
    8.7461  -12.9209   26.3006 C   0  0  0  0  0  0  0  0  0  0  0  0
    7.7161  -13.8462   26.1720 C   0  0  0  0  0  0  0  0  0  0  0  0
    7.9049  -18.1583   25.7395 C   0  0  0  0  0  0  0  0  0  0  0  0
    8.2543  -18.5797   26.8519 O   0  0  0  0  0  0  0  0  0  0  0  0
    6.6647  -18.5244   25.2565 O   0  0  0  0  0  0  0  0  0  0  0  0
  2  1  1  1
  2  7  1  0
  2  3  1  0
  4  3  1  0
  5  4  1  0
  5  6  2  0
  7  8  2  0
  9  5  1  0
 10 11  1  0
 12 11  1  6
 13 12  1  0
 13  7  1  0
 14 12  1  0
 14 15  2  0
 16 14  1  0
 17 16  1  0
 17 28  1  0
 17 18  1  1
 19 27  1  0
 19 18  1  0
 20 19  2  0
 21 20  1  0
 21 22  1  0
 22 27  2  0
 23 22  1  0
 23 24  2  0
 24 25  1  0
 25 26  2  0
 27 26  1  0
 28 29  2  0
 28 30  1  0
M  END
$$$$
