ESW.pdb
     RDKit          3D

 30 31  0  0  1  0  0  0  0  0999 V2000
    8.6017  -18.0988   17.5984 N   0  0  0  0  0  0  0  0  0  0  0  0
    9.5779  -17.8003   18.5566 C   0  0  1  0  0  0  0  0  0  0  0  0
   10.6147  -16.8691   18.0589 C   0  0  0  0  0  0  0  0  0  0  0  0
   11.0175  -16.9536   16.6323 C   0  0  0  0  0  0  0  0  0  0  0  0
   12.1435  -16.1416   16.1923 C   0  0  0  0  0  0  0  0  0  0  0  0
   12.1243  -15.2930   15.2680 O   0  0  0  0  0  0  0  0  0  0  0  0
    9.0075  -17.3432   19.8672 C   0  0  0  0  0  0  0  0  0  0  0  0
    8.0837  -16.4968   19.8426 O   0  0  0  0  0  0  0  0  0  0  0  0
   13.4202  -16.2504   16.8037 O   0  0  0  0  0  0  0  0  0  0  0  0
    8.6333  -20.1755   22.8796 O   0  0  0  0  0  0  0  0  0  0  0  0
    8.0003  -18.9846   22.7073 C   0  0  0  0  0  0  0  0  0  0  0  0
    8.8246  -17.8024   22.3477 C   0  0  2  0  0  0  0  0  0  0  0  0
    9.5095  -17.8618   21.0782 N   0  0  0  0  0  0  0  0  0  0  0  0
    9.6852  -17.2851   23.4221 C   0  0  0  0  0  0  0  0  0  0  0  0
   10.9602  -17.3212   23.3511 O   0  0  0  0  0  0  0  0  0  0  0  0
    9.1719  -16.7054   24.6106 N   0  0  0  0  0  0  0  0  0  0  0  0
   10.1134  -16.3705   25.7267 C   0  0  1  0  0  0  0  0  0  0  0  0
    9.2543  -15.5990   26.6948 C   0  0  0  0  0  0  0  0  0  0  0  0
    7.9457  -15.1901   26.2185 C   0  0  0  0  0  0  0  0  0  0  0  0
    6.8138  -15.8788   25.8822 C   0  0  0  0  0  0  0  0  0  0  0  0
    5.8320  -15.0122   25.5242 N   0  0  0  0  0  0  0  0  0  0  0  0
    6.2965  -13.7292   25.6176 C   0  0  0  0  0  0  0  0  0  0  0  0
    5.7138  -12.5041   25.3808 C   0  0  0  0  0  0  0  0  0  0  0  0
    6.4176  -11.3435   25.5670 C   0  0  0  0  0  0  0  0  0  0  0  0
    7.7127  -11.4402   25.9940 C   0  0  0  0  0  0  0  0  0  0  0  0
    8.3109  -12.6649   26.2342 C   0  0  0  0  0  0  0  0  0  0  0  0
    7.6018  -13.8463   26.0470 C   0  0  0  0  0  0  0  0  0  0  0  0
   10.5769  -17.6085   26.3611 C   0  0  0  0  0  0  0  0  0  0  0  0
   10.0648  -18.7053   26.0933 O   0  0  0  0  0  0  0  0  0  0  0  0
   11.6053  -17.5690   27.2810 O   0  0  0  0  0  0  0  0  0  0  0  0
  2  1  1  6
  2  7  1  0
  2  3  1  0
  4  3  1  0
  5  4  1  0
  5  6  2  0
  7  8  2  0
  9  5  1  0
 10 11  1  0
 12 11  1  1
 13 12  1  0
 13  7  1  0
 14 12  1  0
 14 15  2  0
 16 14  1  0
 17 16  1  0
 17 28  1  0
 17 18  1  1
 19 27  1  0
 19 18  1  0
 20 19  2  0
 21 20  1  0
 21 22  1  0
 22 27  2  0
 23 22  1  0
 23 24  2  0
 24 25  1  0
 25 26  2  0
 27 26  1  0
 28 29  2  0
 28 30  1  0
M  END
$$$$
