IVQ.pdb
     RDKit          3D

 25 24  0  0  1  0  0  0  0  0999 V2000
   27.1056  -18.4324  -16.3186 C   0  0  0  0  0  0  0  0  0  0  0  0
   26.2184  -17.3746  -16.9393 C   0  0  0  0  0  0  0  0  0  0  0  0
   26.4832  -16.0312  -16.3187 C   0  0  2  0  0  0  0  0  0  0  0  0
   26.3736  -16.1452  -14.8090 C   0  0  0  0  0  0  0  0  0  0  0  0
   25.6463  -14.9248  -16.8642 C   0  0  2  0  0  0  0  0  0  0  0  0
   25.7522  -14.9068  -18.2847 N   0  0  0  0  0  0  0  0  0  0  0  0
   26.0362  -13.5813  -16.3291 C   0  0  0  0  0  0  0  0  0  0  0  0
   25.9877  -13.3577  -15.0927 O   0  0  0  0  0  0  0  0  0  0  0  0
   29.1753  -11.5170  -16.9032 C   0  0  0  0  0  0  0  0  0  0  0  0
   28.0470  -10.7342  -17.5451 C   0  0  2  0  0  0  0  0  0  0  0  0
   28.3107   -9.2857  -17.2295 C   0  0  0  0  0  0  0  0  0  0  0  0
   26.7464  -11.2004  -16.9897 C   0  0  2  0  0  0  0  0  0  0  0  0
   26.4476  -12.6013  -17.2255 N   0  0  0  0  0  0  0  0  0  0  0  0
   25.5561  -10.4064  -17.2364 C   0  0  0  0  0  0  0  0  0  0  0  0
   25.0213  -10.4689  -18.4104 O   0  0  0  0  0  0  0  0  0  0  0  0
   19.7736   -6.8585  -15.5084 N   0  0  0  0  0  0  0  0  0  0  0  0
   20.3798   -8.1213  -15.5698 C   0  0  0  0  0  0  0  0  0  0  0  0
   20.1755   -8.9677  -14.6898 O   0  0  0  0  0  0  0  0  0  0  0  0
   21.2802   -8.4488  -16.7066 C   0  0  0  0  0  0  0  0  0  0  0  0
   22.4400   -9.3015  -16.2704 C   0  0  0  0  0  0  0  0  0  0  0  0
   23.7150   -8.7344  -16.7791 C   0  0  2  0  0  0  0  0  0  0  0  0
   24.8643   -9.5472  -16.3542 N   0  0  0  0  0  0  0  0  0  0  0  0
   23.8919   -7.3366  -16.3978 C   0  0  0  0  0  0  0  0  0  0  0  0
   23.1374   -6.4207  -16.9167 O   0  0  0  0  0  0  0  0  0  0  0  0
   24.8103   -6.8307  -15.4998 O   0  0  0  0  0  0  0  0  0  0  0  0
  1  2  1  0
  3  2  1  0
  3  5  1  0
  3  4  1  1
  5  6  1  6
  7  5  1  0
  7  8  2  0
 10  9  1  1
 10 12  1  0
 11 10  1  0
 12 13  1  6
 12 14  1  0
 13  7  1  0
 14 22  1  0
 15 14  2  0
 17 16  1  0
 17 19  1  0
 18 17  2  0
 20 19  1  0
 21 20  1  1
 21 23  1  0
 22 21  1  0
 23 24  2  0
 23 25  1  0
M  END
$$$$
