IVQ.pdb
     RDKit          3D

 25 24  0  0  1  0  0  0  0  0999 V2000
   27.5477  -11.7588  -15.6044 C   0  0  0  0  0  0  0  0  0  0  0  0
   26.3394  -12.6701  -15.6319 C   0  0  0  0  0  0  0  0  0  0  0  0
   25.1092  -11.9058  -16.0350 C   0  0  2  0  0  0  0  0  0  0  0  0
   24.9367  -10.7109  -15.1149 C   0  0  0  0  0  0  0  0  0  0  0  0
   23.8721  -12.7326  -16.1255 C   0  0  2  0  0  0  0  0  0  0  0  0
   24.1531  -13.9276  -16.8484 N   0  0  0  0  0  0  0  0  0  0  0  0
   22.7392  -12.0146  -16.7919 C   0  0  0  0  0  0  0  0  0  0  0  0
   22.7669  -11.8082  -18.0319 O   0  0  0  0  0  0  0  0  0  0  0  0
   18.8793  -12.4555  -15.4751 C   0  0  0  0  0  0  0  0  0  0  0  0
   19.2946  -11.6874  -16.7141 C   0  0  2  0  0  0  0  0  0  0  0  0
   19.5969  -12.7219  -17.7657 C   0  0  0  0  0  0  0  0  0  0  0  0
   20.4827  -10.8475  -16.3972 C   0  0  2  0  0  0  0  0  0  0  0  0
   21.6702  -11.5883  -16.0117 N   0  0  0  0  0  0  0  0  0  0  0  0
   20.3175   -9.7086  -15.5119 C   0  0  0  0  0  0  0  0  0  0  0  0
   20.9364   -9.7302  -14.3785 O   0  0  0  0  0  0  0  0  0  0  0  0
   23.2634   -5.1756  -15.3289 N   0  0  0  0  0  0  0  0  0  0  0  0
   22.3699   -4.7463  -14.3374 C   0  0  0  0  0  0  0  0  0  0  0  0
   22.6353   -3.7716  -13.6217 O   0  0  0  0  0  0  0  0  0  0  0  0
   21.0864   -5.4707  -14.1424 C   0  0  0  0  0  0  0  0  0  0  0  0
   20.9580   -6.6386  -15.0815 C   0  0  0  0  0  0  0  0  0  0  0  0
   19.6804   -7.3560  -14.8382 C   0  0  2  0  0  0  0  0  0  0  0  0
   19.5587   -8.5338  -15.7100 N   0  0  0  0  0  0  0  0  0  0  0  0
   18.5190   -6.4822  -14.9723 C   0  0  0  0  0  0  0  0  0  0  0  0
   18.0695   -5.8358  -13.9439 O   0  0  0  0  0  0  0  0  0  0  0  0
   17.7940   -6.2352  -16.1208 O   0  0  0  0  0  0  0  0  0  0  0  0
  1  2  1  0
  3  2  1  0
  3  5  1  0
  3  4  1  1
  5  6  1  6
  7  5  1  0
  7  8  2  0
 10  9  1  1
 10 12  1  0
 11 10  1  0
 12 13  1  1
 12 14  1  0
 13  7  1  0
 14 22  1  0
 15 14  2  0
 17 16  1  0
 17 19  1  0
 18 17  2  0
 20 19  1  0
 21 20  1  6
 21 23  1  0
 22 21  1  0
 23 24  2  0
 23 25  1  0
M  END
$$$$
