IVQ.pdb
     RDKit          3D

 25 24  0  0  1  0  0  0  0  0999 V2000
   16.7470  -13.6997  -20.4527 C   0  0  0  0  0  0  0  0  0  0  0  0
   18.0494  -14.3109  -19.9821 C   0  0  0  0  0  0  0  0  0  0  0  0
   18.6187  -13.5245  -18.8343 C   0  0  2  0  0  0  0  0  0  0  0  0
   18.7940  -12.0767  -19.2557 C   0  0  0  0  0  0  0  0  0  0  0  0
   19.8651  -14.0985  -18.2522 C   0  0  2  0  0  0  0  0  0  0  0  0
   19.6442  -15.4644  -17.9134 N   0  0  0  0  0  0  0  0  0  0  0  0
   20.3312  -13.3631  -17.0335 C   0  0  0  0  0  0  0  0  0  0  0  0
   19.6674  -13.4267  -15.9675 O   0  0  0  0  0  0  0  0  0  0  0  0
   23.8861  -13.3830  -15.4947 C   0  0  0  0  0  0  0  0  0  0  0  0
   23.6054  -11.9711  -15.9699 C   0  0  2  0  0  0  0  0  0  0  0  0
   24.1988  -11.0551  -14.9326 C   0  0  0  0  0  0  0  0  0  0  0  0
   22.1349  -11.7818  -16.1085 C   0  0  2  0  0  0  0  0  0  0  0  0
   21.5025  -12.6182  -17.1125 N   0  0  0  0  0  0  0  0  0  0  0  0
   21.6102  -10.4316  -16.2070 C   0  0  0  0  0  0  0  0  0  0  0  0
   21.8059   -9.7867  -17.3088 O   0  0  0  0  0  0  0  0  0  0  0  0
   18.4343   -7.3666  -18.0270 N   0  0  0  0  0  0  0  0  0  0  0  0
   18.2927   -6.3808  -17.0401 C   0  0  0  0  0  0  0  0  0  0  0  0
   17.8951   -5.2447  -17.3292 O   0  0  0  0  0  0  0  0  0  0  0  0
   18.6245   -6.7036  -15.6273 C   0  0  0  0  0  0  0  0  0  0  0  0
   19.0090   -8.1483  -15.4618 C   0  0  0  0  0  0  0  0  0  0  0  0
   20.4874   -8.2906  -15.4655 C   0  0  2  0  0  0  0  0  0  0  0  0
   20.8866   -9.6889  -15.2478 N   0  0  0  0  0  0  0  0  0  0  0  0
   21.1325   -7.4050  -14.5011 C   0  0  0  0  0  0  0  0  0  0  0  0
   21.3323   -7.8034  -13.2850 O   0  0  0  0  0  0  0  0  0  0  0  0
   21.5893   -6.1221  -14.7278 O   0  0  0  0  0  0  0  0  0  0  0  0
  1  2  1  0
  3  2  1  0
  3  5  1  0
  3  4  1  6
  5  6  1  1
  7  5  1  0
  7  8  2  0
 10  9  1  1
 10 12  1  0
 11 10  1  0
 12 13  1  6
 12 14  1  0
 13  7  1  0
 14 22  1  0
 15 14  2  0
 17 16  1  0
 17 19  1  0
 18 17  2  0
 20 19  1  0
 21 20  1  1
 21 23  1  0
 22 21  1  0
 23 24  2  0
 23 25  1  0
M  END
$$$$
