IVQ.pdb
     RDKit          3D

 25 24  0  0  1  0  0  0  0  0999 V2000
   14.4443  -11.7538  -16.2439 C   0  0  0  0  0  0  0  0  0  0  0  0
   15.8989  -11.3581  -16.3810 C   0  0  0  0  0  0  0  0  0  0  0  0
   16.4012  -10.7389  -15.1065 C   0  0  2  0  0  0  0  0  0  0  0  0
   15.5020   -9.5771  -14.7246 C   0  0  0  0  0  0  0  0  0  0  0  0
   17.8410  -10.3539  -15.1342 C   0  0  2  0  0  0  0  0  0  0  0  0
   18.6230  -11.4739  -15.5387 N   0  0  0  0  0  0  0  0  0  0  0  0
   18.3387   -9.8648  -13.8089 C   0  0  0  0  0  0  0  0  0  0  0  0
   18.5608  -10.6818  -12.8793 O   0  0  0  0  0  0  0  0  0  0  0  0
   21.4524   -8.0855  -12.9669 C   0  0  0  0  0  0  0  0  0  0  0  0
   20.3534   -7.0697  -12.7261 C   0  0  2  0  0  0  0  0  0  0  0  0
   20.7833   -6.2644  -11.5287 C   0  0  0  0  0  0  0  0  0  0  0  0
   19.0677   -7.7827  -12.4889 C   0  0  2  0  0  0  0  0  0  0  0  0
   18.5455   -8.5007  -13.6375 N   0  0  0  0  0  0  0  0  0  0  0  0
   17.9849   -7.0717  -11.8329 C   0  0  0  0  0  0  0  0  0  0  0  0
   17.2497   -6.2926  -12.5544 O   0  0  0  0  0  0  0  0  0  0  0  0
   13.4924   -8.6246   -8.0301 N   0  0  0  0  0  0  0  0  0  0  0  0
   13.2619   -7.2486   -8.1698 C   0  0  0  0  0  0  0  0  0  0  0  0
   12.2167   -6.7337   -7.7513 O   0  0  0  0  0  0  0  0  0  0  0  0
   14.2859   -6.3960   -8.8291 C   0  0  0  0  0  0  0  0  0  0  0  0
   15.4879   -7.1956   -9.2515 C   0  0  0  0  0  0  0  0  0  0  0  0
   16.4626   -6.3248   -9.9569 C   0  0  2  0  0  0  0  0  0  0  0  0
   17.5945   -7.1068  -10.4759 N   0  0  0  0  0  0  0  0  0  0  0  0
   16.9268   -5.2214   -9.1218 C   0  0  0  0  0  0  0  0  0  0  0  0
   18.0456   -5.3202   -8.4768 O   0  0  0  0  0  0  0  0  0  0  0  0
   16.2950   -4.0109   -8.9186 O   0  0  0  0  0  0  0  0  0  0  0  0
  1  2  1  0
  3  2  1  0
  3  5  1  0
  3  4  1  6
  5  6  1  1
  7  5  1  0
  7  8  2  0
 10  9  1  1
 10 12  1  0
 11 10  1  0
 12 13  1  6
 12 14  1  0
 13  7  1  0
 14 22  1  0
 15 14  2  0
 17 16  1  0
 17 19  1  0
 18 17  2  0
 20 19  1  0
 21 20  1  1
 21 23  1  0
 22 21  1  0
 23 24  2  0
 23 25  1  0
M  END
$$$$
