IVQ.pdb
     RDKit          3D

 25 24  0  0  1  0  0  0  0  0999 V2000
   19.5675  -20.8007  -17.6058 C   0  0  0  0  0  0  0  0  0  0  0  0
   20.9614  -20.8248  -17.0162 C   0  0  0  0  0  0  0  0  0  0  0  0
   21.3700  -19.4494  -16.5673 C   0  0  2  0  0  0  0  0  0  0  0  0
   21.1543  -18.4659  -17.7033 C   0  0  0  0  0  0  0  0  0  0  0  0
   22.7478  -19.3690  -16.0040 C   0  0  2  0  0  0  0  0  0  0  0  0
   22.8969  -20.3440  -14.9762 N   0  0  0  0  0  0  0  0  0  0  0  0
   23.0703  -18.0176  -15.4446 C   0  0  0  0  0  0  0  0  0  0  0  0
   22.5717  -17.6543  -14.3490 O   0  0  0  0  0  0  0  0  0  0  0  0
   26.5439  -16.3548  -14.9302 C   0  0  0  0  0  0  0  0  0  0  0  0
   25.8080  -15.5818  -16.0067 C   0  0  2  0  0  0  0  0  0  0  0  0
   26.1603  -14.1331  -15.7961 C   0  0  0  0  0  0  0  0  0  0  0  0
   24.3451  -15.8271  -15.8757 C   0  0  2  0  0  0  0  0  0  0  0  0
   23.9250  -17.1871  -16.1608 N   0  0  0  0  0  0  0  0  0  0  0  0
   23.4218  -14.8971  -16.5009 C   0  0  0  0  0  0  0  0  0  0  0  0
   23.3411  -14.9012  -17.7899 O   0  0  0  0  0  0  0  0  0  0  0  0
   17.6541  -13.0910  -15.3501 N   0  0  0  0  0  0  0  0  0  0  0  0
   17.9731  -12.3012  -16.4637 C   0  0  0  0  0  0  0  0  0  0  0  0
   17.0996  -11.6513  -17.0531 O   0  0  0  0  0  0  0  0  0  0  0  0
   19.3789  -12.2429  -16.9438 C   0  0  0  0  0  0  0  0  0  0  0  0
   20.2874  -13.1061  -16.1122 C   0  0  0  0  0  0  0  0  0  0  0  0
   21.6654  -13.0855  -16.6663 C   0  0  2  0  0  0  0  0  0  0  0  0
   22.5619  -13.9564  -15.8919 N   0  0  0  0  0  0  0  0  0  0  0  0
   22.2041  -11.7324  -16.7637 C   0  0  0  0  0  0  0  0  0  0  0  0
   23.0524  -11.3055  -15.8830 O   0  0  0  0  0  0  0  0  0  0  0  0
   21.9146  -10.7910  -17.7310 O   0  0  0  0  0  0  0  0  0  0  0  0
  1  2  1  0
  3  2  1  0
  3  5  1  0
  3  4  1  6
  5  6  1  1
  7  5  1  0
  7  8  2  0
 10  9  1  1
 10 12  1  0
 11 10  1  0
 12 13  1  6
 12 14  1  0
 13  7  1  0
 14 22  1  0
 15 14  2  0
 17 16  1  0
 17 19  1  0
 18 17  2  0
 20 19  1  0
 21 20  1  1
 21 23  1  0
 22 21  1  0
 23 24  2  0
 23 25  1  0
M  END
$$$$
