IVQ.pdb
     RDKit          3D

 25 24  0  0  1  0  0  0  0  0999 V2000
   16.6671  -27.3113   -8.5035 C   0  0  0  0  0  0  0  0  0  0  0  0
   17.7587  -26.6137   -7.7205 C   0  0  0  0  0  0  0  0  0  0  0  0
   18.0317  -25.2506   -8.2926 C   0  0  2  0  0  0  0  0  0  0  0  0
   18.4033  -25.3866   -9.7582 C   0  0  0  0  0  0  0  0  0  0  0  0
   19.0304  -24.4502   -7.5283 C   0  0  2  0  0  0  0  0  0  0  0  0
   18.5894  -24.3040   -6.1817 N   0  0  0  0  0  0  0  0  0  0  0  0
   19.2612  -23.0921   -8.1160 C   0  0  0  0  0  0  0  0  0  0  0  0
   18.3820  -22.2001   -8.0044 O   0  0  0  0  0  0  0  0  0  0  0  0
   22.5931  -21.0698   -7.6361 C   0  0  0  0  0  0  0  0  0  0  0  0
   22.3909  -21.3320   -9.1153 C   0  0  2  0  0  0  0  0  0  0  0  0
   22.8566  -20.0899   -9.8277 C   0  0  0  0  0  0  0  0  0  0  0  0
   20.9524  -21.6186   -9.3721 C   0  0  2  0  0  0  0  0  0  0  0  0
   20.4584  -22.8483   -8.7796 N   0  0  0  0  0  0  0  0  0  0  0  0
   20.4476  -21.5013  -10.7284 C   0  0  0  0  0  0  0  0  0  0  0  0
   20.6659  -22.4814  -11.5407 O   0  0  0  0  0  0  0  0  0  0  0  0
   15.9933  -17.8918  -13.4961 N   0  0  0  0  0  0  0  0  0  0  0  0
   16.3463  -18.8130  -14.4923 C   0  0  0  0  0  0  0  0  0  0  0  0
   15.7540  -18.8316  -15.5793 O   0  0  0  0  0  0  0  0  0  0  0  0
   17.4466  -19.7807  -14.2407 C   0  0  0  0  0  0  0  0  0  0  0  0
   18.0167  -19.6281  -12.8572 C   0  0  0  0  0  0  0  0  0  0  0  0
   19.2058  -20.5025  -12.6919 C   0  0  2  0  0  0  0  0  0  0  0  0
   19.7224  -20.4414  -11.3166 N   0  0  0  0  0  0  0  0  0  0  0  0
   20.2555  -20.2008  -13.6601 C   0  0  0  0  0  0  0  0  0  0  0  0
   21.1315  -19.2817  -13.4041 O   0  0  0  0  0  0  0  0  0  0  0  0
   20.4530  -20.8043  -14.8859 O   0  0  0  0  0  0  0  0  0  0  0  0
  1  2  1  0
  3  2  1  0
  3  5  1  0
  3  4  1  6
  5  6  1  1
  7  5  1  0
  7  8  2  0
 10  9  1  1
 10 12  1  0
 11 10  1  0
 12 13  1  6
 12 14  1  0
 13  7  1  0
 14 22  1  0
 15 14  2  0
 17 16  1  0
 17 19  1  0
 18 17  2  0
 20 19  1  0
 21 20  1  1
 21 23  1  0
 22 21  1  0
 23 24  2  0
 23 25  1  0
M  END
$$$$
