IVQ.pdb
     RDKit          3D

 25 24  0  0  1  0  0  0  0  0999 V2000
   19.1136  -15.7926  -18.3174 C   0  0  0  0  0  0  0  0  0  0  0  0
   19.6188  -14.7451  -17.3484 C   0  0  0  0  0  0  0  0  0  0  0  0
   19.0930  -13.3858  -17.7170 C   0  0  2  0  0  0  0  0  0  0  0  0
   19.4165  -13.1002  -19.1723 C   0  0  0  0  0  0  0  0  0  0  0  0
   19.5378  -12.2872  -16.8130 C   0  0  2  0  0  0  0  0  0  0  0  0
   19.2474  -12.6378  -15.4631 N   0  0  0  0  0  0  0  0  0  0  0  0
   18.8870  -10.9752  -17.1268 C   0  0  0  0  0  0  0  0  0  0  0  0
   18.9775  -10.4880  -18.2825 O   0  0  0  0  0  0  0  0  0  0  0  0
   15.7828   -9.6904  -14.4627 C   0  0  0  0  0  0  0  0  0  0  0  0
   15.9742   -9.2295  -15.8940 C   0  0  2  0  0  0  0  0  0  0  0  0
   15.3335  -10.2805  -16.7611 C   0  0  0  0  0  0  0  0  0  0  0  0
   17.4296   -9.0841  -16.1736 C   0  0  2  0  0  0  0  0  0  0  0  0
   18.1895  -10.3197  -16.1185 N   0  0  0  0  0  0  0  0  0  0  0  0
   18.1697   -8.0335  -15.4977 C   0  0  0  0  0  0  0  0  0  0  0  0
   18.8437   -8.3523  -14.4432 O   0  0  0  0  0  0  0  0  0  0  0  0
   22.2492   -6.5648  -13.7128 N   0  0  0  0  0  0  0  0  0  0  0  0
   22.1904   -5.1734  -13.8753 C   0  0  0  0  0  0  0  0  0  0  0  0
   22.8984   -4.4232  -13.1908 O   0  0  0  0  0  0  0  0  0  0  0  0
   21.2656   -4.5906  -14.8829 C   0  0  0  0  0  0  0  0  0  0  0  0
   20.4800   -5.6548  -15.5989 C   0  0  0  0  0  0  0  0  0  0  0  0
   19.0967   -5.7215  -15.0620 C   0  0  2  0  0  0  0  0  0  0  0  0
   18.2733   -6.6651  -15.8325 N   0  0  0  0  0  0  0  0  0  0  0  0
   18.4639   -4.4080  -14.9939 C   0  0  0  0  0  0  0  0  0  0  0  0
   18.4966   -3.7269  -13.8928 O   0  0  0  0  0  0  0  0  0  0  0  0
   17.7975   -3.7536  -16.0106 O   0  0  0  0  0  0  0  0  0  0  0  0
  1  2  1  0
  3  2  1  0
  3  5  1  0
  3  4  1  6
  5  6  1  1
  7  5  1  0
  7  8  2  0
 10  9  1  1
 10 12  1  0
 11 10  1  0
 12 13  1  1
 12 14  1  0
 13  7  1  0
 14 22  1  0
 15 14  2  0
 17 16  1  0
 17 19  1  0
 18 17  2  0
 20 19  1  0
 21 20  1  6
 21 23  1  0
 22 21  1  0
 23 24  2  0
 23 25  1  0
M  END
$$$$
