IVQ.pdb
     RDKit          3D

 25 24  0  0  1  0  0  0  0  0999 V2000
   18.8765  -17.8374  -18.7589 C   0  0  0  0  0  0  0  0  0  0  0  0
   19.9248  -16.8049  -19.1146 C   0  0  0  0  0  0  0  0  0  0  0  0
   20.0460  -15.7767  -18.0246 C   0  0  2  0  0  0  0  0  0  0  0  0
   18.6780  -15.1836  -17.7397 C   0  0  0  0  0  0  0  0  0  0  0  0
   21.0748  -14.7282  -18.2782 C   0  0  2  0  0  0  0  0  0  0  0  0
   22.2879  -15.3466  -18.6971 N   0  0  0  0  0  0  0  0  0  0  0  0
   21.3503  -13.8794  -17.0754 C   0  0  0  0  0  0  0  0  0  0  0  0
   20.4450  -13.6779  -16.2264 O   0  0  0  0  0  0  0  0  0  0  0  0
   25.2988  -12.0427  -16.9625 C   0  0  0  0  0  0  0  0  0  0  0  0
   24.5807  -12.4505  -15.6914 C   0  0  2  0  0  0  0  0  0  0  0  0
   25.0592  -13.8413  -15.3687 C   0  0  0  0  0  0  0  0  0  0  0  0
   23.1100  -12.4035  -15.9204 C   0  0  2  0  0  0  0  0  0  0  0  0
   22.6177  -13.3278  -16.9256 N   0  0  0  0  0  0  0  0  0  0  0  0
   22.4717  -11.1119  -16.1003 C   0  0  0  0  0  0  0  0  0  0  0  0
   22.4049  -10.6331  -17.2980 O   0  0  0  0  0  0  0  0  0  0  0  0
   17.8632   -8.9570  -17.6252 N   0  0  0  0  0  0  0  0  0  0  0  0
   18.2665   -7.7135  -17.1181 C   0  0  0  0  0  0  0  0  0  0  0  0
   17.7142   -6.6682  -17.4852 O   0  0  0  0  0  0  0  0  0  0  0  0
   19.3721   -7.6489  -16.1263 C   0  0  0  0  0  0  0  0  0  0  0  0
   19.9016   -9.0167  -15.7929 C   0  0  0  0  0  0  0  0  0  0  0  0
   21.3464   -8.9408  -15.4567 C   0  0  2  0  0  0  0  0  0  0  0  0
   21.8857  -10.2691  -15.1300 N   0  0  0  0  0  0  0  0  0  0  0  0
   21.6175   -7.9870  -14.3856 C   0  0  0  0  0  0  0  0  0  0  0  0
   21.7973   -8.4049  -13.1730 O   0  0  0  0  0  0  0  0  0  0  0  0
   21.7176   -6.6149  -14.5012 O   0  0  0  0  0  0  0  0  0  0  0  0
  1  2  1  0
  3  2  1  0
  3  5  1  0
  3  4  1  6
  5  6  1  1
  7  5  1  0
  7  8  2  0
 10  9  1  6
 10 12  1  0
 11 10  1  0
 12 13  1  6
 12 14  1  0
 13  7  1  0
 14 22  1  0
 15 14  2  0
 17 16  1  0
 17 19  1  0
 18 17  2  0
 20 19  1  0
 21 20  1  1
 21 23  1  0
 22 21  1  0
 23 24  2  0
 23 25  1  0
M  END
$$$$
