IAR.pdb
     RDKit          3D

 25 24  0  0  1  0  0  0  0  0999 V2000
   15.1763  -13.7049  -15.8808 C   0  0  0  0  0  0  0  0  0  0  0  0
   16.4196  -12.9325  -16.1560 C   0  0  0  0  0  0  0  0  0  0  0  0
   16.7257  -11.8141  -15.2317 C   0  0  2  0  0  0  0  0  0  0  0  0
   15.4878  -10.9715  -14.9708 C   0  0  0  0  0  0  0  0  0  0  0  0
   17.9705  -11.0480  -15.4476 C   0  0  2  0  0  0  0  0  0  0  0  0
   19.0881  -12.0195  -15.4225 N   0  0  0  0  0  0  0  0  0  0  0  0
   18.2682   -9.9629  -14.5077 C   0  0  0  0  0  0  0  0  0  0  0  0
   18.2558  -10.0802  -13.2584 O   0  0  0  0  0  0  0  0  0  0  0  0
   19.4829   -6.4059  -14.7941 C   0  0  0  0  0  0  0  0  0  0  0  0
   18.7419   -7.5716  -14.1425 C   0  0  2  0  0  0  0  0  0  0  0  0
   18.5963   -8.6806  -15.0203 N   0  0  0  0  0  0  0  0  0  0  0  0
   17.4393   -7.1094  -13.5757 C   0  0  0  0  0  0  0  0  0  0  0  0
   16.3848   -7.2195  -14.2518 O   0  0  0  0  0  0  0  0  0  0  0  0
   14.1757   -4.1622   -5.4468 N   0  0  0  0  0  0  0  0  0  0  0  0
   13.2182   -4.2301   -6.4769 C   0  0  0  0  0  0  0  0  0  0  0  0
   11.9733   -3.9982   -6.1703 N   0  0  0  0  0  0  0  0  0  0  0  0
   13.5400   -4.5376   -7.8287 N   0  0  0  0  0  0  0  0  0  0  0  0
   14.8615   -5.0795   -8.1893 C   0  0  0  0  0  0  0  0  0  0  0  0
   14.8660   -5.2624   -9.6602 C   0  0  0  0  0  0  0  0  0  0  0  0
   16.0685   -5.8362  -10.2867 C   0  0  0  0  0  0  0  0  0  0  0  0
   16.1076   -5.9514  -11.7656 C   0  0  2  0  0  0  0  0  0  0  0  0
   17.3314   -6.5379  -12.2791 N   0  0  0  0  0  0  0  0  0  0  0  0
   15.7455   -4.7196  -12.5016 C   0  0  0  0  0  0  0  0  0  0  0  0
   16.6089   -3.8782  -12.8452 O   0  0  0  0  0  0  0  0  0  0  0  0
   14.4289   -4.4608  -12.8343 O   0  0  0  0  0  0  0  0  0  0  0  0
  2  3  1  0
  2  1  1  0
  3  4  1  6
  5  3  1  0
  5  6  1  1
  7  5  1  0
  7  8  2  0
 10  9  1  6
 10 12  1  0
 11 10  1  0
 11  7  1  0
 12 13  2  0
 12 22  1  0
 15 16  2  0
 15 14  1  0
 17 15  1  0
 18 19  1  0
 18 17  1  0
 20 19  1  0
 21 20  1  1
 21 23  1  0
 22 21  1  0
 23 24  2  0
 23 25  1  0
M  END
$$$$
