IAR.pdb
     RDKit          3D

 25 24  0  0  1  0  0  0  0  0999 V2000
   32.6355  -22.3903  -10.6515 C   0  0  0  0  0  0  0  0  0  0  0  0
   31.6774  -21.2927  -10.9606 C   0  0  0  0  0  0  0  0  0  0  0  0
   30.3102  -21.6985  -11.3665 C   0  0  2  0  0  0  0  0  0  0  0  0
   30.3580  -22.8439  -12.3648 C   0  0  0  0  0  0  0  0  0  0  0  0
   29.3281  -20.6388  -11.6761 C   0  0  2  0  0  0  0  0  0  0  0  0
   29.5215  -19.5625  -10.6774 N   0  0  0  0  0  0  0  0  0  0  0  0
   27.9112  -21.0148  -11.6953 C   0  0  0  0  0  0  0  0  0  0  0  0
   27.3911  -21.7868  -12.5367 O   0  0  0  0  0  0  0  0  0  0  0  0
   25.0514  -20.6025   -9.2829 C   0  0  0  0  0  0  0  0  0  0  0  0
   25.6864  -20.8949  -10.6407 C   0  0  2  0  0  0  0  0  0  0  0  0
   27.0457  -20.4827  -10.7041 N   0  0  0  0  0  0  0  0  0  0  0  0
   24.8562  -20.3163  -11.7396 C   0  0  0  0  0  0  0  0  0  0  0  0
   24.8949  -19.0814  -11.9736 O   0  0  0  0  0  0  0  0  0  0  0  0
   23.5168  -22.9408  -19.7542 N   0  0  0  0  0  0  0  0  0  0  0  0
   24.4118  -22.3054  -18.8722 C   0  0  0  0  0  0  0  0  0  0  0  0
   25.6821  -22.3417  -19.1595 N   0  0  0  0  0  0  0  0  0  0  0  0
   24.0009  -21.6292  -17.6892 N   0  0  0  0  0  0  0  0  0  0  0  0
   22.5776  -21.5466  -17.3184 C   0  0  0  0  0  0  0  0  0  0  0  0
   22.5063  -20.7878  -16.0472 C   0  0  0  0  0  0  0  0  0  0  0  0
   23.3241  -21.2504  -14.9136 C   0  0  0  0  0  0  0  0  0  0  0  0
   23.1692  -20.5665  -13.6058 C   0  0  2  0  0  0  0  0  0  0  0  0
   24.0047  -21.1124  -12.5525 N   0  0  0  0  0  0  0  0  0  0  0  0
   21.7720  -20.3869  -13.1521 C   0  0  0  0  0  0  0  0  0  0  0  0
   21.2783  -21.0916  -12.2406 O   0  0  0  0  0  0  0  0  0  0  0  0
   20.9639  -19.4249  -13.7289 O   0  0  0  0  0  0  0  0  0  0  0  0
  2  3  1  0
  2  1  1  0
  3  4  1  6
  5  3  1  0
  5  6  1  1
  7  5  1  0
  7  8  2  0
 10  9  1  1
 10 12  1  0
 11 10  1  0
 11  7  1  0
 12 13  2  0
 12 22  1  0
 15 16  2  0
 15 14  1  0
 17 15  1  0
 18 19  1  0
 18 17  1  0
 20 19  1  0
 21 20  1  6
 21 23  1  0
 22 21  1  0
 23 24  2  0
 23 25  1  0
M  END
$$$$
