NCE.pdb
     RDKit          3D

 24 23  0  0  1  0  0  0  0  0999 V2000
   10.1334  -16.7924   17.8498 N   0  0  0  0  0  0  0  0  0  0  0  0
    9.3999  -15.7849   18.5194 C   0  0  0  0  0  0  0  0  0  0  0  0
    8.3533  -15.3498   17.9448 O   0  0  0  0  0  0  0  0  0  0  0  0
    9.8019  -15.2339   19.8369 C   0  0  0  0  0  0  0  0  0  0  0  0
    8.9416  -15.8719   20.8999 C   0  0  2  0  0  0  0  0  0  0  0  0
    7.5649  -15.4153   20.6743 N   0  0  0  0  0  0  0  0  0  0  0  0
    9.3628  -15.5164   22.2647 C   0  0  0  0  0  0  0  0  0  0  0  0
   10.5199  -15.7031   22.7312 O   0  0  0  0  0  0  0  0  0  0  0  0
    8.4247  -14.9197   23.1430 N   0  0  0  0  0  0  0  0  0  0  0  0
    8.6544  -14.7293   24.5510 C   0  0  1  0  0  0  0  0  0  0  0  0
    7.5986  -13.7599   25.0968 C   0  0  0  0  0  0  0  0  0  0  0  0
    6.0823  -14.7374   25.3319 S   0  0  0  0  0  0  0  0  0  0  0  0
    8.5708  -15.9399   25.3556 C   0  0  0  0  0  0  0  0  0  0  0  0
    7.5289  -16.6266   25.3527 O   0  0  0  0  0  0  0  0  0  0  0  0
    9.6676  -16.3438   26.1414 N   0  0  0  0  0  0  0  0  0  0  0  0
    9.6644  -17.5831   26.9439 C   0  0  1  0  0  0  0  0  0  0  0  0
   10.3945  -18.6119   26.1354 C   0  0  0  0  0  0  0  0  0  0  0  0
   11.8253  -18.3301   25.8515 C   0  0  0  0  0  0  0  0  0  0  0  0
   12.4110  -19.1582   24.7756 C   0  0  0  0  0  0  0  0  0  0  0  0
   12.6155  -20.3995   24.9564 O   0  0  0  0  0  0  0  0  0  0  0  0
   10.4083  -17.3507   28.2033 C   0  0  0  0  0  0  0  0  0  0  0  0
   11.0444  -16.1719   28.5158 O   0  0  0  0  0  0  0  0  0  0  0  0
   12.7359  -18.5463   23.5466 O   0  0  0  0  0  0  0  0  0  0  0  0
   10.4751  -18.2797   29.0580 O   0  0  0  0  0  0  0  0  0  0  0  0
  2  1  1  0
  3  2  2  0
  4  2  1  0
  4  5  1  0
  5  6  1  6
  7  5  1  0
  7  8  2  0
  9  7  1  0
 10  9  1  0
 10 13  1  0
 10 11  1  1
 12 11  1  0
 13 15  1  0
 14 13  2  0
 15 16  1  0
 16 21  1  0
 16 17  1  6
 18 17  1  0
 19 23  1  0
 19 18  1  0
 20 19  2  0
 21 24  2  0
 21 22  1  0
M  END
$$$$
