NCE.pdb
     RDKit          3D

 24 23  0  0  1  0  0  0  0  0999 V2000
    7.5360  -15.6463   19.5291 N   0  0  0  0  0  0  0  0  0  0  0  0
    7.0428  -16.5140   20.5317 C   0  0  0  0  0  0  0  0  0  0  0  0
    6.7832  -17.7097   20.1883 O   0  0  0  0  0  0  0  0  0  0  0  0
    6.8248  -16.0851   21.9350 C   0  0  0  0  0  0  0  0  0  0  0  0
    7.2358  -14.6384   22.0578 C   0  0  2  0  0  0  0  0  0  0  0  0
    8.0310  -14.3118   20.8680 N   0  0  0  0  0  0  0  0  0  0  0  0
    8.0270  -14.3704   23.2698 C   0  0  0  0  0  0  0  0  0  0  0  0
    9.2767  -14.5173   23.3592 O   0  0  0  0  0  0  0  0  0  0  0  0
    7.3674  -13.9132   24.4374 N   0  0  0  0  0  0  0  0  0  0  0  0
    7.9620  -13.9204   25.7481 C   0  0  1  0  0  0  0  0  0  0  0  0
    6.9582  -13.3345   26.7488 C   0  0  0  0  0  0  0  0  0  0  0  0
    6.5946  -11.6462   26.1765 S   0  0  0  0  0  0  0  0  0  0  0  0
    8.3337  -15.2370   26.2461 C   0  0  0  0  0  0  0  0  0  0  0  0
    7.6817  -16.2453   25.9065 O   0  0  0  0  0  0  0  0  0  0  0  0
    9.4338  -15.3802   27.1139 N   0  0  0  0  0  0  0  0  0  0  0  0
    9.8597  -16.6847   27.6584 C   0  0  1  0  0  0  0  0  0  0  0  0
   10.6613  -17.3507   26.5818 C   0  0  0  0  0  0  0  0  0  0  0  0
   11.6747  -16.5053   25.8993 C   0  0  0  0  0  0  0  0  0  0  0  0
   12.4613  -17.2083   24.8633 C   0  0  0  0  0  0  0  0  0  0  0  0
   12.2045  -18.4178   24.5689 O   0  0  0  0  0  0  0  0  0  0  0  0
   10.7327  -16.4613   28.8337 C   0  0  0  0  0  0  0  0  0  0  0  0
   11.2707  -17.4716   29.5967 O   0  0  0  0  0  0  0  0  0  0  0  0
   13.4986  -16.5121   24.2078 O   0  0  0  0  0  0  0  0  0  0  0  0
   11.0137  -15.2769   29.1744 O   0  0  0  0  0  0  0  0  0  0  0  0
  2  1  1  0
  3  2  2  0
  4  2  1  0
  4  5  1  0
  5  6  1  6
  7  5  1  0
  7  8  2  0
  9  7  1  0
 10  9  1  0
 10 13  1  0
 10 11  1  1
 12 11  1  0
 13 15  1  0
 14 13  2  0
 15 16  1  0
 16 21  1  0
 16 17  1  6
 18 17  1  0
 19 23  1  0
 19 18  1  0
 20 19  2  0
 21 24  2  0
 21 22  1  0
M  END
$$$$
