NCE.pdb
     RDKit          3D

 24 23  0  0  1  0  0  0  0  0999 V2000
    8.0323  -17.3707   19.2919 N   0  0  0  0  0  0  0  0  0  0  0  0
    8.2890  -15.9965   19.0748 C   0  0  0  0  0  0  0  0  0  0  0  0
    8.4478  -15.6186   17.8720 O   0  0  0  0  0  0  0  0  0  0  0  0
    8.3763  -15.0073   20.1770 C   0  0  0  0  0  0  0  0  0  0  0  0
    8.1787  -15.7353   21.4840 C   0  0  2  0  0  0  0  0  0  0  0  0
    6.7480  -16.0444   21.5953 N   0  0  0  0  0  0  0  0  0  0  0  0
    8.6053  -14.9432   22.6489 C   0  0  0  0  0  0  0  0  0  0  0  0
    9.7986  -14.6198   22.9000 O   0  0  0  0  0  0  0  0  0  0  0  0
    7.6298  -14.4961   23.5741 N   0  0  0  0  0  0  0  0  0  0  0  0
    7.9445  -13.9389   24.8633 C   0  0  1  0  0  0  0  0  0  0  0  0
    6.6739  -13.3169   25.4557 C   0  0  0  0  0  0  0  0  0  0  0  0
    7.1565  -12.5986   27.0560 S   0  0  0  0  0  0  0  0  0  0  0  0
    8.4402  -14.8967   25.8413 C   0  0  0  0  0  0  0  0  0  0  0  0
    7.6921  -15.7954   26.2770 O   0  0  0  0  0  0  0  0  0  0  0  0
    9.7692  -14.8149   26.3005 N   0  0  0  0  0  0  0  0  0  0  0  0
   10.3225  -15.7305   27.3179 C   0  0  1  0  0  0  0  0  0  0  0  0
   11.6987  -16.0975   26.8524 C   0  0  0  0  0  0  0  0  0  0  0  0
   11.8171  -16.5442   25.4404 C   0  0  0  0  0  0  0  0  0  0  0  0
   13.1914  -16.8938   25.0218 C   0  0  0  0  0  0  0  0  0  0  0  0
   13.3924  -17.8319   24.1881 O   0  0  0  0  0  0  0  0  0  0  0  0
   10.4313  -15.0154   28.6103 C   0  0  0  0  0  0  0  0  0  0  0  0
   10.1322  -13.6837   28.7812 O   0  0  0  0  0  0  0  0  0  0  0  0
   14.2729  -16.1669   25.5624 O   0  0  0  0  0  0  0  0  0  0  0  0
   10.8211  -15.6489   29.6324 O   0  0  0  0  0  0  0  0  0  0  0  0
  2  1  1  0
  3  2  2  0
  4  2  1  0
  4  5  1  0
  5  6  1  1
  7  5  1  0
  7  8  2  0
  9  7  1  0
 10  9  1  0
 10 13  1  0
 10 11  1  1
 12 11  1  0
 13 15  1  0
 14 13  2  0
 15 16  1  0
 16 21  1  0
 16 17  1  6
 18 17  1  0
 19 23  1  0
 19 18  1  0
 20 19  2  0
 21 24  2  0
 21 22  1  0
M  END
$$$$
