NCE.pdb
     RDKit          3D

 24 23  0  0  1  0  0  0  0  0999 V2000
    8.1764  -15.6609   15.9257 N   0  0  0  0  0  0  0  0  0  0  0  0
    7.9611  -14.3393   16.3824 C   0  0  0  0  0  0  0  0  0  0  0  0
    7.6542  -13.4668   15.5109 O   0  0  0  0  0  0  0  0  0  0  0  0
    8.0783  -13.9486   17.8087 C   0  0  0  0  0  0  0  0  0  0  0  0
    8.5449  -15.1506   18.5926 C   0  0  2  0  0  0  0  0  0  0  0  0
    7.4110  -16.0788   18.6775 N   0  0  0  0  0  0  0  0  0  0  0  0
    9.0036  -14.8054   19.9480 C   0  0  0  0  0  0  0  0  0  0  0  0
   10.1819  -14.4646   20.2428 O   0  0  0  0  0  0  0  0  0  0  0  0
    8.0797  -14.8491   21.0212 N   0  0  0  0  0  0  0  0  0  0  0  0
    8.4597  -14.7893   22.4082 C   0  0  1  0  0  0  0  0  0  0  0  0
    7.1988  -14.5848   23.2570 C   0  0  0  0  0  0  0  0  0  0  0  0
    7.7459  -14.5918   24.9921 S   0  0  0  0  0  0  0  0  0  0  0  0
    9.1199  -15.9837   22.9154 C   0  0  0  0  0  0  0  0  0  0  0  0
    8.5963  -17.1057   22.7611 O   0  0  0  0  0  0  0  0  0  0  0  0
   10.3558  -15.8790   23.5827 N   0  0  0  0  0  0  0  0  0  0  0  0
   11.0102  -17.0271   24.2410 C   0  0  1  0  0  0  0  0  0  0  0  0
   12.4816  -16.7448   24.2188 C   0  0  0  0  0  0  0  0  0  0  0  0
   13.0943  -16.5579   22.8782 C   0  0  0  0  0  0  0  0  0  0  0  0
   14.5658  -16.4133   22.8921 C   0  0  0  0  0  0  0  0  0  0  0  0
   15.3148  -17.4297   22.7462 O   0  0  0  0  0  0  0  0  0  0  0  0
   10.5605  -17.1029   25.6501 C   0  0  0  0  0  0  0  0  0  0  0  0
   10.8133  -18.1680   26.4830 O   0  0  0  0  0  0  0  0  0  0  0  0
   15.1214  -15.1285   23.0680 O   0  0  0  0  0  0  0  0  0  0  0  0
    9.9024  -16.1402   26.1379 O   0  0  0  0  0  0  0  0  0  0  0  0
  2  1  1  0
  3  2  2  0
  4  2  1  0
  4  5  1  0
  5  6  1  1
  7  5  1  0
  7  8  2  0
  9  7  1  0
 10  9  1  0
 10 13  1  0
 10 11  1  1
 12 11  1  0
 13 15  1  0
 14 13  2  0
 15 16  1  0
 16 21  1  0
 16 17  1  1
 18 17  1  0
 19 23  1  0
 19 18  1  0
 20 19  2  0
 21 24  2  0
 21 22  1  0
M  END
$$$$
