NCE.pdb
     RDKit          3D

 24 23  0  0  1  0  0  0  0  0999 V2000
    8.1333  -18.5271   16.2579 N   0  0  0  0  0  0  0  0  0  0  0  0
    8.3227  -17.1289   16.1547 C   0  0  0  0  0  0  0  0  0  0  0  0
    8.3126  -16.6263   14.9875 O   0  0  0  0  0  0  0  0  0  0  0  0
    8.5271  -16.2524   17.3340 C   0  0  0  0  0  0  0  0  0  0  0  0
    8.5567  -17.1189   18.5691 C   0  0  2  0  0  0  0  0  0  0  0  0
    7.1887  -17.6024   18.7916 N   0  0  0  0  0  0  0  0  0  0  0  0
    9.0257  -16.3961   19.7625 C   0  0  0  0  0  0  0  0  0  0  0  0
   10.2214  -16.0514   19.9702 O   0  0  0  0  0  0  0  0  0  0  0  0
    8.0920  -16.0474   20.7694 N   0  0  0  0  0  0  0  0  0  0  0  0
    8.4573  -15.4626   22.0328 C   0  0  1  0  0  0  0  0  0  0  0  0
    7.1809  -15.0242   22.7613 C   0  0  0  0  0  0  0  0  0  0  0  0
    7.7147  -14.3549   24.3666 S   0  0  0  0  0  0  0  0  0  0  0  0
    9.1739  -16.3516   22.9361 C   0  0  0  0  0  0  0  0  0  0  0  0
    8.6643  -17.4347   23.2885 O   0  0  0  0  0  0  0  0  0  0  0  0
   10.4486  -15.9939   23.4165 N   0  0  0  0  0  0  0  0  0  0  0  0
   11.1949  -16.8122   24.3928 C   0  0  1  0  0  0  0  0  0  0  0  0
   12.6098  -16.3196   24.3633 C   0  0  0  0  0  0  0  0  0  0  0  0
   13.4750  -16.8713   23.2888 C   0  0  0  0  0  0  0  0  0  0  0  0
   14.8093  -16.2414   23.1929 C   0  0  0  0  0  0  0  0  0  0  0  0
   15.7448  -16.5903   23.9794 O   0  0  0  0  0  0  0  0  0  0  0  0
   10.6390  -16.5844   25.7465 C   0  0  0  0  0  0  0  0  0  0  0  0
   10.7062  -17.5000   26.7708 O   0  0  0  0  0  0  0  0  0  0  0  0
   15.0245  -15.2497   22.2129 O   0  0  0  0  0  0  0  0  0  0  0  0
   10.0632  -15.4875   25.9979 O   0  0  0  0  0  0  0  0  0  0  0  0
  2  1  1  0
  3  2  2  0
  4  2  1  0
  4  5  1  0
  5  6  1  1
  7  5  1  0
  7  8  2  0
  9  7  1  0
 10  9  1  0
 10 13  1  0
 10 11  1  1
 12 11  1  0
 13 15  1  0
 14 13  2  0
 15 16  1  0
 16 21  1  0
 16 17  1  1
 18 17  1  0
 19 23  1  0
 19 18  1  0
 20 19  2  0
 21 24  2  0
 21 22  1  0
M  END
$$$$
