NCE.pdb
     RDKit          3D

 24 23  0  0  1  0  0  0  0  0999 V2000
    9.4598  -14.6600   17.7328 N   0  0  0  0  0  0  0  0  0  0  0  0
    8.3511  -14.2527   18.5115 C   0  0  0  0  0  0  0  0  0  0  0  0
    7.1949  -14.4452   18.0204 O   0  0  0  0  0  0  0  0  0  0  0  0
    8.4902  -13.6249   19.8484 C   0  0  0  0  0  0  0  0  0  0  0  0
    8.2163  -14.6757   20.8963 C   0  0  2  0  0  0  0  0  0  0  0  0
    6.7613  -14.8615   20.9530 N   0  0  0  0  0  0  0  0  0  0  0  0
    8.7187  -14.2990   22.2275 C   0  0  0  0  0  0  0  0  0  0  0  0
    9.9349  -14.1245   22.5137 O   0  0  0  0  0  0  0  0  0  0  0  0
    7.7956  -14.1111   23.2858 N   0  0  0  0  0  0  0  0  0  0  0  0
    8.1806  -13.8907   24.6550 C   0  0  1  0  0  0  0  0  0  0  0  0
    7.3333  -12.7481   25.2282 C   0  0  0  0  0  0  0  0  0  0  0  0
    5.9070  -13.5306   26.0428 S   0  0  0  0  0  0  0  0  0  0  0  0
    7.9963  -15.0350   25.5360 C   0  0  0  0  0  0  0  0  0  0  0  0
    6.9254  -15.6752   25.5202 O   0  0  0  0  0  0  0  0  0  0  0  0
    9.0279  -15.4271   26.4111 N   0  0  0  0  0  0  0  0  0  0  0  0
    9.4007  -16.8391   26.6278 C   0  0  1  0  0  0  0  0  0  0  0  0
    9.9227  -17.3443   25.3172 C   0  0  0  0  0  0  0  0  0  0  0  0
   11.2603  -17.9903   25.3481 C   0  0  0  0  0  0  0  0  0  0  0  0
   11.3117  -19.3230   24.7096 C   0  0  0  0  0  0  0  0  0  0  0  0
   10.4460  -20.2086   24.9953 O   0  0  0  0  0  0  0  0  0  0  0  0
   10.4869  -16.9084   27.6322 C   0  0  0  0  0  0  0  0  0  0  0  0
   10.6811  -17.9705   28.4845 O   0  0  0  0  0  0  0  0  0  0  0  0
   12.3364  -19.5916   23.7777 O   0  0  0  0  0  0  0  0  0  0  0  0
   11.2969  -15.9429   27.7291 O   0  0  0  0  0  0  0  0  0  0  0  0
  2  1  1  0
  3  2  2  0
  4  2  1  0
  4  5  1  0
  5  6  1  1
  7  5  1  0
  7  8  2  0
  9  7  1  0
 10  9  1  0
 10 13  1  0
 10 11  1  1
 12 11  1  0
 13 15  1  0
 14 13  2  0
 15 16  1  0
 16 21  1  0
 16 17  1  6
 18 17  1  0
 19 23  1  0
 19 18  1  0
 20 19  2  0
 21 24  2  0
 21 22  1  0
M  END
$$$$
