NCE.pdb
     RDKit          3D

 24 23  0  0  1  0  0  0  0  0999 V2000
    7.2490  -13.2031   17.7072 N   0  0  0  0  0  0  0  0  0  0  0  0
    7.0975  -14.5094   18.2288 C   0  0  0  0  0  0  0  0  0  0  0  0
    6.8006  -15.4318   17.4066 O   0  0  0  0  0  0  0  0  0  0  0  0
    7.2698  -14.8297   19.6670 C   0  0  0  0  0  0  0  0  0  0  0  0
    7.5244  -13.5424   20.4121 C   0  0  2  0  0  0  0  0  0  0  0  0
    8.1688  -12.6179   19.4714 N   0  0  0  0  0  0  0  0  0  0  0  0
    8.3848  -13.7262   21.5921 C   0  0  0  0  0  0  0  0  0  0  0  0
    9.6198  -13.9799   21.5485 O   0  0  0  0  0  0  0  0  0  0  0  0
    7.8156  -13.6165   22.8850 N   0  0  0  0  0  0  0  0  0  0  0  0
    8.4627  -14.0739   24.0864 C   0  0  1  0  0  0  0  0  0  0  0  0
    7.7704  -13.4319   25.2951 C   0  0  0  0  0  0  0  0  0  0  0  0
    5.9973  -13.8010   25.1221 S   0  0  0  0  0  0  0  0  0  0  0  0
    8.4232  -15.5144   24.2943 C   0  0  0  0  0  0  0  0  0  0  0  0
    7.9036  -16.2595   23.4389 O   0  0  0  0  0  0  0  0  0  0  0  0
    8.9736  -16.0755   25.4631 N   0  0  0  0  0  0  0  0  0  0  0  0
    9.8011  -17.2981   25.4513 C   0  0  1  0  0  0  0  0  0  0  0  0
   11.0422  -16.9611   24.6823 C   0  0  0  0  0  0  0  0  0  0  0  0
   11.1749  -17.5883   23.3420 C   0  0  0  0  0  0  0  0  0  0  0  0
   12.5479  -17.5761   22.7933 C   0  0  0  0  0  0  0  0  0  0  0  0
   13.1132  -16.4776   22.4949 O   0  0  0  0  0  0  0  0  0  0  0  0
   10.1804  -17.6440   26.8406 C   0  0  0  0  0  0  0  0  0  0  0  0
   10.4557  -18.9220   27.2683 O   0  0  0  0  0  0  0  0  0  0  0  0
   13.2179  -18.8040   22.6097 O   0  0  0  0  0  0  0  0  0  0  0  0
   10.2622  -16.7232   27.7027 O   0  0  0  0  0  0  0  0  0  0  0  0
  2  1  1  0
  3  2  2  0
  4  2  1  0
  4  5  1  0
  5  6  1  6
  7  5  1  0
  7  8  2  0
  9  7  1  0
 10  9  1  0
 10 13  1  0
 10 11  1  1
 12 11  1  0
 13 15  1  0
 14 13  2  0
 15 16  1  0
 16 21  1  0
 16 17  1  6
 18 17  1  0
 19 23  1  0
 19 18  1  0
 20 19  2  0
 21 24  2  0
 21 22  1  0
M  END
$$$$
