VKE.pdb
     RDKit          3D

 26 25  0  0  1  0  0  0  0  0999 V2000
    7.9714  -16.5541   19.3628 C   0  0  0  0  0  0  0  0  0  0  0  0
    8.2035  -15.2538   18.6780 C   0  0  1  0  0  0  0  0  0  0  0  0
    7.5978  -15.2652   17.2600 C   0  0  0  0  0  0  0  0  0  0  0  0
    7.6785  -14.0399   19.3547 C   0  0  2  0  0  0  0  0  0  0  0  0
    8.0109  -12.8706   18.5182 N   0  0  0  0  0  0  0  0  0  0  0  0
    8.1481  -13.8518   20.7324 C   0  0  0  0  0  0  0  0  0  0  0  0
    9.3215  -13.4852   20.9426 O   0  0  0  0  0  0  0  0  0  0  0  0
    7.3029  -14.0799   21.8705 N   0  0  0  0  0  0  0  0  0  0  0  0
    7.8006  -13.8079   23.2218 C   0  0  1  0  0  0  0  0  0  0  0  0
    6.7105  -13.3857   24.1258 C   0  0  0  0  0  0  0  0  0  0  0  0
    7.0968  -13.2150   25.5591 C   0  0  0  0  0  0  0  0  0  0  0  0
    5.8853  -12.6358   26.3136 C   0  0  0  0  0  0  0  0  0  0  0  0
    6.1731  -12.4866   27.7786 C   0  0  0  0  0  0  0  0  0  0  0  0
    5.0011  -11.9365   28.4447 N   0  0  0  0  0  0  0  0  0  0  0  0
    8.6085  -14.9732   23.6186 C   0  0  0  0  0  0  0  0  0  0  0  0
    8.1082  -16.1339   23.5098 O   0  0  0  0  0  0  0  0  0  0  0  0
    9.9157  -14.9687   24.1137 N   0  0  0  0  0  0  0  0  0  0  0  0
   10.7055  -16.1626   24.4249 C   0  0  1  0  0  0  0  0  0  0  0  0
   12.0318  -16.1262   23.8288 C   0  0  0  0  0  0  0  0  0  0  0  0
   12.8966  -17.2986   24.0913 C   0  0  0  0  0  0  0  0  0  0  0  0
   14.2370  -17.2962   23.5178 C   0  0  0  0  0  0  0  0  0  0  0  0
   14.7586  -16.1761   23.1772 O   0  0  0  0  0  0  0  0  0  0  0  0
   10.6223  -16.4044   25.8346 C   0  0  0  0  0  0  0  0  0  0  0  0
   10.9248  -17.6562   26.3594 O   0  0  0  0  0  0  0  0  0  0  0  0
   14.9260  -18.5029   23.3496 O   0  0  0  0  0  0  0  0  0  0  0  0
   10.2792  -15.5186   26.6449 O   0  0  0  0  0  0  0  0  0  0  0  0
  2  4  1  0
  2  1  1  1
  3  2  1  0
  4  5  1  6
  6  4  1  0
  6  7  2  0
  8  6  1  0
  9  8  1  0
  9 10  1  1
 11 12  1  0
 11 10  1  0
 12 13  1  0
 13 14  1  0
 15 17  1  0
 15  9  1  0
 16 15  2  0
 18 17  1  0
 18 19  1  1
 19 20  1  0
 20 21  1  0
 21 22  2  0
 23 18  1  0
 24 23  1  0
 25 21  1  0
 26 23  2  0
M  END
$$$$
