VKE.pdb
     RDKit          3D

 26 25  0  0  1  0  0  0  0  0999 V2000
    6.9515  -15.5343   17.4079 C   0  0  0  0  0  0  0  0  0  0  0  0
    7.5619  -15.3630   18.7538 C   0  0  1  0  0  0  0  0  0  0  0  0
    9.0277  -15.8417   18.7559 C   0  0  0  0  0  0  0  0  0  0  0  0
    7.5632  -13.9879   19.3161 C   0  0  2  0  0  0  0  0  0  0  0  0
    8.2463  -13.1014   18.3543 N   0  0  0  0  0  0  0  0  0  0  0  0
    8.1569  -13.8706   20.6532 C   0  0  0  0  0  0  0  0  0  0  0  0
    9.3691  -13.6019   20.7717 O   0  0  0  0  0  0  0  0  0  0  0  0
    7.3916  -14.0595   21.8534 N   0  0  0  0  0  0  0  0  0  0  0  0
    8.0061  -13.8199   23.1621 C   0  0  1  0  0  0  0  0  0  0  0  0
    7.0370  -13.2456   24.1185 C   0  0  0  0  0  0  0  0  0  0  0  0
    7.5438  -13.0631   25.5123 C   0  0  0  0  0  0  0  0  0  0  0  0
    6.4303  -12.3951   26.3407 C   0  0  0  0  0  0  0  0  0  0  0  0
    6.8676  -12.1601   27.7567 C   0  0  0  0  0  0  0  0  0  0  0  0
    5.7736  -11.5552   28.5031 N   0  0  0  0  0  0  0  0  0  0  0  0
    8.6903  -15.0666   23.5439 C   0  0  0  0  0  0  0  0  0  0  0  0
    8.1065  -16.1747   23.3422 O   0  0  0  0  0  0  0  0  0  0  0  0
    9.9585  -15.1955   24.1171 N   0  0  0  0  0  0  0  0  0  0  0  0
   10.6364  -16.4646   24.3926 C   0  0  1  0  0  0  0  0  0  0  0  0
   12.0234  -16.4638   23.9547 C   0  0  0  0  0  0  0  0  0  0  0  0
   12.7864  -17.7075   24.2050 C   0  0  0  0  0  0  0  0  0  0  0  0
   14.1855  -17.7401   23.7960 C   0  0  0  0  0  0  0  0  0  0  0  0
   14.6719  -16.7239   23.1850 O   0  0  0  0  0  0  0  0  0  0  0  0
   10.3742  -16.8308   25.7527 C   0  0  0  0  0  0  0  0  0  0  0  0
   10.4497  -18.1590   26.1577 O   0  0  0  0  0  0  0  0  0  0  0  0
   14.9672  -18.8676   24.0735 O   0  0  0  0  0  0  0  0  0  0  0  0
   10.0696  -15.9897   26.6238 O   0  0  0  0  0  0  0  0  0  0  0  0
  2  4  1  0
  2  1  1  6
  3  2  1  0
  4  5  1  6
  6  4  1  0
  6  7  2  0
  8  6  1  0
  9  8  1  0
  9 10  1  1
 11 12  1  0
 11 10  1  0
 12 13  1  0
 13 14  1  0
 15 17  1  0
 15  9  1  0
 16 15  2  0
 18 17  1  0
 18 19  1  1
 19 20  1  0
 20 21  1  0
 21 22  2  0
 23 18  1  0
 24 23  1  0
 25 21  1  0
 26 23  2  0
M  END
$$$$
