VKE.pdb
     RDKit          3D

 26 25  0  0  1  0  0  0  0  0999 V2000
    8.2094  -12.7495   20.8743 C   0  0  0  0  0  0  0  0  0  0  0  0
    7.6321  -13.5228   19.7421 C   0  0  1  0  0  0  0  0  0  0  0  0
    8.1719  -13.0058   18.3933 C   0  0  0  0  0  0  0  0  0  0  0  0
    7.8554  -14.9916   19.7542 C   0  0  2  0  0  0  0  0  0  0  0  0
    7.2615  -15.5542   18.5260 N   0  0  0  0  0  0  0  0  0  0  0  0
    7.3493  -15.6809   20.9469 C   0  0  0  0  0  0  0  0  0  0  0  0
    6.1252  -15.6881   21.1861 O   0  0  0  0  0  0  0  0  0  0  0  0
    8.2168  -16.3561   21.8707 N   0  0  0  0  0  0  0  0  0  0  0  0
    7.6672  -16.9606   23.0873 C   0  0  1  0  0  0  0  0  0  0  0  0
    7.6118  -18.4336   22.9829 C   0  0  0  0  0  0  0  0  0  0  0  0
    7.1988  -19.1490   24.2280 C   0  0  0  0  0  0  0  0  0  0  0  0
    7.1228  -20.6542   23.9100 C   0  0  0  0  0  0  0  0  0  0  0  0
    6.6952  -21.4464   25.1104 C   0  0  0  0  0  0  0  0  0  0  0  0
    6.4727  -22.8307   24.7179 N   0  0  0  0  0  0  0  0  0  0  0  0
    8.4071  -16.3805   24.2205 C   0  0  0  0  0  0  0  0  0  0  0  0
    9.6660  -16.2518   24.1314 O   0  0  0  0  0  0  0  0  0  0  0  0
    7.8798  -15.9249   25.4322 N   0  0  0  0  0  0  0  0  0  0  0  0
    8.6565  -15.3232   26.5188 C   0  0  1  0  0  0  0  0  0  0  0  0
    7.9369  -14.2555   27.1953 C   0  0  0  0  0  0  0  0  0  0  0  0
    7.4347  -13.1609   26.3345 C   0  0  0  0  0  0  0  0  0  0  0  0
    6.5688  -12.1592   26.9449 C   0  0  0  0  0  0  0  0  0  0  0  0
    6.2736  -12.2754   28.1867 O   0  0  0  0  0  0  0  0  0  0  0  0
    9.1894  -16.3769   27.3303 C   0  0  0  0  0  0  0  0  0  0  0  0
   10.2613  -16.1423   28.1847 O   0  0  0  0  0  0  0  0  0  0  0  0
    6.0787  -11.0982   26.1747 O   0  0  0  0  0  0  0  0  0  0  0  0
    8.7257  -17.5359   27.3086 O   0  0  0  0  0  0  0  0  0  0  0  0
  2  4  1  0
  2  1  1  1
  3  2  1  0
  4  5  1  6
  6  4  1  0
  6  7  2  0
  8  6  1  0
  9  8  1  0
  9 10  1  6
 11 12  1  0
 11 10  1  0
 12 13  1  0
 13 14  1  0
 15 17  1  0
 15  9  1  0
 16 15  2  0
 18 17  1  0
 18 19  1  1
 19 20  1  0
 20 21  1  0
 21 22  2  0
 23 18  1  0
 24 23  1  0
 25 21  1  0
 26 23  2  0
M  END
$$$$
