VKE.pdb
     RDKit          3D

 26 25  0  0  1  0  0  0  0  0999 V2000
    9.2087  -14.0457   22.4728 C   0  0  0  0  0  0  0  0  0  0  0  0
    8.0403  -13.8172   21.5806 C   0  0  1  0  0  0  0  0  0  0  0  0
    8.4101  -12.8639   20.4263 C   0  0  0  0  0  0  0  0  0  0  0  0
    7.4297  -15.0205   20.9589 C   0  0  2  0  0  0  0  0  0  0  0  0
    6.3845  -14.5692   20.0201 N   0  0  0  0  0  0  0  0  0  0  0  0
    6.8941  -16.0003   21.9113 C   0  0  0  0  0  0  0  0  0  0  0  0
    5.9449  -15.6854   22.6566 O   0  0  0  0  0  0  0  0  0  0  0  0
    7.4268  -17.3285   22.0291 N   0  0  0  0  0  0  0  0  0  0  0  0
    6.9579  -18.2164   23.0966 C   0  0  1  0  0  0  0  0  0  0  0  0
    6.2300  -19.3812   22.5516 C   0  0  0  0  0  0  0  0  0  0  0  0
    5.3366  -20.0880   23.5186 C   0  0  0  0  0  0  0  0  0  0  0  0
    4.7470  -21.3213   22.8088 C   0  0  0  0  0  0  0  0  0  0  0  0
    3.9101  -22.1432   23.7445 C   0  0  0  0  0  0  0  0  0  0  0  0
    3.4395  -23.3326   23.0490 N   0  0  0  0  0  0  0  0  0  0  0  0
    8.1145  -18.4772   23.9697 C   0  0  0  0  0  0  0  0  0  0  0  0
    9.2689  -18.5648   23.4510 O   0  0  0  0  0  0  0  0  0  0  0  0
    8.1083  -18.6399   25.3579 N   0  0  0  0  0  0  0  0  0  0  0  0
    9.2888  -18.9087   26.1826 C   0  0  1  0  0  0  0  0  0  0  0  0
    9.8071  -17.7104   26.8238 C   0  0  0  0  0  0  0  0  0  0  0  0
   10.8800  -17.9178   27.8225 C   0  0  0  0  0  0  0  0  0  0  0  0
   11.4614  -16.7373   28.4501 C   0  0  0  0  0  0  0  0  0  0  0  0
   12.7378  -16.6383   28.5111 O   0  0  0  0  0  0  0  0  0  0  0  0
    9.0072  -20.0361   27.0207 C   0  0  0  0  0  0  0  0  0  0  0  0
   10.0400  -20.7750   27.5877 O   0  0  0  0  0  0  0  0  0  0  0  0
   10.6267  -15.7415   28.9707 O   0  0  0  0  0  0  0  0  0  0  0  0
    7.8416  -20.4032   27.2766 O   0  0  0  0  0  0  0  0  0  0  0  0
  2  4  1  0
  2  1  1  6
  3  2  1  0
  4  5  1  6
  6  4  1  0
  6  7  2  0
  8  6  1  0
  9  8  1  0
  9 10  1  6
 11 12  1  0
 11 10  1  0
 12 13  1  0
 13 14  1  0
 15 17  1  0
 15  9  1  0
 16 15  2  0
 18 17  1  0
 18 19  1  1
 19 20  1  0
 20 21  1  0
 21 22  2  0
 23 18  1  0
 24 23  1  0
 25 21  1  0
 26 23  2  0
M  END
$$$$
