VKE.pdb
     RDKit          3D

 26 25  0  0  1  0  0  0  0  0999 V2000
    9.4260  -20.8536   20.0287 C   0  0  0  0  0  0  0  0  0  0  0  0
    8.1421  -20.1673   19.7226 C   0  0  1  0  0  0  0  0  0  0  0  0
    7.7169  -20.4252   18.2629 C   0  0  0  0  0  0  0  0  0  0  0  0
    6.9767  -20.5209   20.5735 C   0  0  2  0  0  0  0  0  0  0  0  0
    5.7925  -19.8197   20.0410 N   0  0  0  0  0  0  0  0  0  0  0  0
    7.1529  -20.2443   22.0040 C   0  0  0  0  0  0  0  0  0  0  0  0
    7.4148  -19.0855   22.3836 O   0  0  0  0  0  0  0  0  0  0  0  0
    7.0400  -21.2680   23.0045 N   0  0  0  0  0  0  0  0  0  0  0  0
    7.2776  -20.9469   24.4146 C   0  0  1  0  0  0  0  0  0  0  0  0
    6.3848  -21.7188   25.3038 C   0  0  0  0  0  0  0  0  0  0  0  0
    6.6549  -21.5729   26.7661 C   0  0  0  0  0  0  0  0  0  0  0  0
    5.6752  -22.4874   27.5253 C   0  0  0  0  0  0  0  0  0  0  0  0
    5.9658  -22.4986   28.9973 C   0  0  0  0  0  0  0  0  0  0  0  0
    5.0306  -23.3930   29.6647 N   0  0  0  0  0  0  0  0  0  0  0  0
    8.7292  -21.0574   24.6358 C   0  0  0  0  0  0  0  0  0  0  0  0
    9.3308  -22.1073   24.2547 O   0  0  0  0  0  0  0  0  0  0  0  0
    9.5700  -20.1118   25.2294 N   0  0  0  0  0  0  0  0  0  0  0  0
   10.9930  -20.3083   25.5167 C   0  0  1  0  0  0  0  0  0  0  0  0
   11.8523  -19.5135   24.6532 C   0  0  0  0  0  0  0  0  0  0  0  0
   13.3061  -19.6074   24.9159 C   0  0  0  0  0  0  0  0  0  0  0  0
   14.1993  -18.8055   24.0884 C   0  0  0  0  0  0  0  0  0  0  0  0
   14.1088  -17.5282   24.1442 O   0  0  0  0  0  0  0  0  0  0  0  0
   11.1888  -20.1906   26.9311 C   0  0  0  0  0  0  0  0  0  0  0  0
   10.1810  -19.6901   27.7482 O   0  0  0  0  0  0  0  0  0  0  0  0
   15.1312  -19.4351   23.2550 O   0  0  0  0  0  0  0  0  0  0  0  0
   12.2553  -20.5249   27.4875 O   0  0  0  0  0  0  0  0  0  0  0  0
  2  4  1  0
  2  1  1  1
  3  2  1  0
  4  5  1  6
  6  4  1  0
  6  7  2  0
  8  6  1  0
  9  8  1  0
  9 10  1  1
 11 12  1  0
 11 10  1  0
 12 13  1  0
 13 14  1  0
 15 17  1  0
 15  9  1  0
 16 15  2  0
 18 17  1  0
 18 19  1  6
 19 20  1  0
 20 21  1  0
 21 22  2  0
 23 18  1  0
 24 23  1  0
 25 21  1  0
 26 23  2  0
M  END
$$$$
