VKE.pdb
     RDKit          3D

 26 25  0  0  1  0  0  0  0  0999 V2000
    7.7938  -16.6437   19.5921 C   0  0  0  0  0  0  0  0  0  0  0  0
    8.0212  -15.3445   18.9040 C   0  0  1  0  0  0  0  0  0  0  0  0
    7.3168  -15.3199   17.5324 C   0  0  0  0  0  0  0  0  0  0  0  0
    7.5869  -14.1213   19.6267 C   0  0  2  0  0  0  0  0  0  0  0  0
    7.9449  -12.9515   18.8014 N   0  0  0  0  0  0  0  0  0  0  0  0
    8.1208  -13.9885   20.9873 C   0  0  0  0  0  0  0  0  0  0  0  0
    9.3026  -13.6277   21.1570 O   0  0  0  0  0  0  0  0  0  0  0  0
    7.3303  -14.2651   22.1537 N   0  0  0  0  0  0  0  0  0  0  0  0
    7.8679  -13.9879   23.4886 C   0  0  1  0  0  0  0  0  0  0  0  0
    6.8366  -13.4178   24.3802 C   0  0  0  0  0  0  0  0  0  0  0  0
    7.2564  -13.2191   25.8004 C   0  0  0  0  0  0  0  0  0  0  0  0
    6.0928  -12.5451   26.5516 C   0  0  0  0  0  0  0  0  0  0  0  0
    6.4048  -12.3812   28.0101 C   0  0  0  0  0  0  0  0  0  0  0  0
    5.2605  -11.7815   28.6815 N   0  0  0  0  0  0  0  0  0  0  0  0
    8.5568  -15.2118   23.9307 C   0  0  0  0  0  0  0  0  0  0  0  0
    7.9442  -16.3206   23.8630 O   0  0  0  0  0  0  0  0  0  0  0  0
    9.8581  -15.3182   24.4297 N   0  0  0  0  0  0  0  0  0  0  0  0
   10.4484  -16.5321   24.9988 C   0  0  1  0  0  0  0  0  0  0  0  0
   11.8562  -16.6788   24.6640 C   0  0  0  0  0  0  0  0  0  0  0  0
   12.1747  -16.7950   23.2230 C   0  0  0  0  0  0  0  0  0  0  0  0
   13.5774  -16.9174   22.8449 C   0  0  0  0  0  0  0  0  0  0  0  0
   13.8757  -17.5916   21.7965 O   0  0  0  0  0  0  0  0  0  0  0  0
   10.0888  -16.6028   26.3839 C   0  0  0  0  0  0  0  0  0  0  0  0
   10.4205  -17.7167   27.1476 O   0  0  0  0  0  0  0  0  0  0  0  0
   14.5658  -16.3039   23.6234 O   0  0  0  0  0  0  0  0  0  0  0  0
    9.4704  -15.6844   26.9608 O   0  0  0  0  0  0  0  0  0  0  0  0
  2  4  1  0
  2  1  1  1
  3  2  1  0
  4  5  1  6
  6  4  1  0
  6  7  2  0
  8  6  1  0
  9  8  1  0
  9 10  1  1
 11 12  1  0
 11 10  1  0
 12 13  1  0
 13 14  1  0
 15 17  1  0
 15  9  1  0
 16 15  2  0
 18 17  1  0
 18 19  1  1
 19 20  1  0
 20 21  1  0
 21 22  2  0
 23 18  1  0
 24 23  1  0
 25 21  1  0
 26 23  2  0
M  END
$$$$
