VMH.pdb
     RDKit          3D

 26 26  0  0  1  0  0  0  0  0999 V2000
    7.5645  -18.2321   21.2468 C   0  0  0  0  0  0  0  0  0  0  0  0
    8.4664  -17.5884   20.2451 C   0  0  1  0  0  0  0  0  0  0  0  0
    8.0788  -18.0611   18.8600 C   0  0  0  0  0  0  0  0  0  0  0  0
    8.4218  -16.0658   20.3341 C   0  0  2  0  0  0  0  0  0  0  0  0
    9.3116  -15.5163   19.3400 N   0  0  0  0  0  0  0  0  0  0  0  0
    8.8802  -15.6453   21.6832 C   0  0  0  0  0  0  0  0  0  0  0  0
   10.1034  -15.7527   22.0088 O   0  0  0  0  0  0  0  0  0  0  0  0
    7.0757  -10.9123   26.7537 C   0  0  0  0  0  0  0  0  0  0  0  0
    6.3423  -12.5664   26.6591 S   0  0  0  0  0  0  0  0  0  0  0  0
    7.6468  -13.7408   26.1286 C   0  0  0  0  0  0  0  0  0  0  0  0
    7.4514  -13.9519   24.6601 C   0  0  0  0  0  0  0  0  0  0  0  0
    8.4940  -14.8257   24.0125 C   0  0  2  0  0  0  0  0  0  0  0  0
    8.0173  -15.1147   22.6652 N   0  0  0  0  0  0  0  0  0  0  0  0
    8.7208  -16.0962   24.7693 C   0  0  0  0  0  0  0  0  0  0  0  0
    7.7960  -16.9339   24.9168 O   0  0  0  0  0  0  0  0  0  0  0  0
   10.0130  -16.3495   25.3280 N   0  0  0  0  0  0  0  0  0  0  0  0
   10.3513  -17.4948   26.1117 C   0  0  1  0  0  0  0  0  0  0  0  0
   11.6622  -18.1018   25.7523 C   0  0  0  0  0  0  0  0  0  0  0  0
   11.7022  -18.6763   24.4143 C   0  0  0  0  0  0  0  0  0  0  0  0
   10.7083  -18.8015   23.4699 C   0  0  0  0  0  0  0  0  0  0  0  0
   11.1858  -19.4111   22.3711 N   0  0  0  0  0  0  0  0  0  0  0  0
   12.4869  -19.6821   22.5992 C   0  0  0  0  0  0  0  0  0  0  0  0
   12.7952  -19.2412   23.8245 N   0  0  0  0  0  0  0  0  0  0  0  0
   10.1538  -17.2753   27.5771 C   0  0  0  0  0  0  0  0  0  0  0  0
   10.2828  -18.3492   28.4356 O   0  0  0  0  0  0  0  0  0  0  0  0
    9.8773  -16.1692   28.0931 O   0  0  0  0  0  0  0  0  0  0  0  0
  2  1  1  1
  2  3  1  0
  4  6  1  0
  4  2  1  0
  4  5  1  6
  6  7  2  0
  9  8  1  0
 10  9  1  0
 11 10  1  0
 12 11  1  1
 13  6  1  0
 13 12  1  0
 14 15  2  0
 14 12  1  0
 16 14  1  0
 17 16  1  0
 18 19  1  0
 17 18  1  1
 19 20  2  0
 21 20  1  0
 22 21  1  0
 23 22  2  0
 23 19  1  0
 24 17  1  0
 24 25  1  0
 26 24  2  0
M  END
$$$$
