VMH.pdb
     RDKit          3D

 26 26  0  0  1  0  0  0  0  0999 V2000
    7.5340  -16.6249   20.3918 C   0  0  0  0  0  0  0  0  0  0  0  0
    8.0549  -15.3426   19.8299 C   0  0  1  0  0  0  0  0  0  0  0  0
    7.6659  -15.2524   18.3695 C   0  0  0  0  0  0  0  0  0  0  0  0
    7.5448  -14.1319   20.6060 C   0  0  2  0  0  0  0  0  0  0  0  0
    8.0312  -12.9327   19.9679 N   0  0  0  0  0  0  0  0  0  0  0  0
    8.0683  -14.1907   21.9951 C   0  0  0  0  0  0  0  0  0  0  0  0
    9.2663  -13.8501   22.2454 O   0  0  0  0  0  0  0  0  0  0  0  0
    6.8744  -10.3336   26.6319 C   0  0  0  0  0  0  0  0  0  0  0  0
    7.3212  -12.0892   26.6685 S   0  0  0  0  0  0  0  0  0  0  0  0
    6.3494  -12.9536   25.3759 C   0  0  0  0  0  0  0  0  0  0  0  0
    6.7855  -14.3847   25.4078 C   0  0  0  0  0  0  0  0  0  0  0  0
    7.8798  -14.7241   24.4295 C   0  0  2  0  0  0  0  0  0  0  0  0
    7.2968  -14.6149   23.0975 N   0  0  0  0  0  0  0  0  0  0  0  0
    8.4304  -16.0982   24.6468 C   0  0  0  0  0  0  0  0  0  0  0  0
    7.6940  -17.1117   24.5508 O   0  0  0  0  0  0  0  0  0  0  0  0
    9.8164  -16.2473   24.9676 N   0  0  0  0  0  0  0  0  0  0  0  0
   10.4503  -17.4874   25.2849 C   0  0  1  0  0  0  0  0  0  0  0  0
   11.7891  -17.6551   24.6561 C   0  0  0  0  0  0  0  0  0  0  0  0
   11.7611  -17.6778   23.1999 C   0  0  0  0  0  0  0  0  0  0  0  0
   10.9245  -18.3488   22.3366 C   0  0  0  0  0  0  0  0  0  0  0  0
   11.2683  -18.0914   21.0627 N   0  0  0  0  0  0  0  0  0  0  0  0
   12.3256  -17.2552   21.0963 C   0  0  0  0  0  0  0  0  0  0  0  0
   12.6201  -17.0080   22.3781 N   0  0  0  0  0  0  0  0  0  0  0  0
   10.4103  -17.8036   26.7454 C   0  0  0  0  0  0  0  0  0  0  0  0
    9.8254  -16.8976   27.6080 O   0  0  0  0  0  0  0  0  0  0  0  0
   10.8743  -18.8490   27.2532 O   0  0  0  0  0  0  0  0  0  0  0  0
  2  1  1  1
  2  3  1  0
  4  6  1  0
  4  2  1  0
  4  5  1  6
  6  7  2  0
  9  8  1  0
 10  9  1  0
 11 10  1  0
 12 11  1  1
 13  6  1  0
 13 12  1  0
 14 15  2  0
 14 12  1  0
 16 14  1  0
 17 16  1  0
 18 19  1  0
 17 18  1  1
 19 20  2  0
 21 20  1  0
 22 21  1  0
 23 22  2  0
 23 19  1  0
 24 17  1  0
 24 25  1  0
 26 24  2  0
M  END
$$$$
