VMH.pdb
     RDKit          3D

 26 26  0  0  1  0  0  0  0  0999 V2000
    7.0581  -18.4172   19.3692 C   0  0  0  0  0  0  0  0  0  0  0  0
    7.7279  -17.8752   20.5894 C   0  0  1  0  0  0  0  0  0  0  0  0
    8.8861  -18.7786   20.9562 C   0  0  0  0  0  0  0  0  0  0  0  0
    8.1995  -16.4378   20.3892 C   0  0  2  0  0  0  0  0  0  0  0  0
    9.2487  -16.4270   19.3989 N   0  0  0  0  0  0  0  0  0  0  0  0
    8.7374  -15.9207   21.6739 C   0  0  0  0  0  0  0  0  0  0  0  0
    9.9831  -15.9743   21.9171 O   0  0  0  0  0  0  0  0  0  0  0  0
    7.0728  -11.4183   27.9147 C   0  0  0  0  0  0  0  0  0  0  0  0
    6.5837  -12.2019   26.3559 S   0  0  0  0  0  0  0  0  0  0  0  0
    7.8973  -13.3874   25.8750 C   0  0  0  0  0  0  0  0  0  0  0  0
    7.5285  -13.8965   24.5171 C   0  0  0  0  0  0  0  0  0  0  0  0
    8.5035  -14.8884   23.9379 C   0  0  2  0  0  0  0  0  0  0  0  0
    7.9289  -15.3524   22.6808 N   0  0  0  0  0  0  0  0  0  0  0  0
    8.7518  -16.0437   24.8557 C   0  0  0  0  0  0  0  0  0  0  0  0
    7.8224  -16.8270   25.1740 O   0  0  0  0  0  0  0  0  0  0  0  0
   10.0702  -16.2489   25.3715 N   0  0  0  0  0  0  0  0  0  0  0  0
   10.4405  -17.2989   26.2663 C   0  0  1  0  0  0  0  0  0  0  0  0
   11.7975  -17.8546   26.0103 C   0  0  0  0  0  0  0  0  0  0  0  0
   11.9406  -18.4931   24.7090 C   0  0  0  0  0  0  0  0  0  0  0  0
   11.0090  -18.7156   23.7201 C   0  0  0  0  0  0  0  0  0  0  0  0
   11.5766  -19.3551   22.6827 N   0  0  0  0  0  0  0  0  0  0  0  0
   12.8740  -19.5484   22.9951 C   0  0  0  0  0  0  0  0  0  0  0  0
   13.0910  -19.0312   24.2101 N   0  0  0  0  0  0  0  0  0  0  0  0
   10.1702  -16.9648   27.6980 C   0  0  0  0  0  0  0  0  0  0  0  0
   10.1354  -17.9867   28.6262 O   0  0  0  0  0  0  0  0  0  0  0  0
    9.9717  -15.8056   28.1259 O   0  0  0  0  0  0  0  0  0  0  0  0
  2  1  1  6
  2  3  1  0
  4  6  1  0
  4  2  1  0
  4  5  1  6
  6  7  2  0
  9  8  1  0
 10  9  1  0
 11 10  1  0
 12 11  1  1
 13  6  1  0
 13 12  1  0
 14 15  2  0
 14 12  1  0
 16 14  1  0
 17 16  1  0
 18 19  1  0
 17 18  1  1
 19 20  2  0
 21 20  1  0
 22 21  1  0
 23 22  2  0
 23 19  1  0
 24 17  1  0
 24 25  1  0
 26 24  2  0
M  END
$$$$
