VMH.pdb
     RDKit          3D

 26 26  0  0  1  0  0  0  0  0999 V2000
    7.4328  -18.2666   21.2142 C   0  0  0  0  0  0  0  0  0  0  0  0
    8.3711  -17.7161   20.1905 C   0  0  1  0  0  0  0  0  0  0  0  0
    7.9691  -18.2352   18.8263 C   0  0  0  0  0  0  0  0  0  0  0  0
    8.4006  -16.1906   20.2067 C   0  0  2  0  0  0  0  0  0  0  0  0
    9.3048  -15.7327   19.1799 N   0  0  0  0  0  0  0  0  0  0  0  0
    8.8932  -15.7292   21.5302 C   0  0  0  0  0  0  0  0  0  0  0  0
   10.1271  -15.8115   21.8210 O   0  0  0  0  0  0  0  0  0  0  0  0
    6.8347  -11.6170   27.9439 C   0  0  0  0  0  0  0  0  0  0  0  0
    6.5553  -12.1430   26.2327 S   0  0  0  0  0  0  0  0  0  0  0  0
    7.8846  -13.3188   25.7716 C   0  0  0  0  0  0  0  0  0  0  0  0
    7.5711  -13.7863   24.3852 C   0  0  0  0  0  0  0  0  0  0  0  0
    8.5902  -14.7296   23.8007 C   0  0  2  0  0  0  0  0  0  0  0  0
    8.0527  -15.1850   22.5241 N   0  0  0  0  0  0  0  0  0  0  0  0
    8.8650  -15.8958   24.6968 C   0  0  0  0  0  0  0  0  0  0  0  0
    7.9741  -16.7478   24.9395 O   0  0  0  0  0  0  0  0  0  0  0  0
   10.1644  -16.0318   25.2793 N   0  0  0  0  0  0  0  0  0  0  0  0
   10.5669  -17.1055   26.1311 C   0  0  1  0  0  0  0  0  0  0  0  0
   11.8983  -17.6762   25.7885 C   0  0  0  0  0  0  0  0  0  0  0  0
   11.9600  -18.2841   24.4662 C   0  0  0  0  0  0  0  0  0  0  0  0
   11.0032  -18.9788   23.7611 C   0  0  0  0  0  0  0  0  0  0  0  0
   11.4971  -19.3761   22.5756 N   0  0  0  0  0  0  0  0  0  0  0  0
   12.7718  -18.9414   22.5089 C   0  0  0  0  0  0  0  0  0  0  0  0
   13.0481  -18.2870   23.6430 N   0  0  0  0  0  0  0  0  0  0  0  0
   10.3823  -16.7967   27.5820 C   0  0  0  0  0  0  0  0  0  0  0  0
   10.6780  -17.7719   28.5141 O   0  0  0  0  0  0  0  0  0  0  0  0
    9.9744  -15.6988   28.0227 O   0  0  0  0  0  0  0  0  0  0  0  0
  2  1  1  1
  2  3  1  0
  4  6  1  0
  4  2  1  0
  4  5  1  6
  6  7  2  0
  9  8  1  0
 10  9  1  0
 11 10  1  0
 12 11  1  1
 13  6  1  0
 13 12  1  0
 14 15  2  0
 14 12  1  0
 16 14  1  0
 17 16  1  0
 18 19  1  0
 17 18  1  1
 19 20  2  0
 21 20  1  0
 22 21  1  0
 23 22  2  0
 23 19  1  0
 24 17  1  0
 24 25  1  0
 26 24  2  0
M  END
$$$$
