VMH.pdb
     RDKit          3D

 26 26  0  0  1  0  0  0  0  0999 V2000
    6.9937  -15.9553   20.2373 C   0  0  0  0  0  0  0  0  0  0  0  0
    7.7829  -14.8904   19.5486 C   0  0  1  0  0  0  0  0  0  0  0  0
    7.3196  -14.7878   18.1109 C   0  0  0  0  0  0  0  0  0  0  0  0
    7.6634  -13.5444   20.2575 C   0  0  2  0  0  0  0  0  0  0  0  0
    8.4421  -12.5682   19.5349 N   0  0  0  0  0  0  0  0  0  0  0  0
    8.2020  -13.6730   21.6361 C   0  0  0  0  0  0  0  0  0  0  0  0
    9.2090  -12.9888   21.9990 O   0  0  0  0  0  0  0  0  0  0  0  0
    7.1636  -10.8595   26.5134 C   0  0  0  0  0  0  0  0  0  0  0  0
    6.1416  -12.3520   26.6165 S   0  0  0  0  0  0  0  0  0  0  0  0
    6.2084  -13.2039   24.9940 C   0  0  0  0  0  0  0  0  0  0  0  0
    7.6467  -13.2114   24.5813 C   0  0  0  0  0  0  0  0  0  0  0  0
    8.1176  -14.5138   23.9881 C   0  0  2  0  0  0  0  0  0  0  0  0
    7.6509  -14.5357   22.6070 N   0  0  0  0  0  0  0  0  0  0  0  0
    7.5943  -15.7004   24.7343 C   0  0  0  0  0  0  0  0  0  0  0  0
    6.4050  -16.0798   24.5919 O   0  0  0  0  0  0  0  0  0  0  0  0
    8.4701  -16.4047   25.6193 N   0  0  0  0  0  0  0  0  0  0  0  0
    9.5979  -17.1773   25.2050 C   0  0  1  0  0  0  0  0  0  0  0  0
   10.3943  -16.5420   24.1197 C   0  0  0  0  0  0  0  0  0  0  0  0
   11.5182  -17.3468   23.6605 C   0  0  0  0  0  0  0  0  0  0  0  0
   11.9735  -18.5703   24.0978 C   0  0  0  0  0  0  0  0  0  0  0  0
   13.0576  -18.9408   23.3944 N   0  0  0  0  0  0  0  0  0  0  0  0
   13.3074  -17.9616   22.5017 C   0  0  0  0  0  0  0  0  0  0  0  0
   12.3838  -17.0066   22.6622 N   0  0  0  0  0  0  0  0  0  0  0  0
   10.4112  -17.6806   26.3538 C   0  0  0  0  0  0  0  0  0  0  0  0
   10.6412  -19.0378   26.4640 O   0  0  0  0  0  0  0  0  0  0  0  0
   10.9100  -16.9492   27.2383 O   0  0  0  0  0  0  0  0  0  0  0  0
  2  1  1  1
  2  3  1  0
  4  6  1  0
  4  2  1  0
  4  5  1  6
  6  7  2  0
  9  8  1  0
 10  9  1  0
 11 10  1  0
 12 11  1  1
 13  6  1  0
 13 12  1  0
 14 15  2  0
 14 12  1  0
 16 14  1  0
 17 16  1  0
 18 19  1  0
 17 18  1  6
 19 20  2  0
 21 20  1  0
 22 21  1  0
 23 22  2  0
 23 19  1  0
 24 17  1  0
 24 25  1  0
 26 24  2  0
M  END
$$$$
