ENF.pdb
     RDKit          3D

 29 29  0  0  1  0  0  0  0  0999 V2000
    5.3968  -18.2382   19.7616 N   0  0  0  0  0  0  0  0  0  0  0  0
    6.5609  -17.9093   20.5233 C   0  0  1  0  0  0  0  0  0  0  0  0
    7.0633  -16.5654   20.0194 C   0  0  0  0  0  0  0  0  0  0  0  0
    8.1004  -16.8888   18.9594 C   0  0  0  0  0  0  0  0  0  0  0  0
    8.6251  -15.6627   18.3131 C   0  0  0  0  0  0  0  0  0  0  0  0
    8.0421  -15.1089   17.3517 O   0  0  0  0  0  0  0  0  0  0  0  0
    6.3643  -17.9333   21.9798 C   0  0  0  0  0  0  0  0  0  0  0  0
    5.3315  -17.4196   22.4848 O   0  0  0  0  0  0  0  0  0  0  0  0
    9.7957  -15.1274   18.7997 O   0  0  0  0  0  0  0  0  0  0  0  0
    4.8976  -20.8835   25.0540 N   0  0  0  0  0  0  0  0  0  0  0  0
    6.2143  -20.8313   24.5590 C   0  0  0  0  0  0  0  0  0  0  0  0
    6.5463  -21.6826   23.6936 O   0  0  0  0  0  0  0  0  0  0  0  0
    7.2413  -19.8583   24.9717 C   0  0  0  0  0  0  0  0  0  0  0  0
    7.0575  -18.5034   24.3516 C   0  0  2  0  0  0  0  0  0  0  0  0
    7.2667  -18.5056   22.9166 N   0  0  0  0  0  0  0  0  0  0  0  0
    8.1198  -17.6159   24.9306 C   0  0  0  0  0  0  0  0  0  0  0  0
    9.3167  -17.6447   24.5408 O   0  0  0  0  0  0  0  0  0  0  0  0
    7.8173  -16.6861   25.9638 N   0  0  0  0  0  0  0  0  0  0  0  0
    8.8581  -15.8857   26.6314 C   0  0  1  0  0  0  0  0  0  0  0  0
    8.2283  -14.7496   27.3663 C   0  0  0  0  0  0  0  0  0  0  0  0
    7.5960  -13.8209   26.4245 C   0  0  0  0  0  0  0  0  0  0  0  0
    8.1542  -13.4824   25.2022 C   0  0  0  0  0  0  0  0  0  0  0  0
    7.5446  -12.6095   24.3245 C   0  0  0  0  0  0  0  0  0  0  0  0
    6.3335  -12.0408   24.6564 C   0  0  0  0  0  0  0  0  0  0  0  0
    5.7681  -12.3714   25.8729 C   0  0  0  0  0  0  0  0  0  0  0  0
    6.3658  -13.2388   26.7538 C   0  0  0  0  0  0  0  0  0  0  0  0
    9.6659  -16.7974   27.4413 C   0  0  0  0  0  0  0  0  0  0  0  0
    9.2166  -17.9292   27.7893 O   0  0  0  0  0  0  0  0  0  0  0  0
   10.9444  -16.5053   27.8763 O   0  0  0  0  0  0  0  0  0  0  0  0
  2  1  1  6
  3  4  1  0
  3  2  1  0
  5  4  1  0
  6  5  2  0
  7  2  1  0
  7  8  2  0
  9  5  1  0
 11 10  1  0
 12 11  2  0
 14 13  1  1
 13 11  1  0
 14 15  1  0
 15  7  1  0
 16 14  1  0
 17 16  2  0
 18 16  1  0
 19 27  1  0
 19 18  1  0
 20 21  1  0
 19 20  1  1
 21 22  2  0
 22 23  1  0
 24 23  2  0
 25 24  1  0
 26 21  1  0
 26 25  2  0
 27 29  1  0
 28 27  2  0
M  END
$$$$
