ENF.pdb
     RDKit          3D

 29 29  0  0  1  0  0  0  0  0999 V2000
    9.2287  -13.2238   19.8340 N   0  0  0  0  0  0  0  0  0  0  0  0
    7.9706  -13.6636   20.3512 C   0  0  1  0  0  0  0  0  0  0  0  0
    7.0628  -13.9287   19.1604 C   0  0  0  0  0  0  0  0  0  0  0  0
    7.7270  -13.2430   17.9803 C   0  0  0  0  0  0  0  0  0  0  0  0
    8.0998  -14.2112   16.9221 C   0  0  0  0  0  0  0  0  0  0  0  0
    7.9359  -15.4467   17.0548 O   0  0  0  0  0  0  0  0  0  0  0  0
    8.0545  -14.8090   21.2687 C   0  0  0  0  0  0  0  0  0  0  0  0
    7.0120  -15.2562   21.8152 O   0  0  0  0  0  0  0  0  0  0  0  0
    8.6443  -13.7174   15.7587 O   0  0  0  0  0  0  0  0  0  0  0  0
    8.9886  -18.3084   20.2412 N   0  0  0  0  0  0  0  0  0  0  0  0
   10.1543  -18.3751   21.0275 C   0  0  0  0  0  0  0  0  0  0  0  0
   11.0495  -19.1867   20.6757 O   0  0  0  0  0  0  0  0  0  0  0  0
   10.4149  -17.5699   22.2339 C   0  0  0  0  0  0  0  0  0  0  0  0
    9.3131  -16.5999   22.5489 C   0  0  2  0  0  0  0  0  0  0  0  0
    9.2513  -15.4922   21.6151 N   0  0  0  0  0  0  0  0  0  0  0  0
    9.6322  -16.0041   23.8884 C   0  0  0  0  0  0  0  0  0  0  0  0
   10.6514  -15.2930   24.0909 O   0  0  0  0  0  0  0  0  0  0  0  0
    8.7831  -16.2195   25.0093 N   0  0  0  0  0  0  0  0  0  0  0  0
    9.1628  -15.8136   26.3734 C   0  0  1  0  0  0  0  0  0  0  0  0
    7.9649  -15.2983   27.0992 C   0  0  0  0  0  0  0  0  0  0  0  0
    7.6147  -13.9583   26.6183 C   0  0  0  0  0  0  0  0  0  0  0  0
    8.4317  -12.8525   26.7908 C   0  0  0  0  0  0  0  0  0  0  0  0
    8.0898  -11.5981   26.3286 C   0  0  0  0  0  0  0  0  0  0  0  0
    6.8941  -11.4156   25.6673 C   0  0  0  0  0  0  0  0  0  0  0  0
    6.0717  -12.5115   25.4900 C   0  0  0  0  0  0  0  0  0  0  0  0
    6.4020  -13.7642   25.9456 C   0  0  0  0  0  0  0  0  0  0  0  0
    9.8463  -16.9461   26.9978 C   0  0  0  0  0  0  0  0  0  0  0  0
    9.7607  -18.1094   26.5045 O   0  0  0  0  0  0  0  0  0  0  0  0
   10.6169  -16.8393   28.1397 O   0  0  0  0  0  0  0  0  0  0  0  0
  2  1  1  6
  3  4  1  0
  3  2  1  0
  5  4  1  0
  6  5  2  0
  7  2  1  0
  7  8  2  0
  9  5  1  0
 11 10  1  0
 12 11  2  0
 14 13  1  6
 13 11  1  0
 14 15  1  0
 15  7  1  0
 16 14  1  0
 17 16  2  0
 18 16  1  0
 19 27  1  0
 19 18  1  0
 20 21  1  0
 19 20  1  1
 21 22  2  0
 22 23  1  0
 24 23  2  0
 25 24  1  0
 26 21  1  0
 26 25  2  0
 27 29  1  0
 28 27  2  0
M  END
$$$$
