ENF.pdb
     RDKit          3D

 29 29  0  0  1  0  0  0  0  0999 V2000
   10.0763  -16.3114   19.1716 N   0  0  0  0  0  0  0  0  0  0  0  0
    9.3440  -15.3123   19.8852 C   0  0  1  0  0  0  0  0  0  0  0  0
    8.3650  -14.6860   18.9046 C   0  0  0  0  0  0  0  0  0  0  0  0
    9.1977  -14.2715   17.7052 C   0  0  0  0  0  0  0  0  0  0  0  0
    8.3478  -13.8603   16.5629 C   0  0  0  0  0  0  0  0  0  0  0  0
    7.2254  -14.3728   16.3429 O   0  0  0  0  0  0  0  0  0  0  0  0
    8.6917  -15.7929   21.1117 C   0  0  0  0  0  0  0  0  0  0  0  0
    7.4400  -15.7216   21.2291 O   0  0  0  0  0  0  0  0  0  0  0  0
    8.8246  -12.8789   15.7244 O   0  0  0  0  0  0  0  0  0  0  0  0
    9.2996  -19.7449   21.2098 N   0  0  0  0  0  0  0  0  0  0  0  0
    8.4532  -19.1592   22.1700 C   0  0  0  0  0  0  0  0  0  0  0  0
    7.2122  -19.2249   21.9713 O   0  0  0  0  0  0  0  0  0  0  0  0
    8.9013  -18.4722   23.3943 C   0  0  0  0  0  0  0  0  0  0  0  0
    8.6951  -16.9858   23.3494 C   0  0  2  0  0  0  0  0  0  0  0  0
    9.3659  -16.3557   22.2287 N   0  0  0  0  0  0  0  0  0  0  0  0
    9.3279  -16.4245   24.5886 C   0  0  0  0  0  0  0  0  0  0  0  0
   10.5544  -16.1486   24.6606 O   0  0  0  0  0  0  0  0  0  0  0  0
    8.5576  -16.1743   25.7581 N   0  0  0  0  0  0  0  0  0  0  0  0
    9.1457  -15.5967   26.9789 C   0  0  1  0  0  0  0  0  0  0  0  0
    8.1239  -14.7756   27.6924 C   0  0  0  0  0  0  0  0  0  0  0  0
    7.6807  -13.6641   26.8454 C   0  0  0  0  0  0  0  0  0  0  0  0
    8.4810  -12.5739   26.5438 C   0  0  0  0  0  0  0  0  0  0  0  0
    8.0508  -11.5370   25.7413 C   0  0  0  0  0  0  0  0  0  0  0  0
    6.7796  -11.5668   25.2090 C   0  0  0  0  0  0  0  0  0  0  0  0
    5.9731  -12.6492   25.5034 C   0  0  0  0  0  0  0  0  0  0  0  0
    6.3909  -13.6863   26.3006 C   0  0  0  0  0  0  0  0  0  0  0  0
    9.7315  -16.6934   27.7494 C   0  0  0  0  0  0  0  0  0  0  0  0
    9.4322  -17.8978   27.4969 O   0  0  0  0  0  0  0  0  0  0  0  0
   10.6313  -16.5078   28.7814 O   0  0  0  0  0  0  0  0  0  0  0  0
  2  1  1  6
  3  4  1  0
  3  2  1  0
  5  4  1  0
  6  5  2  0
  7  2  1  0
  7  8  2  0
  9  5  1  0
 11 10  1  0
 12 11  2  0
 14 13  1  6
 13 11  1  0
 14 15  1  0
 15  7  1  0
 16 14  1  0
 17 16  2  0
 18 16  1  0
 19 27  1  0
 19 18  1  0
 20 21  1  0
 19 20  1  1
 21 22  2  0
 22 23  1  0
 24 23  2  0
 25 24  1  0
 26 21  1  0
 26 25  2  0
 27 29  1  0
 28 27  2  0
M  END
$$$$
