ENF.pdb
     RDKit          3D

 29 29  0  0  1  0  0  0  0  0999 V2000
    7.8289  -12.9062   20.8041 N   0  0  0  0  0  0  0  0  0  0  0  0
    7.1530  -14.1223   20.4754 C   0  0  1  0  0  0  0  0  0  0  0  0
    7.2178  -14.2786   18.9642 C   0  0  0  0  0  0  0  0  0  0  0  0
    8.6834  -14.1246   18.6006 C   0  0  0  0  0  0  0  0  0  0  0  0
    8.9223  -14.3886   17.1620 C   0  0  0  0  0  0  0  0  0  0  0  0
    9.8082  -13.7900   16.5079 O   0  0  0  0  0  0  0  0  0  0  0  0
    7.6461  -15.3075   21.1915 C   0  0  0  0  0  0  0  0  0  0  0  0
    7.4558  -16.4569   20.7137 O   0  0  0  0  0  0  0  0  0  0  0  0
    8.1333  -15.3281   16.5387 O   0  0  0  0  0  0  0  0  0  0  0  0
    8.7688  -19.3487   22.9411 N   0  0  0  0  0  0  0  0  0  0  0  0
    9.8162  -18.6310   22.3334 C   0  0  0  0  0  0  0  0  0  0  0  0
   10.7321  -19.2927   21.7793 O   0  0  0  0  0  0  0  0  0  0  0  0
    9.9301  -17.1622   22.2918 C   0  0  0  0  0  0  0  0  0  0  0  0
    8.8682  -16.4624   23.0897 C   0  0  2  0  0  0  0  0  0  0  0  0
    8.3486  -15.2822   22.4265 N   0  0  0  0  0  0  0  0  0  0  0  0
    9.5225  -15.9824   24.3518 C   0  0  0  0  0  0  0  0  0  0  0  0
   10.6379  -15.3983   24.3597 O   0  0  0  0  0  0  0  0  0  0  0  0
    8.9015  -16.1689   25.6180 N   0  0  0  0  0  0  0  0  0  0  0  0
    9.5472  -15.7633   26.8783 C   0  0  1  0  0  0  0  0  0  0  0  0
    8.5481  -15.1018   27.7679 C   0  0  0  0  0  0  0  0  0  0  0  0
    7.9902  -13.9142   27.1139 C   0  0  0  0  0  0  0  0  0  0  0  0
    8.5767  -12.6610   27.1882 C   0  0  0  0  0  0  0  0  0  0  0  0
    8.0415  -11.5532   26.5634 C   0  0  0  0  0  0  0  0  0  0  0  0
    6.8793  -11.6755   25.8322 C   0  0  0  0  0  0  0  0  0  0  0  0
    6.2861  -12.9207   25.7517 C   0  0  0  0  0  0  0  0  0  0  0  0
    6.8100  -14.0297   26.3693 C   0  0  0  0  0  0  0  0  0  0  0  0
   10.2119  -16.9419   27.4340 C   0  0  0  0  0  0  0  0  0  0  0  0
   10.0232  -18.0905   26.9349 O   0  0  0  0  0  0  0  0  0  0  0  0
   11.0728  -16.8965   28.5138 O   0  0  0  0  0  0  0  0  0  0  0  0
  2  1  1  6
  3  4  1  0
  3  2  1  0
  5  4  1  0
  6  5  2  0
  7  2  1  0
  7  8  2  0
  9  5  1  0
 11 10  1  0
 12 11  2  0
 14 13  1  6
 13 11  1  0
 14 15  1  0
 15  7  1  0
 16 14  1  0
 17 16  2  0
 18 16  1  0
 19 27  1  0
 19 18  1  0
 20 21  1  0
 19 20  1  1
 21 22  2  0
 22 23  1  0
 24 23  2  0
 25 24  1  0
 26 21  1  0
 26 25  2  0
 27 29  1  0
 28 27  2  0
M  END
$$$$
