ENF.pdb
     RDKit          3D

 29 29  0  0  1  0  0  0  0  0999 V2000
    9.2878  -18.8511   19.5241 N   0  0  0  0  0  0  0  0  0  0  0  0
    8.9456  -17.4823   19.2936 C   0  0  1  0  0  0  0  0  0  0  0  0
    8.3675  -17.3935   17.8900 C   0  0  0  0  0  0  0  0  0  0  0  0
    9.2397  -16.3941   17.1520 C   0  0  0  0  0  0  0  0  0  0  0  0
    8.8058  -16.2208   15.7456 C   0  0  0  0  0  0  0  0  0  0  0  0
    7.8960  -16.9144   15.2337 O   0  0  0  0  0  0  0  0  0  0  0  0
    8.0625  -16.8942   20.3109 C   0  0  0  0  0  0  0  0  0  0  0  0
    7.7291  -15.6825   20.2315 O   0  0  0  0  0  0  0  0  0  0  0  0
    9.4360  -15.2589   14.9899 O   0  0  0  0  0  0  0  0  0  0  0  0
    5.7166  -19.8300   24.1251 N   0  0  0  0  0  0  0  0  0  0  0  0
    5.6288  -19.1993   22.8698 C   0  0  0  0  0  0  0  0  0  0  0  0
    5.7568  -19.9187   21.8452 O   0  0  0  0  0  0  0  0  0  0  0  0
    5.3983  -17.7597   22.6544 C   0  0  0  0  0  0  0  0  0  0  0  0
    6.6633  -16.9847   22.4239 C   0  0  2  0  0  0  0  0  0  0  0  0
    7.5235  -17.5907   21.4260 N   0  0  0  0  0  0  0  0  0  0  0  0
    7.4290  -17.0144   23.7139 C   0  0  0  0  0  0  0  0  0  0  0  0
    7.2154  -17.8708   24.6118 O   0  0  0  0  0  0  0  0  0  0  0  0
    8.4482  -16.0598   23.9853 N   0  0  0  0  0  0  0  0  0  0  0  0
    8.7842  -15.6356   25.3553 C   0  0  1  0  0  0  0  0  0  0  0  0
    7.5373  -15.2812   26.0948 C   0  0  0  0  0  0  0  0  0  0  0  0
    7.2645  -13.8456   25.9762 C   0  0  0  0  0  0  0  0  0  0  0  0
    6.3141  -13.1880   26.7406 C   0  0  0  0  0  0  0  0  0  0  0  0
    6.0718  -11.8349   26.6202 C   0  0  0  0  0  0  0  0  0  0  0  0
    6.7914  -11.0899   25.7106 C   0  0  0  0  0  0  0  0  0  0  0  0
    7.7415  -11.7356   24.9432 C   0  0  0  0  0  0  0  0  0  0  0  0
    7.9909  -13.0814   25.0547 C   0  0  0  0  0  0  0  0  0  0  0  0
    9.6026  -16.6885   25.9562 C   0  0  0  0  0  0  0  0  0  0  0  0
    9.6244  -17.8554   25.4643 O   0  0  0  0  0  0  0  0  0  0  0  0
   10.3935  -16.4989   27.0732 O   0  0  0  0  0  0  0  0  0  0  0  0
  2  1  1  1
  3  4  1  0
  3  2  1  0
  5  4  1  0
  6  5  2  0
  7  2  1  0
  7  8  2  0
  9  5  1  0
 11 10  1  0
 12 11  2  0
 14 13  1  1
 13 11  1  0
 14 15  1  0
 15  7  1  0
 16 14  1  0
 17 16  2  0
 18 16  1  0
 19 27  1  0
 19 18  1  0
 20 21  1  0
 19 20  1  1
 21 22  2  0
 22 23  1  0
 24 23  2  0
 25 24  1  0
 26 21  1  0
 26 25  2  0
 27 29  1  0
 28 27  2  0
M  END
$$$$
