ENF.pdb
     RDKit          3D

 29 29  0  0  1  0  0  0  0  0999 V2000
    8.8845  -15.2903   20.2448 N   0  0  0  0  0  0  0  0  0  0  0  0
    7.8561  -15.7712   21.1135 C   0  0  1  0  0  0  0  0  0  0  0  0
    6.9556  -16.6756   20.2867 C   0  0  0  0  0  0  0  0  0  0  0  0
    7.5091  -16.6217   18.8744 C   0  0  0  0  0  0  0  0  0  0  0  0
    6.7388  -17.4867   17.9499 C   0  0  0  0  0  0  0  0  0  0  0  0
    7.2568  -18.0185   16.9401 O   0  0  0  0  0  0  0  0  0  0  0  0
    8.3455  -16.4212   22.3377 C   0  0  0  0  0  0  0  0  0  0  0  0
    7.5350  -16.9861   23.1184 O   0  0  0  0  0  0  0  0  0  0  0  0
    5.4081  -17.7023   18.2263 O   0  0  0  0  0  0  0  0  0  0  0  0
   12.2424  -18.8271   21.4351 N   0  0  0  0  0  0  0  0  0  0  0  0
   11.5057  -18.8807   22.6333 C   0  0  0  0  0  0  0  0  0  0  0  0
   10.7766  -19.8883   22.8253 O   0  0  0  0  0  0  0  0  0  0  0  0
   11.5172  -17.8502   23.6868 C   0  0  0  0  0  0  0  0  0  0  0  0
   10.1769  -17.2098   23.9044 C   0  0  2  0  0  0  0  0  0  0  0  0
    9.7057  -16.4772   22.7450 N   0  0  0  0  0  0  0  0  0  0  0  0
   10.3543  -16.1981   24.9982 C   0  0  0  0  0  0  0  0  0  0  0  0
   11.2751  -15.3394   24.9874 O   0  0  0  0  0  0  0  0  0  0  0  0
    9.4750  -16.1630   26.1159 N   0  0  0  0  0  0  0  0  0  0  0  0
    9.7581  -15.3549   27.3145 C   0  0  1  0  0  0  0  0  0  0  0  0
    8.4962  -14.7360   27.8164 C   0  0  0  0  0  0  0  0  0  0  0  0
    7.9957  -13.7479   26.8560 C   0  0  0  0  0  0  0  0  0  0  0  0
    8.7028  -12.6111   26.4986 C   0  0  0  0  0  0  0  0  0  0  0  0
    8.2199  -11.6920   25.5897 C   0  0  0  0  0  0  0  0  0  0  0  0
    6.9888  -11.8930   25.0028 C   0  0  0  0  0  0  0  0  0  0  0  0
    6.2752  -13.0233   25.3520 C   0  0  0  0  0  0  0  0  0  0  0  0
    6.7462  -13.9443   26.2552 C   0  0  0  0  0  0  0  0  0  0  0  0
   10.4700  -16.2084   28.2654 C   0  0  0  0  0  0  0  0  0  0  0  0
   10.5117  -17.4643   28.1070 O   0  0  0  0  0  0  0  0  0  0  0  0
   11.1340  -15.7267   29.3773 O   0  0  0  0  0  0  0  0  0  0  0  0
  2  1  1  6
  3  4  1  0
  3  2  1  0
  5  4  1  0
  6  5  2  0
  7  2  1  0
  7  8  2  0
  9  5  1  0
 11 10  1  0
 12 11  2  0
 14 13  1  6
 13 11  1  0
 14 15  1  0
 15  7  1  0
 16 14  1  0
 17 16  2  0
 18 16  1  0
 19 27  1  0
 19 18  1  0
 20 21  1  0
 19 20  1  1
 21 22  2  0
 22 23  1  0
 24 23  2  0
 25 24  1  0
 26 21  1  0
 26 25  2  0
 27 29  1  0
 28 27  2  0
M  END
$$$$
