ENF.pdb
     RDKit          3D

 29 29  0  0  1  0  0  0  0  0999 V2000
   10.7446  -20.2383   18.5667 N   0  0  0  0  0  0  0  0  0  0  0  0
   10.4332  -18.8656   18.8164 C   0  0  1  0  0  0  0  0  0  0  0  0
   10.0860  -18.2326   17.4781 C   0  0  0  0  0  0  0  0  0  0  0  0
   11.3297  -18.3826   16.6209 C   0  0  0  0  0  0  0  0  0  0  0  0
   11.1157  -17.8659   15.2485 C   0  0  0  0  0  0  0  0  0  0  0  0
   11.4705  -16.7150   14.9018 O   0  0  0  0  0  0  0  0  0  0  0  0
    9.3943  -18.6506   19.8339 C   0  0  0  0  0  0  0  0  0  0  0  0
    8.2172  -18.3726   19.4836 O   0  0  0  0  0  0  0  0  0  0  0  0
   10.5038  -18.6940   14.3356 O   0  0  0  0  0  0  0  0  0  0  0  0
    7.6942  -20.1725   25.5425 N   0  0  0  0  0  0  0  0  0  0  0  0
    7.5146  -19.8013   24.1966 C   0  0  0  0  0  0  0  0  0  0  0  0
    6.3807  -19.3750   23.8554 O   0  0  0  0  0  0  0  0  0  0  0  0
    8.5486  -19.8706   23.1488 C   0  0  0  0  0  0  0  0  0  0  0  0
    8.5280  -18.6939   22.2167 C   0  0  2  0  0  0  0  0  0  0  0  0
    9.5974  -18.7294   21.2380 N   0  0  0  0  0  0  0  0  0  0  0  0
    8.7662  -17.4736   23.0567 C   0  0  0  0  0  0  0  0  0  0  0  0
    9.9155  -17.1171   23.4274 O   0  0  0  0  0  0  0  0  0  0  0  0
    7.6858  -16.6504   23.4793 N   0  0  0  0  0  0  0  0  0  0  0  0
    7.8836  -15.4770   24.3475 C   0  0  1  0  0  0  0  0  0  0  0  0
    6.7065  -14.5658   24.2416 C   0  0  0  0  0  0  0  0  0  0  0  0
    6.8606  -13.4258   25.1506 C   0  0  0  0  0  0  0  0  0  0  0  0
    7.8805  -12.4951   25.0344 C   0  0  0  0  0  0  0  0  0  0  0  0
    8.0099  -11.4247   25.8956 C   0  0  0  0  0  0  0  0  0  0  0  0
    7.1005  -11.2561   26.9179 C   0  0  0  0  0  0  0  0  0  0  0  0
    6.0796  -12.1785   27.0429 C   0  0  0  0  0  0  0  0  0  0  0  0
    5.9414  -13.2471   26.1917 C   0  0  0  0  0  0  0  0  0  0  0  0
    8.1894  -15.9675   25.6912 C   0  0  0  0  0  0  0  0  0  0  0  0
    7.5215  -16.9123   26.2060 O   0  0  0  0  0  0  0  0  0  0  0  0
    9.2011  -15.4551   26.4806 O   0  0  0  0  0  0  0  0  0  0  0  0
  2  1  1  6
  3  4  1  0
  3  2  1  0
  5  4  1  0
  6  5  2  0
  7  2  1  0
  7  8  2  0
  9  5  1  0
 11 10  1  0
 12 11  2  0
 14 13  1  1
 13 11  1  0
 14 15  1  0
 15  7  1  0
 16 14  1  0
 17 16  2  0
 18 16  1  0
 19 27  1  0
 19 18  1  0
 20 21  1  0
 19 20  1  1
 21 22  2  0
 22 23  1  0
 24 23  2  0
 25 24  1  0
 26 21  1  0
 26 25  2  0
 27 29  1  0
 28 27  2  0
M  END
$$$$
