ENF.pdb
     RDKit          3D

 29 29  0  0  1  0  0  0  0  0999 V2000
    8.0850  -13.4853   18.4366 N   0  0  0  0  0  0  0  0  0  0  0  0
    8.7057  -14.5228   19.1995 C   0  0  1  0  0  0  0  0  0  0  0  0
   10.1654  -14.1365   19.3798 C   0  0  0  0  0  0  0  0  0  0  0  0
   10.9471  -15.0532   18.4565 C   0  0  0  0  0  0  0  0  0  0  0  0
   12.4074  -14.8239   18.5634 C   0  0  0  0  0  0  0  0  0  0  0  0
   13.2368  -15.4361   17.8506 O   0  0  0  0  0  0  0  0  0  0  0  0
    8.0368  -14.8284   20.4723 C   0  0  0  0  0  0  0  0  0  0  0  0
    7.6286  -13.8931   21.2100 O   0  0  0  0  0  0  0  0  0  0  0  0
   12.8499  -13.9017   19.4840 O   0  0  0  0  0  0  0  0  0  0  0  0
    6.0279  -17.2138   24.7990 N   0  0  0  0  0  0  0  0  0  0  0  0
    6.2077  -18.1359   23.7508 C   0  0  0  0  0  0  0  0  0  0  0  0
    5.9588  -19.3463   23.9896 O   0  0  0  0  0  0  0  0  0  0  0  0
    6.6652  -17.8006   22.3907 C   0  0  0  0  0  0  0  0  0  0  0  0
    7.2235  -16.4114   22.2786 C   0  0  2  0  0  0  0  0  0  0  0  0
    7.7945  -16.1353   20.9746 N   0  0  0  0  0  0  0  0  0  0  0  0
    8.3536  -16.3197   23.2612 C   0  0  0  0  0  0  0  0  0  0  0  0
    9.4845  -16.8302   23.0464 O   0  0  0  0  0  0  0  0  0  0  0  0
    8.1959  -15.6403   24.5010 N   0  0  0  0  0  0  0  0  0  0  0  0
    9.3279  -15.3863   25.4086 C   0  0  1  0  0  0  0  0  0  0  0  0
    9.4905  -13.9172   25.6148 C   0  0  0  0  0  0  0  0  0  0  0  0
    8.2264  -13.3213   26.0579 C   0  0  0  0  0  0  0  0  0  0  0  0
    7.1932  -13.0017   25.1916 C   0  0  0  0  0  0  0  0  0  0  0  0
    6.0073  -12.4449   25.6247 C   0  0  0  0  0  0  0  0  0  0  0  0
    5.8224  -12.1884   26.9665 C   0  0  0  0  0  0  0  0  0  0  0  0
    6.8462  -12.5031   27.8390 C   0  0  0  0  0  0  0  0  0  0  0  0
    8.0303  -13.0575   27.4191 C   0  0  0  0  0  0  0  0  0  0  0  0
    9.1107  -16.1783   26.6191 C   0  0  0  0  0  0  0  0  0  0  0  0
    9.9288  -16.1275   27.5846 O   0  0  0  0  0  0  0  0  0  0  0  0
    8.0284  -17.0179   26.7999 O   0  0  0  0  0  0  0  0  0  0  0  0
  2  1  1  1
  3  4  1  0
  3  2  1  0
  5  4  1  0
  6  5  2  0
  7  2  1  0
  7  8  2  0
  9  5  1  0
 11 10  1  0
 12 11  2  0
 14 13  1  6
 13 11  1  0
 14 15  1  0
 15  7  1  0
 16 14  1  0
 17 16  2  0
 18 16  1  0
 19 27  1  0
 19 18  1  0
 20 21  1  0
 19 20  1  1
 21 22  2  0
 22 23  1  0
 24 23  2  0
 25 24  1  0
 26 21  1  0
 26 25  2  0
 27 29  1  0
 28 27  2  0
M  END
$$$$
