ENF.pdb
     RDKit          3D

 29 29  0  0  1  0  0  0  0  0999 V2000
    9.4239  -14.1356   19.5261 N   0  0  0  0  0  0  0  0  0  0  0  0
    8.2455  -13.8385   20.2790 C   0  0  1  0  0  0  0  0  0  0  0  0
    7.1044  -13.6836   19.2859 C   0  0  0  0  0  0  0  0  0  0  0  0
    7.6662  -12.8552   18.1449 C   0  0  0  0  0  0  0  0  0  0  0  0
    8.2516  -13.7084   17.0839 C   0  0  0  0  0  0  0  0  0  0  0  0
    7.6915  -14.7535   16.6779 O   0  0  0  0  0  0  0  0  0  0  0  0
    7.9437  -14.8031   21.3464 C   0  0  0  0  0  0  0  0  0  0  0  0
    6.8658  -14.7126   21.9911 O   0  0  0  0  0  0  0  0  0  0  0  0
    9.4541  -13.3234   16.5367 O   0  0  0  0  0  0  0  0  0  0  0  0
   11.5267  -18.4488   22.2884 N   0  0  0  0  0  0  0  0  0  0  0  0
   10.2716  -18.1879   21.7072 C   0  0  0  0  0  0  0  0  0  0  0  0
   10.2454  -17.8897   20.4848 O   0  0  0  0  0  0  0  0  0  0  0  0
    8.9794  -18.2350   22.4143 C   0  0  0  0  0  0  0  0  0  0  0  0
    8.4245  -16.8754   22.7266 C   0  0  2  0  0  0  0  0  0  0  0  0
    8.7874  -15.8765   21.7400 N   0  0  0  0  0  0  0  0  0  0  0  0
    9.0519  -16.4392   24.0178 C   0  0  0  0  0  0  0  0  0  0  0  0
   10.2102  -15.9494   24.0797 O   0  0  0  0  0  0  0  0  0  0  0  0
    8.3544  -16.5613   25.2516 N   0  0  0  0  0  0  0  0  0  0  0  0
    8.9498  -16.1537   26.5358 C   0  0  1  0  0  0  0  0  0  0  0  0
    7.9169  -15.4890   27.3834 C   0  0  0  0  0  0  0  0  0  0  0  0
    7.6176  -14.1500   26.8667 C   0  0  0  0  0  0  0  0  0  0  0  0
    8.5768  -13.1605   26.7223 C   0  0  0  0  0  0  0  0  0  0  0  0
    8.2802  -11.9058   26.2304 C   0  0  0  0  0  0  0  0  0  0  0  0
    6.9863  -11.6041   25.8627 C   0  0  0  0  0  0  0  0  0  0  0  0
    6.0220  -12.5835   26.0027 C   0  0  0  0  0  0  0  0  0  0  0  0
    6.3060  -13.8351   26.4909 C   0  0  0  0  0  0  0  0  0  0  0  0
    9.5903  -17.3318   27.1202 C   0  0  0  0  0  0  0  0  0  0  0  0
   10.2605  -17.2432   28.1911 O   0  0  0  0  0  0  0  0  0  0  0  0
    9.5161  -18.5960   26.5676 O   0  0  0  0  0  0  0  0  0  0  0  0
  2  1  1  6
  3  4  1  0
  3  2  1  0
  5  4  1  0
  6  5  2  0
  7  2  1  0
  7  8  2  0
  9  5  1  0
 11 10  1  0
 12 11  2  0
 14 13  1  6
 13 11  1  0
 14 15  1  0
 15  7  1  0
 16 14  1  0
 17 16  2  0
 18 16  1  0
 19 27  1  0
 19 18  1  0
 20 21  1  0
 19 20  1  1
 21 22  2  0
 22 23  1  0
 24 23  2  0
 25 24  1  0
 26 21  1  0
 26 25  2  0
 27 29  1  0
 28 27  2  0
M  END
$$$$
