ENF.pdb
     RDKit          3D

 29 29  0  0  1  0  0  0  0  0999 V2000
    9.3602  -13.2867   19.4533 N   0  0  0  0  0  0  0  0  0  0  0  0
    8.0843  -13.6793   19.9649 C   0  0  1  0  0  0  0  0  0  0  0  0
    7.1962  -13.9880   18.7698 C   0  0  0  0  0  0  0  0  0  0  0  0
    7.8921  -13.3660   17.5728 C   0  0  0  0  0  0  0  0  0  0  0  0
    8.5506  -14.3901   16.7279 C   0  0  0  0  0  0  0  0  0  0  0  0
    7.9113  -15.1111   15.9265 O   0  0  0  0  0  0  0  0  0  0  0  0
    8.1295  -14.7791   20.9392 C   0  0  0  0  0  0  0  0  0  0  0  0
    7.0644  -15.3463   21.2989 O   0  0  0  0  0  0  0  0  0  0  0  0
    9.9138  -14.5405   16.8411 O   0  0  0  0  0  0  0  0  0  0  0  0
   11.6872  -17.2086   20.0446 N   0  0  0  0  0  0  0  0  0  0  0  0
   11.4505  -17.0340   21.4211 C   0  0  0  0  0  0  0  0  0  0  0  0
   12.3362  -16.4471   22.0955 O   0  0  0  0  0  0  0  0  0  0  0  0
   10.2461  -17.4835   22.1418 C   0  0  0  0  0  0  0  0  0  0  0  0
    9.3275  -16.3582   22.5209 C   0  0  2  0  0  0  0  0  0  0  0  0
    9.3111  -15.2880   21.5425 N   0  0  0  0  0  0  0  0  0  0  0  0
    9.8723  -15.7636   23.7861 C   0  0  0  0  0  0  0  0  0  0  0  0
   10.3421  -14.5967   23.8419 O   0  0  0  0  0  0  0  0  0  0  0  0
    9.8830  -16.5042   25.0007 N   0  0  0  0  0  0  0  0  0  0  0  0
    9.1283  -16.0749   26.1906 C   0  0  1  0  0  0  0  0  0  0  0  0
    7.7291  -15.7287   25.8040 C   0  0  0  0  0  0  0  0  0  0  0  0
    7.4642  -14.3103   26.0641 C   0  0  0  0  0  0  0  0  0  0  0  0
    6.7090  -13.5121   25.2199 C   0  0  0  0  0  0  0  0  0  0  0  0
    6.4650  -12.1793   25.4806 C   0  0  0  0  0  0  0  0  0  0  0  0
    6.9830  -11.5994   26.6189 C   0  0  0  0  0  0  0  0  0  0  0  0
    7.7377  -12.3863   27.4676 C   0  0  0  0  0  0  0  0  0  0  0  0
    7.9867  -13.7134   27.2180 C   0  0  0  0  0  0  0  0  0  0  0  0
    9.2681  -17.1203   27.2041 C   0  0  0  0  0  0  0  0  0  0  0  0
    9.1048  -16.8605   28.4328 O   0  0  0  0  0  0  0  0  0  0  0  0
    9.5785  -18.4342   26.9099 O   0  0  0  0  0  0  0  0  0  0  0  0
  2  1  1  6
  3  4  1  0
  3  2  1  0
  5  4  1  0
  6  5  2  0
  7  2  1  0
  7  8  2  0
  9  5  1  0
 11 10  1  0
 12 11  2  0
 14 13  1  6
 13 11  1  0
 14 15  1  0
 15  7  1  0
 16 14  1  0
 17 16  2  0
 18 16  1  0
 19 27  1  0
 19 18  1  0
 20 21  1  0
 19 20  1  6
 21 22  2  0
 22 23  1  0
 24 23  2  0
 25 24  1  0
 26 21  1  0
 26 25  2  0
 27 29  1  0
 28 27  2  0
M  END
$$$$
