ENF.pdb
     RDKit          3D

 29 29  0  0  1  0  0  0  0  0999 V2000
    8.0388  -15.3042   20.0469 N   0  0  0  0  0  0  0  0  0  0  0  0
    7.3987  -15.9322   21.1602 C   0  0  1  0  0  0  0  0  0  0  0  0
    6.4073  -16.9397   20.5994 C   0  0  0  0  0  0  0  0  0  0  0  0
    6.9375  -17.3133   19.2271 C   0  0  0  0  0  0  0  0  0  0  0  0
    6.1285  -18.3849   18.5996 C   0  0  0  0  0  0  0  0  0  0  0  0
    5.1728  -18.9384   19.1920 O   0  0  0  0  0  0  0  0  0  0  0  0
    8.3205  -16.5257   22.1394 C   0  0  0  0  0  0  0  0  0  0  0  0
    7.8871  -17.3299   23.0060 O   0  0  0  0  0  0  0  0  0  0  0  0
    6.4533  -18.7729   17.3199 O   0  0  0  0  0  0  0  0  0  0  0  0
   11.8031  -18.4598   21.0621 N   0  0  0  0  0  0  0  0  0  0  0  0
   12.4792  -17.3714   21.6448 C   0  0  0  0  0  0  0  0  0  0  0  0
   13.5316  -16.9700   21.0833 O   0  0  0  0  0  0  0  0  0  0  0  0
   12.0554  -16.6593   22.8635 C   0  0  0  0  0  0  0  0  0  0  0  0
   10.6038  -16.8575   23.1915 C   0  0  2  0  0  0  0  0  0  0  0  0
    9.7165  -16.2692   22.2069 N   0  0  0  0  0  0  0  0  0  0  0  0
   10.3483  -16.1283   24.4776 C   0  0  0  0  0  0  0  0  0  0  0  0
   10.7295  -14.9447   24.6755 O   0  0  0  0  0  0  0  0  0  0  0  0
    9.6519  -16.7520   25.5499 N   0  0  0  0  0  0  0  0  0  0  0  0
    9.4362  -16.0816   26.8436 C   0  0  1  0  0  0  0  0  0  0  0  0
    7.9825  -15.8009   27.0312 C   0  0  0  0  0  0  0  0  0  0  0  0
    7.6585  -14.4513   26.5587 C   0  0  0  0  0  0  0  0  0  0  0  0
    6.8540  -14.2056   25.4576 C   0  0  0  0  0  0  0  0  0  0  0  0
    6.5547  -12.9291   25.0275 C   0  0  0  0  0  0  0  0  0  0  0  0
    7.0654  -11.8423   25.7046 C   0  0  0  0  0  0  0  0  0  0  0  0
    7.8690  -12.0760   26.8038 C   0  0  0  0  0  0  0  0  0  0  0  0
    8.1732  -13.3419   27.2406 C   0  0  0  0  0  0  0  0  0  0  0  0
   10.0640  -16.9036   27.8779 C   0  0  0  0  0  0  0  0  0  0  0  0
   10.0545  -16.5408   29.0913 O   0  0  0  0  0  0  0  0  0  0  0  0
   10.6967  -18.1047   27.6210 O   0  0  0  0  0  0  0  0  0  0  0  0
  2  1  1  6
  3  4  1  0
  3  2  1  0
  5  4  1  0
  6  5  2  0
  7  2  1  0
  7  8  2  0
  9  5  1  0
 11 10  1  0
 12 11  2  0
 14 13  1  6
 13 11  1  0
 14 15  1  0
 15  7  1  0
 16 14  1  0
 17 16  2  0
 18 16  1  0
 19 27  1  0
 19 18  1  0
 20 21  1  0
 19 20  1  1
 21 22  2  0
 22 23  1  0
 24 23  2  0
 25 24  1  0
 26 21  1  0
 26 25  2  0
 27 29  1  0
 28 27  2  0
M  END
$$$$
