ISL.pdb
     RDKit          3D

 23 22  0  0  1  0  0  0  0  0999 V2000
   28.5977  -18.3137  -18.2559 C   0  0  0  0  0  0  0  0  0  0  0  0
   28.4342  -18.1439  -16.7527 C   0  0  0  0  0  0  0  0  0  0  0  0
   27.3745  -19.0547  -16.2055 C   0  0  2  0  0  0  0  0  0  0  0  0
   26.0749  -18.8750  -16.9624 C   0  0  0  0  0  0  0  0  0  0  0  0
   27.1928  -18.9203  -14.7240 C   0  0  2  0  0  0  0  0  0  0  0  0
   28.4605  -19.1573  -14.0588 N   0  0  0  0  0  0  0  0  0  0  0  0
   26.1350  -19.8329  -14.1884 C   0  0  0  0  0  0  0  0  0  0  0  0
   25.1209  -20.1588  -14.8546 O   0  0  0  0  0  0  0  0  0  0  0  0
   25.6233  -20.5852  -10.1327 O   0  0  0  0  0  0  0  0  0  0  0  0
   25.6278  -21.6782  -10.9792 C   0  0  0  0  0  0  0  0  0  0  0  0
   25.1749  -21.2385  -12.3548 C   0  0  2  0  0  0  0  0  0  0  0  0
   26.2222  -20.3878  -12.8803 N   0  0  0  0  0  0  0  0  0  0  0  0
   23.9156  -20.5000  -12.3292 C   0  0  0  0  0  0  0  0  0  0  0  0
   23.9217  -19.3036  -11.9610 O   0  0  0  0  0  0  0  0  0  0  0  0
   22.0308  -21.1162  -15.5564 C   0  0  0  0  0  0  0  0  0  0  0  0
   20.9781  -20.0629  -15.1570 C   0  0  2  0  0  0  0  0  0  0  0  0
   21.0376  -19.0326  -16.2811 C   0  0  0  0  0  0  0  0  0  0  0  0
   21.4464  -19.4724  -13.8806 C   0  0  0  0  0  0  0  0  0  0  0  0
   21.4587  -20.3390  -12.6808 C   0  0  2  0  0  0  0  0  0  0  0  0
   22.7123  -21.1060  -12.7072 N   0  0  0  0  0  0  0  0  0  0  0  0
   20.3553  -21.2839  -12.5230 C   0  0  0  0  0  0  0  0  0  0  0  0
   19.1891  -20.8863  -12.3357 O   0  0  0  0  0  0  0  0  0  0  0  0
   20.5864  -22.6444  -12.5796 O   0  0  0  0  0  0  0  0  0  0  0  0
  2  1  1  0
  3  2  1  0
  3  4  1  6
  5  3  1  0
  5  6  1  1
  7  5  1  0
  7  8  2  0
  9 10  1  0
 11 10  1  1
 12 11  1  0
 12  7  1  0
 13 14  2  0
 13 11  1  0
 16 17  1  6
 16 15  1  0
 18 16  1  0
 19 20  1  0
 19 18  1  6
 20 13  1  0
 21 19  1  0
 22 21  2  0
 23 21  1  0
M  END
$$$$
