ISL.pdb
     RDKit          3D

 23 22  0  0  1  0  0  0  0  0999 V2000
   14.6545  -12.6349  -17.4642 C   0  0  0  0  0  0  0  0  0  0  0  0
   15.8627  -12.7205  -18.3851 C   0  0  0  0  0  0  0  0  0  0  0  0
   17.0280  -11.9466  -17.8419 C   0  0  2  0  0  0  0  0  0  0  0  0
   16.6348  -10.5081  -17.5764 C   0  0  0  0  0  0  0  0  0  0  0  0
   18.2532  -12.0522  -18.6983 C   0  0  2  0  0  0  0  0  0  0  0  0
   18.6265  -13.4476  -18.8367 N   0  0  0  0  0  0  0  0  0  0  0  0
   19.3979  -11.2480  -18.1675 C   0  0  0  0  0  0  0  0  0  0  0  0
   20.1696  -11.6764  -17.2734 O   0  0  0  0  0  0  0  0  0  0  0  0
   20.1715   -7.3747  -19.5337 O   0  0  0  0  0  0  0  0  0  0  0  0
   21.2144   -8.2539  -19.3089 C   0  0  0  0  0  0  0  0  0  0  0  0
   20.8312   -9.1974  -18.1892 C   0  0  2  0  0  0  0  0  0  0  0  0
   19.6774   -9.9393  -18.6531 N   0  0  0  0  0  0  0  0  0  0  0  0
   20.4960   -8.5020  -16.9499 C   0  0  0  0  0  0  0  0  0  0  0  0
   19.2950   -8.2523  -16.7006 O   0  0  0  0  0  0  0  0  0  0  0  0
   20.4320   -9.6449  -12.6543 C   0  0  0  0  0  0  0  0  0  0  0  0
   21.7634   -9.5402  -13.4246 C   0  0  2  0  0  0  0  0  0  0  0  0
   22.8086  -10.0377  -12.4303 C   0  0  0  0  0  0  0  0  0  0  0  0
   21.9616   -8.1003  -13.7156 C   0  0  0  0  0  0  0  0  0  0  0  0
   21.1224   -7.4853  -14.7682 C   0  0  2  0  0  0  0  0  0  0  0  0
   21.4902   -8.1140  -16.0449 N   0  0  0  0  0  0  0  0  0  0  0  0
   21.2110   -6.0365  -14.9372 C   0  0  0  0  0  0  0  0  0  0  0  0
   20.8098   -5.2592  -14.0494 O   0  0  0  0  0  0  0  0  0  0  0  0
   21.7451   -5.4986  -16.0917 O   0  0  0  0  0  0  0  0  0  0  0  0
  2  1  1  0
  3  2  1  0
  3  4  1  6
  5  3  1  0
  5  6  1  1
  7  5  1  0
  7  8  2  0
  9 10  1  0
 11 10  1  6
 12 11  1  0
 12  7  1  0
 13 14  2  0
 13 11  1  0
 16 17  1  1
 16 15  1  0
 18 16  1  0
 19 20  1  0
 19 18  1  1
 20 13  1  0
 21 19  1  0
 22 21  2  0
 23 21  1  0
M  END
$$$$
