ISL.pdb
     RDKit          3D

 23 22  0  0  1  0  0  0  0  0999 V2000
   16.4778  -14.4630  -20.2622 C   0  0  0  0  0  0  0  0  0  0  0  0
   16.5107  -13.8879  -18.8539 C   0  0  0  0  0  0  0  0  0  0  0  0
   17.1710  -12.5408  -18.8221 C   0  0  2  0  0  0  0  0  0  0  0  0
   18.5664  -12.6176  -19.4064 C   0  0  0  0  0  0  0  0  0  0  0  0
   17.1583  -11.9128  -17.4614 C   0  0  2  0  0  0  0  0  0  0  0  0
   15.7859  -11.7246  -17.0295 N   0  0  0  0  0  0  0  0  0  0  0  0
   17.9096  -10.6196  -17.4170 C   0  0  0  0  0  0  0  0  0  0  0  0
   19.1402  -10.5427  -17.6575 O   0  0  0  0  0  0  0  0  0  0  0  0
   16.2118   -7.2659  -15.8084 O   0  0  0  0  0  0  0  0  0  0  0  0
   16.9556   -7.0437  -16.9523 C   0  0  0  0  0  0  0  0  0  0  0  0
   17.9896   -8.1405  -17.0891 C   0  0  2  0  0  0  0  0  0  0  0  0
   17.2623   -9.3928  -17.0967 N   0  0  0  0  0  0  0  0  0  0  0  0
   18.9582   -8.1475  -15.9966 C   0  0  0  0  0  0  0  0  0  0  0  0
   18.8288   -8.9866  -15.0768 O   0  0  0  0  0  0  0  0  0  0  0  0
   23.4538  -10.1627  -14.4415 C   0  0  0  0  0  0  0  0  0  0  0  0
   22.8081   -8.8332  -14.0028 C   0  0  2  0  0  0  0  0  0  0  0  0
   22.2802   -9.1211  -12.6002 C   0  0  0  0  0  0  0  0  0  0  0  0
   21.6888   -8.5861  -14.9426 C   0  0  0  0  0  0  0  0  0  0  0  0
   20.9968   -7.2801  -14.8662 C   0  0  2  0  0  0  0  0  0  0  0  0
   20.0201   -7.2368  -15.9639 N   0  0  0  0  0  0  0  0  0  0  0  0
   21.8216   -6.0767  -14.9490 C   0  0  0  0  0  0  0  0  0  0  0  0
   22.0021   -5.4935  -16.0355 O   0  0  0  0  0  0  0  0  0  0  0  0
   22.4198   -5.5598  -13.8165 O   0  0  0  0  0  0  0  0  0  0  0  0
  2  1  1  0
  3  2  1  0
  3  4  1  1
  5  3  1  0
  5  6  1  6
  7  5  1  0
  7  8  2  0
  9 10  1  0
 11 10  1  1
 12 11  1  0
 12  7  1  0
 13 14  2  0
 13 11  1  0
 16 17  1  1
 16 15  1  0
 18 16  1  0
 19 20  1  0
 19 18  1  6
 20 13  1  0
 21 19  1  0
 22 21  2  0
 23 21  1  0
M  END
$$$$
