ISL.pdb
     RDKit          3D

 23 22  0  0  1  0  0  0  0  0999 V2000
   27.7777  -21.2334  -16.8119 C   0  0  0  0  0  0  0  0  0  0  0  0
   26.5266  -21.5784  -16.0176 C   0  0  0  0  0  0  0  0  0  0  0  0
   26.4540  -20.8018  -14.7356 C   0  0  2  0  0  0  0  0  0  0  0  0
   27.7209  -20.9891  -13.9268 C   0  0  0  0  0  0  0  0  0  0  0  0
   25.2210  -21.1001  -13.9377 C   0  0  2  0  0  0  0  0  0  0  0  0
   24.0494  -20.9212  -14.7750 N   0  0  0  0  0  0  0  0  0  0  0  0
   25.1199  -20.2652  -12.7002 C   0  0  0  0  0  0  0  0  0  0  0  0
   25.0420  -19.0117  -12.7333 O   0  0  0  0  0  0  0  0  0  0  0  0
   23.0606  -21.3152   -9.7048 O   0  0  0  0  0  0  0  0  0  0  0  0
   23.5073  -20.0163   -9.8620 C   0  0  0  0  0  0  0  0  0  0  0  0
   24.9796  -20.0402  -10.2123 C   0  0  2  0  0  0  0  0  0  0  0  0
   25.1059  -20.8534  -11.4039 N   0  0  0  0  0  0  0  0  0  0  0  0
   25.8073  -20.6033   -9.1495 C   0  0  0  0  0  0  0  0  0  0  0  0
   26.0253  -21.8359   -9.1392 O   0  0  0  0  0  0  0  0  0  0  0  0
   27.7471  -19.7343   -4.1223 C   0  0  0  0  0  0  0  0  0  0  0  0
   28.7750  -19.6818   -5.2702 C   0  0  2  0  0  0  0  0  0  0  0  0
   29.6956  -18.5248   -4.8927 C   0  0  0  0  0  0  0  0  0  0  0  0
   28.0088  -19.3617   -6.4981 C   0  0  0  0  0  0  0  0  0  0  0  0
   27.0901  -20.3935   -7.0289 C   0  0  2  0  0  0  0  0  0  0  0  0
   26.3557  -19.7910   -8.1507 N   0  0  0  0  0  0  0  0  0  0  0  0
   26.1124  -20.9628   -6.1040 C   0  0  0  0  0  0  0  0  0  0  0  0
   25.0317  -20.3862   -5.8744 O   0  0  0  0  0  0  0  0  0  0  0  0
   26.3701  -22.1589   -5.4633 O   0  0  0  0  0  0  0  0  0  0  0  0
  2  1  1  0
  3  2  1  0
  3  4  1  1
  5  3  1  0
  5  6  1  6
  7  5  1  0
  7  8  2  0
  9 10  1  0
 11 10  1  1
 12 11  1  0
 12  7  1  0
 13 14  2  0
 13 11  1  0
 16 17  1  1
 16 15  1  0
 18 16  1  0
 19 20  1  0
 19 18  1  1
 20 13  1  0
 21 19  1  0
 22 21  2  0
 23 21  1  0
M  END
$$$$
