ISL.pdb
     RDKit          3D

 23 22  0  0  1  0  0  0  0  0999 V2000
   24.8613  -14.6542  -16.3423 C   0  0  0  0  0  0  0  0  0  0  0  0
   25.7378  -15.7759  -16.8795 C   0  0  0  0  0  0  0  0  0  0  0  0
   25.6938  -16.9852  -15.9921 C   0  0  2  0  0  0  0  0  0  0  0  0
   26.0406  -16.6120  -14.5656 C   0  0  0  0  0  0  0  0  0  0  0  0
   26.5308  -18.1186  -16.5026 C   0  0  2  0  0  0  0  0  0  0  0  0
   26.1468  -18.4253  -17.8680 N   0  0  0  0  0  0  0  0  0  0  0  0
   26.4375  -19.3375  -15.6398 C   0  0  0  0  0  0  0  0  0  0  0  0
   25.5678  -20.2268  -15.8157 O   0  0  0  0  0  0  0  0  0  0  0  0
   29.3631  -20.2764  -12.7612 O   0  0  0  0  0  0  0  0  0  0  0  0
   28.7351  -21.2035  -13.5720 C   0  0  0  0  0  0  0  0  0  0  0  0
   27.2979  -20.7792  -13.7848 C   0  0  2  0  0  0  0  0  0  0  0  0
   27.3403  -19.5576  -14.5613 N   0  0  0  0  0  0  0  0  0  0  0  0
   26.5863  -20.5353  -12.5333 C   0  0  0  0  0  0  0  0  0  0  0  0
   26.5733  -19.3770  -12.0590 O   0  0  0  0  0  0  0  0  0  0  0  0
   26.5865  -18.9612   -7.9550 C   0  0  0  0  0  0  0  0  0  0  0  0
   25.6447  -20.0937   -8.4103 C   0  0  2  0  0  0  0  0  0  0  0  0
   25.8382  -21.1835   -7.3597 C   0  0  0  0  0  0  0  0  0  0  0  0
   26.1465  -20.5445   -9.7302 C   0  0  0  0  0  0  0  0  0  0  0  0
   25.2190  -21.3001  -10.6017 C   0  0  2  0  0  0  0  0  0  0  0  0
   25.9244  -21.5699  -11.8627 N   0  0  0  0  0  0  0  0  0  0  0  0
   23.9399  -20.6723  -10.9260 C   0  0  0  0  0  0  0  0  0  0  0  0
   22.9593  -20.7782  -10.1641 O   0  0  0  0  0  0  0  0  0  0  0  0
   23.7937  -19.9447  -12.0909 O   0  0  0  0  0  0  0  0  0  0  0  0
  2  1  1  0
  3  2  1  0
  3  4  1  1
  5  3  1  0
  5  6  1  6
  7  5  1  0
  7  8  2  0
  9 10  1  0
 11 10  1  1
 12 11  1  0
 12  7  1  0
 13 14  2  0
 13 11  1  0
 16 17  1  1
 16 15  1  0
 18 16  1  0
 19 20  1  0
 19 18  1  1
 20 13  1  0
 21 19  1  0
 22 21  2  0
 23 21  1  0
M  END
$$$$
