ISL.pdb
     RDKit          3D

 23 22  0  0  1  0  0  0  0  0999 V2000
   20.3752  -21.1812  -17.4840 C   0  0  0  0  0  0  0  0  0  0  0  0
   21.5387  -20.9861  -16.5231 C   0  0  0  0  0  0  0  0  0  0  0  0
   21.7193  -19.5414  -16.1596 C   0  0  2  0  0  0  0  0  0  0  0  0
   21.7544  -18.6793  -17.4045 C   0  0  0  0  0  0  0  0  0  0  0  0
   22.9014  -19.3033  -15.2698 C   0  0  2  0  0  0  0  0  0  0  0  0
   22.7932  -20.1403  -14.0893 N   0  0  0  0  0  0  0  0  0  0  0  0
   23.0536  -17.8649  -14.8870 C   0  0  0  0  0  0  0  0  0  0  0  0
   22.2488  -17.2792  -14.1205 O   0  0  0  0  0  0  0  0  0  0  0  0
   26.1078  -15.6281  -16.4914 O   0  0  0  0  0  0  0  0  0  0  0  0
   25.6809  -15.2825  -15.2227 C   0  0  0  0  0  0  0  0  0  0  0  0
   24.2231  -15.6609  -15.0729 C   0  0  2  0  0  0  0  0  0  0  0  0
   24.1315  -17.0740  -15.3760 N   0  0  0  0  0  0  0  0  0  0  0  0
   23.3470  -14.9134  -15.9704 C   0  0  0  0  0  0  0  0  0  0  0  0
   23.0666  -15.4005  -17.0889 O   0  0  0  0  0  0  0  0  0  0  0  0
   19.7768  -10.7372  -16.5845 C   0  0  0  0  0  0  0  0  0  0  0  0
   19.4978  -12.2516  -16.6599 C   0  0  2  0  0  0  0  0  0  0  0  0
   18.1645  -12.4207  -15.9371 C   0  0  0  0  0  0  0  0  0  0  0  0
   20.5894  -12.9121  -15.9056 C   0  0  0  0  0  0  0  0  0  0  0  0
   21.9359  -12.9401  -16.5193 C   0  0  2  0  0  0  0  0  0  0  0  0
   22.8210  -13.6705  -15.6007 N   0  0  0  0  0  0  0  0  0  0  0  0
   22.5628  -11.6556  -16.8232 C   0  0  0  0  0  0  0  0  0  0  0  0
   23.2970  -11.0852  -15.9933 O   0  0  0  0  0  0  0  0  0  0  0  0
   22.3517  -11.0462  -18.0446 O   0  0  0  0  0  0  0  0  0  0  0  0
  2  1  1  0
  3  2  1  0
  3  4  1  6
  5  3  1  0
  5  6  1  1
  7  5  1  0
  7  8  2  0
  9 10  1  0
 11 10  1  6
 12 11  1  0
 12  7  1  0
 13 14  2  0
 13 11  1  0
 16 17  1  1
 16 15  1  0
 18 16  1  0
 19 20  1  0
 19 18  1  1
 20 13  1  0
 21 19  1  0
 22 21  2  0
 23 21  1  0
M  END
$$$$
