ISL.pdb
     RDKit          3D

 23 22  0  0  1  0  0  0  0  0999 V2000
   21.1393  -19.6928  -15.8460 C   0  0  0  0  0  0  0  0  0  0  0  0
   22.4172  -20.4714  -16.1217 C   0  0  0  0  0  0  0  0  0  0  0  0
   23.1656  -20.7718  -14.8562 C   0  0  2  0  0  0  0  0  0  0  0  0
   23.3470  -19.5133  -14.0331 C   0  0  0  0  0  0  0  0  0  0  0  0
   24.4612  -21.4858  -15.0959 C   0  0  2  0  0  0  0  0  0  0  0  0
   24.2048  -22.7266  -15.8033 N   0  0  0  0  0  0  0  0  0  0  0  0
   25.2190  -21.7437  -13.8318 C   0  0  0  0  0  0  0  0  0  0  0  0
   24.8273  -22.5614  -12.9622 O   0  0  0  0  0  0  0  0  0  0  0  0
   28.7266  -19.8252  -13.2547 O   0  0  0  0  0  0  0  0  0  0  0  0
   28.6151  -21.0360  -12.5969 C   0  0  0  0  0  0  0  0  0  0  0  0
   27.1545  -21.3073  -12.3075 C   0  0  2  0  0  0  0  0  0  0  0  0
   26.4390  -21.0689  -13.5438 N   0  0  0  0  0  0  0  0  0  0  0  0
   26.6137  -20.4469  -11.2591 C   0  0  0  0  0  0  0  0  0  0  0  0
   26.3033  -19.2678  -11.5424 O   0  0  0  0  0  0  0  0  0  0  0  0
   23.0788  -19.6797   -9.7190 C   0  0  0  0  0  0  0  0  0  0  0  0
   23.6555  -21.0003   -9.1709 C   0  0  2  0  0  0  0  0  0  0  0  0
   22.5070  -21.6023   -8.3664 C   0  0  0  0  0  0  0  0  0  0  0  0
   24.7780  -20.6237   -8.2792 C   0  0  0  0  0  0  0  0  0  0  0  0
   25.9750  -20.0090   -8.8956 C   0  0  2  0  0  0  0  0  0  0  0  0
   26.4391  -20.9183   -9.9532 N   0  0  0  0  0  0  0  0  0  0  0  0
   27.1086  -19.7204   -8.0199 C   0  0  0  0  0  0  0  0  0  0  0  0
   28.1818  -20.3446   -8.1291 O   0  0  0  0  0  0  0  0  0  0  0  0
   27.0108  -18.7433   -7.0486 O   0  0  0  0  0  0  0  0  0  0  0  0
  2  1  1  0
  3  2  1  0
  3  4  1  6
  5  3  1  0
  5  6  1  1
  7  5  1  0
  7  8  2  0
  9 10  1  0
 11 10  1  6
 12 11  1  0
 12  7  1  0
 13 14  2  0
 13 11  1  0
 16 17  1  1
 16 15  1  0
 18 16  1  0
 19 20  1  0
 19 18  1  1
 20 13  1  0
 21 19  1  0
 22 21  2  0
 23 21  1  0
M  END
$$$$
