SQC.pdb
     RDKit          3D

 22 21  0  0  1  0  0  0  0  0999 V2000
    9.6428  -14.7130   20.2106 O   0  0  0  0  0  0  0  0  0  0  0  0
    8.6519  -15.5460   19.6644 C   0  0  0  0  0  0  0  0  0  0  0  0
    8.6746  -16.8444   20.4198 C   0  0  2  0  0  0  0  0  0  0  0  0
    7.8909  -17.8965   19.8625 N   0  0  0  0  0  0  0  0  0  0  0  0
    8.2938  -16.5864   21.8475 C   0  0  0  0  0  0  0  0  0  0  0  0
    7.0889  -16.2988   22.1444 O   0  0  0  0  0  0  0  0  0  0  0  0
   11.6802  -17.9763   27.1526 N   0  0  0  0  0  0  0  0  0  0  0  0
   10.4791  -17.3679   27.6408 C   0  0  0  0  0  0  0  0  0  0  0  0
   10.2909  -17.2462   28.8663 O   0  0  0  0  0  0  0  0  0  0  0  0
    9.5094  -16.9161   26.6439 C   0  0  0  0  0  0  0  0  0  0  0  0
    9.8186  -17.0921   25.2113 C   0  0  0  0  0  0  0  0  0  0  0  0
    8.8087  -16.5442   24.2617 C   0  0  2  0  0  0  0  0  0  0  0  0
    9.2308  -16.6464   22.8992 N   0  0  0  0  0  0  0  0  0  0  0  0
    8.5922  -15.1034   24.6084 C   0  0  0  0  0  0  0  0  0  0  0  0
    9.3861  -14.2593   24.1590 O   0  0  0  0  0  0  0  0  0  0  0  0
    7.5094  -14.7197   25.4260 N   0  0  0  0  0  0  0  0  0  0  0  0
    7.3309  -13.3707   25.9227 C   0  0  1  0  0  0  0  0  0  0  0  0
    5.8854  -13.1069   26.2493 C   0  0  0  0  0  0  0  0  0  0  0  0
    5.6653  -11.5268   27.0814 S   0  0  0  0  0  0  0  0  0  0  0  0
    8.1873  -13.1124   27.0941 C   0  0  0  0  0  0  0  0  0  0  0  0
    8.6724  -11.8537   27.3970 O   0  0  0  0  0  0  0  0  0  0  0  0
    8.4856  -14.0715   27.8433 O   0  0  0  0  0  0  0  0  0  0  0  0
  1  2  1  0
  3  5  1  0
  3  4  1  6
  3  2  1  0
  5  6  2  0
  7  8  1  0
  8 10  1  0
  9  8  2  0
 10 11  1  0
 12 11  1  1
 12 14  1  0
 13 12  1  0
 13  5  1  0
 14 15  2  0
 14 16  1  0
 16 17  1  0
 17 20  1  0
 17 18  1  1
 19 18  1  0
 20 22  2  0
 20 21  1  0
M  END
$$$$
