SQC.pdb
     RDKit          3D

 22 21  0  0  1  0  0  0  0  0999 V2000
    8.0681  -19.1566   21.2888 O   0  0  0  0  0  0  0  0  0  0  0  0
    7.3998  -19.0426   20.0582 C   0  0  0  0  0  0  0  0  0  0  0  0
    8.4387  -18.9724   18.9753 C   0  0  2  0  0  0  0  0  0  0  0  0
    9.1469  -20.1827   18.7200 N   0  0  0  0  0  0  0  0  0  0  0  0
    9.3842  -17.8476   19.2766 C   0  0  0  0  0  0  0  0  0  0  0  0
   10.6284  -18.0809   19.4192 O   0  0  0  0  0  0  0  0  0  0  0  0
    7.4631  -12.5156   17.7824 N   0  0  0  0  0  0  0  0  0  0  0  0
    8.1366  -13.4150   16.8944 C   0  0  0  0  0  0  0  0  0  0  0  0
    7.8478  -13.4336   15.6826 O   0  0  0  0  0  0  0  0  0  0  0  0
    9.1509  -14.2915   17.4784 C   0  0  0  0  0  0  0  0  0  0  0  0
    9.4417  -14.1897   18.9220 C   0  0  0  0  0  0  0  0  0  0  0  0
    9.8892  -15.4501   19.5800 C   0  0  2  0  0  0  0  0  0  0  0  0
    8.9480  -16.5141   19.4150 N   0  0  0  0  0  0  0  0  0  0  0  0
   10.0655  -15.1641   21.0395 C   0  0  0  0  0  0  0  0  0  0  0  0
   10.8818  -14.2903   21.3785 O   0  0  0  0  0  0  0  0  0  0  0  0
    9.3183  -15.8732   22.0023 N   0  0  0  0  0  0  0  0  0  0  0  0
    9.3619  -15.5717   23.4184 C   0  0  1  0  0  0  0  0  0  0  0  0
    7.9731  -15.5052   23.9952 C   0  0  0  0  0  0  0  0  0  0  0  0
    7.3752  -13.8118   24.1062 S   0  0  0  0  0  0  0  0  0  0  0  0
   10.1859  -16.5503   24.1504 C   0  0  0  0  0  0  0  0  0  0  0  0
   10.4603  -16.4291   25.5000 O   0  0  0  0  0  0  0  0  0  0  0  0
   10.6542  -17.5292   23.5239 O   0  0  0  0  0  0  0  0  0  0  0  0
  1  2  1  0
  3  5  1  0
  3  4  1  1
  3  2  1  0
  5  6  2  0
  7  8  1  0
  8 10  1  0
  9  8  2  0
 10 11  1  0
 12 11  1  6
 12 14  1  0
 13 12  1  0
 13  5  1  0
 14 15  2  0
 14 16  1  0
 16 17  1  0
 17 20  1  0
 17 18  1  1
 19 18  1  0
 20 22  2  0
 20 21  1  0
M  END
$$$$
