SQC.pdb
     RDKit          3D

 22 21  0  0  1  0  0  0  0  0999 V2000
   10.5504  -12.5311   19.1047 O   0  0  0  0  0  0  0  0  0  0  0  0
   10.4114  -13.9169   19.2891 C   0  0  0  0  0  0  0  0  0  0  0  0
    8.9436  -14.2369   19.2825 C   0  0  2  0  0  0  0  0  0  0  0  0
    8.0936  -13.2249   18.7484 N   0  0  0  0  0  0  0  0  0  0  0  0
    8.5201  -14.6201   20.6695 C   0  0  0  0  0  0  0  0  0  0  0  0
    7.5065  -14.0633   21.2038 O   0  0  0  0  0  0  0  0  0  0  0  0
   10.8004  -19.3999   24.3990 N   0  0  0  0  0  0  0  0  0  0  0  0
    9.6202  -18.9346   25.0636 C   0  0  0  0  0  0  0  0  0  0  0  0
    9.2495  -19.4648   26.1283 O   0  0  0  0  0  0  0  0  0  0  0  0
    8.8913  -17.8349   24.4329 C   0  0  0  0  0  0  0  0  0  0  0  0
    9.4104  -17.2569   23.1778 C   0  0  0  0  0  0  0  0  0  0  0  0
    8.6776  -16.0641   22.6658 C   0  0  2  0  0  0  0  0  0  0  0  0
    9.2104  -15.5883   21.4269 N   0  0  0  0  0  0  0  0  0  0  0  0
    8.7841  -14.9858   23.6997 C   0  0  0  0  0  0  0  0  0  0  0  0
    9.8516  -14.3560   23.7923 O   0  0  0  0  0  0  0  0  0  0  0  0
    7.6936  -14.6959   24.5453 N   0  0  0  0  0  0  0  0  0  0  0  0
    7.7256  -13.6529   25.5499 C   0  0  1  0  0  0  0  0  0  0  0  0
    6.3791  -12.9926   25.6798 C   0  0  0  0  0  0  0  0  0  0  0  0
    6.3644  -11.7545   26.9854 S   0  0  0  0  0  0  0  0  0  0  0  0
    8.1798  -14.1749   26.8512 C   0  0  0  0  0  0  0  0  0  0  0  0
    8.7272  -13.3633   27.8275 O   0  0  0  0  0  0  0  0  0  0  0  0
    8.0641  -15.4015   27.0799 O   0  0  0  0  0  0  0  0  0  0  0  0
  1  2  1  0
  3  5  1  0
  3  4  1  1
  3  2  1  0
  5  6  2  0
  7  8  1  0
  8 10  1  0
  9  8  2  0
 10 11  1  0
 12 11  1  1
 12 14  1  0
 13 12  1  0
 13  5  1  0
 14 15  2  0
 14 16  1  0
 16 17  1  0
 17 20  1  0
 17 18  1  1
 19 18  1  0
 20 22  2  0
 20 21  1  0
M  END
$$$$
