QCM.pdb
     RDKit          3D

 24 23  0  0  1  0  0  0  0  0999 V2000
   16.0665  -12.7445  -17.3608 N   0  0  0  0  0  0  0  0  0  0  0  0
   16.2649  -11.5754  -18.1902 C   0  0  0  0  0  0  0  0  0  0  0  0
   15.8076  -11.6601  -19.3553 O   0  0  0  0  0  0  0  0  0  0  0  0
   16.9521  -10.4016  -17.6623 C   0  0  0  0  0  0  0  0  0  0  0  0
   17.3320  -10.4261  -16.2374 C   0  0  0  0  0  0  0  0  0  0  0  0
   18.7747  -10.2860  -15.9041 C   0  0  2  0  0  0  0  0  0  0  0  0
   19.4876  -11.5142  -16.1146 N   0  0  0  0  0  0  0  0  0  0  0  0
   19.0068   -9.8449  -14.5034 C   0  0  0  0  0  0  0  0  0  0  0  0
   19.1159  -10.6848  -13.5746 O   0  0  0  0  0  0  0  0  0  0  0  0
   19.1195   -8.4718  -14.1237 N   0  0  0  0  0  0  0  0  0  0  0  0
   19.3921   -8.0694  -12.7581 C   0  0  1  0  0  0  0  0  0  0  0  0
   20.6694   -7.2211  -12.8277 C   0  0  0  0  0  0  0  0  0  0  0  0
   21.0343   -6.4439  -11.2600 S   0  0  0  0  0  0  0  0  0  0  0  0
   18.2762   -7.2831  -12.1835 C   0  0  0  0  0  0  0  0  0  0  0  0
   17.7888   -6.2903  -12.7871 O   0  0  0  0  0  0  0  0  0  0  0  0
   12.0430   -7.9325   -7.3701 C   0  0  0  0  0  0  0  0  0  0  0  0
   13.4439   -8.6575   -8.2160 S   0  0  0  0  0  0  0  0  0  0  0  0
   14.5436   -7.4495   -8.9421 C   0  0  0  0  0  0  0  0  0  0  0  0
   15.6976   -8.0223   -9.7068 C   0  0  0  0  0  0  0  0  0  0  0  0
   16.5928   -6.9624  -10.3281 C   0  0  2  0  0  0  0  0  0  0  0  0
   17.7476   -7.6562  -10.9305 N   0  0  0  0  0  0  0  0  0  0  0  0
   17.1054   -6.0126   -9.3374 C   0  0  0  0  0  0  0  0  0  0  0  0
   16.3622   -5.1279   -8.8632 O   0  0  0  0  0  0  0  0  0  0  0  0
   18.4199   -6.0892   -8.9175 O   0  0  0  0  0  0  0  0  0  0  0  0
  1  2  1  0
  2  4  1  0
  3  2  2  0
  5  4  1  0
  6  5  1  0
  6  7  1  1
  8 10  1  0
  8  6  1  0
  9  8  2  0
 11 10  1  0
 11 14  1  0
 11 12  1  6
 13 12  1  0
 14 15  2  0
 14 21  1  0
 16 17  1  0
 18 17  1  0
 19 18  1  0
 20 19  1  1
 20 22  1  0
 21 20  1  0
 22 24  1  0
 23 22  2  0
M  END
$$$$
