QCM.pdb
     RDKit          3D

 24 23  0  0  1  0  0  0  0  0999 V2000
   15.5651  -13.0024  -12.8998 N   0  0  0  0  0  0  0  0  0  0  0  0
   14.9415  -13.6238  -11.7515 C   0  0  0  0  0  0  0  0  0  0  0  0
   14.9745  -14.8778  -11.7358 O   0  0  0  0  0  0  0  0  0  0  0  0
   14.3326  -12.8065  -10.7074 C   0  0  0  0  0  0  0  0  0  0  0  0
   14.4504  -11.3425  -10.8418 C   0  0  0  0  0  0  0  0  0  0  0  0
   13.9050  -10.5013   -9.7432 C   0  0  2  0  0  0  0  0  0  0  0  0
   12.4823  -10.6492   -9.6204 N   0  0  0  0  0  0  0  0  0  0  0  0
   14.2121   -9.0563   -9.9113 C   0  0  0  0  0  0  0  0  0  0  0  0
   13.5862   -8.3594  -10.7494 O   0  0  0  0  0  0  0  0  0  0  0  0
   15.2133   -8.3754   -9.1522 N   0  0  0  0  0  0  0  0  0  0  0  0
   15.5633   -6.9915   -9.4037 C   0  0  1  0  0  0  0  0  0  0  0  0
   15.2590   -6.2473   -8.0963 C   0  0  0  0  0  0  0  0  0  0  0  0
   15.9205   -4.5869   -8.1101 S   0  0  0  0  0  0  0  0  0  0  0  0
   16.9915   -6.8428   -9.7666 C   0  0  0  0  0  0  0  0  0  0  0  0
   17.9076   -7.3421   -9.0600 O   0  0  0  0  0  0  0  0  0  0  0  0
   22.9075   -8.8508  -13.5366 C   0  0  0  0  0  0  0  0  0  0  0  0
   21.2063   -8.8983  -12.9821 S   0  0  0  0  0  0  0  0  0  0  0  0
   20.5889   -7.3126  -12.4341 C   0  0  0  0  0  0  0  0  0  0  0  0
   19.2021   -7.3342  -11.8676 C   0  0  0  0  0  0  0  0  0  0  0  0
   18.7308   -5.9741  -11.3790 C   0  0  2  0  0  0  0  0  0  0  0  0
   17.3326   -6.1248  -10.9314 N   0  0  0  0  0  0  0  0  0  0  0  0
   18.7579   -4.9600  -12.4359 C   0  0  0  0  0  0  0  0  0  0  0  0
   17.7375   -4.7268  -13.1173 O   0  0  0  0  0  0  0  0  0  0  0  0
   19.9166   -4.2501  -12.6873 O   0  0  0  0  0  0  0  0  0  0  0  0
  1  2  1  0
  2  4  1  0
  3  2  2  0
  5  4  1  0
  6  5  1  0
  6  7  1  6
  8 10  1  0
  8  6  1  0
  9  8  2  0
 11 10  1  0
 11 14  1  0
 11 12  1  1
 13 12  1  0
 14 15  2  0
 14 21  1  0
 16 17  1  0
 18 17  1  0
 19 18  1  0
 20 19  1  6
 20 22  1  0
 21 20  1  0
 22 24  1  0
 23 22  2  0
M  END
$$$$
