QCM.pdb
     RDKit          3D

 24 23  0  0  1  0  0  0  0  0999 V2000
   18.8004  -16.7585  -15.2532 N   0  0  0  0  0  0  0  0  0  0  0  0
   17.3980  -16.4038  -15.2180 C   0  0  0  0  0  0  0  0  0  0  0  0
   16.6477  -17.2365  -14.6545 O   0  0  0  0  0  0  0  0  0  0  0  0
   16.9364  -15.1514  -15.8072 C   0  0  0  0  0  0  0  0  0  0  0  0
   17.9568  -14.2716  -16.4074 C   0  0  0  0  0  0  0  0  0  0  0  0
   17.4857  -13.0668  -17.1412 C   0  0  2  0  0  0  0  0  0  0  0  0
   16.7058  -13.4208  -18.2933 N   0  0  0  0  0  0  0  0  0  0  0  0
   18.5977  -12.1842  -17.5826 C   0  0  0  0  0  0  0  0  0  0  0  0
   19.4504  -12.5904  -18.4120 O   0  0  0  0  0  0  0  0  0  0  0  0
   18.7714  -10.8473  -17.1083 N   0  0  0  0  0  0  0  0  0  0  0  0
   19.8467   -9.9963  -17.5778 C   0  0  1  0  0  0  0  0  0  0  0  0
   19.1918   -9.0077  -18.5523 C   0  0  0  0  0  0  0  0  0  0  0  0
   17.8865   -8.0716  -17.7683 S   0  0  0  0  0  0  0  0  0  0  0  0
   20.5011   -9.2722  -16.4637 C   0  0  0  0  0  0  0  0  0  0  0  0
   19.8711   -8.9623  -15.4174 O   0  0  0  0  0  0  0  0  0  0  0  0
   26.8450  -11.6372  -15.2545 C   0  0  0  0  0  0  0  0  0  0  0  0
   26.2840  -10.0111  -15.7492 S   0  0  0  0  0  0  0  0  0  0  0  0
   24.5797   -9.6824  -15.3212 C   0  0  0  0  0  0  0  0  0  0  0  0
   24.0619   -8.3476  -15.7625 C   0  0  0  0  0  0  0  0  0  0  0  0
   22.5710   -8.1718  -15.5234 C   0  0  2  0  0  0  0  0  0  0  0  0
   21.8623   -8.9219  -16.5784 N   0  0  0  0  0  0  0  0  0  0  0  0
   22.1523   -6.7706  -15.6092 C   0  0  0  0  0  0  0  0  0  0  0  0
   21.8965   -6.2517  -16.7161 O   0  0  0  0  0  0  0  0  0  0  0  0
   22.0354   -6.0095  -14.4616 O   0  0  0  0  0  0  0  0  0  0  0  0
  1  2  1  0
  2  4  1  0
  3  2  2  0
  5  4  1  0
  6  5  1  0
  6  7  1  6
  8 10  1  0
  8  6  1  0
  9  8  2  0
 11 10  1  0
 11 14  1  0
 11 12  1  6
 13 12  1  0
 14 15  2  0
 14 21  1  0
 16 17  1  0
 18 17  1  0
 19 18  1  0
 20 19  1  6
 20 22  1  0
 21 20  1  0
 22 24  1  0
 23 22  2  0
M  END
$$$$
