QCM.pdb
     RDKit          3D

 24 23  0  0  1  0  0  0  0  0999 V2000
   25.6521  -15.8148  -17.1116 N   0  0  0  0  0  0  0  0  0  0  0  0
   25.8409  -16.9893  -17.9354 C   0  0  0  0  0  0  0  0  0  0  0  0
   26.3180  -16.7743  -19.0755 O   0  0  0  0  0  0  0  0  0  0  0  0
   25.4893  -18.3121  -17.4298 C   0  0  0  0  0  0  0  0  0  0  0  0
   24.9864  -18.3936  -16.0457 C   0  0  0  0  0  0  0  0  0  0  0  0
   25.8947  -18.9582  -15.0121 C   0  0  2  0  0  0  0  0  0  0  0  0
   26.5103  -20.1762  -15.4577 N   0  0  0  0  0  0  0  0  0  0  0  0
   25.2090  -19.2262  -13.7205 C   0  0  0  0  0  0  0  0  0  0  0  0
   24.0115  -18.8865  -13.5457 O   0  0  0  0  0  0  0  0  0  0  0  0
   25.8453  -19.8720  -12.6157 N   0  0  0  0  0  0  0  0  0  0  0  0
   25.1181  -20.2488  -11.4198 C   0  0  1  0  0  0  0  0  0  0  0  0
   24.1616  -21.3669  -11.8565 C   0  0  0  0  0  0  0  0  0  0  0  0
   25.0473  -22.8140  -12.4185 S   0  0  0  0  0  0  0  0  0  0  0  0
   26.0262  -20.7284  -10.3525 C   0  0  0  0  0  0  0  0  0  0  0  0
   26.9267  -21.5786  -10.5846 O   0  0  0  0  0  0  0  0  0  0  0  0
   28.4104  -17.1549   -5.3657 C   0  0  0  0  0  0  0  0  0  0  0  0
   29.1102  -18.7981   -5.2483 S   0  0  0  0  0  0  0  0  0  0  0  0
   28.0891  -20.0642   -5.9901 C   0  0  0  0  0  0  0  0  0  0  0  0
   27.4277  -19.6719   -7.2759 C   0  0  0  0  0  0  0  0  0  0  0  0
   26.6049  -20.7903   -7.8947 C   0  0  2  0  0  0  0  0  0  0  0  0
   25.8779  -20.2202   -9.0455 N   0  0  0  0  0  0  0  0  0  0  0  0
   25.6151  -21.3374   -6.9635 C   0  0  0  0  0  0  0  0  0  0  0  0
   25.9791  -21.9030   -5.9112 O   0  0  0  0  0  0  0  0  0  0  0  0
   24.2658  -21.2304   -7.2428 O   0  0  0  0  0  0  0  0  0  0  0  0
  1  2  1  0
  2  4  1  0
  3  2  2  0
  5  4  1  0
  6  5  1  0
  6  7  1  6
  8 10  1  0
  8  6  1  0
  9  8  2  0
 11 10  1  0
 11 14  1  0
 11 12  1  6
 13 12  1  0
 14 15  2  0
 14 21  1  0
 16 17  1  0
 18 17  1  0
 19 18  1  0
 20 19  1  1
 20 22  1  0
 21 20  1  0
 22 24  1  0
 23 22  2  0
M  END
$$$$
