QCM.pdb
     RDKit          3D

 24 23  0  0  1  0  0  0  0  0999 V2000
   27.5972  -22.3766  -15.5763 N   0  0  0  0  0  0  0  0  0  0  0  0
   26.9818  -22.2247  -16.8771 C   0  0  0  0  0  0  0  0  0  0  0  0
   27.2641  -23.1174  -17.7120 O   0  0  0  0  0  0  0  0  0  0  0  0
   26.0981  -21.0963  -17.1503 C   0  0  0  0  0  0  0  0  0  0  0  0
   25.6878  -20.2670  -16.0018 C   0  0  0  0  0  0  0  0  0  0  0  0
   24.6968  -20.8415  -15.0531 C   0  0  2  0  0  0  0  0  0  0  0  0
   23.3785  -20.8737  -15.6208 N   0  0  0  0  0  0  0  0  0  0  0  0
   24.6326  -20.1044  -13.7636 C   0  0  0  0  0  0  0  0  0  0  0  0
   24.2820  -18.8979  -13.7295 O   0  0  0  0  0  0  0  0  0  0  0  0
   24.9560  -20.6993  -12.5050 N   0  0  0  0  0  0  0  0  0  0  0  0
   24.8323  -19.9752  -11.2555 C   0  0  1  0  0  0  0  0  0  0  0  0
   23.3297  -19.7185  -11.0772 C   0  0  0  0  0  0  0  0  0  0  0  0
   22.3993  -21.2437  -11.0229 S   0  0  0  0  0  0  0  0  0  0  0  0
   25.3662  -20.7534  -10.1140 C   0  0  0  0  0  0  0  0  0  0  0  0
   25.2071  -22.0007  -10.0334 O   0  0  0  0  0  0  0  0  0  0  0  0
   28.6389  -17.4921   -5.1371 C   0  0  0  0  0  0  0  0  0  0  0  0
   28.8621  -19.2367   -4.8050 S   0  0  0  0  0  0  0  0  0  0  0  0
   27.7334  -20.2865   -5.7104 C   0  0  0  0  0  0  0  0  0  0  0  0
   27.3662  -19.7924   -7.0763 C   0  0  0  0  0  0  0  0  0  0  0  0
   26.4717  -20.7530   -7.8430 C   0  0  2  0  0  0  0  0  0  0  0  0
   26.0693  -20.0805   -9.0935 N   0  0  0  0  0  0  0  0  0  0  0  0
   25.2538  -21.0940   -7.1036 C   0  0  0  0  0  0  0  0  0  0  0  0
   24.1950  -20.4613   -7.2994 O   0  0  0  0  0  0  0  0  0  0  0  0
   25.2668  -22.1230   -6.1812 O   0  0  0  0  0  0  0  0  0  0  0  0
  1  2  1  0
  2  4  1  0
  3  2  2  0
  5  4  1  0
  6  5  1  0
  6  7  1  6
  8 10  1  0
  8  6  1  0
  9  8  2  0
 11 10  1  0
 11 14  1  0
 11 12  1  1
 13 12  1  0
 14 15  2  0
 14 21  1  0
 16 17  1  0
 18 17  1  0
 19 18  1  0
 20 19  1  1
 20 22  1  0
 21 20  1  0
 22 24  1  0
 23 22  2  0
M  END
$$$$
