QCM.pdb
     RDKit          3D

 24 23  0  0  1  0  0  0  0  0999 V2000
   16.8125  -23.6843   -0.4068 N   0  0  0  0  0  0  0  0  0  0  0  0
   15.5323  -23.0558   -0.1619 C   0  0  0  0  0  0  0  0  0  0  0  0
   14.6974  -23.1578   -1.0927 O   0  0  0  0  0  0  0  0  0  0  0  0
   15.2756  -22.3658    1.0978 C   0  0  0  0  0  0  0  0  0  0  0  0
   16.3471  -22.3901    2.1110 C   0  0  0  0  0  0  0  0  0  0  0  0
   15.9612  -22.6755    3.5187 C   0  0  2  0  0  0  0  0  0  0  0  0
   15.0303  -21.7038    4.0191 N   0  0  0  0  0  0  0  0  0  0  0  0
   17.1261  -22.7253    4.4413 C   0  0  0  0  0  0  0  0  0  0  0  0
   18.2256  -23.2027    4.0632 O   0  0  0  0  0  0  0  0  0  0  0  0
   17.0797  -22.2465    5.7870 N   0  0  0  0  0  0  0  0  0  0  0  0
   18.1906  -22.4128    6.7032 C   0  0  1  0  0  0  0  0  0  0  0  0
   17.9252  -21.4305    7.8523 C   0  0  0  0  0  0  0  0  0  0  0  0
   19.1624  -21.5628    9.1355 S   0  0  0  0  0  0  0  0  0  0  0  0
   18.2784  -23.8001    7.2146 C   0  0  0  0  0  0  0  0  0  0  0  0
   17.2593  -24.4194    7.6214 O   0  0  0  0  0  0  0  0  0  0  0  0
   21.6549  -30.7536    6.2587 C   0  0  0  0  0  0  0  0  0  0  0  0
   21.3849  -29.0544    5.7652 S   0  0  0  0  0  0  0  0  0  0  0  0
   20.5940  -28.0618    7.0241 C   0  0  0  0  0  0  0  0  0  0  0  0
   20.3312  -26.6387    6.6365 C   0  0  0  0  0  0  0  0  0  0  0  0
   19.6983  -25.8192    7.7495 C   0  0  2  0  0  0  0  0  0  0  0  0
   19.5337  -24.4418    7.2461 N   0  0  0  0  0  0  0  0  0  0  0  0
   20.5378  -25.7625    8.9488 C   0  0  0  0  0  0  0  0  0  0  0  0
   21.2277  -24.7504    9.1927 O   0  0  0  0  0  0  0  0  0  0  0  0
   20.5720  -26.8319    9.8235 O   0  0  0  0  0  0  0  0  0  0  0  0
  1  2  1  0
  2  4  1  0
  3  2  2  0
  5  4  1  0
  6  5  1  0
  6  7  1  1
  8 10  1  0
  8  6  1  0
  9  8  2  0
 11 10  1  0
 11 14  1  0
 11 12  1  1
 13 12  1  0
 14 15  2  0
 14 21  1  0
 16 17  1  0
 18 17  1  0
 19 18  1  0
 20 19  1  6
 20 22  1  0
 21 20  1  0
 22 24  1  0
 23 22  2  0
M  END
$$$$
