QCM.pdb
     RDKit          3D

 24 23  0  0  1  0  0  0  0  0999 V2000
   21.1496  -18.2865  -17.7122 N   0  0  0  0  0  0  0  0  0  0  0  0
   19.8200  -18.0847  -17.1781 C   0  0  0  0  0  0  0  0  0  0  0  0
   18.9397  -17.7968  -18.0243 O   0  0  0  0  0  0  0  0  0  0  0  0
   19.5687  -18.2212  -15.7474 C   0  0  0  0  0  0  0  0  0  0  0  0
   20.6801  -18.7112  -14.9108 C   0  0  0  0  0  0  0  0  0  0  0  0
   20.7333  -20.1680  -14.6158 C   0  0  2  0  0  0  0  0  0  0  0  0
   19.8913  -20.5137  -13.5056 N   0  0  0  0  0  0  0  0  0  0  0  0
   22.1092  -20.6521  -14.3277 C   0  0  0  0  0  0  0  0  0  0  0  0
   22.8053  -20.1139  -13.4301 O   0  0  0  0  0  0  0  0  0  0  0  0
   22.7214  -21.7348  -15.0315 N   0  0  0  0  0  0  0  0  0  0  0  0
   23.9632  -22.3377  -14.5893 C   0  0  1  0  0  0  0  0  0  0  0  0
   23.7385  -22.7064  -13.1164 C   0  0  0  0  0  0  0  0  0  0  0  0
   25.1777  -23.4901  -12.4030 S   0  0  0  0  0  0  0  0  0  0  0  0
   24.3019  -23.5426  -15.3813 C   0  0  0  0  0  0  0  0  0  0  0  0
   23.5066  -24.5154  -15.4759 O   0  0  0  0  0  0  0  0  0  0  0  0
   28.9141  -23.0283  -20.1049 C   0  0  0  0  0  0  0  0  0  0  0  0
   28.8347  -24.8010  -19.8706 S   0  0  0  0  0  0  0  0  0  0  0  0
   27.5291  -25.3177  -18.7640 C   0  0  0  0  0  0  0  0  0  0  0  0
   27.0556  -24.2657  -17.8083 C   0  0  0  0  0  0  0  0  0  0  0  0
   25.9171  -24.7326  -16.9157 C   0  0  2  0  0  0  0  0  0  0  0  0
   25.5448  -23.6009  -16.0448 N   0  0  0  0  0  0  0  0  0  0  0  0
   26.3045  -25.8535  -16.0555 C   0  0  0  0  0  0  0  0  0  0  0  0
   26.5968  -25.6613  -14.8566 O   0  0  0  0  0  0  0  0  0  0  0  0
   26.3486  -27.1371  -16.5658 O   0  0  0  0  0  0  0  0  0  0  0  0
  1  2  1  0
  2  4  1  0
  3  2  2  0
  5  4  1  0
  6  5  1  0
  6  7  1  1
  8 10  1  0
  8  6  1  0
  9  8  2  0
 11 10  1  0
 11 14  1  0
 11 12  1  1
 13 12  1  0
 14 15  2  0
 14 21  1  0
 16 17  1  0
 18 17  1  0
 19 18  1  0
 20 19  1  6
 20 22  1  0
 21 20  1  0
 22 24  1  0
 23 22  2  0
M  END
$$$$
