QCM.pdb
     RDKit          3D

 24 23  0  0  1  0  0  0  0  0999 V2000
   15.7517  -22.9088    4.9610 N   0  0  0  0  0  0  0  0  0  0  0  0
   15.7303  -23.5341    3.6562 C   0  0  0  0  0  0  0  0  0  0  0  0
   15.0085  -24.5559    3.5624 O   0  0  0  0  0  0  0  0  0  0  0  0
   16.5081  -22.9757    2.5553 C   0  0  0  0  0  0  0  0  0  0  0  0
   17.3466  -21.7989    2.8503 C   0  0  0  0  0  0  0  0  0  0  0  0
   16.8431  -20.4664    2.4225 C   0  0  2  0  0  0  0  0  0  0  0  0
   16.8551  -20.3306    0.9933 N   0  0  0  0  0  0  0  0  0  0  0  0
   17.6167  -19.3387    3.0058 C   0  0  0  0  0  0  0  0  0  0  0  0
   18.7162  -18.9878    2.5078 O   0  0  0  0  0  0  0  0  0  0  0  0
   17.1771  -18.5935    4.1433 N   0  0  0  0  0  0  0  0  0  0  0  0
   17.9073  -17.4449    4.6417 C   0  0  1  0  0  0  0  0  0  0  0  0
   16.9030  -16.2843    4.6315 C   0  0  0  0  0  0  0  0  0  0  0  0
   17.5566  -14.8505    3.7880 S   0  0  0  0  0  0  0  0  0  0  0  0
   18.4240  -17.6738    6.0108 C   0  0  0  0  0  0  0  0  0  0  0  0
   17.7516  -18.2981    6.8743 O   0  0  0  0  0  0  0  0  0  0  0  0
   24.8786  -16.4608   10.5905 C   0  0  0  0  0  0  0  0  0  0  0  0
   24.0762  -16.3106    8.9976 S   0  0  0  0  0  0  0  0  0  0  0  0
   22.3703  -16.8450    9.0036 C   0  0  0  0  0  0  0  0  0  0  0  0
   21.7027  -16.8479    7.6624 C   0  0  0  0  0  0  0  0  0  0  0  0
   20.2684  -17.3496    7.7056 C   0  0  2  0  0  0  0  0  0  0  0  0
   19.6995  -17.1802    6.3545 N   0  0  0  0  0  0  0  0  0  0  0  0
   19.4377  -16.5885    8.6420 C   0  0  0  0  0  0  0  0  0  0  0  0
   18.9711  -15.4766    8.3166 O   0  0  0  0  0  0  0  0  0  0  0  0
   19.1619  -17.0973    9.8970 O   0  0  0  0  0  0  0  0  0  0  0  0
  1  2  1  0
  2  4  1  0
  3  2  2  0
  5  4  1  0
  6  5  1  0
  6  7  1  6
  8 10  1  0
  8  6  1  0
  9  8  2  0
 11 10  1  0
 11 14  1  0
 11 12  1  1
 13 12  1  0
 14 15  2  0
 14 21  1  0
 16 17  1  0
 18 17  1  0
 19 18  1  0
 20 19  1  6
 20 22  1  0
 21 20  1  0
 22 24  1  0
 23 22  2  0
M  END
$$$$
