QCM.pdb
     RDKit          3D

 24 23  0  0  1  0  0  0  0  0999 V2000
   24.4265  -13.8137  -21.9244 N   0  0  0  0  0  0  0  0  0  0  0  0
   24.0138  -14.7202  -20.8747 C   0  0  0  0  0  0  0  0  0  0  0  0
   22.8642  -15.2050  -21.0055 O   0  0  0  0  0  0  0  0  0  0  0  0
   24.9093  -15.0219  -19.7630 C   0  0  0  0  0  0  0  0  0  0  0  0
   26.2435  -14.3936  -19.7817 C   0  0  0  0  0  0  0  0  0  0  0  0
   26.4548  -13.1938  -18.9285 C   0  0  2  0  0  0  0  0  0  0  0  0
   25.5462  -12.1359  -19.2697 N   0  0  0  0  0  0  0  0  0  0  0  0
   27.8412  -12.6627  -19.0066 C   0  0  0  0  0  0  0  0  0  0  0  0
   28.8207  -13.3690  -18.6577 O   0  0  0  0  0  0  0  0  0  0  0  0
   28.1504  -11.3472  -19.4715 N   0  0  0  0  0  0  0  0  0  0  0  0
   29.5154  -10.8799  -19.6110 C   0  0  1  0  0  0  0  0  0  0  0  0
   29.7267  -10.6742  -21.1173 C   0  0  0  0  0  0  0  0  0  0  0  0
   31.2168   -9.7474  -21.4564 S   0  0  0  0  0  0  0  0  0  0  0  0
   29.7407   -9.6136  -18.8765 C   0  0  0  0  0  0  0  0  0  0  0  0
   28.8327   -8.7479  -18.7594 O   0  0  0  0  0  0  0  0  0  0  0  0
   35.2258   -5.7620  -14.4968 C   0  0  0  0  0  0  0  0  0  0  0  0
   34.6450   -7.2759  -15.2547 S   0  0  0  0  0  0  0  0  0  0  0  0
   33.1421   -7.0704  -16.2007 C   0  0  0  0  0  0  0  0  0  0  0  0
   32.6401   -8.3131  -16.8701 C   0  0  0  0  0  0  0  0  0  0  0  0
   31.3114   -8.1178  -17.5822 C   0  0  2  0  0  0  0  0  0  0  0  0
   31.0025   -9.3727  -18.2948 N   0  0  0  0  0  0  0  0  0  0  0  0
   31.3607   -7.0390  -18.5721 C   0  0  0  0  0  0  0  0  0  0  0  0
   31.8117   -7.2495  -19.7176 O   0  0  0  0  0  0  0  0  0  0  0  0
   30.9056   -5.7756  -18.2453 O   0  0  0  0  0  0  0  0  0  0  0  0
  1  2  1  0
  2  4  1  0
  3  2  2  0
  5  4  1  0
  6  5  1  0
  6  7  1  6
  8 10  1  0
  8  6  1  0
  9  8  2  0
 11 10  1  0
 11 14  1  0
 11 12  1  6
 13 12  1  0
 14 15  2  0
 14 21  1  0
 16 17  1  0
 18 17  1  0
 19 18  1  0
 20 19  1  6
 20 22  1  0
 21 20  1  0
 22 24  1  0
 23 22  2  0
M  END
$$$$
