QCM.pdb
     RDKit          3D

 24 23  0  0  1  0  0  0  0  0999 V2000
   35.0032  -36.5912  -16.2295 N   0  0  0  0  0  0  0  0  0  0  0  0
   34.0477  -36.7424  -17.3056 C   0  0  0  0  0  0  0  0  0  0  0  0
   34.4545  -37.3946  -18.2970 O   0  0  0  0  0  0  0  0  0  0  0  0
   32.7135  -36.1618  -17.1975 C   0  0  0  0  0  0  0  0  0  0  0  0
   32.3936  -35.4324  -15.9562 C   0  0  0  0  0  0  0  0  0  0  0  0
   32.5883  -33.9579  -15.9509 C   0  0  2  0  0  0  0  0  0  0  0  0
   32.3017  -33.3914  -14.6633 N   0  0  0  0  0  0  0  0  0  0  0  0
   31.7557  -33.2588  -16.9651 C   0  0  0  0  0  0  0  0  0  0  0  0
   32.0581  -33.3003  -18.1844 O   0  0  0  0  0  0  0  0  0  0  0  0
   30.5840  -32.5103  -16.6346 N   0  0  0  0  0  0  0  0  0  0  0  0
   29.7640  -31.8749  -17.6471 C   0  0  1  0  0  0  0  0  0  0  0  0
   28.3716  -31.7326  -17.0174 C   0  0  0  0  0  0  0  0  0  0  0  0
   28.4235  -30.7850  -15.5028 S   0  0  0  0  0  0  0  0  0  0  0  0
   30.2979  -30.5487  -18.0341 C   0  0  0  0  0  0  0  0  0  0  0  0
   30.8835  -29.8046  -17.2029 O   0  0  0  0  0  0  0  0  0  0  0  0
   34.1289  -29.9276  -22.8626 C   0  0  0  0  0  0  0  0  0  0  0  0
   33.5266  -28.2424  -22.8282 S   0  0  0  0  0  0  0  0  0  0  0  0
   32.3657  -27.9254  -21.5062 C   0  0  0  0  0  0  0  0  0  0  0  0
   31.7087  -29.1443  -20.9343 C   0  0  0  0  0  0  0  0  0  0  0  0
   30.7047  -28.8279  -19.8376 C   0  0  2  0  0  0  0  0  0  0  0  0
   30.1462  -30.1097  -19.3656 N   0  0  0  0  0  0  0  0  0  0  0  0
   29.5935  -28.0027  -20.3179 C   0  0  0  0  0  0  0  0  0  0  0  0
   29.7083  -26.7608  -20.3843 O   0  0  0  0  0  0  0  0  0  0  0  0
   28.4057  -28.5944  -20.7037 O   0  0  0  0  0  0  0  0  0  0  0  0
  1  2  1  0
  2  4  1  0
  3  2  2  0
  5  4  1  0
  6  5  1  0
  6  7  1  1
  8 10  1  0
  8  6  1  0
  9  8  2  0
 11 10  1  0
 11 14  1  0
 11 12  1  1
 13 12  1  0
 14 15  2  0
 14 21  1  0
 16 17  1  0
 18 17  1  0
 19 18  1  0
 20 19  1  6
 20 22  1  0
 21 20  1  0
 22 24  1  0
 23 22  2  0
M  END
$$$$
