QCM.pdb
     RDKit          3D

 24 23  0  0  1  0  0  0  0  0999 V2000
   13.7639  -10.3190  -15.0720 N   0  0  0  0  0  0  0  0  0  0  0  0
   14.2433  -11.5601  -15.6411 C   0  0  0  0  0  0  0  0  0  0  0  0
   13.5980  -11.9811  -16.6311 O   0  0  0  0  0  0  0  0  0  0  0  0
   15.4034  -12.2363  -15.0706 C   0  0  0  0  0  0  0  0  0  0  0  0
   16.0955  -11.5638  -13.9552 C   0  0  0  0  0  0  0  0  0  0  0  0
   17.1604  -10.5822  -14.2935 C   0  0  2  0  0  0  0  0  0  0  0  0
   18.3178  -11.2273  -14.8461 N   0  0  0  0  0  0  0  0  0  0  0  0
   17.5914   -9.7680  -13.1267 C   0  0  0  0  0  0  0  0  0  0  0  0
   18.7330   -9.9200  -12.6232 O   0  0  0  0  0  0  0  0  0  0  0  0
   16.7609   -8.7810  -12.5114 N   0  0  0  0  0  0  0  0  0  0  0  0
   17.2316   -7.9471  -11.4232 C   0  0  1  0  0  0  0  0  0  0  0  0
   18.3349   -7.0679  -12.0278 C   0  0  0  0  0  0  0  0  0  0  0  0
   17.7390   -6.1239  -13.4237 S   0  0  0  0  0  0  0  0  0  0  0  0
   16.1462   -7.1085  -10.8642 C   0  0  0  0  0  0  0  0  0  0  0  0
   15.2963   -6.5477  -11.6064 O   0  0  0  0  0  0  0  0  0  0  0  0
   12.5010   -8.8499   -5.8468 C   0  0  0  0  0  0  0  0  0  0  0  0
   11.8015   -7.3556   -6.5408 S   0  0  0  0  0  0  0  0  0  0  0  0
   13.0089   -6.3036   -7.3353 C   0  0  0  0  0  0  0  0  0  0  0  0
   14.0820   -7.0280   -8.0889 C   0  0  0  0  0  0  0  0  0  0  0  0
   15.0209   -6.0986   -8.8410 C   0  0  2  0  0  0  0  0  0  0  0  0
   16.0634   -6.9347   -9.4672 N   0  0  0  0  0  0  0  0  0  0  0  0
   15.6855   -5.1390   -7.9558 C   0  0  0  0  0  0  0  0  0  0  0  0
   16.8338   -5.3674   -7.5207 O   0  0  0  0  0  0  0  0  0  0  0  0
   15.0452   -3.9687   -7.5948 O   0  0  0  0  0  0  0  0  0  0  0  0
  1  2  1  0
  2  4  1  0
  3  2  2  0
  5  4  1  0
  6  5  1  0
  6  7  1  1
  8 10  1  0
  8  6  1  0
  9  8  2  0
 11 10  1  0
 11 14  1  0
 11 12  1  6
 13 12  1  0
 14 15  2  0
 14 21  1  0
 16 17  1  0
 18 17  1  0
 19 18  1  0
 20 19  1  1
 20 22  1  0
 21 20  1  0
 22 24  1  0
 23 22  2  0
M  END
$$$$
