QCM.pdb
     RDKit          3D

 24 23  0  0  1  0  0  0  0  0999 V2000
   17.2392  -12.8938  -14.0166 N   0  0  0  0  0  0  0  0  0  0  0  0
   15.9507  -13.5365  -13.8730 C   0  0  0  0  0  0  0  0  0  0  0  0
   15.9615  -14.7874  -13.9662 O   0  0  0  0  0  0  0  0  0  0  0  0
   14.7503  -12.7424  -13.6336 C   0  0  0  0  0  0  0  0  0  0  0  0
   14.9292  -11.2920  -13.4349 C   0  0  0  0  0  0  0  0  0  0  0  0
   14.7839  -10.7603  -12.0535 C   0  0  2  0  0  0  0  0  0  0  0  0
   13.4169  -10.7914  -11.6161 N   0  0  0  0  0  0  0  0  0  0  0  0
   15.2889   -9.3692  -11.9108 C   0  0  0  0  0  0  0  0  0  0  0  0
   15.1480   -8.5355  -12.8410 O   0  0  0  0  0  0  0  0  0  0  0  0
   15.9522   -8.8937  -10.7376 N   0  0  0  0  0  0  0  0  0  0  0  0
   16.4693   -7.5433  -10.6382 C   0  0  1  0  0  0  0  0  0  0  0  0
   16.0753   -7.0553   -9.2373 C   0  0  0  0  0  0  0  0  0  0  0  0
   16.8808   -5.5148   -8.8219 S   0  0  0  0  0  0  0  0  0  0  0  0
   17.9401   -7.5040  -10.8081 C   0  0  0  0  0  0  0  0  0  0  0  0
   18.6934   -8.3354  -10.2345 O   0  0  0  0  0  0  0  0  0  0  0  0
   23.7150   -9.5549  -14.6187 C   0  0  0  0  0  0  0  0  0  0  0  0
   22.0060   -9.4432  -14.0986 S   0  0  0  0  0  0  0  0  0  0  0  0
   21.6029   -7.8972  -13.2966 C   0  0  0  0  0  0  0  0  0  0  0  0
   20.2135   -7.8147  -12.7421 C   0  0  0  0  0  0  0  0  0  0  0  0
   19.9398   -6.5190  -11.9957 C   0  0  2  0  0  0  0  0  0  0  0  0
   18.5095   -6.5114  -11.6322 N   0  0  0  0  0  0  0  0  0  0  0  0
   20.2014   -5.3345  -12.8172 C   0  0  0  0  0  0  0  0  0  0  0  0
   19.2844   -4.8094  -13.4830 O   0  0  0  0  0  0  0  0  0  0  0  0
   21.4692   -4.7862  -12.8609 O   0  0  0  0  0  0  0  0  0  0  0  0
  1  2  1  0
  2  4  1  0
  3  2  2  0
  5  4  1  0
  6  5  1  0
  6  7  1  6
  8 10  1  0
  8  6  1  0
  9  8  2  0
 11 10  1  0
 11 14  1  0
 11 12  1  1
 13 12  1  0
 14 15  2  0
 14 21  1  0
 16 17  1  0
 18 17  1  0
 19 18  1  0
 20 19  1  6
 20 22  1  0
 21 20  1  0
 22 24  1  0
 23 22  2  0
M  END
$$$$
