KQT.pdb
     RDKit          3D

 26 25  0  0  1  0  0  0  0  0999 V2000
   18.4299  -15.9437  -17.9250 N   0  0  0  0  0  0  0  0  0  0  0  0
   18.9284  -15.2048  -16.7794 C   0  0  1  0  0  0  0  0  0  0  0  0
   20.3021  -15.7258  -16.3654 C   0  0  0  0  0  0  0  0  0  0  0  0
   20.3173  -17.2189  -16.6377 C   0  0  0  0  0  0  0  0  0  0  0  0
   21.0416  -17.9823  -15.5703 C   0  0  0  0  0  0  0  0  0  0  0  0
   21.1420  -19.4494  -15.8366 C   0  0  0  0  0  0  0  0  0  0  0  0
   21.7993  -20.0614  -14.6884 N   0  0  0  0  0  0  0  0  0  0  0  0
   19.0022  -13.7674  -17.1571 C   0  0  0  0  0  0  0  0  0  0  0  0
   19.3372  -13.4058  -18.3319 O   0  0  0  0  0  0  0  0  0  0  0  0
   15.4837   -9.0098  -16.9648 N   0  0  0  0  0  0  0  0  0  0  0  0
   15.4683  -10.0580  -17.9050 C   0  0  0  0  0  0  0  0  0  0  0  0
   14.6060  -10.1089  -18.7912 O   0  0  0  0  0  0  0  0  0  0  0  0
   16.5127  -11.1110  -17.8156 C   0  0  0  0  0  0  0  0  0  0  0  0
   17.3336  -10.8290  -16.5999 C   0  0  0  0  0  0  0  0  0  0  0  0
   18.7480  -11.3090  -16.6111 C   0  0  2  0  0  0  0  0  0  0  0  0
   18.7066  -12.7535  -16.2372 N   0  0  0  0  0  0  0  0  0  0  0  0
   19.6317  -10.6824  -15.5965 C   0  0  0  0  0  0  0  0  0  0  0  0
   19.4647  -10.9169  -14.3459 O   0  0  0  0  0  0  0  0  0  0  0  0
   23.2482  -10.8510  -15.0157 C   0  0  0  0  0  0  0  0  0  0  0  0
   23.0078   -9.3444  -15.1170 C   0  0  1  0  0  0  0  0  0  0  0  0
   23.3772   -8.9933  -16.4203 O   0  0  0  0  0  0  0  0  0  0  0  0
   21.5430   -9.1151  -14.9773 C   0  0  2  0  0  0  0  0  0  0  0  0
   20.7091   -9.7993  -15.9078 N   0  0  0  0  0  0  0  0  0  0  0  0
   21.1965   -7.6675  -14.7847 C   0  0  0  0  0  0  0  0  0  0  0  0
   20.4056   -7.0629  -15.5392 O   0  0  0  0  0  0  0  0  0  0  0  0
   21.7757   -6.9905  -13.7426 O   0  0  0  0  0  0  0  0  0  0  0  0
  2  1  1  6
  3  2  1  0
  4  5  1  0
  4  3  1  0
  6  5  1  0
  7  6  1  0
  8  2  1  0
  9  8  2  0
 10 11  1  0
 11 13  1  0
 11 12  2  0
 13 14  1  0
 15 14  1  1
 15 16  1  0
 16  8  1  0
 17 18  2  0
 17 15  1  0
 20 19  1  6
 20 22  1  0
 21 20  1  0
 22 23  1  6
 23 17  1  0
 24 22  1  0
 25 24  2  0
 26 24  1  0
M  END
$$$$
