KQT.pdb
     RDKit          3D

 26 25  0  0  1  0  0  0  0  0999 V2000
   17.5054  -12.7507  -15.6351 N   0  0  0  0  0  0  0  0  0  0  0  0
   17.2073  -11.3731  -15.9818 C   0  0  1  0  0  0  0  0  0  0  0  0
   16.2300  -10.7696  -14.9765 C   0  0  0  0  0  0  0  0  0  0  0  0
   14.8410  -11.2491  -15.3565 C   0  0  0  0  0  0  0  0  0  0  0  0
   14.0715  -11.7523  -14.1726 C   0  0  0  0  0  0  0  0  0  0  0  0
   12.6939  -12.2283  -14.5030 C   0  0  0  0  0  0  0  0  0  0  0  0
   12.0387  -12.5837  -13.2503 N   0  0  0  0  0  0  0  0  0  0  0  0
   18.4876  -10.6150  -15.9919 C   0  0  0  0  0  0  0  0  0  0  0  0
   19.5013  -11.0147  -15.3319 O   0  0  0  0  0  0  0  0  0  0  0  0
   21.6688   -9.9373  -19.9517 N   0  0  0  0  0  0  0  0  0  0  0  0
   22.1090   -8.6222  -19.7077 C   0  0  0  0  0  0  0  0  0  0  0  0
   23.1584   -8.1966  -20.2069 O   0  0  0  0  0  0  0  0  0  0  0  0
   21.2867   -7.7459  -18.8339 C   0  0  0  0  0  0  0  0  0  0  0  0
   20.1016   -8.5387  -18.3886 C   0  0  0  0  0  0  0  0  0  0  0  0
   19.9578   -8.7759  -16.9208 C   0  0  2  0  0  0  0  0  0  0  0  0
   18.6308   -9.4315  -16.7270 N   0  0  0  0  0  0  0  0  0  0  0  0
   19.8964   -7.5479  -16.0894 C   0  0  0  0  0  0  0  0  0  0  0  0
   18.8281   -6.8381  -16.0450 O   0  0  0  0  0  0  0  0  0  0  0  0
   20.7021   -7.2056  -12.4370 C   0  0  0  0  0  0  0  0  0  0  0  0
   21.4929   -6.0697  -13.0869 C   0  0  1  0  0  0  0  0  0  0  0  0
   22.8107   -6.5327  -13.1732 O   0  0  0  0  0  0  0  0  0  0  0  0
   20.9742   -5.8998  -14.4725 C   0  0  2  0  0  0  0  0  0  0  0  0
   20.9768   -7.0656  -15.2910 N   0  0  0  0  0  0  0  0  0  0  0  0
   21.5081   -4.6698  -15.1468 C   0  0  0  0  0  0  0  0  0  0  0  0
   21.4788   -3.5442  -14.6058 O   0  0  0  0  0  0  0  0  0  0  0  0
   22.0430   -4.7938  -16.4031 O   0  0  0  0  0  0  0  0  0  0  0  0
  2  1  1  1
  3  2  1  0
  4  5  1  0
  4  3  1  0
  6  5  1  0
  7  6  1  0
  8  2  1  0
  9  8  2  0
 10 11  1  0
 11 13  1  0
 11 12  2  0
 13 14  1  0
 15 14  1  6
 15 16  1  0
 16  8  1  0
 17 18  2  0
 17 15  1  0
 20 19  1  1
 20 22  1  0
 21 20  1  0
 22 23  1  6
 23 17  1  0
 24 22  1  0
 25 24  2  0
 26 24  1  0
M  END
$$$$
