KQT.pdb
     RDKit          3D

 26 25  0  0  1  0  0  0  0  0999 V2000
   18.6047  -12.0406  -15.8283 N   0  0  0  0  0  0  0  0  0  0  0  0
   19.1376  -11.0671  -16.7636 C   0  0  1  0  0  0  0  0  0  0  0  0
   18.1639  -10.8488  -17.9188 C   0  0  0  0  0  0  0  0  0  0  0  0
   18.2745  -12.0547  -18.8338 C   0  0  0  0  0  0  0  0  0  0  0  0
   17.4440  -13.2072  -18.3554 C   0  0  0  0  0  0  0  0  0  0  0  0
   17.3962  -14.3569  -19.3091 C   0  0  0  0  0  0  0  0  0  0  0  0
   16.6688  -15.4393  -18.6577 N   0  0  0  0  0  0  0  0  0  0  0  0
   19.3687   -9.7975  -16.0227 C   0  0  0  0  0  0  0  0  0  0  0  0
   18.6175   -9.4469  -15.0554 O   0  0  0  0  0  0  0  0  0  0  0  0
   21.7037   -7.3737  -12.7958 N   0  0  0  0  0  0  0  0  0  0  0  0
   22.4505   -6.3282  -13.3720 C   0  0  0  0  0  0  0  0  0  0  0  0
   22.8530   -5.3784  -12.6882 O   0  0  0  0  0  0  0  0  0  0  0  0
   22.7504   -6.3837  -14.8261 C   0  0  0  0  0  0  0  0  0  0  0  0
   22.1757   -7.6566  -15.3560 C   0  0  0  0  0  0  0  0  0  0  0  0
   20.7002   -7.6896  -15.5862 C   0  0  2  0  0  0  0  0  0  0  0  0
   20.4211   -8.9363  -16.3582 N   0  0  0  0  0  0  0  0  0  0  0  0
   20.1727   -6.5936  -16.4368 C   0  0  0  0  0  0  0  0  0  0  0  0
   20.6185   -6.4137  -17.6268 O   0  0  0  0  0  0  0  0  0  0  0  0
   16.6765   -5.9569  -17.5654 C   0  0  0  0  0  0  0  0  0  0  0  0
   17.0941   -4.6401  -16.9098 C   0  0  1  0  0  0  0  0  0  0  0  0
   16.5772   -4.6886  -15.6102 O   0  0  0  0  0  0  0  0  0  0  0  0
   18.5801   -4.6405  -16.8133 C   0  0  2  0  0  0  0  0  0  0  0  0
   19.1577   -5.6779  -16.0262 N   0  0  0  0  0  0  0  0  0  0  0  0
   19.1463   -3.2759  -16.5489 C   0  0  0  0  0  0  0  0  0  0  0  0
   18.8837   -2.2913  -17.2714 O   0  0  0  0  0  0  0  0  0  0  0  0
   19.9837   -3.1130  -15.4756 O   0  0  0  0  0  0  0  0  0  0  0  0
  2  1  1  1
  3  2  1  0
  4  5  1  0
  4  3  1  0
  6  5  1  0
  7  6  1  0
  8  2  1  0
  9  8  2  0
 10 11  1  0
 11 13  1  0
 11 12  2  0
 13 14  1  0
 15 14  1  6
 15 16  1  0
 16  8  1  0
 17 18  2  0
 17 15  1  0
 20 19  1  6
 20 22  1  0
 21 20  1  0
 22 23  1  1
 23 17  1  0
 24 22  1  0
 25 24  2  0
 26 24  1  0
M  END
$$$$
