KQT.pdb
     RDKit          3D

 26 25  0  0  1  0  0  0  0  0999 V2000
   19.9581  -22.7883   -7.2333 N   0  0  0  0  0  0  0  0  0  0  0  0
   19.8616  -23.1497   -8.6357 C   0  0  1  0  0  0  0  0  0  0  0  0
   18.4274  -23.5335   -8.9901 C   0  0  0  0  0  0  0  0  0  0  0  0
   18.3121  -25.0384   -8.8298 C   0  0  0  0  0  0  0  0  0  0  0  0
   18.2161  -25.4494   -7.3915 C   0  0  0  0  0  0  0  0  0  0  0  0
   17.9170  -26.9003   -7.1944 C   0  0  0  0  0  0  0  0  0  0  0  0
   17.8649  -27.1481   -5.7588 N   0  0  0  0  0  0  0  0  0  0  0  0
   20.3090  -21.9821   -9.4425 C   0  0  0  0  0  0  0  0  0  0  0  0
   19.7555  -20.8410   -9.3227 O   0  0  0  0  0  0  0  0  0  0  0  0
   25.9591  -21.5705  -11.4292 N   0  0  0  0  0  0  0  0  0  0  0  0
   25.6138  -21.0159  -10.1818 C   0  0  0  0  0  0  0  0  0  0  0  0
   26.4784  -20.7649   -9.3327 O   0  0  0  0  0  0  0  0  0  0  0  0
   24.1827  -20.7343   -9.8986 C   0  0  0  0  0  0  0  0  0  0  0  0
   23.4016  -21.1029  -11.1173 C   0  0  0  0  0  0  0  0  0  0  0  0
   21.9230  -20.8972  -11.0624 C   0  0  2  0  0  0  0  0  0  0  0  0
   21.3564  -22.0897  -10.3660 N   0  0  0  0  0  0  0  0  0  0  0  0
   21.2432  -20.8728  -12.3815 C   0  0  0  0  0  0  0  0  0  0  0  0
   21.0021  -21.9620  -13.0160 O   0  0  0  0  0  0  0  0  0  0  0  0
   17.9151  -19.7721  -13.5229 C   0  0  0  0  0  0  0  0  0  0  0  0
   18.8687  -18.9387  -14.3795 C   0  0  1  0  0  0  0  0  0  0  0  0
   18.9669  -17.7009  -13.7340 O   0  0  0  0  0  0  0  0  0  0  0  0
   20.2057  -19.5923  -14.3249 C   0  0  2  0  0  0  0  0  0  0  0  0
   20.8084  -19.6819  -13.0373 N   0  0  0  0  0  0  0  0  0  0  0  0
   21.1297  -19.1182  -15.4084 C   0  0  0  0  0  0  0  0  0  0  0  0
   22.2918  -18.7256  -15.1722 O   0  0  0  0  0  0  0  0  0  0  0  0
   20.6733  -19.1160  -16.7012 O   0  0  0  0  0  0  0  0  0  0  0  0
  2  1  1  1
  3  2  1  0
  4  5  1  0
  4  3  1  0
  6  5  1  0
  7  6  1  0
  8  2  1  0
  9  8  2  0
 10 11  1  0
 11 13  1  0
 11 12  2  0
 13 14  1  0
 15 14  1  6
 15 16  1  0
 16  8  1  0
 17 18  2  0
 17 15  1  0
 20 19  1  1
 20 22  1  0
 21 20  1  0
 22 23  1  1
 23 17  1  0
 24 22  1  0
 25 24  2  0
 26 24  1  0
M  END
$$$$
