KQT.pdb
     RDKit          3D

 26 25  0  0  1  0  0  0  0  0999 V2000
   26.3351  -17.1861  -18.2215 N   0  0  0  0  0  0  0  0  0  0  0  0
   26.4649  -18.3893  -17.4202 C   0  0  1  0  0  0  0  0  0  0  0  0
   27.8719  -18.4926  -16.8372 C   0  0  0  0  0  0  0  0  0  0  0  0
   28.5020  -19.7516  -17.4043 C   0  0  0  0  0  0  0  0  0  0  0  0
   28.7887  -19.6308  -18.8706 C   0  0  0  0  0  0  0  0  0  0  0  0
   28.8149  -20.9389  -19.5928 C   0  0  0  0  0  0  0  0  0  0  0  0
   29.0691  -20.6596  -21.0008 N   0  0  0  0  0  0  0  0  0  0  0  0
   25.4483  -18.3301  -16.3351 C   0  0  0  0  0  0  0  0  0  0  0  0
   25.1130  -17.2241  -15.7990 O   0  0  0  0  0  0  0  0  0  0  0  0
   20.3544  -20.7273  -16.5015 N   0  0  0  0  0  0  0  0  0  0  0  0
   20.2107  -20.5017  -15.1190 C   0  0  0  0  0  0  0  0  0  0  0  0
   19.1179  -20.6507  -14.5574 O   0  0  0  0  0  0  0  0  0  0  0  0
   21.4018  -20.0785  -14.3382 C   0  0  0  0  0  0  0  0  0  0  0  0
   22.5287  -19.8931  -15.3011 C   0  0  0  0  0  0  0  0  0  0  0  0
   23.8375  -19.4484  -14.7349 C   0  0  2  0  0  0  0  0  0  0  0  0
   24.8188  -19.4870  -15.8590 N   0  0  0  0  0  0  0  0  0  0  0  0
   24.4122  -20.3460  -13.7020 C   0  0  0  0  0  0  0  0  0  0  0  0
   24.8906  -21.4931  -14.0219 O   0  0  0  0  0  0  0  0  0  0  0  0
   27.1552  -20.7487  -11.9116 C   0  0  0  0  0  0  0  0  0  0  0  0
   26.2040  -20.8099  -10.7160 C   0  0  1  0  0  0  0  0  0  0  0  0
   26.3256  -19.5708  -10.0771 O   0  0  0  0  0  0  0  0  0  0  0  0
   24.8187  -20.9162  -11.2520 C   0  0  2  0  0  0  0  0  0  0  0  0
   24.4862  -20.0257  -12.3130 N   0  0  0  0  0  0  0  0  0  0  0  0
   23.7816  -21.0039  -10.1706 C   0  0  0  0  0  0  0  0  0  0  0  0
   22.7922  -20.2426  -10.1293 O   0  0  0  0  0  0  0  0  0  0  0  0
   23.9347  -21.9546   -9.1946 O   0  0  0  0  0  0  0  0  0  0  0  0
  2  1  1  1
  3  2  1  0
  4  5  1  0
  4  3  1  0
  6  5  1  0
  7  6  1  0
  8  2  1  0
  9  8  2  0
 10 11  1  0
 11 13  1  0
 11 12  2  0
 13 14  1  0
 15 14  1  6
 15 16  1  0
 16  8  1  0
 17 18  2  0
 17 15  1  0
 20 19  1  6
 20 22  1  0
 21 20  1  0
 22 23  1  1
 23 17  1  0
 24 22  1  0
 25 24  2  0
 26 24  1  0
M  END
$$$$
