KQT.pdb
     RDKit          3D

 26 25  0  0  1  0  0  0  0  0999 V2000
   18.8487  -11.3738  -18.6692 N   0  0  0  0  0  0  0  0  0  0  0  0
   17.8610  -11.4067  -17.6062 C   0  0  1  0  0  0  0  0  0  0  0  0
   17.9267  -12.7357  -16.8581 C   0  0  0  0  0  0  0  0  0  0  0  0
   17.4833  -13.8182  -17.8251 C   0  0  0  0  0  0  0  0  0  0  0  0
   17.3994  -15.1637  -17.1698 C   0  0  0  0  0  0  0  0  0  0  0  0
   16.9138  -16.2494  -18.0748 C   0  0  0  0  0  0  0  0  0  0  0  0
   16.7617  -17.4566  -17.2721 N   0  0  0  0  0  0  0  0  0  0  0  0
   18.1384  -10.2703  -16.6864 C   0  0  0  0  0  0  0  0  0  0  0  0
   17.4283  -10.0677  -15.6483 O   0  0  0  0  0  0  0  0  0  0  0  0
   22.4751   -7.1862  -13.8939 N   0  0  0  0  0  0  0  0  0  0  0  0
   22.2507   -8.5532  -13.6412 C   0  0  0  0  0  0  0  0  0  0  0  0
   22.7816   -9.1205  -12.6779 O   0  0  0  0  0  0  0  0  0  0  0  0
   21.3590   -9.3104  -14.5572 C   0  0  0  0  0  0  0  0  0  0  0  0
   20.9755   -8.3933  -15.6722 C   0  0  0  0  0  0  0  0  0  0  0  0
   19.5185   -8.2705  -15.9778 C   0  0  2  0  0  0  0  0  0  0  0  0
   19.1908   -9.3774  -16.9241 N   0  0  0  0  0  0  0  0  0  0  0  0
   19.1302   -7.0319  -16.6977 C   0  0  0  0  0  0  0  0  0  0  0  0
   19.6299   -6.7569  -17.8474 O   0  0  0  0  0  0  0  0  0  0  0  0
   16.3485   -5.7381  -18.4508 C   0  0  0  0  0  0  0  0  0  0  0  0
   16.4934   -4.6947  -17.3424 C   0  0  1  0  0  0  0  0  0  0  0  0
   15.5908   -5.0804  -16.3450 O   0  0  0  0  0  0  0  0  0  0  0  0
   17.8702   -4.8191  -16.7888 C   0  0  2  0  0  0  0  0  0  0  0  0
   18.1983   -6.0732  -16.1981 N   0  0  0  0  0  0  0  0  0  0  0  0
   18.2799   -3.6264  -15.9750 C   0  0  0  0  0  0  0  0  0  0  0  0
   18.2568   -2.4644  -16.4328 O   0  0  0  0  0  0  0  0  0  0  0  0
   18.6965   -3.8282  -14.6845 O   0  0  0  0  0  0  0  0  0  0  0  0
  2  1  1  6
  3  2  1  0
  4  5  1  0
  4  3  1  0
  6  5  1  0
  7  6  1  0
  8  2  1  0
  9  8  2  0
 10 11  1  0
 11 13  1  0
 11 12  2  0
 13 14  1  0
 15 14  1  6
 15 16  1  0
 16  8  1  0
 17 18  2  0
 17 15  1  0
 20 19  1  6
 20 22  1  0
 21 20  1  0
 22 23  1  1
 23 17  1  0
 24 22  1  0
 25 24  2  0
 26 24  1  0
M  END
$$$$
