KQT.pdb
     RDKit          3D

 26 25  0  0  1  0  0  0  0  0999 V2000
   17.2574  -11.4555  -16.5545 N   0  0  0  0  0  0  0  0  0  0  0  0
   18.5558  -11.9539  -16.1391 C   0  0  1  0  0  0  0  0  0  0  0  0
   18.9725  -13.1415  -17.0027 C   0  0  0  0  0  0  0  0  0  0  0  0
   17.7255  -13.9657  -17.2654 C   0  0  0  0  0  0  0  0  0  0  0  0
   18.0284  -15.2297  -18.0120 C   0  0  0  0  0  0  0  0  0  0  0  0
   16.8308  -16.0884  -18.2609 C   0  0  0  0  0  0  0  0  0  0  0  0
   17.3000  -17.3408  -18.8409 N   0  0  0  0  0  0  0  0  0  0  0  0
   19.5362  -10.8415  -16.2649 C   0  0  0  0  0  0  0  0  0  0  0  0
   20.7778  -11.0225  -16.0440 O   0  0  0  0  0  0  0  0  0  0  0  0
   18.9577   -6.5685  -20.3676 N   0  0  0  0  0  0  0  0  0  0  0  0
   19.7252   -7.7229  -20.6149 C   0  0  0  0  0  0  0  0  0  0  0  0
   19.9671   -8.0938  -21.7706 O   0  0  0  0  0  0  0  0  0  0  0  0
   20.2444   -8.4953  -19.4568 C   0  0  0  0  0  0  0  0  0  0  0  0
   19.7151   -7.8554  -18.2151 C   0  0  0  0  0  0  0  0  0  0  0  0
   20.1198   -8.4655  -16.9131 C   0  0  2  0  0  0  0  0  0  0  0  0
   19.1345   -9.5507  -16.6310 N   0  0  0  0  0  0  0  0  0  0  0  0
   20.0292   -7.5601  -15.7404 C   0  0  0  0  0  0  0  0  0  0  0  0
   18.8905   -7.1463  -15.3171 O   0  0  0  0  0  0  0  0  0  0  0  0
   19.7796   -7.8304  -12.6589 C   0  0  0  0  0  0  0  0  0  0  0  0
   20.9577   -6.8621  -12.5480 C   0  0  1  0  0  0  0  0  0  0  0  0
   22.0796   -7.6635  -12.3084 O   0  0  0  0  0  0  0  0  0  0  0  0
   21.1312   -6.2150  -13.8780 C   0  0  2  0  0  0  0  0  0  0  0  0
   21.1566   -7.0889  -15.0026 N   0  0  0  0  0  0  0  0  0  0  0  0
   22.2104   -5.1719  -13.8811 C   0  0  0  0  0  0  0  0  0  0  0  0
   23.1679   -5.2025  -14.6828 O   0  0  0  0  0  0  0  0  0  0  0  0
   22.1372   -4.1538  -12.9658 O   0  0  0  0  0  0  0  0  0  0  0  0
  2  1  1  6
  3  2  1  0
  4  5  1  0
  4  3  1  0
  6  5  1  0
  7  6  1  0
  8  2  1  0
  9  8  2  0
 10 11  1  0
 11 13  1  0
 11 12  2  0
 13 14  1  0
 15 14  1  6
 15 16  1  0
 16  8  1  0
 17 18  2  0
 17 15  1  0
 20 19  1  6
 20 22  1  0
 21 20  1  0
 22 23  1  6
 23 17  1  0
 24 22  1  0
 25 24  2  0
 26 24  1  0
M  END
$$$$
