LFQ.pdb
     RDKit          3D

 29 29  0  0  1  0  0  0  0  0999 V2000
   26.0801  -20.7727  -15.7646 C   0  0  0  0  0  0  0  0  0  0  0  0
   27.0199  -21.4120  -14.7717 C   0  0  2  0  0  0  0  0  0  0  0  0
   27.6091  -22.6368  -15.4513 C   0  0  0  0  0  0  0  0  0  0  0  0
   26.3356  -21.8681  -13.5282 C   0  0  0  0  0  0  0  0  0  0  0  0
   25.9231  -20.7297  -12.6245 C   0  0  2  0  0  0  0  0  0  0  0  0
   26.3697  -19.4559  -13.0898 N   0  0  0  0  0  0  0  0  0  0  0  0
   26.3042  -21.0194  -11.2179 C   0  0  0  0  0  0  0  0  0  0  0  0
   26.4815  -22.2243  -10.9145 O   0  0  0  0  0  0  0  0  0  0  0  0
   26.4684  -20.0107  -10.2402 N   0  0  0  0  0  0  0  0  0  0  0  0
   26.7282  -20.3231   -8.8549 C   0  0  1  0  0  0  0  0  0  0  0  0
   27.6027  -19.2501   -8.2449 C   0  0  0  0  0  0  0  0  0  0  0  0
   28.0175  -19.5887   -6.8633 C   0  0  0  0  0  0  0  0  0  0  0  0
   27.5228  -18.8688   -5.7973 C   0  0  0  0  0  0  0  0  0  0  0  0
   27.8779  -19.1444   -4.4907 C   0  0  0  0  0  0  0  0  0  0  0  0
   28.7560  -20.1710   -4.2245 C   0  0  0  0  0  0  0  0  0  0  0  0
   29.2613  -20.9023   -5.2782 C   0  0  0  0  0  0  0  0  0  0  0  0
   28.8949  -20.6129   -6.5835 C   0  0  0  0  0  0  0  0  0  0  0  0
   25.4359  -20.2900   -8.0779 C   0  0  0  0  0  0  0  0  0  0  0  0
   24.6710  -19.3448   -8.3477 O   0  0  0  0  0  0  0  0  0  0  0  0
   20.1821  -22.8137   -7.5809 N   0  0  0  0  0  0  0  0  0  0  0  0
   20.8960  -21.9542   -8.4436 C   0  0  0  0  0  0  0  0  0  0  0  0
   20.3453  -21.5872   -9.5114 O   0  0  0  0  0  0  0  0  0  0  0  0
   22.2808  -21.4736   -8.1198 C   0  0  0  0  0  0  0  0  0  0  0  0
   22.7681  -22.0434   -6.8341 C   0  0  0  0  0  0  0  0  0  0  0  0
   24.0056  -21.3864   -6.2690 C   0  0  2  0  0  0  0  0  0  0  0  0
   25.1212  -21.2523   -7.1237 N   0  0  0  0  0  0  0  0  0  0  0  0
   24.2259  -21.8092   -4.9049 C   0  0  0  0  0  0  0  0  0  0  0  0
   25.0944  -22.6424   -4.5369 O   0  0  0  0  0  0  0  0  0  0  0  0
   23.4356  -21.2770   -3.8829 O   0  0  0  0  0  0  0  0  0  0  0  0
  2  4  1  0
  2  3  1  6
  2  1  1  0
  5  6  1  6
  5  4  1  0
  7  5  1  0
  8  7  2  0
  9  7  1  0
 10  9  1  0
 11 12  1  0
 10 11  1  1
 12 17  2  0
 13 12  1  0
 13 14  2  0
 14 15  1  0
 15 16  2  0
 17 16  1  0
 18 10  1  0
 18 26  1  0
 19 18  2  0
 21 22  2  0
 21 20  1  0
 23 21  1  0
 24 23  1  0
 25 24  1  6
 25 26  1  0
 27 29  1  0
 27 25  1  0
 28 27  2  0
M  END
$$$$
