LFQ.pdb
     RDKit          3D

 29 29  0  0  1  0  0  0  0  0999 V2000
   15.8085  -36.0942   -6.5829 C   0  0  0  0  0  0  0  0  0  0  0  0
   15.4156  -34.6888   -6.1984 C   0  0  2  0  0  0  0  0  0  0  0  0
   14.2117  -34.3214   -7.0497 C   0  0  0  0  0  0  0  0  0  0  0  0
   16.4859  -33.6870   -6.4695 C   0  0  0  0  0  0  0  0  0  0  0  0
   17.7913  -34.0101   -5.7809 C   0  0  2  0  0  0  0  0  0  0  0  0
   17.7518  -33.7830   -4.3718 N   0  0  0  0  0  0  0  0  0  0  0  0
   18.9212  -33.3290   -6.4644 C   0  0  0  0  0  0  0  0  0  0  0  0
   19.0645  -32.1026   -6.2393 O   0  0  0  0  0  0  0  0  0  0  0  0
   19.8128  -33.9990   -7.3341 N   0  0  0  0  0  0  0  0  0  0  0  0
   20.9798  -33.3493   -7.8822 C   0  0  1  0  0  0  0  0  0  0  0  0
   22.2229  -33.8650   -7.1915 C   0  0  0  0  0  0  0  0  0  0  0  0
   23.4579  -33.2612   -7.7444 C   0  0  0  0  0  0  0  0  0  0  0  0
   24.2601  -33.9877   -8.5977 C   0  0  0  0  0  0  0  0  0  0  0  0
   25.4212  -33.4710   -9.1400 C   0  0  0  0  0  0  0  0  0  0  0  0
   25.8068  -32.1865   -8.8285 C   0  0  0  0  0  0  0  0  0  0  0  0
   25.0170  -31.4444   -7.9765 C   0  0  0  0  0  0  0  0  0  0  0  0
   23.8549  -31.9777   -7.4408 C   0  0  0  0  0  0  0  0  0  0  0  0
   21.1321  -33.7245   -9.3351 C   0  0  0  0  0  0  0  0  0  0  0  0
   20.9963  -34.9352   -9.5943 O   0  0  0  0  0  0  0  0  0  0  0  0
   25.4323  -34.3489  -13.0769 N   0  0  0  0  0  0  0  0  0  0  0  0
   24.5410  -33.8101  -14.0298 C   0  0  0  0  0  0  0  0  0  0  0  0
   24.9210  -33.7288  -15.2244 O   0  0  0  0  0  0  0  0  0  0  0  0
   23.1665  -33.3374  -13.6546 C   0  0  0  0  0  0  0  0  0  0  0  0
   22.9556  -33.3901  -12.1822 C   0  0  0  0  0  0  0  0  0  0  0  0
   21.6018  -32.9138  -11.7104 C   0  0  2  0  0  0  0  0  0  0  0  0
   21.4059  -32.7796  -10.3188 N   0  0  0  0  0  0  0  0  0  0  0  0
   20.5505  -33.5098  -12.5027 C   0  0  0  0  0  0  0  0  0  0  0  0
   20.2700  -34.7363  -12.5278 O   0  0  0  0  0  0  0  0  0  0  0  0
   19.7591  -32.6977  -13.3191 O   0  0  0  0  0  0  0  0  0  0  0  0
  2  4  1  0
  2  3  1  6
  2  1  1  0
  5  6  1  1
  5  4  1  0
  7  5  1  0
  8  7  2  0
  9  7  1  0
 10  9  1  0
 11 12  1  0
 10 11  1  1
 12 17  2  0
 13 12  1  0
 13 14  2  0
 14 15  1  0
 15 16  2  0
 17 16  1  0
 18 10  1  0
 18 26  1  0
 19 18  2  0
 21 22  2  0
 21 20  1  0
 23 21  1  0
 24 23  1  0
 25 24  1  1
 25 26  1  0
 27 29  1  0
 27 25  1  0
 28 27  2  0
M  END
$$$$
