LFQ.pdb
     RDKit          3D

 29 29  0  0  1  0  0  0  0  0999 V2000
   27.2632  -21.8228  -16.4486 C   0  0  0  0  0  0  0  0  0  0  0  0
   28.4849  -21.7209  -15.5683 C   0  0  2  0  0  0  0  0  0  0  0  0
   29.4777  -22.7538  -16.0746 C   0  0  0  0  0  0  0  0  0  0  0  0
   28.2019  -22.0268  -14.1369 C   0  0  0  0  0  0  0  0  0  0  0  0
   27.3468  -20.9795  -13.4626 C   0  0  2  0  0  0  0  0  0  0  0  0
   27.7506  -19.6449  -13.7697 N   0  0  0  0  0  0  0  0  0  0  0  0
   27.2444  -21.2525  -12.0056 C   0  0  0  0  0  0  0  0  0  0  0  0
   27.0856  -22.4492  -11.6621 O   0  0  0  0  0  0  0  0  0  0  0  0
   27.3182  -20.2371  -11.0239 N   0  0  0  0  0  0  0  0  0  0  0  0
   27.0732  -20.5047   -9.6265 C   0  0  1  0  0  0  0  0  0  0  0  0
   27.7068  -19.4225   -8.7807 C   0  0  0  0  0  0  0  0  0  0  0  0
   27.6575  -19.7452   -7.3353 C   0  0  0  0  0  0  0  0  0  0  0  0
   28.7865  -20.2027   -6.6906 C   0  0  0  0  0  0  0  0  0  0  0  0
   28.7931  -20.5172   -5.3452 C   0  0  0  0  0  0  0  0  0  0  0  0
   27.6404  -20.3750   -4.6057 C   0  0  0  0  0  0  0  0  0  0  0  0
   26.5011  -19.9187   -5.2335 C   0  0  0  0  0  0  0  0  0  0  0  0
   26.5111  -19.6074   -6.5844 C   0  0  0  0  0  0  0  0  0  0  0  0
   25.5926  -20.4285   -9.3489 C   0  0  0  0  0  0  0  0  0  0  0  0
   25.2628  -20.5578   -8.1547 O   0  0  0  0  0  0  0  0  0  0  0  0
   21.4876  -17.8468  -13.4571 N   0  0  0  0  0  0  0  0  0  0  0  0
   20.6322  -18.3442  -12.4502 C   0  0  0  0  0  0  0  0  0  0  0  0
   19.4381  -17.9546  -12.4344 O   0  0  0  0  0  0  0  0  0  0  0  0
   21.1094  -19.3160  -11.4102 C   0  0  0  0  0  0  0  0  0  0  0  0
   22.5587  -19.6152  -11.5689 C   0  0  0  0  0  0  0  0  0  0  0  0
   23.2534  -20.1045  -10.3198 C   0  0  2  0  0  0  0  0  0  0  0  0
   24.6592  -20.2271  -10.3606 N   0  0  0  0  0  0  0  0  0  0  0  0
   22.4853  -21.1547   -9.6911 C   0  0  0  0  0  0  0  0  0  0  0  0
   21.3686  -20.9991   -9.1321 O   0  0  0  0  0  0  0  0  0  0  0  0
   22.9839  -22.4600   -9.6797 O   0  0  0  0  0  0  0  0  0  0  0  0
  2  4  1  0
  2  3  1  6
  2  1  1  0
  5  6  1  1
  5  4  1  0
  7  5  1  0
  8  7  2  0
  9  7  1  0
 10  9  1  0
 11 12  1  0
 10 11  1  1
 12 17  2  0
 13 12  1  0
 13 14  2  0
 14 15  1  0
 15 16  2  0
 17 16  1  0
 18 10  1  0
 18 26  1  0
 19 18  2  0
 21 22  2  0
 21 20  1  0
 23 21  1  0
 24 23  1  0
 25 24  1  6
 25 26  1  0
 27 29  1  0
 27 25  1  0
 28 27  2  0
M  END
$$$$
