LFQ.pdb
     RDKit          3D

 29 29  0  0  1  0  0  0  0  0999 V2000
   20.3323  -18.7243  -18.5678 C   0  0  0  0  0  0  0  0  0  0  0  0
   20.9990  -19.9186  -19.2056 C   0  0  2  0  0  0  0  0  0  0  0  0
   19.9186  -20.6707  -19.9645 C   0  0  0  0  0  0  0  0  0  0  0  0
   21.5926  -20.8576  -18.2114 C   0  0  0  0  0  0  0  0  0  0  0  0
   22.5589  -20.1870  -17.2629 C   0  0  2  0  0  0  0  0  0  0  0  0
   23.8995  -20.1639  -17.7538 N   0  0  0  0  0  0  0  0  0  0  0  0
   22.4317  -20.7631  -15.8993 C   0  0  0  0  0  0  0  0  0  0  0  0
   22.8894  -21.9190  -15.7263 O   0  0  0  0  0  0  0  0  0  0  0  0
   21.8295  -20.0709  -14.8229 N   0  0  0  0  0  0  0  0  0  0  0  0
   21.8182  -20.6039  -13.4812 C   0  0  1  0  0  0  0  0  0  0  0  0
   21.8769  -19.4706  -12.4811 C   0  0  0  0  0  0  0  0  0  0  0  0
   21.9095  -19.9623  -11.0837 C   0  0  0  0  0  0  0  0  0  0  0  0
   23.0658  -20.5089  -10.5703 C   0  0  0  0  0  0  0  0  0  0  0  0
   23.1481  -20.9815   -9.2745 C   0  0  0  0  0  0  0  0  0  0  0  0
   22.0461  -20.9123   -8.4519 C   0  0  0  0  0  0  0  0  0  0  0  0
   20.8805  -20.3687   -8.9480 C   0  0  0  0  0  0  0  0  0  0  0  0
   20.8144  -19.8990  -10.2506 C   0  0  0  0  0  0  0  0  0  0  0  0
   20.5085  -21.3076  -13.2275 C   0  0  0  0  0  0  0  0  0  0  0  0
   19.4937  -20.7232  -13.6521 O   0  0  0  0  0  0  0  0  0  0  0  0
   19.4624  -25.0425   -8.3160 N   0  0  0  0  0  0  0  0  0  0  0  0
   18.4179  -25.4484   -9.1745 C   0  0  0  0  0  0  0  0  0  0  0  0
   17.4521  -26.0830   -8.6821 O   0  0  0  0  0  0  0  0  0  0  0  0
   18.4332  -25.1436  -10.6444 C   0  0  0  0  0  0  0  0  0  0  0  0
   19.6036  -24.3016  -11.0137 C   0  0  0  0  0  0  0  0  0  0  0  0
   19.3377  -23.2655  -12.0805 C   0  0  2  0  0  0  0  0  0  0  0  0
   20.4405  -22.5280  -12.5632 N   0  0  0  0  0  0  0  0  0  0  0  0
   18.1023  -22.5661  -11.8110 C   0  0  0  0  0  0  0  0  0  0  0  0
   17.0316  -22.7136  -12.4559 O   0  0  0  0  0  0  0  0  0  0  0  0
   18.0472  -21.6452  -10.7617 O   0  0  0  0  0  0  0  0  0  0  0  0
  2  4  1  0
  2  3  1  1
  2  1  1  0
  5  6  1  6
  5  4  1  0
  7  5  1  0
  8  7  2  0
  9  7  1  0
 10  9  1  0
 11 12  1  0
 10 11  1  1
 12 17  2  0
 13 12  1  0
 13 14  2  0
 14 15  1  0
 15 16  2  0
 17 16  1  0
 18 10  1  0
 18 26  1  0
 19 18  2  0
 21 22  2  0
 21 20  1  0
 23 21  1  0
 24 23  1  0
 25 24  1  1
 25 26  1  0
 27 29  1  0
 27 25  1  0
 28 27  2  0
M  END
$$$$
