LFQ.pdb
     RDKit          3D

 29 29  0  0  1  0  0  0  0  0999 V2000
   28.5981  -19.2884  -15.9471 C   0  0  0  0  0  0  0  0  0  0  0  0
   27.2437  -19.9495  -15.8672 C   0  0  2  0  0  0  0  0  0  0  0  0
   26.2503  -18.9928  -16.5050 C   0  0  0  0  0  0  0  0  0  0  0  0
   26.7970  -20.2008  -14.4672 C   0  0  0  0  0  0  0  0  0  0  0  0
   27.7413  -21.0898  -13.6920 C   0  0  2  0  0  0  0  0  0  0  0  0
   27.9694  -22.3496  -14.3240 N   0  0  0  0  0  0  0  0  0  0  0  0
   27.3042  -21.2018  -12.2764 C   0  0  0  0  0  0  0  0  0  0  0  0
   26.2381  -21.8275  -12.0593 O   0  0  0  0  0  0  0  0  0  0  0  0
   28.0298  -20.6425  -11.1989 N   0  0  0  0  0  0  0  0  0  0  0  0
   27.5691  -20.7398   -9.8341 C   0  0  1  0  0  0  0  0  0  0  0  0
   28.6314  -20.2083   -8.8976 C   0  0  0  0  0  0  0  0  0  0  0  0
   28.1511  -20.1301   -7.4980 C   0  0  0  0  0  0  0  0  0  0  0  0
   27.4629  -19.0174   -7.0647 C   0  0  0  0  0  0  0  0  0  0  0  0
   26.9942  -18.8956   -5.7706 C   0  0  0  0  0  0  0  0  0  0  0  0
   27.2129  -19.9116   -4.8675 C   0  0  0  0  0  0  0  0  0  0  0  0
   27.8995  -21.0326   -5.2827 C   0  0  0  0  0  0  0  0  0  0  0  0
   28.3632  -21.1392   -6.5848 C   0  0  0  0  0  0  0  0  0  0  0  0
   26.3682  -19.8480   -9.6408 C   0  0  0  0  0  0  0  0  0  0  0  0
   26.4537  -18.7141  -10.1493 O   0  0  0  0  0  0  0  0  0  0  0  0
   22.5488  -20.6132  -13.5346 N   0  0  0  0  0  0  0  0  0  0  0  0
   21.7789  -21.0181  -12.4228 C   0  0  0  0  0  0  0  0  0  0  0  0
   20.8294  -21.8183  -12.6130 O   0  0  0  0  0  0  0  0  0  0  0  0
   22.0640  -20.5215  -11.0351 C   0  0  0  0  0  0  0  0  0  0  0  0
   23.4932  -20.7182  -10.6693 C   0  0  0  0  0  0  0  0  0  0  0  0
   23.8717  -20.2483   -9.2843 C   0  0  2  0  0  0  0  0  0  0  0  0
   25.2409  -20.2659   -8.9408 N   0  0  0  0  0  0  0  0  0  0  0  0
   22.9083  -20.7105   -8.3114 C   0  0  0  0  0  0  0  0  0  0  0  0
   23.0820  -21.6761   -7.5233 O   0  0  0  0  0  0  0  0  0  0  0  0
   21.6745  -20.0637   -8.2033 O   0  0  0  0  0  0  0  0  0  0  0  0
  2  4  1  0
  2  3  1  1
  2  1  1  0
  5  6  1  6
  5  4  1  0
  7  5  1  0
  8  7  2  0
  9  7  1  0
 10  9  1  0
 11 12  1  0
 10 11  1  1
 12 17  2  0
 13 12  1  0
 13 14  2  0
 14 15  1  0
 15 16  2  0
 17 16  1  0
 18 10  1  0
 18 26  1  0
 19 18  2  0
 21 22  2  0
 21 20  1  0
 23 21  1  0
 24 23  1  0
 25 24  1  6
 25 26  1  0
 27 29  1  0
 27 25  1  0
 28 27  2  0
M  END
$$$$
