LFQ.pdb
     RDKit          3D

 29 29  0  0  1  0  0  0  0  0999 V2000
   29.0476  -22.5830  -19.7421 C   0  0  0  0  0  0  0  0  0  0  0  0
   29.8386  -22.5179  -18.4585 C   0  0  2  0  0  0  0  0  0  0  0  0
   30.8967  -23.6055  -18.5397 C   0  0  0  0  0  0  0  0  0  0  0  0
   29.0104  -22.7799  -17.2469 C   0  0  0  0  0  0  0  0  0  0  0  0
   27.9342  -21.7427  -17.0262 C   0  0  2  0  0  0  0  0  0  0  0  0
   28.4044  -20.4047  -17.1915 N   0  0  0  0  0  0  0  0  0  0  0  0
   27.2442  -21.9780  -15.7316 C   0  0  0  0  0  0  0  0  0  0  0  0
   26.9484  -23.1656  -15.4536 O   0  0  0  0  0  0  0  0  0  0  0  0
   26.9202  -20.9373  -14.8303 N   0  0  0  0  0  0  0  0  0  0  0  0
   26.1622  -21.1773  -13.6252 C   0  0  1  0  0  0  0  0  0  0  0  0
   26.5590  -20.1747  -12.5643 C   0  0  0  0  0  0  0  0  0  0  0  0
   25.7748  -20.3427  -11.3184 C   0  0  0  0  0  0  0  0  0  0  0  0
   26.3210  -21.0089  -10.2426 C   0  0  0  0  0  0  0  0  0  0  0  0
   25.6319  -21.1922   -9.0591 C   0  0  0  0  0  0  0  0  0  0  0  0
   24.3529  -20.6988   -8.9311 C   0  0  0  0  0  0  0  0  0  0  0  0
   23.7898  -20.0295   -9.9967 C   0  0  0  0  0  0  0  0  0  0  0  0
   24.4947  -19.8542  -11.1774 C   0  0  0  0  0  0  0  0  0  0  0  0
   24.6977  -20.9346  -13.8919 C   0  0  0  0  0  0  0  0  0  0  0  0
   24.4349  -19.9165  -14.5597 O   0  0  0  0  0  0  0  0  0  0  0  0
   20.2751  -25.3995  -14.2134 N   0  0  0  0  0  0  0  0  0  0  0  0
   19.6294  -24.2426  -14.7006 C   0  0  0  0  0  0  0  0  0  0  0  0
   18.4348  -24.3389  -15.0773 O   0  0  0  0  0  0  0  0  0  0  0  0
   20.3273  -22.9158  -14.7785 C   0  0  0  0  0  0  0  0  0  0  0  0
   21.7559  -23.0276  -14.3765 C   0  0  0  0  0  0  0  0  0  0  0  0
   22.3159  -21.8238  -13.6557 C   0  0  2  0  0  0  0  0  0  0  0  0
   23.7078  -21.7920  -13.4225 N   0  0  0  0  0  0  0  0  0  0  0  0
   21.4269  -21.4100  -12.5942 C   0  0  0  0  0  0  0  0  0  0  0  0
   21.4882  -21.8088  -11.4022 O   0  0  0  0  0  0  0  0  0  0  0  0
   20.4053  -20.4970  -12.8684 O   0  0  0  0  0  0  0  0  0  0  0  0
  2  4  1  0
  2  3  1  6
  2  1  1  0
  5  6  1  1
  5  4  1  0
  7  5  1  0
  8  7  2  0
  9  7  1  0
 10  9  1  0
 11 12  1  0
 10 11  1  1
 12 17  2  0
 13 12  1  0
 13 14  2  0
 14 15  1  0
 15 16  2  0
 17 16  1  0
 18 10  1  0
 18 26  1  0
 19 18  2  0
 21 22  2  0
 21 20  1  0
 23 21  1  0
 24 23  1  0
 25 24  1  1
 25 26  1  0
 27 29  1  0
 27 25  1  0
 28 27  2  0
M  END
$$$$
