LFQ.pdb
     RDKit          3D

 29 29  0  0  1  0  0  0  0  0999 V2000
   26.8506  -16.7921  -20.0057 C   0  0  0  0  0  0  0  0  0  0  0  0
   26.3976  -18.1610  -20.4511 C   0  0  2  0  0  0  0  0  0  0  0  0
   25.1135  -17.9633  -21.2391 C   0  0  0  0  0  0  0  0  0  0  0  0
   26.0957  -19.0763  -19.3137 C   0  0  0  0  0  0  0  0  0  0  0  0
   27.2000  -19.1299  -18.2839 C   0  0  2  0  0  0  0  0  0  0  0  0
   28.4298  -19.6315  -18.8080 N   0  0  0  0  0  0  0  0  0  0  0  0
   26.7373  -19.8389  -17.0630 C   0  0  0  0  0  0  0  0  0  0  0  0
   26.3695  -21.0307  -17.2038 O   0  0  0  0  0  0  0  0  0  0  0  0
   26.6994  -19.2316  -15.7863 N   0  0  0  0  0  0  0  0  0  0  0  0
   26.2785  -19.9525  -14.6084 C   0  0  1  0  0  0  0  0  0  0  0  0
   26.7803  -19.2439  -13.3697 C   0  0  0  0  0  0  0  0  0  0  0  0
   26.4219  -19.9705  -12.1291 C   0  0  0  0  0  0  0  0  0  0  0  0
   27.0963  -21.1215  -11.7830 C   0  0  0  0  0  0  0  0  0  0  0  0
   26.8008  -21.8355  -10.6375 C   0  0  0  0  0  0  0  0  0  0  0  0
   25.8002  -21.3969   -9.7996 C   0  0  0  0  0  0  0  0  0  0  0  0
   25.1145  -20.2473  -10.1292 C   0  0  0  0  0  0  0  0  0  0  0  0
   25.4234  -19.5425  -11.2824 C   0  0  0  0  0  0  0  0  0  0  0  0
   24.7735  -19.9302  -14.5125 C   0  0  0  0  0  0  0  0  0  0  0  0
   24.2473  -18.8035  -14.5847 O   0  0  0  0  0  0  0  0  0  0  0  0
   21.1599  -25.3333  -14.1318 N   0  0  0  0  0  0  0  0  0  0  0  0
   20.2231  -24.2789  -14.0726 C   0  0  0  0  0  0  0  0  0  0  0  0
   19.0007  -24.5667  -14.0402 O   0  0  0  0  0  0  0  0  0  0  0  0
   20.6472  -22.8390  -14.0476 C   0  0  0  0  0  0  0  0  0  0  0  0
   22.1252  -22.7048  -14.1604 C   0  0  0  0  0  0  0  0  0  0  0  0
   22.6453  -21.2868  -14.1253 C   0  0  2  0  0  0  0  0  0  0  0  0
   24.0246  -21.0919  -14.3541 N   0  0  0  0  0  0  0  0  0  0  0  0
   22.0072  -20.5391  -13.0661 C   0  0  0  0  0  0  0  0  0  0  0  0
   21.0712  -19.7131  -13.2257 O   0  0  0  0  0  0  0  0  0  0  0  0
   22.4311  -20.7160  -11.7465 O   0  0  0  0  0  0  0  0  0  0  0  0
  2  4  1  0
  2  3  1  1
  2  1  1  0
  5  6  1  6
  5  4  1  0
  7  5  1  0
  8  7  2  0
  9  7  1  0
 10  9  1  0
 11 12  1  0
 10 11  1  1
 12 17  2  0
 13 12  1  0
 13 14  2  0
 14 15  1  0
 15 16  2  0
 17 16  1  0
 18 10  1  0
 18 26  1  0
 19 18  2  0
 21 22  2  0
 21 20  1  0
 23 21  1  0
 24 23  1  0
 25 24  1  1
 25 26  1  0
 27 29  1  0
 27 25  1  0
 28 27  2  0
M  END
$$$$
