RHR.pdb
     RDKit          3D

 33 33  0  0  1  0  0  0  0  0999 V2000
   33.2194  -32.5106  -24.4153 N   0  0  0  0  0  0  0  0  0  0  0  0
   32.7974  -33.2170  -23.2632 C   0  0  0  0  0  0  0  0  0  0  0  0
   33.4298  -34.2623  -22.8024 N   0  0  0  0  0  0  0  0  0  0  0  0
   31.6346  -32.8158  -22.5324 N   0  0  0  0  0  0  0  0  0  0  0  0
   30.9978  -31.5337  -22.8445 C   0  0  0  0  0  0  0  0  0  0  0  0
   31.2464  -30.5226  -21.7687 C   0  0  0  0  0  0  0  0  0  0  0  0
   30.5183  -29.2231  -21.9872 C   0  0  0  0  0  0  0  0  0  0  0  0
   30.7860  -28.2118  -20.9210 C   0  0  2  0  0  0  0  0  0  0  0  0
   32.1419  -27.7680  -20.9794 N   0  0  0  0  0  0  0  0  0  0  0  0
   30.3419  -28.6754  -19.5944 C   0  0  0  0  0  0  0  0  0  0  0  0
   31.2075  -29.3568  -18.9405 O   0  0  0  0  0  0  0  0  0  0  0  0
   33.0513  -34.6874  -21.9270 N   0  0  0  0  0  0  0  0  0  0  0  0
   29.0662  -28.3941  -19.0796 C   0  0  1  0  0  0  0  0  0  0  0  0
   28.7159  -28.8815  -17.7621 C   0  0  0  0  0  0  0  0  0  0  0  0
   28.0595  -27.7269  -17.0449 C   0  0  0  0  0  0  0  0  0  0  0  0
   29.0192  -26.6265  -16.8380 C   0  0  0  0  0  0  0  0  0  0  0  0
   30.3565  -26.6180  -17.2302 N   0  0  0  0  0  0  0  0  0  0  0  0
   30.8740  -25.4385  -16.8484 C   0  0  0  0  0  0  0  0  0  0  0  0
   29.9359  -24.6984  -16.2348 N   0  0  0  0  0  0  0  0  0  0  0  0
   28.7963  -25.4333  -16.2305 C   0  0  0  0  0  0  0  0  0  0  0  0
   27.8155  -30.0354  -17.8079 O   0  0  0  0  0  0  0  0  0  0  0  0
   27.0399  -30.1944  -18.8093 N   0  0  0  0  0  0  0  0  0  0  0  0
   29.0418  -38.6044  -17.3445 C   0  0  0  0  0  0  0  0  0  0  0  0
   27.6333  -38.4353  -17.3878 N   0  0  0  0  0  0  0  0  0  0  0  0
   26.8262  -39.4528  -17.5514 N   0  0  0  0  0  0  0  0  0  0  0  0
   27.0140  -37.1657  -17.2599 C   0  0  0  0  0  0  0  0  0  0  0  0
   27.7623  -35.9691  -17.1265 C   0  0  0  0  0  0  0  0  0  0  0  0
   26.9249  -34.7041  -17.0841 C   0  0  0  0  0  0  0  0  0  0  0  0
   27.7478  -33.4758  -16.9672 C   0  0  1  0  0  0  0  0  0  0  0  0
   26.8834  -32.2454  -17.0042 N   0  0  0  0  0  0  0  0  0  0  0  0
   27.7065  -31.0418  -16.8137 C   0  0  0  0  0  0  0  0  0  0  0  0
   25.8031  -32.2013  -16.0148 O   0  0  0  0  0  0  0  0  0  0  0  0
   24.6366  -32.9238  -16.1821 O   0  0  0  0  0  0  0  0  0  0  0  0
  1  2  1  0
  2  4  1  0
  3  2  2  0
  4  5  1  0
  6  7  1  0
  6  5  1  0
  7  8  1  0
  8  9  1  1
 10 12  1  0
 10  8  1  0
 11 10  2  0
 13 12  1  0
 13 20  1  0
 13 14  1  1
 15 14  1  0
 16 15  2  0
 17 16  1  0
 18 17  1  0
 18 19  2  0
 19 15  1  0
 20 21  2  0
 22 23  1  0
 23 25  1  0
 23 24  2  0
 25 26  1  0
 27 26  1  0
 27 28  1  0
 29 28  1  6
 29 31  1  0
 30 20  1  0
 30 29  1  0
 31 32  1  0
 33 31  2  0
M  END
$$$$
