RHR.pdb
     RDKit          3D

 33 33  0  0  1  0  0  0  0  0999 V2000
   18.4954  -16.3114  -16.6755 N   0  0  0  0  0  0  0  0  0  0  0  0
   18.7278  -14.9268  -16.8578 C   0  0  0  0  0  0  0  0  0  0  0  0
   17.8270  -14.0177  -16.5995 N   0  0  0  0  0  0  0  0  0  0  0  0
   19.9835  -14.4438  -17.3448 N   0  0  0  0  0  0  0  0  0  0  0  0
   21.0565  -15.3988  -17.6333 C   0  0  0  0  0  0  0  0  0  0  0  0
   20.6647  -16.3509  -18.7204 C   0  0  0  0  0  0  0  0  0  0  0  0
   21.7160  -17.3866  -19.0182 C   0  0  0  0  0  0  0  0  0  0  0  0
   23.0513  -17.0540  -18.4374 C   0  0  2  0  0  0  0  0  0  0  0  0
   23.8469  -16.3407  -19.3845 N   0  0  0  0  0  0  0  0  0  0  0  0
   23.7049  -18.2330  -17.8414 C   0  0  0  0  0  0  0  0  0  0  0  0
   22.9760  -19.2848  -17.7823 O   0  0  0  0  0  0  0  0  0  0  0  0
   18.1061  -13.0251  -16.7644 N   0  0  0  0  0  0  0  0  0  0  0  0
   25.0279  -18.2113  -17.3718 C   0  0  2  0  0  0  0  0  0  0  0  0
   25.5955  -19.4196  -16.8114 C   0  0  0  0  0  0  0  0  0  0  0  0
   27.0891  -19.3129  -17.0016 C   0  0  0  0  0  0  0  0  0  0  0  0
   27.7577  -20.5646  -16.6007 C   0  0  0  0  0  0  0  0  0  0  0  0
   27.1425  -21.6804  -16.0360 N   0  0  0  0  0  0  0  0  0  0  0  0
   28.1028  -22.5937  -15.8161 C   0  0  0  0  0  0  0  0  0  0  0  0
   29.2947  -22.1165  -16.2114 N   0  0  0  0  0  0  0  0  0  0  0  0
   29.0776  -20.8677  -16.6934 C   0  0  0  0  0  0  0  0  0  0  0  0
   25.2699  -19.5917  -15.3942 O   0  0  0  0  0  0  0  0  0  0  0  0
   24.8654  -18.5920  -14.7111 N   0  0  0  0  0  0  0  0  0  0  0  0
   20.1271  -25.3753  -13.3641 C   0  0  0  0  0  0  0  0  0  0  0  0
   19.4229  -24.1565  -13.1833 N   0  0  0  0  0  0  0  0  0  0  0  0
   18.1173  -24.1269  -13.0929 N   0  0  0  0  0  0  0  0  0  0  0  0
   20.0802  -22.9030  -13.0918 C   0  0  0  0  0  0  0  0  0  0  0  0
   21.4932  -22.7884  -13.0889 C   0  0  0  0  0  0  0  0  0  0  0  0
   22.0092  -21.3613  -13.0650 C   0  0  0  0  0  0  0  0  0  0  0  0
   22.9951  -21.0904  -14.1393 C   0  0  2  0  0  0  0  0  0  0  0  0
   24.4004  -21.1566  -13.6069 N   0  0  0  0  0  0  0  0  0  0  0  0
   25.3600  -20.8052  -14.6643 C   0  0  0  0  0  0  0  0  0  0  0  0
   24.8076  -22.4519  -13.0554 O   0  0  0  0  0  0  0  0  0  0  0  0
   24.8128  -22.6911  -11.6940 O   0  0  0  0  0  0  0  0  0  0  0  0
  1  2  1  0
  2  4  1  0
  3  2  2  0
  4  5  1  0
  6  7  1  0
  6  5  1  0
  7  8  1  0
  8  9  1  6
 10 12  1  0
 10  8  1  0
 11 10  2  0
 13 12  1  0
 13 20  1  0
 13 14  1  6
 15 14  1  0
 16 15  2  0
 17 16  1  0
 18 17  1  0
 18 19  2  0
 19 15  1  0
 20 21  2  0
 22 23  1  0
 23 25  1  0
 23 24  2  0
 25 26  1  0
 27 26  1  0
 27 28  1  0
 29 28  1  1
 29 31  1  0
 30 20  1  0
 30 29  1  0
 31 32  1  0
 33 31  2  0
M  END
$$$$
