RHR.pdb
     RDKit          3D

 33 33  0  0  1  0  0  0  0  0999 V2000
   26.6374  -15.4250  -21.9603 N   0  0  0  0  0  0  0  0  0  0  0  0
   26.2088  -16.7731  -21.9047 C   0  0  0  0  0  0  0  0  0  0  0  0
   25.7234  -17.3176  -20.8218 N   0  0  0  0  0  0  0  0  0  0  0  0
   26.2884  -17.6241  -23.0522 N   0  0  0  0  0  0  0  0  0  0  0  0
   25.6071  -18.9210  -23.0325 C   0  0  0  0  0  0  0  0  0  0  0  0
   26.5190  -20.0115  -22.5622 C   0  0  0  0  0  0  0  0  0  0  0  0
   26.0232  -20.7176  -21.3285 C   0  0  0  0  0  0  0  0  0  0  0  0
   27.0160  -21.6787  -20.7613 C   0  0  2  0  0  0  0  0  0  0  0  0
   27.4232  -22.6227  -21.7521 N   0  0  0  0  0  0  0  0  0  0  0  0
   26.5512  -22.2712  -19.4943 C   0  0  0  0  0  0  0  0  0  0  0  0
   26.2948  -23.5253  -19.5442 O   0  0  0  0  0  0  0  0  0  0  0  0
   25.4651  -18.3275  -20.8835 N   0  0  0  0  0  0  0  0  0  0  0  0
   26.3990  -21.5220  -18.3165 C   0  0  2  0  0  0  0  0  0  0  0  0
   25.9592  -22.1900  -17.1097 C   0  0  0  0  0  0  0  0  0  0  0  0
   27.0331  -21.9477  -16.0770 C   0  0  0  0  0  0  0  0  0  0  0  0
   28.1595  -22.8806  -16.2655 C   0  0  0  0  0  0  0  0  0  0  0  0
   28.3271  -23.7614  -17.3324 N   0  0  0  0  0  0  0  0  0  0  0  0
   29.4722  -24.4304  -17.1180 C   0  0  0  0  0  0  0  0  0  0  0  0
   30.0398  -24.0208  -15.9715 N   0  0  0  0  0  0  0  0  0  0  0  0
   29.2287  -23.0672  -15.4503 C   0  0  0  0  0  0  0  0  0  0  0  0
   24.6663  -21.6969  -16.6305 O   0  0  0  0  0  0  0  0  0  0  0  0
   24.4642  -20.4401  -16.5333 N   0  0  0  0  0  0  0  0  0  0  0  0
   17.4364  -25.0768  -17.0714 C   0  0  0  0  0  0  0  0  0  0  0  0
   16.8920  -24.1206  -16.1750 N   0  0  0  0  0  0  0  0  0  0  0  0
   15.6333  -23.7659  -16.2337 N   0  0  0  0  0  0  0  0  0  0  0  0
   17.6681  -23.4913  -15.1684 C   0  0  0  0  0  0  0  0  0  0  0  0
   19.0446  -23.7767  -14.9856 C   0  0  0  0  0  0  0  0  0  0  0  0
   19.9830  -22.6812  -15.4575 C   0  0  0  0  0  0  0  0  0  0  0  0
   21.4099  -23.0054  -15.2157 C   0  0  2  0  0  0  0  0  0  0  0  0
   22.3046  -21.9221  -15.7528 N   0  0  0  0  0  0  0  0  0  0  0  0
   23.5635  -22.5017  -16.2444 C   0  0  0  0  0  0  0  0  0  0  0  0
   22.6498  -20.8589  -14.8049 O   0  0  0  0  0  0  0  0  0  0  0  0
   21.9388  -19.6747  -14.7529 O   0  0  0  0  0  0  0  0  0  0  0  0
  1  2  1  0
  2  4  1  0
  3  2  2  0
  4  5  1  0
  6  7  1  0
  6  5  1  0
  7  8  1  0
  8  9  1  6
 10 12  1  0
 10  8  1  0
 11 10  2  0
 13 12  1  0
 13 20  1  0
 13 14  1  6
 15 14  1  0
 16 15  2  0
 17 16  1  0
 18 17  1  0
 18 19  2  0
 19 15  1  0
 20 21  2  0
 22 23  1  0
 23 25  1  0
 23 24  2  0
 25 26  1  0
 27 26  1  0
 27 28  1  0
 29 28  1  6
 29 31  1  0
 30 20  1  0
 30 29  1  0
 31 32  1  0
 33 31  2  0
M  END
$$$$
