RHR.pdb
     RDKit          3D

 33 33  0  0  1  0  0  0  0  0999 V2000
   33.5941  -25.1055  -17.8975 N   0  0  0  0  0  0  0  0  0  0  0  0
   32.5413  -24.2766  -18.3545 C   0  0  0  0  0  0  0  0  0  0  0  0
   32.6772  -23.4441  -19.3511 N   0  0  0  0  0  0  0  0  0  0  0  0
   31.2516  -24.3078  -17.7357 N   0  0  0  0  0  0  0  0  0  0  0  0
   30.0942  -23.7791  -18.4620 C   0  0  0  0  0  0  0  0  0  0  0  0
   30.0243  -22.2864  -18.3688 C   0  0  0  0  0  0  0  0  0  0  0  0
   28.6303  -21.7641  -18.1443 C   0  0  0  0  0  0  0  0  0  0  0  0
   28.1981  -21.8349  -16.7163 C   0  0  2  0  0  0  0  0  0  0  0  0
   28.5695  -23.0878  -16.1410 N   0  0  0  0  0  0  0  0  0  0  0  0
   26.7795  -21.4719  -16.5487 C   0  0  0  0  0  0  0  0  0  0  0  0
   26.4477  -20.3383  -17.0448 O   0  0  0  0  0  0  0  0  0  0  0  0
   31.8003  -23.0183  -19.7254 N   0  0  0  0  0  0  0  0  0  0  0  0
   25.8552  -22.3027  -15.8952 C   0  0  1  0  0  0  0  0  0  0  0  0
   24.4745  -21.8784  -15.7970 C   0  0  0  0  0  0  0  0  0  0  0  0
   23.6359  -23.0827  -16.1505 C   0  0  0  0  0  0  0  0  0  0  0  0
   22.2227  -22.7013  -16.3292 C   0  0  0  0  0  0  0  0  0  0  0  0
   21.6954  -21.4177  -16.2002 N   0  0  0  0  0  0  0  0  0  0  0  0
   20.3757  -21.5058  -16.4354 C   0  0  0  0  0  0  0  0  0  0  0  0
   20.0378  -22.7772  -16.7068 N   0  0  0  0  0  0  0  0  0  0  0  0
   21.1773  -23.5093  -16.6402 C   0  0  0  0  0  0  0  0  0  0  0  0
   24.1285  -21.3867  -14.4618 O   0  0  0  0  0  0  0  0  0  0  0  0
   24.0504  -22.2057  -13.4856 N   0  0  0  0  0  0  0  0  0  0  0  0
   19.6705  -15.8634  -18.3059 C   0  0  0  0  0  0  0  0  0  0  0  0
   19.4135  -17.2590  -18.2823 N   0  0  0  0  0  0  0  0  0  0  0  0
   18.7543  -17.8503  -19.2463 N   0  0  0  0  0  0  0  0  0  0  0  0
   19.8476  -18.0959  -17.2227 C   0  0  0  0  0  0  0  0  0  0  0  0
   19.9955  -17.6205  -15.8954 C   0  0  0  0  0  0  0  0  0  0  0  0
   20.4472  -18.6706  -14.8970 C   0  0  0  0  0  0  0  0  0  0  0  0
   21.8348  -19.1339  -15.1411 C   0  0  1  0  0  0  0  0  0  0  0  0
   22.4941  -19.5535  -13.8559 N   0  0  0  0  0  0  0  0  0  0  0  0
   23.8577  -20.0365  -14.1199 C   0  0  0  0  0  0  0  0  0  0  0  0
   21.7966  -20.5962  -13.0981 O   0  0  0  0  0  0  0  0  0  0  0  0
   21.5127  -20.4482  -11.7534 O   0  0  0  0  0  0  0  0  0  0  0  0
  1  2  1  0
  2  4  1  0
  3  2  2  0
  4  5  1  0
  6  7  1  0
  6  5  1  0
  7  8  1  0
  8  9  1  6
 10 12  1  0
 10  8  1  0
 11 10  2  0
 13 12  1  0
 13 20  1  0
 13 14  1  6
 15 14  1  0
 16 15  2  0
 17 16  1  0
 18 17  1  0
 18 19  2  0
 19 15  1  0
 20 21  2  0
 22 23  1  0
 23 25  1  0
 23 24  2  0
 25 26  1  0
 27 26  1  0
 27 28  1  0
 29 28  1  1
 29 31  1  0
 30 20  1  0
 30 29  1  0
 31 32  1  0
 33 31  2  0
M  END
$$$$
