RHR.pdb
     RDKit          3D

 33 33  0  0  1  0  0  0  0  0999 V2000
   21.6307  -25.1801  -26.6087 N   0  0  0  0  0  0  0  0  0  0  0  0
   22.8640  -25.6674  -26.1127 C   0  0  0  0  0  0  0  0  0  0  0  0
   23.4994  -26.6699  -26.6566 N   0  0  0  0  0  0  0  0  0  0  0  0
   23.4880  -25.0768  -24.9685 N   0  0  0  0  0  0  0  0  0  0  0  0
   22.8290  -23.9584  -24.2891 C   0  0  0  0  0  0  0  0  0  0  0  0
   22.6980  -24.2112  -22.8192 C   0  0  0  0  0  0  0  0  0  0  0  0
   21.9601  -23.1223  -22.0868 C   0  0  0  0  0  0  0  0  0  0  0  0
   22.8631  -22.0701  -21.5313 C   0  0  2  0  0  0  0  0  0  0  0  0
   23.8719  -22.6576  -20.7092 N   0  0  0  0  0  0  0  0  0  0  0  0
   22.1102  -20.9718  -20.8996 C   0  0  0  0  0  0  0  0  0  0  0  0
   21.7644  -21.1806  -19.6839 O   0  0  0  0  0  0  0  0  0  0  0  0
   24.4161  -26.9281  -26.2283 N   0  0  0  0  0  0  0  0  0  0  0  0
   21.7927  -19.7822  -21.5747 C   0  0  2  0  0  0  0  0  0  0  0  0
   20.9586  -18.7999  -20.9149 C   0  0  0  0  0  0  0  0  0  0  0  0
   21.3304  -17.4626  -21.5080 C   0  0  0  0  0  0  0  0  0  0  0  0
   20.5980  -16.3720  -20.8382 C   0  0  0  0  0  0  0  0  0  0  0  0
   20.5161  -16.1605  -19.4631 N   0  0  0  0  0  0  0  0  0  0  0  0
   19.7523  -15.0716  -19.2743 C   0  0  0  0  0  0  0  0  0  0  0  0
   19.3453  -14.5811  -20.4567 N   0  0  0  0  0  0  0  0  0  0  0  0
   19.8679  -15.3843  -21.4161 C   0  0  0  0  0  0  0  0  0  0  0  0
   19.5290  -19.0610  -21.0948 O   0  0  0  0  0  0  0  0  0  0  0  0
   19.1149  -19.6039  -22.1734 N   0  0  0  0  0  0  0  0  0  0  0  0
   15.9863  -21.2970  -14.6960 C   0  0  0  0  0  0  0  0  0  0  0  0
   15.3152  -22.1068  -15.6489 N   0  0  0  0  0  0  0  0  0  0  0  0
   15.1179  -23.3845  -15.4440 N   0  0  0  0  0  0  0  0  0  0  0  0
   14.8209  -21.5908  -16.8741 C   0  0  0  0  0  0  0  0  0  0  0  0
   15.1855  -20.3087  -17.3568 C   0  0  0  0  0  0  0  0  0  0  0  0
   15.8313  -20.3131  -18.7303 C   0  0  0  0  0  0  0  0  0  0  0  0
   16.2953  -18.9683  -19.1496 C   0  0  2  0  0  0  0  0  0  0  0  0
   17.0898  -19.0483  -20.4243 N   0  0  0  0  0  0  0  0  0  0  0  0
   18.5072  -18.7616  -20.1569 C   0  0  0  0  0  0  0  0  0  0  0  0
   16.6543  -18.1517  -21.4985 O   0  0  0  0  0  0  0  0  0  0  0  0
   15.7394  -18.5547  -22.4532 O   0  0  0  0  0  0  0  0  0  0  0  0
  1  2  1  0
  2  4  1  0
  3  2  2  0
  4  5  1  0
  6  7  1  0
  6  5  1  0
  7  8  1  0
  8  9  1  1
 10 12  1  0
 10  8  1  0
 11 10  2  0
 13 12  1  0
 13 20  1  0
 13 14  1  6
 15 14  1  0
 16 15  2  0
 17 16  1  0
 18 17  1  0
 18 19  2  0
 19 15  1  0
 20 21  2  0
 22 23  1  0
 23 25  1  0
 23 24  2  0
 25 26  1  0
 27 26  1  0
 27 28  1  0
 29 28  1  1
 29 31  1  0
 30 20  1  0
 30 29  1  0
 31 32  1  0
 33 31  2  0
M  END
$$$$
