RHR.pdb
     RDKit          3D

 33 33  0  0  1  0  0  0  0  0999 V2000
   14.8774  -34.0953  -17.5724 N   0  0  0  0  0  0  0  0  0  0  0  0
   16.0181  -33.4694  -17.0143 C   0  0  0  0  0  0  0  0  0  0  0  0
   16.1121  -32.1762  -16.8608 N   0  0  0  0  0  0  0  0  0  0  0  0
   17.1475  -34.2351  -16.5838 N   0  0  0  0  0  0  0  0  0  0  0  0
   18.3274  -33.5417  -16.0607 C   0  0  0  0  0  0  0  0  0  0  0  0
   18.1168  -33.0917  -14.6483 C   0  0  0  0  0  0  0  0  0  0  0  0
   19.3302  -32.4418  -14.0386 C   0  0  0  0  0  0  0  0  0  0  0  0
   19.1191  -32.0108  -12.6241 C   0  0  2  0  0  0  0  0  0  0  0  0
   18.0650  -31.0510  -12.5440 N   0  0  0  0  0  0  0  0  0  0  0  0
   20.3786  -31.6044  -11.9755 C   0  0  0  0  0  0  0  0  0  0  0  0
   21.4273  -32.2006  -12.4066 O   0  0  0  0  0  0  0  0  0  0  0  0
   16.9946  -31.8211  -16.4300 N   0  0  0  0  0  0  0  0  0  0  0  0
   20.4317  -30.6359  -10.9602 C   0  0  1  0  0  0  0  0  0  0  0  0
   21.7065  -30.3293  -10.3463 C   0  0  0  0  0  0  0  0  0  0  0  0
   21.6624  -28.8632   -9.9899 C   0  0  0  0  0  0  0  0  0  0  0  0
   21.6632  -28.0293  -11.2061 C   0  0  0  0  0  0  0  0  0  0  0  0
   21.6019  -28.4918  -12.5194 N   0  0  0  0  0  0  0  0  0  0  0  0
   21.6341  -27.4142  -13.3210 C   0  0  0  0  0  0  0  0  0  0  0  0
   21.7127  -26.2927  -12.5858 N   0  0  0  0  0  0  0  0  0  0  0  0
   21.7305  -26.6760  -11.2852 C   0  0  0  0  0  0  0  0  0  0  0  0
   21.9688  -31.1391   -9.1548 O   0  0  0  0  0  0  0  0  0  0  0  0
   21.0506  -31.2983   -8.2823 N   0  0  0  0  0  0  0  0  0  0  0  0
   28.3679  -36.8763   -6.2619 C   0  0  0  0  0  0  0  0  0  0  0  0
   27.1762  -37.0893   -5.5211 N   0  0  0  0  0  0  0  0  0  0  0  0
   27.0964  -38.0212   -4.6053 N   0  0  0  0  0  0  0  0  0  0  0  0
   26.0047  -36.3158   -5.7236 C   0  0  0  0  0  0  0  0  0  0  0  0
   25.9250  -35.3102   -6.7197 C   0  0  0  0  0  0  0  0  0  0  0  0
   24.6639  -34.4677   -6.6645 C   0  0  0  0  0  0  0  0  0  0  0  0
   24.5399  -33.5455   -7.8193 C   0  0  2  0  0  0  0  0  0  0  0  0
   23.3480  -32.6421   -7.6589 N   0  0  0  0  0  0  0  0  0  0  0  0
   23.1893  -31.7958   -8.8510 C   0  0  0  0  0  0  0  0  0  0  0  0
   23.3778  -31.7569   -6.4912 O   0  0  0  0  0  0  0  0  0  0  0  0
   23.8725  -30.4686   -6.5704 O   0  0  0  0  0  0  0  0  0  0  0  0
  1  2  1  0
  2  4  1  0
  3  2  2  0
  4  5  1  0
  6  7  1  0
  6  5  1  0
  7  8  1  0
  8  9  1  6
 10 12  1  0
 10  8  1  0
 11 10  2  0
 13 12  1  0
 13 20  1  0
 13 14  1  6
 15 14  1  0
 16 15  2  0
 17 16  1  0
 18 17  1  0
 18 19  2  0
 19 15  1  0
 20 21  2  0
 22 23  1  0
 23 25  1  0
 23 24  2  0
 25 26  1  0
 27 26  1  0
 27 28  1  0
 29 28  1  6
 29 31  1  0
 30 20  1  0
 30 29  1  0
 31 32  1  0
 33 31  2  0
M  END
$$$$
