RHR.pdb
     RDKit          3D

 33 33  0  0  1  0  0  0  0  0999 V2000
   28.7718  -22.9838  -10.8003 N   0  0  0  0  0  0  0  0  0  0  0  0
   29.4271  -21.7458  -10.5943 C   0  0  0  0  0  0  0  0  0  0  0  0
   30.5905  -21.6492  -10.0098 N   0  0  0  0  0  0  0  0  0  0  0  0
   28.8368  -20.5147  -11.0222 N   0  0  0  0  0  0  0  0  0  0  0  0
   27.6973  -20.5469  -11.9426 C   0  0  0  0  0  0  0  0  0  0  0  0
   28.0431  -21.2511  -13.2178 C   0  0  0  0  0  0  0  0  0  0  0  0
   26.8981  -21.3232  -14.1927 C   0  0  0  0  0  0  0  0  0  0  0  0
   26.7702  -20.1011  -15.0419 C   0  0  2  0  0  0  0  0  0  0  0  0
   27.9520  -19.3045  -14.9561 N   0  0  0  0  0  0  0  0  0  0  0  0
   25.5134  -19.3761  -14.7827 C   0  0  0  0  0  0  0  0  0  0  0  0
   25.5503  -18.5641  -13.7926 O   0  0  0  0  0  0  0  0  0  0  0  0
   30.9669  -20.6842   -9.8776 N   0  0  0  0  0  0  0  0  0  0  0  0
   24.3582  -19.5573  -15.5600 C   0  0  1  0  0  0  0  0  0  0  0  0
   23.1702  -18.7927  -15.2435 C   0  0  0  0  0  0  0  0  0  0  0  0
   22.8009  -18.0449  -16.5016 C   0  0  0  0  0  0  0  0  0  0  0  0
   23.6993  -16.8939  -16.7083 C   0  0  0  0  0  0  0  0  0  0  0  0
   24.6693  -16.4384  -15.8173 N   0  0  0  0  0  0  0  0  0  0  0  0
   25.2561  -15.3702  -16.3822 C   0  0  0  0  0  0  0  0  0  0  0  0
   24.7098  -15.1238  -17.5844 N   0  0  0  0  0  0  0  0  0  0  0  0
   23.7523  -16.0637  -17.7809 C   0  0  0  0  0  0  0  0  0  0  0  0
   22.0570  -19.6357  -14.8026 O   0  0  0  0  0  0  0  0  0  0  0  0
   22.2530  -20.8767  -14.5762 N   0  0  0  0  0  0  0  0  0  0  0  0
   19.1741  -24.2166   -9.3982 C   0  0  0  0  0  0  0  0  0  0  0  0
   18.6907  -23.6541  -10.6082 N   0  0  0  0  0  0  0  0  0  0  0  0
   18.1950  -24.4022  -11.5612 N   0  0  0  0  0  0  0  0  0  0  0  0
   18.7145  -22.2590  -10.8629 C   0  0  0  0  0  0  0  0  0  0  0  0
   19.8936  -21.4845  -10.7228 C   0  0  0  0  0  0  0  0  0  0  0  0
   19.7261  -20.0151  -11.0639 C   0  0  0  0  0  0  0  0  0  0  0  0
   20.5967  -19.5842  -12.1845 C   0  0  1  0  0  0  0  0  0  0  0  0
   19.8890  -19.7368  -13.5030 N   0  0  0  0  0  0  0  0  0  0  0  0
   20.7226  -19.2027  -14.5904 C   0  0  0  0  0  0  0  0  0  0  0  0
   18.5772  -19.0900  -13.5954 O   0  0  0  0  0  0  0  0  0  0  0  0
   17.4035  -19.8100  -13.4734 O   0  0  0  0  0  0  0  0  0  0  0  0
  1  2  1  0
  2  4  1  0
  3  2  2  0
  4  5  1  0
  6  7  1  0
  6  5  1  0
  7  8  1  0
  8  9  1  1
 10 12  1  0
 10  8  1  0
 11 10  2  0
 13 12  1  0
 13 20  1  0
 13 14  1  1
 15 14  1  0
 16 15  2  0
 17 16  1  0
 18 17  1  0
 18 19  2  0
 19 15  1  0
 20 21  2  0
 22 23  1  0
 23 25  1  0
 23 24  2  0
 25 26  1  0
 27 26  1  0
 27 28  1  0
 29 28  1  6
 29 31  1  0
 30 20  1  0
 30 29  1  0
 31 32  1  0
 33 31  2  0
M  END
$$$$
