RHR.pdb
     RDKit          3D

 33 33  0  0  1  0  0  0  0  0999 V2000
   17.7034  -21.4557  -12.2742 N   0  0  0  0  0  0  0  0  0  0  0  0
   18.0099  -22.5025  -13.1768 C   0  0  0  0  0  0  0  0  0  0  0  0
   17.1683  -23.4583  -13.4646 N   0  0  0  0  0  0  0  0  0  0  0  0
   19.2810  -22.5690  -13.8305 N   0  0  0  0  0  0  0  0  0  0  0  0
   20.2260  -21.4601  -13.6764 C   0  0  0  0  0  0  0  0  0  0  0  0
   21.5394  -21.7655  -14.3270 C   0  0  0  0  0  0  0  0  0  0  0  0
   22.5205  -20.6254  -14.2618 C   0  0  0  0  0  0  0  0  0  0  0  0
   23.8294  -20.9373  -14.9103 C   0  0  2  0  0  0  0  0  0  0  0  0
   24.6120  -21.7915  -14.0757 N   0  0  0  0  0  0  0  0  0  0  0  0
   24.5206  -19.7213  -15.3748 C   0  0  0  0  0  0  0  0  0  0  0  0
   25.2261  -19.1259  -14.4865 O   0  0  0  0  0  0  0  0  0  0  0  0
   17.4745  -24.1466  -14.1877 N   0  0  0  0  0  0  0  0  0  0  0  0
   24.4179  -19.2456  -16.6919 C   0  0  2  0  0  0  0  0  0  0  0  0
   25.2815  -18.1651  -17.1192 C   0  0  0  0  0  0  0  0  0  0  0  0
   26.0280  -18.6734  -18.3287 C   0  0  0  0  0  0  0  0  0  0  0  0
   27.1427  -19.5502  -17.9245 C   0  0  0  0  0  0  0  0  0  0  0  0
   27.4825  -19.8981  -16.6185 N   0  0  0  0  0  0  0  0  0  0  0  0
   28.5565  -20.7019  -16.6890 C   0  0  0  0  0  0  0  0  0  0  0  0
   28.9161  -20.8825  -17.9706 N   0  0  0  0  0  0  0  0  0  0  0  0
   28.0435  -20.1719  -18.7273 C   0  0  0  0  0  0  0  0  0  0  0  0
   24.5399  -16.9463  -17.4491 O   0  0  0  0  0  0  0  0  0  0  0  0
   23.4471  -17.0273  -18.1039 N   0  0  0  0  0  0  0  0  0  0  0  0
   19.1048  -11.2728  -14.8823 C   0  0  0  0  0  0  0  0  0  0  0  0
   19.0622  -12.6687  -15.1346 N   0  0  0  0  0  0  0  0  0  0  0  0
   17.9331  -13.2882  -15.3688 N   0  0  0  0  0  0  0  0  0  0  0  0
   20.2279  -13.4766  -15.1477 C   0  0  0  0  0  0  0  0  0  0  0  0
   21.4296  -13.0604  -15.7742 C   0  0  0  0  0  0  0  0  0  0  0  0
   22.5566  -14.0750  -15.7114 C   0  0  0  0  0  0  0  0  0  0  0  0
   23.8000  -13.5910  -16.3588 C   0  0  2  0  0  0  0  0  0  0  0  0
   24.1569  -14.4476  -17.5426 N   0  0  0  0  0  0  0  0  0  0  0  0
   24.9225  -15.6242  -17.1044 C   0  0  0  0  0  0  0  0  0  0  0  0
   24.9335  -13.7832  -18.5930 O   0  0  0  0  0  0  0  0  0  0  0  0
   24.3330  -12.9636  -19.5303 O   0  0  0  0  0  0  0  0  0  0  0  0
  1  2  1  0
  2  4  1  0
  3  2  2  0
  4  5  1  0
  6  7  1  0
  6  5  1  0
  7  8  1  0
  8  9  1  1
 10 12  1  0
 10  8  1  0
 11 10  2  0
 13 12  1  0
 13 20  1  0
 13 14  1  1
 15 14  1  0
 16 15  2  0
 17 16  1  0
 18 17  1  0
 18 19  2  0
 19 15  1  0
 20 21  2  0
 22 23  1  0
 23 25  1  0
 23 24  2  0
 25 26  1  0
 27 26  1  0
 27 28  1  0
 29 28  1  1
 29 31  1  0
 30 20  1  0
 30 29  1  0
 31 32  1  0
 33 31  2  0
M  END
$$$$
