RHR.pdb
     RDKit          3D

 33 33  0  0  1  0  0  0  0  0999 V2000
   27.4892  -26.7606  -19.3994 N   0  0  0  0  0  0  0  0  0  0  0  0
   26.8466  -27.5818  -18.4418 C   0  0  0  0  0  0  0  0  0  0  0  0
   26.7715  -28.8800  -18.5588 N   0  0  0  0  0  0  0  0  0  0  0  0
   26.2339  -27.0214  -17.2766 N   0  0  0  0  0  0  0  0  0  0  0  0
   26.6453  -25.6918  -16.8186 C   0  0  0  0  0  0  0  0  0  0  0  0
   25.8565  -25.2561  -15.6230 C   0  0  0  0  0  0  0  0  0  0  0  0
   26.0442  -23.8028  -15.2778 C   0  0  0  0  0  0  0  0  0  0  0  0
   25.4742  -22.8762  -16.3013 C   0  0  2  0  0  0  0  0  0  0  0  0
   26.4193  -21.8614  -16.6412 N   0  0  0  0  0  0  0  0  0  0  0  0
   24.1415  -22.3785  -15.9162 C   0  0  0  0  0  0  0  0  0  0  0  0
   24.1440  -21.4464  -15.0374 O   0  0  0  0  0  0  0  0  0  0  0  0
   26.2674  -29.3880  -17.7984 N   0  0  0  0  0  0  0  0  0  0  0  0
   22.9535  -22.8840  -16.4681 C   0  0  2  0  0  0  0  0  0  0  0  0
   21.6837  -22.4109  -15.9583 C   0  0  0  0  0  0  0  0  0  0  0  0
   20.8954  -21.9413  -17.1569 C   0  0  0  0  0  0  0  0  0  0  0  0
   21.3417  -20.6024  -17.5841 C   0  0  0  0  0  0  0  0  0  0  0  0
   22.3111  -19.8209  -16.9582 N   0  0  0  0  0  0  0  0  0  0  0  0
   22.4109  -18.6779  -17.6570 C   0  0  0  0  0  0  0  0  0  0  0  0
   21.5561  -18.6929  -18.6931 N   0  0  0  0  0  0  0  0  0  0  0  0
   20.9003  -19.8788  -18.6444 C   0  0  0  0  0  0  0  0  0  0  0  0
   20.9454  -23.4465  -15.2326 O   0  0  0  0  0  0  0  0  0  0  0  0
   20.9642  -24.6513  -15.6543 N   0  0  0  0  0  0  0  0  0  0  0  0
   18.7450  -24.9645   -6.7006 C   0  0  0  0  0  0  0  0  0  0  0  0
   18.2559  -26.0473   -7.4768 N   0  0  0  0  0  0  0  0  0  0  0  0
   17.8051  -27.1418   -6.9180 N   0  0  0  0  0  0  0  0  0  0  0  0
   18.2255  -26.0160   -8.8946 C   0  0  0  0  0  0  0  0  0  0  0  0
   18.7662  -24.9375   -9.6391 C   0  0  0  0  0  0  0  0  0  0  0  0
   18.7642  -25.1465  -11.1423 C   0  0  0  0  0  0  0  0  0  0  0  0
   19.4397  -24.0477  -11.8744 C   0  0  1  0  0  0  0  0  0  0  0  0
   19.5332  -24.3596  -13.3429 N   0  0  0  0  0  0  0  0  0  0  0  0
   20.1756  -23.2465  -14.0576 C   0  0  0  0  0  0  0  0  0  0  0  0
   18.2597  -24.6367  -14.0131 O   0  0  0  0  0  0  0  0  0  0  0  0
   17.6246  -23.6830  -14.7864 O   0  0  0  0  0  0  0  0  0  0  0  0
  1  2  1  0
  2  4  1  0
  3  2  2  0
  4  5  1  0
  6  7  1  0
  6  5  1  0
  7  8  1  0
  8  9  1  1
 10 12  1  0
 10  8  1  0
 11 10  2  0
 13 12  1  0
 13 20  1  0
 13 14  1  6
 15 14  1  0
 16 15  2  0
 17 16  1  0
 18 17  1  0
 18 19  2  0
 19 15  1  0
 20 21  2  0
 22 23  1  0
 23 25  1  0
 23 24  2  0
 25 26  1  0
 27 26  1  0
 27 28  1  0
 29 28  1  1
 29 31  1  0
 30 20  1  0
 30 29  1  0
 31 32  1  0
 33 31  2  0
M  END
$$$$
