NKS.pdb
     RDKit          3D

 24 23  0  0  1  0  0  0  0  0999 V2000
    7.4037  -13.7502   16.4084 N   0  0  0  0  0  0  0  0  0  0  0  0
    7.9763  -14.8966   17.0240 C   0  0  0  0  0  0  0  0  0  0  0  0
    8.5771  -15.7891   16.3885 O   0  0  0  0  0  0  0  0  0  0  0  0
    7.8618  -15.0517   18.4890 C   0  0  0  0  0  0  0  0  0  0  0  0
    7.7447  -13.7154   19.1934 C   0  0  2  0  0  0  0  0  0  0  0  0
    8.3851  -12.6777   18.4185 N   0  0  0  0  0  0  0  0  0  0  0  0
    8.3526  -13.7414   20.5364 C   0  0  0  0  0  0  0  0  0  0  0  0
    9.6087  -13.7064   20.6889 O   0  0  0  0  0  0  0  0  0  0  0  0
    7.5634  -13.8062   21.7114 N   0  0  0  0  0  0  0  0  0  0  0  0
    8.1754  -13.7594   23.0687 C   0  0  1  0  0  0  0  0  0  0  0  0
    7.1149  -13.1441   23.9920 C   0  0  0  0  0  0  0  0  0  0  0  0
    7.5503  -13.0527   25.4043 C   0  0  0  0  0  0  0  0  0  0  0  0
    6.5159  -12.3702   26.3082 C   0  0  0  0  0  0  0  0  0  0  0  0
    7.1226  -12.1966   27.6761 C   0  0  0  0  0  0  0  0  0  0  0  0
    6.1025  -11.6062   28.5527 N   0  0  0  0  0  0  0  0  0  0  0  0
    8.3991  -15.1491   23.4861 C   0  0  0  0  0  0  0  0  0  0  0  0
    7.4299  -15.9733   23.3815 O   0  0  0  0  0  0  0  0  0  0  0  0
   11.7570  -16.9152   23.3891 O   0  0  0  0  0  0  0  0  0  0  0  0
   10.6544  -17.7344   23.4834 C   0  0  0  0  0  0  0  0  0  0  0  0
    9.6633  -17.0487   24.4344 C   0  0  2  0  0  0  0  0  0  0  0  0
    9.6042  -15.6667   23.9934 N   0  0  0  0  0  0  0  0  0  0  0  0
   10.1279  -17.1005   25.8214 C   0  0  0  0  0  0  0  0  0  0  0  0
   10.2711  -18.2978   26.4984 O   0  0  0  0  0  0  0  0  0  0  0  0
   10.4132  -16.0457   26.4450 O   0  0  0  0  0  0  0  0  0  0  0  0
  2  1  1  0
  2  3  2  0
  4  5  1  0
  4  2  1  0
  5  6  1  6
  7  5  1  0
  8  7  2  0
  9  7  1  0
 10  9  1  0
 10 11  1  1
 11 12  1  0
 12 13  1  0
 13 14  1  0
 14 15  1  0
 16 21  1  0
 16 10  1  0
 17 16  2  0
 18 19  1  0
 20 19  1  6
 20 21  1  0
 22 20  1  0
 23 22  1  0
 24 22  2  0
M  END
$$$$
