NKS.pdb
     RDKit          3D

 24 23  0  0  1  0  0  0  0  0999 V2000
    8.6985  -16.6180   17.8328 N   0  0  0  0  0  0  0  0  0  0  0  0
    7.2909  -16.6105   18.0329 C   0  0  0  0  0  0  0  0  0  0  0  0
    6.4693  -16.9173   17.1429 O   0  0  0  0  0  0  0  0  0  0  0  0
    6.7608  -16.2219   19.3563 C   0  0  0  0  0  0  0  0  0  0  0  0
    7.8676  -15.8779   20.3320 C   0  0  2  0  0  0  0  0  0  0  0  0
    8.9226  -16.8630   20.2675 N   0  0  0  0  0  0  0  0  0  0  0  0
    7.3791  -15.8034   21.7210 C   0  0  0  0  0  0  0  0  0  0  0  0
    6.4544  -15.0037   22.0495 O   0  0  0  0  0  0  0  0  0  0  0  0
    7.9188  -16.6188   22.7466 N   0  0  0  0  0  0  0  0  0  0  0  0
    7.3988  -16.5683   24.1415 C   0  0  1  0  0  0  0  0  0  0  0  0
    7.8868  -17.8538   24.8236 C   0  0  0  0  0  0  0  0  0  0  0  0
    7.6525  -17.8659   26.2856 C   0  0  0  0  0  0  0  0  0  0  0  0
    8.0820  -19.1795   26.9512 C   0  0  0  0  0  0  0  0  0  0  0  0
    7.7126  -19.1146   28.4102 C   0  0  0  0  0  0  0  0  0  0  0  0
    8.0207  -20.4178   29.0142 N   0  0  0  0  0  0  0  0  0  0  0  0
    8.0444  -15.4250   24.7984 C   0  0  0  0  0  0  0  0  0  0  0  0
    9.2717  -15.1926   24.5351 O   0  0  0  0  0  0  0  0  0  0  0  0
    6.0454  -12.6283   26.7973 O   0  0  0  0  0  0  0  0  0  0  0  0
    7.2250  -12.2321   26.2080 C   0  0  0  0  0  0  0  0  0  0  0  0
    8.1789  -13.4341   26.2560 C   0  0  2  0  0  0  0  0  0  0  0  0
    7.4240  -14.5434   25.7015 N   0  0  0  0  0  0  0  0  0  0  0  0
    8.5753  -13.7495   27.6292 C   0  0  0  0  0  0  0  0  0  0  0  0
    9.2728  -12.8480   28.4123 O   0  0  0  0  0  0  0  0  0  0  0  0
    8.2904  -14.8622   28.1424 O   0  0  0  0  0  0  0  0  0  0  0  0
  2  1  1  0
  2  3  2  0
  4  5  1  0
  4  2  1  0
  5  6  1  1
  7  5  1  0
  8  7  2  0
  9  7  1  0
 10  9  1  0
 10 11  1  1
 11 12  1  0
 12 13  1  0
 13 14  1  0
 14 15  1  0
 16 21  1  0
 16 10  1  0
 17 16  2  0
 18 19  1  0
 20 19  1  1
 20 21  1  0
 22 20  1  0
 23 22  1  0
 24 22  2  0
M  END
$$$$
