NKS.pdb
     RDKit          3D

 24 23  0  0  1  0  0  0  0  0999 V2000
    7.7896  -12.6197   18.5601 N   0  0  0  0  0  0  0  0  0  0  0  0
    7.9512  -13.9888   18.2126 C   0  0  0  0  0  0  0  0  0  0  0  0
    7.1071  -14.6345   17.5554 O   0  0  0  0  0  0  0  0  0  0  0  0
    9.1751  -14.6947   18.6449 C   0  0  0  0  0  0  0  0  0  0  0  0
    8.8906  -15.7080   19.7346 C   0  0  2  0  0  0  0  0  0  0  0  0
    7.4954  -16.0833   19.7242 N   0  0  0  0  0  0  0  0  0  0  0  0
    9.2279  -15.1918   21.0738 C   0  0  0  0  0  0  0  0  0  0  0  0
   10.4052  -14.8234   21.3577 O   0  0  0  0  0  0  0  0  0  0  0  0
    8.2555  -15.0848   22.0989 N   0  0  0  0  0  0  0  0  0  0  0  0
    8.6085  -14.6093   23.4658 C   0  0  1  0  0  0  0  0  0  0  0  0
    7.3224  -14.0123   24.0533 C   0  0  0  0  0  0  0  0  0  0  0  0
    7.5184  -13.3957   25.3852 C   0  0  0  0  0  0  0  0  0  0  0  0
    6.2480  -12.7327   25.9323 C   0  0  0  0  0  0  0  0  0  0  0  0
    6.6003  -12.0136   27.2083 C   0  0  0  0  0  0  0  0  0  0  0  0
    5.3617  -11.4651   27.7764 N   0  0  0  0  0  0  0  0  0  0  0  0
    8.9670  -15.7957   24.2529 C   0  0  0  0  0  0  0  0  0  0  0  0
    8.2433  -16.8403   24.1323 O   0  0  0  0  0  0  0  0  0  0  0  0
   12.1129  -18.7319   25.8032 O   0  0  0  0  0  0  0  0  0  0  0  0
   11.6975  -17.6070   25.1268 C   0  0  0  0  0  0  0  0  0  0  0  0
   10.3683  -17.1672   25.7567 C   0  0  2  0  0  0  0  0  0  0  0  0
   10.0557  -15.8916   25.1379 N   0  0  0  0  0  0  0  0  0  0  0  0
   10.4932  -16.9915   27.2044 C   0  0  0  0  0  0  0  0  0  0  0  0
   10.6924  -18.0636   28.0547 O   0  0  0  0  0  0  0  0  0  0  0  0
   10.4219  -15.8475   27.7229 O   0  0  0  0  0  0  0  0  0  0  0  0
  2  1  1  0
  2  3  2  0
  4  5  1  0
  4  2  1  0
  5  6  1  1
  7  5  1  0
  8  7  2  0
  9  7  1  0
 10  9  1  0
 10 11  1  1
 11 12  1  0
 12 13  1  0
 13 14  1  0
 14 15  1  0
 16 21  1  0
 16 10  1  0
 17 16  2  0
 18 19  1  0
 20 19  1  6
 20 21  1  0
 22 20  1  0
 23 22  1  0
 24 22  2  0
M  END
$$$$
