NKS.pdb
     RDKit          3D

 24 23  0  0  1  0  0  0  0  0999 V2000
    8.2515  -12.1778   16.9273 N   0  0  0  0  0  0  0  0  0  0  0  0
    7.7890  -13.5139   17.0760 C   0  0  0  0  0  0  0  0  0  0  0  0
    7.8044  -14.3527   16.1499 O   0  0  0  0  0  0  0  0  0  0  0  0
    7.2612  -13.9442   18.3873 C   0  0  0  0  0  0  0  0  0  0  0  0
    8.3648  -14.3925   19.3235 C   0  0  2  0  0  0  0  0  0  0  0  0
    9.1962  -15.3870   18.6854 N   0  0  0  0  0  0  0  0  0  0  0  0
    7.8330  -14.9589   20.5765 C   0  0  0  0  0  0  0  0  0  0  0  0
    7.0508  -14.2941   21.3172 O   0  0  0  0  0  0  0  0  0  0  0  0
    8.1709  -16.2660   21.0070 N   0  0  0  0  0  0  0  0  0  0  0  0
    7.6457  -16.8303   22.2816 C   0  0  1  0  0  0  0  0  0  0  0  0
    7.4098  -18.3241   22.0196 C   0  0  0  0  0  0  0  0  0  0  0  0
    5.9772  -18.6780   21.8981 C   0  0  0  0  0  0  0  0  0  0  0  0
    5.7512  -20.1561   21.5558 C   0  0  0  0  0  0  0  0  0  0  0  0
    4.2671  -20.4057   21.4884 C   0  0  0  0  0  0  0  0  0  0  0  0
    4.0599  -21.8302   21.1960 N   0  0  0  0  0  0  0  0  0  0  0  0
    8.7143  -16.7010   23.2800 C   0  0  0  0  0  0  0  0  0  0  0  0
    9.9241  -16.7943   22.8836 O   0  0  0  0  0  0  0  0  0  0  0  0
    8.1731  -14.9988   26.7022 O   0  0  0  0  0  0  0  0  0  0  0  0
    9.4840  -15.0356   26.2832 C   0  0  0  0  0  0  0  0  0  0  0  0
    9.6793  -16.3584   25.5289 C   0  0  2  0  0  0  0  0  0  0  0  0
    8.5258  -16.4739   24.6550 N   0  0  0  0  0  0  0  0  0  0  0  0
    9.7147  -17.4984   26.4462 C   0  0  0  0  0  0  0  0  0  0  0  0
   10.7188  -17.6481   27.3852 O   0  0  0  0  0  0  0  0  0  0  0  0
    8.8233  -18.3852   26.4063 O   0  0  0  0  0  0  0  0  0  0  0  0
  2  1  1  0
  2  3  2  0
  4  5  1  0
  4  2  1  0
  5  6  1  6
  7  5  1  0
  8  7  2  0
  9  7  1  0
 10  9  1  0
 10 11  1  6
 11 12  1  0
 12 13  1  0
 13 14  1  0
 14 15  1  0
 16 21  1  0
 16 10  1  0
 17 16  2  0
 18 19  1  0
 20 19  1  1
 20 21  1  0
 22 20  1  0
 23 22  1  0
 24 22  2  0
M  END
$$$$
