NKS.pdb
     RDKit          3D

 24 23  0  0  1  0  0  0  0  0999 V2000
   14.5947  -17.6938   13.4020 N   0  0  0  0  0  0  0  0  0  0  0  0
   14.8869  -18.3570   14.6251 C   0  0  0  0  0  0  0  0  0  0  0  0
   15.2512  -19.5506   14.6888 O   0  0  0  0  0  0  0  0  0  0  0  0
   14.7568  -17.6074   15.8917 C   0  0  0  0  0  0  0  0  0  0  0  0
   14.2696  -16.1908   15.6650 C   0  0  2  0  0  0  0  0  0  0  0  0
   15.3398  -15.3632   15.1579 N   0  0  0  0  0  0  0  0  0  0  0  0
   13.7484  -15.5792   16.9011 C   0  0  0  0  0  0  0  0  0  0  0  0
   14.5283  -15.1718   17.8111 O   0  0  0  0  0  0  0  0  0  0  0  0
   12.3584  -15.4199   17.1261 N   0  0  0  0  0  0  0  0  0  0  0  0
   11.8339  -14.8023   18.3760 C   0  0  1  0  0  0  0  0  0  0  0  0
   10.3715  -14.4361   18.0877 C   0  0  0  0  0  0  0  0  0  0  0  0
    9.6786  -13.8344   19.2497 C   0  0  0  0  0  0  0  0  0  0  0  0
    8.2328  -13.4258   18.9406 C   0  0  0  0  0  0  0  0  0  0  0  0
    7.6255  -12.8480   20.1923 C   0  0  0  0  0  0  0  0  0  0  0  0
    6.2005  -12.6027   19.9332 N   0  0  0  0  0  0  0  0  0  0  0  0
   11.8523  -15.8448   19.4097 C   0  0  0  0  0  0  0  0  0  0  0  0
   11.3911  -16.9972   19.1119 O   0  0  0  0  0  0  0  0  0  0  0  0
   14.1264  -15.7079   22.6127 O   0  0  0  0  0  0  0  0  0  0  0  0
   13.7367  -16.9522   22.1704 C   0  0  0  0  0  0  0  0  0  0  0  0
   12.3035  -16.8129   21.6379 C   0  0  2  0  0  0  0  0  0  0  0  0
   12.3450  -15.6907   20.7178 N   0  0  0  0  0  0  0  0  0  0  0  0
   11.3563  -16.5270   22.7165 C   0  0  0  0  0  0  0  0  0  0  0  0
   10.6121  -15.3617   22.7437 O   0  0  0  0  0  0  0  0  0  0  0  0
   11.1901  -17.3416   23.6607 O   0  0  0  0  0  0  0  0  0  0  0  0
  2  1  1  0
  2  3  2  0
  4  5  1  0
  4  2  1  0
  5  6  1  1
  7  5  1  0
  8  7  2  0
  9  7  1  0
 10  9  1  0
 10 11  1  6
 11 12  1  0
 12 13  1  0
 13 14  1  0
 14 15  1  0
 16 21  1  0
 16 10  1  0
 17 16  2  0
 18 19  1  0
 20 19  1  1
 20 21  1  0
 22 20  1  0
 23 22  1  0
 24 22  2  0
M  END
$$$$
