NKS.pdb
     RDKit          3D

 24 23  0  0  1  0  0  0  0  0999 V2000
    7.9583  -12.7721   15.5054 N   0  0  0  0  0  0  0  0  0  0  0  0
    7.6744  -14.0463   16.0685 C   0  0  0  0  0  0  0  0  0  0  0  0
    7.3623  -15.0448   15.3851 O   0  0  0  0  0  0  0  0  0  0  0  0
    7.7488  -14.2106   17.5351 C   0  0  0  0  0  0  0  0  0  0  0  0
    8.7224  -15.3003   17.9351 C   0  0  2  0  0  0  0  0  0  0  0  0
    8.1941  -16.6008   17.5928 N   0  0  0  0  0  0  0  0  0  0  0  0
    9.0164  -15.2784   19.3796 C   0  0  0  0  0  0  0  0  0  0  0  0
    9.7169  -14.3573   19.8929 O   0  0  0  0  0  0  0  0  0  0  0  0
    8.5313  -16.2815   20.2551 N   0  0  0  0  0  0  0  0  0  0  0  0
    8.9208  -16.3208   21.6923 C   0  0  1  0  0  0  0  0  0  0  0  0
    8.1033  -17.4564   22.3231 C   0  0  0  0  0  0  0  0  0  0  0  0
    8.4798  -17.7388   23.7271 C   0  0  0  0  0  0  0  0  0  0  0  0
    7.6949  -18.9080   24.3353 C   0  0  0  0  0  0  0  0  0  0  0  0
    8.1393  -19.0853   25.7637 C   0  0  0  0  0  0  0  0  0  0  0  0
    7.3804  -20.2037   26.3389 N   0  0  0  0  0  0  0  0  0  0  0  0
   10.3402  -16.6929   21.7416 C   0  0  0  0  0  0  0  0  0  0  0  0
   10.7034  -17.7643   21.1503 O   0  0  0  0  0  0  0  0  0  0  0  0
   13.4567  -15.2876   20.6026 O   0  0  0  0  0  0  0  0  0  0  0  0
   13.6185  -15.3797   21.9668 C   0  0  0  0  0  0  0  0  0  0  0  0
   12.6989  -16.5081   22.4547 C   0  0  2  0  0  0  0  0  0  0  0  0
   11.3551  -15.9629   22.3856 N   0  0  0  0  0  0  0  0  0  0  0  0
   13.0027  -16.8882   23.8351 C   0  0  0  0  0  0  0  0  0  0  0  0
   12.0724  -16.7555   24.8497 O   0  0  0  0  0  0  0  0  0  0  0  0
   14.1313  -17.3513   24.1422 O   0  0  0  0  0  0  0  0  0  0  0  0
  2  1  1  0
  2  3  2  0
  4  5  1  0
  4  2  1  0
  5  6  1  1
  7  5  1  0
  8  7  2  0
  9  7  1  0
 10  9  1  0
 10 11  1  1
 11 12  1  0
 12 13  1  0
 13 14  1  0
 14 15  1  0
 16 21  1  0
 16 10  1  0
 17 16  2  0
 18 19  1  0
 20 19  1  1
 20 21  1  0
 22 20  1  0
 23 22  1  0
 24 22  2  0
M  END
$$$$
