NKS.pdb
     RDKit          3D

 24 23  0  0  1  0  0  0  0  0999 V2000
    6.8262  -13.6207   16.8773 N   0  0  0  0  0  0  0  0  0  0  0  0
    7.9650  -13.6716   17.7268 C   0  0  0  0  0  0  0  0  0  0  0  0
    9.1169  -13.9285   17.3161 O   0  0  0  0  0  0  0  0  0  0  0  0
    7.7904  -13.4092   19.1704 C   0  0  0  0  0  0  0  0  0  0  0  0
    8.6013  -14.3639   20.0226 C   0  0  2  0  0  0  0  0  0  0  0  0
    8.7670  -15.6296   19.3458 N   0  0  0  0  0  0  0  0  0  0  0  0
    7.9704  -14.6108   21.3321 C   0  0  0  0  0  0  0  0  0  0  0  0
    7.2600  -13.7274   21.8953 O   0  0  0  0  0  0  0  0  0  0  0  0
    8.1294  -15.8413   22.0167 N   0  0  0  0  0  0  0  0  0  0  0  0
    7.4684  -16.0991   23.3265 C   0  0  1  0  0  0  0  0  0  0  0  0
    7.7001  -17.5848   23.6343 C   0  0  0  0  0  0  0  0  0  0  0  0
    7.1746  -17.9978   24.9556 C   0  0  0  0  0  0  0  0  0  0  0  0
    7.4475  -19.4730   25.2754 C   0  0  0  0  0  0  0  0  0  0  0  0
    6.9005  -19.7697   26.6473 C   0  0  0  0  0  0  0  0  0  0  0  0
    7.2157  -21.1681   26.9682 N   0  0  0  0  0  0  0  0  0  0  0  0
    8.1842  -15.3035   24.3316 C   0  0  0  0  0  0  0  0  0  0  0  0
    9.4573  -15.3870   24.3715 O   0  0  0  0  0  0  0  0  0  0  0  0
    6.3375  -12.7858   26.7623 O   0  0  0  0  0  0  0  0  0  0  0  0
    7.6315  -12.4034   26.4886 C   0  0  0  0  0  0  0  0  0  0  0  0
    8.4239  -13.6817   26.1806 C   0  0  2  0  0  0  0  0  0  0  0  0
    7.5877  -14.4387   25.2665 N   0  0  0  0  0  0  0  0  0  0  0  0
    8.6633  -14.4690   27.3910 C   0  0  0  0  0  0  0  0  0  0  0  0
    8.1678  -15.7517   27.5367 O   0  0  0  0  0  0  0  0  0  0  0  0
    9.3338  -13.9962   28.3448 O   0  0  0  0  0  0  0  0  0  0  0  0
  2  1  1  0
  2  3  2  0
  4  5  1  0
  4  2  1  0
  5  6  1  6
  7  5  1  0
  8  7  2  0
  9  7  1  0
 10  9  1  0
 10 11  1  1
 11 12  1  0
 12 13  1  0
 13 14  1  0
 14 15  1  0
 16 21  1  0
 16 10  1  0
 17 16  2  0
 18 19  1  0
 20 19  1  1
 20 21  1  0
 22 20  1  0
 23 22  1  0
 24 22  2  0
M  END
$$$$
