DFS.pdb
     RDKit          3D

 26 26  0  0  1  0  0  0  0  0999 V2000
   22.7024  -10.6729  -19.1516 N   0  0  0  0  0  0  0  0  0  0  0  0
   22.3366   -9.3246  -19.1947 C   0  0  1  0  0  0  0  0  0  0  0  0
   21.0941   -9.0148  -19.9614 C   0  0  0  0  0  0  0  0  0  0  0  0
   21.2630   -9.1734  -21.4212 C   0  0  0  0  0  0  0  0  0  0  0  0
   20.4574   -9.8171  -22.1348 O   0  0  0  0  0  0  0  0  0  0  0  0
   22.1236   -8.8094  -17.7931 C   0  0  0  0  0  0  0  0  0  0  0  0
   21.5717   -9.5676  -16.9558 O   0  0  0  0  0  0  0  0  0  0  0  0
   22.3563   -8.5881  -22.0327 O   0  0  0  0  0  0  0  0  0  0  0  0
   22.5314   -7.5094  -17.4236 N   0  0  0  0  0  0  0  0  0  0  0  0
   22.3800   -6.9990  -16.0924 C   0  0  1  0  0  0  0  0  0  0  0  0
   23.6816   -6.7286  -15.3798 C   0  0  0  0  0  0  0  0  0  0  0  0
   24.5498   -7.9305  -15.3761 C   0  0  0  0  0  0  0  0  0  0  0  0
   24.3193   -8.9374  -14.4916 C   0  0  0  0  0  0  0  0  0  0  0  0
   25.1636  -10.0440  -14.5170 C   0  0  0  0  0  0  0  0  0  0  0  0
   26.1910  -10.0945  -15.4173 C   0  0  0  0  0  0  0  0  0  0  0  0
   26.4160   -9.0847  -16.2992 C   0  0  0  0  0  0  0  0  0  0  0  0
   25.5992   -7.9848  -16.2941 C   0  0  0  0  0  0  0  0  0  0  0  0
   21.4852   -5.7949  -16.0301 C   0  0  0  0  0  0  0  0  0  0  0  0
   21.8811   -4.8024  -16.6760 O   0  0  0  0  0  0  0  0  0  0  0  0
   17.8426   -3.8463  -17.1182 O   0  0  0  0  0  0  0  0  0  0  0  0
   18.8638   -4.7687  -16.9418 C   0  0  0  0  0  0  0  0  0  0  0  0
   19.2184   -4.8757  -15.4830 C   0  0  2  0  0  0  0  0  0  0  0  0
   20.2863   -5.7946  -15.2922 N   0  0  0  0  0  0  0  0  0  0  0  0
   18.0117   -5.1447  -14.6333 C   0  0  0  0  0  0  0  0  0  0  0  0
   17.6826   -6.3209  -14.4166 O   0  0  0  0  0  0  0  0  0  0  0  0
   17.2871   -4.1010  -14.1067 O   0  0  0  0  0  0  0  0  0  0  0  0
  2  1  1  1
  2  3  1  0
  3  4  1  0
  4  8  1  0
  5  4  2  0
  6  2  1  0
  7  6  2  0
  9  6  1  0
 10 11  1  6
 10  9  1  0
 11 12  1  0
 12 13  2  0
 12 17  1  0
 13 14  1  0
 14 15  2  0
 16 15  1  0
 17 16  2  0
 18 10  1  0
 19 18  2  0
 20 21  1  0
 22 21  1  6
 22 23  1  0
 23 18  1  0
 24 22  1  0
 24 26  1  0
 25 24  2  0
M  END
$$$$
