DFS.pdb
     RDKit          3D

 26 26  0  0  1  0  0  0  0  0999 V2000
   20.8314  -20.1044  -11.8807 N   0  0  0  0  0  0  0  0  0  0  0  0
   21.6785  -21.0998  -12.3761 C   0  0  1  0  0  0  0  0  0  0  0  0
   21.4427  -21.5045  -13.7932 C   0  0  0  0  0  0  0  0  0  0  0  0
   20.2001  -22.2852  -13.9705 C   0  0  0  0  0  0  0  0  0  0  0  0
   19.3912  -22.5006  -13.0368 O   0  0  0  0  0  0  0  0  0  0  0  0
   23.1122  -20.6393  -12.2872 C   0  0  0  0  0  0  0  0  0  0  0  0
   23.3568  -19.4157  -12.4404 O   0  0  0  0  0  0  0  0  0  0  0  0
   19.9117  -22.8034  -15.2194 O   0  0  0  0  0  0  0  0  0  0  0  0
   24.1583  -21.5540  -12.0383 N   0  0  0  0  0  0  0  0  0  0  0  0
   25.5238  -21.1456  -11.8828 C   0  0  1  0  0  0  0  0  0  0  0  0
   26.3418  -22.0431  -10.9882 C   0  0  0  0  0  0  0  0  0  0  0  0
   26.7290  -21.3447   -9.7389 C   0  0  0  0  0  0  0  0  0  0  0  0
   25.8126  -20.6083   -9.0553 C   0  0  0  0  0  0  0  0  0  0  0  0
   26.2207  -19.9623   -7.8915 C   0  0  0  0  0  0  0  0  0  0  0  0
   27.5147  -20.0804   -7.4668 C   0  0  0  0  0  0  0  0  0  0  0  0
   28.4261  -20.8183   -8.1545 C   0  0  0  0  0  0  0  0  0  0  0  0
   28.0491  -21.4635   -9.3028 C   0  0  0  0  0  0  0  0  0  0  0  0
   26.2203  -20.9345  -13.1961 C   0  0  0  0  0  0  0  0  0  0  0  0
   26.0538  -21.8401  -14.0395 O   0  0  0  0  0  0  0  0  0  0  0  0
   29.1971  -18.0588  -15.7480 O   0  0  0  0  0  0  0  0  0  0  0  0
   28.5211  -18.2876  -14.5583 C   0  0  0  0  0  0  0  0  0  0  0  0
   27.6705  -19.5238  -14.6759 C   0  0  2  0  0  0  0  0  0  0  0  0
   27.0039  -19.7928  -13.4492 N   0  0  0  0  0  0  0  0  0  0  0  0
   28.4452  -20.6845  -15.2262 C   0  0  0  0  0  0  0  0  0  0  0  0
   28.4727  -20.8573  -16.4542 O   0  0  0  0  0  0  0  0  0  0  0  0
   29.1114  -21.5386  -14.3786 O   0  0  0  0  0  0  0  0  0  0  0  0
  2  1  1  6
  2  3  1  0
  3  4  1  0
  4  8  1  0
  5  4  2  0
  6  2  1  0
  7  6  2  0
  9  6  1  0
 10 11  1  6
 10  9  1  0
 11 12  1  0
 12 13  2  0
 12 17  1  0
 13 14  1  0
 14 15  2  0
 16 15  1  0
 17 16  2  0
 18 10  1  0
 19 18  2  0
 20 21  1  0
 22 21  1  1
 22 23  1  0
 23 18  1  0
 24 22  1  0
 24 26  1  0
 25 24  2  0
M  END
$$$$
