DFS.pdb
     RDKit          3D

 26 26  0  0  1  0  0  0  0  0999 V2000
   26.7728  -19.9925  -18.1203 N   0  0  0  0  0  0  0  0  0  0  0  0
   25.4850  -20.5295  -18.0361 C   0  0  1  0  0  0  0  0  0  0  0  0
   25.1986  -21.6722  -18.9524 C   0  0  0  0  0  0  0  0  0  0  0  0
   25.3684  -21.3238  -20.3788 C   0  0  0  0  0  0  0  0  0  0  0  0
   24.8536  -20.3048  -20.8977 O   0  0  0  0  0  0  0  0  0  0  0  0
   25.2287  -21.0210  -16.6332 C   0  0  0  0  0  0  0  0  0  0  0  0
   24.8140  -22.1978  -16.4793 O   0  0  0  0  0  0  0  0  0  0  0  0
   26.1279  -22.1548  -21.1816 O   0  0  0  0  0  0  0  0  0  0  0  0
   25.4468  -20.1858  -15.5162 N   0  0  0  0  0  0  0  0  0  0  0  0
   25.1281  -20.5849  -14.1765 C   0  0  1  0  0  0  0  0  0  0  0  0
   25.9763  -19.9293  -13.1154 C   0  0  0  0  0  0  0  0  0  0  0  0
   25.5590  -20.3549  -11.7578 C   0  0  0  0  0  0  0  0  0  0  0  0
   24.6415  -19.6282  -11.0654 C   0  0  0  0  0  0  0  0  0  0  0  0
   24.2843  -20.0590   -9.7907 C   0  0  0  0  0  0  0  0  0  0  0  0
   24.8547  -21.1868   -9.2698 C   0  0  0  0  0  0  0  0  0  0  0  0
   25.7712  -21.9092   -9.9671 C   0  0  0  0  0  0  0  0  0  0  0  0
   26.1395  -21.5059  -11.2235 C   0  0  0  0  0  0  0  0  0  0  0  0
   23.6696  -20.4298  -13.8554 C   0  0  0  0  0  0  0  0  0  0  0  0
   23.2308  -19.2626  -13.9192 O   0  0  0  0  0  0  0  0  0  0  0  0
   19.5619  -22.6991  -12.5892 O   0  0  0  0  0  0  0  0  0  0  0  0
   20.8846  -22.8036  -12.9946 C   0  0  0  0  0  0  0  0  0  0  0  0
   21.5094  -21.4369  -13.0793 C   0  0  2  0  0  0  0  0  0  0  0  0
   22.8619  -21.5292  -13.5077 N   0  0  0  0  0  0  0  0  0  0  0  0
   21.3132  -20.6538  -11.8149 C   0  0  0  0  0  0  0  0  0  0  0  0
   22.0628  -20.8749  -10.8516 O   0  0  0  0  0  0  0  0  0  0  0  0
   20.3176  -19.7085  -11.7316 O   0  0  0  0  0  0  0  0  0  0  0  0
  2  1  1  1
  2  3  1  0
  3  4  1  0
  4  8  1  0
  5  4  2  0
  6  2  1  0
  7  6  2  0
  9  6  1  0
 10 11  1  1
 10  9  1  0
 11 12  1  0
 12 13  2  0
 12 17  1  0
 13 14  1  0
 14 15  2  0
 16 15  1  0
 17 16  2  0
 18 10  1  0
 19 18  2  0
 20 21  1  0
 22 21  1  1
 22 23  1  0
 23 18  1  0
 24 22  1  0
 24 26  1  0
 25 24  2  0
M  END
$$$$
