DFS.pdb
     RDKit          3D

 26 26  0  0  1  0  0  0  0  0999 V2000
   26.8322  -23.0040  -18.0611 N   0  0  0  0  0  0  0  0  0  0  0  0
   25.5695  -22.4105  -18.1449 C   0  0  1  0  0  0  0  0  0  0  0  0
   24.4849  -23.2713  -18.7016 C   0  0  0  0  0  0  0  0  0  0  0  0
   24.6659  -23.5698  -20.1379 C   0  0  0  0  0  0  0  0  0  0  0  0
   25.6470  -23.1579  -20.8014 O   0  0  0  0  0  0  0  0  0  0  0  0
   25.1192  -21.9750  -16.7726 C   0  0  0  0  0  0  0  0  0  0  0  0
   25.5636  -22.5955  -15.7737 O   0  0  0  0  0  0  0  0  0  0  0  0
   23.7142  -24.3371  -20.7838 O   0  0  0  0  0  0  0  0  0  0  0  0
   24.2213  -20.8983  -16.6068 N   0  0  0  0  0  0  0  0  0  0  0  0
   23.8107  -20.4236  -15.3177 C   0  0  1  0  0  0  0  0  0  0  0  0
   24.3082  -19.0407  -14.9785 C   0  0  0  0  0  0  0  0  0  0  0  0
   25.7803  -19.0295  -14.8023 C   0  0  0  0  0  0  0  0  0  0  0  0
   26.3247  -19.2875  -13.5831 C   0  0  0  0  0  0  0  0  0  0  0  0
   27.7112  -19.2587  -13.4602 C   0  0  0  0  0  0  0  0  0  0  0  0
   28.4844  -18.9760  -14.5515 C   0  0  0  0  0  0  0  0  0  0  0  0
   27.9341  -18.7191  -15.7677 C   0  0  0  0  0  0  0  0  0  0  0  0
   26.5721  -18.7414  -15.9145 C   0  0  0  0  0  0  0  0  0  0  0  0
   22.3264  -20.5152  -15.1106 C   0  0  0  0  0  0  0  0  0  0  0  0
   21.6300  -20.2063  -16.0999 O   0  0  0  0  0  0  0  0  0  0  0  0
   18.7706  -21.4477  -11.9250 O   0  0  0  0  0  0  0  0  0  0  0  0
   20.1305  -21.4476  -12.1993 C   0  0  0  0  0  0  0  0  0  0  0  0
   20.3808  -20.8948  -13.5767 C   0  0  2  0  0  0  0  0  0  0  0  0
   21.7687  -20.9214  -13.8836 N   0  0  0  0  0  0  0  0  0  0  0  0
   19.7306  -19.5564  -13.7678 C   0  0  0  0  0  0  0  0  0  0  0  0
   18.5430  -19.5134  -14.1235 O   0  0  0  0  0  0  0  0  0  0  0  0
   20.4444  -18.4009  -13.5510 O   0  0  0  0  0  0  0  0  0  0  0  0
  2  1  1  1
  2  3  1  0
  3  4  1  0
  4  8  1  0
  5  4  2  0
  6  2  1  0
  7  6  2  0
  9  6  1  0
 10 11  1  6
 10  9  1  0
 11 12  1  0
 12 13  2  0
 12 17  1  0
 13 14  1  0
 14 15  2  0
 16 15  1  0
 17 16  2  0
 18 10  1  0
 19 18  2  0
 20 21  1  0
 22 21  1  1
 22 23  1  0
 23 18  1  0
 24 22  1  0
 24 26  1  0
 25 24  2  0
M  END
$$$$
