DFS.pdb
     RDKit          3D

 26 26  0  0  1  0  0  0  0  0999 V2000
   21.0832   -4.7162  -20.9603 N   0  0  0  0  0  0  0  0  0  0  0  0
   20.9558   -4.1301  -19.6977 C   0  0  1  0  0  0  0  0  0  0  0  0
   19.7472   -3.2777  -19.4983 C   0  0  0  0  0  0  0  0  0  0  0  0
   19.7499   -2.0666  -20.3458 C   0  0  0  0  0  0  0  0  0  0  0  0
   18.7715   -1.7270  -21.0528 O   0  0  0  0  0  0  0  0  0  0  0  0
   20.9107   -5.2044  -18.6397 C   0  0  0  0  0  0  0  0  0  0  0  0
   20.4085   -6.3172  -18.9397 O   0  0  0  0  0  0  0  0  0  0  0  0
   20.8791   -1.2688  -20.3637 O   0  0  0  0  0  0  0  0  0  0  0  0
   21.4180   -4.9730  -17.3427 N   0  0  0  0  0  0  0  0  0  0  0  0
   21.3633   -5.9580  -16.3023 C   0  0  1  0  0  0  0  0  0  0  0  0
   22.6232   -6.0622  -15.4796 C   0  0  0  0  0  0  0  0  0  0  0  0
   22.5215   -7.1528  -14.4804 C   0  0  0  0  0  0  0  0  0  0  0  0
   22.9746   -8.3993  -14.7806 C   0  0  0  0  0  0  0  0  0  0  0  0
   22.8522   -9.3958  -13.8162 C   0  0  0  0  0  0  0  0  0  0  0  0
   22.2877   -9.1045  -12.6057 C   0  0  0  0  0  0  0  0  0  0  0  0
   21.8369   -7.8562  -12.3115 C   0  0  0  0  0  0  0  0  0  0  0  0
   21.9459   -6.8582  -13.2438 C   0  0  0  0  0  0  0  0  0  0  0  0
   20.1647   -5.7970  -15.4123 C   0  0  0  0  0  0  0  0  0  0  0  0
   20.1026   -4.7150  -14.7922 O   0  0  0  0  0  0  0  0  0  0  0  0
   16.7204   -5.5393  -16.0319 O   0  0  0  0  0  0  0  0  0  0  0  0
   16.7798   -6.7008  -15.2755 C   0  0  0  0  0  0  0  0  0  0  0  0
   18.0404   -6.7191  -14.4533 C   0  0  2  0  0  0  0  0  0  0  0  0
   19.1854   -6.8011  -15.2920 N   0  0  0  0  0  0  0  0  0  0  0  0
   17.9883   -7.7600  -13.3743 C   0  0  0  0  0  0  0  0  0  0  0  0
   18.7946   -8.7018  -13.4118 O   0  0  0  0  0  0  0  0  0  0  0  0
   17.0600   -7.6659  -12.3637 O   0  0  0  0  0  0  0  0  0  0  0  0
  2  1  1  6
  2  3  1  0
  3  4  1  0
  4  8  1  0
  5  4  2  0
  6  2  1  0
  7  6  2  0
  9  6  1  0
 10 11  1  1
 10  9  1  0
 11 12  1  0
 12 13  2  0
 12 17  1  0
 13 14  1  0
 14 15  2  0
 16 15  1  0
 17 16  2  0
 18 10  1  0
 19 18  2  0
 20 21  1  0
 22 21  1  6
 22 23  1  0
 23 18  1  0
 24 22  1  0
 24 26  1  0
 25 24  2  0
M  END
$$$$
