DFS.pdb
     RDKit          3D

 26 26  0  0  1  0  0  0  0  0999 V2000
   19.6838  -13.0504  -18.7317 N   0  0  0  0  0  0  0  0  0  0  0  0
   20.2951  -11.8335  -19.0468 C   0  0  1  0  0  0  0  0  0  0  0  0
   19.7358  -11.1148  -20.2291 C   0  0  0  0  0  0  0  0  0  0  0  0
   19.8585  -11.8865  -21.4838 C   0  0  0  0  0  0  0  0  0  0  0  0
   18.8728  -12.3880  -22.0749 O   0  0  0  0  0  0  0  0  0  0  0  0
   20.1889  -10.8913  -17.8736 C   0  0  0  0  0  0  0  0  0  0  0  0
   19.1304  -10.8993  -17.1954 O   0  0  0  0  0  0  0  0  0  0  0  0
   21.1138  -12.0667  -22.0348 O   0  0  0  0  0  0  0  0  0  0  0  0
   21.2478  -10.0193  -17.5398 N   0  0  0  0  0  0  0  0  0  0  0  0
   21.1892   -9.1214  -16.4235 C   0  0  1  0  0  0  0  0  0  0  0  0
   22.4944   -8.9649  -15.6840 C   0  0  0  0  0  0  0  0  0  0  0  0
   22.3571   -8.0204  -14.5494 C   0  0  0  0  0  0  0  0  0  0  0  0
   21.9805   -8.4742  -13.3240 C   0  0  0  0  0  0  0  0  0  0  0  0
   21.8557   -7.5520  -12.2886 C   0  0  0  0  0  0  0  0  0  0  0  0
   22.1110   -6.2295  -12.5220 C   0  0  0  0  0  0  0  0  0  0  0  0
   22.4874   -5.7820  -13.7493 C   0  0  0  0  0  0  0  0  0  0  0  0
   22.6171   -6.6698  -14.7847 C   0  0  0  0  0  0  0  0  0  0  0  0
   20.6254   -7.7781  -16.7874 C   0  0  0  0  0  0  0  0  0  0  0  0
   21.1834   -7.2082  -17.7481 O   0  0  0  0  0  0  0  0  0  0  0  0
   17.5230   -6.7883  -18.0260 O   0  0  0  0  0  0  0  0  0  0  0  0
   17.5620   -6.0680  -16.8409 C   0  0  0  0  0  0  0  0  0  0  0  0
   18.9831   -5.9325  -16.3641 C   0  0  2  0  0  0  0  0  0  0  0  0
   19.5439   -7.2095  -16.0884 N   0  0  0  0  0  0  0  0  0  0  0  0
   19.1030   -4.9483  -15.2383 C   0  0  0  0  0  0  0  0  0  0  0  0
   18.8082   -5.3135  -14.0902 O   0  0  0  0  0  0  0  0  0  0  0  0
   19.5329   -3.6646  -15.4818 O   0  0  0  0  0  0  0  0  0  0  0  0
  2  1  1  1
  2  3  1  0
  3  4  1  0
  4  8  1  0
  5  4  2  0
  6  2  1  0
  7  6  2  0
  9  6  1  0
 10 11  1  6
 10  9  1  0
 11 12  1  0
 12 13  2  0
 12 17  1  0
 13 14  1  0
 14 15  2  0
 16 15  1  0
 17 16  2  0
 18 10  1  0
 19 18  2  0
 20 21  1  0
 22 21  1  1
 22 23  1  0
 23 18  1  0
 24 22  1  0
 24 26  1  0
 25 24  2  0
M  END
$$$$
