DFS.pdb
     RDKit          3D

 26 26  0  0  1  0  0  0  0  0999 V2000
   27.5559  -20.3247  -16.9250 N   0  0  0  0  0  0  0  0  0  0  0  0
   27.3747  -21.6799  -16.6343 C   0  0  1  0  0  0  0  0  0  0  0  0
   28.6154  -22.5090  -16.6122 C   0  0  0  0  0  0  0  0  0  0  0  0
   29.3854  -22.4277  -17.8712 C   0  0  0  0  0  0  0  0  0  0  0  0
   29.5506  -21.3561  -18.5014 O   0  0  0  0  0  0  0  0  0  0  0  0
   26.7273  -21.8281  -15.2799 C   0  0  0  0  0  0  0  0  0  0  0  0
   26.4908  -22.9874  -14.8549 O   0  0  0  0  0  0  0  0  0  0  0  0
   29.9512  -23.5814  -18.3817 O   0  0  0  0  0  0  0  0  0  0  0  0
   26.3926  -20.6976  -14.5034 N   0  0  0  0  0  0  0  0  0  0  0  0
   25.6957  -20.7946  -13.2541 C   0  0  1  0  0  0  0  0  0  0  0  0
   26.2631  -19.9273  -12.1583 C   0  0  0  0  0  0  0  0  0  0  0  0
   27.5418  -20.4776  -11.6478 C   0  0  0  0  0  0  0  0  0  0  0  0
   28.6475  -20.4840  -12.4394 C   0  0  0  0  0  0  0  0  0  0  0  0
   29.8253  -21.0176  -11.9232 C   0  0  0  0  0  0  0  0  0  0  0  0
   29.8450  -21.5161  -10.6504 C   0  0  0  0  0  0  0  0  0  0  0  0
   28.7362  -21.5065   -9.8640 C   0  0  0  0  0  0  0  0  0  0  0  0
   27.5649  -20.9870  -10.3490 C   0  0  0  0  0  0  0  0  0  0  0  0
   24.2181  -20.5677  -13.3939 C   0  0  0  0  0  0  0  0  0  0  0  0
   23.8909  -19.6570  -14.1831 O   0  0  0  0  0  0  0  0  0  0  0  0
   20.1419  -19.5276  -12.8064 O   0  0  0  0  0  0  0  0  0  0  0  0
   21.5194  -19.6920  -12.8240 C   0  0  0  0  0  0  0  0  0  0  0  0
   21.8671  -21.1547  -12.7530 C   0  0  2  0  0  0  0  0  0  0  0  0
   23.2757  -21.3328  -12.6810 N   0  0  0  0  0  0  0  0  0  0  0  0
   21.1992  -21.9409  -13.8422 C   0  0  0  0  0  0  0  0  0  0  0  0
   21.8510  -22.2306  -14.8570 O   0  0  0  0  0  0  0  0  0  0  0  0
   19.8866  -22.3305  -13.7117 O   0  0  0  0  0  0  0  0  0  0  0  0
  2  1  1  1
  2  3  1  0
  3  4  1  0
  4  8  1  0
  5  4  2  0
  6  2  1  0
  7  6  2  0
  9  6  1  0
 10 11  1  1
 10  9  1  0
 11 12  1  0
 12 13  2  0
 12 17  1  0
 13 14  1  0
 14 15  2  0
 16 15  1  0
 17 16  2  0
 18 10  1  0
 19 18  2  0
 20 21  1  0
 22 21  1  6
 22 23  1  0
 23 18  1  0
 24 22  1  0
 24 26  1  0
 25 24  2  0
M  END
$$$$
