DFS.pdb
     RDKit          3D

 26 26  0  0  1  0  0  0  0  0999 V2000
   28.1848  -22.5649  -16.9926 N   0  0  0  0  0  0  0  0  0  0  0  0
   27.4750  -21.4007  -16.6850 C   0  0  1  0  0  0  0  0  0  0  0  0
   26.5587  -20.9001  -17.7513 C   0  0  0  0  0  0  0  0  0  0  0  0
   27.2791  -20.3312  -18.9099 C   0  0  0  0  0  0  0  0  0  0  0  0
   28.2863  -19.5935  -18.7913 O   0  0  0  0  0  0  0  0  0  0  0  0
   26.6302  -21.6288  -15.4563 C   0  0  0  0  0  0  0  0  0  0  0  0
   26.2204  -22.7939  -15.2214 O   0  0  0  0  0  0  0  0  0  0  0  0
   26.8268  -20.6221  -20.1837 O   0  0  0  0  0  0  0  0  0  0  0  0
   26.3040  -20.5652  -14.5873 N   0  0  0  0  0  0  0  0  0  0  0  0
   25.5314  -20.7492  -13.3936 C   0  0  1  0  0  0  0  0  0  0  0  0
   26.0261  -19.9610  -12.2066 C   0  0  0  0  0  0  0  0  0  0  0  0
   27.3441  -20.4591  -11.7449 C   0  0  0  0  0  0  0  0  0  0  0  0
   27.4397  -21.1697  -10.5894 C   0  0  0  0  0  0  0  0  0  0  0  0
   28.6976  -21.6114  -10.1885 C   0  0  0  0  0  0  0  0  0  0  0  0
   29.7938  -21.3259  -10.9538 C   0  0  0  0  0  0  0  0  0  0  0  0
   29.6917  -20.6152  -12.1081 C   0  0  0  0  0  0  0  0  0  0  0  0
   28.4648  -20.1693  -12.5240 C   0  0  0  0  0  0  0  0  0  0  0  0
   24.0644  -20.5125  -13.6088 C   0  0  0  0  0  0  0  0  0  0  0  0
   23.7667  -19.3879  -14.0625 O   0  0  0  0  0  0  0  0  0  0  0  0
   21.6771  -23.4013  -14.7151 O   0  0  0  0  0  0  0  0  0  0  0  0
   21.0460  -22.6902  -13.7048 C   0  0  0  0  0  0  0  0  0  0  0  0
   21.7022  -21.3470  -13.5296 C   0  0  2  0  0  0  0  0  0  0  0  0
   23.0999  -21.4954  -13.3164 N   0  0  0  0  0  0  0  0  0  0  0  0
   21.0036  -20.5150  -12.4951 C   0  0  0  0  0  0  0  0  0  0  0  0
   21.6466  -20.1205  -11.5105 O   0  0  0  0  0  0  0  0  0  0  0  0
   19.6732  -20.1985  -12.6419 O   0  0  0  0  0  0  0  0  0  0  0  0
  2  1  1  6
  2  3  1  0
  3  4  1  0
  4  8  1  0
  5  4  2  0
  6  2  1  0
  7  6  2  0
  9  6  1  0
 10 11  1  1
 10  9  1  0
 11 12  1  0
 12 13  2  0
 12 17  1  0
 13 14  1  0
 14 15  2  0
 16 15  1  0
 17 16  2  0
 18 10  1  0
 19 18  2  0
 20 21  1  0
 22 21  1  1
 22 23  1  0
 23 18  1  0
 24 22  1  0
 24 26  1  0
 25 24  2  0
M  END
$$$$
