KEC.pdb
     RDKit          3D

 25 24  0  0  1  0  0  0  0  0999 V2000
   16.0527  -12.7598  -13.9094 N   0  0  0  0  0  0  0  0  0  0  0  0
   15.9972  -11.3739  -14.2349 C   0  0  1  0  0  0  0  0  0  0  0  0
   14.6352  -10.8814  -14.6597 C   0  0  0  0  0  0  0  0  0  0  0  0
   14.0994  -11.5898  -15.8611 C   0  0  0  0  0  0  0  0  0  0  0  0
   12.8402  -12.3240  -15.4739 C   0  0  0  0  0  0  0  0  0  0  0  0
   12.1628  -13.0132  -16.6277 C   0  0  0  0  0  0  0  0  0  0  0  0
   10.8743  -13.5744  -16.2231 N   0  0  0  0  0  0  0  0  0  0  0  0
   16.5374  -10.5523  -13.1286 C   0  0  0  0  0  0  0  0  0  0  0  0
   16.3740  -10.9172  -11.9261 O   0  0  0  0  0  0  0  0  0  0  0  0
   17.2303   -9.3665  -13.4445 N   0  0  0  0  0  0  0  0  0  0  0  0
   17.8831   -8.6088  -12.3562 C   0  0  1  0  0  0  0  0  0  0  0  0
   19.0772   -7.9796  -12.9727 C   0  0  0  0  0  0  0  0  0  0  0  0
   19.8421   -7.0417  -12.1006 C   0  0  0  0  0  0  0  0  0  0  0  0
   20.9522   -6.4139  -12.8420 C   0  0  0  0  0  0  0  0  0  0  0  0
   21.0480   -5.1423  -12.9334 O   0  0  0  0  0  0  0  0  0  0  0  0
   16.8738   -7.7862  -11.7147 C   0  0  0  0  0  0  0  0  0  0  0  0
   16.0341   -7.1620  -12.4141 O   0  0  0  0  0  0  0  0  0  0  0  0
   21.8956   -7.2262  -13.4416 O   0  0  0  0  0  0  0  0  0  0  0  0
   16.8003   -7.6598  -10.3075 N   0  0  0  0  0  0  0  0  0  0  0  0
   15.7238   -6.8777   -9.7380 C   0  0  1  0  0  0  0  0  0  0  0  0
   15.4987   -7.4160   -8.3235 C   0  0  0  0  0  0  0  0  0  0  0  0
   14.1500   -6.5388   -7.4942 S   0  0  0  0  0  0  0  0  0  0  0  0
   16.0262   -5.4375   -9.7195 C   0  0  0  0  0  0  0  0  0  0  0  0
   15.0792   -4.6175   -9.7730 O   0  0  0  0  0  0  0  0  0  0  0  0
   17.3386   -5.0080   -9.6443 O   0  0  0  0  0  0  0  0  0  0  0  0
  2  8  1  0
  2  1  1  1
  3  2  1  0
  4  5  1  0
  4  3  1  0
  6  7  1  0
  6  5  1  0
  8  9  2  0
 10 11  1  0
 10  8  1  0
 11 12  1  6
 12 13  1  0
 13 14  1  0
 14 18  1  0
 14 15  2  0
 16 17  2  0
 16 11  1  0
 19 16  1  0
 20 23  1  0
 20 19  1  0
 20 21  1  1
 22 21  1  0
 23 25  1  0
 24 23  2  0
M  END
$$$$
