KEC.pdb
     RDKit          3D

 25 24  0  0  1  0  0  0  0  0999 V2000
   21.4015  -22.6376  -15.8519 N   0  0  0  0  0  0  0  0  0  0  0  0
   21.5192  -23.4914  -14.7174 C   0  0  1  0  0  0  0  0  0  0  0  0
   22.8753  -23.4746  -14.0552 C   0  0  0  0  0  0  0  0  0  0  0  0
   23.9683  -23.9879  -14.9350 C   0  0  0  0  0  0  0  0  0  0  0  0
   25.0089  -22.9090  -15.1012 C   0  0  0  0  0  0  0  0  0  0  0  0
   26.1320  -23.2893  -16.0281 C   0  0  0  0  0  0  0  0  0  0  0  0
   27.0607  -22.1751  -16.2152 N   0  0  0  0  0  0  0  0  0  0  0  0
   20.4462  -23.2129  -13.7367 C   0  0  0  0  0  0  0  0  0  0  0  0
   20.0502  -22.0242  -13.5466 O   0  0  0  0  0  0  0  0  0  0  0  0
   19.8829  -24.2927  -13.0276 N   0  0  0  0  0  0  0  0  0  0  0  0
   18.7939  -24.0250  -12.0648 C   0  0  1  0  0  0  0  0  0  0  0  0
   17.5451  -24.0363  -12.8662 C   0  0  0  0  0  0  0  0  0  0  0  0
   16.2735  -23.9476  -12.0913 C   0  0  0  0  0  0  0  0  0  0  0  0
   15.8602  -22.5433  -11.9090 C   0  0  0  0  0  0  0  0  0  0  0  0
   16.1678  -21.6487  -12.7689 O   0  0  0  0  0  0  0  0  0  0  0  0
   18.9512  -24.9356  -10.9455 C   0  0  0  0  0  0  0  0  0  0  0  0
   19.2459  -26.1414  -11.1529 O   0  0  0  0  0  0  0  0  0  0  0  0
   15.1294  -22.2051  -10.7861 O   0  0  0  0  0  0  0  0  0  0  0  0
   18.7816  -24.5075   -9.6078 N   0  0  0  0  0  0  0  0  0  0  0  0
   18.9120  -25.4835   -8.5469 C   0  0  1  0  0  0  0  0  0  0  0  0
   18.6936  -24.7282   -7.2342 C   0  0  0  0  0  0  0  0  0  0  0  0
   17.0558  -23.9594   -7.1839 S   0  0  0  0  0  0  0  0  0  0  0  0
   17.9585  -26.5956   -8.6880 C   0  0  0  0  0  0  0  0  0  0  0  0
   16.9026  -26.4113   -9.3385 O   0  0  0  0  0  0  0  0  0  0  0  0
   18.2343  -27.8201   -8.1073 O   0  0  0  0  0  0  0  0  0  0  0  0
  2  8  1  0
  2  1  1  6
  3  2  1  0
  4  5  1  0
  4  3  1  0
  6  7  1  0
  6  5  1  0
  8  9  2  0
 10 11  1  0
 10  8  1  0
 11 12  1  6
 12 13  1  0
 13 14  1  0
 14 18  1  0
 14 15  2  0
 16 17  2  0
 16 11  1  0
 19 16  1  0
 20 23  1  0
 20 19  1  0
 20 21  1  1
 22 21  1  0
 23 25  1  0
 24 23  2  0
M  END
$$$$
