KEC.pdb
     RDKit          3D

 25 24  0  0  1  0  0  0  0  0999 V2000
   18.1628  -12.4431  -16.4207 N   0  0  0  0  0  0  0  0  0  0  0  0
   17.5844  -11.1415  -16.3871 C   0  0  1  0  0  0  0  0  0  0  0  0
   16.6821  -10.8842  -15.2050 C   0  0  0  0  0  0  0  0  0  0  0  0
   15.3908  -11.6326  -15.2740 C   0  0  0  0  0  0  0  0  0  0  0  0
   15.4520  -12.8011  -14.3225 C   0  0  0  0  0  0  0  0  0  0  0  0
   14.1499  -13.5448  -14.1931 C   0  0  0  0  0  0  0  0  0  0  0  0
   14.3078  -14.7440  -13.3710 N   0  0  0  0  0  0  0  0  0  0  0  0
   18.6298  -10.0991  -16.4936 C   0  0  0  0  0  0  0  0  0  0  0  0
   19.8051  -10.3317  -16.0807 O   0  0  0  0  0  0  0  0  0  0  0  0
   18.2873   -8.8549  -17.0597 N   0  0  0  0  0  0  0  0  0  0  0  0
   19.3324   -7.8182  -17.1925 C   0  0  1  0  0  0  0  0  0  0  0  0
   18.8751   -6.9335  -18.2926 C   0  0  0  0  0  0  0  0  0  0  0  0
   19.7477   -5.7609  -18.5904 C   0  0  0  0  0  0  0  0  0  0  0  0
   19.2332   -4.9955  -19.7416 C   0  0  0  0  0  0  0  0  0  0  0  0
   19.8912   -4.9284  -20.8358 O   0  0  0  0  0  0  0  0  0  0  0  0
   19.5898   -7.2694  -15.8736 C   0  0  0  0  0  0  0  0  0  0  0  0
   18.6488   -7.1553  -15.0458 O   0  0  0  0  0  0  0  0  0  0  0  0
   18.0195   -4.3463  -19.6204 O   0  0  0  0  0  0  0  0  0  0  0  0
   20.8829   -6.8515  -15.4804 N   0  0  0  0  0  0  0  0  0  0  0  0
   21.0307   -6.1470  -14.2247 C   0  0  1  0  0  0  0  0  0  0  0  0
   21.5731   -7.1642  -13.2185 C   0  0  0  0  0  0  0  0  0  0  0  0
   22.0311   -6.3659  -11.6600 S   0  0  0  0  0  0  0  0  0  0  0  0
   21.9211   -4.9807  -14.3377 C   0  0  0  0  0  0  0  0  0  0  0  0
   22.7470   -4.9363  -15.2800 O   0  0  0  0  0  0  0  0  0  0  0  0
   21.8386   -3.9562  -13.4124 O   0  0  0  0  0  0  0  0  0  0  0  0
  2  8  1  0
  2  1  1  1
  3  2  1  0
  4  5  1  0
  4  3  1  0
  6  7  1  0
  6  5  1  0
  8  9  2  0
 10 11  1  0
 10  8  1  0
 11 12  1  6
 12 13  1  0
 13 14  1  0
 14 18  1  0
 14 15  2  0
 16 17  2  0
 16 11  1  0
 19 16  1  0
 20 23  1  0
 20 19  1  0
 20 21  1  1
 22 21  1  0
 23 25  1  0
 24 23  2  0
M  END
$$$$
