KEC.pdb
     RDKit          3D

 25 24  0  0  1  0  0  0  0  0999 V2000
   28.5574  -18.8648  -18.1720 N   0  0  0  0  0  0  0  0  0  0  0  0
   27.7939  -19.9328  -17.6185 C   0  0  1  0  0  0  0  0  0  0  0  0
   28.6085  -21.1198  -17.1655 C   0  0  0  0  0  0  0  0  0  0  0  0
   28.3382  -22.3579  -17.9568 C   0  0  0  0  0  0  0  0  0  0  0  0
   27.9377  -23.4635  -17.0124 C   0  0  0  0  0  0  0  0  0  0  0  0
   27.8075  -24.8082  -17.6757 C   0  0  0  0  0  0  0  0  0  0  0  0
   27.4372  -25.8396  -16.7072 N   0  0  0  0  0  0  0  0  0  0  0  0
   26.9183  -19.4435  -16.5301 C   0  0  0  0  0  0  0  0  0  0  0  0
   27.3285  -18.5422  -15.7394 O   0  0  0  0  0  0  0  0  0  0  0  0
   25.6307  -20.0007  -16.3976 N   0  0  0  0  0  0  0  0  0  0  0  0
   24.7257  -19.4693  -15.3568 C   0  0  1  0  0  0  0  0  0  0  0  0
   23.5409  -18.9549  -16.0872 C   0  0  0  0  0  0  0  0  0  0  0  0
   22.3812  -18.5479  -15.2419 C   0  0  0  0  0  0  0  0  0  0  0  0
   21.1962  -18.2579  -16.0711 C   0  0  0  0  0  0  0  0  0  0  0  0
   20.1816  -19.0358  -16.0658 O   0  0  0  0  0  0  0  0  0  0  0  0
   24.5678  -20.4896  -14.3364 C   0  0  0  0  0  0  0  0  0  0  0  0
   24.1971  -21.6484  -14.6584 O   0  0  0  0  0  0  0  0  0  0  0  0
   21.1976  -17.1239  -16.8606 O   0  0  0  0  0  0  0  0  0  0  0  0
   24.8202  -20.2219  -12.9704 N   0  0  0  0  0  0  0  0  0  0  0  0
   24.3021  -21.1393  -11.9780 C   0  0  1  0  0  0  0  0  0  0  0  0
   24.8852  -20.6981  -10.6339 C   0  0  0  0  0  0  0  0  0  0  0  0
   26.3575  -21.6615  -10.2092 S   0  0  0  0  0  0  0  0  0  0  0  0
   22.8309  -21.1545  -11.9425 C   0  0  0  0  0  0  0  0  0  0  0  0
   22.2321  -22.2505  -12.0532 O   0  0  0  0  0  0  0  0  0  0  0  0
   22.1311  -19.9715  -11.7893 O   0  0  0  0  0  0  0  0  0  0  0  0
  2  8  1  0
  2  1  1  1
  3  2  1  0
  4  5  1  0
  4  3  1  0
  6  7  1  0
  6  5  1  0
  8  9  2  0
 10 11  1  0
 10  8  1  0
 11 12  1  6
 12 13  1  0
 13 14  1  0
 14 18  1  0
 14 15  2  0
 16 17  2  0
 16 11  1  0
 19 16  1  0
 20 23  1  0
 20 19  1  0
 20 21  1  1
 22 21  1  0
 23 25  1  0
 24 23  2  0
M  END
$$$$
