KEC.pdb
     RDKit          3D

 25 24  0  0  1  0  0  0  0  0999 V2000
   21.8374  -21.1937  -12.3995 N   0  0  0  0  0  0  0  0  0  0  0  0
   21.4889  -20.8716  -13.7429 C   0  0  1  0  0  0  0  0  0  0  0  0
   20.0128  -20.9530  -14.0468 C   0  0  0  0  0  0  0  0  0  0  0  0
   19.4624  -22.3375  -13.9349 C   0  0  0  0  0  0  0  0  0  0  0  0
   18.0290  -22.3326  -14.4036 C   0  0  0  0  0  0  0  0  0  0  0  0
   17.3268  -23.6506  -14.2166 C   0  0  0  0  0  0  0  0  0  0  0  0
   15.9588  -23.5962  -14.7309 N   0  0  0  0  0  0  0  0  0  0  0  0
   22.0377  -19.5515  -14.1259 C   0  0  0  0  0  0  0  0  0  0  0  0
   22.0737  -18.6075  -13.2811 O   0  0  0  0  0  0  0  0  0  0  0  0
   22.5134  -19.3738  -15.4405 N   0  0  0  0  0  0  0  0  0  0  0  0
   23.1543  -18.0918  -15.8014 C   0  0  1  0  0  0  0  0  0  0  0  0
   24.1221  -18.4218  -16.8767 C   0  0  0  0  0  0  0  0  0  0  0  0
   24.8509  -17.2653  -17.4740 C   0  0  0  0  0  0  0  0  0  0  0  0
   26.3098  -17.4217  -17.3217 C   0  0  0  0  0  0  0  0  0  0  0  0
   27.0594  -16.4138  -17.0836 O   0  0  0  0  0  0  0  0  0  0  0  0
   22.1052  -17.1169  -16.0375 C   0  0  0  0  0  0  0  0  0  0  0  0
   21.0514  -17.4597  -16.6340 O   0  0  0  0  0  0  0  0  0  0  0  0
   26.8600  -18.6835  -17.4409 O   0  0  0  0  0  0  0  0  0  0  0  0
   22.2285  -15.7728  -15.6134 N   0  0  0  0  0  0  0  0  0  0  0  0
   21.1668  -14.8443  -15.9383 C   0  0  1  0  0  0  0  0  0  0  0  0
   21.3038  -13.6719  -14.9647 C   0  0  0  0  0  0  0  0  0  0  0  0
   19.9754  -12.4650  -15.1994 S   0  0  0  0  0  0  0  0  0  0  0  0
   21.2294  -14.3879  -17.3360 C   0  0  0  0  0  0  0  0  0  0  0  0
   20.1594  -14.2025  -17.9627 O   0  0  0  0  0  0  0  0  0  0  0  0
   22.4556  -14.1707  -17.9377 O   0  0  0  0  0  0  0  0  0  0  0  0
  2  8  1  0
  2  1  1  1
  3  2  1  0
  4  5  1  0
  4  3  1  0
  6  7  1  0
  6  5  1  0
  8  9  2  0
 10 11  1  0
 10  8  1  0
 11 12  1  6
 12 13  1  0
 13 14  1  0
 14 18  1  0
 14 15  2  0
 16 17  2  0
 16 11  1  0
 19 16  1  0
 20 23  1  0
 20 19  1  0
 20 21  1  1
 22 21  1  0
 23 25  1  0
 24 23  2  0
M  END
$$$$
