KEC.pdb
     RDKit          3D

 25 24  0  0  1  0  0  0  0  0999 V2000
   16.5213  -12.5971  -13.9494 N   0  0  0  0  0  0  0  0  0  0  0  0
   16.0294  -11.2602  -13.9222 C   0  0  1  0  0  0  0  0  0  0  0  0
   14.5278  -11.1441  -13.8243 C   0  0  0  0  0  0  0  0  0  0  0  0
   13.8124  -11.7329  -14.9964 C   0  0  0  0  0  0  0  0  0  0  0  0
   12.3292  -11.5267  -14.8173 C   0  0  0  0  0  0  0  0  0  0  0  0
   11.5049  -12.0264  -15.9732 C   0  0  0  0  0  0  0  0  0  0  0  0
   10.1038  -11.6324  -15.8302 N   0  0  0  0  0  0  0  0  0  0  0  0
   16.6929  -10.4779  -12.8553 C   0  0  0  0  0  0  0  0  0  0  0  0
   16.8926  -10.9962  -11.7163 O   0  0  0  0  0  0  0  0  0  0  0  0
   17.0920   -9.1559  -13.1364 N   0  0  0  0  0  0  0  0  0  0  0  0
   17.7491   -8.3665  -12.0736 C   0  0  1  0  0  0  0  0  0  0  0  0
   18.8973   -7.6950  -12.7314 C   0  0  0  0  0  0  0  0  0  0  0  0
   19.5988   -6.6595  -11.9185 C   0  0  0  0  0  0  0  0  0  0  0  0
   20.7380   -6.0855  -12.6592 C   0  0  0  0  0  0  0  0  0  0  0  0
   21.6748   -6.8305  -13.1086 O   0  0  0  0  0  0  0  0  0  0  0  0
   16.7294   -7.5798  -11.4039 C   0  0  0  0  0  0  0  0  0  0  0  0
   15.8626   -6.9677  -12.0806 O   0  0  0  0  0  0  0  0  0  0  0  0
   20.7792   -4.7194  -12.8626 O   0  0  0  0  0  0  0  0  0  0  0  0
   16.6756   -7.4756   -9.9941 N   0  0  0  0  0  0  0  0  0  0  0  0
   15.7036   -6.5810   -9.4027 C   0  0  1  0  0  0  0  0  0  0  0  0
   15.4888   -7.0630   -7.9665 C   0  0  0  0  0  0  0  0  0  0  0  0
   14.2408   -6.0635   -7.1182 S   0  0  0  0  0  0  0  0  0  0  0  0
   16.1422   -5.1765   -9.4346 C   0  0  0  0  0  0  0  0  0  0  0  0
   17.3628   -4.9186   -9.3102 O   0  0  0  0  0  0  0  0  0  0  0  0
   15.2125   -4.1660   -9.5996 O   0  0  0  0  0  0  0  0  0  0  0  0
  2  8  1  0
  2  1  1  1
  3  2  1  0
  4  5  1  0
  4  3  1  0
  6  7  1  0
  6  5  1  0
  8  9  2  0
 10 11  1  0
 10  8  1  0
 11 12  1  6
 12 13  1  0
 13 14  1  0
 14 18  1  0
 14 15  2  0
 16 17  2  0
 16 11  1  0
 19 16  1  0
 20 23  1  0
 20 19  1  0
 20 21  1  1
 22 21  1  0
 23 25  1  0
 24 23  2  0
M  END
$$$$
