KEC.pdb
     RDKit          3D

 25 24  0  0  1  0  0  0  0  0999 V2000
   20.0536  -13.8510  -18.3160 N   0  0  0  0  0  0  0  0  0  0  0  0
   21.0696  -12.8545  -18.2469 C   0  0  1  0  0  0  0  0  0  0  0  0
   22.0122  -12.8341  -19.4254 C   0  0  0  0  0  0  0  0  0  0  0  0
   23.3920  -13.2957  -19.0859 C   0  0  0  0  0  0  0  0  0  0  0  0
   23.3651  -14.7855  -18.8529 C   0  0  0  0  0  0  0  0  0  0  0  0
   24.7220  -15.3814  -18.5905 C   0  0  0  0  0  0  0  0  0  0  0  0
   24.6087  -16.7580  -18.1097 N   0  0  0  0  0  0  0  0  0  0  0  0
   20.4789  -11.5171  -18.0165 C   0  0  0  0  0  0  0  0  0  0  0  0
   19.9635  -10.8743  -18.9794 O   0  0  0  0  0  0  0  0  0  0  0  0
   20.5047  -10.9833  -16.7125 N   0  0  0  0  0  0  0  0  0  0  0  0
   19.9236   -9.6449  -16.4766 C   0  0  1  0  0  0  0  0  0  0  0  0
   18.6029   -9.8919  -15.8468 C   0  0  0  0  0  0  0  0  0  0  0  0
   17.8822   -8.6838  -15.3506 C   0  0  0  0  0  0  0  0  0  0  0  0
   16.5674   -9.0445  -14.7872 C   0  0  0  0  0  0  0  0  0  0  0  0
   16.3770   -9.0718  -13.5232 O   0  0  0  0  0  0  0  0  0  0  0  0
   20.9185   -8.8382  -15.7936 C   0  0  0  0  0  0  0  0  0  0  0  0
   21.6070   -9.3405  -14.8676 O   0  0  0  0  0  0  0  0  0  0  0  0
   15.5354   -9.3552  -15.6518 O   0  0  0  0  0  0  0  0  0  0  0  0
   21.1444   -7.4849  -16.1385 N   0  0  0  0  0  0  0  0  0  0  0  0
   22.0887   -6.7188  -15.3535 C   0  0  1  0  0  0  0  0  0  0  0  0
   22.8719   -5.8526  -16.3422 C   0  0  0  0  0  0  0  0  0  0  0  0
   23.8575   -4.6020  -15.4817 S   0  0  0  0  0  0  0  0  0  0  0  0
   21.4277   -5.8948  -14.3288 C   0  0  0  0  0  0  0  0  0  0  0  0
   21.9856   -5.7468  -13.2158 O   0  0  0  0  0  0  0  0  0  0  0  0
   20.2100   -5.2985  -14.6015 O   0  0  0  0  0  0  0  0  0  0  0  0
  2  8  1  0
  2  1  1  6
  3  2  1  0
  4  5  1  0
  4  3  1  0
  6  7  1  0
  6  5  1  0
  8  9  2  0
 10 11  1  0
 10  8  1  0
 11 12  1  1
 12 13  1  0
 13 14  1  0
 14 18  1  0
 14 15  2  0
 16 17  2  0
 16 11  1  0
 19 16  1  0
 20 23  1  0
 20 19  1  0
 20 21  1  6
 22 21  1  0
 23 25  1  0
 24 23  2  0
M  END
$$$$
