KEC.pdb
     RDKit          3D

 25 24  0  0  1  0  0  0  0  0999 V2000
   17.6576  -14.6093  -18.1037 N   0  0  0  0  0  0  0  0  0  0  0  0
   17.4584  -13.5687  -17.1511 C   0  0  1  0  0  0  0  0  0  0  0  0
   17.4126  -14.0306  -15.7150 C   0  0  0  0  0  0  0  0  0  0  0  0
   16.5431  -15.2277  -15.5072 C   0  0  0  0  0  0  0  0  0  0  0  0
   17.3488  -16.3038  -14.8237 C   0  0  0  0  0  0  0  0  0  0  0  0
   16.5447  -17.5233  -14.4609 C   0  0  0  0  0  0  0  0  0  0  0  0
   17.3193  -18.4335  -13.6181 N   0  0  0  0  0  0  0  0  0  0  0  0
   18.4591  -12.4932  -17.3311 C   0  0  0  0  0  0  0  0  0  0  0  0
   19.5838  -12.7511  -17.8549 O   0  0  0  0  0  0  0  0  0  0  0  0
   18.1318  -11.1891  -16.9088 N   0  0  0  0  0  0  0  0  0  0  0  0
   19.0630  -10.0834  -17.2168 C   0  0  1  0  0  0  0  0  0  0  0  0
   18.2441   -9.0566  -17.9074 C   0  0  0  0  0  0  0  0  0  0  0  0
   18.9383   -7.7748  -18.2236 C   0  0  0  0  0  0  0  0  0  0  0  0
   18.0301   -6.8338  -18.9061 C   0  0  0  0  0  0  0  0  0  0  0  0
   17.3525   -7.1957  -19.9281 O   0  0  0  0  0  0  0  0  0  0  0  0
   19.7793   -9.7482  -15.9996 C   0  0  0  0  0  0  0  0  0  0  0  0
   19.1559   -9.6478  -14.9109 O   0  0  0  0  0  0  0  0  0  0  0  0
   17.9206   -5.5445  -18.4214 O   0  0  0  0  0  0  0  0  0  0  0  0
   21.1766   -9.5269  -15.9948 N   0  0  0  0  0  0  0  0  0  0  0  0
   21.8048   -9.0947  -14.7645 C   0  0  1  0  0  0  0  0  0  0  0  0
   23.3043   -9.3496  -14.9310 C   0  0  0  0  0  0  0  0  0  0  0  0
   23.6841  -11.1169  -14.8373 S   0  0  0  0  0  0  0  0  0  0  0  0
   21.5339   -7.6797  -14.4638 C   0  0  0  0  0  0  0  0  0  0  0  0
   21.4153   -6.8691  -15.4131 O   0  0  0  0  0  0  0  0  0  0  0  0
   21.4143   -7.2630  -13.1505 O   0  0  0  0  0  0  0  0  0  0  0  0
  2  8  1  0
  2  1  1  6
  3  2  1  0
  4  5  1  0
  4  3  1  0
  6  7  1  0
  6  5  1  0
  8  9  2  0
 10 11  1  0
 10  8  1  0
 11 12  1  1
 12 13  1  0
 13 14  1  0
 14 18  1  0
 14 15  2  0
 16 17  2  0
 16 11  1  0
 19 16  1  0
 20 23  1  0
 20 19  1  0
 20 21  1  6
 22 21  1  0
 23 25  1  0
 24 23  2  0
M  END
$$$$
