KEC.pdb
     RDKit          3D

 25 24  0  0  1  0  0  0  0  0999 V2000
   13.3055   -9.6495   -9.5760 N   0  0  0  0  0  0  0  0  0  0  0  0
   14.7161   -9.4775   -9.4728 C   0  0  1  0  0  0  0  0  0  0  0  0
   15.5320  -10.5980  -10.0699 C   0  0  0  0  0  0  0  0  0  0  0  0
   15.2007  -10.8721  -11.5007 C   0  0  0  0  0  0  0  0  0  0  0  0
   15.9200  -12.1236  -11.9375 C   0  0  0  0  0  0  0  0  0  0  0  0
   15.7298  -12.4538  -13.3936 C   0  0  0  0  0  0  0  0  0  0  0  0
   16.3003  -13.7613  -13.7160 N   0  0  0  0  0  0  0  0  0  0  0  0
   15.1275   -8.1680  -10.0265 C   0  0  0  0  0  0  0  0  0  0  0  0
   14.6292   -7.7520  -11.1149 O   0  0  0  0  0  0  0  0  0  0  0  0
   16.0779   -7.4046   -9.3194 N   0  0  0  0  0  0  0  0  0  0  0  0
   16.5309   -6.1193   -9.8915 C   0  0  1  0  0  0  0  0  0  0  0  0
   16.0277   -5.0745   -8.9659 C   0  0  0  0  0  0  0  0  0  0  0  0
   16.4005   -3.6704   -9.3045 C   0  0  0  0  0  0  0  0  0  0  0  0
   15.7359   -2.7123   -8.4010 C   0  0  0  0  0  0  0  0  0  0  0  0
   14.9100   -3.1106   -7.5100 O   0  0  0  0  0  0  0  0  0  0  0  0
   17.9519   -6.2273  -10.1672 C   0  0  0  0  0  0  0  0  0  0  0  0
   18.7501   -6.5312   -9.2429 O   0  0  0  0  0  0  0  0  0  0  0  0
   16.0205   -1.3665   -8.5319 O   0  0  0  0  0  0  0  0  0  0  0  0
   18.4791   -5.9988  -11.4600 N   0  0  0  0  0  0  0  0  0  0  0  0
   19.9148   -6.0389  -11.6391 C   0  0  1  0  0  0  0  0  0  0  0  0
   20.2508   -7.4485  -12.1305 C   0  0  0  0  0  0  0  0  0  0  0  0
   21.9827   -7.5698  -12.6425 S   0  0  0  0  0  0  0  0  0  0  0  0
   20.3906   -5.0163  -12.5845 C   0  0  0  0  0  0  0  0  0  0  0  0
   19.5874   -4.5449  -13.4241 O   0  0  0  0  0  0  0  0  0  0  0  0
   21.7055   -4.5903  -12.5377 O   0  0  0  0  0  0  0  0  0  0  0  0
  2  8  1  0
  2  1  1  6
  3  2  1  0
  4  5  1  0
  4  3  1  0
  6  7  1  0
  6  5  1  0
  8  9  2  0
 10 11  1  0
 10  8  1  0
 11 12  1  1
 12 13  1  0
 13 14  1  0
 14 18  1  0
 14 15  2  0
 16 17  2  0
 16 11  1  0
 19 16  1  0
 20 23  1  0
 20 19  1  0
 20 21  1  6
 22 21  1  0
 23 25  1  0
 24 23  2  0
M  END
$$$$
