KEC.pdb
     RDKit          3D

 25 24  0  0  1  0  0  0  0  0999 V2000
   24.5507  -24.5802  -15.0931 N   0  0  0  0  0  0  0  0  0  0  0  0
   25.1574  -23.6190  -15.9522 C   0  0  1  0  0  0  0  0  0  0  0  0
   25.4253  -24.1087  -17.3544 C   0  0  0  0  0  0  0  0  0  0  0  0
   25.7410  -25.5676  -17.4201 C   0  0  0  0  0  0  0  0  0  0  0  0
   27.0949  -25.8028  -16.7989 C   0  0  0  0  0  0  0  0  0  0  0  0
   27.6067  -27.2069  -16.9772 C   0  0  0  0  0  0  0  0  0  0  0  0
   28.9549  -27.3498  -16.4286 N   0  0  0  0  0  0  0  0  0  0  0  0
   24.3760  -22.3622  -15.9691 C   0  0  0  0  0  0  0  0  0  0  0  0
   24.3786  -21.6247  -16.9997 O   0  0  0  0  0  0  0  0  0  0  0  0
   23.6374  -22.0110  -14.8215 N   0  0  0  0  0  0  0  0  0  0  0  0
   22.8581  -20.7551  -14.8298 C   0  0  1  0  0  0  0  0  0  0  0  0
   21.7449  -20.9734  -13.8732 C   0  0  0  0  0  0  0  0  0  0  0  0
   20.5658  -21.7164  -14.4050 C   0  0  0  0  0  0  0  0  0  0  0  0
   19.5316  -21.8836  -13.3665 C   0  0  0  0  0  0  0  0  0  0  0  0
   18.5922  -21.0275  -13.2279 O   0  0  0  0  0  0  0  0  0  0  0  0
   23.7821  -19.6527  -14.6351 C   0  0  0  0  0  0  0  0  0  0  0  0
   24.4417  -19.5668  -13.5668 O   0  0  0  0  0  0  0  0  0  0  0  0
   19.5924  -22.9879  -12.5383 O   0  0  0  0  0  0  0  0  0  0  0  0
   23.9697  -18.6555  -15.6209 N   0  0  0  0  0  0  0  0  0  0  0  0
   24.8570  -17.5503  -15.3274 C   0  0  1  0  0  0  0  0  0  0  0  0
   26.2639  -18.1416  -15.2175 C   0  0  0  0  0  0  0  0  0  0  0  0
   27.5031  -16.8459  -14.9693 S   0  0  0  0  0  0  0  0  0  0  0  0
   24.7991  -16.4971  -16.3537 C   0  0  0  0  0  0  0  0  0  0  0  0
   24.4803  -16.8083  -17.5257 O   0  0  0  0  0  0  0  0  0  0  0  0
   25.0943  -15.1883  -16.0182 O   0  0  0  0  0  0  0  0  0  0  0  0
  2  8  1  0
  2  1  1  1
  3  2  1  0
  4  5  1  0
  4  3  1  0
  6  7  1  0
  6  5  1  0
  8  9  2  0
 10 11  1  0
 10  8  1  0
 11 12  1  1
 12 13  1  0
 13 14  1  0
 14 18  1  0
 14 15  2  0
 16 17  2  0
 16 11  1  0
 19 16  1  0
 20 23  1  0
 20 19  1  0
 20 21  1  6
 22 21  1  0
 23 25  1  0
 24 23  2  0
M  END
$$$$
