KEC.pdb
     RDKit          3D

 25 24  0  0  1  0  0  0  0  0999 V2000
   27.5718  -21.6550  -14.6799 N   0  0  0  0  0  0  0  0  0  0  0  0
   26.7540  -20.6036  -14.1743 C   0  0  1  0  0  0  0  0  0  0  0  0
   27.4020  -19.2407  -14.1874 C   0  0  0  0  0  0  0  0  0  0  0  0
   28.4241  -19.0625  -13.1123 C   0  0  0  0  0  0  0  0  0  0  0  0
   29.2194  -20.3369  -12.9784 C   0  0  0  0  0  0  0  0  0  0  0  0
   30.2758  -20.2812  -11.9078 C   0  0  0  0  0  0  0  0  0  0  0  0
   30.9727  -21.5614  -11.7884 N   0  0  0  0  0  0  0  0  0  0  0  0
   25.4461  -20.5762  -14.8667 C   0  0  0  0  0  0  0  0  0  0  0  0
   25.3816  -20.7886  -16.1143 O   0  0  0  0  0  0  0  0  0  0  0  0
   24.2873  -20.3102  -14.1101 N   0  0  0  0  0  0  0  0  0  0  0  0
   22.9716  -20.3432  -14.7826 C   0  0  1  0  0  0  0  0  0  0  0  0
   21.9886  -20.6520  -13.7148 C   0  0  0  0  0  0  0  0  0  0  0  0
   20.5595  -20.7005  -14.1397 C   0  0  0  0  0  0  0  0  0  0  0  0
   19.6890  -21.1232  -13.0263 C   0  0  0  0  0  0  0  0  0  0  0  0
   19.7386  -22.3152  -12.5668 O   0  0  0  0  0  0  0  0  0  0  0  0
   22.8389  -19.1298  -15.5681 C   0  0  0  0  0  0  0  0  0  0  0  0
   23.2574  -18.0352  -15.1092 O   0  0  0  0  0  0  0  0  0  0  0  0
   18.8116  -20.2050  -12.4819 O   0  0  0  0  0  0  0  0  0  0  0  0
   22.2457  -19.1353  -16.8525 N   0  0  0  0  0  0  0  0  0  0  0  0
   22.0729  -17.8737  -17.5406 C   0  0  1  0  0  0  0  0  0  0  0  0
   22.8728  -17.9763  -18.8409 C   0  0  0  0  0  0  0  0  0  0  0  0
   22.6135  -16.5227  -19.8876 S   0  0  0  0  0  0  0  0  0  0  0  0
   20.6578  -17.5695  -17.8067 C   0  0  0  0  0  0  0  0  0  0  0  0
   19.8365  -18.5143  -17.8771 O   0  0  0  0  0  0  0  0  0  0  0  0
   20.2527  -16.2579  -17.9749 O   0  0  0  0  0  0  0  0  0  0  0  0
  2  8  1  0
  2  1  1  6
  3  2  1  0
  4  5  1  0
  4  3  1  0
  6  7  1  0
  6  5  1  0
  8  9  2  0
 10 11  1  0
 10  8  1  0
 11 12  1  1
 12 13  1  0
 13 14  1  0
 14 18  1  0
 14 15  2  0
 16 17  2  0
 16 11  1  0
 19 16  1  0
 20 23  1  0
 20 19  1  0
 20 21  1  6
 22 21  1  0
 23 25  1  0
 24 23  2  0
M  END
$$$$
