GDE.pdb
     RDKit          3D

 22 21  0  0  1  0  0  0  0  0999 V2000
    8.0057  -19.4232   19.7878 N   0  0  0  0  0  0  0  0  0  0  0  0
    7.3294  -20.6978   19.8597 C   0  0  0  0  0  0  0  0  0  0  0  0
    7.0092  -21.0655   21.2589 C   0  0  0  0  0  0  0  0  0  0  0  0
    7.2008  -20.2508   22.1684 O   0  0  0  0  0  0  0  0  0  0  0  0
    6.4885  -22.3376   21.5531 N   0  0  0  0  0  0  0  0  0  0  0  0
    6.1546  -22.7961   22.8860 C   0  0  1  0  0  0  0  0  0  0  0  0
    5.1195  -23.8872   22.8718 C   0  0  0  0  0  0  0  0  0  0  0  0
    3.8272  -23.4997   22.3255 C   0  0  0  0  0  0  0  0  0  0  0  0
    3.1780  -22.5790   22.9298 O   0  0  0  0  0  0  0  0  0  0  0  0
    7.3901  -23.1727   23.6129 C   0  0  0  0  0  0  0  0  0  0  0  0
    8.3607  -23.6558   22.9799 O   0  0  0  0  0  0  0  0  0  0  0  0
    3.2187  -24.0305   21.2053 O   0  0  0  0  0  0  0  0  0  0  0  0
    7.5474  -23.0175   25.0127 N   0  0  0  0  0  0  0  0  0  0  0  0
    8.8591  -23.2045   25.6822 C   0  0  1  0  0  0  0  0  0  0  0  0
    9.6469  -22.0069   25.3076 C   0  0  0  0  0  0  0  0  0  0  0  0
   11.0520  -22.1615   24.8727 C   0  0  0  0  0  0  0  0  0  0  0  0
   11.7599  -20.9369   24.4963 C   0  0  0  0  0  0  0  0  0  0  0  0
   11.1875  -19.8278   24.5738 O   0  0  0  0  0  0  0  0  0  0  0  0
    8.7057  -23.5493   27.0762 C   0  0  0  0  0  0  0  0  0  0  0  0
    7.8063  -22.8578   27.8735 O   0  0  0  0  0  0  0  0  0  0  0  0
   13.0630  -20.9947   24.0575 O   0  0  0  0  0  0  0  0  0  0  0  0
    9.3497  -24.4630   27.6713 O   0  0  0  0  0  0  0  0  0  0  0  0
  2  1  1  0
  3  2  1  0
  4  3  2  0
  5  3  1  0
  6 10  1  0
  6  5  1  0
  6  7  1  6
  8  7  1  0
  9  8  2  0
 10 13  1  0
 11 10  2  0
 12  8  1  0
 13 14  1  0
 14 19  1  0
 14 15  1  1
 16 15  1  0
 16 17  1  0
 17 18  2  0
 19 22  2  0
 19 20  1  0
 21 17  1  0
M  END
$$$$
