GDE.pdb
     RDKit          3D

 22 21  0  0  1  0  0  0  0  0999 V2000
    1.2076  -20.5324   22.2305 N   0  0  0  0  0  0  0  0  0  0  0  0
    1.7798  -19.2066   22.2756 C   0  0  0  0  0  0  0  0  0  0  0  0
    3.2606  -19.2538   22.2982 C   0  0  0  0  0  0  0  0  0  0  0  0
    3.8384  -20.3139   22.5628 O   0  0  0  0  0  0  0  0  0  0  0  0
    4.0082  -18.0965   22.0197 N   0  0  0  0  0  0  0  0  0  0  0  0
    5.4556  -18.0382   22.0208 C   0  0  1  0  0  0  0  0  0  0  0  0
    5.9870  -17.0305   21.0389 C   0  0  0  0  0  0  0  0  0  0  0  0
    7.1415  -17.4725   20.2703 C   0  0  0  0  0  0  0  0  0  0  0  0
    7.7834  -18.4930   20.6953 O   0  0  0  0  0  0  0  0  0  0  0  0
    5.9498  -17.8249   23.4017 C   0  0  0  0  0  0  0  0  0  0  0  0
    5.1537  -17.4439   24.2946 O   0  0  0  0  0  0  0  0  0  0  0  0
    7.6240  -16.8962   19.1120 O   0  0  0  0  0  0  0  0  0  0  0  0
    7.2984  -18.0293   23.7859 N   0  0  0  0  0  0  0  0  0  0  0  0
    7.7251  -17.9943   25.2073 C   0  0  1  0  0  0  0  0  0  0  0  0
    6.8523  -18.9800   25.8866 C   0  0  0  0  0  0  0  0  0  0  0  0
    7.0010  -19.2105   27.3400 C   0  0  0  0  0  0  0  0  0  0  0  0
    7.5472  -20.5066   27.7453 C   0  0  0  0  0  0  0  0  0  0  0  0
    7.3146  -21.5300   27.0656 O   0  0  0  0  0  0  0  0  0  0  0  0
    9.1592  -18.1016   25.3398 C   0  0  0  0  0  0  0  0  0  0  0  0
    9.9025  -18.7733   24.3812 O   0  0  0  0  0  0  0  0  0  0  0  0
    8.3251  -20.6096   28.8759 O   0  0  0  0  0  0  0  0  0  0  0  0
    9.8358  -17.6233   26.2976 O   0  0  0  0  0  0  0  0  0  0  0  0
  2  1  1  0
  3  2  1  0
  4  3  2  0
  5  3  1  0
  6 10  1  0
  6  5  1  0
  6  7  1  6
  8  7  1  0
  9  8  2  0
 10 13  1  0
 11 10  2  0
 12  8  1  0
 13 14  1  0
 14 19  1  0
 14 15  1  1
 16 15  1  0
 16 17  1  0
 17 18  2  0
 19 22  2  0
 19 20  1  0
 21 17  1  0
M  END
$$$$
