GDE.pdb
     RDKit          3D

 22 21  0  0  1  0  0  0  0  0999 V2000
    7.3176  -12.9745   18.6226 N   0  0  0  0  0  0  0  0  0  0  0  0
    8.7363  -12.8743   18.3690 C   0  0  0  0  0  0  0  0  0  0  0  0
    9.4759  -14.0158   18.9568 C   0  0  0  0  0  0  0  0  0  0  0  0
    8.8741  -14.8539   19.6373 O   0  0  0  0  0  0  0  0  0  0  0  0
   10.8588  -14.1468   18.7420 N   0  0  0  0  0  0  0  0  0  0  0  0
   11.6563  -15.2630   19.2072 C   0  0  1  0  0  0  0  0  0  0  0  0
   12.9856  -15.3455   18.5083 C   0  0  0  0  0  0  0  0  0  0  0  0
   12.9275  -15.8212   17.1339 C   0  0  0  0  0  0  0  0  0  0  0  0
   12.0175  -16.6682   16.8357 O   0  0  0  0  0  0  0  0  0  0  0  0
   11.7750  -15.2161   20.6838 C   0  0  0  0  0  0  0  0  0  0  0  0
   12.3965  -14.2704   21.2275 O   0  0  0  0  0  0  0  0  0  0  0  0
   13.7653  -15.4481   16.1017 O   0  0  0  0  0  0  0  0  0  0  0  0
   11.2165  -16.1967   21.5410 N   0  0  0  0  0  0  0  0  0  0  0  0
   11.2575  -16.0645   23.0190 C   0  0  1  0  0  0  0  0  0  0  0  0
    9.8831  -15.6632   23.3993 C   0  0  0  0  0  0  0  0  0  0  0  0
    9.5582  -15.4205   24.8217 C   0  0  0  0  0  0  0  0  0  0  0  0
    8.1926  -14.9840   25.1166 C   0  0  0  0  0  0  0  0  0  0  0  0
    7.3190  -14.9962   24.2221 O   0  0  0  0  0  0  0  0  0  0  0  0
   11.8620  -17.2175   23.6443 C   0  0  0  0  0  0  0  0  0  0  0  0
   12.3966  -17.1223   24.9202 O   0  0  0  0  0  0  0  0  0  0  0  0
    7.8569  -14.5602   26.3822 O   0  0  0  0  0  0  0  0  0  0  0  0
   11.9614  -18.3618   23.1109 O   0  0  0  0  0  0  0  0  0  0  0  0
  2  1  1  0
  3  2  1  0
  4  3  2  0
  5  3  1  0
  6 10  1  0
  6  5  1  0
  6  7  1  6
  8  7  1  0
  9  8  2  0
 10 13  1  0
 11 10  2  0
 12  8  1  0
 13 14  1  0
 14 19  1  0
 14 15  1  1
 16 15  1  0
 16 17  1  0
 17 18  2  0
 19 22  2  0
 19 20  1  0
 21 17  1  0
M  END
$$$$
