GDE.pdb
     RDKit          3D

 22 21  0  0  1  0  0  0  0  0999 V2000
    0.4492  -20.2514   22.2783 N   0  0  0  0  0  0  0  0  0  0  0  0
    1.3671  -19.1369   22.2298 C   0  0  0  0  0  0  0  0  0  0  0  0
    2.7753  -19.5874   22.3274 C   0  0  0  0  0  0  0  0  0  0  0  0
    3.0293  -20.7334   22.7145 O   0  0  0  0  0  0  0  0  0  0  0  0
    3.8214  -18.7147   21.9808 N   0  0  0  0  0  0  0  0  0  0  0  0
    5.2282  -19.0482   22.0713 C   0  0  1  0  0  0  0  0  0  0  0  0
    6.0125  -18.5388   20.8933 C   0  0  0  0  0  0  0  0  0  0  0  0
    5.6497  -19.1292   19.6133 C   0  0  0  0  0  0  0  0  0  0  0  0
    5.7724  -20.3954   19.4863 O   0  0  0  0  0  0  0  0  0  0  0  0
    5.7702  -18.5944   23.3739 C   0  0  0  0  0  0  0  0  0  0  0  0
    5.4488  -17.4664   23.8217 O   0  0  0  0  0  0  0  0  0  0  0  0
    5.1795  -18.4549   18.5038 O   0  0  0  0  0  0  0  0  0  0  0  0
    6.6506  -19.3741   24.1647 N   0  0  0  0  0  0  0  0  0  0  0  0
    7.1524  -18.9030   25.4800 C   0  0  1  0  0  0  0  0  0  0  0  0
    7.1893  -20.1185   26.3261 C   0  0  0  0  0  0  0  0  0  0  0  0
    7.5276  -20.0017   27.7612 C   0  0  0  0  0  0  0  0  0  0  0  0
    7.7175  -21.2546   28.4937 C   0  0  0  0  0  0  0  0  0  0  0  0
    6.7292  -21.9173   28.8777 O   0  0  0  0  0  0  0  0  0  0  0  0
    8.3408  -18.0941   25.3424 C   0  0  0  0  0  0  0  0  0  0  0  0
    8.7776  -17.3066   26.3968 O   0  0  0  0  0  0  0  0  0  0  0  0
    8.9857  -21.7164   28.7628 O   0  0  0  0  0  0  0  0  0  0  0  0
    9.0540  -18.0265   24.2981 O   0  0  0  0  0  0  0  0  0  0  0  0
  2  1  1  0
  3  2  1  0
  4  3  2  0
  5  3  1  0
  6 10  1  0
  6  5  1  0
  6  7  1  6
  8  7  1  0
  9  8  2  0
 10 13  1  0
 11 10  2  0
 12  8  1  0
 13 14  1  0
 14 19  1  0
 14 15  1  1
 16 15  1  0
 16 17  1  0
 17 18  2  0
 19 22  2  0
 19 20  1  0
 21 17  1  0
M  END
$$$$
