QVA.pdb
     RDKit          3D

 22 21  0  0  1  0  0  0  0  0999 V2000
   22.7318  -13.0342  -21.1766 N   0  0  0  0  0  0  0  0  0  0  0  0
   22.6765  -14.0443  -20.1381 C   0  0  0  0  0  0  0  0  0  0  0  0
   23.0632  -15.1808  -20.4224 O   0  0  0  0  0  0  0  0  0  0  0  0
   22.1683  -13.6243  -18.8399 C   0  0  0  0  0  0  0  0  0  0  0  0
   21.6997  -12.2266  -18.7066 C   0  0  0  0  0  0  0  0  0  0  0  0
   22.4896  -11.3296  -17.8073 C   0  0  2  0  0  0  0  0  0  0  0  0
   23.0341  -12.0048  -16.6684 N   0  0  0  0  0  0  0  0  0  0  0  0
   21.6624  -10.1357  -17.4059 C   0  0  0  0  0  0  0  0  0  0  0  0
   21.0660   -9.4726  -18.3058 O   0  0  0  0  0  0  0  0  0  0  0  0
   18.6509  -10.1091  -15.5209 C   0  0  0  0  0  0  0  0  0  0  0  0
   19.5648   -9.1363  -14.8465 C   0  0  2  0  0  0  0  0  0  0  0  0
   18.7996   -8.0441  -14.1141 C   0  0  0  0  0  0  0  0  0  0  0  0
   20.6508   -8.5725  -15.7026 C   0  0  2  0  0  0  0  0  0  0  0  0
   21.5133   -9.7114  -16.0686 N   0  0  0  0  0  0  0  0  0  0  0  0
   21.4397   -7.4859  -15.1222 C   0  0  0  0  0  0  0  0  0  0  0  0
   22.1564   -7.7801  -14.1031 O   0  0  0  0  0  0  0  0  0  0  0  0
   22.4446   -3.8961  -15.6859 C   0  0  0  0  0  0  0  0  0  0  0  0
   22.3515   -5.1734  -14.8468 C   0  0  2  0  0  0  0  0  0  0  0  0
   21.5096   -6.1582  -15.5447 N   0  0  0  0  0  0  0  0  0  0  0  0
   21.7067   -4.7943  -13.5749 C   0  0  0  0  0  0  0  0  0  0  0  0
   22.4453   -4.3907  -12.4864 O   0  0  0  0  0  0  0  0  0  0  0  0
   20.4642   -4.8409  -13.4851 O   0  0  0  0  0  0  0  0  0  0  0  0
  2  3  2  0
  2  1  1  0
  4  2  1  0
  5  4  1  0
  6  5  1  0
  6  7  1  1
  8  6  1  0
  8 14  1  0
  9  8  2  0
 11 10  1  6
 11 13  1  0
 11 12  1  0
 13 14  1  1
 13 15  1  0
 15 19  1  0
 16 15  2  0
 18 20  1  0
 18 17  1  6
 19 18  1  0
 20 21  1  0
 22 20  2  0
M  END
$$$$
