QVA.pdb
     RDKit          3D

 22 21  0  0  1  0  0  0  0  0999 V2000
   25.2329  -12.6578  -16.0566 N   0  0  0  0  0  0  0  0  0  0  0  0
   24.4199  -13.8283  -16.3228 C   0  0  0  0  0  0  0  0  0  0  0  0
   24.9308  -14.9357  -16.1364 O   0  0  0  0  0  0  0  0  0  0  0  0
   23.0605  -13.5918  -16.7873 C   0  0  0  0  0  0  0  0  0  0  0  0
   22.6500  -12.1889  -17.0206 C   0  0  0  0  0  0  0  0  0  0  0  0
   21.2215  -11.9541  -17.3966 C   0  0  2  0  0  0  0  0  0  0  0  0
   20.8450  -12.5921  -18.6216 N   0  0  0  0  0  0  0  0  0  0  0  0
   20.9262  -10.4767  -17.4228 C   0  0  0  0  0  0  0  0  0  0  0  0
   21.1072   -9.8344  -18.4998 O   0  0  0  0  0  0  0  0  0  0  0  0
   17.6919   -8.9281  -16.9915 C   0  0  0  0  0  0  0  0  0  0  0  0
   18.6279   -8.2745  -16.0254 C   0  0  2  0  0  0  0  0  0  0  0  0
   18.1955   -6.8577  -15.6780 C   0  0  0  0  0  0  0  0  0  0  0  0
   20.0753   -8.3386  -16.3871 C   0  0  2  0  0  0  0  0  0  0  0  0
   20.4536   -9.7616  -16.3022 N   0  0  0  0  0  0  0  0  0  0  0  0
   20.9822   -7.5095  -15.5932 C   0  0  0  0  0  0  0  0  0  0  0  0
   21.1564   -7.8579  -14.3737 O   0  0  0  0  0  0  0  0  0  0  0  0
   23.3155   -4.5514  -15.8436 C   0  0  0  0  0  0  0  0  0  0  0  0
   22.5570   -5.6370  -15.0751 C   0  0  2  0  0  0  0  0  0  0  0  0
   21.6873   -6.3777  -16.0029 N   0  0  0  0  0  0  0  0  0  0  0  0
   21.7239   -4.9400  -14.0764 C   0  0  0  0  0  0  0  0  0  0  0  0
   22.1696   -4.7241  -12.7927 O   0  0  0  0  0  0  0  0  0  0  0  0
   20.5903   -4.5379  -14.4038 O   0  0  0  0  0  0  0  0  0  0  0  0
  2  3  2  0
  2  1  1  0
  4  2  1  0
  5  4  1  0
  6  5  1  0
  6  7  1  6
  8  6  1  0
  8 14  1  0
  9  8  2  0
 11 10  1  6
 11 13  1  0
 11 12  1  0
 13 14  1  1
 13 15  1  0
 15 19  1  0
 16 15  2  0
 18 20  1  0
 18 17  1  6
 19 18  1  0
 20 21  1  0
 22 20  2  0
M  END
$$$$
