QVA.pdb
     RDKit          3D

 22 21  0  0  1  0  0  0  0  0999 V2000
   14.4253  -11.1753  -15.7687 N   0  0  0  0  0  0  0  0  0  0  0  0
   14.6997  -11.5460  -17.1431 C   0  0  0  0  0  0  0  0  0  0  0  0
   13.7830  -12.0542  -17.7939 O   0  0  0  0  0  0  0  0  0  0  0  0
   16.0427  -11.2810  -17.6391 C   0  0  0  0  0  0  0  0  0  0  0  0
   16.9919  -10.6099  -16.7229 C   0  0  0  0  0  0  0  0  0  0  0  0
   18.2891  -11.3071  -16.4610 C   0  0  2  0  0  0  0  0  0  0  0  0
   18.1268  -12.6395  -15.9633 N   0  0  0  0  0  0  0  0  0  0  0  0
   19.1540  -10.4729  -15.5516 C   0  0  0  0  0  0  0  0  0  0  0  0
   18.8532  -10.3925  -14.3235 O   0  0  0  0  0  0  0  0  0  0  0  0
   22.5981  -11.1537  -14.8484 C   0  0  0  0  0  0  0  0  0  0  0  0
   22.5302   -9.7054  -15.2147 C   0  0  2  0  0  0  0  0  0  0  0  0
   23.6244   -8.8917  -14.5398 C   0  0  0  0  0  0  0  0  0  0  0  0
   21.1899   -9.0645  -15.0625 C   0  0  2  0  0  0  0  0  0  0  0  0
   20.2930   -9.7696  -15.9971 N   0  0  0  0  0  0  0  0  0  0  0  0
   21.1319   -7.6182  -15.2746 C   0  0  0  0  0  0  0  0  0  0  0  0
   21.4860   -7.1944  -16.4295 O   0  0  0  0  0  0  0  0  0  0  0  0
   19.8201   -4.4156  -13.8690 C   0  0  0  0  0  0  0  0  0  0  0  0
   20.8441   -5.2035  -14.6907 C   0  0  2  0  0  0  0  0  0  0  0  0
   20.7347   -6.6351  -14.3680 N   0  0  0  0  0  0  0  0  0  0  0  0
   22.1751   -4.7122  -14.2854 C   0  0  0  0  0  0  0  0  0  0  0  0
   22.8277   -3.7323  -14.9977 O   0  0  0  0  0  0  0  0  0  0  0  0
   22.7204   -5.1964  -13.2743 O   0  0  0  0  0  0  0  0  0  0  0  0
  2  3  2  0
  2  1  1  0
  4  2  1  0
  5  4  1  0
  6  5  1  0
  6  7  1  1
  8  6  1  0
  8 14  1  0
  9  8  2  0
 11 10  1  1
 11 13  1  0
 11 12  1  0
 13 14  1  6
 13 15  1  0
 15 19  1  0
 16 15  2  0
 18 20  1  0
 18 17  1  1
 19 18  1  0
 20 21  1  0
 22 20  2  0
M  END
$$$$
