QVA.pdb
     RDKit          3D

 22 21  0  0  1  0  0  0  0  0999 V2000
   27.4850  -15.0088  -16.7423 N   0  0  0  0  0  0  0  0  0  0  0  0
   27.0815  -13.6164  -16.7569 C   0  0  0  0  0  0  0  0  0  0  0  0
   27.6120  -12.8744  -17.5875 O   0  0  0  0  0  0  0  0  0  0  0  0
   26.0756  -13.2140  -15.7843 C   0  0  0  0  0  0  0  0  0  0  0  0
   25.1194  -12.1572  -16.1840 C   0  0  0  0  0  0  0  0  0  0  0  0
   23.6677  -12.4338  -15.9532 C   0  0  2  0  0  0  0  0  0  0  0  0
   23.1829  -13.5662  -16.6828 N   0  0  0  0  0  0  0  0  0  0  0  0
   22.8515  -11.1983  -16.2329 C   0  0  0  0  0  0  0  0  0  0  0  0
   22.6108  -10.8820  -17.4359 O   0  0  0  0  0  0  0  0  0  0  0  0
   19.4307  -10.7066  -15.6791 C   0  0  0  0  0  0  0  0  0  0  0  0
   20.1137   -9.5668  -14.9930 C   0  0  2  0  0  0  0  0  0  0  0  0
   19.2150   -8.3443  -14.8804 C   0  0  0  0  0  0  0  0  0  0  0  0
   21.4652   -9.2136  -15.5209 C   0  0  2  0  0  0  0  0  0  0  0  0
   22.3345  -10.3659  -15.2179 N   0  0  0  0  0  0  0  0  0  0  0  0
   22.0542   -7.9705  -15.0230 C   0  0  0  0  0  0  0  0  0  0  0  0
   22.4487   -7.9716  -13.8051 O   0  0  0  0  0  0  0  0  0  0  0  0
   23.0683   -4.4995  -16.1078 C   0  0  0  0  0  0  0  0  0  0  0  0
   22.8264   -5.5921  -15.0628 C   0  0  2  0  0  0  0  0  0  0  0  0
   22.2422   -6.7744  -15.7159 N   0  0  0  0  0  0  0  0  0  0  0  0
   21.8585   -5.0408  -14.0952 C   0  0  0  0  0  0  0  0  0  0  0  0
   22.2720   -4.4047  -12.9473 O   0  0  0  0  0  0  0  0  0  0  0  0
   20.6383   -5.1542  -14.3236 O   0  0  0  0  0  0  0  0  0  0  0  0
  2  3  2  0
  2  1  1  0
  4  2  1  0
  5  4  1  0
  6  5  1  0
  6  7  1  6
  8  6  1  0
  8 14  1  0
  9  8  2  0
 11 10  1  6
 11 13  1  0
 11 12  1  0
 13 14  1  1
 13 15  1  0
 15 19  1  0
 16 15  2  0
 18 20  1  0
 18 17  1  6
 19 18  1  0
 20 21  1  0
 22 20  2  0
M  END
$$$$
