QVA.pdb
     RDKit          3D

 22 21  0  0  1  0  0  0  0  0999 V2000
   17.7342  -10.5561  -22.3547 N   0  0  0  0  0  0  0  0  0  0  0  0
   18.7867  -11.3503  -21.7519 C   0  0  0  0  0  0  0  0  0  0  0  0
   18.5823  -12.5583  -21.6076 O   0  0  0  0  0  0  0  0  0  0  0  0
   20.0029  -10.6470  -21.3696 C   0  0  0  0  0  0  0  0  0  0  0  0
   20.1634  -10.2795  -19.9449 C   0  0  0  0  0  0  0  0  0  0  0  0
   20.8073  -11.2920  -19.0519 C   0  0  2  0  0  0  0  0  0  0  0  0
   20.0614  -12.5091  -18.9437 N   0  0  0  0  0  0  0  0  0  0  0  0
   21.0906  -10.6888  -17.7003 C   0  0  0  0  0  0  0  0  0  0  0  0
   20.2303  -10.8172  -16.7792 O   0  0  0  0  0  0  0  0  0  0  0  0
   23.9929  -11.5542  -15.6667 C   0  0  0  0  0  0  0  0  0  0  0  0
   23.9065  -10.0613  -15.6831 C   0  0  2  0  0  0  0  0  0  0  0  0
   24.4584   -9.4414  -14.4079 C   0  0  0  0  0  0  0  0  0  0  0  0
   22.5706   -9.4972  -16.0398 C   0  0  2  0  0  0  0  0  0  0  0  0
   22.2742   -9.9818  -17.4008 N   0  0  0  0  0  0  0  0  0  0  0  0
   22.4368   -8.0424  -15.9632 C   0  0  0  0  0  0  0  0  0  0  0  0
   23.1610   -7.3579  -16.7668 O   0  0  0  0  0  0  0  0  0  0  0  0
   20.1801   -5.3150  -14.9868 C   0  0  0  0  0  0  0  0  0  0  0  0
   21.6142   -5.8304  -15.1355 C   0  0  2  0  0  0  0  0  0  0  0  0
   21.6107   -7.3019  -15.1174 N   0  0  0  0  0  0  0  0  0  0  0  0
   22.3636   -5.3297  -13.9671 C   0  0  0  0  0  0  0  0  0  0  0  0
   22.8430   -4.0409  -13.9187 O   0  0  0  0  0  0  0  0  0  0  0  0
   22.5666   -6.0924  -13.0022 O   0  0  0  0  0  0  0  0  0  0  0  0
  2  3  2  0
  2  1  1  0
  4  2  1  0
  5  4  1  0
  6  5  1  0
  6  7  1  1
  8  6  1  0
  8 14  1  0
  9  8  2  0
 11 10  1  1
 11 13  1  0
 11 12  1  0
 13 14  1  6
 13 15  1  0
 15 19  1  0
 16 15  2  0
 18 20  1  0
 18 17  1  1
 19 18  1  0
 20 21  1  0
 22 20  2  0
M  END
$$$$
