QVA.pdb
     RDKit          3D

 22 21  0  0  1  0  0  0  0  0999 V2000
   33.9125  -36.4004   -3.0451 N   0  0  0  0  0  0  0  0  0  0  0  0
   35.0978  -36.5808   -3.8602 C   0  0  0  0  0  0  0  0  0  0  0  0
   36.1208  -36.9865   -3.3027 O   0  0  0  0  0  0  0  0  0  0  0  0
   34.9743  -36.2677   -5.2768 C   0  0  0  0  0  0  0  0  0  0  0  0
   33.6360  -35.8853   -5.7804 C   0  0  0  0  0  0  0  0  0  0  0  0
   32.8473  -36.9451   -6.4818 C   0  0  2  0  0  0  0  0  0  0  0  0
   33.4012  -37.3204   -7.7474 N   0  0  0  0  0  0  0  0  0  0  0  0
   31.4055  -36.5247   -6.6058 C   0  0  0  0  0  0  0  0  0  0  0  0
   31.0199  -35.9654   -7.6753 O   0  0  0  0  0  0  0  0  0  0  0  0
   28.3567  -38.3056   -4.2816 C   0  0  0  0  0  0  0  0  0  0  0  0
   28.2709  -37.6531   -5.6245 C   0  0  2  0  0  0  0  0  0  0  0  0
   28.5807  -38.6240   -6.7542 C   0  0  0  0  0  0  0  0  0  0  0  0
   29.0295  -36.3749   -5.7694 C   0  0  2  0  0  0  0  0  0  0  0  0
   30.4510  -36.7221   -5.5859 N   0  0  0  0  0  0  0  0  0  0  0  0
   28.6400  -35.2821   -4.8783 C   0  0  0  0  0  0  0  0  0  0  0  0
   29.3344  -35.1374   -3.8126 O   0  0  0  0  0  0  0  0  0  0  0  0
   26.1893  -32.4259   -4.5489 C   0  0  0  0  0  0  0  0  0  0  0  0
   27.3251  -33.3229   -4.0492 C   0  0  2  0  0  0  0  0  0  0  0  0
   27.5983  -34.3697   -5.0468 N   0  0  0  0  0  0  0  0  0  0  0  0
   26.8472  -33.9500   -2.8020 C   0  0  0  0  0  0  0  0  0  0  0  0
   26.8579  -33.2708   -1.6054 O   0  0  0  0  0  0  0  0  0  0  0  0
   26.4241  -35.1222   -2.8338 O   0  0  0  0  0  0  0  0  0  0  0  0
  2  3  2  0
  2  1  1  0
  4  2  1  0
  5  4  1  0
  6  5  1  0
  6  7  1  6
  8  6  1  0
  8 14  1  0
  9  8  2  0
 11 10  1  1
 11 13  1  0
 11 12  1  0
 13 14  1  1
 13 15  1  0
 15 19  1  0
 16 15  2  0
 18 20  1  0
 18 17  1  6
 19 18  1  0
 20 21  1  0
 22 20  2  0
M  END
$$$$
