QVA.pdb
     RDKit          3D

 22 21  0  0  1  0  0  0  0  0999 V2000
   23.1463  -16.5923  -16.1588 N   0  0  0  0  0  0  0  0  0  0  0  0
   24.1119  -16.7516  -17.2284 C   0  0  0  0  0  0  0  0  0  0  0  0
   24.3337  -15.7763  -17.9506 O   0  0  0  0  0  0  0  0  0  0  0  0
   24.7419  -18.0580  -17.3551 C   0  0  0  0  0  0  0  0  0  0  0  0
   24.3681  -19.0979  -16.3703 C   0  0  0  0  0  0  0  0  0  0  0  0
   25.4748  -19.6915  -15.5580 C   0  0  2  0  0  0  0  0  0  0  0  0
   26.5381  -20.2268  -16.3532 N   0  0  0  0  0  0  0  0  0  0  0  0
   24.9251  -20.7154  -14.5987 C   0  0  0  0  0  0  0  0  0  0  0  0
   24.8329  -21.9215  -14.9758 O   0  0  0  0  0  0  0  0  0  0  0  0
   24.3182  -20.1765  -10.2560 C   0  0  0  0  0  0  0  0  0  0  0  0
   24.5921  -21.3631  -11.1240 C   0  0  2  0  0  0  0  0  0  0  0  0
   26.0825  -21.5977  -11.3203 C   0  0  0  0  0  0  0  0  0  0  0  0
   23.8508  -21.3982  -12.4198 C   0  0  2  0  0  0  0  0  0  0  0  0
   24.5034  -20.4018  -13.2894 N   0  0  0  0  0  0  0  0  0  0  0  0
   22.4081  -21.1656  -12.3511 C   0  0  0  0  0  0  0  0  0  0  0  0
   22.0316  -19.9564  -12.1642 O   0  0  0  0  0  0  0  0  0  0  0  0
   19.1418  -22.6622  -13.2891 C   0  0  0  0  0  0  0  0  0  0  0  0
   19.9672  -21.7053  -12.4246 C   0  0  2  0  0  0  0  0  0  0  0  0
   21.3829  -22.1048  -12.4657 N   0  0  0  0  0  0  0  0  0  0  0  0
   19.4610  -21.8428  -11.0454 C   0  0  0  0  0  0  0  0  0  0  0  0
   18.2905  -21.2404  -10.6454 O   0  0  0  0  0  0  0  0  0  0  0  0
   20.1094  -22.5206  -10.2243 O   0  0  0  0  0  0  0  0  0  0  0  0
  2  3  2  0
  2  1  1  0
  4  2  1  0
  5  4  1  0
  6  5  1  0
  6  7  1  6
  8  6  1  0
  8 14  1  0
  9  8  2  0
 11 10  1  6
 11 13  1  0
 11 12  1  0
 13 14  1  6
 13 15  1  0
 15 19  1  0
 16 15  2  0
 18 20  1  0
 18 17  1  6
 19 18  1  0
 20 21  1  0
 22 20  2  0
M  END
$$$$
