QVA.pdb
     RDKit          3D

 22 21  0  0  1  0  0  0  0  0999 V2000
   16.7999   -8.8231  -19.9501 N   0  0  0  0  0  0  0  0  0  0  0  0
   16.3217  -10.1917  -19.9620 C   0  0  0  0  0  0  0  0  0  0  0  0
   15.4548  -10.4890  -20.7878 O   0  0  0  0  0  0  0  0  0  0  0  0
   16.9138  -11.1024  -18.9926 C   0  0  0  0  0  0  0  0  0  0  0  0
   18.0159  -10.5857  -18.1504 C   0  0  0  0  0  0  0  0  0  0  0  0
   18.6836  -11.5612  -17.2341 C   0  0  2  0  0  0  0  0  0  0  0  0
   17.7810  -12.5176  -16.6683 N   0  0  0  0  0  0  0  0  0  0  0  0
   19.4600  -10.8288  -16.1703 C   0  0  0  0  0  0  0  0  0  0  0  0
   18.9464  -10.6941  -15.0199 O   0  0  0  0  0  0  0  0  0  0  0  0
   22.7274  -11.7494  -14.8322 C   0  0  0  0  0  0  0  0  0  0  0  0
   22.8011  -10.3051  -15.2133 C   0  0  2  0  0  0  0  0  0  0  0  0
   23.7923   -9.5353  -14.3532 C   0  0  0  0  0  0  0  0  0  0  0  0
   21.4897   -9.5978  -15.3144 C   0  0  2  0  0  0  0  0  0  0  0  0
   20.7412  -10.2793  -16.3870 N   0  0  0  0  0  0  0  0  0  0  0  0
   21.5447   -8.1553  -15.5518 C   0  0  0  0  0  0  0  0  0  0  0  0
   22.0953   -7.7754  -16.6432 O   0  0  0  0  0  0  0  0  0  0  0  0
   19.9537   -4.9530  -14.8606 C   0  0  0  0  0  0  0  0  0  0  0  0
   21.2636   -5.7164  -15.0749 C   0  0  2  0  0  0  0  0  0  0  0  0
   21.0670   -7.1337  -14.7307 N   0  0  0  0  0  0  0  0  0  0  0  0
   22.2512   -5.1228  -14.1533 C   0  0  0  0  0  0  0  0  0  0  0  0
   22.9948   -4.0209  -14.5084 O   0  0  0  0  0  0  0  0  0  0  0  0
   22.4151   -5.6318  -13.0272 O   0  0  0  0  0  0  0  0  0  0  0  0
  2  3  2  0
  2  1  1  0
  4  2  1  0
  5  4  1  0
  6  5  1  0
  6  7  1  1
  8  6  1  0
  8 14  1  0
  9  8  2  0
 11 10  1  1
 11 13  1  0
 11 12  1  0
 13 14  1  6
 13 15  1  0
 15 19  1  0
 16 15  2  0
 18 20  1  0
 18 17  1  1
 19 18  1  0
 20 21  1  0
 22 20  2  0
M  END
$$$$
