QVA.pdb
     RDKit          3D

 22 21  0  0  1  0  0  0  0  0999 V2000
   28.9708   -9.5768  -17.3392 N   0  0  0  0  0  0  0  0  0  0  0  0
   29.5332  -10.8462  -16.9219 C   0  0  0  0  0  0  0  0  0  0  0  0
   30.7495  -11.0053  -17.0529 O   0  0  0  0  0  0  0  0  0  0  0  0
   28.6059  -11.8281  -16.3779 C   0  0  0  0  0  0  0  0  0  0  0  0
   27.1770  -11.4503  -16.2967 C   0  0  0  0  0  0  0  0  0  0  0  0
   26.1918  -12.5604  -16.1119 C   0  0  2  0  0  0  0  0  0  0  0  0
   26.5302  -13.7463  -16.8390 N   0  0  0  0  0  0  0  0  0  0  0  0
   24.8010  -12.0820  -16.4402 C   0  0  0  0  0  0  0  0  0  0  0  0
   24.3306  -12.3105  -17.5942 O   0  0  0  0  0  0  0  0  0  0  0  0
   21.7581  -13.2699  -15.6620 C   0  0  0  0  0  0  0  0  0  0  0  0
   21.6779  -11.8430  -15.2215 C   0  0  2  0  0  0  0  0  0  0  0  0
   20.2533  -11.3101  -15.2614 C   0  0  0  0  0  0  0  0  0  0  0  0
   22.6369  -10.9094  -15.8839 C   0  0  2  0  0  0  0  0  0  0  0  0
   23.9848  -11.3868  -15.5231 N   0  0  0  0  0  0  0  0  0  0  0  0
   22.4850   -9.4888  -15.5695 C   0  0  0  0  0  0  0  0  0  0  0  0
   22.5794   -9.1625  -14.3352 O   0  0  0  0  0  0  0  0  0  0  0  0
   22.0154   -6.1095  -17.1907 C   0  0  0  0  0  0  0  0  0  0  0  0
   22.1689   -7.0433  -15.9870 C   0  0  2  0  0  0  0  0  0  0  0  0
   22.2490   -8.4364  -16.4544 N   0  0  0  0  0  0  0  0  0  0  0  0
   20.9547   -6.8729  -15.1660 C   0  0  0  0  0  0  0  0  0  0  0  0
   19.8410   -7.6578  -15.3576 O   0  0  0  0  0  0  0  0  0  0  0  0
   20.9384   -5.9976  -14.2785 O   0  0  0  0  0  0  0  0  0  0  0  0
  2  3  2  0
  2  1  1  0
  4  2  1  0
  5  4  1  0
  6  5  1  0
  6  7  1  6
  8  6  1  0
  8 14  1  0
  9  8  2  0
 11 10  1  6
 11 13  1  0
 11 12  1  0
 13 14  1  1
 13 15  1  0
 15 19  1  0
 16 15  2  0
 18 20  1  0
 18 17  1  6
 19 18  1  0
 20 21  1  0
 22 20  2  0
M  END
$$$$
