QVA.pdb
     RDKit          3D

 22 21  0  0  1  0  0  0  0  0999 V2000
   23.9365  -15.7776  -16.4552 N   0  0  0  0  0  0  0  0  0  0  0  0
   22.6347  -15.9223  -17.0770 C   0  0  0  0  0  0  0  0  0  0  0  0
   22.2042  -14.9710  -17.7339 O   0  0  0  0  0  0  0  0  0  0  0  0
   21.9463  -17.1887  -16.8720 C   0  0  0  0  0  0  0  0  0  0  0  0
   22.6581  -18.2409  -16.1123 C   0  0  0  0  0  0  0  0  0  0  0  0
   23.8144  -18.9030  -16.7919 C   0  0  2  0  0  0  0  0  0  0  0  0
   23.4350  -19.6685  -17.9405 N   0  0  0  0  0  0  0  0  0  0  0  0
   24.5956  -19.7295  -15.8032 C   0  0  0  0  0  0  0  0  0  0  0  0
   24.2117  -20.9108  -15.5531 O   0  0  0  0  0  0  0  0  0  0  0  0
   28.4892  -20.0533  -15.5409 C   0  0  0  0  0  0  0  0  0  0  0  0
   27.8752  -19.7372  -14.2144 C   0  0  2  0  0  0  0  0  0  0  0  0
   28.6770  -20.3174  -13.0589 C   0  0  0  0  0  0  0  0  0  0  0  0
   26.4196  -20.0460  -14.0883 C   0  0  2  0  0  0  0  0  0  0  0  0
   25.7436  -19.2556  -15.1340 N   0  0  0  0  0  0  0  0  0  0  0  0
   25.8139  -19.8050  -12.7787 C   0  0  0  0  0  0  0  0  0  0  0  0
   25.8121  -18.5942  -12.3630 O   0  0  0  0  0  0  0  0  0  0  0  0
   23.3640  -21.0201  -10.3572 C   0  0  0  0  0  0  0  0  0  0  0  0
   24.7185  -20.3476  -10.5968 C   0  0  2  0  0  0  0  0  0  0  0  0
   25.2324  -20.7376  -11.9195 N   0  0  0  0  0  0  0  0  0  0  0  0
   25.6289  -20.8527   -9.5512 C   0  0  0  0  0  0  0  0  0  0  0  0
   26.6935  -21.6689   -9.8574 O   0  0  0  0  0  0  0  0  0  0  0  0
   25.4283  -20.5323   -8.3633 O   0  0  0  0  0  0  0  0  0  0  0  0
  2  3  2  0
  2  1  1  0
  4  2  1  0
  5  4  1  0
  6  5  1  0
  6  7  1  6
  8  6  1  0
  8 14  1  0
  9  8  2  0
 11 10  1  6
 11 13  1  0
 11 12  1  0
 13 14  1  6
 13 15  1  0
 15 19  1  0
 16 15  2  0
 18 20  1  0
 18 17  1  1
 19 18  1  0
 20 21  1  0
 22 20  2  0
M  END
$$$$
