QVA.pdb
     RDKit          3D

 22 21  0  0  1  0  0  0  0  0999 V2000
   27.6720  -20.6215  -12.0648 N   0  0  0  0  0  0  0  0  0  0  0  0
   26.5660  -21.2401  -11.3606 C   0  0  0  0  0  0  0  0  0  0  0  0
   26.5627  -21.1755  -10.1286 O   0  0  0  0  0  0  0  0  0  0  0  0
   25.5471  -21.8855  -12.1761 C   0  0  0  0  0  0  0  0  0  0  0  0
   25.2253  -21.2716  -13.4840 C   0  0  0  0  0  0  0  0  0  0  0  0
   24.4026  -20.0227  -13.4626 C   0  0  2  0  0  0  0  0  0  0  0  0
   23.0043  -20.2674  -13.2778 N   0  0  0  0  0  0  0  0  0  0  0  0
   24.6674  -19.2037  -14.6996 C   0  0  0  0  0  0  0  0  0  0  0  0
   23.7851  -19.1623  -15.6078 O   0  0  0  0  0  0  0  0  0  0  0  0
   25.4510  -15.5482  -14.7169 C   0  0  0  0  0  0  0  0  0  0  0  0
   26.4710  -16.2716  -15.5371 C   0  0  2  0  0  0  0  0  0  0  0  0
   27.0659  -15.3869  -16.6226 C   0  0  0  0  0  0  0  0  0  0  0  0
   26.0424  -17.5967  -16.0761 C   0  0  2  0  0  0  0  0  0  0  0  0
   25.8563  -18.4721  -14.9039 N   0  0  0  0  0  0  0  0  0  0  0  0
   26.9319  -18.2194  -17.0564 C   0  0  0  0  0  0  0  0  0  0  0  0
   28.0854  -18.5805  -16.6346 O   0  0  0  0  0  0  0  0  0  0  0  0
   27.0342  -19.6344  -20.5337 C   0  0  0  0  0  0  0  0  0  0  0  0
   27.7030  -19.0565  -19.2834 C   0  0  2  0  0  0  0  0  0  0  0  0
   26.6775  -18.4718  -18.4046 N   0  0  0  0  0  0  0  0  0  0  0  0
   28.6125  -17.9915  -19.7480 C   0  0  0  0  0  0  0  0  0  0  0  0
   29.9264  -18.2537  -20.0612 O   0  0  0  0  0  0  0  0  0  0  0  0
   28.1798  -16.8276  -19.8590 O   0  0  0  0  0  0  0  0  0  0  0  0
  2  3  2  0
  2  1  1  0
  4  2  1  0
  5  4  1  0
  6  5  1  0
  6  7  1  6
  8  6  1  0
  8 14  1  0
  9  8  2  0
 11 10  1  6
 11 13  1  0
 11 12  1  0
 13 14  1  1
 13 15  1  0
 15 19  1  0
 16 15  2  0
 18 20  1  0
 18 17  1  6
 19 18  1  0
 20 21  1  0
 22 20  2  0
M  END
$$$$
