MQA.pdb
     RDKit          3D

 23 22  0  0  1  0  0  0  0  0999 V2000
   11.4142   -9.5748   -8.6728 C   0  0  0  0  0  0  0  0  0  0  0  0
   11.5643  -11.3139   -9.1341 S   0  0  0  0  0  0  0  0  0  0  0  0
   13.1049  -11.5423  -10.0816 C   0  0  0  0  0  0  0  0  0  0  0  0
   14.1424  -10.5734   -9.5562 C   0  0  0  0  0  0  0  0  0  0  0  0
   15.4323  -10.7376  -10.3234 C   0  0  2  0  0  0  0  0  0  0  0  0
   16.0645  -12.0060  -10.0529 N   0  0  0  0  0  0  0  0  0  0  0  0
   16.4046   -9.6620  -10.0160 C   0  0  0  0  0  0  0  0  0  0  0  0
   17.1248   -9.7195   -8.9901 O   0  0  0  0  0  0  0  0  0  0  0  0
   20.4428   -7.5002  -13.5294 N   0  0  0  0  0  0  0  0  0  0  0  0
   20.6829   -6.6215  -12.4309 C   0  0  0  0  0  0  0  0  0  0  0  0
   21.7737   -5.9942  -12.4221 O   0  0  0  0  0  0  0  0  0  0  0  0
   19.6565   -6.4856  -11.3640 C   0  0  0  0  0  0  0  0  0  0  0  0
   18.6187   -7.5434  -11.6041 C   0  0  0  0  0  0  0  0  0  0  0  0
   17.4869   -7.4468  -10.5716 C   0  0  2  0  0  0  0  0  0  0  0  0
   16.5658   -8.5296  -10.8569 N   0  0  0  0  0  0  0  0  0  0  0  0
   16.8173   -6.1243  -10.6647 C   0  0  0  0  0  0  0  0  0  0  0  0
   16.1620   -5.8359  -11.7020 O   0  0  0  0  0  0  0  0  0  0  0  0
   16.2671   -3.2230   -8.3492 C   0  0  0  0  0  0  0  0  0  0  0  0
   16.3609   -3.9072   -9.7019 C   0  0  2  0  0  0  0  0  0  0  0  0
   16.9414   -5.2255   -9.5716 N   0  0  0  0  0  0  0  0  0  0  0  0
   17.1399   -3.0622  -10.6474 C   0  0  0  0  0  0  0  0  0  0  0  0
   18.2643   -3.4166  -11.0776 O   0  0  0  0  0  0  0  0  0  0  0  0
   16.6210   -1.8590  -11.0664 O   0  0  0  0  0  0  0  0  0  0  0  0
  1  2  1  0
  3  2  1  0
  4  3  1  0
  5  4  1  0
  5  7  1  0
  5  6  1  1
  7  8  2  0
  9 10  1  0
 10 11  2  0
 10 12  1  0
 12 13  1  0
 14 13  1  6
 15  7  1  0
 15 14  1  0
 16 14  1  0
 16 20  1  0
 17 16  2  0
 19 20  1  0
 19 18  1  1
 21 19  1  0
 21 23  1  0
 22 21  2  0
M  END
$$$$
