MQA.pdb
     RDKit          3D

 23 22  0  0  1  0  0  0  0  0999 V2000
   28.9694  -18.8875   -6.8553 C   0  0  0  0  0  0  0  0  0  0  0  0
   27.2588  -19.4651   -6.8601 S   0  0  0  0  0  0  0  0  0  0  0  0
   27.2008  -21.1318   -7.5964 C   0  0  0  0  0  0  0  0  0  0  0  0
   25.9152  -21.2667   -8.3839 C   0  0  0  0  0  0  0  0  0  0  0  0
   26.0182  -20.4851   -9.6715 C   0  0  2  0  0  0  0  0  0  0  0  0
   26.0226  -19.0609   -9.4405 N   0  0  0  0  0  0  0  0  0  0  0  0
   24.9096  -20.7982  -10.6042 C   0  0  0  0  0  0  0  0  0  0  0  0
   24.7284  -21.9687  -11.0185 O   0  0  0  0  0  0  0  0  0  0  0  0
   19.7634  -21.0765  -12.1207 N   0  0  0  0  0  0  0  0  0  0  0  0
   20.1436  -21.0064  -10.7470 C   0  0  0  0  0  0  0  0  0  0  0  0
   19.5592  -21.7821   -9.9467 O   0  0  0  0  0  0  0  0  0  0  0  0
   21.1923  -20.0405  -10.3259 C   0  0  0  0  0  0  0  0  0  0  0  0
   21.7068  -19.3694  -11.5662 C   0  0  0  0  0  0  0  0  0  0  0  0
   22.9893  -20.0486  -12.0663 C   0  0  2  0  0  0  0  0  0  0  0  0
   24.0110  -19.8016  -11.0676 N   0  0  0  0  0  0  0  0  0  0  0  0
   23.3791  -19.5000  -13.3904 C   0  0  0  0  0  0  0  0  0  0  0  0
   24.0052  -18.4075  -13.4459 O   0  0  0  0  0  0  0  0  0  0  0  0
   23.6217  -20.8924  -16.8299 C   0  0  0  0  0  0  0  0  0  0  0  0
   23.5028  -19.7517  -15.8342 C   0  0  2  0  0  0  0  0  0  0  0  0
   23.0288  -20.2334  -14.5555 N   0  0  0  0  0  0  0  0  0  0  0  0
   22.6121  -18.6909  -16.3786 C   0  0  0  0  0  0  0  0  0  0  0  0
   21.4396  -18.5336  -15.9598 O   0  0  0  0  0  0  0  0  0  0  0  0
   23.0785  -17.8560  -17.3674 O   0  0  0  0  0  0  0  0  0  0  0  0
  1  2  1  0
  3  2  1  0
  4  3  1  0
  5  4  1  0
  5  7  1  0
  5  6  1  1
  7  8  2  0
  9 10  1  0
 10 11  2  0
 10 12  1  0
 12 13  1  0
 14 13  1  1
 15  7  1  0
 15 14  1  0
 16 14  1  0
 16 20  1  0
 17 16  2  0
 19 20  1  0
 19 18  1  6
 21 19  1  0
 21 23  1  0
 22 21  2  0
M  END
$$$$
