MQA.pdb
     RDKit          3D

 23 22  0  0  1  0  0  0  0  0999 V2000
   24.8545  -20.9094   -8.2523 C   0  0  0  0  0  0  0  0  0  0  0  0
   25.9633  -19.7257   -9.0457 S   0  0  0  0  0  0  0  0  0  0  0  0
   26.8870  -20.5766  -10.3672 C   0  0  0  0  0  0  0  0  0  0  0  0
   26.2660  -20.2149  -11.6994 C   0  0  0  0  0  0  0  0  0  0  0  0
   25.2605  -21.2678  -12.0990 C   0  0  2  0  0  0  0  0  0  0  0  0
   25.8972  -22.4990  -12.4996 N   0  0  0  0  0  0  0  0  0  0  0  0
   24.3906  -20.8148  -13.2103 C   0  0  0  0  0  0  0  0  0  0  0  0
   24.6620  -21.1070  -14.4001 O   0  0  0  0  0  0  0  0  0  0  0  0
   18.7889  -18.3428  -12.2534 N   0  0  0  0  0  0  0  0  0  0  0  0
   18.8508  -18.1814  -13.6699 C   0  0  0  0  0  0  0  0  0  0  0  0
   17.8342  -17.7085  -14.2413 O   0  0  0  0  0  0  0  0  0  0  0  0
   20.0875  -18.5700  -14.3978 C   0  0  0  0  0  0  0  0  0  0  0  0
   21.0822  -19.0343  -13.3739 C   0  0  0  0  0  0  0  0  0  0  0  0
   22.3456  -19.5882  -14.0473 C   0  0  2  0  0  0  0  0  0  0  0  0
   23.2235  -20.0386  -12.9849 N   0  0  0  0  0  0  0  0  0  0  0  0
   22.9894  -18.5373  -14.8762 C   0  0  0  0  0  0  0  0  0  0  0  0
   23.3148  -17.4430  -14.3421 O   0  0  0  0  0  0  0  0  0  0  0  0
   24.7922  -18.3595  -18.0624 C   0  0  0  0  0  0  0  0  0  0  0  0
   23.8142  -17.7681  -17.0623 C   0  0  2  0  0  0  0  0  0  0  0  0
   23.2167  -18.8068  -16.2523 N   0  0  0  0  0  0  0  0  0  0  0  0
   22.7780  -16.9708  -17.7732 C   0  0  0  0  0  0  0  0  0  0  0  0
   22.8921  -15.7311  -17.9324 O   0  0  0  0  0  0  0  0  0  0  0  0
   21.6620  -17.6014  -18.2724 O   0  0  0  0  0  0  0  0  0  0  0  0
  1  2  1  0
  3  2  1  0
  4  3  1  0
  5  4  1  0
  5  7  1  0
  5  6  1  6
  7  8  2  0
  9 10  1  0
 10 11  2  0
 10 12  1  0
 12 13  1  0
 14 13  1  1
 15  7  1  0
 15 14  1  0
 16 14  1  0
 16 20  1  0
 17 16  2  0
 19 20  1  0
 19 18  1  6
 21 19  1  0
 21 23  1  0
 22 21  2  0
M  END
$$$$
