MQA.pdb
     RDKit          3D

 23 22  0  0  1  0  0  0  0  0999 V2000
   15.1865   -7.4046   -7.8447 C   0  0  0  0  0  0  0  0  0  0  0  0
   13.7470   -8.4565   -8.1296 S   0  0  0  0  0  0  0  0  0  0  0  0
   13.6180   -8.8097   -9.9135 C   0  0  0  0  0  0  0  0  0  0  0  0
   15.0051   -9.0885  -10.4514 C   0  0  0  0  0  0  0  0  0  0  0  0
   14.9485   -9.2619  -11.9501 C   0  0  2  0  0  0  0  0  0  0  0  0
   14.2164  -10.4457  -12.3301 N   0  0  0  0  0  0  0  0  0  0  0  0
   16.2999   -9.3411  -12.5537 C   0  0  0  0  0  0  0  0  0  0  0  0
   16.7590  -10.4350  -12.9625 O   0  0  0  0  0  0  0  0  0  0  0  0
   17.9497   -9.2495  -17.3797 N   0  0  0  0  0  0  0  0  0  0  0  0
   17.1679   -8.1432  -16.9311 C   0  0  0  0  0  0  0  0  0  0  0  0
   16.4920   -7.5267  -17.7953 O   0  0  0  0  0  0  0  0  0  0  0  0
   17.1832   -7.7715  -15.4917 C   0  0  0  0  0  0  0  0  0  0  0  0
   18.1613   -8.6800  -14.8053 C   0  0  0  0  0  0  0  0  0  0  0  0
   18.4168   -8.2222  -13.3626 C   0  0  2  0  0  0  0  0  0  0  0  0
   17.1291   -8.1976  -12.6965 N   0  0  0  0  0  0  0  0  0  0  0  0
   19.0593   -6.8831  -13.3540 C   0  0  0  0  0  0  0  0  0  0  0  0
   18.3363   -5.8519  -13.3043 O   0  0  0  0  0  0  0  0  0  0  0  0
   22.6101   -5.6345  -13.2606 C   0  0  0  0  0  0  0  0  0  0  0  0
   21.0994   -5.5087  -13.3535 C   0  0  2  0  0  0  0  0  0  0  0  0
   20.4773   -6.8136  -13.4026 N   0  0  0  0  0  0  0  0  0  0  0  0
   20.7283   -4.6858  -14.5367 C   0  0  0  0  0  0  0  0  0  0  0  0
   20.4188   -5.2091  -15.6346 O   0  0  0  0  0  0  0  0  0  0  0  0
   20.7218   -3.3141  -14.4330 O   0  0  0  0  0  0  0  0  0  0  0  0
  1  2  1  0
  3  2  1  0
  4  3  1  0
  5  4  1  0
  5  7  1  0
  5  6  1  1
  7  8  2  0
  9 10  1  0
 10 11  2  0
 10 12  1  0
 12 13  1  0
 14 13  1  6
 15  7  1  0
 15 14  1  0
 16 14  1  0
 16 20  1  0
 17 16  2  0
 19 20  1  0
 19 18  1  6
 21 19  1  0
 21 23  1  0
 22 21  2  0
M  END
$$$$
