YSL.pdb
     RDKit          3D

 27 27  0  0  1  0  0  0  0  0999 V2000
    7.9680  -12.5343   15.8800 O   0  0  0  0  0  0  0  0  0  0  0  0
    7.8447  -13.0733   17.1594 C   0  0  0  0  0  0  0  0  0  0  0  0
    8.7868  -12.8922   18.1469 C   0  0  0  0  0  0  0  0  0  0  0  0
    8.6436  -13.4376   19.4122 C   0  0  0  0  0  0  0  0  0  0  0  0
    7.5277  -14.1918   19.7176 C   0  0  0  0  0  0  0  0  0  0  0  0
    7.3182  -14.7999   21.0497 C   0  0  0  0  0  0  0  0  0  0  0  0
    7.9678  -16.1857   21.1348 C   0  0  2  0  0  0  0  0  0  0  0  0
    7.1002  -17.0738   20.3805 N   0  0  0  0  0  0  0  0  0  0  0  0
    7.9523  -16.5651   22.5621 C   0  0  0  0  0  0  0  0  0  0  0  0
    6.8684  -16.7151   23.1709 O   0  0  0  0  0  0  0  0  0  0  0  0
    6.5811  -14.3761   18.7315 C   0  0  0  0  0  0  0  0  0  0  0  0
    6.7319  -13.8261   17.4655 C   0  0  0  0  0  0  0  0  0  0  0  0
   11.3091  -18.1630   24.2688 O   0  0  0  0  0  0  0  0  0  0  0  0
   10.0741  -18.3205   24.8761 C   0  0  0  0  0  0  0  0  0  0  0  0
    9.2284  -17.0940   24.6472 C   0  0  2  0  0  0  0  0  0  0  0  0
    9.1731  -16.7638   23.2586 N   0  0  0  0  0  0  0  0  0  0  0  0
    9.6286  -15.9540   25.4820 C   0  0  0  0  0  0  0  0  0  0  0  0
   10.7125  -15.3589   25.1624 O   0  0  0  0  0  0  0  0  0  0  0  0
    6.3946  -12.2569   27.2031 C   0  0  0  0  0  0  0  0  0  0  0  0
    7.6075  -13.0329   26.6755 C   0  0  1  0  0  0  0  0  0  0  0  0
    8.3852  -12.1361   25.7125 C   0  0  0  0  0  0  0  0  0  0  0  0
    8.4555  -13.4527   27.8335 C   0  0  0  0  0  0  0  0  0  0  0  0
    9.4951  -14.4339   27.4199 C   0  0  2  0  0  0  0  0  0  0  0  0
    8.8898  -15.4950   26.5950 N   0  0  0  0  0  0  0  0  0  0  0  0
   10.1310  -15.0679   28.6031 C   0  0  0  0  0  0  0  0  0  0  0  0
   10.1187  -16.4091   28.9080 O   0  0  0  0  0  0  0  0  0  0  0  0
   10.7640  -14.3418   29.4584 O   0  0  0  0  0  0  0  0  0  0  0  0
  2  1  1  0
  3  2  2  0
  4  3  1  0
  5  4  2  0
  5 11  1  0
  6  5  1  0
  7  9  1  0
  7  6  1  0
  7  8  1  6
  9 10  2  0
 11 12  2  0
 12  2  1  0
 15 14  1  6
 14 13  1  0
 16 15  1  0
 16  9  1  0
 17 15  1  0
 18 17  2  0
 20 19  1  1
 21 20  1  0
 22 20  1  0
 23 22  1  1
 23 24  1  0
 24 17  1  0
 25 23  1  0
 26 25  1  0
 27 25  2  0
M  END
$$$$
