YSL.pdb
     RDKit          3D

 27 27  0  0  1  0  0  0  0  0999 V2000
   21.5803  -20.5198   11.1788 O   0  0  0  0  0  0  0  0  0  0  0  0
   20.6112  -20.1586   12.1131 C   0  0  0  0  0  0  0  0  0  0  0  0
   20.8848  -19.3934   13.2244 C   0  0  0  0  0  0  0  0  0  0  0  0
   19.9053  -19.0461   14.1404 C   0  0  0  0  0  0  0  0  0  0  0  0
   18.6040  -19.4693   13.9547 C   0  0  0  0  0  0  0  0  0  0  0  0
   17.5148  -19.1313   14.8970 C   0  0  0  0  0  0  0  0  0  0  0  0
   16.4491  -18.2601   14.2228 C   0  0  2  0  0  0  0  0  0  0  0  0
   17.0915  -16.9832   13.9629 N   0  0  0  0  0  0  0  0  0  0  0  0
   15.3685  -18.0834   15.2141 C   0  0  0  0  0  0  0  0  0  0  0  0
   15.2273  -16.9951   15.8171 O   0  0  0  0  0  0  0  0  0  0  0  0
   18.3249  -20.2362   12.8428 C   0  0  0  0  0  0  0  0  0  0  0  0
   19.3123  -20.5802   11.9291 C   0  0  0  0  0  0  0  0  0  0  0  0
   12.3454  -21.1215   15.9456 O   0  0  0  0  0  0  0  0  0  0  0  0
   12.1562  -19.7557   15.8123 C   0  0  0  0  0  0  0  0  0  0  0  0
   13.3499  -19.0156   16.3594 C   0  0  2  0  0  0  0  0  0  0  0  0
   14.4767  -19.1522   15.4923 N   0  0  0  0  0  0  0  0  0  0  0  0
   13.6619  -19.3726   17.7494 C   0  0  0  0  0  0  0  0  0  0  0  0
   12.7329  -19.2043   18.6093 O   0  0  0  0  0  0  0  0  0  0  0  0
   17.3599  -21.3279   18.0645 C   0  0  0  0  0  0  0  0  0  0  0  0
   16.1109  -22.1287   18.4526 C   0  0  1  0  0  0  0  0  0  0  0  0
   16.4882  -23.6056   18.5661 C   0  0  0  0  0  0  0  0  0  0  0  0
   15.5799  -21.6014   19.7473 C   0  0  0  0  0  0  0  0  0  0  0  0
   15.0601  -20.2149   19.5985 C   0  0  2  0  0  0  0  0  0  0  0  0
   14.9106  -19.8810   18.1705 N   0  0  0  0  0  0  0  0  0  0  0  0
   15.9855  -19.2295   20.2139 C   0  0  0  0  0  0  0  0  0  0  0  0
   16.5727  -18.1615   19.5763 O   0  0  0  0  0  0  0  0  0  0  0  0
   16.3054  -19.3380   21.4571 O   0  0  0  0  0  0  0  0  0  0  0  0
  2  1  1  0
  3  2  2  0
  4  3  1  0
  5  4  2  0
  5 11  1  0
  6  5  1  0
  7  9  1  0
  7  6  1  0
  7  8  1  1
  9 10  2  0
 11 12  2  0
 12  2  1  0
 15 14  1  6
 14 13  1  0
 16 15  1  0
 16  9  1  0
 17 15  1  0
 18 17  2  0
 20 19  1  1
 21 20  1  0
 22 20  1  0
 23 22  1  6
 23 24  1  0
 24 17  1  0
 25 23  1  0
 26 25  1  0
 27 25  2  0
M  END
$$$$
