YSL.pdb
     RDKit          3D

 27 27  0  0  1  0  0  0  0  0999 V2000
    8.1958  -12.1305   16.9721 O   0  0  0  0  0  0  0  0  0  0  0  0
    7.9984  -12.9117   18.1094 C   0  0  0  0  0  0  0  0  0  0  0  0
    7.0288  -12.6425   19.0489 C   0  0  0  0  0  0  0  0  0  0  0  0
    6.8504  -13.4330   20.1724 C   0  0  0  0  0  0  0  0  0  0  0  0
    7.6593  -14.5330   20.3792 C   0  0  0  0  0  0  0  0  0  0  0  0
    7.5179  -15.4147   21.5586 C   0  0  0  0  0  0  0  0  0  0  0  0
    8.2205  -16.7583   21.3336 C   0  0  2  0  0  0  0  0  0  0  0  0
    7.4061  -17.4705   20.3640 N   0  0  0  0  0  0  0  0  0  0  0  0
    8.1885  -17.4662   22.6295 C   0  0  0  0  0  0  0  0  0  0  0  0
    7.3692  -18.3915   22.8312 O   0  0  0  0  0  0  0  0  0  0  0  0
    8.6322  -14.8068   19.4407 C   0  0  0  0  0  0  0  0  0  0  0  0
    8.8048  -14.0096   18.3170 C   0  0  0  0  0  0  0  0  0  0  0  0
   10.9247  -19.3204   23.9887 O   0  0  0  0  0  0  0  0  0  0  0  0
    9.6479  -19.2912   24.5252 C   0  0  0  0  0  0  0  0  0  0  0  0
    9.2601  -17.8719   24.8527 C   0  0  2  0  0  0  0  0  0  0  0  0
    9.0915  -17.1010   23.6620 N   0  0  0  0  0  0  0  0  0  0  0  0
   10.1689  -17.2332   25.8135 C   0  0  0  0  0  0  0  0  0  0  0  0
   11.2571  -16.7552   25.3463 O   0  0  0  0  0  0  0  0  0  0  0  0
    8.7149  -13.0527   27.9256 C   0  0  0  0  0  0  0  0  0  0  0  0
    9.6457  -14.1412   27.3773 C   0  0  1  0  0  0  0  0  0  0  0  0
   10.8854  -13.4748   26.7812 C   0  0  0  0  0  0  0  0  0  0  0  0
   10.0098  -15.0727   28.4891 C   0  0  0  0  0  0  0  0  0  0  0  0
   10.7800  -16.2435   27.9884 C   0  0  2  0  0  0  0  0  0  0  0  0
    9.9032  -17.1249   27.1965 N   0  0  0  0  0  0  0  0  0  0  0  0
   11.3420  -17.0330   29.1140 C   0  0  0  0  0  0  0  0  0  0  0  0
   12.4240  -16.6837   29.8880 O   0  0  0  0  0  0  0  0  0  0  0  0
   10.8078  -18.1597   29.4382 O   0  0  0  0  0  0  0  0  0  0  0  0
  2  1  1  0
  3  2  2  0
  4  3  1  0
  5  4  2  0
  5 11  1  0
  6  5  1  0
  7  9  1  0
  7  6  1  0
  7  8  1  6
  9 10  2  0
 11 12  2  0
 12  2  1  0
 15 14  1  6
 14 13  1  0
 16 15  1  0
 16  9  1  0
 17 15  1  0
 18 17  2  0
 20 19  1  1
 21 20  1  0
 22 20  1  0
 23 22  1  1
 23 24  1  0
 24 17  1  0
 25 23  1  0
 26 25  1  0
 27 25  2  0
M  END
$$$$
