YSL.pdb
     RDKit          3D

 27 27  0  0  1  0  0  0  0  0999 V2000
    7.5990  -12.2344   16.4597 O   0  0  0  0  0  0  0  0  0  0  0  0
    7.6312  -12.9426   17.6598 C   0  0  0  0  0  0  0  0  0  0  0  0
    6.4980  -13.2867   18.3617 C   0  0  0  0  0  0  0  0  0  0  0  0
    6.5536  -13.9912   19.5532 C   0  0  0  0  0  0  0  0  0  0  0  0
    7.7743  -14.3723   20.0746 C   0  0  0  0  0  0  0  0  0  0  0  0
    7.8985  -15.1255   21.3418 C   0  0  0  0  0  0  0  0  0  0  0  0
    8.5312  -16.5020   21.1086 C   0  0  2  0  0  0  0  0  0  0  0  0
    7.6153  -17.2127   20.2330 N   0  0  0  0  0  0  0  0  0  0  0  0
    8.5791  -17.1662   22.4269 C   0  0  0  0  0  0  0  0  0  0  0  0
    7.8887  -18.1861   22.6532 O   0  0  0  0  0  0  0  0  0  0  0  0
    8.9125  -14.0298   19.3749 C   0  0  0  0  0  0  0  0  0  0  0  0
    8.8485  -13.3235   18.1812 C   0  0  0  0  0  0  0  0  0  0  0  0
   11.3368  -18.7422   23.7369 O   0  0  0  0  0  0  0  0  0  0  0  0
   10.1215  -18.7600   24.4014 C   0  0  0  0  0  0  0  0  0  0  0  0
    9.6633  -17.3500   24.6733 C   0  0  2  0  0  0  0  0  0  0  0  0
    9.4129  -16.6504   23.4533 N   0  0  0  0  0  0  0  0  0  0  0  0
   10.5639  -16.6142   25.5702 C   0  0  0  0  0  0  0  0  0  0  0  0
   11.2569  -17.3094   26.3871 O   0  0  0  0  0  0  0  0  0  0  0  0
    8.8193  -12.0191   27.6742 C   0  0  0  0  0  0  0  0  0  0  0  0
    7.9964  -13.2681   27.3357 C   0  0  1  0  0  0  0  0  0  0  0  0
    6.5946  -12.8335   26.9086 C   0  0  0  0  0  0  0  0  0  0  0  0
    8.6878  -14.0236   26.2461 C   0  0  0  0  0  0  0  0  0  0  0  0
   10.0446  -14.4669   26.6669 C   0  0  2  0  0  0  0  0  0  0  0  0
   10.6970  -15.2080   25.5725 N   0  0  0  0  0  0  0  0  0  0  0  0
    9.9706  -15.3566   27.8540 C   0  0  0  0  0  0  0  0  0  0  0  0
   10.6144  -15.1618   29.0538 O   0  0  0  0  0  0  0  0  0  0  0  0
    9.2539  -16.4262   27.8116 O   0  0  0  0  0  0  0  0  0  0  0  0
  2  1  1  0
  3  2  2  0
  4  3  1  0
  5  4  2  0
  5 11  1  0
  6  5  1  0
  7  9  1  0
  7  6  1  0
  7  8  1  6
  9 10  2  0
 11 12  2  0
 12  2  1  0
 15 14  1  6
 14 13  1  0
 16 15  1  0
 16  9  1  0
 17 15  1  0
 18 17  2  0
 20 19  1  6
 21 20  1  0
 22 20  1  0
 23 22  1  6
 23 24  1  0
 24 17  1  0
 25 23  1  0
 26 25  1  0
 27 25  2  0
M  END
$$$$
