YSL.pdb
     RDKit          3D

 27 27  0  0  1  0  0  0  0  0999 V2000
    7.5336  -12.5932   16.4257 O   0  0  0  0  0  0  0  0  0  0  0  0
    7.7686  -13.2403   17.6377 C   0  0  0  0  0  0  0  0  0  0  0  0
    8.7366  -14.2056   17.8007 C   0  0  0  0  0  0  0  0  0  0  0  0
    8.9528  -14.8359   19.0151 C   0  0  0  0  0  0  0  0  0  0  0  0
    8.1849  -14.5024   20.1134 C   0  0  0  0  0  0  0  0  0  0  0  0
    8.3680  -15.1397   21.4358 C   0  0  0  0  0  0  0  0  0  0  0  0
    8.3092  -16.6676   21.3276 C   0  0  2  0  0  0  0  0  0  0  0  0
    6.9287  -16.9864   21.0062 N   0  0  0  0  0  0  0  0  0  0  0  0
    8.6446  -17.1924   22.6668 C   0  0  0  0  0  0  0  0  0  0  0  0
    7.8609  -17.0314   23.6301 O   0  0  0  0  0  0  0  0  0  0  0  0
    7.2138  -13.5359   19.9551 C   0  0  0  0  0  0  0  0  0  0  0  0
    7.0032  -12.9086   18.7344 C   0  0  0  0  0  0  0  0  0  0  0  0
   12.4902  -18.8261   23.5308 O   0  0  0  0  0  0  0  0  0  0  0  0
   11.3396  -19.4647   23.9636 C   0  0  0  0  0  0  0  0  0  0  0  0
   10.2266  -18.4620   24.1301 C   0  0  2  0  0  0  0  0  0  0  0  0
    9.8650  -17.8873   22.8734 N   0  0  0  0  0  0  0  0  0  0  0  0
   10.5133  -17.4471   25.1522 C   0  0  0  0  0  0  0  0  0  0  0  0
   10.8491  -16.2880   24.7341 O   0  0  0  0  0  0  0  0  0  0  0  0
   11.0229  -13.5811   27.6789 C   0  0  0  0  0  0  0  0  0  0  0  0
    9.9456  -14.4301   28.3648 C   0  0  1  0  0  0  0  0  0  0  0  0
    8.7097  -13.5619   28.5997 C   0  0  0  0  0  0  0  0  0  0  0  0
    9.6284  -15.6051   27.4959 C   0  0  0  0  0  0  0  0  0  0  0  0
   10.7644  -16.5649   27.4418 C   0  0  2  0  0  0  0  0  0  0  0  0
   10.4373  -17.6859   26.5423 N   0  0  0  0  0  0  0  0  0  0  0  0
   11.0601  -17.1178   28.7883 C   0  0  0  0  0  0  0  0  0  0  0  0
   10.4741  -18.2251   29.3560 O   0  0  0  0  0  0  0  0  0  0  0  0
   11.9365  -16.5457   29.5394 O   0  0  0  0  0  0  0  0  0  0  0  0
  2  1  1  0
  3  2  2  0
  4  3  1  0
  5  4  2  0
  5 11  1  0
  6  5  1  0
  7  9  1  0
  7  6  1  0
  7  8  1  1
  9 10  2  0
 11 12  2  0
 12  2  1  0
 15 14  1  6
 14 13  1  0
 16 15  1  0
 16  9  1  0
 17 15  1  0
 18 17  2  0
 20 19  1  6
 21 20  1  0
 22 20  1  0
 23 22  1  1
 23 24  1  0
 24 17  1  0
 25 23  1  0
 26 25  1  0
 27 25  2  0
M  END
$$$$
