YSL.pdb
     RDKit          3D

 27 27  0  0  1  0  0  0  0  0999 V2000
    8.7369  -12.5941   16.2712 O   0  0  0  0  0  0  0  0  0  0  0  0
    8.3421  -13.1353   17.4935 C   0  0  0  0  0  0  0  0  0  0  0  0
    7.0616  -13.0259   17.9870 C   0  0  0  0  0  0  0  0  0  0  0  0
    6.6912  -13.5719   19.2051 C   0  0  0  0  0  0  0  0  0  0  0  0
    7.6191  -14.2532   19.9680 C   0  0  0  0  0  0  0  0  0  0  0  0
    7.2844  -14.8580   21.2759 C   0  0  0  0  0  0  0  0  0  0  0  0
    7.5189  -16.3727   21.2624 C   0  0  2  0  0  0  0  0  0  0  0  0
    6.3298  -16.9495   20.6591 N   0  0  0  0  0  0  0  0  0  0  0  0
    7.6155  -16.7910   22.6755 C   0  0  0  0  0  0  0  0  0  0  0  0
    6.5831  -16.9501   23.3661 O   0  0  0  0  0  0  0  0  0  0  0  0
    8.9033  -14.3655   19.4776 C   0  0  0  0  0  0  0  0  0  0  0  0
    9.2669  -13.8153   18.2557 C   0  0  0  0  0  0  0  0  0  0  0  0
   11.1589  -18.2591   24.1902 O   0  0  0  0  0  0  0  0  0  0  0  0
    9.9776  -18.4371   24.8916 C   0  0  0  0  0  0  0  0  0  0  0  0
    9.0610  -17.2629   24.6614 C   0  0  2  0  0  0  0  0  0  0  0  0
    8.8868  -17.0172   23.2651 N   0  0  0  0  0  0  0  0  0  0  0  0
    9.4691  -16.0600   25.3986 C   0  0  0  0  0  0  0  0  0  0  0  0
   10.4215  -15.3729   24.8969 O   0  0  0  0  0  0  0  0  0  0  0  0
    6.4332  -12.3654   27.0803 C   0  0  0  0  0  0  0  0  0  0  0  0
    7.6153  -13.1938   26.5626 C   0  0  1  0  0  0  0  0  0  0  0  0
    8.3328  -12.3997   25.4712 C   0  0  0  0  0  0  0  0  0  0  0  0
    8.5308  -13.4988   27.7050 C   0  0  0  0  0  0  0  0  0  0  0  0
    9.5299  -14.5394   27.3395 C   0  0  2  0  0  0  0  0  0  0  0  0
    8.8727  -15.6368   26.6070 N   0  0  0  0  0  0  0  0  0  0  0  0
   10.1757  -15.1073   28.5505 C   0  0  0  0  0  0  0  0  0  0  0  0
   10.1123  -16.4178   28.9634 O   0  0  0  0  0  0  0  0  0  0  0  0
   10.8700  -14.3470   29.3249 O   0  0  0  0  0  0  0  0  0  0  0  0
  2  1  1  0
  3  2  2  0
  4  3  1  0
  5  4  2  0
  5 11  1  0
  6  5  1  0
  7  9  1  0
  7  6  1  0
  7  8  1  1
  9 10  2  0
 11 12  2  0
 12  2  1  0
 15 14  1  6
 14 13  1  0
 16 15  1  0
 16  9  1  0
 17 15  1  0
 18 17  2  0
 20 19  1  1
 21 20  1  0
 22 20  1  0
 23 22  1  1
 23 24  1  0
 24 17  1  0
 25 23  1  0
 26 25  1  0
 27 25  2  0
M  END
$$$$
