YSL.pdb
     RDKit          3D

 27 27  0  0  1  0  0  0  0  0999 V2000
    8.4332  -12.6303   16.7883 O   0  0  0  0  0  0  0  0  0  0  0  0
    8.1347  -13.2615   17.9946 C   0  0  0  0  0  0  0  0  0  0  0  0
    8.1500  -14.6291   18.1528 C   0  0  0  0  0  0  0  0  0  0  0  0
    7.8497  -15.2353   19.3617 C   0  0  0  0  0  0  0  0  0  0  0  0
    7.5210  -14.4639   20.4590 C   0  0  0  0  0  0  0  0  0  0  0  0
    7.1909  -15.0523   21.7755 C   0  0  0  0  0  0  0  0  0  0  0  0
    7.1021  -16.5803   21.6931 C   0  0  2  0  0  0  0  0  0  0  0  0
    5.7563  -16.8718   21.2301 N   0  0  0  0  0  0  0  0  0  0  0  0
    7.2761  -17.0817   23.0714 C   0  0  0  0  0  0  0  0  0  0  0  0
    6.2913  -17.2044   23.8350 O   0  0  0  0  0  0  0  0  0  0  0  0
    7.5043  -13.0933   20.3053 C   0  0  0  0  0  0  0  0  0  0  0  0
    7.8066  -12.4932   19.0903 C   0  0  0  0  0  0  0  0  0  0  0  0
   10.1518  -19.7168   23.9081 O   0  0  0  0  0  0  0  0  0  0  0  0
    9.0520  -19.4888   24.7188 C   0  0  0  0  0  0  0  0  0  0  0  0
    8.7937  -18.0080   24.8306 C   0  0  2  0  0  0  0  0  0  0  0  0
    8.5685  -17.4305   23.5436 N   0  0  0  0  0  0  0  0  0  0  0  0
    9.8288  -17.2984   25.5933 C   0  0  0  0  0  0  0  0  0  0  0  0
   10.9180  -17.0368   24.9800 O   0  0  0  0  0  0  0  0  0  0  0  0
    8.9577  -13.4281   29.0743 C   0  0  0  0  0  0  0  0  0  0  0  0
    9.4158  -14.4238   28.0016 C   0  0  1  0  0  0  0  0  0  0  0  0
    9.9252  -13.6430   26.7903 C   0  0  0  0  0  0  0  0  0  0  0  0
   10.4855  -15.2969   28.5757 C   0  0  0  0  0  0  0  0  0  0  0  0
   10.8747  -16.3761   27.6278 C   0  0  2  0  0  0  0  0  0  0  0  0
    9.6809  -16.9009   26.9406 N   0  0  0  0  0  0  0  0  0  0  0  0
   11.5346  -17.4997   28.3407 C   0  0  0  0  0  0  0  0  0  0  0  0
   11.0455  -18.7792   28.4649 O   0  0  0  0  0  0  0  0  0  0  0  0
   12.6717  -17.3151   28.9176 O   0  0  0  0  0  0  0  0  0  0  0  0
  2  1  1  0
  3  2  2  0
  4  3  1  0
  5  4  2  0
  5 11  1  0
  6  5  1  0
  7  9  1  0
  7  6  1  0
  7  8  1  1
  9 10  2  0
 11 12  2  0
 12  2  1  0
 15 14  1  6
 14 13  1  0
 16 15  1  0
 16  9  1  0
 17 15  1  0
 18 17  2  0
 20 19  1  1
 21 20  1  0
 22 20  1  0
 23 22  1  1
 23 24  1  0
 24 17  1  0
 25 23  1  0
 26 25  1  0
 27 25  2  0
M  END
$$$$
