NDM.pdb
     RDKit          3D

 25 24  0  0  1  0  0  0  0  0999 V2000
    7.1345  -13.5320   16.5387 N   0  0  0  0  0  0  0  0  0  0  0  0
    8.0624  -13.3871   17.6027 C   0  0  0  0  0  0  0  0  0  0  0  0
    9.1886  -12.8947   17.3731 O   0  0  0  0  0  0  0  0  0  0  0  0
    7.7035  -13.8094   18.9519 C   0  0  0  0  0  0  0  0  0  0  0  0
    8.8628  -14.5993   19.5606 C   0  0  2  0  0  0  0  0  0  0  0  0
    9.1676  -15.6506   18.6134 N   0  0  0  0  0  0  0  0  0  0  0  0
    8.3497  -15.1847   20.8035 C   0  0  0  0  0  0  0  0  0  0  0  0
    7.7776  -14.4487   21.6466 O   0  0  0  0  0  0  0  0  0  0  0  0
    8.4654  -16.5766   21.1190 N   0  0  0  0  0  0  0  0  0  0  0  0
    8.0672  -17.0494   22.4164 C   0  0  1  0  0  0  0  0  0  0  0  0
    8.1395  -18.5818   22.4848 C   0  0  0  0  0  0  0  0  0  0  0  0
    7.7035  -19.0648   23.8118 C   0  0  0  0  0  0  0  0  0  0  0  0
    7.0343  -18.3755   24.6115 O   0  0  0  0  0  0  0  0  0  0  0  0
    8.9207  -16.4610   23.5030 C   0  0  0  0  0  0  0  0  0  0  0  0
   10.1696  -16.5785   23.4254 O   0  0  0  0  0  0  0  0  0  0  0  0
    8.0551  -20.3494   24.1904 O   0  0  0  0  0  0  0  0  0  0  0  0
    5.6493  -11.4380   27.8530 C   0  0  0  0  0  0  0  0  0  0  0  0
    7.0085  -11.6864   26.7022 S   0  0  0  0  0  0  0  0  0  0  0  0
    7.5616  -13.3565   26.5650 C   0  0  0  0  0  0  0  0  0  0  0  0
    8.7337  -13.6666   25.7419 C   0  0  0  0  0  0  0  0  0  0  0  0
    9.2087  -15.0583   25.6011 C   0  0  2  0  0  0  0  0  0  0  0  0
    8.3763  -15.7822   24.6067 N   0  0  0  0  0  0  0  0  0  0  0  0
    9.2546  -15.8948   26.8027 C   0  0  0  0  0  0  0  0  0  0  0  0
   10.0280  -15.5282   27.7590 O   0  0  0  0  0  0  0  0  0  0  0  0
    8.5533  -17.0476   27.0393 O   0  0  0  0  0  0  0  0  0  0  0  0
  2  1  1  0
  2  3  2  0
  4  2  1  0
  5  4  1  0
  5  6  1  6
  7  5  1  0
  7  8  2  0
  9  7  1  0
 10  9  1  0
 10 11  1  6
 12 13  2  0
 12 11  1  0
 14 10  1  0
 14 22  1  0
 15 14  2  0
 16 12  1  0
 18 17  1  0
 19 18  1  0
 20 19  1  0
 21 20  1  1
 21 22  1  0
 21 23  1  0
 23 24  2  0
 23 25  1  0
M  END
$$$$
