NDM.pdb
     RDKit          3D

 25 24  0  0  1  0  0  0  0  0999 V2000
    6.8261  -16.1457   16.4968 N   0  0  0  0  0  0  0  0  0  0  0  0
    7.4389  -17.1970   17.2268 C   0  0  0  0  0  0  0  0  0  0  0  0
    8.1570  -18.0255   16.6254 O   0  0  0  0  0  0  0  0  0  0  0  0
    7.2321  -17.3087   18.6663 C   0  0  0  0  0  0  0  0  0  0  0  0
    7.9638  -16.1671   19.3733 C   0  0  2  0  0  0  0  0  0  0  0  0
    9.0294  -15.7650   18.4799 N   0  0  0  0  0  0  0  0  0  0  0  0
    8.5325  -16.7425   20.5965 C   0  0  0  0  0  0  0  0  0  0  0  0
    7.7661  -17.1777   21.4927 O   0  0  0  0  0  0  0  0  0  0  0  0
    9.9412  -16.8393   20.8342 N   0  0  0  0  0  0  0  0  0  0  0  0
   10.4199  -17.2743   22.1176 C   0  0  1  0  0  0  0  0  0  0  0  0
   11.9355  -17.5188   22.0808 C   0  0  0  0  0  0  0  0  0  0  0  0
   12.2750  -18.5298   21.0576 C   0  0  0  0  0  0  0  0  0  0  0  0
   13.1325  -18.3487   20.1663 O   0  0  0  0  0  0  0  0  0  0  0  0
   10.1021  -16.2742   23.1920 C   0  0  0  0  0  0  0  0  0  0  0  0
   10.7599  -15.2043   23.2399 O   0  0  0  0  0  0  0  0  0  0  0  0
   11.6078  -19.7426   21.0869 O   0  0  0  0  0  0  0  0  0  0  0  0
    6.6439  -11.0505   26.9483 C   0  0  0  0  0  0  0  0  0  0  0  0
    7.3786  -12.0869   25.6756 S   0  0  0  0  0  0  0  0  0  0  0  0
    6.9491  -13.7954   25.7783 C   0  0  0  0  0  0  0  0  0  0  0  0
    7.5483  -14.7509   24.8426 C   0  0  0  0  0  0  0  0  0  0  0  0
    8.7661  -15.5023   25.2098 C   0  0  2  0  0  0  0  0  0  0  0  0
    9.0953  -16.4881   24.1489 N   0  0  0  0  0  0  0  0  0  0  0  0
    8.7679  -16.2318   26.4799 C   0  0  0  0  0  0  0  0  0  0  0  0
    8.7011  -15.5482   27.5640 O   0  0  0  0  0  0  0  0  0  0  0  0
    8.8300  -17.5887   26.6582 O   0  0  0  0  0  0  0  0  0  0  0  0
  2  1  1  0
  2  3  2  0
  4  2  1  0
  5  4  1  0
  5  6  1  6
  7  5  1  0
  7  8  2  0
  9  7  1  0
 10  9  1  0
 10 11  1  6
 12 13  2  0
 12 11  1  0
 14 10  1  0
 14 22  1  0
 15 14  2  0
 16 12  1  0
 18 17  1  0
 19 18  1  0
 20 19  1  0
 21 20  1  6
 21 22  1  0
 21 23  1  0
 23 24  2  0
 23 25  1  0
M  END
$$$$
