NDM.pdb
     RDKit          3D

 25 24  0  0  1  0  0  0  0  0999 V2000
    8.1305  -11.5965   18.8840 N   0  0  0  0  0  0  0  0  0  0  0  0
    8.1394  -13.0074   18.7306 C   0  0  0  0  0  0  0  0  0  0  0  0
    8.2915  -13.5006   17.5917 O   0  0  0  0  0  0  0  0  0  0  0  0
    7.9727  -13.8730   19.8927 C   0  0  0  0  0  0  0  0  0  0  0  0
    8.6241  -15.2279   19.6127 C   0  0  2  0  0  0  0  0  0  0  0  0
    7.7004  -15.9434   18.7582 N   0  0  0  0  0  0  0  0  0  0  0  0
    8.7282  -15.9062   20.9088 C   0  0  0  0  0  0  0  0  0  0  0  0
    7.7447  -15.9042   21.6915 O   0  0  0  0  0  0  0  0  0  0  0  0
    9.9113  -16.5854   21.3437 N   0  0  0  0  0  0  0  0  0  0  0  0
    9.9109  -17.2869   22.5980 C   0  0  1  0  0  0  0  0  0  0  0  0
   11.0961  -18.2599   22.6797 C   0  0  0  0  0  0  0  0  0  0  0  0
   11.0133  -19.2726   21.6065 C   0  0  0  0  0  0  0  0  0  0  0  0
   11.8034  -19.3191   20.6390 O   0  0  0  0  0  0  0  0  0  0  0  0
    9.9644  -16.3373   23.7603 C   0  0  0  0  0  0  0  0  0  0  0  0
   10.8406  -15.4363   23.7689 O   0  0  0  0  0  0  0  0  0  0  0  0
   10.0067  -20.2208   21.6755 O   0  0  0  0  0  0  0  0  0  0  0  0
    6.0643  -11.1127   25.0542 C   0  0  0  0  0  0  0  0  0  0  0  0
    6.2018  -12.6872   25.9117 S   0  0  0  0  0  0  0  0  0  0  0  0
    7.7184  -13.5462   25.6360 C   0  0  0  0  0  0  0  0  0  0  0  0
    7.9558  -14.8298   26.3019 C   0  0  0  0  0  0  0  0  0  0  0  0
    9.2043  -15.5827   26.0636 C   0  0  2  0  0  0  0  0  0  0  0  0
    9.0706  -16.4166   24.8419 N   0  0  0  0  0  0  0  0  0  0  0  0
    9.6892  -16.4657   27.1270 C   0  0  0  0  0  0  0  0  0  0  0  0
   10.1376  -15.9221   28.1996 O   0  0  0  0  0  0  0  0  0  0  0  0
    9.7206  -17.8353   27.1194 O   0  0  0  0  0  0  0  0  0  0  0  0
  2  1  1  0
  2  3  2  0
  4  2  1  0
  5  4  1  0
  5  6  1  6
  7  5  1  0
  7  8  2  0
  9  7  1  0
 10  9  1  0
 10 11  1  6
 12 13  2  0
 12 11  1  0
 14 10  1  0
 14 22  1  0
 15 14  2  0
 16 12  1  0
 18 17  1  0
 19 18  1  0
 20 19  1  0
 21 20  1  1
 21 22  1  0
 21 23  1  0
 23 24  2  0
 23 25  1  0
M  END
$$$$
