NDM.pdb
     RDKit          3D

 25 24  0  0  1  0  0  0  0  0999 V2000
    8.1805  -12.6111   17.4371 N   0  0  0  0  0  0  0  0  0  0  0  0
    7.5251  -13.8698   17.4551 C   0  0  0  0  0  0  0  0  0  0  0  0
    6.7151  -14.1538   16.5458 O   0  0  0  0  0  0  0  0  0  0  0  0
    7.7955  -14.8227   18.5257 C   0  0  0  0  0  0  0  0  0  0  0  0
    8.6877  -14.1629   19.5779 C   0  0  2  0  0  0  0  0  0  0  0  0
    9.9563  -13.9177   18.9254 N   0  0  0  0  0  0  0  0  0  0  0  0
    8.8618  -15.1538   20.6449 C   0  0  0  0  0  0  0  0  0  0  0  0
    7.8787  -15.4776   21.3581 O   0  0  0  0  0  0  0  0  0  0  0  0
   10.1143  -15.7876   20.9274 N   0  0  0  0  0  0  0  0  0  0  0  0
   10.2119  -16.7211   22.0157 C   0  0  1  0  0  0  0  0  0  0  0  0
   11.5121  -17.5331   21.9236 C   0  0  0  0  0  0  0  0  0  0  0  0
   11.4753  -18.4444   20.7606 C   0  0  0  0  0  0  0  0  0  0  0  0
   12.3844  -18.5085   19.9051 O   0  0  0  0  0  0  0  0  0  0  0  0
   10.1518  -16.0253   23.3454 C   0  0  0  0  0  0  0  0  0  0  0  0
   11.0210  -15.1593   23.6178 O   0  0  0  0  0  0  0  0  0  0  0  0
   10.3753  -19.2715   20.6098 O   0  0  0  0  0  0  0  0  0  0  0  0
    7.5292  -11.0985   26.5383 C   0  0  0  0  0  0  0  0  0  0  0  0
    6.7273  -12.6200   27.0632 S   0  0  0  0  0  0  0  0  0  0  0  0
    7.7637  -14.0478   27.0314 C   0  0  0  0  0  0  0  0  0  0  0  0
    8.0758  -14.6886   25.7509 C   0  0  0  0  0  0  0  0  0  0  0  0
    9.1484  -15.7000   25.6561 C   0  0  2  0  0  0  0  0  0  0  0  0
    9.1591  -16.3052   24.2999 N   0  0  0  0  0  0  0  0  0  0  0  0
    9.1356  -16.8084   26.6135 C   0  0  0  0  0  0  0  0  0  0  0  0
    9.3069  -16.5305   27.8547 O   0  0  0  0  0  0  0  0  0  0  0  0
    8.9552  -18.1389   26.3412 O   0  0  0  0  0  0  0  0  0  0  0  0
  2  1  1  0
  2  3  2  0
  4  2  1  0
  5  4  1  0
  5  6  1  6
  7  5  1  0
  7  8  2  0
  9  7  1  0
 10  9  1  0
 10 11  1  6
 12 13  2  0
 12 11  1  0
 14 10  1  0
 14 22  1  0
 15 14  2  0
 16 12  1  0
 18 17  1  0
 19 18  1  0
 20 19  1  0
 21 20  1  6
 21 22  1  0
 21 23  1  0
 23 24  2  0
 23 25  1  0
M  END
$$$$
