NDM.pdb
     RDKit          3D

 25 24  0  0  1  0  0  0  0  0999 V2000
   13.8462  -19.6019   22.4747 N   0  0  0  0  0  0  0  0  0  0  0  0
   13.9409  -18.2606   22.0208 C   0  0  0  0  0  0  0  0  0  0  0  0
   14.9812  -17.8802   21.4406 O   0  0  0  0  0  0  0  0  0  0  0  0
   12.8332  -17.3350   22.2302 C   0  0  0  0  0  0  0  0  0  0  0  0
   11.6088  -17.8273   21.4577 C   0  0  2  0  0  0  0  0  0  0  0  0
   12.0360  -17.9635   20.0814 N   0  0  0  0  0  0  0  0  0  0  0  0
   10.6050  -16.7633   21.5628 C   0  0  0  0  0  0  0  0  0  0  0  0
   10.9764  -15.5719   21.7124 O   0  0  0  0  0  0  0  0  0  0  0  0
    9.1956  -17.0086   21.5035 N   0  0  0  0  0  0  0  0  0  0  0  0
    8.2761  -15.9062   21.5726 C   0  0  1  0  0  0  0  0  0  0  0  0
    6.8323  -16.3855   21.3633 C   0  0  0  0  0  0  0  0  0  0  0  0
    6.7717  -17.4040   20.2940 C   0  0  0  0  0  0  0  0  0  0  0  0
    7.3207  -17.2679   19.1793 O   0  0  0  0  0  0  0  0  0  0  0  0
    8.3769  -15.1863   22.8868 C   0  0  0  0  0  0  0  0  0  0  0  0
    8.1348  -13.9536   22.9245 O   0  0  0  0  0  0  0  0  0  0  0  0
    6.0692  -18.5716   20.5392 O   0  0  0  0  0  0  0  0  0  0  0  0
    6.8319  -10.8271   27.3429 C   0  0  0  0  0  0  0  0  0  0  0  0
    6.1788  -12.0603   26.2088 S   0  0  0  0  0  0  0  0  0  0  0  0
    7.4051  -13.0101   25.3675 C   0  0  0  0  0  0  0  0  0  0  0  0
    7.5517  -14.4362   25.6709 C   0  0  0  0  0  0  0  0  0  0  0  0
    8.8191  -15.1404   25.3877 C   0  0  2  0  0  0  0  0  0  0  0  0
    8.7324  -15.8386   24.0798 N   0  0  0  0  0  0  0  0  0  0  0  0
    9.2913  -16.1264   26.3626 C   0  0  0  0  0  0  0  0  0  0  0  0
    9.1525  -17.3692   26.0737 O   0  0  0  0  0  0  0  0  0  0  0  0
    9.8811  -15.8797   27.5742 O   0  0  0  0  0  0  0  0  0  0  0  0
  2  1  1  0
  2  3  2  0
  4  2  1  0
  5  4  1  0
  5  6  1  6
  7  5  1  0
  7  8  2  0
  9  7  1  0
 10  9  1  0
 10 11  1  1
 12 13  2  0
 12 11  1  0
 14 10  1  0
 14 22  1  0
 15 14  2  0
 16 12  1  0
 18 17  1  0
 19 18  1  0
 20 19  1  0
 21 20  1  1
 21 22  1  0
 21 23  1  0
 23 24  2  0
 23 25  1  0
M  END
$$$$
