NDM.pdb
     RDKit          3D

 25 24  0  0  1  0  0  0  0  0999 V2000
    2.9929  -18.5038   20.5065 N   0  0  0  0  0  0  0  0  0  0  0  0
    3.5131  -19.6206   21.2109 C   0  0  0  0  0  0  0  0  0  0  0  0
    2.8692  -20.6923   21.2253 O   0  0  0  0  0  0  0  0  0  0  0  0
    4.7883  -19.5172   21.9114 C   0  0  0  0  0  0  0  0  0  0  0  0
    5.2146  -18.0500   21.9738 C   0  0  2  0  0  0  0  0  0  0  0  0
    5.2912  -17.6000   20.6002 N   0  0  0  0  0  0  0  0  0  0  0  0
    6.5522  -18.0388   22.5750 C   0  0  0  0  0  0  0  0  0  0  0  0
    6.6843  -18.2857   23.8004 O   0  0  0  0  0  0  0  0  0  0  0  0
    7.7423  -17.7566   21.8306 N   0  0  0  0  0  0  0  0  0  0  0  0
    9.0146  -17.7401   22.4988 C   0  0  1  0  0  0  0  0  0  0  0  0
   10.1650  -17.7128   21.4819 C   0  0  0  0  0  0  0  0  0  0  0  0
   10.0809  -18.8724   20.5694 C   0  0  0  0  0  0  0  0  0  0  0  0
    9.8841  -20.0438   20.9585 O   0  0  0  0  0  0  0  0  0  0  0  0
    9.1369  -16.5616   23.4217 C   0  0  0  0  0  0  0  0  0  0  0  0
    9.1861  -15.4065   22.9289 O   0  0  0  0  0  0  0  0  0  0  0  0
   10.2281  -18.6501   19.2108 O   0  0  0  0  0  0  0  0  0  0  0  0
    6.5369  -10.9301   27.1558 C   0  0  0  0  0  0  0  0  0  0  0  0
    6.6145  -12.3572   26.0646 S   0  0  0  0  0  0  0  0  0  0  0  0
    7.9855  -13.4304   26.3519 C   0  0  0  0  0  0  0  0  0  0  0  0
    8.1820  -14.6012   25.4927 C   0  0  0  0  0  0  0  0  0  0  0  0
    9.2945  -15.5407   25.7422 C   0  0  2  0  0  0  0  0  0  0  0  0
    9.1987  -16.6999   24.8189 N   0  0  0  0  0  0  0  0  0  0  0  0
    9.4436  -16.0874   27.0929 C   0  0  0  0  0  0  0  0  0  0  0  0
    9.0304  -17.2840   27.3044 O   0  0  0  0  0  0  0  0  0  0  0  0
    9.9871  -15.4648   28.1856 O   0  0  0  0  0  0  0  0  0  0  0  0
  2  1  1  0
  2  3  2  0
  4  2  1  0
  5  4  1  0
  5  6  1  6
  7  5  1  0
  7  8  2  0
  9  7  1  0
 10  9  1  0
 10 11  1  6
 12 13  2  0
 12 11  1  0
 14 10  1  0
 14 22  1  0
 15 14  2  0
 16 12  1  0
 18 17  1  0
 19 18  1  0
 20 19  1  0
 21 20  1  1
 21 22  1  0
 21 23  1  0
 23 24  2  0
 23 25  1  0
M  END
$$$$
