NDM.pdb
     RDKit          3D

 25 24  0  0  1  0  0  0  0  0999 V2000
    8.6409  -23.7460   22.1732 N   0  0  0  0  0  0  0  0  0  0  0  0
    8.1139  -22.5647   21.5892 C   0  0  0  0  0  0  0  0  0  0  0  0
    6.9080  -22.5269   21.2607 O   0  0  0  0  0  0  0  0  0  0  0  0
    8.9731  -21.4057   21.3750 C   0  0  0  0  0  0  0  0  0  0  0  0
    8.8640  -20.4653   22.5759 C   0  0  2  0  0  0  0  0  0  0  0  0
    7.4542  -20.1720   22.7237 N   0  0  0  0  0  0  0  0  0  0  0  0
    9.5885  -19.2451   22.2059 C   0  0  0  0  0  0  0  0  0  0  0  0
   10.8368  -19.2831   22.0637 O   0  0  0  0  0  0  0  0  0  0  0  0
    8.9421  -17.9854   21.9927 N   0  0  0  0  0  0  0  0  0  0  0  0
    9.7254  -16.8309   21.6477 C   0  0  1  0  0  0  0  0  0  0  0  0
    9.0240  -15.9992   20.5640 C   0  0  0  0  0  0  0  0  0  0  0  0
    8.7519  -16.8249   19.3688 C   0  0  0  0  0  0  0  0  0  0  0  0
    9.6396  -17.4358   18.7354 O   0  0  0  0  0  0  0  0  0  0  0  0
    9.9896  -15.9662   22.8469 C   0  0  0  0  0  0  0  0  0  0  0  0
   10.2935  -14.7594   22.6706 O   0  0  0  0  0  0  0  0  0  0  0  0
    7.4441  -16.9273   18.9261 O   0  0  0  0  0  0  0  0  0  0  0  0
    6.8323  -11.1632   26.7715 C   0  0  0  0  0  0  0  0  0  0  0  0
    6.8290  -12.9231   26.4027 S   0  0  0  0  0  0  0  0  0  0  0  0
    8.1418  -13.4579   25.3517 C   0  0  0  0  0  0  0  0  0  0  0  0
    8.2777  -14.8808   25.0286 C   0  0  0  0  0  0  0  0  0  0  0  0
    9.5333  -15.6029   25.3191 C   0  0  2  0  0  0  0  0  0  0  0  0
    9.9103  -16.4545   24.1623 N   0  0  0  0  0  0  0  0  0  0  0  0
    9.5756  -16.4598   26.5063 C   0  0  0  0  0  0  0  0  0  0  0  0
    9.2168  -17.6850   26.3744 O   0  0  0  0  0  0  0  0  0  0  0  0
    9.9641  -16.1070   27.7718 O   0  0  0  0  0  0  0  0  0  0  0  0
  2  1  1  0
  2  3  2  0
  4  2  1  0
  5  4  1  0
  5  6  1  6
  7  5  1  0
  7  8  2  0
  9  7  1  0
 10  9  1  0
 10 11  1  6
 12 13  2  0
 12 11  1  0
 14 10  1  0
 14 22  1  0
 15 14  2  0
 16 12  1  0
 18 17  1  0
 19 18  1  0
 20 19  1  0
 21 20  1  6
 21 22  1  0
 21 23  1  0
 23 24  2  0
 23 25  1  0
M  END
$$$$
