NDM.pdb
     RDKit          3D

 25 24  0  0  1  0  0  0  0  0999 V2000
    6.7600  -18.4947   16.8575 N   0  0  0  0  0  0  0  0  0  0  0  0
    7.7237  -18.1660   17.8461 C   0  0  0  0  0  0  0  0  0  0  0  0
    8.8244  -17.6871   17.4959 O   0  0  0  0  0  0  0  0  0  0  0  0
    7.4308  -18.3855   19.2580 C   0  0  0  0  0  0  0  0  0  0  0  0
    7.4200  -17.0418   19.9880 C   0  0  2  0  0  0  0  0  0  0  0  0
    7.8919  -16.0653   19.0292 N   0  0  0  0  0  0  0  0  0  0  0  0
    8.3847  -17.1659   21.0856 C   0  0  0  0  0  0  0  0  0  0  0  0
    8.0905  -17.8530   22.0961 O   0  0  0  0  0  0  0  0  0  0  0  0
    9.6703  -16.5356   21.0724 N   0  0  0  0  0  0  0  0  0  0  0  0
   10.5213  -16.6266   22.2270 C   0  0  1  0  0  0  0  0  0  0  0  0
   11.9542  -16.1933   21.8847 C   0  0  0  0  0  0  0  0  0  0  0  0
   12.5448  -17.0980   20.8763 C   0  0  0  0  0  0  0  0  0  0  0  0
   13.1115  -16.6969   19.8369 O   0  0  0  0  0  0  0  0  0  0  0  0
   10.0039  -15.7876   23.3601 C   0  0  0  0  0  0  0  0  0  0  0  0
    9.6512  -14.6038   23.1278 O   0  0  0  0  0  0  0  0  0  0  0  0
   12.4663  -18.4631   21.0937 O   0  0  0  0  0  0  0  0  0  0  0  0
    7.2030  -10.9930   27.0183 C   0  0  0  0  0  0  0  0  0  0  0  0
    7.3315  -12.7863   26.9903 S   0  0  0  0  0  0  0  0  0  0  0  0
    7.7514  -13.4702   25.4187 C   0  0  0  0  0  0  0  0  0  0  0  0
    7.9891  -14.9110   25.2953 C   0  0  0  0  0  0  0  0  0  0  0  0
    9.2533  -15.5095   25.7708 C   0  0  2  0  0  0  0  0  0  0  0  0
    9.8983  -16.2753   24.6739 N   0  0  0  0  0  0  0  0  0  0  0  0
    9.1990  -16.3998   26.9326 C   0  0  0  0  0  0  0  0  0  0  0  0
    8.8729  -17.6252   26.7342 O   0  0  0  0  0  0  0  0  0  0  0  0
    9.4636  -16.0789   28.2379 O   0  0  0  0  0  0  0  0  0  0  0  0
  2  1  1  0
  2  3  2  0
  4  2  1  0
  5  4  1  0
  5  6  1  6
  7  5  1  0
  7  8  2  0
  9  7  1  0
 10  9  1  0
 10 11  1  6
 12 13  2  0
 12 11  1  0
 14 10  1  0
 14 22  1  0
 15 14  2  0
 16 12  1  0
 18 17  1  0
 19 18  1  0
 20 19  1  0
 21 20  1  6
 21 22  1  0
 21 23  1  0
 23 24  2  0
 23 25  1  0
M  END
$$$$
