NDM.pdb
     RDKit          3D

 25 24  0  0  1  0  0  0  0  0999 V2000
   13.8084  -13.9238   18.3160 N   0  0  0  0  0  0  0  0  0  0  0  0
   13.3771  -14.5201   19.5294 C   0  0  0  0  0  0  0  0  0  0  0  0
   14.2250  -14.8504   20.3871 O   0  0  0  0  0  0  0  0  0  0  0  0
   11.9566  -14.7448   19.7724 C   0  0  0  0  0  0  0  0  0  0  0  0
   11.6742  -16.2477   19.7725 C   0  0  2  0  0  0  0  0  0  0  0  0
   11.0401  -16.5326   18.5029 N   0  0  0  0  0  0  0  0  0  0  0  0
   10.7253  -16.4846   20.8653 C   0  0  0  0  0  0  0  0  0  0  0  0
    9.5245  -16.1383   20.7310 O   0  0  0  0  0  0  0  0  0  0  0  0
   11.0958  -17.1009   22.1035 N   0  0  0  0  0  0  0  0  0  0  0  0
   10.1288  -17.2160   23.1604 C   0  0  1  0  0  0  0  0  0  0  0  0
   10.1165  -18.6395   23.7364 C   0  0  0  0  0  0  0  0  0  0  0  0
   11.4570  -19.2536   23.6353 C   0  0  0  0  0  0  0  0  0  0  0  0
   12.4356  -18.6901   23.0995 O   0  0  0  0  0  0  0  0  0  0  0  0
   10.3993  -16.2340   24.2641 C   0  0  0  0  0  0  0  0  0  0  0  0
   11.3947  -16.4165   25.0093 O   0  0  0  0  0  0  0  0  0  0  0  0
   11.6393  -20.5211   24.1618 O   0  0  0  0  0  0  0  0  0  0  0  0
    6.4919  -10.8712   25.4064 C   0  0  0  0  0  0  0  0  0  0  0  0
    6.3637  -11.8275   26.9238 S   0  0  0  0  0  0  0  0  0  0  0  0
    7.4679  -13.2003   27.0248 C   0  0  0  0  0  0  0  0  0  0  0  0
    8.0508  -13.7533   25.7993 C   0  0  0  0  0  0  0  0  0  0  0  0
    9.2307  -14.6402   25.8598 C   0  0  2  0  0  0  0  0  0  0  0  0
    9.5808  -15.1155   24.4971 N   0  0  0  0  0  0  0  0  0  0  0  0
    9.1566  -15.8269   26.7153 C   0  0  0  0  0  0  0  0  0  0  0  0
    8.5242  -16.8501   26.2676 O   0  0  0  0  0  0  0  0  0  0  0  0
    9.6957  -15.9849   27.9647 O   0  0  0  0  0  0  0  0  0  0  0  0
  2  1  1  0
  2  3  2  0
  4  2  1  0
  5  4  1  0
  5  6  1  6
  7  5  1  0
  7  8  2  0
  9  7  1  0
 10  9  1  0
 10 11  1  1
 12 13  2  0
 12 11  1  0
 14 10  1  0
 14 22  1  0
 15 14  2  0
 16 12  1  0
 18 17  1  0
 19 18  1  0
 20 19  1  0
 21 20  1  6
 21 22  1  0
 21 23  1  0
 23 24  2  0
 23 25  1  0
M  END
$$$$
