NDM.pdb
     RDKit          3D

 25 24  0  0  1  0  0  0  0  0999 V2000
    8.3525  -12.8577   16.7408 N   0  0  0  0  0  0  0  0  0  0  0  0
    7.6051  -14.0619   16.8150 C   0  0  0  0  0  0  0  0  0  0  0  0
    6.8801  -14.3954   15.8524 O   0  0  0  0  0  0  0  0  0  0  0  0
    7.6834  -14.9020   18.0048 C   0  0  0  0  0  0  0  0  0  0  0  0
    8.4748  -14.1710   19.0900 C   0  0  2  0  0  0  0  0  0  0  0  0
    9.7696  -13.8823   18.5107 N   0  0  0  0  0  0  0  0  0  0  0  0
    8.6269  -15.1228   20.1954 C   0  0  0  0  0  0  0  0  0  0  0  0
    7.6265  -15.4314   20.8910 O   0  0  0  0  0  0  0  0  0  0  0  0
    9.8763  -15.7340   20.5354 N   0  0  0  0  0  0  0  0  0  0  0  0
    9.9497  -16.6323   21.6548 C   0  0  1  0  0  0  0  0  0  0  0  0
   11.2506  -17.4474   21.6163 C   0  0  0  0  0  0  0  0  0  0  0  0
   11.2543  -18.3677   20.4599 C   0  0  0  0  0  0  0  0  0  0  0  0
   10.2923  -19.1096   20.1653 O   0  0  0  0  0  0  0  0  0  0  0  0
    9.8621  -15.8944   22.9600 C   0  0  0  0  0  0  0  0  0  0  0  0
   10.7067  -14.9976   23.2087 O   0  0  0  0  0  0  0  0  0  0  0  0
   12.3834  -18.4114   19.6599 O   0  0  0  0  0  0  0  0  0  0  0  0
    6.5297  -11.1581   27.6594 C   0  0  0  0  0  0  0  0  0  0  0  0
    6.9033  -12.0107   26.1210 S   0  0  0  0  0  0  0  0  0  0  0  0
    7.0964  -13.7580   26.2752 C   0  0  0  0  0  0  0  0  0  0  0  0
    7.5173  -14.5461   25.1136 C   0  0  0  0  0  0  0  0  0  0  0  0
    8.7259  -15.3933   25.1758 C   0  0  2  0  0  0  0  0  0  0  0  0
    8.8699  -16.1680   23.9170 N   0  0  0  0  0  0  0  0  0  0  0  0
    8.8381  -16.3523   26.2774 C   0  0  0  0  0  0  0  0  0  0  0  0
    8.3808  -17.5368   26.0900 O   0  0  0  0  0  0  0  0  0  0  0  0
    9.3883  -16.1366   27.5134 O   0  0  0  0  0  0  0  0  0  0  0  0
  2  1  1  0
  2  3  2  0
  4  2  1  0
  5  4  1  0
  5  6  1  6
  7  5  1  0
  7  8  2  0
  9  7  1  0
 10  9  1  0
 10 11  1  1
 12 13  2  0
 12 11  1  0
 14 10  1  0
 14 22  1  0
 15 14  2  0
 16 12  1  0
 18 17  1  0
 19 18  1  0
 20 19  1  0
 21 20  1  6
 21 22  1  0
 21 23  1  0
 23 24  2  0
 23 25  1  0
M  END
$$$$
