YGS.pdb
     RDKit          3D

 23 23  0  0  1  0  0  0  0  0999 V2000
    5.6647  -11.3250   28.2061 O   0  0  0  0  0  0  0  0  0  0  0  0
    6.3847  -11.9861   27.2057 C   0  0  0  0  0  0  0  0  0  0  0  0
    7.6069  -12.5730   27.4548 C   0  0  0  0  0  0  0  0  0  0  0  0
    8.2981  -13.2194   26.4519 C   0  0  0  0  0  0  0  0  0  0  0  0
    7.8085  -13.3119   25.1597 C   0  0  0  0  0  0  0  0  0  0  0  0
    8.5681  -14.0149   24.0841 C   0  0  0  0  0  0  0  0  0  0  0  0
    7.7081  -15.1504   23.5693 C   0  0  2  0  0  0  0  0  0  0  0  0
    7.5069  -16.0642   24.6748 N   0  0  0  0  0  0  0  0  0  0  0  0
    8.3127  -15.8671   22.4505 C   0  0  0  0  0  0  0  0  0  0  0  0
    8.5944  -15.2311   21.3855 O   0  0  0  0  0  0  0  0  0  0  0  0
    6.5850  -12.7228   24.9163 C   0  0  0  0  0  0  0  0  0  0  0  0
    5.8937  -12.0763   25.9194 C   0  0  0  0  0  0  0  0  0  0  0  0
    8.6210  -17.2484   22.4495 N   0  0  0  0  0  0  0  0  0  0  0  0
    9.2195  -17.8576   21.3143 C   0  0  0  0  0  0  0  0  0  0  0  0
   10.6025  -18.3458   21.5663 C   0  0  0  0  0  0  0  0  0  0  0  0
   10.8212  -19.0989   22.5495 O   0  0  0  0  0  0  0  0  0  0  0  0
   13.4302  -17.0728   19.0462 O   0  0  0  0  0  0  0  0  0  0  0  0
   13.7062  -18.3661   19.5155 C   0  0  0  0  0  0  0  0  0  0  0  0
   13.0191  -18.4964   20.8588 C   0  0  2  0  0  0  0  0  0  0  0  0
   11.6751  -17.9899   20.7364 N   0  0  0  0  0  0  0  0  0  0  0  0
   13.8216  -17.7155   21.8361 C   0  0  0  0  0  0  0  0  0  0  0  0
   14.9731  -18.0487   22.1875 O   0  0  0  0  0  0  0  0  0  0  0  0
   13.2540  -16.5752   22.3686 O   0  0  0  0  0  0  0  0  0  0  0  0
  2  1  1  0
  2  3  2  0
  4  3  1  0
  5  4  2  0
  6  5  1  0
  7  6  1  0
  7  8  1  1
  9  7  1  0
  9 13  1  0
 10  9  2  0
 11 12  2  0
 11  5  1  0
 12  2  1  0
 14 13  1  0
 14 15  1  0
 15 20  1  0
 16 15  2  0
 18 17  1  0
 19 21  1  0
 19 18  1  6
 20 19  1  0
 21 23  1  0
 22 21  2  0
M  END
$$$$
