YGS.pdb
     RDKit          3D

 23 23  0  0  1  0  0  0  0  0999 V2000
    5.5356  -11.5916   28.7514 O   0  0  0  0  0  0  0  0  0  0  0  0
    6.2843  -12.0687   27.6706 C   0  0  0  0  0  0  0  0  0  0  0  0
    5.8459  -11.9445   26.3696 C   0  0  0  0  0  0  0  0  0  0  0  0
    6.6020  -12.4230   25.3203 C   0  0  0  0  0  0  0  0  0  0  0  0
    7.8241  -13.0447   25.5148 C   0  0  0  0  0  0  0  0  0  0  0  0
    8.6316  -13.5577   24.3690 C   0  0  0  0  0  0  0  0  0  0  0  0
    7.8931  -14.7343   23.7657 C   0  0  2  0  0  0  0  0  0  0  0  0
    7.9212  -15.8000   24.7461 N   0  0  0  0  0  0  0  0  0  0  0  0
    8.4865  -15.2063   22.5181 C   0  0  0  0  0  0  0  0  0  0  0  0
    8.6025  -14.3993   21.5418 O   0  0  0  0  0  0  0  0  0  0  0  0
    8.2576  -13.1662   26.8189 C   0  0  0  0  0  0  0  0  0  0  0  0
    7.5015  -12.6877   27.8683 C   0  0  0  0  0  0  0  0  0  0  0  0
    8.9570  -16.5224   22.2959 N   0  0  0  0  0  0  0  0  0  0  0  0
    9.5113  -16.8929   21.0416 C   0  0  0  0  0  0  0  0  0  0  0  0
    8.5663  -16.7226   19.9047 C   0  0  0  0  0  0  0  0  0  0  0  0
    7.6437  -17.5611   19.7387 O   0  0  0  0  0  0  0  0  0  0  0  0
    9.1713  -13.5959   17.3635 O   0  0  0  0  0  0  0  0  0  0  0  0
    7.8246  -13.9426   17.5517 C   0  0  0  0  0  0  0  0  0  0  0  0
    7.7990  -15.4195   17.8857 C   0  0  2  0  0  0  0  0  0  0  0  0
    8.6736  -15.6501   19.0081 N   0  0  0  0  0  0  0  0  0  0  0  0
    8.2480  -16.1487   16.6709 C   0  0  0  0  0  0  0  0  0  0  0  0
    9.2975  -16.8251   16.6356 O   0  0  0  0  0  0  0  0  0  0  0  0
    7.4584  -16.0635   15.5416 O   0  0  0  0  0  0  0  0  0  0  0  0
  2  1  1  0
  2  3  2  0
  4  3  1  0
  5  4  2  0
  6  5  1  0
  7  6  1  0
  7  8  1  1
  9  7  1  0
  9 13  1  0
 10  9  2  0
 11 12  2  0
 11  5  1  0
 12  2  1  0
 14 13  1  0
 14 15  1  0
 15 20  1  0
 16 15  2  0
 18 17  1  0
 19 21  1  0
 19 18  1  6
 20 19  1  0
 21 23  1  0
 22 21  2  0
M  END
$$$$
