YGS.pdb
     RDKit          3D

 23 23  0  0  1  0  0  0  0  0999 V2000
   11.0966  -15.1885   30.5413 O   0  0  0  0  0  0  0  0  0  0  0  0
   10.2472  -15.0201   29.4429 C   0  0  0  0  0  0  0  0  0  0  0  0
    9.7557  -16.0933   28.7310 C   0  0  0  0  0  0  0  0  0  0  0  0
    8.9194  -15.9019   27.6514 C   0  0  0  0  0  0  0  0  0  0  0  0
    8.5344  -14.6398   27.2310 C   0  0  0  0  0  0  0  0  0  0  0  0
    7.6284  -14.4481   26.0603 C   0  0  0  0  0  0  0  0  0  0  0  0
    8.1439  -15.3065   24.9240 C   0  0  2  0  0  0  0  0  0  0  0  0
    9.5395  -14.9676   24.7365 N   0  0  0  0  0  0  0  0  0  0  0  0
    7.4211  -15.0979   23.6729 C   0  0  0  0  0  0  0  0  0  0  0  0
    6.2050  -15.4617   23.5907 O   0  0  0  0  0  0  0  0  0  0  0  0
    9.0293  -13.5696   27.9472 C   0  0  0  0  0  0  0  0  0  0  0  0
    9.8657  -13.7610   29.0270 C   0  0  0  0  0  0  0  0  0  0  0  0
    7.9735  -14.5087   22.5108 N   0  0  0  0  0  0  0  0  0  0  0  0
    7.2712  -14.5415   21.2764 C   0  0  0  0  0  0  0  0  0  0  0  0
    7.7821  -15.5730   20.3333 C   0  0  0  0  0  0  0  0  0  0  0  0
    6.9653  -16.2501   19.6582 O   0  0  0  0  0  0  0  0  0  0  0  0
   11.7019  -15.8736   20.1257 O   0  0  0  0  0  0  0  0  0  0  0  0
   11.1357  -16.4238   18.9656 C   0  0  0  0  0  0  0  0  0  0  0  0
    9.7216  -16.8310   19.3237 C   0  0  2  0  0  0  0  0  0  0  0  0
    9.1541  -15.8142   20.1735 N   0  0  0  0  0  0  0  0  0  0  0  0
    9.8076  -18.1463   20.0103 C   0  0  0  0  0  0  0  0  0  0  0  0
    9.4227  -18.3239   21.1853 O   0  0  0  0  0  0  0  0  0  0  0  0
   10.3387  -19.2068   19.3036 O   0  0  0  0  0  0  0  0  0  0  0  0
  2  1  1  0
  2  3  2  0
  4  3  1  0
  5  4  2  0
  6  5  1  0
  7  6  1  0
  7  8  1  6
  9  7  1  0
  9 13  1  0
 10  9  2  0
 11 12  2  0
 11  5  1  0
 12  2  1  0
 14 13  1  0
 14 15  1  0
 15 20  1  0
 16 15  2  0
 18 17  1  0
 19 21  1  0
 19 18  1  1
 20 19  1  0
 21 23  1  0
 22 21  2  0
M  END
$$$$
