YGS.pdb
     RDKit          3D

 23 23  0  0  1  0  0  0  0  0999 V2000
    6.5001  -10.9825   28.3893 O   0  0  0  0  0  0  0  0  0  0  0  0
    6.7231  -11.8497   27.3147 C   0  0  0  0  0  0  0  0  0  0  0  0
    5.7645  -12.7447   26.8901 C   0  0  0  0  0  0  0  0  0  0  0  0
    6.0078  -13.5898   25.8279 C   0  0  0  0  0  0  0  0  0  0  0  0
    7.2105  -13.5845   25.1413 C   0  0  0  0  0  0  0  0  0  0  0  0
    7.4595  -14.5054   23.9932 C   0  0  0  0  0  0  0  0  0  0  0  0
    7.2880  -15.9266   24.4875 C   0  0  2  0  0  0  0  0  0  0  0  0
    8.3083  -16.1524   25.4904 N   0  0  0  0  0  0  0  0  0  0  0  0
    7.4191  -16.9228   23.4284 C   0  0  0  0  0  0  0  0  0  0  0  0
    8.4752  -17.6291   23.3681 O   0  0  0  0  0  0  0  0  0  0  0  0
    8.1659  -12.6868   25.5707 C   0  0  0  0  0  0  0  0  0  0  0  0
    7.9227  -11.8415   26.6330 C   0  0  0  0  0  0  0  0  0  0  0  0
    6.4437  -17.1770   22.4349 N   0  0  0  0  0  0  0  0  0  0  0  0
    6.7088  -18.0816   21.3722 C   0  0  0  0  0  0  0  0  0  0  0  0
    7.4629  -17.4660   20.2467 C   0  0  0  0  0  0  0  0  0  0  0  0
    7.9220  -18.2021   19.3362 O   0  0  0  0  0  0  0  0  0  0  0  0
    7.0827  -13.7867   20.0584 O   0  0  0  0  0  0  0  0  0  0  0  0
    8.1083  -13.9693   19.1181 C   0  0  0  0  0  0  0  0  0  0  0  0
    8.5088  -15.4280   19.1902 C   0  0  2  0  0  0  0  0  0  0  0  0
    7.6784  -16.0826   20.1699 N   0  0  0  0  0  0  0  0  0  0  0  0
    9.9468  -15.4669   19.5638 C   0  0  0  0  0  0  0  0  0  0  0  0
   10.3574  -15.9801   20.6261 O   0  0  0  0  0  0  0  0  0  0  0  0
   10.8542  -14.9069   18.6868 O   0  0  0  0  0  0  0  0  0  0  0  0
  2  1  1  0
  2  3  2  0
  4  3  1  0
  5  4  2  0
  6  5  1  0
  7  6  1  0
  7  8  1  1
  9  7  1  0
  9 13  1  0
 10  9  2  0
 11 12  2  0
 11  5  1  0
 12  2  1  0
 14 13  1  0
 14 15  1  0
 15 20  1  0
 16 15  2  0
 18 17  1  0
 19 21  1  0
 19 18  1  1
 20 19  1  0
 21 23  1  0
 22 21  2  0
M  END
$$$$
