YGS.pdb
     RDKit          3D

 23 23  0  0  1  0  0  0  0  0999 V2000
    5.7368  -12.8284   15.3280 O   0  0  0  0  0  0  0  0  0  0  0  0
    6.5449  -13.3038   16.3659 C   0  0  0  0  0  0  0  0  0  0  0  0
    7.7376  -13.9506   16.1225 C   0  0  0  0  0  0  0  0  0  0  0  0
    8.5173  -14.4105   17.1628 C   0  0  0  0  0  0  0  0  0  0  0  0
    8.1490  -14.2494   18.4880 C   0  0  0  0  0  0  0  0  0  0  0  0
    9.0035  -14.7526   19.6038 C   0  0  0  0  0  0  0  0  0  0  0  0
    8.9807  -16.2664   19.5646 C   0  0  2  0  0  0  0  0  0  0  0  0
    7.6587  -16.6812   19.9865 N   0  0  0  0  0  0  0  0  0  0  0  0
    9.9820  -16.8786   20.4328 C   0  0  0  0  0  0  0  0  0  0  0  0
    9.6965  -17.0943   21.6534 O   0  0  0  0  0  0  0  0  0  0  0  0
    6.9545  -13.6014   18.7255 C   0  0  0  0  0  0  0  0  0  0  0  0
    6.1747  -13.1414   17.6851 C   0  0  0  0  0  0  0  0  0  0  0  0
   11.2801  -17.2634   20.0207 N   0  0  0  0  0  0  0  0  0  0  0  0
   12.1604  -17.9245   20.9185 C   0  0  0  0  0  0  0  0  0  0  0  0
   12.8034  -17.0072   21.8981 C   0  0  0  0  0  0  0  0  0  0  0  0
   13.2981  -15.9234   21.4954 O   0  0  0  0  0  0  0  0  0  0  0  0
   12.0901  -17.5959   25.7608 O   0  0  0  0  0  0  0  0  0  0  0  0
   12.5629  -16.3184   25.4236 C   0  0  0  0  0  0  0  0  0  0  0  0
   13.5190  -16.5014   24.2636 C   0  0  2  0  0  0  0  0  0  0  0  0
   12.8749  -17.3161   23.2639 N   0  0  0  0  0  0  0  0  0  0  0  0
   14.7425  -17.1483   24.8053 C   0  0  0  0  0  0  0  0  0  0  0  0
   15.5382  -16.5612   25.5686 O   0  0  0  0  0  0  0  0  0  0  0  0
   14.9948  -18.4551   24.4385 O   0  0  0  0  0  0  0  0  0  0  0  0
  2  1  1  0
  2  3  2  0
  4  3  1  0
  5  4  2  0
  6  5  1  0
  7  6  1  0
  7  8  1  1
  9  7  1  0
  9 13  1  0
 10  9  2  0
 11 12  2  0
 11  5  1  0
 12  2  1  0
 14 13  1  0
 14 15  1  0
 15 20  1  0
 16 15  2  0
 18 17  1  0
 19 21  1  0
 19 18  1  1
 20 19  1  0
 21 23  1  0
 22 21  2  0
M  END
$$$$
