YGS.pdb
     RDKit          3D

 23 23  0  0  1  0  0  0  0  0999 V2000
   11.4096  -14.9610   30.2006 O   0  0  0  0  0  0  0  0  0  0  0  0
   10.4499  -15.0372   29.1859 C   0  0  0  0  0  0  0  0  0  0  0  0
    9.5680  -16.0928   29.0953 C   0  0  0  0  0  0  0  0  0  0  0  0
    8.6304  -16.1457   28.0856 C   0  0  0  0  0  0  0  0  0  0  0  0
    8.5263  -15.1557   27.1228 C   0  0  0  0  0  0  0  0  0  0  0  0
    7.5061  -15.2266   26.0354 C   0  0  0  0  0  0  0  0  0  0  0  0
    7.2057  -16.6871   25.7700 C   0  0  2  0  0  0  0  0  0  0  0  0
    8.3857  -17.4376   26.1469 N   0  0  0  0  0  0  0  0  0  0  0  0
    6.8805  -16.9621   24.3737 C   0  0  0  0  0  0  0  0  0  0  0  0
    6.0076  -16.2466   23.7873 O   0  0  0  0  0  0  0  0  0  0  0  0
    9.4115  -14.1019   27.2185 C   0  0  0  0  0  0  0  0  0  0  0  0
   10.3492  -14.0489   28.2283 C   0  0  0  0  0  0  0  0  0  0  0  0
    7.4705  -17.9859   23.5946 N   0  0  0  0  0  0  0  0  0  0  0  0
    7.2652  -18.0385   22.1900 C   0  0  0  0  0  0  0  0  0  0  0  0
    8.4429  -17.5816   21.4034 C   0  0  0  0  0  0  0  0  0  0  0  0
    8.3847  -17.5857   20.1471 O   0  0  0  0  0  0  0  0  0  0  0  0
   11.1578  -15.4219   23.1501 O   0  0  0  0  0  0  0  0  0  0  0  0
   11.3660  -15.5167   21.7656 C   0  0  0  0  0  0  0  0  0  0  0  0
   10.8660  -16.8826   21.3439 C   0  0  2  0  0  0  0  0  0  0  0  0
    9.6220  -17.1443   22.0235 N   0  0  0  0  0  0  0  0  0  0  0  0
   11.9189  -17.8647   21.7120 C   0  0  0  0  0  0  0  0  0  0  0  0
   11.7305  -18.7827   22.5379 O   0  0  0  0  0  0  0  0  0  0  0  0
   13.1528  -17.7421   21.1049 O   0  0  0  0  0  0  0  0  0  0  0  0
  2  1  1  0
  2  3  2  0
  4  3  1  0
  5  4  2  0
  6  5  1  0
  7  6  1  0
  7  8  1  6
  9  7  1  0
  9 13  1  0
 10  9  2  0
 11 12  2  0
 11  5  1  0
 12  2  1  0
 14 13  1  0
 14 15  1  0
 15 20  1  0
 16 15  2  0
 18 17  1  0
 19 21  1  0
 19 18  1  1
 20 19  1  0
 21 23  1  0
 22 21  2  0
M  END
$$$$
