YGS.pdb
     RDKit          3D

 23 23  0  0  1  0  0  0  0  0999 V2000
    5.0743  -11.2726   28.1197 O   0  0  0  0  0  0  0  0  0  0  0  0
    5.8871  -11.8445   27.1355 C   0  0  0  0  0  0  0  0  0  0  0  0
    5.8328  -11.4381   25.8194 C   0  0  0  0  0  0  0  0  0  0  0  0
    6.6445  -12.0173   24.8669 C   0  0  0  0  0  0  0  0  0  0  0  0
    7.5442  -13.0233   25.1772 C   0  0  0  0  0  0  0  0  0  0  0  0
    8.4166  -13.6410   24.1352 C   0  0  0  0  0  0  0  0  0  0  0  0
    7.5836  -14.6401   23.3596 C   0  0  2  0  0  0  0  0  0  0  0  0
    7.2368  -15.7055   24.2773 N   0  0  0  0  0  0  0  0  0  0  0  0
    8.2838  -15.2002   22.2075 C   0  0  0  0  0  0  0  0  0  0  0  0
    8.7142  -14.4173   21.3021 O   0  0  0  0  0  0  0  0  0  0  0  0
    7.5941  -13.4259   26.4957 C   0  0  0  0  0  0  0  0  0  0  0  0
    6.7824  -12.8467   27.4484 C   0  0  0  0  0  0  0  0  0  0  0  0
    8.5316  -16.5790   22.0063 N   0  0  0  0  0  0  0  0  0  0  0  0
    9.3220  -17.0222   20.9123 C   0  0  0  0  0  0  0  0  0  0  0  0
   10.7818  -17.0252   21.2012 C   0  0  0  0  0  0  0  0  0  0  0  0
   11.5978  -17.1573   20.2534 O   0  0  0  0  0  0  0  0  0  0  0  0
   11.7592  -16.8590   25.0359 O   0  0  0  0  0  0  0  0  0  0  0  0
   12.8454  -16.4224   24.2620 C   0  0  0  0  0  0  0  0  0  0  0  0
   12.6629  -17.0188   22.8820 C   0  0  2  0  0  0  0  0  0  0  0  0
   11.2780  -16.8845   22.5050 N   0  0  0  0  0  0  0  0  0  0  0  0
   13.0822  -18.4422   22.9636 C   0  0  0  0  0  0  0  0  0  0  0  0
   12.2969  -19.3927   22.7633 O   0  0  0  0  0  0  0  0  0  0  0  0
   14.4009  -18.7070   23.2755 O   0  0  0  0  0  0  0  0  0  0  0  0
  2  1  1  0
  2  3  2  0
  4  3  1  0
  5  4  2  0
  6  5  1  0
  7  6  1  0
  7  8  1  1
  9  7  1  0
  9 13  1  0
 10  9  2  0
 11 12  2  0
 11  5  1  0
 12  2  1  0
 14 13  1  0
 14 15  1  0
 15 20  1  0
 16 15  2  0
 18 17  1  0
 19 21  1  0
 19 18  1  1
 20 19  1  0
 21 23  1  0
 22 21  2  0
M  END
$$$$
