YGS.pdb
     RDKit          3D

 23 23  0  0  1  0  0  0  0  0999 V2000
   10.9671  -13.9497   30.3601 O   0  0  0  0  0  0  0  0  0  0  0  0
   10.4181  -14.5023   29.1984 C   0  0  0  0  0  0  0  0  0  0  0  0
   10.5610  -15.8382   28.8895 C   0  0  0  0  0  0  0  0  0  0  0  0
   10.0105  -16.3600   27.7379 C   0  0  0  0  0  0  0  0  0  0  0  0
    9.2953  -15.5813   26.8435 C   0  0  0  0  0  0  0  0  0  0  0  0
    8.7050  -16.1603   25.6007 C   0  0  0  0  0  0  0  0  0  0  0  0
    7.6641  -15.1906   25.0811 C   0  0  2  0  0  0  0  0  0  0  0  0
    6.7726  -14.8952   26.1837 N   0  0  0  0  0  0  0  0  0  0  0  0
    6.8925  -15.7216   23.9614 C   0  0  0  0  0  0  0  0  0  0  0  0
    5.6274  -15.5894   23.9614 O   0  0  0  0  0  0  0  0  0  0  0  0
    9.1556  -14.2453   27.1578 C   0  0  0  0  0  0  0  0  0  0  0  0
    9.7061  -13.7234   28.3095 C   0  0  0  0  0  0  0  0  0  0  0  0
    7.4476  -16.3901   22.8443 N   0  0  0  0  0  0  0  0  0  0  0  0
    6.6916  -16.5664   21.6547 C   0  0  0  0  0  0  0  0  0  0  0  0
    7.4442  -16.2175   20.4192 C   0  0  0  0  0  0  0  0  0  0  0  0
    7.6675  -17.1088   19.5606 O   0  0  0  0  0  0  0  0  0  0  0  0
    7.3083  -12.7694   18.9244 O   0  0  0  0  0  0  0  0  0  0  0  0
    8.6802  -13.0596   18.8715 C   0  0  0  0  0  0  0  0  0  0  0  0
    8.8195  -14.5465   19.1232 C   0  0  2  0  0  0  0  0  0  0  0  0
    7.9145  -14.9181   20.1819 N   0  0  0  0  0  0  0  0  0  0  0  0
   10.2380  -14.7952   19.4903 C   0  0  0  0  0  0  0  0  0  0  0  0
   10.5769  -15.3054   20.5789 O   0  0  0  0  0  0  0  0  0  0  0  0
   11.2102  -14.4406   18.5763 O   0  0  0  0  0  0  0  0  0  0  0  0
  2  1  1  0
  2  3  2  0
  4  3  1  0
  5  4  2  0
  6  5  1  0
  7  6  1  0
  7  8  1  1
  9  7  1  0
  9 13  1  0
 10  9  2  0
 11 12  2  0
 11  5  1  0
 12  2  1  0
 14 13  1  0
 14 15  1  0
 15 20  1  0
 16 15  2  0
 18 17  1  0
 19 21  1  0
 19 18  1  1
 20 19  1  0
 21 23  1  0
 22 21  2  0
M  END
$$$$
