YGS.pdb
     RDKit          3D

 23 23  0  0  1  0  0  0  0  0999 V2000
   10.5708  -14.4814   30.5433 O   0  0  0  0  0  0  0  0  0  0  0  0
   10.0245  -14.4950   29.2558 C   0  0  0  0  0  0  0  0  0  0  0  0
    9.0074  -13.6407   28.8871 C   0  0  0  0  0  0  0  0  0  0  0  0
    8.4849  -13.6730   27.6114 C   0  0  0  0  0  0  0  0  0  0  0  0
    8.9474  -14.5525   26.6467 C   0  0  0  0  0  0  0  0  0  0  0  0
    8.3719  -14.5760   25.2696 C   0  0  0  0  0  0  0  0  0  0  0  0
    7.2696  -15.6141   25.2406 C   0  0  2  0  0  0  0  0  0  0  0  0
    7.6755  -16.6878   26.1238 N   0  0  0  0  0  0  0  0  0  0  0  0
    7.0210  -16.1508   23.9060 C   0  0  0  0  0  0  0  0  0  0  0  0
    6.7006  -15.3549   22.9668 O   0  0  0  0  0  0  0  0  0  0  0  0
    9.9653  -15.4050   27.0214 C   0  0  0  0  0  0  0  0  0  0  0  0
   10.4879  -15.3727   28.2973 C   0  0  0  0  0  0  0  0  0  0  0  0
    7.1085  -17.5198   23.5578 N   0  0  0  0  0  0  0  0  0  0  0  0
    7.0028  -17.9322   22.2026 C   0  0  0  0  0  0  0  0  0  0  0  0
    8.3193  -18.0702   21.5227 C   0  0  0  0  0  0  0  0  0  0  0  0
    9.3747  -17.8625   22.1742 O   0  0  0  0  0  0  0  0  0  0  0  0
   11.4883  -17.3747   18.6009 O   0  0  0  0  0  0  0  0  0  0  0  0
   10.3107  -17.2026   19.3445 C   0  0  0  0  0  0  0  0  0  0  0  0
    9.6549  -18.5643   19.4406 C   0  0  2  0  0  0  0  0  0  0  0  0
    8.4195  -18.4267   20.1704 N   0  0  0  0  0  0  0  0  0  0  0  0
   10.6147  -19.4620   20.1347 C   0  0  0  0  0  0  0  0  0  0  0  0
   10.8621  -19.3752   21.3560 O   0  0  0  0  0  0  0  0  0  0  0  0
   11.2514  -20.4280   19.3813 O   0  0  0  0  0  0  0  0  0  0  0  0
  2  1  1  0
  2  3  2  0
  4  3  1  0
  5  4  2  0
  6  5  1  0
  7  6  1  0
  7  8  1  1
  9  7  1  0
  9 13  1  0
 10  9  2  0
 11 12  2  0
 11  5  1  0
 12  2  1  0
 14 13  1  0
 14 15  1  0
 15 20  1  0
 16 15  2  0
 18 17  1  0
 19 21  1  0
 19 18  1  1
 20 19  1  0
 21 23  1  0
 22 21  2  0
M  END
$$$$
