YGS.pdb
     RDKit          3D

 23 23  0  0  1  0  0  0  0  0999 V2000
    6.2183  -11.6202   27.9644 O   0  0  0  0  0  0  0  0  0  0  0  0
    6.5642  -12.1667   26.7243 C   0  0  0  0  0  0  0  0  0  0  0  0
    6.5418  -13.5259   26.4956 C   0  0  0  0  0  0  0  0  0  0  0  0
    6.8871  -14.0411   25.2640 C   0  0  0  0  0  0  0  0  0  0  0  0
    7.2692  -13.2324   24.2067 C   0  0  0  0  0  0  0  0  0  0  0  0
    7.6403  -13.8045   22.8789 C   0  0  0  0  0  0  0  0  0  0  0  0
    8.0137  -15.2580   23.0834 C   0  0  2  0  0  0  0  0  0  0  0  0
    9.1929  -15.2782   23.9241 N   0  0  0  0  0  0  0  0  0  0  0  0
    8.2952  -15.9598   21.8347 C   0  0  0  0  0  0  0  0  0  0  0  0
    7.3302  -16.2721   21.0671 O   0  0  0  0  0  0  0  0  0  0  0  0
    7.2897  -11.8731   24.4414 C   0  0  0  0  0  0  0  0  0  0  0  0
    6.9444  -11.3577   25.6732 C   0  0  0  0  0  0  0  0  0  0  0  0
    9.5869  -16.3331   21.3927 N   0  0  0  0  0  0  0  0  0  0  0  0
    9.7626  -17.0180   20.1607 C   0  0  0  0  0  0  0  0  0  0  0  0
   10.6902  -18.1777   20.2567 C   0  0  0  0  0  0  0  0  0  0  0  0
   10.5208  -19.0293   21.1665 O   0  0  0  0  0  0  0  0  0  0  0  0
   14.4597  -20.4401   18.2224 O   0  0  0  0  0  0  0  0  0  0  0  0
   13.6135  -19.3210   18.1947 C   0  0  0  0  0  0  0  0  0  0  0  0
   12.6965  -19.4402   19.3941 C   0  0  2  0  0  0  0  0  0  0  0  0
   11.7530  -18.3510   19.3587 N   0  0  0  0  0  0  0  0  0  0  0  0
   13.5558  -19.3935   20.6058 C   0  0  0  0  0  0  0  0  0  0  0  0
   13.6724  -18.3719   21.3150 O   0  0  0  0  0  0  0  0  0  0  0  0
   14.2479  -20.5382   20.9475 O   0  0  0  0  0  0  0  0  0  0  0  0
  2  1  1  0
  2  3  2  0
  4  3  1  0
  5  4  2  0
  6  5  1  0
  7  6  1  0
  7  8  1  1
  9  7  1  0
  9 13  1  0
 10  9  2  0
 11 12  2  0
 11  5  1  0
 12  2  1  0
 14 13  1  0
 14 15  1  0
 15 20  1  0
 16 15  2  0
 18 17  1  0
 19 21  1  0
 19 18  1  6
 20 19  1  0
 21 23  1  0
 22 21  2  0
M  END
$$$$
