IPQ.pdb
     RDKit          3D

 25 25  0  0  1  0  0  0  0  0999 V2000
   24.8321  -14.4923  -14.8561 C   0  0  0  0  0  0  0  0  0  0  0  0
   23.6302  -14.7113  -15.7123 C   0  0  0  0  0  0  0  0  0  0  0  0
   22.8168  -13.4382  -15.8145 C   0  0  2  0  0  0  0  0  0  0  0  0
   22.2392  -13.1576  -14.4467 C   0  0  0  0  0  0  0  0  0  0  0  0
   21.7424  -13.5657  -16.8698 C   0  0  2  0  0  0  0  0  0  0  0  0
   22.2843  -14.1635  -18.0404 N   0  0  0  0  0  0  0  0  0  0  0  0
   20.9863  -12.3225  -17.0678 C   0  0  0  0  0  0  0  0  0  0  0  0
   21.5364  -11.3527  -17.6730 O   0  0  0  0  0  0  0  0  0  0  0  0
   19.6462  -12.0911  -16.6297 N   0  0  0  0  0  0  0  0  0  0  0  0
   18.7926  -12.9821  -15.8758 C   0  0  0  0  0  0  0  0  0  0  0  0
   17.3657  -12.5568  -16.0513 C   0  0  0  0  0  0  0  0  0  0  0  0
   17.4611  -11.3298  -16.9320 C   0  0  0  0  0  0  0  0  0  0  0  0
   18.8757  -10.8807  -16.8599 C   0  0  1  0  0  0  0  0  0  0  0  0
   19.1504   -9.8420  -15.8542 C   0  0  0  0  0  0  0  0  0  0  0  0
   19.5315  -10.1999  -14.7105 O   0  0  0  0  0  0  0  0  0  0  0  0
   23.2152   -5.5615  -16.0412 N   0  0  0  0  0  0  0  0  0  0  0  0
   22.4226   -5.1479  -14.9331 C   0  0  0  0  0  0  0  0  0  0  0  0
   22.8954   -4.2293  -14.2393 O   0  0  0  0  0  0  0  0  0  0  0  0
   21.1304   -5.7539  -14.6084 C   0  0  0  0  0  0  0  0  0  0  0  0
   20.6012   -6.8272  -15.4666 C   0  0  0  0  0  0  0  0  0  0  0  0
   19.2800   -7.4318  -15.0843 C   0  0  2  0  0  0  0  0  0  0  0  0
   19.0123   -8.4514  -16.0931 N   0  0  0  0  0  0  0  0  0  0  0  0
   18.1989   -6.5080  -14.8247 C   0  0  0  0  0  0  0  0  0  0  0  0
   17.3891   -6.0733  -15.8595 O   0  0  0  0  0  0  0  0  0  0  0  0
   17.9706   -6.0771  -13.6744 O   0  0  0  0  0  0  0  0  0  0  0  0
  2  1  1  0
  2  3  1  0
  3  5  1  0
  3  4  1  1
  5  6  1  6
  7  5  1  0
  7  8  2  0
  9  7  1  0
 10  9  1  0
 10 11  1  0
 12 13  1  0
 12 11  1  0
 13  9  1  0
 13 14  1  1
 15 14  2  0
 16 17  1  0
 17 18  2  0
 19 17  1  0
 19 20  1  0
 21 20  1  6
 21 22  1  0
 22 14  1  0
 23 21  1  0
 23 24  1  0
 25 23  2  0
M  END
$$$$
