IPQ.pdb
     RDKit          3D

 25 25  0  0  1  0  0  0  0  0999 V2000
   25.1206  -24.4435  -14.8295 C   0  0  0  0  0  0  0  0  0  0  0  0
   25.8066  -23.4512  -13.9520 C   0  0  0  0  0  0  0  0  0  0  0  0
   25.2354  -22.0667  -14.1752 C   0  0  2  0  0  0  0  0  0  0  0  0
   25.4642  -21.7096  -15.6255 C   0  0  0  0  0  0  0  0  0  0  0  0
   25.8655  -21.0635  -13.2367 C   0  0  2  0  0  0  0  0  0  0  0  0
   25.8468  -21.5680  -11.9077 N   0  0  0  0  0  0  0  0  0  0  0  0
   25.3434  -19.7033  -13.4208 C   0  0  0  0  0  0  0  0  0  0  0  0
   24.2999  -19.3501  -12.7918 O   0  0  0  0  0  0  0  0  0  0  0  0
   25.9157  -18.7057  -14.2684 N   0  0  0  0  0  0  0  0  0  0  0  0
   27.1649  -18.7678  -14.9941 C   0  0  0  0  0  0  0  0  0  0  0  0
   27.5954  -17.3754  -15.3460 C   0  0  0  0  0  0  0  0  0  0  0  0
   26.4820  -16.5060  -14.8033 C   0  0  0  0  0  0  0  0  0  0  0  0
   25.3273  -17.4124  -14.5731 C   0  0  1  0  0  0  0  0  0  0  0  0
   24.3595  -17.4838  -15.6795 C   0  0  0  0  0  0  0  0  0  0  0  0
   24.4338  -18.4505  -16.4802 O   0  0  0  0  0  0  0  0  0  0  0  0
   18.9254  -19.3802  -16.0064 N   0  0  0  0  0  0  0  0  0  0  0  0
   19.4476  -18.6189  -14.9226 C   0  0  0  0  0  0  0  0  0  0  0  0
   18.7363  -18.5661  -13.9027 O   0  0  0  0  0  0  0  0  0  0  0  0
   20.7372  -17.9291  -14.9828 C   0  0  0  0  0  0  0  0  0  0  0  0
   21.5569  -18.0376  -16.2014 C   0  0  0  0  0  0  0  0  0  0  0  0
   22.1697  -16.7754  -16.7386 C   0  0  2  0  0  0  0  0  0  0  0  0
   23.3395  -16.5249  -15.9032 N   0  0  0  0  0  0  0  0  0  0  0  0
   21.2780  -15.6524  -16.9213 C   0  0  0  0  0  0  0  0  0  0  0  0
   20.2905  -15.6961  -17.8901 O   0  0  0  0  0  0  0  0  0  0  0  0
   21.3754  -14.6213  -16.2225 O   0  0  0  0  0  0  0  0  0  0  0  0
  2  1  1  0
  2  3  1  0
  3  5  1  0
  3  4  1  6
  5  6  1  1
  7  5  1  0
  7  8  2  0
  9  7  1  0
 10  9  1  0
 10 11  1  0
 12 13  1  0
 12 11  1  0
 13  9  1  0
 13 14  1  6
 15 14  2  0
 16 17  1  0
 17 18  2  0
 19 17  1  0
 19 20  1  0
 21 20  1  1
 21 22  1  0
 22 14  1  0
 23 21  1  0
 23 24  1  0
 25 23  2  0
M  END
$$$$
