IPQ.pdb
     RDKit          3D

 25 25  0  0  1  0  0  0  0  0999 V2000
   24.2256  -21.7464  -17.9294 C   0  0  0  0  0  0  0  0  0  0  0  0
   25.1665  -22.0416  -16.8101 C   0  0  0  0  0  0  0  0  0  0  0  0
   24.4020  -22.2487  -15.5195 C   0  0  2  0  0  0  0  0  0  0  0  0
   23.6029  -20.9930  -15.2589 C   0  0  0  0  0  0  0  0  0  0  0  0
   25.3409  -22.5715  -14.3801 C   0  0  2  0  0  0  0  0  0  0  0  0
   26.2352  -23.6056  -14.7699 N   0  0  0  0  0  0  0  0  0  0  0  0
   24.6429  -22.7659  -13.1028 C   0  0  0  0  0  0  0  0  0  0  0  0
   24.1389  -23.8997  -12.8388 O   0  0  0  0  0  0  0  0  0  0  0  0
   24.4701  -21.7682  -12.0948 N   0  0  0  0  0  0  0  0  0  0  0  0
   24.8922  -20.3857  -12.1328 C   0  0  0  0  0  0  0  0  0  0  0  0
   24.9470  -19.8528  -10.7325 C   0  0  0  0  0  0  0  0  0  0  0  0
   24.4878  -21.0192   -9.8848 C   0  0  0  0  0  0  0  0  0  0  0  0
   23.8123  -21.9621  -10.8136 C   0  0  1  0  0  0  0  0  0  0  0  0
   22.3514  -21.8092  -10.9051 C   0  0  0  0  0  0  0  0  0  0  0  0
   21.8703  -21.2342  -11.9146 O   0  0  0  0  0  0  0  0  0  0  0  0
   18.2439  -24.4817   -6.6149 N   0  0  0  0  0  0  0  0  0  0  0  0
   17.4681  -24.1105   -7.7496 C   0  0  0  0  0  0  0  0  0  0  0  0
   16.2500  -24.3556   -7.6791 O   0  0  0  0  0  0  0  0  0  0  0  0
   18.0464  -23.4819   -8.9382 C   0  0  0  0  0  0  0  0  0  0  0  0
   19.4804  -23.1469   -8.9515 C   0  0  0  0  0  0  0  0  0  0  0  0
   20.0095  -22.4146  -10.1519 C   0  0  2  0  0  0  0  0  0  0  0  0
   21.4430  -22.2723   -9.9200 N   0  0  0  0  0  0  0  0  0  0  0  0
   19.3127  -21.2055  -10.5288 C   0  0  0  0  0  0  0  0  0  0  0  0
   18.3402  -21.2387  -11.5131 O   0  0  0  0  0  0  0  0  0  0  0  0
   19.5686  -20.1089   -9.9875 O   0  0  0  0  0  0  0  0  0  0  0  0
  2  1  1  0
  2  3  1  0
  3  5  1  0
  3  4  1  1
  5  6  1  6
  7  5  1  0
  7  8  2  0
  9  7  1  0
 10  9  1  0
 10 11  1  0
 12 13  1  0
 12 11  1  0
 13  9  1  0
 13 14  1  6
 15 14  2  0
 16 17  1  0
 17 18  2  0
 19 17  1  0
 19 20  1  0
 21 20  1  1
 21 22  1  0
 22 14  1  0
 23 21  1  0
 23 24  1  0
 25 23  2  0
M  END
$$$$
