IPQ.pdb
     RDKit          3D

 25 25  0  0  1  0  0  0  0  0999 V2000
   24.2975  -21.1419   -8.4414 C   0  0  0  0  0  0  0  0  0  0  0  0
   25.1478  -20.1021   -9.0903 C   0  0  0  0  0  0  0  0  0  0  0  0
   25.0801  -20.2312  -10.5975 C   0  0  2  0  0  0  0  0  0  0  0  0
   25.6980  -21.5596  -10.9674 C   0  0  0  0  0  0  0  0  0  0  0  0
   25.7779  -19.0725  -11.2718 C   0  0  2  0  0  0  0  0  0  0  0  0
   25.3040  -17.8447  -10.7340 N   0  0  0  0  0  0  0  0  0  0  0  0
   25.7790  -19.1808  -12.7364 C   0  0  0  0  0  0  0  0  0  0  0  0
   24.7717  -18.7692  -13.3885 O   0  0  0  0  0  0  0  0  0  0  0  0
   26.8398  -19.7236  -13.5245 N   0  0  0  0  0  0  0  0  0  0  0  0
   28.0706  -20.3256  -13.0621 C   0  0  0  0  0  0  0  0  0  0  0  0
   29.0712  -20.3114  -14.1786 C   0  0  0  0  0  0  0  0  0  0  0  0
   28.3143  -19.6911  -15.3329 C   0  0  0  0  0  0  0  0  0  0  0  0
   26.8746  -19.7803  -14.9762 C   0  0  1  0  0  0  0  0  0  0  0  0
   26.1715  -20.9587  -15.5078 C   0  0  0  0  0  0  0  0  0  0  0  0
   26.5539  -22.1002  -15.1444 O   0  0  0  0  0  0  0  0  0  0  0  0
   20.7767  -22.8200  -14.3470 N   0  0  0  0  0  0  0  0  0  0  0  0
   21.2997  -21.5057  -14.1857 C   0  0  0  0  0  0  0  0  0  0  0  0
   20.5281  -20.6721  -13.6771 O   0  0  0  0  0  0  0  0  0  0  0  0
   22.6567  -21.1338  -14.5893 C   0  0  0  0  0  0  0  0  0  0  0  0
   23.5497  -22.1620  -15.1496 C   0  0  0  0  0  0  0  0  0  0  0  0
   24.0757  -21.9398  -16.5392 C   0  0  2  0  0  0  0  0  0  0  0  0
   25.0811  -20.8901  -16.4113 N   0  0  0  0  0  0  0  0  0  0  0  0
   23.0903  -21.7404  -17.5778 C   0  0  0  0  0  0  0  0  0  0  0  0
   23.0209  -20.5333  -18.2513 O   0  0  0  0  0  0  0  0  0  0  0  0
   22.2798  -22.6387  -17.8897 O   0  0  0  0  0  0  0  0  0  0  0  0
  2  1  1  0
  2  3  1  0
  3  5  1  0
  3  4  1  1
  5  6  1  6
  7  5  1  0
  7  8  2  0
  9  7  1  0
 10  9  1  0
 10 11  1  0
 12 13  1  0
 12 11  1  0
 13  9  1  0
 13 14  1  1
 15 14  2  0
 16 17  1  0
 17 18  2  0
 19 17  1  0
 19 20  1  0
 21 20  1  1
 21 22  1  0
 22 14  1  0
 23 21  1  0
 23 24  1  0
 25 23  2  0
M  END
$$$$
