IPQ.pdb
     RDKit          3D

 25 25  0  0  1  0  0  0  0  0999 V2000
   25.1803  -15.8207  -15.5233 C   0  0  0  0  0  0  0  0  0  0  0  0
   25.4854  -17.2128  -15.9640 C   0  0  0  0  0  0  0  0  0  0  0  0
   26.8138  -17.6663  -15.3962 C   0  0  2  0  0  0  0  0  0  0  0  0
   27.8871  -16.7868  -15.9944 C   0  0  0  0  0  0  0  0  0  0  0  0
   27.0536  -19.1306  -15.6833 C   0  0  2  0  0  0  0  0  0  0  0  0
   27.2428  -19.3240  -17.0790 N   0  0  0  0  0  0  0  0  0  0  0  0
   26.0705  -20.0080  -15.0350 C   0  0  0  0  0  0  0  0  0  0  0  0
   25.1880  -20.5799  -15.7445 O   0  0  0  0  0  0  0  0  0  0  0  0
   26.0091  -20.2889  -13.6356 N   0  0  0  0  0  0  0  0  0  0  0  0
   26.8482  -19.7556  -12.5855 C   0  0  0  0  0  0  0  0  0  0  0  0
   26.7622  -20.6534  -11.3878 C   0  0  0  0  0  0  0  0  0  0  0  0
   25.7805  -21.7247  -11.8102 C   0  0  0  0  0  0  0  0  0  0  0  0
   25.0600  -21.1804  -12.9903 C   0  0  1  0  0  0  0  0  0  0  0  0
   23.7821  -20.5153  -12.6894 C   0  0  0  0  0  0  0  0  0  0  0  0
   23.7912  -19.2829  -12.4398 O   0  0  0  0  0  0  0  0  0  0  0  0
   19.3157  -18.2844  -15.6303 N   0  0  0  0  0  0  0  0  0  0  0  0
   20.0852  -19.3897  -16.0922 C   0  0  0  0  0  0  0  0  0  0  0  0
   19.8820  -19.7396  -17.2691 O   0  0  0  0  0  0  0  0  0  0  0  0
   21.0580  -20.0893  -15.2515 C   0  0  0  0  0  0  0  0  0  0  0  0
   21.3764  -19.5525  -13.9177 C   0  0  0  0  0  0  0  0  0  0  0  0
   21.2495  -20.4857  -12.7472 C   0  0  2  0  0  0  0  0  0  0  0  0
   22.5301  -21.1799  -12.6625 N   0  0  0  0  0  0  0  0  0  0  0  0
   20.0762  -21.3296  -12.7193 C   0  0  0  0  0  0  0  0  0  0  0  0
   20.1360  -22.6239  -13.2060 O   0  0  0  0  0  0  0  0  0  0  0  0
   18.9871  -20.9184  -12.2656 O   0  0  0  0  0  0  0  0  0  0  0  0
  2  1  1  0
  2  3  1  0
  3  5  1  0
  3  4  1  6
  5  6  1  6
  7  5  1  0
  7  8  2  0
  9  7  1  0
 10  9  1  0
 10 11  1  0
 12 13  1  0
 12 11  1  0
 13  9  1  0
 13 14  1  1
 15 14  2  0
 16 17  1  0
 17 18  2  0
 19 17  1  0
 19 20  1  0
 21 20  1  6
 21 22  1  0
 22 14  1  0
 23 21  1  0
 23 24  1  0
 25 23  2  0
M  END
$$$$
