QPY.pdb
     RDKit          3D

 29 30  0  0  1  0  0  0  0  0999 V2000
   10.5034  -11.9335    6.1881 N   0  0  0  0  0  0  0  0  0  0  0  0
   11.8882  -12.0008    5.9694 C   0  0  0  0  0  0  0  0  0  0  0  0
   12.6695  -11.5579    6.8378 O   0  0  0  0  0  0  0  0  0  0  0  0
   12.4251  -12.5905    4.7224 C   0  0  0  0  0  0  0  0  0  0  0  0
   13.6682  -13.3665    5.0400 C   0  0  0  0  0  0  0  0  0  0  0  0
   14.3694  -13.9585    3.8314 C   0  0  2  0  0  0  0  0  0  0  0  0
   13.3745  -14.9356    3.3164 N   0  0  0  0  0  0  0  0  0  0  0  0
   15.5998  -14.6813    4.2082 C   0  0  0  0  0  0  0  0  0  0  0  0
   15.4405  -15.9384    4.3888 O   0  0  0  0  0  0  0  0  0  0  0  0
   16.8737  -14.0560    4.3631 N   0  0  0  0  0  0  0  0  0  0  0  0
   17.1833  -12.8108    3.6957 C   0  0  0  0  0  0  0  0  0  0  0  0
   17.8904  -12.0472    4.7958 C   0  0  0  0  0  0  0  0  0  0  0  0
   18.7699  -13.1514    5.3616 C   0  0  0  0  0  0  0  0  0  0  0  0
   18.0376  -14.4588    5.0414 C   0  0  1  0  0  0  0  0  0  0  0  0
   17.8761  -15.2598    6.2656 C   0  0  0  0  0  0  0  0  0  0  0  0
   16.9883  -15.0115    7.0954 O   0  0  0  0  0  0  0  0  0  0  0  0
   16.6585  -22.1236   11.3083 O   0  0  0  0  0  0  0  0  0  0  0  0
   16.9250  -21.1911   10.3114 C   0  0  0  0  0  0  0  0  0  0  0  0
   16.6662  -19.8767   10.5479 C   0  0  0  0  0  0  0  0  0  0  0  0
   16.9358  -18.9516    9.5461 C   0  0  0  0  0  0  0  0  0  0  0  0
   17.4531  -19.3332    8.3328 C   0  0  0  0  0  0  0  0  0  0  0  0
   17.7327  -18.3677    7.2745 C   0  0  0  0  0  0  0  0  0  0  0  0
   18.6075  -17.2231    7.6703 C   0  0  2  0  0  0  0  0  0  0  0  0
   18.7476  -16.3475    6.5212 N   0  0  0  0  0  0  0  0  0  0  0  0
   19.9698  -17.7044    8.0034 C   0  0  0  0  0  0  0  0  0  0  0  0
   20.9633  -17.9040    7.0254 O   0  0  0  0  0  0  0  0  0  0  0  0
   17.6996  -20.6706    8.1358 C   0  0  0  0  0  0  0  0  0  0  0  0
   17.4410  -21.6061    9.1131 C   0  0  0  0  0  0  0  0  0  0  0  0
   20.3171  -17.9623    9.1775 O   0  0  0  0  0  0  0  0  0  0  0  0
  2  1  1  0
  2  3  2  0
  4  2  1  0
  5  4  1  0
  5  6  1  0
  6  8  1  0
  6  7  1  1
  8  9  2  0
 10 14  1  0
 10  8  1  0
 11 10  1  0
 12 13  1  0
 12 11  1  0
 13 14  1  0
 14 15  1  1
 15 16  2  0
 17 18  1  0
 18 19  2  0
 19 20  1  0
 21 22  1  0
 21 20  2  0
 23 22  1  6
 23 25  1  0
 24 23  1  0
 24 15  1  0
 25 29  2  0
 25 26  1  0
 27 21  1  0
 28 27  2  0
 28 18  1  0
M  END
$$$$
