QPY.pdb
     RDKit          3D

 29 30  0  0  1  0  0  0  0  0999 V2000
   24.1319  -20.0778  -19.0052 N   0  0  0  0  0  0  0  0  0  0  0  0
   25.0561  -20.3683  -20.0209 C   0  0  0  0  0  0  0  0  0  0  0  0
   24.6612  -20.4611  -21.2024 O   0  0  0  0  0  0  0  0  0  0  0  0
   26.4880  -20.5641  -19.7015 C   0  0  0  0  0  0  0  0  0  0  0  0
   26.7117  -20.2778  -18.2467 C   0  0  0  0  0  0  0  0  0  0  0  0
   27.6338  -21.2573  -17.5446 C   0  0  2  0  0  0  0  0  0  0  0  0
   27.5846  -22.4513  -18.4289 N   0  0  0  0  0  0  0  0  0  0  0  0
   27.1276  -21.6293  -16.2091 C   0  0  0  0  0  0  0  0  0  0  0  0
   26.3029  -22.6082  -16.2097 O   0  0  0  0  0  0  0  0  0  0  0  0
   27.5104  -20.9708  -15.0017 N   0  0  0  0  0  0  0  0  0  0  0  0
   28.8292  -20.3976  -14.8464 C   0  0  0  0  0  0  0  0  0  0  0  0
   28.5066  -19.0753  -14.1827 C   0  0  0  0  0  0  0  0  0  0  0  0
   27.4641  -19.5325  -13.1741 C   0  0  0  0  0  0  0  0  0  0  0  0
   26.8394  -20.7944  -13.7788 C   0  0  1  0  0  0  0  0  0  0  0  0
   25.3736  -20.6655  -13.8125 C   0  0  0  0  0  0  0  0  0  0  0  0
   24.7889  -20.1106  -14.7551 O   0  0  0  0  0  0  0  0  0  0  0  0
   17.3601  -20.2325  -10.0734 O   0  0  0  0  0  0  0  0  0  0  0  0
   18.6912  -20.5082  -10.3674 C   0  0  0  0  0  0  0  0  0  0  0  0
   19.6556  -19.6505   -9.9377 C   0  0  0  0  0  0  0  0  0  0  0  0
   20.9834  -19.9339  -10.2361 C   0  0  0  0  0  0  0  0  0  0  0  0
   21.3391  -21.0519  -10.9495 C   0  0  0  0  0  0  0  0  0  0  0  0
   22.7307  -21.3521  -11.2712 C   0  0  0  0  0  0  0  0  0  0  0  0
   23.1551  -20.9982  -12.6592 C   0  0  2  0  0  0  0  0  0  0  0  0
   24.5918  -21.1826  -12.7497 N   0  0  0  0  0  0  0  0  0  0  0  0
   22.8953  -19.5636  -12.9294 C   0  0  0  0  0  0  0  0  0  0  0  0
   23.8151  -18.5507  -12.5953 O   0  0  0  0  0  0  0  0  0  0  0  0
   20.3335  -21.8916  -11.3642 C   0  0  0  0  0  0  0  0  0  0  0  0
   19.0108  -21.6322  -11.0808 C   0  0  0  0  0  0  0  0  0  0  0  0
   21.8395  -19.1679  -13.4721 O   0  0  0  0  0  0  0  0  0  0  0  0
  2  1  1  0
  2  3  2  0
  4  2  1  0
  5  4  1  0
  5  6  1  0
  6  8  1  0
  6  7  1  6
  8  9  2  0
 10 14  1  0
 10  8  1  0
 11 10  1  0
 12 13  1  0
 12 11  1  0
 13 14  1  0
 14 15  1  6
 15 16  2  0
 17 18  1  0
 18 19  2  0
 19 20  1  0
 21 22  1  0
 21 20  2  0
 23 22  1  1
 23 25  1  0
 24 23  1  0
 24 15  1  0
 25 29  2  0
 25 26  1  0
 27 21  1  0
 28 27  2  0
 28 18  1  0
M  END
$$$$
