QPY.pdb
     RDKit          3D

 29 30  0  0  1  0  0  0  0  0999 V2000
   24.6588  -17.3153  -16.2674 N   0  0  0  0  0  0  0  0  0  0  0  0
   25.7774  -17.5029  -17.0942 C   0  0  0  0  0  0  0  0  0  0  0  0
   25.7933  -16.9878  -18.2322 O   0  0  0  0  0  0  0  0  0  0  0  0
   26.9318  -18.3033  -16.6278 C   0  0  0  0  0  0  0  0  0  0  0  0
   26.7163  -18.6899  -15.1951 C   0  0  0  0  0  0  0  0  0  0  0  0
   26.8541  -20.1747  -14.9140 C   0  0  2  0  0  0  0  0  0  0  0  0
   26.9160  -20.7660  -16.2765 N   0  0  0  0  0  0  0  0  0  0  0  0
   25.6735  -20.7137  -14.2112 C   0  0  0  0  0  0  0  0  0  0  0  0
   24.5879  -20.6669  -14.8878 O   0  0  0  0  0  0  0  0  0  0  0  0
   25.7113  -21.2501  -12.8887 N   0  0  0  0  0  0  0  0  0  0  0  0
   26.9389  -21.7658  -12.3241 C   0  0  0  0  0  0  0  0  0  0  0  0
   26.8871  -21.1979  -10.9213 C   0  0  0  0  0  0  0  0  0  0  0  0
   25.4240  -21.4464  -10.5888 C   0  0  0  0  0  0  0  0  0  0  0  0
   24.6985  -21.4689  -11.9383 C   0  0  1  0  0  0  0  0  0  0  0  0
   23.5634  -20.5321  -11.9169 C   0  0  0  0  0  0  0  0  0  0  0  0
   23.7217  -19.3200  -11.7062 O   0  0  0  0  0  0  0  0  0  0  0  0
   16.6541  -15.9568  -14.0904 O   0  0  0  0  0  0  0  0  0  0  0  0
   17.7348  -16.8166  -13.9261 C   0  0  0  0  0  0  0  0  0  0  0  0
   18.8326  -16.3791  -13.2523 C   0  0  0  0  0  0  0  0  0  0  0  0
   19.9081  -17.2452  -13.0928 C   0  0  0  0  0  0  0  0  0  0  0  0
   19.8862  -18.5222  -13.5969 C   0  0  0  0  0  0  0  0  0  0  0  0
   21.0144  -19.4345  -13.4381 C   0  0  0  0  0  0  0  0  0  0  0  0
   21.0796  -20.1459  -12.1261 C   0  0  2  0  0  0  0  0  0  0  0  0
   22.2474  -21.0075  -12.1406 N   0  0  0  0  0  0  0  0  0  0  0  0
   19.9026  -21.0322  -11.9594 C   0  0  0  0  0  0  0  0  0  0  0  0
   18.7498  -20.6366  -11.2536 O   0  0  0  0  0  0  0  0  0  0  0  0
   18.7578  -18.9235  -14.2707 C   0  0  0  0  0  0  0  0  0  0  0  0
   17.6795  -18.0838  -14.4415 C   0  0  0  0  0  0  0  0  0  0  0  0
   19.8650  -22.1876  -12.4382 O   0  0  0  0  0  0  0  0  0  0  0  0
  2  1  1  0
  2  3  2  0
  4  2  1  0
  5  4  1  0
  5  6  1  0
  6  8  1  0
  6  7  1  6
  8  9  2  0
 10 14  1  0
 10  8  1  0
 11 10  1  0
 12 13  1  0
 12 11  1  0
 13 14  1  0
 14 15  1  1
 15 16  2  0
 17 18  1  0
 18 19  2  0
 19 20  1  0
 21 22  1  0
 21 20  2  0
 23 22  1  6
 23 25  1  0
 24 23  1  0
 24 15  1  0
 25 29  2  0
 25 26  1  0
 27 21  1  0
 28 27  2  0
 28 18  1  0
M  END
$$$$
