QPY.pdb
     RDKit          3D

 29 30  0  0  1  0  0  0  0  0999 V2000
   21.0571  -11.9632  -18.7122 N   0  0  0  0  0  0  0  0  0  0  0  0
   20.4397  -11.0099  -19.5369 C   0  0  0  0  0  0  0  0  0  0  0  0
   20.1348  -11.3169  -20.7088 O   0  0  0  0  0  0  0  0  0  0  0  0
   20.1496   -9.6504  -19.0284 C   0  0  0  0  0  0  0  0  0  0  0  0
   20.5461   -9.5697  -17.5845 C   0  0  0  0  0  0  0  0  0  0  0  0
   21.1669   -8.2476  -17.1730 C   0  0  2  0  0  0  0  0  0  0  0  0
   22.3729   -8.6697  -16.4133 N   0  0  0  0  0  0  0  0  0  0  0  0
   20.2812   -7.4788  -16.2770 C   0  0  0  0  0  0  0  0  0  0  0  0
   19.0400   -7.5346  -16.5847 O   0  0  0  0  0  0  0  0  0  0  0  0
   20.7432   -6.7291  -15.1535 N   0  0  0  0  0  0  0  0  0  0  0  0
   22.0455   -6.9736  -14.5737 C   0  0  0  0  0  0  0  0  0  0  0  0
   22.5417   -5.5619  -14.3415 C   0  0  0  0  0  0  0  0  0  0  0  0
   21.2773   -4.9247  -13.7861 C   0  0  0  0  0  0  0  0  0  0  0  0
   20.1203   -5.7464  -14.3640 C   0  0  1  0  0  0  0  0  0  0  0  0
   19.1465   -4.8569  -15.0173 C   0  0  0  0  0  0  0  0  0  0  0  0
   19.3725   -4.3416  -16.1227 O   0  0  0  0  0  0  0  0  0  0  0  0
   11.1912   -1.8449  -17.1959 O   0  0  0  0  0  0  0  0  0  0  0  0
   12.3313   -2.5160  -16.7669 C   0  0  0  0  0  0  0  0  0  0  0  0
   13.5475   -2.1160  -17.2268 C   0  0  0  0  0  0  0  0  0  0  0  0
   14.6817   -2.7924  -16.7928 C   0  0  0  0  0  0  0  0  0  0  0  0
   14.6012   -3.8470  -15.9171 C   0  0  0  0  0  0  0  0  0  0  0  0
   15.7876   -4.5652  -15.4622 C   0  0  0  0  0  0  0  0  0  0  0  0
   16.9034   -3.7042  -14.9668 C   0  0  2  0  0  0  0  0  0  0  0  0
   17.9123   -4.5692  -14.3833 N   0  0  0  0  0  0  0  0  0  0  0  0
   16.4276   -2.8162  -13.8788 C   0  0  0  0  0  0  0  0  0  0  0  0
   16.1124   -1.4600  -14.0905 O   0  0  0  0  0  0  0  0  0  0  0  0
   13.3533   -4.2181  -15.4774 C   0  0  0  0  0  0  0  0  0  0  0  0
   12.2150   -3.5634  -15.8929 C   0  0  0  0  0  0  0  0  0  0  0  0
   16.2778   -3.2219  -12.7046 O   0  0  0  0  0  0  0  0  0  0  0  0
  2  1  1  0
  2  3  2  0
  4  2  1  0
  5  4  1  0
  5  6  1  0
  6  8  1  0
  6  7  1  1
  8  9  2  0
 10 14  1  0
 10  8  1  0
 11 10  1  0
 12 13  1  0
 12 11  1  0
 13 14  1  0
 14 15  1  6
 15 16  2  0
 17 18  1  0
 18 19  2  0
 19 20  1  0
 21 22  1  0
 21 20  2  0
 23 22  1  1
 23 25  1  0
 24 23  1  0
 24 15  1  0
 25 29  2  0
 25 26  1  0
 27 21  1  0
 28 27  2  0
 28 18  1  0
M  END
$$$$
