QPY.pdb
     RDKit          3D

 29 30  0  0  1  0  0  0  0  0999 V2000
   13.5039  -21.9618  -10.0531 N   0  0  0  0  0  0  0  0  0  0  0  0
   14.8057  -22.2915  -10.4613 C   0  0  0  0  0  0  0  0  0  0  0  0
   15.1461  -22.0944  -11.6470 O   0  0  0  0  0  0  0  0  0  0  0  0
   15.7721  -22.8682   -9.4998 C   0  0  0  0  0  0  0  0  0  0  0  0
   15.1298  -22.9542   -8.1476 C   0  0  0  0  0  0  0  0  0  0  0  0
   15.0901  -24.3505   -7.5548 C   0  0  2  0  0  0  0  0  0  0  0  0
   14.1453  -25.0653   -8.4527 N   0  0  0  0  0  0  0  0  0  0  0  0
   14.5419  -24.3513   -6.1845 C   0  0  0  0  0  0  0  0  0  0  0  0
   13.4492  -23.6978   -6.0514 O   0  0  0  0  0  0  0  0  0  0  0  0
   15.1569  -25.0180   -5.0822 N   0  0  0  0  0  0  0  0  0  0  0  0
   16.0624  -26.1269   -5.2877 C   0  0  0  0  0  0  0  0  0  0  0  0
   17.1648  -25.8023   -4.3016 C   0  0  0  0  0  0  0  0  0  0  0  0
   16.3311  -25.3699   -3.1053 C   0  0  0  0  0  0  0  0  0  0  0  0
   15.0114  -24.8589   -3.6928 C   0  0  1  0  0  0  0  0  0  0  0  0
   14.7213  -23.5088   -3.1833 C   0  0  0  0  0  0  0  0  0  0  0  0
   15.3693  -22.5183   -3.5539 O   0  0  0  0  0  0  0  0  0  0  0  0
    9.9031  -16.8577   -0.1017 O   0  0  0  0  0  0  0  0  0  0  0  0
   10.3975  -18.0675   -0.5774 C   0  0  0  0  0  0  0  0  0  0  0  0
   10.5524  -19.1056    0.2880 C   0  0  0  0  0  0  0  0  0  0  0  0
   11.0470  -20.3111   -0.1961 C   0  0  0  0  0  0  0  0  0  0  0  0
   11.3801  -20.4749   -1.5180 C   0  0  0  0  0  0  0  0  0  0  0  0
   11.9056  -21.7360   -2.0315 C   0  0  0  0  0  0  0  0  0  0  0  0
   13.3349  -22.0145   -1.6975 C   0  0  2  0  0  0  0  0  0  0  0  0
   13.6781  -23.3145   -2.2441 N   0  0  0  0  0  0  0  0  0  0  0  0
   13.5130  -22.1132   -0.2288 C   0  0  0  0  0  0  0  0  0  0  0  0
   13.8084  -20.9957    0.5757 O   0  0  0  0  0  0  0  0  0  0  0  0
   11.2081  -19.4008   -2.3577 C   0  0  0  0  0  0  0  0  0  0  0  0
   10.7196  -18.1964   -1.9018 C   0  0  0  0  0  0  0  0  0  0  0  0
   13.4106  -23.1995    0.3836 O   0  0  0  0  0  0  0  0  0  0  0  0
  2  1  1  0
  2  3  2  0
  4  2  1  0
  5  4  1  0
  5  6  1  0
  6  8  1  0
  6  7  1  6
  8  9  2  0
 10 14  1  0
 10  8  1  0
 11 10  1  0
 12 13  1  0
 12 11  1  0
 13 14  1  0
 14 15  1  6
 15 16  2  0
 17 18  1  0
 18 19  2  0
 19 20  1  0
 21 22  1  0
 21 20  2  0
 23 22  1  1
 23 25  1  0
 24 23  1  0
 24 15  1  0
 25 29  2  0
 25 26  1  0
 27 21  1  0
 28 27  2  0
 28 18  1  0
M  END
$$$$
