QPY.pdb
     RDKit          3D

 29 30  0  0  1  0  0  0  0  0999 V2000
   26.1122  -17.7685  -20.5312 N   0  0  0  0  0  0  0  0  0  0  0  0
   25.8350  -17.2076  -19.2748 C   0  0  0  0  0  0  0  0  0  0  0  0
   24.7424  -16.6320  -19.0867 O   0  0  0  0  0  0  0  0  0  0  0  0
   26.8247  -17.2938  -18.1776 C   0  0  0  0  0  0  0  0  0  0  0  0
   26.3413  -18.2778  -17.1546 C   0  0  0  0  0  0  0  0  0  0  0  0
   27.2516  -19.4745  -16.9497 C   0  0  2  0  0  0  0  0  0  0  0  0
   26.9730  -20.3119  -18.1459 N   0  0  0  0  0  0  0  0  0  0  0  0
   26.8940  -20.2369  -15.7376 C   0  0  0  0  0  0  0  0  0  0  0  0
   25.6714  -20.6131  -15.6907 O   0  0  0  0  0  0  0  0  0  0  0  0
   27.8148  -20.5446  -14.6910 N   0  0  0  0  0  0  0  0  0  0  0  0
   29.2331  -20.6589  -14.9503 C   0  0  0  0  0  0  0  0  0  0  0  0
   29.8166  -19.9173  -13.7660 C   0  0  0  0  0  0  0  0  0  0  0  0
   28.9327  -20.4586  -12.6529 C   0  0  0  0  0  0  0  0  0  0  0  0
   27.6191  -20.8566  -13.3341 C   0  0  1  0  0  0  0  0  0  0  0  0
   26.4815  -20.2287  -12.6426 C   0  0  0  0  0  0  0  0  0  0  0  0
   26.2064  -19.0290  -12.7957 O   0  0  0  0  0  0  0  0  0  0  0  0
   18.5134  -19.2245   -9.2935 O   0  0  0  0  0  0  0  0  0  0  0  0
   19.6979  -19.6964   -9.8490 C   0  0  0  0  0  0  0  0  0  0  0  0
   20.3143  -20.7684   -9.2820 C   0  0  0  0  0  0  0  0  0  0  0  0
   21.4977  -21.2333   -9.8438 C   0  0  0  0  0  0  0  0  0  0  0  0
   22.0532  -20.6383  -10.9496 C   0  0  0  0  0  0  0  0  0  0  0  0
   23.2986  -21.1177  -11.5408 C   0  0  0  0  0  0  0  0  0  0  0  0
   24.5385  -20.4451  -11.0487 C   0  0  2  0  0  0  0  0  0  0  0  0
   25.6669  -20.9980  -11.7750 N   0  0  0  0  0  0  0  0  0  0  0  0
   24.7631  -20.7581   -9.6169 C   0  0  0  0  0  0  0  0  0  0  0  0
   25.5099  -21.8745   -9.1932 O   0  0  0  0  0  0  0  0  0  0  0  0
   21.3980  -19.5583  -11.4907 C   0  0  0  0  0  0  0  0  0  0  0  0
   20.2243  -19.0794  -10.9521 C   0  0  0  0  0  0  0  0  0  0  0  0
   24.3004  -20.0457   -8.6982 O   0  0  0  0  0  0  0  0  0  0  0  0
  2  1  1  0
  2  3  2  0
  4  2  1  0
  5  4  1  0
  5  6  1  0
  6  8  1  0
  6  7  1  6
  8  9  2  0
 10 14  1  0
 10  8  1  0
 11 10  1  0
 12 13  1  0
 12 11  1  0
 13 14  1  0
 14 15  1  1
 15 16  2  0
 17 18  1  0
 18 19  2  0
 19 20  1  0
 21 22  1  0
 21 20  2  0
 23 22  1  6
 23 25  1  0
 24 23  1  0
 24 15  1  0
 25 29  2  0
 25 26  1  0
 27 21  1  0
 28 27  2  0
 28 18  1  0
M  END
$$$$
