EHS.pdb
     RDKit          3D

 26 26  0  0  1  0  0  0  0  0999 V2000
   21.5369  -11.5376  -19.1407 N   0  0  0  0  0  0  0  0  0  0  0  0
   22.1637  -10.3470  -18.6294 C   0  0  1  0  0  0  0  0  0  0  0  0
   22.6389   -9.5730  -19.8309 C   0  0  0  0  0  0  0  0  0  0  0  0
   23.8204  -10.1217  -20.5332 C   0  0  0  0  0  0  0  0  0  0  0  0
   25.0146  -10.1876  -19.6842 C   0  0  0  0  0  0  0  0  0  0  0  0
   25.2514  -11.0785  -18.8351 O   0  0  0  0  0  0  0  0  0  0  0  0
   21.3194   -9.5211  -17.7884 C   0  0  0  0  0  0  0  0  0  0  0  0
   20.2476   -9.0603  -18.2538 O   0  0  0  0  0  0  0  0  0  0  0  0
   26.0089   -9.1896  -19.7938 O   0  0  0  0  0  0  0  0  0  0  0  0
   21.6091   -9.1748  -16.4342 N   0  0  0  0  0  0  0  0  0  0  0  0
   20.8010   -8.2707  -15.6485 C   0  0  1  0  0  0  0  0  0  0  0  0
   20.2151   -8.9529  -14.4321 C   0  0  0  0  0  0  0  0  0  0  0  0
   19.0273   -9.7612  -14.7322 C   0  0  0  0  0  0  0  0  0  0  0  0
   18.4521   -9.9801  -15.9630 C   0  0  0  0  0  0  0  0  0  0  0  0
   17.3643  -10.7889  -15.8094 N   0  0  0  0  0  0  0  0  0  0  0  0
   17.2653  -11.0689  -14.4983 C   0  0  0  0  0  0  0  0  0  0  0  0
   18.2713  -10.4459  -13.8553 N   0  0  0  0  0  0  0  0  0  0  0  0
   21.6104   -7.0719  -15.3167 C   0  0  0  0  0  0  0  0  0  0  0  0
   22.7498   -7.1855  -14.7862 O   0  0  0  0  0  0  0  0  0  0  0  0
   22.2393   -2.3281  -16.0347 O   0  0  0  0  0  0  0  0  0  0  0  0
   21.5886   -3.5175  -16.2762 C   0  0  0  0  0  0  0  0  0  0  0  0
   22.0113   -4.5880  -15.2569 C   0  0  2  0  0  0  0  0  0  0  0  0
   21.1657   -5.7387  -15.5700 N   0  0  0  0  0  0  0  0  0  0  0  0
   21.6549   -4.0675  -13.9376 C   0  0  0  0  0  0  0  0  0  0  0  0
   22.5631   -3.3841  -13.1440 O   0  0  0  0  0  0  0  0  0  0  0  0
   20.4940   -4.2358  -13.4940 O   0  0  0  0  0  0  0  0  0  0  0  0
  2  1  1  6
  2  7  1  0
  3  2  1  0
  4  3  1  0
  4  5  1  0
  5  6  2  0
  7  8  2  0
  9  5  1  0
 10  7  1  0
 10 11  1  0
 11 12  1  1
 12 13  1  0
 13 17  1  0
 13 14  2  0
 14 15  1  0
 16 15  1  0
 17 16  2  0
 18 11  1  0
 18 19  2  0
 20 21  1  0
 22 21  1  6
 22 23  1  0
 23 18  1  0
 24 22  1  0
 24 25  1  0
 26 24  2  0
M  END
$$$$
