EHS.pdb
     RDKit          3D

 26 26  0  0  1  0  0  0  0  0999 V2000
   18.5455   -9.6731  -13.6221 N   0  0  0  0  0  0  0  0  0  0  0  0
   18.5887   -9.3596  -12.2180 C   0  0  1  0  0  0  0  0  0  0  0  0
   19.8097   -8.5011  -12.0163 C   0  0  0  0  0  0  0  0  0  0  0  0
   19.8017   -7.1874  -12.6978 C   0  0  0  0  0  0  0  0  0  0  0  0
   20.8896   -6.3062  -12.2604 C   0  0  0  0  0  0  0  0  0  0  0  0
   21.7926   -6.6180  -11.4492 O   0  0  0  0  0  0  0  0  0  0  0  0
   17.4064   -8.6997  -11.6993 C   0  0  0  0  0  0  0  0  0  0  0  0
   16.6899   -8.0192  -12.4747 O   0  0  0  0  0  0  0  0  0  0  0  0
   20.9710   -4.9889  -12.7651 O   0  0  0  0  0  0  0  0  0  0  0  0
   16.9718   -8.7577  -10.3409 N   0  0  0  0  0  0  0  0  0  0  0  0
   15.6939   -8.2587   -9.8872 C   0  0  1  0  0  0  0  0  0  0  0  0
   15.0024   -9.2392   -8.9658 C   0  0  0  0  0  0  0  0  0  0  0  0
   14.2874  -10.3046   -9.6784 C   0  0  0  0  0  0  0  0  0  0  0  0
   14.2118  -10.4979  -11.0388 C   0  0  0  0  0  0  0  0  0  0  0  0
   13.4503  -11.6014  -11.2908 N   0  0  0  0  0  0  0  0  0  0  0  0
   13.0577  -12.0876  -10.1006 C   0  0  0  0  0  0  0  0  0  0  0  0
   13.5662  -11.3006   -9.1333 N   0  0  0  0  0  0  0  0  0  0  0  0
   15.8925   -6.9202   -9.2779 C   0  0  0  0  0  0  0  0  0  0  0  0
   16.7970   -6.7264   -8.4195 O   0  0  0  0  0  0  0  0  0  0  0  0
   15.1046   -2.1805   -9.6401 O   0  0  0  0  0  0  0  0  0  0  0  0
   15.0172   -3.4714  -10.1119 C   0  0  0  0  0  0  0  0  0  0  0  0
   15.3327   -4.4826   -8.9976 C   0  0  2  0  0  0  0  0  0  0  0  0
   15.0926   -5.7861   -9.6143 N   0  0  0  0  0  0  0  0  0  0  0  0
   14.3475   -4.2557   -7.9412 C   0  0  0  0  0  0  0  0  0  0  0  0
   14.5070   -3.2660   -6.9836 O   0  0  0  0  0  0  0  0  0  0  0  0
   13.3185   -4.9705   -7.8845 O   0  0  0  0  0  0  0  0  0  0  0  0
  2  1  1  6
  2  7  1  0
  3  2  1  0
  4  3  1  0
  4  5  1  0
  5  6  2  0
  7  8  2  0
  9  5  1  0
 10  7  1  0
 10 11  1  0
 11 12  1  1
 12 13  1  0
 13 17  1  0
 13 14  2  0
 14 15  1  0
 16 15  1  0
 17 16  2  0
 18 11  1  0
 18 19  2  0
 20 21  1  0
 22 21  1  6
 22 23  1  0
 23 18  1  0
 24 22  1  0
 24 25  1  0
 26 24  2  0
M  END
$$$$
