EHS.pdb
     RDKit          3D

 26 26  0  0  1  0  0  0  0  0999 V2000
   25.2429   -9.9557  -19.1117 N   0  0  0  0  0  0  0  0  0  0  0  0
   23.9053   -9.7005  -19.5781 C   0  0  1  0  0  0  0  0  0  0  0  0
   23.4085  -10.9977  -20.1603 C   0  0  0  0  0  0  0  0  0  0  0  0
   23.3980  -12.1605  -19.2448 C   0  0  0  0  0  0  0  0  0  0  0  0
   22.9314  -13.3937  -19.8871 C   0  0  0  0  0  0  0  0  0  0  0  0
   23.5396  -14.0154  -20.7895 O   0  0  0  0  0  0  0  0  0  0  0  0
   22.9874   -9.2055  -18.5708 C   0  0  0  0  0  0  0  0  0  0  0  0
   21.8287   -8.8589  -18.9096 O   0  0  0  0  0  0  0  0  0  0  0  0
   21.7022  -13.9683  -19.4924 O   0  0  0  0  0  0  0  0  0  0  0  0
   23.2955   -9.0736  -17.1833 N   0  0  0  0  0  0  0  0  0  0  0  0
   22.3489   -8.6139  -16.1931 C   0  0  1  0  0  0  0  0  0  0  0  0
   22.5612   -9.2890  -14.8562 C   0  0  0  0  0  0  0  0  0  0  0  0
   21.5533   -8.9263  -13.8528 C   0  0  0  0  0  0  0  0  0  0  0  0
   20.4416   -8.1349  -14.0304 C   0  0  0  0  0  0  0  0  0  0  0  0
   19.7643   -8.0459  -12.8495 N   0  0  0  0  0  0  0  0  0  0  0  0
   20.4477   -8.7736  -11.9493 C   0  0  0  0  0  0  0  0  0  0  0  0
   21.5249   -9.3013  -12.5614 N   0  0  0  0  0  0  0  0  0  0  0  0
   22.4147   -7.1331  -16.1203 C   0  0  0  0  0  0  0  0  0  0  0  0
   23.5185   -6.5280  -16.2107 O   0  0  0  0  0  0  0  0  0  0  0  0
   19.8898   -2.9766  -16.0724 O   0  0  0  0  0  0  0  0  0  0  0  0
   19.9457   -4.3504  -16.1494 C   0  0  0  0  0  0  0  0  0  0  0  0
   21.3728   -4.8548  -15.8798 C   0  0  2  0  0  0  0  0  0  0  0  0
   21.2600   -6.3108  -15.9477 N   0  0  0  0  0  0  0  0  0  0  0  0
   21.7017   -4.4560  -14.5119 C   0  0  0  0  0  0  0  0  0  0  0  0
   22.2162   -3.2042  -14.2118 O   0  0  0  0  0  0  0  0  0  0  0  0
   21.5186   -5.2602  -13.5671 O   0  0  0  0  0  0  0  0  0  0  0  0
  2  1  1  1
  2  7  1  0
  3  2  1  0
  4  3  1  0
  4  5  1  0
  5  6  2  0
  7  8  2  0
  9  5  1  0
 10  7  1  0
 10 11  1  0
 11 12  1  1
 12 13  1  0
 13 17  1  0
 13 14  2  0
 14 15  1  0
 16 15  1  0
 17 16  2  0
 18 11  1  0
 18 19  2  0
 20 21  1  0
 22 21  1  1
 22 23  1  0
 23 18  1  0
 24 22  1  0
 24 25  1  0
 26 24  2  0
M  END
$$$$
