EHS.pdb
     RDKit          3D

 26 26  0  0  1  0  0  0  0  0999 V2000
   20.2014  -11.5519  -20.0030 N   0  0  0  0  0  0  0  0  0  0  0  0
   21.0985  -11.0229  -19.0094 C   0  0  1  0  0  0  0  0  0  0  0  0
   22.2791  -10.4676  -19.7621 C   0  0  0  0  0  0  0  0  0  0  0  0
   23.1798  -11.4624  -20.3860 C   0  0  0  0  0  0  0  0  0  0  0  0
   24.5321  -11.4494  -19.8182 C   0  0  0  0  0  0  0  0  0  0  0  0
   25.4650  -10.6978  -20.1862 O   0  0  0  0  0  0  0  0  0  0  0  0
   20.5254  -10.0151  -18.1387 C   0  0  0  0  0  0  0  0  0  0  0  0
   19.6415   -9.2434  -18.5869 O   0  0  0  0  0  0  0  0  0  0  0  0
   24.8607  -12.3369  -18.7688 O   0  0  0  0  0  0  0  0  0  0  0  0
   20.8897   -9.8171  -16.7728 N   0  0  0  0  0  0  0  0  0  0  0  0
   20.2237   -8.8833  -15.8938 C   0  0  1  0  0  0  0  0  0  0  0  0
   19.6461   -9.5711  -14.6766 C   0  0  0  0  0  0  0  0  0  0  0  0
   18.3978  -10.2924  -14.9514 C   0  0  0  0  0  0  0  0  0  0  0  0
   17.7462  -10.4094  -16.1578 C   0  0  0  0  0  0  0  0  0  0  0  0
   16.6215  -11.1621  -15.9861 N   0  0  0  0  0  0  0  0  0  0  0  0
   16.5754  -11.5084  -14.6879 C   0  0  0  0  0  0  0  0  0  0  0  0
   17.6495  -10.9805  -14.0706 N   0  0  0  0  0  0  0  0  0  0  0  0
   21.1667   -7.7880  -15.5574 C   0  0  0  0  0  0  0  0  0  0  0  0
   22.3704   -8.0343  -15.2694 O   0  0  0  0  0  0  0  0  0  0  0  0
   21.8381   -2.9709  -15.3498 O   0  0  0  0  0  0  0  0  0  0  0  0
   21.1088   -4.0736  -15.7351 C   0  0  0  0  0  0  0  0  0  0  0  0
   21.7493   -5.3656  -15.2017 C   0  0  2  0  0  0  0  0  0  0  0  0
   20.7853   -6.4119  -15.5379 N   0  0  0  0  0  0  0  0  0  0  0  0
   21.8236   -5.2217  -13.7484 C   0  0  0  0  0  0  0  0  0  0  0  0
   21.0007   -5.9378  -12.8930 O   0  0  0  0  0  0  0  0  0  0  0  0
   22.6532   -4.4290  -13.2421 O   0  0  0  0  0  0  0  0  0  0  0  0
  2  1  1  6
  2  7  1  0
  3  2  1  0
  4  3  1  0
  4  5  1  0
  5  6  2  0
  7  8  2  0
  9  5  1  0
 10  7  1  0
 10 11  1  0
 11 12  1  1
 12 13  1  0
 13 17  1  0
 13 14  2  0
 14 15  1  0
 16 15  1  0
 17 16  2  0
 18 11  1  0
 18 19  2  0
 20 21  1  0
 22 21  1  6
 22 23  1  0
 23 18  1  0
 24 22  1  0
 24 25  1  0
 26 24  2  0
M  END
$$$$
