EHS.pdb
     RDKit          3D

 26 26  0  0  1  0  0  0  0  0999 V2000
   15.5615  -11.6762  -10.6981 N   0  0  0  0  0  0  0  0  0  0  0  0
   15.3109  -10.6023  -11.6231 C   0  0  1  0  0  0  0  0  0  0  0  0
   13.9339  -10.0835  -11.3019 C   0  0  0  0  0  0  0  0  0  0  0  0
   13.0750  -10.9751  -10.4910 C   0  0  0  0  0  0  0  0  0  0  0  0
   12.1712  -11.7970  -11.3028 C   0  0  0  0  0  0  0  0  0  0  0  0
   12.1372  -11.8150  -12.5555 O   0  0  0  0  0  0  0  0  0  0  0  0
   16.2835   -9.5274  -11.5945 C   0  0  0  0  0  0  0  0  0  0  0  0
   16.6227   -9.0319  -10.4912 O   0  0  0  0  0  0  0  0  0  0  0  0
   11.2444  -12.6551  -10.6693 O   0  0  0  0  0  0  0  0  0  0  0  0
   16.9093   -8.9649  -12.7476 N   0  0  0  0  0  0  0  0  0  0  0  0
   17.8715   -7.8883  -12.6914 C   0  0  1  0  0  0  0  0  0  0  0  0
   18.6894   -7.7985  -13.9608 C   0  0  0  0  0  0  0  0  0  0  0  0
   19.7287   -6.7634  -13.9131 C   0  0  0  0  0  0  0  0  0  0  0  0
   20.0334   -5.9301  -12.8611 C   0  0  0  0  0  0  0  0  0  0  0  0
   21.0642   -5.1132  -13.2233 N   0  0  0  0  0  0  0  0  0  0  0  0
   21.3956   -5.4356  -14.4856 C   0  0  0  0  0  0  0  0  0  0  0  0
   20.5863   -6.4311  -14.8947 N   0  0  0  0  0  0  0  0  0  0  0  0
   17.1602   -6.6286  -12.3607 C   0  0  0  0  0  0  0  0  0  0  0  0
   15.9436   -6.4736  -12.6580 O   0  0  0  0  0  0  0  0  0  0  0  0
   15.6632   -3.5345   -9.5770 O   0  0  0  0  0  0  0  0  0  0  0  0
   16.3498   -4.6326  -10.0451 C   0  0  0  0  0  0  0  0  0  0  0  0
   17.0451   -4.3141  -11.3788 C   0  0  2  0  0  0  0  0  0  0  0  0
   17.7894   -5.5313  -11.6978 N   0  0  0  0  0  0  0  0  0  0  0  0
   17.9846   -3.2270  -11.1070 C   0  0  0  0  0  0  0  0  0  0  0  0
   17.5946   -1.8967  -11.1101 O   0  0  0  0  0  0  0  0  0  0  0  0
   19.1863   -3.4885  -10.8610 O   0  0  0  0  0  0  0  0  0  0  0  0
  2  1  1  1
  2  7  1  0
  3  2  1  0
  4  3  1  0
  4  5  1  0
  5  6  2  0
  7  8  2  0
  9  5  1  0
 10  7  1  0
 10 11  1  0
 11 12  1  6
 12 13  1  0
 13 17  1  0
 13 14  2  0
 14 15  1  0
 16 15  1  0
 17 16  2  0
 18 11  1  0
 18 19  2  0
 20 21  1  0
 22 21  1  1
 22 23  1  0
 23 18  1  0
 24 22  1  0
 24 25  1  0
 26 24  2  0
M  END
$$$$
