EHS.pdb
     RDKit          3D

 26 26  0  0  1  0  0  0  0  0999 V2000
   43.1294   -6.8043   -5.8796 N   0  0  0  0  0  0  0  0  0  0  0  0
   43.3042   -7.3600   -7.1958 C   0  0  1  0  0  0  0  0  0  0  0  0
   43.9038   -8.7275   -6.9984 C   0  0  0  0  0  0  0  0  0  0  0  0
   43.0527   -9.7172   -6.3011 C   0  0  0  0  0  0  0  0  0  0  0  0
   43.7240  -11.0037   -6.0874 C   0  0  0  0  0  0  0  0  0  0  0  0
   44.3973  -11.3101   -5.0757 O   0  0  0  0  0  0  0  0  0  0  0  0
   42.0965   -7.4400   -7.9942 C   0  0  0  0  0  0  0  0  0  0  0  0
   42.1544   -7.9205   -9.1532 O   0  0  0  0  0  0  0  0  0  0  0  0
   43.6350  -12.0133   -7.0720 O   0  0  0  0  0  0  0  0  0  0  0  0
   40.8063   -7.0064   -7.5642 N   0  0  0  0  0  0  0  0  0  0  0  0
   39.6030   -7.1758   -8.3461 C   0  0  1  0  0  0  0  0  0  0  0  0
   38.4262   -7.5809   -7.4863 C   0  0  0  0  0  0  0  0  0  0  0  0
   38.4477   -8.9959   -7.0972 C   0  0  0  0  0  0  0  0  0  0  0  0
   39.3634   -9.9532   -7.4695 C   0  0  0  0  0  0  0  0  0  0  0  0
   39.0259  -11.1419   -6.8914 N   0  0  0  0  0  0  0  0  0  0  0  0
   37.9135  -10.9250   -6.1686 C   0  0  0  0  0  0  0  0  0  0  0  0
   37.5709   -9.6290   -6.2974 N   0  0  0  0  0  0  0  0  0  0  0  0
   39.3616   -5.9366   -9.1261 C   0  0  0  0  0  0  0  0  0  0  0  0
   39.3668   -4.8061   -8.5652 O   0  0  0  0  0  0  0  0  0  0  0  0
   38.8973   -3.9563  -13.5383 O   0  0  0  0  0  0  0  0  0  0  0  0
   39.1230   -5.0454  -12.7263 C   0  0  0  0  0  0  0  0  0  0  0  0
   38.8484   -4.6956  -11.2546 C   0  0  2  0  0  0  0  0  0  0  0  0
   39.1134   -5.9387  -10.5324 N   0  0  0  0  0  0  0  0  0  0  0  0
   37.4246   -4.3747  -11.1638 C   0  0  0  0  0  0  0  0  0  0  0  0
   36.9579   -3.0701  -11.2081 O   0  0  0  0  0  0  0  0  0  0  0  0
   36.5842   -5.2977  -11.0416 O   0  0  0  0  0  0  0  0  0  0  0  0
  2  1  1  1
  2  7  1  0
  3  2  1  0
  4  3  1  0
  4  5  1  0
  5  6  2  0
  7  8  2  0
  9  5  1  0
 10  7  1  0
 10 11  1  0
 11 12  1  1
 12 13  1  0
 13 17  1  0
 13 14  2  0
 14 15  1  0
 16 15  1  0
 17 16  2  0
 18 11  1  0
 18 19  2  0
 20 21  1  0
 22 21  1  6
 22 23  1  0
 23 18  1  0
 24 22  1  0
 24 25  1  0
 26 24  2  0
M  END
$$$$
