EHS.pdb
     RDKit          3D

 26 26  0  0  1  0  0  0  0  0999 V2000
   17.8944  -11.6279  -17.3640 N   0  0  0  0  0  0  0  0  0  0  0  0
   18.1498  -11.4031  -15.9654 C   0  0  1  0  0  0  0  0  0  0  0  0
   18.0719  -12.7529  -15.3016 C   0  0  0  0  0  0  0  0  0  0  0  0
   17.1767  -13.7424  -15.9416 C   0  0  0  0  0  0  0  0  0  0  0  0
   17.1565  -15.0337  -15.2462 C   0  0  0  0  0  0  0  0  0  0  0  0
   17.7895  -16.0563  -15.5988 O   0  0  0  0  0  0  0  0  0  0  0  0
   19.4135  -10.7574  -15.6678 C   0  0  0  0  0  0  0  0  0  0  0  0
   19.7302  -10.5444  -14.4711 O   0  0  0  0  0  0  0  0  0  0  0  0
   16.3757  -15.1894  -14.0788 O   0  0  0  0  0  0  0  0  0  0  0  0
   20.3593  -10.3290  -16.6473 N   0  0  0  0  0  0  0  0  0  0  0  0
   21.5908   -9.6450  -16.3258 C   0  0  1  0  0  0  0  0  0  0  0  0
   22.7040  -10.0121  -17.2820 C   0  0  0  0  0  0  0  0  0  0  0  0
   23.9630   -9.3089  -17.0091 C   0  0  0  0  0  0  0  0  0  0  0  0
   24.4728   -8.2160  -17.6720 C   0  0  0  0  0  0  0  0  0  0  0  0
   25.6653   -7.8685  -17.1080 N   0  0  0  0  0  0  0  0  0  0  0  0
   25.8934   -8.7358  -16.1065 C   0  0  0  0  0  0  0  0  0  0  0  0
   24.8628   -9.6011  -16.0529 N   0  0  0  0  0  0  0  0  0  0  0  0
   21.3255   -8.1861  -16.2657 C   0  0  0  0  0  0  0  0  0  0  0  0
   20.5925   -7.6244  -17.1258 O   0  0  0  0  0  0  0  0  0  0  0  0
   20.5230   -4.2849  -13.8819 O   0  0  0  0  0  0  0  0  0  0  0  0
   20.8437   -5.6203  -13.9839 C   0  0  0  0  0  0  0  0  0  0  0  0
   21.6364   -5.8947  -15.2723 C   0  0  2  0  0  0  0  0  0  0  0  0
   21.8683   -7.3380  -15.2531 N   0  0  0  0  0  0  0  0  0  0  0  0
   22.9127   -5.1953  -15.1303 C   0  0  0  0  0  0  0  0  0  0  0  0
   23.0841   -3.8821  -15.5401 O   0  0  0  0  0  0  0  0  0  0  0  0
   23.8951   -5.7876  -14.6232 O   0  0  0  0  0  0  0  0  0  0  0  0
  2  1  1  6
  2  7  1  0
  3  2  1  0
  4  3  1  0
  4  5  1  0
  5  6  2  0
  7  8  2  0
  9  5  1  0
 10  7  1  0
 10 11  1  0
 11 12  1  6
 12 13  1  0
 13 17  1  0
 13 14  2  0
 14 15  1  0
 16 15  1  0
 17 16  2  0
 18 11  1  0
 18 19  2  0
 20 21  1  0
 22 21  1  1
 22 23  1  0
 23 18  1  0
 24 22  1  0
 24 25  1  0
 26 24  2  0
M  END
$$$$
