EHS.pdb
     RDKit          3D

 26 26  0  0  1  0  0  0  0  0999 V2000
   21.5828  -11.6957  -18.6106 N   0  0  0  0  0  0  0  0  0  0  0  0
   21.0320  -11.5164  -17.2930 C   0  0  1  0  0  0  0  0  0  0  0  0
   20.9218  -12.8933  -16.6925 C   0  0  0  0  0  0  0  0  0  0  0  0
   19.5558  -13.4550  -16.5982 C   0  0  0  0  0  0  0  0  0  0  0  0
   19.5234  -14.7882  -15.9875 C   0  0  0  0  0  0  0  0  0  0  0  0
   20.5165  -15.3983  -15.5269 O   0  0  0  0  0  0  0  0  0  0  0  0
   21.7905  -10.6374  -16.4245 C   0  0  0  0  0  0  0  0  0  0  0  0
   21.4408  -10.5031  -15.2256 O   0  0  0  0  0  0  0  0  0  0  0  0
   18.2974  -15.4836  -15.8863 O   0  0  0  0  0  0  0  0  0  0  0  0
   22.9368   -9.8873  -16.8258 N   0  0  0  0  0  0  0  0  0  0  0  0
   23.6751   -9.0176  -15.9391 C   0  0  1  0  0  0  0  0  0  0  0  0
   25.1523   -9.0054  -16.2649 C   0  0  0  0  0  0  0  0  0  0  0  0
   25.8141  -10.2925  -16.0210 C   0  0  0  0  0  0  0  0  0  0  0  0
   25.2539  -11.4375  -15.5025 C   0  0  0  0  0  0  0  0  0  0  0  0
   26.2077  -12.4107  -15.4374 N   0  0  0  0  0  0  0  0  0  0  0  0
   27.3469  -11.8760  -15.9100 C   0  0  0  0  0  0  0  0  0  0  0  0
   27.1019  -10.5988  -16.2599 N   0  0  0  0  0  0  0  0  0  0  0  0
   23.0562   -7.6691  -15.9677 C   0  0  0  0  0  0  0  0  0  0  0  0
   22.9151   -7.0434  -17.0545 O   0  0  0  0  0  0  0  0  0  0  0  0
   19.8416   -4.6679  -14.8874 O   0  0  0  0  0  0  0  0  0  0  0  0
   20.5093   -5.8723  -14.8968 C   0  0  0  0  0  0  0  0  0  0  0  0
   22.0307   -5.6534  -14.8634 C   0  0  2  0  0  0  0  0  0  0  0  0
   22.5882   -7.0031  -14.7943 N   0  0  0  0  0  0  0  0  0  0  0  0
   22.3199   -4.9437  -13.6180 C   0  0  0  0  0  0  0  0  0  0  0  0
   22.5635   -5.6113  -12.4278 O   0  0  0  0  0  0  0  0  0  0  0  0
   22.3525   -3.6900  -13.6082 O   0  0  0  0  0  0  0  0  0  0  0  0
  2  1  1  6
  2  7  1  0
  3  2  1  0
  4  3  1  0
  4  5  1  0
  5  6  2  0
  7  8  2  0
  9  5  1  0
 10  7  1  0
 10 11  1  0
 11 12  1  6
 12 13  1  0
 13 17  1  0
 13 14  2  0
 14 15  1  0
 16 15  1  0
 17 16  2  0
 18 11  1  0
 18 19  2  0
 20 21  1  0
 22 21  1  1
 22 23  1  0
 23 18  1  0
 24 22  1  0
 24 25  1  0
 26 24  2  0
M  END
$$$$
