EHS.pdb
     RDKit          3D

 26 26  0  0  1  0  0  0  0  0999 V2000
   22.2156  -13.1551  -16.1969 N   0  0  0  0  0  0  0  0  0  0  0  0
   21.4689  -11.9512  -16.4513 C   0  0  1  0  0  0  0  0  0  0  0  0
   20.1408  -12.1269  -15.7629 C   0  0  0  0  0  0  0  0  0  0  0  0
   19.2659  -13.1936  -16.2985 C   0  0  0  0  0  0  0  0  0  0  0  0
   17.9475  -13.2321  -15.6569 C   0  0  0  0  0  0  0  0  0  0  0  0
   17.1929  -12.2451  -15.4924 O   0  0  0  0  0  0  0  0  0  0  0  0
   22.1126  -10.7261  -16.0187 C   0  0  0  0  0  0  0  0  0  0  0  0
   22.5767  -10.6515  -14.8539 O   0  0  0  0  0  0  0  0  0  0  0  0
   17.4414  -14.4571  -15.1672 O   0  0  0  0  0  0  0  0  0  0  0  0
   22.2701   -9.5601  -16.8269 N   0  0  0  0  0  0  0  0  0  0  0  0
   22.9863   -8.3803  -16.3992 C   0  0  1  0  0  0  0  0  0  0  0  0
   24.3660   -8.3061  -17.0150 C   0  0  0  0  0  0  0  0  0  0  0  0
   25.2865   -9.3314  -16.5093 C   0  0  0  0  0  0  0  0  0  0  0  0
   26.0539   -9.2787  -15.3682 C   0  0  0  0  0  0  0  0  0  0  0  0
   26.7697  -10.4349  -15.2584 N   0  0  0  0  0  0  0  0  0  0  0  0
   26.4504  -11.1965  -16.3191 C   0  0  0  0  0  0  0  0  0  0  0  0
   25.5557  -10.5247  -17.0687 N   0  0  0  0  0  0  0  0  0  0  0  0
   22.1520   -7.1860  -16.6820 C   0  0  0  0  0  0  0  0  0  0  0  0
   21.6623   -6.9941  -17.8292 O   0  0  0  0  0  0  0  0  0  0  0  0
   19.7059   -3.4475  -14.7753 O   0  0  0  0  0  0  0  0  0  0  0  0
   20.5547   -4.5229  -14.6355 C   0  0  0  0  0  0  0  0  0  0  0  0
   20.9905   -5.0570  -16.0097 C   0  0  2  0  0  0  0  0  0  0  0  0
   21.8526   -6.1957  -15.6977 N   0  0  0  0  0  0  0  0  0  0  0  0
   21.7872   -4.0000  -16.6313 C   0  0  0  0  0  0  0  0  0  0  0  0
   21.2053   -2.9273  -17.2890 O   0  0  0  0  0  0  0  0  0  0  0  0
   23.0392   -4.0495  -16.5772 O   0  0  0  0  0  0  0  0  0  0  0  0
  2  1  1  1
  2  7  1  0
  3  2  1  0
  4  3  1  0
  4  5  1  0
  5  6  2  0
  7  8  2  0
  9  5  1  0
 10  7  1  0
 10 11  1  0
 11 12  1  6
 12 13  1  0
 13 17  1  0
 13 14  2  0
 14 15  1  0
 16 15  1  0
 17 16  2  0
 18 11  1  0
 18 19  2  0
 20 21  1  0
 22 21  1  1
 22 23  1  0
 23 18  1  0
 24 22  1  0
 24 25  1  0
 26 24  2  0
M  END
$$$$
