LIK.pdb
     RDKit          3D

 26 25  0  0  1  0  0  0  0  0999 V2000
   26.6544  -16.2840  -16.5333 C   0  0  0  0  0  0  0  0  0  0  0  0
   27.6125  -17.2276  -15.7884 C   0  0  1  0  0  0  0  0  0  0  0  0
   28.2780  -16.3534  -14.7370 C   0  0  0  0  0  0  0  0  0  0  0  0
   26.7487  -18.2844  -15.1793 C   0  0  0  0  0  0  0  0  0  0  0  0
   27.4699  -19.3152  -14.3677 C   0  0  2  0  0  0  0  0  0  0  0  0
   28.4993  -19.9451  -15.1341 N   0  0  0  0  0  0  0  0  0  0  0  0
   26.5784  -20.2292  -13.6445 C   0  0  0  0  0  0  0  0  0  0  0  0
   26.2323  -21.2903  -14.2170 O   0  0  0  0  0  0  0  0  0  0  0  0
   26.6773  -20.4648   -8.2665 C   0  0  0  0  0  0  0  0  0  0  0  0
   26.4410  -21.0792   -9.6143 C   0  0  0  0  0  0  0  0  0  0  0  0
   25.0883  -20.7095  -10.1920 C   0  0  2  0  0  0  0  0  0  0  0  0
   23.9663  -21.4912   -9.5982 C   0  0  0  0  0  0  0  0  0  0  0  0
   25.0767  -20.8187  -11.7011 C   0  0  2  0  0  0  0  0  0  0  0  0
   26.0759  -19.9973  -12.3355 N   0  0  0  0  0  0  0  0  0  0  0  0
   23.7222  -20.6299  -12.2817 C   0  0  0  0  0  0  0  0  0  0  0  0
   23.1503  -19.5056  -12.3435 O   0  0  0  0  0  0  0  0  0  0  0  0
   22.9935  -21.7321  -12.8054 N   0  0  0  0  0  0  0  0  0  0  0  0
   21.6933  -21.6382  -13.3930 C   0  0  1  0  0  0  0  0  0  0  0  0
   21.3686  -22.9336  -14.1338 C   0  0  0  0  0  0  0  0  0  0  0  0
   19.9768  -22.9542  -14.6545 C   0  0  0  0  0  0  0  0  0  0  0  0
   19.9697  -23.1176  -16.1515 C   0  0  0  0  0  0  0  0  0  0  0  0
   18.5835  -23.1072  -16.6960 C   0  0  0  0  0  0  0  0  0  0  0  0
   18.5806  -23.2217  -18.1454 N   0  0  0  0  0  0  0  0  0  0  0  0
   20.6834  -21.5047  -12.2965 C   0  0  0  0  0  0  0  0  0  0  0  0
   19.5230  -20.7410  -12.4711 O   0  0  0  0  0  0  0  0  0  0  0  0
   20.8370  -22.0660  -11.1917 O   0  0  0  0  0  0  0  0  0  0  0  0
  2  3  1  1
  2  1  1  0
  4  2  1  0
  5  7  1  0
  5  4  1  0
  5  6  1  6
  7  8  2  0
  9 10  1  0
 11 12  1  1
 11 10  1  0
 13 14  1  6
 13 11  1  0
 14  7  1  0
 15 13  1  0
 16 15  2  0
 17 15  1  0
 18 24  1  0
 18 17  1  0
 18 19  1  1
 20 19  1  0
 21 20  1  0
 22 21  1  0
 23 22  1  0
 24 25  1  0
 26 24  2  0
M  END
$$$$
