LIK.pdb
     RDKit          3D

 26 25  0  0  1  0  0  0  0  0999 V2000
   27.4021  -14.6354  -16.3265 C   0  0  0  0  0  0  0  0  0  0  0  0
   26.1767  -15.5396  -16.1164 C   0  0  1  0  0  0  0  0  0  0  0  0
   26.0977  -15.7421  -14.6113 C   0  0  0  0  0  0  0  0  0  0  0  0
   25.0094  -14.7697  -16.6443 C   0  0  0  0  0  0  0  0  0  0  0  0
   23.6722  -15.4133  -16.4463 C   0  0  2  0  0  0  0  0  0  0  0  0
   23.6653  -16.7505  -16.9520 N   0  0  0  0  0  0  0  0  0  0  0  0
   22.5439  -14.5766  -16.8708 C   0  0  0  0  0  0  0  0  0  0  0  0
   22.3332  -14.4520  -18.1010 O   0  0  0  0  0  0  0  0  0  0  0  0
   17.6857  -15.3291  -15.0667 C   0  0  0  0  0  0  0  0  0  0  0  0
   18.8601  -14.9176  -15.9042 C   0  0  0  0  0  0  0  0  0  0  0  0
   19.2593  -13.4726  -15.6745 C   0  0  2  0  0  0  0  0  0  0  0  0
   18.1727  -12.5069  -16.0052 C   0  0  0  0  0  0  0  0  0  0  0  0
   20.5316  -13.1203  -16.4138 C   0  0  2  0  0  0  0  0  0  0  0  0
   21.6685  -13.8936  -15.9838 N   0  0  0  0  0  0  0  0  0  0  0  0
   20.8018  -11.6594  -16.4313 C   0  0  0  0  0  0  0  0  0  0  0  0
   21.1821  -11.0175  -15.4123 O   0  0  0  0  0  0  0  0  0  0  0  0
   20.6405  -10.9024  -17.6234 N   0  0  0  0  0  0  0  0  0  0  0  0
   20.7726   -9.4811  -17.7048 C   0  0  1  0  0  0  0  0  0  0  0  0
   20.5454   -9.0247  -19.1444 C   0  0  0  0  0  0  0  0  0  0  0  0
   20.7860   -7.5688  -19.3212 C   0  0  0  0  0  0  0  0  0  0  0  0
   20.5860   -7.1660  -20.7584 C   0  0  0  0  0  0  0  0  0  0  0  0
   20.8720   -5.7190  -20.9653 C   0  0  0  0  0  0  0  0  0  0  0  0
   20.8781   -5.3749  -22.3780 N   0  0  0  0  0  0  0  0  0  0  0  0
   19.6932   -8.8540  -16.8790 C   0  0  0  0  0  0  0  0  0  0  0  0
   19.9557   -7.7427  -16.0691 O   0  0  0  0  0  0  0  0  0  0  0  0
   18.5254   -9.2960  -16.8816 O   0  0  0  0  0  0  0  0  0  0  0  0
  2  3  1  1
  2  1  1  0
  4  2  1  0
  5  7  1  0
  5  4  1  0
  5  6  1  6
  7  8  2  0
  9 10  1  0
 11 12  1  6
 11 10  1  0
 13 14  1  1
 13 11  1  0
 14  7  1  0
 15 13  1  0
 16 15  2  0
 17 15  1  0
 18 24  1  0
 18 17  1  0
 18 19  1  6
 20 19  1  0
 21 20  1  0
 22 21  1  0
 23 22  1  0
 24 25  1  0
 26 24  2  0
M  END
$$$$
