LIK.pdb
     RDKit          3D

 26 25  0  0  1  0  0  0  0  0999 V2000
   27.3818  -17.2145  -16.9633 C   0  0  0  0  0  0  0  0  0  0  0  0
   28.2062  -18.2470  -16.1774 C   0  0  1  0  0  0  0  0  0  0  0  0
   29.0747  -17.4196  -15.2428 C   0  0  0  0  0  0  0  0  0  0  0  0
   27.2116  -19.0794  -15.4346 C   0  0  0  0  0  0  0  0  0  0  0  0
   27.7926  -20.0788  -14.4832 C   0  0  2  0  0  0  0  0  0  0  0  0
   28.6867  -20.9691  -15.1554 N   0  0  0  0  0  0  0  0  0  0  0  0
   26.7959  -20.7241  -13.6209 C   0  0  0  0  0  0  0  0  0  0  0  0
   26.2711  -21.7901  -14.0229 O   0  0  0  0  0  0  0  0  0  0  0  0
   27.0599  -20.2938   -8.2166 C   0  0  0  0  0  0  0  0  0  0  0  0
   26.7591  -20.9282   -9.5422 C   0  0  0  0  0  0  0  0  0  0  0  0
   25.4185  -20.4939  -10.1029 C   0  0  2  0  0  0  0  0  0  0  0  0
   24.2608  -21.0685   -9.3596 C   0  0  0  0  0  0  0  0  0  0  0  0
   25.3076  -20.7948  -11.5815 C   0  0  2  0  0  0  0  0  0  0  0  0
   26.3801  -20.2254  -12.3568 N   0  0  0  0  0  0  0  0  0  0  0  0
   23.9656  -20.4778  -12.1347 C   0  0  0  0  0  0  0  0  0  0  0  0
   23.5402  -19.2969  -12.2749 O   0  0  0  0  0  0  0  0  0  0  0  0
   23.0807  -21.5137  -12.5398 N   0  0  0  0  0  0  0  0  0  0  0  0
   21.8182  -21.2985  -13.1755 C   0  0  1  0  0  0  0  0  0  0  0  0
   21.4631  -22.5083  -14.0372 C   0  0  0  0  0  0  0  0  0  0  0  0
   20.1823  -22.3258  -14.7686 C   0  0  0  0  0  0  0  0  0  0  0  0
   19.8771  -23.5310  -15.6184 C   0  0  0  0  0  0  0  0  0  0  0  0
   18.6114  -23.3541  -16.3834 C   0  0  0  0  0  0  0  0  0  0  0  0
   18.3489  -24.4934  -17.2478 N   0  0  0  0  0  0  0  0  0  0  0  0
   20.7633  -21.1983  -12.1185 C   0  0  0  0  0  0  0  0  0  0  0  0
   20.9470  -21.7758  -10.8564 O   0  0  0  0  0  0  0  0  0  0  0  0
   19.6865  -20.5998  -12.3216 O   0  0  0  0  0  0  0  0  0  0  0  0
  2  3  1  1
  2  1  1  0
  4  2  1  0
  5  7  1  0
  5  4  1  0
  5  6  1  6
  7  8  2  0
  9 10  1  0
 11 12  1  1
 11 10  1  0
 13 14  1  6
 13 11  1  0
 14  7  1  0
 15 13  1  0
 16 15  2  0
 17 15  1  0
 18 24  1  0
 18 17  1  0
 18 19  1  6
 20 19  1  0
 21 20  1  0
 22 21  1  0
 23 22  1  0
 24 25  1  0
 26 24  2  0
M  END
$$$$
