LIK.pdb
     RDKit          3D

 26 25  0  0  1  0  0  0  0  0999 V2000
   29.5233  -20.8881  -10.1579 C   0  0  0  0  0  0  0  0  0  0  0  0
   29.2029  -20.5387  -11.6203 C   0  0  1  0  0  0  0  0  0  0  0  0
   29.7008  -21.7310  -12.4220 C   0  0  0  0  0  0  0  0  0  0  0  0
   27.7166  -20.3950  -11.6865 C   0  0  0  0  0  0  0  0  0  0  0  0
   27.1709  -19.9642  -13.0124 C   0  0  2  0  0  0  0  0  0  0  0  0
   27.9172  -18.8664  -13.5434 N   0  0  0  0  0  0  0  0  0  0  0  0
   25.7132  -19.7963  -13.0262 C   0  0  0  0  0  0  0  0  0  0  0  0
   25.2032  -19.0078  -12.1947 O   0  0  0  0  0  0  0  0  0  0  0  0
   23.3682  -17.6001  -16.8224 C   0  0  0  0  0  0  0  0  0  0  0  0
   23.7166  -18.2346  -15.5086 C   0  0  0  0  0  0  0  0  0  0  0  0
   23.0016  -19.5547  -15.2935 C   0  0  2  0  0  0  0  0  0  0  0  0
   21.5177  -19.4347  -15.3720 C   0  0  0  0  0  0  0  0  0  0  0  0
   23.4175  -20.2101  -13.9947 C   0  0  2  0  0  0  0  0  0  0  0  0
   24.8331  -20.4666  -13.9183 N   0  0  0  0  0  0  0  0  0  0  0  0
   22.5970  -21.4036  -13.6633 C   0  0  0  0  0  0  0  0  0  0  0  0
   22.7187  -22.5099  -14.2603 O   0  0  0  0  0  0  0  0  0  0  0  0
   21.6163  -21.3516  -12.6359 N   0  0  0  0  0  0  0  0  0  0  0  0
   20.7376  -22.4282  -12.2992 C   0  0  1  0  0  0  0  0  0  0  0  0
   20.3891  -22.3626  -10.8138 C   0  0  0  0  0  0  0  0  0  0  0  0
   19.4970  -23.4740  -10.3922 C   0  0  0  0  0  0  0  0  0  0  0  0
   19.1096  -23.3270   -8.9444 C   0  0  0  0  0  0  0  0  0  0  0  0
   18.1860  -24.4127   -8.5128 C   0  0  0  0  0  0  0  0  0  0  0  0
   17.7598  -24.2316   -7.1345 N   0  0  0  0  0  0  0  0  0  0  0  0
   19.4555  -22.2497  -13.0505 C   0  0  0  0  0  0  0  0  0  0  0  0
   18.7413  -23.3523  -13.5344 O   0  0  0  0  0  0  0  0  0  0  0  0
   18.9779  -21.1176  -13.2725 O   0  0  0  0  0  0  0  0  0  0  0  0
  2  3  1  6
  2  1  1  0
  4  2  1  0
  5  7  1  0
  5  4  1  0
  5  6  1  1
  7  8  2  0
  9 10  1  0
 11 12  1  1
 11 10  1  0
 13 14  1  6
 13 11  1  0
 14  7  1  0
 15 13  1  0
 16 15  2  0
 17 15  1  0
 18 24  1  0
 18 17  1  0
 18 19  1  1
 20 19  1  0
 21 20  1  0
 22 21  1  0
 23 22  1  0
 24 25  1  0
 26 24  2  0
M  END
$$$$
