LIK.pdb
     RDKit          3D

 26 25  0  0  1  0  0  0  0  0999 V2000
   18.8924  -19.0415  -15.4288 C   0  0  0  0  0  0  0  0  0  0  0  0
   20.3849  -19.1087  -15.0666 C   0  0  1  0  0  0  0  0  0  0  0  0
   20.7383  -17.7000  -14.6158 C   0  0  0  0  0  0  0  0  0  0  0  0
   20.4876  -20.1002  -13.9529 C   0  0  0  0  0  0  0  0  0  0  0  0
   21.8444  -20.2335  -13.3340 C   0  0  2  0  0  0  0  0  0  0  0  0
   22.8231  -20.5908  -14.3130 N   0  0  0  0  0  0  0  0  0  0  0  0
   21.8593  -21.0409  -12.1088 C   0  0  0  0  0  0  0  0  0  0  0  0
   21.7352  -22.2840  -12.2211 O   0  0  0  0  0  0  0  0  0  0  0  0
   25.3225  -19.9488   -8.0838 C   0  0  0  0  0  0  0  0  0  0  0  0
   24.4192  -20.6428   -9.0597 C   0  0  0  0  0  0  0  0  0  0  0  0
   22.9943  -20.7562   -8.5527 C   0  0  2  0  0  0  0  0  0  0  0  0
   22.8858  -21.5324   -7.2845 C   0  0  0  0  0  0  0  0  0  0  0  0
   22.0696  -21.3230   -9.6077 C   0  0  2  0  0  0  0  0  0  0  0  0
   22.0047  -20.5130  -10.7974 N   0  0  0  0  0  0  0  0  0  0  0  0
   20.7275  -21.6681   -9.0718 C   0  0  0  0  0  0  0  0  0  0  0  0
   19.8360  -20.8041   -8.8396 O   0  0  0  0  0  0  0  0  0  0  0  0
   20.3797  -23.0171   -8.7904 N   0  0  0  0  0  0  0  0  0  0  0  0
   19.1051  -23.4398   -8.2994 C   0  0  1  0  0  0  0  0  0  0  0  0
   18.9100  -24.9269   -8.5874 C   0  0  0  0  0  0  0  0  0  0  0  0
   17.6201  -25.4414   -8.0582 C   0  0  0  0  0  0  0  0  0  0  0  0
   17.4447  -26.8968   -8.4029 C   0  0  0  0  0  0  0  0  0  0  0  0
   16.1616  -27.4339   -7.8706 C   0  0  0  0  0  0  0  0  0  0  0  0
   15.9223  -28.7923   -8.3303 N   0  0  0  0  0  0  0  0  0  0  0  0
   19.0923  -23.2844   -6.8108 C   0  0  0  0  0  0  0  0  0  0  0  0
   20.2818  -23.2935   -6.0726 O   0  0  0  0  0  0  0  0  0  0  0  0
   18.0268  -23.1417   -6.1757 O   0  0  0  0  0  0  0  0  0  0  0  0
  2  3  1  1
  2  1  1  0
  4  2  1  0
  5  7  1  0
  5  4  1  0
  5  6  1  6
  7  8  2  0
  9 10  1  0
 11 12  1  1
 11 10  1  0
 13 14  1  6
 13 11  1  0
 14  7  1  0
 15 13  1  0
 16 15  2  0
 17 15  1  0
 18 24  1  0
 18 17  1  0
 18 19  1  1
 20 19  1  0
 21 20  1  0
 22 21  1  0
 23 22  1  0
 24 25  1  0
 26 24  2  0
M  END
$$$$
