LIK.pdb
     RDKit          3D

 26 25  0  0  1  0  0  0  0  0999 V2000
   19.1838  -22.9958  -14.7474 C   0  0  0  0  0  0  0  0  0  0  0  0
   19.8074  -22.7513  -13.3637 C   0  0  1  0  0  0  0  0  0  0  0  0
   20.2932  -24.1190  -12.9101 C   0  0  0  0  0  0  0  0  0  0  0  0
   20.9360  -21.7980  -13.5903 C   0  0  0  0  0  0  0  0  0  0  0  0
   21.8097  -21.5420  -12.4017 C   0  0  2  0  0  0  0  0  0  0  0  0
   21.0559  -20.9915  -11.3188 N   0  0  0  0  0  0  0  0  0  0  0  0
   23.0540  -20.8338  -12.7234 C   0  0  0  0  0  0  0  0  0  0  0  0
   23.0041  -19.5879  -12.8601 O   0  0  0  0  0  0  0  0  0  0  0  0
   27.5599  -21.2374  -10.0435 C   0  0  0  0  0  0  0  0  0  0  0  0
   26.4047  -20.8757  -10.9293 C   0  0  0  0  0  0  0  0  0  0  0  0
   26.7062  -21.1021  -12.3983 C   0  0  2  0  0  0  0  0  0  0  0  0
   27.9258  -20.3809  -12.8620 C   0  0  0  0  0  0  0  0  0  0  0  0
   25.5184  -20.7609  -13.2713 C   0  0  2  0  0  0  0  0  0  0  0  0
   24.3179  -21.4612  -12.8923 N   0  0  0  0  0  0  0  0  0  0  0  0
   25.8183  -20.8751  -14.7220 C   0  0  0  0  0  0  0  0  0  0  0  0
   26.0199  -21.9807  -15.2983 O   0  0  0  0  0  0  0  0  0  0  0  0
   25.8932  -19.7182  -15.5443 N   0  0  0  0  0  0  0  0  0  0  0  0
   26.0925  -19.7418  -16.9600 C   0  0  1  0  0  0  0  0  0  0  0  0
   25.4736  -18.4947  -17.5876 C   0  0  0  0  0  0  0  0  0  0  0  0
   25.6630  -18.4491  -19.0610 C   0  0  0  0  0  0  0  0  0  0  0  0
   25.0624  -17.1942  -19.6373 C   0  0  0  0  0  0  0  0  0  0  0  0
   25.1837  -17.1618  -21.1214 C   0  0  0  0  0  0  0  0  0  0  0  0
   24.7112  -15.8992  -21.6661 N   0  0  0  0  0  0  0  0  0  0  0  0
   27.5623  -19.6781  -17.2355 C   0  0  0  0  0  0  0  0  0  0  0  0
   28.3675  -18.6988  -16.6418 O   0  0  0  0  0  0  0  0  0  0  0  0
   28.1216  -20.4911  -18.0005 O   0  0  0  0  0  0  0  0  0  0  0  0
  2  3  1  6
  2  1  1  0
  4  2  1  0
  5  7  1  0
  5  4  1  0
  5  6  1  1
  7  8  2  0
  9 10  1  0
 11 12  1  6
 11 10  1  0
 13 14  1  1
 13 11  1  0
 14  7  1  0
 15 13  1  0
 16 15  2  0
 17 15  1  0
 18 24  1  0
 18 17  1  0
 18 19  1  6
 20 19  1  0
 21 20  1  0
 22 21  1  0
 23 22  1  0
 24 25  1  0
 26 24  2  0
M  END
$$$$
