LIK.pdb
     RDKit          3D

 26 25  0  0  1  0  0  0  0  0999 V2000
   27.1277  -16.8912  -17.0297 C   0  0  0  0  0  0  0  0  0  0  0  0
   27.9363  -17.9908  -16.3224 C   0  0  1  0  0  0  0  0  0  0  0  0
   28.6451  -17.2778  -15.1814 C   0  0  0  0  0  0  0  0  0  0  0  0
   26.9305  -18.9811  -15.8309 C   0  0  0  0  0  0  0  0  0  0  0  0
   27.4217  -19.9295  -14.7817 C   0  0  2  0  0  0  0  0  0  0  0  0
   28.3844  -20.8387  -15.3207 N   0  0  0  0  0  0  0  0  0  0  0  0
   26.3493  -20.5468  -13.9930 C   0  0  0  0  0  0  0  0  0  0  0  0
   25.7740  -21.5549  -14.4685 O   0  0  0  0  0  0  0  0  0  0  0  0
   26.7265  -20.8342   -8.6596 C   0  0  0  0  0  0  0  0  0  0  0  0
   26.3324  -21.2218  -10.0541 C   0  0  0  0  0  0  0  0  0  0  0  0
   25.0204  -20.5933  -10.4826 C   0  0  2  0  0  0  0  0  0  0  0  0
   23.8406  -21.1604   -9.7690 C   0  0  0  0  0  0  0  0  0  0  0  0
   24.8272  -20.6705  -11.9813 C   0  0  2  0  0  0  0  0  0  0  0  0
   25.9132  -20.0821  -12.7228 N   0  0  0  0  0  0  0  0  0  0  0  0
   23.4964  -20.1737  -12.4167 C   0  0  0  0  0  0  0  0  0  0  0  0
   23.1785  -18.9515  -12.3996 O   0  0  0  0  0  0  0  0  0  0  0  0
   22.4993  -21.0730  -12.8827 N   0  0  0  0  0  0  0  0  0  0  0  0
   21.1916  -20.6828  -13.3092 C   0  0  1  0  0  0  0  0  0  0  0  0
   20.8585  -21.3628  -14.6355 C   0  0  0  0  0  0  0  0  0  0  0  0
   19.5129  -20.9867  -15.1421 C   0  0  0  0  0  0  0  0  0  0  0  0
   19.1606  -21.7895  -16.3665 C   0  0  0  0  0  0  0  0  0  0  0  0
   17.8469  -21.3748  -16.9327 C   0  0  0  0  0  0  0  0  0  0  0  0
   17.5477  -22.0912  -18.1620 N   0  0  0  0  0  0  0  0  0  0  0  0
   20.1957  -21.1799  -12.3086 C   0  0  0  0  0  0  0  0  0  0  0  0
   19.0279  -20.4594  -12.0312 O   0  0  0  0  0  0  0  0  0  0  0  0
   20.3683  -22.2493  -11.6876 O   0  0  0  0  0  0  0  0  0  0  0  0
  2  3  1  1
  2  1  1  0
  4  2  1  0
  5  7  1  0
  5  4  1  0
  5  6  1  6
  7  8  2  0
  9 10  1  0
 11 12  1  1
 11 10  1  0
 13 14  1  6
 13 11  1  0
 14  7  1  0
 15 13  1  0
 16 15  2  0
 17 15  1  0
 18 24  1  0
 18 17  1  0
 18 19  1  6
 20 19  1  0
 21 20  1  0
 22 21  1  0
 23 22  1  0
 24 25  1  0
 26 24  2  0
M  END
$$$$
