PAD.pdb
     RDKit          3D

 21 21  0  0  1  0  0  0  0  0999 V2000
    8.2012  -15.1137   19.2715 N   0  0  0  0  0  0  0  0  0  0  0  0
    7.9627  -14.6148   17.9279 C   0  0  0  0  0  0  0  0  0  0  0  0
    7.4763  -13.2089   18.1568 C   0  0  0  0  0  0  0  0  0  0  0  0
    8.0308  -12.7730   19.5002 C   0  0  0  0  0  0  0  0  0  0  0  0
    8.8376  -13.9847   19.9036 C   0  0  1  0  0  0  0  0  0  0  0  0
    8.8599  -14.1899   21.3671 C   0  0  0  0  0  0  0  0  0  0  0  0
    9.4309  -13.3432   22.1280 O   0  0  0  0  0  0  0  0  0  0  0  0
    7.0961  -16.3315   23.8128 C   0  0  0  0  0  0  0  0  0  0  0  0
    8.3620  -15.5848   23.4179 C   0  0  2  0  0  0  0  0  0  0  0  0
    8.2664  -15.3072   22.0043 N   0  0  0  0  0  0  0  0  0  0  0  0
    9.5213  -16.4325   23.7535 C   0  0  0  0  0  0  0  0  0  0  0  0
    9.7047  -16.8125   24.9287 O   0  0  0  0  0  0  0  0  0  0  0  0
   10.4287  -16.8160   22.7381 N   0  0  0  0  0  0  0  0  0  0  0  0
   11.6326  -17.5661   22.9777 C   0  0  1  0  0  0  0  0  0  0  0  0
   11.8274  -18.6274   21.9464 C   0  0  0  0  0  0  0  0  0  0  0  0
   10.9189  -19.7722   22.0761 C   0  0  0  0  0  0  0  0  0  0  0  0
   10.8821  -20.7671   21.3179 O   0  0  0  0  0  0  0  0  0  0  0  0
   12.8092  -16.6695   23.1116 C   0  0  0  0  0  0  0  0  0  0  0  0
   12.7134  -15.4447   22.8473 O   0  0  0  0  0  0  0  0  0  0  0  0
   10.0142  -19.7590   23.1338 O   0  0  0  0  0  0  0  0  0  0  0  0
   14.0478  -17.1367   23.5282 O   0  0  0  0  0  0  0  0  0  0  0  0
  2  1  1  0
  3  2  1  0
  4  3  1  0
  4  5  1  0
  5  1  1  0
  6 10  1  0
  5  6  1  1
  7  6  2  0
  9  8  1  6
  9 10  1  0
  9 11  1  0
 11 13  1  0
 12 11  2  0
 13 14  1  0
 14 18  1  0
 14 15  1  6
 16 20  1  0
 16 15  1  0
 17 16  2  0
 18 21  1  0
 19 18  2  0
M  END
$$$$
