PAD.pdb
     RDKit          3D

 21 21  0  0  1  0  0  0  0  0999 V2000
    7.6649  -15.1745   20.0739 N   0  0  0  0  0  0  0  0  0  0  0  0
    7.3479  -14.9618   18.6720 C   0  0  0  0  0  0  0  0  0  0  0  0
    7.3703  -13.4634   18.5307 C   0  0  0  0  0  0  0  0  0  0  0  0
    8.2706  -12.9386   19.6336 C   0  0  0  0  0  0  0  0  0  0  0  0
    8.7241  -14.2205   20.2916 C   0  0  1  0  0  0  0  0  0  0  0  0
    8.9521  -14.0632   21.7433 C   0  0  0  0  0  0  0  0  0  0  0  0
   10.0055  -13.4902   22.1719 O   0  0  0  0  0  0  0  0  0  0  0  0
    6.8877  -14.6757   24.8084 C   0  0  0  0  0  0  0  0  0  0  0  0
    8.2163  -14.3363   24.1482 C   0  0  2  0  0  0  0  0  0  0  0  0
    8.0433  -14.5244   22.7272 N   0  0  0  0  0  0  0  0  0  0  0  0
    9.2524  -15.2189   24.7163 C   0  0  0  0  0  0  0  0  0  0  0  0
    9.4172  -15.2825   25.9524 O   0  0  0  0  0  0  0  0  0  0  0  0
   10.0624  -15.9963   23.8554 N   0  0  0  0  0  0  0  0  0  0  0  0
   11.0134  -16.9740   24.3126 C   0  0  1  0  0  0  0  0  0  0  0  0
   10.3535  -18.0359   25.1279 C   0  0  0  0  0  0  0  0  0  0  0  0
   11.2753  -19.0320   25.6856 C   0  0  0  0  0  0  0  0  0  0  0  0
   12.5127  -19.0676   25.5026 O   0  0  0  0  0  0  0  0  0  0  0  0
   11.8070  -17.5236   23.1837 C   0  0  0  0  0  0  0  0  0  0  0  0
   11.2360  -17.9545   22.1504 O   0  0  0  0  0  0  0  0  0  0  0  0
   10.7339  -20.0297   26.4912 O   0  0  0  0  0  0  0  0  0  0  0  0
   13.1930  -17.5851   23.2186 O   0  0  0  0  0  0  0  0  0  0  0  0
  2  1  1  0
  3  2  1  0
  4  3  1  0
  4  5  1  0
  5  1  1  0
  6 10  1  0
  5  6  1  1
  7  6  2  0
  9  8  1  1
  9 10  1  0
  9 11  1  0
 11 13  1  0
 12 11  2  0
 13 14  1  0
 14 18  1  0
 14 15  1  6
 16 20  1  0
 16 15  1  0
 17 16  2  0
 18 21  1  0
 19 18  2  0
M  END
$$$$
