PAD.pdb
     RDKit          3D

 21 21  0  0  1  0  0  0  0  0999 V2000
    7.8674  -15.0200   20.0906 N   0  0  0  0  0  0  0  0  0  0  0  0
    7.6109  -14.7494   18.6864 C   0  0  0  0  0  0  0  0  0  0  0  0
    7.4298  -13.2557   18.6442 C   0  0  0  0  0  0  0  0  0  0  0  0
    8.1766  -12.6958   19.8405 C   0  0  0  0  0  0  0  0  0  0  0  0
    8.7653  -13.9488   20.4450 C   0  0  1  0  0  0  0  0  0  0  0  0
    8.8784  -13.8697   21.9164 C   0  0  0  0  0  0  0  0  0  0  0  0
    9.8677  -13.2764   22.4558 O   0  0  0  0  0  0  0  0  0  0  0  0
    6.6272  -14.6444   24.7909 C   0  0  0  0  0  0  0  0  0  0  0  0
    8.0223  -14.3862   24.2402 C   0  0  2  0  0  0  0  0  0  0  0  0
    7.9241  -14.4306   22.8004 N   0  0  0  0  0  0  0  0  0  0  0  0
    8.9293  -15.4163   24.7800 C   0  0  0  0  0  0  0  0  0  0  0  0
    9.0378  -15.5761   26.0137 O   0  0  0  0  0  0  0  0  0  0  0  0
    9.6789  -16.2262   23.8948 N   0  0  0  0  0  0  0  0  0  0  0  0
   10.5969  -17.2478   24.3228 C   0  0  1  0  0  0  0  0  0  0  0  0
   10.1637  -18.5985   23.8584 C   0  0  0  0  0  0  0  0  0  0  0  0
   11.1033  -19.6792   24.1781 C   0  0  0  0  0  0  0  0  0  0  0  0
   12.1190  -19.5758   24.9017 O   0  0  0  0  0  0  0  0  0  0  0  0
   11.9905  -16.9212   23.9260 C   0  0  0  0  0  0  0  0  0  0  0  0
   12.9461  -17.6545   24.2842 O   0  0  0  0  0  0  0  0  0  0  0  0
   10.8501  -20.9343   23.6323 O   0  0  0  0  0  0  0  0  0  0  0  0
   12.2952  -15.8091   23.1538 O   0  0  0  0  0  0  0  0  0  0  0  0
  2  1  1  0
  3  2  1  0
  4  3  1  0
  4  5  1  0
  5  1  1  0
  6 10  1  0
  5  6  1  1
  7  6  2  0
  9  8  1  1
  9 10  1  0
  9 11  1  0
 11 13  1  0
 12 11  2  0
 13 14  1  0
 14 18  1  0
 14 15  1  6
 16 20  1  0
 16 15  1  0
 17 16  2  0
 18 21  1  0
 19 18  2  0
M  END
$$$$
