PAD.pdb
     RDKit          3D

 21 21  0  0  1  0  0  0  0  0999 V2000
    8.5045  -14.6445   19.1277 N   0  0  0  0  0  0  0  0  0  0  0  0
    8.4788  -13.7670   17.9701 C   0  0  0  0  0  0  0  0  0  0  0  0
    7.4914  -12.7001   18.3604 C   0  0  0  0  0  0  0  0  0  0  0  0
    7.4758  -12.6595   19.8771 C   0  0  0  0  0  0  0  0  0  0  0  0
    8.5132  -13.7028   20.2197 C   0  0  1  0  0  0  0  0  0  0  0  0
    8.2103  -14.4111   21.4810 C   0  0  0  0  0  0  0  0  0  0  0  0
    8.1891  -13.7787   22.5862 O   0  0  0  0  0  0  0  0  0  0  0  0
    6.5005  -17.5220   22.3648 C   0  0  0  0  0  0  0  0  0  0  0  0
    7.5592  -16.4994   22.7516 C   0  0  2  0  0  0  0  0  0  0  0  0
    7.9315  -15.7984   21.5456 N   0  0  0  0  0  0  0  0  0  0  0  0
    8.6923  -17.2178   23.3642 C   0  0  0  0  0  0  0  0  0  0  0  0
    8.4937  -18.0445   24.2787 O   0  0  0  0  0  0  0  0  0  0  0  0
   10.0095  -16.9678   22.9126 N   0  0  0  0  0  0  0  0  0  0  0  0
   11.1811  -17.5910   23.4679 C   0  0  1  0  0  0  0  0  0  0  0  0
   12.3674  -17.4087   22.5806 C   0  0  0  0  0  0  0  0  0  0  0  0
   12.1546  -17.8284   21.1908 C   0  0  0  0  0  0  0  0  0  0  0  0
   12.6913  -17.3185   20.1819 O   0  0  0  0  0  0  0  0  0  0  0  0
   11.4267  -17.1342   24.8597 C   0  0  0  0  0  0  0  0  0  0  0  0
   10.8573  -16.1065   25.3056 O   0  0  0  0  0  0  0  0  0  0  0  0
   11.2795  -18.8870   20.9653 O   0  0  0  0  0  0  0  0  0  0  0  0
   12.2825  -17.8113   25.7171 O   0  0  0  0  0  0  0  0  0  0  0  0
  2  1  1  0
  3  2  1  0
  4  3  1  0
  4  5  1  0
  5  1  1  0
  6 10  1  0
  5  6  1  1
  7  6  2  0
  9  8  1  6
  9 10  1  0
  9 11  1  0
 11 13  1  0
 12 11  2  0
 13 14  1  0
 14 18  1  0
 14 15  1  6
 16 20  1  0
 16 15  1  0
 17 16  2  0
 18 21  1  0
 19 18  2  0
M  END
$$$$
