PAD.pdb
     RDKit          3D

 21 21  0  0  1  0  0  0  0  0999 V2000
    8.6409  -13.5002   19.3050 N   0  0  0  0  0  0  0  0  0  0  0  0
    7.8716  -13.6638   18.0834 C   0  0  0  0  0  0  0  0  0  0  0  0
    7.0734  -14.9145   18.3361 C   0  0  0  0  0  0  0  0  0  0  0  0
    6.9460  -15.0491   19.8421 C   0  0  0  0  0  0  0  0  0  0  0  0
    7.6641  -13.8089   20.3199 C   0  0  1  0  0  0  0  0  0  0  0  0
    8.3485  -14.0127   21.6139 C   0  0  0  0  0  0  0  0  0  0  0  0
    9.5935  -14.2782   21.6497 O   0  0  0  0  0  0  0  0  0  0  0  0
    7.3240  -13.7635   25.2156 C   0  0  0  0  0  0  0  0  0  0  0  0
    8.3248  -14.1586   24.1392 C   0  0  2  0  0  0  0  0  0  0  0  0
    7.6877  -13.9294   22.8641 N   0  0  0  0  0  0  0  0  0  0  0  0
    8.6904  -15.5723   24.3460 C   0  0  0  0  0  0  0  0  0  0  0  0
    7.9183  -16.4828   23.9798 O   0  0  0  0  0  0  0  0  0  0  0  0
    9.9220  -15.8967   24.9621 N   0  0  0  0  0  0  0  0  0  0  0  0
   10.3752  -17.2424   25.1928 C   0  0  1  0  0  0  0  0  0  0  0  0
   11.8523  -17.3581   25.0121 C   0  0  0  0  0  0  0  0  0  0  0  0
   12.3178  -17.0961   23.6456 C   0  0  0  0  0  0  0  0  0  0  0  0
   11.6804  -17.3377   22.5962 O   0  0  0  0  0  0  0  0  0  0  0  0
    9.9143  -17.7483   26.5110 C   0  0  0  0  0  0  0  0  0  0  0  0
    9.4327  -16.9622   27.3651 O   0  0  0  0  0  0  0  0  0  0  0  0
   13.5796  -16.5284   23.4935 O   0  0  0  0  0  0  0  0  0  0  0  0
    9.9934  -19.0908   26.8535 O   0  0  0  0  0  0  0  0  0  0  0  0
  2  1  1  0
  3  2  1  0
  4  3  1  0
  4  5  1  0
  5  1  1  0
  6 10  1  0
  5  6  1  1
  7  6  2  0
  9  8  1  1
  9 10  1  0
  9 11  1  0
 11 13  1  0
 12 11  2  0
 13 14  1  0
 14 18  1  0
 14 15  1  1
 16 20  1  0
 16 15  1  0
 17 16  2  0
 18 21  1  0
 19 18  2  0
M  END
$$$$
