PAD.pdb
     RDKit          3D

 21 21  0  0  1  0  0  0  0  0999 V2000
    8.1564  -14.8927   18.9785 N   0  0  0  0  0  0  0  0  0  0  0  0
    7.9569  -13.9995   17.8501 C   0  0  0  0  0  0  0  0  0  0  0  0
    7.3463  -12.7744   18.4760 C   0  0  0  0  0  0  0  0  0  0  0  0
    7.7848  -12.7669   19.9286 C   0  0  0  0  0  0  0  0  0  0  0  0
    8.6620  -13.9953   19.9876 C   0  0  1  0  0  0  0  0  0  0  0  0
    8.6157  -14.6626   21.3055 C   0  0  0  0  0  0  0  0  0  0  0  0
    9.0623  -14.0732   22.3423 O   0  0  0  0  0  0  0  0  0  0  0  0
    6.8623  -17.6072   22.7179 C   0  0  0  0  0  0  0  0  0  0  0  0
    8.0339  -16.6375   22.7754 C   0  0  2  0  0  0  0  0  0  0  0  0
    8.0881  -15.9627   21.5002 N   0  0  0  0  0  0  0  0  0  0  0  0
    9.2576  -17.4091   23.0626 C   0  0  0  0  0  0  0  0  0  0  0  0
    9.6197  -18.3248   22.2947 O   0  0  0  0  0  0  0  0  0  0  0  0
   10.0234  -17.1092   24.2137 N   0  0  0  0  0  0  0  0  0  0  0  0
   11.2115  -17.8240   24.5970 C   0  0  1  0  0  0  0  0  0  0  0  0
   12.4245  -16.9609   24.4907 C   0  0  0  0  0  0  0  0  0  0  0  0
   12.7972  -16.6064   23.1166 C   0  0  0  0  0  0  0  0  0  0  0  0
   12.7052  -15.4688   22.6035 O   0  0  0  0  0  0  0  0  0  0  0  0
   11.0597  -18.4422   25.9391 C   0  0  0  0  0  0  0  0  0  0  0  0
   10.1083  -18.1129   26.6911 O   0  0  0  0  0  0  0  0  0  0  0  0
   13.2987  -17.6194   22.3043 O   0  0  0  0  0  0  0  0  0  0  0  0
   11.9477  -19.3964   26.4154 O   0  0  0  0  0  0  0  0  0  0  0  0
  2  1  1  0
  3  2  1  0
  4  3  1  0
  4  5  1  0
  5  1  1  0
  6 10  1  0
  5  6  1  1
  7  6  2  0
  9  8  1  6
  9 10  1  0
  9 11  1  0
 11 13  1  0
 12 11  2  0
 13 14  1  0
 14 18  1  0
 14 15  1  1
 16 20  1  0
 16 15  1  0
 17 16  2  0
 18 21  1  0
 19 18  2  0
M  END
$$$$
