NPR.pdb
     RDKit          3D

 27 27  0  0  1  0  0  0  0  0999 V2000
    8.7722  -18.8138   18.1544 N   0  0  0  0  0  0  0  0  0  0  0  0
    8.0151  -18.7796   19.3458 C   0  0  0  0  0  0  0  0  0  0  0  0
    8.2497  -19.5088   20.3416 O   0  0  0  0  0  0  0  0  0  0  0  0
    6.8675  -17.8326   19.4524 C   0  0  0  0  0  0  0  0  0  0  0  0
    6.7704  -16.9669   18.1997 C   0  0  2  0  0  0  0  0  0  0  0  0
    6.7451  -17.8436   17.0596 N   0  0  0  0  0  0  0  0  0  0  0  0
    7.8996  -16.0024   18.1700 C   0  0  0  0  0  0  0  0  0  0  0  0
    8.7200  -16.2004   17.2074 O   0  0  0  0  0  0  0  0  0  0  0  0
    8.0896  -14.9481   19.1002 N   0  0  0  0  0  0  0  0  0  0  0  0
    7.2609  -14.6413   20.2212 C   0  0  0  0  0  0  0  0  0  0  0  0
    7.7508  -13.3314   20.7501 C   0  0  0  0  0  0  0  0  0  0  0  0
    8.6099  -12.7504   19.6173 C   0  0  0  0  0  0  0  0  0  0  0  0
    9.1834  -14.0245   19.0428 C   0  0  1  0  0  0  0  0  0  0  0  0
   10.3333  -14.4397   19.8752 C   0  0  0  0  0  0  0  0  0  0  0  0
   10.1680  -15.3464   20.7169 O   0  0  0  0  0  0  0  0  0  0  0  0
   18.4659  -13.9908   15.4785 N   0  0  0  0  0  0  0  0  0  0  0  0
   18.4308  -14.3542   16.8670 C   0  0  0  0  0  0  0  0  0  0  0  0
   19.5242  -14.2535   17.5171 N   0  0  0  0  0  0  0  0  0  0  0  0
   17.2643  -14.7987   17.4964 N   0  0  0  0  0  0  0  0  0  0  0  0
   16.1548  -13.9350   17.8444 C   0  0  0  0  0  0  0  0  0  0  0  0
   15.1075  -14.7528   18.5647 C   0  0  0  0  0  0  0  0  0  0  0  0
   13.8416  -13.9576   18.7493 C   0  0  0  0  0  0  0  0  0  0  0  0
   12.7706  -14.6665   19.5168 C   0  0  2  0  0  0  0  0  0  0  0  0
   11.6063  -13.8456   19.7470 N   0  0  0  0  0  0  0  0  0  0  0  0
   13.3297  -15.0854   20.8549 C   0  0  0  0  0  0  0  0  0  0  0  0
   12.9926  -14.4771   21.8955 O   0  0  0  0  0  0  0  0  0  0  0  0
   14.2199  -16.1430   20.9547 O   0  0  0  0  0  0  0  0  0  0  0  0
  2  1  1  0
  2  3  2  0
  4  2  1  0
  5  4  1  0
  5  6  1  6
  7  5  1  0
  7  9  1  0
  8  7  2  0
  9 13  1  0
 10  9  1  0
 10 11  1  0
 11 12  1  0
 13 12  1  0
 14 24  1  0
 13 14  1  1
 15 14  2  0
 17 16  1  0
 17 19  1  0
 18 17  2  0
 20 19  1  0
 21 22  1  0
 21 20  1  0
 23 22  1  1
 23 24  1  0
 25 23  1  0
 25 27  1  0
 26 25  2  0
M  END
$$$$
