NPR.pdb
     RDKit          3D

 27 27  0  0  1  0  0  0  0  0999 V2000
    5.6582  -18.1722   21.2921 N   0  0  0  0  0  0  0  0  0  0  0  0
    6.4654  -18.3899   20.1542 C   0  0  0  0  0  0  0  0  0  0  0  0
    7.2867  -19.3354   20.0530 O   0  0  0  0  0  0  0  0  0  0  0  0
    6.3547  -17.4590   18.9939 C   0  0  0  0  0  0  0  0  0  0  0  0
    7.7369  -16.9845   18.5552 C   0  0  2  0  0  0  0  0  0  0  0  0
    8.4943  -18.1413   18.1591 N   0  0  0  0  0  0  0  0  0  0  0  0
    8.3746  -16.2175   19.6559 C   0  0  0  0  0  0  0  0  0  0  0  0
    9.3432  -16.8360   20.2199 O   0  0  0  0  0  0  0  0  0  0  0  0
    7.9792  -14.9211   20.0754 N   0  0  0  0  0  0  0  0  0  0  0  0
    6.8963  -14.1506   19.5548 C   0  0  0  0  0  0  0  0  0  0  0  0
    7.0263  -12.7916   20.1645 C   0  0  0  0  0  0  0  0  0  0  0  0
    8.4600  -12.7463   20.7135 C   0  0  0  0  0  0  0  0  0  0  0  0
    8.6305  -14.1908   21.1218 C   0  0  1  0  0  0  0  0  0  0  0  0
    7.9940  -14.3842   22.4427 C   0  0  0  0  0  0  0  0  0  0  0  0
    6.7512  -14.3042   22.5272 O   0  0  0  0  0  0  0  0  0  0  0  0
    7.2778  -21.9706   26.7192 N   0  0  0  0  0  0  0  0  0  0  0  0
    7.3979  -20.6722   27.3200 C   0  0  0  0  0  0  0  0  0  0  0  0
    7.9599  -20.6161   28.4643 N   0  0  0  0  0  0  0  0  0  0  0  0
    6.9291  -19.5117   26.6972 N   0  0  0  0  0  0  0  0  0  0  0  0
    7.7278  -18.6925   25.8087 C   0  0  0  0  0  0  0  0  0  0  0  0
    6.9379  -17.4571   25.4427 C   0  0  0  0  0  0  0  0  0  0  0  0
    7.6090  -16.7054   24.3230 C   0  0  0  0  0  0  0  0  0  0  0  0
    8.1422  -15.3622   24.7104 C   0  0  2  0  0  0  0  0  0  0  0  0
    8.7449  -14.6561   23.6055 N   0  0  0  0  0  0  0  0  0  0  0  0
    9.1870  -15.5467   25.7841 C   0  0  0  0  0  0  0  0  0  0  0  0
   10.3942  -15.6613   25.4737 O   0  0  0  0  0  0  0  0  0  0  0  0
    8.8314  -15.5924   27.1229 O   0  0  0  0  0  0  0  0  0  0  0  0
  2  1  1  0
  2  3  2  0
  4  2  1  0
  5  4  1  0
  5  6  1  1
  7  5  1  0
  7  9  1  0
  8  7  2  0
  9 13  1  0
 10  9  1  0
 10 11  1  0
 11 12  1  0
 13 12  1  0
 14 24  1  0
 13 14  1  1
 15 14  2  0
 17 16  1  0
 17 19  1  0
 18 17  2  0
 20 19  1  0
 21 22  1  0
 21 20  1  0
 23 22  1  6
 23 24  1  0
 25 23  1  0
 25 27  1  0
 26 25  2  0
M  END
$$$$
