NPR.pdb
     RDKit          3D

 27 27  0  0  1  0  0  0  0  0999 V2000
    6.4877  -12.6603   18.8629 N   0  0  0  0  0  0  0  0  0  0  0  0
    6.9232  -13.9132   19.3473 C   0  0  0  0  0  0  0  0  0  0  0  0
    7.2115  -14.8852   18.6053 O   0  0  0  0  0  0  0  0  0  0  0  0
    7.0568  -14.1186   20.8188 C   0  0  0  0  0  0  0  0  0  0  0  0
    8.1133  -13.1812   21.3958 C   0  0  2  0  0  0  0  0  0  0  0  0
    9.1874  -13.0890   20.4435 N   0  0  0  0  0  0  0  0  0  0  0  0
    8.5518  -13.6799   22.7245 C   0  0  0  0  0  0  0  0  0  0  0  0
    9.6830  -14.2788   22.7014 O   0  0  0  0  0  0  0  0  0  0  0  0
    7.8179  -13.5293   23.9293 N   0  0  0  0  0  0  0  0  0  0  0  0
    6.5141  -12.9650   24.0678 C   0  0  0  0  0  0  0  0  0  0  0  0
    6.2757  -12.8332   25.5379 C   0  0  0  0  0  0  0  0  0  0  0  0
    7.6679  -12.9683   26.1722 C   0  0  0  0  0  0  0  0  0  0  0  0
    8.3000  -13.9482   25.2118 C   0  0  1  0  0  0  0  0  0  0  0  0
    7.8609  -15.3128   25.5755 C   0  0  0  0  0  0  0  0  0  0  0  0
    6.8673  -15.7976   24.9961 O   0  0  0  0  0  0  0  0  0  0  0  0
   11.8456  -19.8868   20.9837 N   0  0  0  0  0  0  0  0  0  0  0  0
   12.1784  -20.5664   22.2038 C   0  0  0  0  0  0  0  0  0  0  0  0
   12.4390  -21.8126   22.1169 N   0  0  0  0  0  0  0  0  0  0  0  0
   12.2218  -19.9124   23.4386 N   0  0  0  0  0  0  0  0  0  0  0  0
   11.6437  -18.6067   23.6820 C   0  0  0  0  0  0  0  0  0  0  0  0
   10.6223  -18.7245   24.7898 C   0  0  0  0  0  0  0  0  0  0  0  0
   10.0205  -17.3805   25.1075 C   0  0  0  0  0  0  0  0  0  0  0  0
    9.0277  -17.3949   26.2267 C   0  0  2  0  0  0  0  0  0  0  0  0
    8.5282  -16.0809   26.5527 N   0  0  0  0  0  0  0  0  0  0  0  0
    9.6902  -17.9703   27.4550 C   0  0  0  0  0  0  0  0  0  0  0  0
   10.4246  -17.2508   28.1688 O   0  0  0  0  0  0  0  0  0  0  0  0
    9.4990  -19.2959   27.8117 O   0  0  0  0  0  0  0  0  0  0  0  0
  2  1  1  0
  2  3  2  0
  4  2  1  0
  5  4  1  0
  5  6  1  6
  7  5  1  0
  7  9  1  0
  8  7  2  0
  9 13  1  0
 10  9  1  0
 10 11  1  0
 11 12  1  0
 13 12  1  0
 14 24  1  0
 13 14  1  1
 15 14  2  0
 17 16  1  0
 17 19  1  0
 18 17  2  0
 20 19  1  0
 21 22  1  0
 21 20  1  0
 23 22  1  6
 23 24  1  0
 25 23  1  0
 25 27  1  0
 26 25  2  0
M  END
$$$$
