NPR.pdb
     RDKit          3D

 27 27  0  0  1  0  0  0  0  0999 V2000
    6.1495  -18.4040   16.0705 N   0  0  0  0  0  0  0  0  0  0  0  0
    6.1966  -18.6356   17.4626 C   0  0  0  0  0  0  0  0  0  0  0  0
    5.4955  -19.4972   18.0498 O   0  0  0  0  0  0  0  0  0  0  0  0
    7.1232  -17.8249   18.3049 C   0  0  0  0  0  0  0  0  0  0  0  0
    7.8085  -16.7514   17.4646 C   0  0  2  0  0  0  0  0  0  0  0  0
    8.4995  -17.4093   16.3883 N   0  0  0  0  0  0  0  0  0  0  0  0
    8.7065  -15.9401   18.3260 C   0  0  0  0  0  0  0  0  0  0  0  0
    9.9473  -16.2212   18.1841 O   0  0  0  0  0  0  0  0  0  0  0  0
    8.2727  -14.9398   19.2338 N   0  0  0  0  0  0  0  0  0  0  0  0
    6.9230  -14.5623   19.5042 C   0  0  0  0  0  0  0  0  0  0  0  0
    7.0004  -13.3349   20.3545 C   0  0  0  0  0  0  0  0  0  0  0  0
    8.4428  -12.8348   20.1867 C   0  0  0  0  0  0  0  0  0  0  0  0
    9.1624  -14.1547   20.0366 C   0  0  1  0  0  0  0  0  0  0  0  0
    9.3813  -14.7266   21.3828 C   0  0  0  0  0  0  0  0  0  0  0  0
    8.5235  -15.5028   21.8515 O   0  0  0  0  0  0  0  0  0  0  0  0
    9.5063  -13.7775   29.2678 N   0  0  0  0  0  0  0  0  0  0  0  0
    9.9495  -15.1264   29.0548 C   0  0  0  0  0  0  0  0  0  0  0  0
   10.4349  -15.7398   30.0630 N   0  0  0  0  0  0  0  0  0  0  0  0
    9.8612  -15.7569   27.8101 N   0  0  0  0  0  0  0  0  0  0  0  0
    9.6307  -15.0556   26.5638 C   0  0  0  0  0  0  0  0  0  0  0  0
    9.5538  -16.0663   25.4427 C   0  0  0  0  0  0  0  0  0  0  0  0
    9.4072  -15.3777   24.1109 C   0  0  0  0  0  0  0  0  0  0  0  0
   10.7021  -15.0153   23.4548 C   0  0  2  0  0  0  0  0  0  0  0  0
   10.5256  -14.4239   22.1503 N   0  0  0  0  0  0  0  0  0  0  0  0
   11.5346  -16.2651   23.3019 C   0  0  0  0  0  0  0  0  0  0  0  0
   12.6389  -16.3601   23.8834 O   0  0  0  0  0  0  0  0  0  0  0  0
   11.0947  -17.3220   22.5206 O   0  0  0  0  0  0  0  0  0  0  0  0
  2  1  1  0
  2  3  2  0
  4  2  1  0
  5  4  1  0
  5  6  1  6
  7  5  1  0
  7  9  1  0
  8  7  2  0
  9 13  1  0
 10  9  1  0
 10 11  1  0
 11 12  1  0
 13 12  1  0
 14 24  1  0
 13 14  1  1
 15 14  2  0
 17 16  1  0
 17 19  1  0
 18 17  2  0
 20 19  1  0
 21 22  1  0
 21 20  1  0
 23 22  1  6
 23 24  1  0
 25 23  1  0
 25 27  1  0
 26 25  2  0
M  END
$$$$
