NPR.pdb
     RDKit          3D

 27 27  0  0  1  0  0  0  0  0999 V2000
    9.8605  -13.9796   16.4183 N   0  0  0  0  0  0  0  0  0  0  0  0
   10.6188  -15.1567   16.6008 C   0  0  0  0  0  0  0  0  0  0  0  0
   10.5545  -16.1523   15.8372 O   0  0  0  0  0  0  0  0  0  0  0  0
   11.5562  -15.2471   17.7576 C   0  0  0  0  0  0  0  0  0  0  0  0
   11.5705  -13.9361   18.5380 C   0  0  2  0  0  0  0  0  0  0  0  0
   12.9307  -13.4719   18.5939 N   0  0  0  0  0  0  0  0  0  0  0  0
   10.9695  -14.1468   19.8799 C   0  0  0  0  0  0  0  0  0  0  0  0
   11.8334  -14.3051   20.8113 O   0  0  0  0  0  0  0  0  0  0  0  0
    9.5767  -14.1777   20.1484 N   0  0  0  0  0  0  0  0  0  0  0  0
    8.5223  -14.0313   19.1975 C   0  0  0  0  0  0  0  0  0  0  0  0
    7.2616  -13.9189   19.9933 C   0  0  0  0  0  0  0  0  0  0  0  0
    7.7292  -13.5985   21.4208 C   0  0  0  0  0  0  0  0  0  0  0  0
    9.0229  -14.3780   21.4544 C   0  0  1  0  0  0  0  0  0  0  0  0
    8.7105  -15.7956   21.7374 C   0  0  0  0  0  0  0  0  0  0  0  0
    8.4885  -16.5638   20.7790 O   0  0  0  0  0  0  0  0  0  0  0  0
    9.2860  -15.1923   29.8474 N   0  0  0  0  0  0  0  0  0  0  0  0
   10.2836  -14.8746   28.8651 C   0  0  0  0  0  0  0  0  0  0  0  0
   11.4045  -14.4461   29.2993 N   0  0  0  0  0  0  0  0  0  0  0  0
   10.0586  -15.0216   27.4932 N   0  0  0  0  0  0  0  0  0  0  0  0
    9.4933  -16.2112   26.8901 C   0  0  0  0  0  0  0  0  0  0  0  0
   10.1652  -16.4484   25.5572 C   0  0  0  0  0  0  0  0  0  0  0  0
    9.5833  -17.6576   24.8727 C   0  0  0  0  0  0  0  0  0  0  0  0
    9.3869  -17.5003   23.3979 C   0  0  2  0  0  0  0  0  0  0  0  0
    8.6566  -16.3047   23.0519 N   0  0  0  0  0  0  0  0  0  0  0  0
    8.6193  -18.6930   22.8812 C   0  0  0  0  0  0  0  0  0  0  0  0
    7.4579  -18.5491   22.4372 O   0  0  0  0  0  0  0  0  0  0  0  0
    9.1822  -19.9595   22.8893 O   0  0  0  0  0  0  0  0  0  0  0  0
  2  1  1  0
  2  3  2  0
  4  2  1  0
  5  4  1  0
  5  6  1  1
  7  5  1  0
  7  9  1  0
  8  7  2  0
  9 13  1  0
 10  9  1  0
 10 11  1  0
 11 12  1  0
 13 12  1  0
 14 24  1  0
 13 14  1  6
 15 14  2  0
 17 16  1  0
 17 19  1  0
 18 17  2  0
 20 19  1  0
 21 22  1  0
 21 20  1  0
 23 22  1  1
 23 24  1  0
 25 23  1  0
 25 27  1  0
 26 25  2  0
M  END
$$$$
