NPR.pdb
     RDKit          3D

 27 27  0  0  1  0  0  0  0  0999 V2000
    5.4000  -15.2692   20.4991 N   0  0  0  0  0  0  0  0  0  0  0  0
    6.4039  -16.1065   21.0330 C   0  0  0  0  0  0  0  0  0  0  0  0
    6.8385  -17.1316   20.4509 O   0  0  0  0  0  0  0  0  0  0  0  0
    6.9977  -15.7760   22.3609 C   0  0  0  0  0  0  0  0  0  0  0  0
    7.5689  -14.3612   22.3541 C   0  0  2  0  0  0  0  0  0  0  0  0
    8.3706  -14.2159   21.1687 N   0  0  0  0  0  0  0  0  0  0  0  0
    8.3304  -14.1237   23.6071 C   0  0  0  0  0  0  0  0  0  0  0  0
    9.5936  -14.2882   23.4803 O   0  0  0  0  0  0  0  0  0  0  0  0
    7.7530  -13.7498   24.8479 N   0  0  0  0  0  0  0  0  0  0  0  0
    6.3657  -13.5460   25.1150 C   0  0  0  0  0  0  0  0  0  0  0  0
    6.2918  -12.9598   26.4885 C   0  0  0  0  0  0  0  0  0  0  0  0
    7.7195  -12.4767   26.7834 C   0  0  0  0  0  0  0  0  0  0  0  0
    8.5110  -13.5295   26.0436 C   0  0  1  0  0  0  0  0  0  0  0  0
    8.6047  -14.7336   26.8973 C   0  0  0  0  0  0  0  0  0  0  0  0
    7.5638  -15.3774   27.1426 O   0  0  0  0  0  0  0  0  0  0  0  0
   11.1924  -16.0211   21.9466 N   0  0  0  0  0  0  0  0  0  0  0  0
   11.5266  -17.3787   22.2729 C   0  0  0  0  0  0  0  0  0  0  0  0
   11.3977  -18.2436   21.3434 N   0  0  0  0  0  0  0  0  0  0  0  0
   11.9750  -17.7562   23.5421 N   0  0  0  0  0  0  0  0  0  0  0  0
   11.9126  -16.8999   24.7088 C   0  0  0  0  0  0  0  0  0  0  0  0
   10.6706  -17.2424   25.4990 C   0  0  0  0  0  0  0  0  0  0  0  0
   10.9722  -17.2927   26.9740 C   0  0  0  0  0  0  0  0  0  0  0  0
    9.9938  -16.5548   27.8323 C   0  0  2  0  0  0  0  0  0  0  0  0
    9.8293  -15.1758   27.4400 N   0  0  0  0  0  0  0  0  0  0  0  0
   10.4803  -16.5884   29.2608 C   0  0  0  0  0  0  0  0  0  0  0  0
   10.6504  -17.6840   29.8416 O   0  0  0  0  0  0  0  0  0  0  0  0
   10.7451  -15.4156   29.9502 O   0  0  0  0  0  0  0  0  0  0  0  0
  2  1  1  0
  2  3  2  0
  4  2  1  0
  5  4  1  0
  5  6  1  6
  7  5  1  0
  7  9  1  0
  8  7  2  0
  9 13  1  0
 10  9  1  0
 10 11  1  0
 11 12  1  0
 13 12  1  0
 14 24  1  0
 13 14  1  1
 15 14  2  0
 17 16  1  0
 17 19  1  0
 18 17  2  0
 20 19  1  0
 21 22  1  0
 21 20  1  0
 23 22  1  6
 23 24  1  0
 25 23  1  0
 25 27  1  0
 26 25  2  0
M  END
$$$$
