NPR.pdb
     RDKit          3D

 27 27  0  0  1  0  0  0  0  0999 V2000
    8.4120  -18.9444   18.9540 N   0  0  0  0  0  0  0  0  0  0  0  0
    7.1547  -18.4154   18.5891 C   0  0  0  0  0  0  0  0  0  0  0  0
    6.0625  -18.9917   18.8204 O   0  0  0  0  0  0  0  0  0  0  0  0
    7.0937  -17.0995   17.8892 C   0  0  0  0  0  0  0  0  0  0  0  0
    8.4757  -16.4547   17.8412 C   0  0  2  0  0  0  0  0  0  0  0  0
    9.3990  -17.4301   17.3262 N   0  0  0  0  0  0  0  0  0  0  0  0
    8.8430  -15.9589   19.1924 C   0  0  0  0  0  0  0  0  0  0  0  0
    9.7260  -16.6754   19.7806 O   0  0  0  0  0  0  0  0  0  0  0  0
    8.2922  -14.8067   19.8104 N   0  0  0  0  0  0  0  0  0  0  0  0
    7.2713  -13.9616   19.2805 C   0  0  0  0  0  0  0  0  0  0  0  0
    7.1977  -12.7806   20.1945 C   0  0  0  0  0  0  0  0  0  0  0  0
    8.5028  -12.8313   21.0026 C   0  0  0  0  0  0  0  0  0  0  0  0
    8.6938  -14.3268   21.0992 C   0  0  1  0  0  0  0  0  0  0  0  0
    7.8444  -14.8395   22.1960 C   0  0  0  0  0  0  0  0  0  0  0  0
    6.6280  -15.0169   21.9799 O   0  0  0  0  0  0  0  0  0  0  0  0
    5.4633  -22.7970   24.8758 N   0  0  0  0  0  0  0  0  0  0  0  0
    5.9165  -21.8860   23.8629 C   0  0  0  0  0  0  0  0  0  0  0  0
    5.3504  -21.9644   22.7219 N   0  0  0  0  0  0  0  0  0  0  0  0
    6.9278  -20.9492   24.0952 N   0  0  0  0  0  0  0  0  0  0  0  0
    7.0186  -19.6731   23.4157 C   0  0  0  0  0  0  0  0  0  0  0  0
    8.1806  -18.8962   23.9905 C   0  0  0  0  0  0  0  0  0  0  0  0
    8.3443  -17.5767   23.2824 C   0  0  0  0  0  0  0  0  0  0  0  0
    8.0330  -16.3791   24.1234 C   0  0  2  0  0  0  0  0  0  0  0  0
    8.3647  -15.1339   23.4738 N   0  0  0  0  0  0  0  0  0  0  0  0
    8.8211  -16.4705   25.4076 C   0  0  0  0  0  0  0  0  0  0  0  0
   10.0430  -16.1996   25.4162 O   0  0  0  0  0  0  0  0  0  0  0  0
    8.2106  -16.8535   26.5915 O   0  0  0  0  0  0  0  0  0  0  0  0
  2  1  1  0
  2  3  2  0
  4  2  1  0
  5  4  1  0
  5  6  1  1
  7  5  1  0
  7  9  1  0
  8  7  2  0
  9 13  1  0
 10  9  1  0
 10 11  1  0
 11 12  1  0
 13 12  1  0
 14 24  1  0
 13 14  1  1
 15 14  2  0
 17 16  1  0
 17 19  1  0
 18 17  2  0
 20 19  1  0
 21 22  1  0
 21 20  1  0
 23 22  1  6
 23 24  1  0
 25 23  1  0
 25 27  1  0
 26 25  2  0
M  END
$$$$
