NPR.pdb
     RDKit          3D

 27 27  0  0  1  0  0  0  0  0999 V2000
    8.3127  -13.1926   17.3827 N   0  0  0  0  0  0  0  0  0  0  0  0
    8.3291  -14.5937   17.5569 C   0  0  0  0  0  0  0  0  0  0  0  0
    7.8528  -15.4050   16.7242 O   0  0  0  0  0  0  0  0  0  0  0  0
    8.9413  -15.1671   18.7905 C   0  0  0  0  0  0  0  0  0  0  0  0
    9.5126  -14.0582   19.6691 C   0  0  2  0  0  0  0  0  0  0  0  0
   10.7948  -13.6882   19.1326 N   0  0  0  0  0  0  0  0  0  0  0  0
    9.5808  -14.5224   21.0784 C   0  0  0  0  0  0  0  0  0  0  0  0
   10.7412  -14.9339   21.4288 O   0  0  0  0  0  0  0  0  0  0  0  0
    8.4885  -14.5271   21.9839 N   0  0  0  0  0  0  0  0  0  0  0  0
    7.1412  -14.1546   21.6955 C   0  0  0  0  0  0  0  0  0  0  0  0
    6.4317  -14.1213   23.0111 C   0  0  0  0  0  0  0  0  0  0  0  0
    7.5544  -14.0906   24.0587 C   0  0  0  0  0  0  0  0  0  0  0  0
    8.5936  -14.9311   23.3544 C   0  0  1  0  0  0  0  0  0  0  0  0
    8.2639  -16.3579   23.5622 C   0  0  0  0  0  0  0  0  0  0  0  0
    7.0753  -16.7215   23.4488 O   0  0  0  0  0  0  0  0  0  0  0  0
    8.9597  -14.0825   27.6476 N   0  0  0  0  0  0  0  0  0  0  0  0
   10.0375  -14.6107   28.4354 C   0  0  0  0  0  0  0  0  0  0  0  0
   10.9511  -13.7914   28.7854 N   0  0  0  0  0  0  0  0  0  0  0  0
   10.1013  -15.9552   28.8129 N   0  0  0  0  0  0  0  0  0  0  0  0
    9.2481  -16.9897   28.2650 C   0  0  0  0  0  0  0  0  0  0  0  0
    9.5994  -17.1909   26.8089 C   0  0  0  0  0  0  0  0  0  0  0  0
    8.5630  -18.0406   26.1211 C   0  0  0  0  0  0  0  0  0  0  0  0
    8.9180  -18.4418   24.7241 C   0  0  2  0  0  0  0  0  0  0  0  0
    9.2476  -17.3169   23.8824 N   0  0  0  0  0  0  0  0  0  0  0  0
    7.7418  -19.1645   24.1136 C   0  0  0  0  0  0  0  0  0  0  0  0
    6.8222  -18.5171   23.5642 O   0  0  0  0  0  0  0  0  0  0  0  0
    7.6592  -20.5475   24.1503 O   0  0  0  0  0  0  0  0  0  0  0  0
  2  1  1  0
  2  3  2  0
  4  2  1  0
  5  4  1  0
  5  6  1  6
  7  5  1  0
  7  9  1  0
  8  7  2  0
  9 13  1  0
 10  9  1  0
 10 11  1  0
 11 12  1  0
 13 12  1  0
 14 24  1  0
 13 14  1  6
 15 14  2  0
 17 16  1  0
 17 19  1  0
 18 17  2  0
 20 19  1  0
 21 22  1  0
 21 20  1  0
 23 22  1  1
 23 24  1  0
 25 23  1  0
 25 27  1  0
 26 25  2  0
M  END
$$$$
