NPR.pdb
     RDKit          3D

 27 27  0  0  1  0  0  0  0  0999 V2000
    7.7242  -13.6402   16.7139 N   0  0  0  0  0  0  0  0  0  0  0  0
    7.9460  -14.9159   17.2770 C   0  0  0  0  0  0  0  0  0  0  0  0
    7.7432  -15.9933   16.6632 O   0  0  0  0  0  0  0  0  0  0  0  0
    8.4498  -15.0163   18.6774 C   0  0  0  0  0  0  0  0  0  0  0  0
    8.4614  -13.6426   19.3413 C   0  0  2  0  0  0  0  0  0  0  0  0
    9.1728  -12.7410   18.4751 N   0  0  0  0  0  0  0  0  0  0  0  0
    9.0620  -13.7471   20.6958 C   0  0  0  0  0  0  0  0  0  0  0  0
   10.3413  -13.7020   20.6961 O   0  0  0  0  0  0  0  0  0  0  0  0
    8.3253  -13.8857   21.9005 N   0  0  0  0  0  0  0  0  0  0  0  0
    6.9048  -13.9386   22.0291 C   0  0  0  0  0  0  0  0  0  0  0  0
    6.6205  -13.8693   23.4954 C   0  0  0  0  0  0  0  0  0  0  0  0
    7.9280  -13.3632   24.1224 C   0  0  0  0  0  0  0  0  0  0  0  0
    8.9308  -14.0063   23.1933 C   0  0  1  0  0  0  0  0  0  0  0  0
    9.1245  -15.4118   23.6108 C   0  0  0  0  0  0  0  0  0  0  0  0
    8.2991  -16.2688   23.2335 O   0  0  0  0  0  0  0  0  0  0  0  0
   16.6837  -15.8035   21.6105 N   0  0  0  0  0  0  0  0  0  0  0  0
   16.5789  -15.8651   23.0411 C   0  0  0  0  0  0  0  0  0  0  0  0
   17.6676  -15.7908   23.7026 N   0  0  0  0  0  0  0  0  0  0  0  0
   15.3521  -15.9988   23.6980 N   0  0  0  0  0  0  0  0  0  0  0  0
   14.2391  -16.7690   23.1820 C   0  0  0  0  0  0  0  0  0  0  0  0
   13.1002  -16.7046   24.1735 C   0  0  0  0  0  0  0  0  0  0  0  0
   11.8868  -17.4214   23.6415 C   0  0  0  0  0  0  0  0  0  0  0  0
   10.6359  -17.1912   24.4295 C   0  0  2  0  0  0  0  0  0  0  0  0
   10.2096  -15.8125   24.4183 N   0  0  0  0  0  0  0  0  0  0  0  0
   10.8825  -17.6014   25.8611 C   0  0  0  0  0  0  0  0  0  0  0  0
   10.8457  -16.7472   26.7753 O   0  0  0  0  0  0  0  0  0  0  0  0
   11.1525  -18.9212   26.1869 O   0  0  0  0  0  0  0  0  0  0  0  0
  2  1  1  0
  2  3  2  0
  4  2  1  0
  5  4  1  0
  5  6  1  6
  7  5  1  0
  7  9  1  0
  8  7  2  0
  9 13  1  0
 10  9  1  0
 10 11  1  0
 11 12  1  0
 13 12  1  0
 14 24  1  0
 13 14  1  1
 15 14  2  0
 17 16  1  0
 17 19  1  0
 18 17  2  0
 20 19  1  0
 21 22  1  0
 21 20  1  0
 23 22  1  6
 23 24  1  0
 25 23  1  0
 25 27  1  0
 26 25  2  0
M  END
$$$$
