NPR.pdb
     RDKit          3D

 27 27  0  0  1  0  0  0  0  0999 V2000
    7.9334  -15.5598   20.2452 N   0  0  0  0  0  0  0  0  0  0  0  0
    6.6735  -15.7086   20.8650 C   0  0  0  0  0  0  0  0  0  0  0  0
    5.9147  -16.6916   20.6741 O   0  0  0  0  0  0  0  0  0  0  0  0
    6.1945  -14.6529   21.8038 C   0  0  0  0  0  0  0  0  0  0  0  0
    7.2111  -13.5189   21.8970 C   0  0  2  0  0  0  0  0  0  0  0  0
    7.9734  -13.5097   20.6772 N   0  0  0  0  0  0  0  0  0  0  0  0
    8.0506  -13.6987   23.1091 C   0  0  0  0  0  0  0  0  0  0  0  0
    9.2278  -14.1352   22.8594 O   0  0  0  0  0  0  0  0  0  0  0  0
    7.6277  -13.4256   24.4356 N   0  0  0  0  0  0  0  0  0  0  0  0
    6.3497  -12.9338   24.8382 C   0  0  0  0  0  0  0  0  0  0  0  0
    6.4719  -12.6091   26.2925 C   0  0  0  0  0  0  0  0  0  0  0  0
    7.9844  -12.5607   26.5552 C   0  0  0  0  0  0  0  0  0  0  0  0
    8.4526  -13.6244   25.5900 C   0  0  1  0  0  0  0  0  0  0  0  0
    8.2561  -14.9488   26.2183 C   0  0  0  0  0  0  0  0  0  0  0  0
    7.2562  -15.6230   25.8963 O   0  0  0  0  0  0  0  0  0  0  0  0
   14.4326  -15.2908   25.8008 N   0  0  0  0  0  0  0  0  0  0  0  0
   14.3040  -15.9404   24.5269 C   0  0  0  0  0  0  0  0  0  0  0  0
   15.3852  -16.2050   23.9029 N   0  0  0  0  0  0  0  0  0  0  0  0
   13.0627  -16.2767   23.9786 N   0  0  0  0  0  0  0  0  0  0  0  0
   12.2186  -17.3407   24.4823 C   0  0  0  0  0  0  0  0  0  0  0  0
   11.6254  -16.9084   25.8035 C   0  0  0  0  0  0  0  0  0  0  0  0
   10.1747  -17.3042   25.8935 C   0  0  0  0  0  0  0  0  0  0  0  0
    9.4926  -16.8763   27.1545 C   0  0  2  0  0  0  0  0  0  0  0  0
    9.1606  -15.4720   27.1660 N   0  0  0  0  0  0  0  0  0  0  0  0
   10.4085  -17.1584   28.3207 C   0  0  0  0  0  0  0  0  0  0  0  0
   10.9396  -16.2131   28.9461 O   0  0  0  0  0  0  0  0  0  0  0  0
   10.6762  -18.4592   28.7170 O   0  0  0  0  0  0  0  0  0  0  0  0
  2  1  1  0
  2  3  2  0
  4  2  1  0
  5  4  1  0
  5  6  1  6
  7  5  1  0
  7  9  1  0
  8  7  2  0
  9 13  1  0
 10  9  1  0
 10 11  1  0
 11 12  1  0
 13 12  1  0
 14 24  1  0
 13 14  1  1
 15 14  2  0
 17 16  1  0
 17 19  1  0
 18 17  2  0
 20 19  1  0
 21 22  1  0
 21 20  1  0
 23 22  1  6
 23 24  1  0
 25 23  1  0
 25 27  1  0
 26 25  2  0
M  END
$$$$
