NPR.pdb
     RDKit          3D

 27 27  0  0  1  0  0  0  0  0999 V2000
    7.2603  -14.7752   14.9596 N   0  0  0  0  0  0  0  0  0  0  0  0
    7.8187  -15.9121   15.5838 C   0  0  0  0  0  0  0  0  0  0  0  0
    7.7758  -17.0679   15.0933 O   0  0  0  0  0  0  0  0  0  0  0  0
    8.5036  -15.7576   16.9000 C   0  0  0  0  0  0  0  0  0  0  0  0
    8.4355  -14.3080   17.3714 C   0  0  2  0  0  0  0  0  0  0  0  0
    9.1115  -13.4956   16.3957 N   0  0  0  0  0  0  0  0  0  0  0  0
    9.0219  -14.1967   18.7316 C   0  0  0  0  0  0  0  0  0  0  0  0
   10.2645  -13.8888   18.7323 O   0  0  0  0  0  0  0  0  0  0  0  0
    8.3094  -14.4043   19.9408 N   0  0  0  0  0  0  0  0  0  0  0  0
    6.9634  -14.8618   20.0687 C   0  0  0  0  0  0  0  0  0  0  0  0
    6.6106  -14.7069   21.5134 C   0  0  0  0  0  0  0  0  0  0  0  0
    7.6836  -13.7640   22.0777 C   0  0  0  0  0  0  0  0  0  0  0  0
    8.8691  -14.1850   21.2412 C   0  0  1  0  0  0  0  0  0  0  0  0
    9.4510  -15.4093   21.8328 C   0  0  0  0  0  0  0  0  0  0  0  0
    8.8641  -16.4971   21.6584 O   0  0  0  0  0  0  0  0  0  0  0  0
   16.9324  -14.0722   20.7063 N   0  0  0  0  0  0  0  0  0  0  0  0
   15.9056  -14.5617   19.8304 C   0  0  0  0  0  0  0  0  0  0  0  0
   15.6921  -13.8953   18.7632 N   0  0  0  0  0  0  0  0  0  0  0  0
   15.1641  -15.7125   20.1138 N   0  0  0  0  0  0  0  0  0  0  0  0
   14.7475  -16.0972   21.4467 C   0  0  0  0  0  0  0  0  0  0  0  0
   13.2372  -16.1281   21.4956 C   0  0  0  0  0  0  0  0  0  0  0  0
   12.7553  -16.6038   22.8413 C   0  0  0  0  0  0  0  0  0  0  0  0
   11.2673  -16.6210   22.9962 C   0  0  2  0  0  0  0  0  0  0  0  0
   10.6445  -15.3860   22.5844 N   0  0  0  0  0  0  0  0  0  0  0  0
   10.9339  -16.8609   24.4487 C   0  0  0  0  0  0  0  0  0  0  0  0
   10.3809  -15.9634   25.1235 O   0  0  0  0  0  0  0  0  0  0  0  0
   11.2320  -18.0701   25.0570 O   0  0  0  0  0  0  0  0  0  0  0  0
  2  1  1  0
  2  3  2  0
  4  2  1  0
  5  4  1  0
  5  6  1  6
  7  5  1  0
  7  9  1  0
  8  7  2  0
  9 13  1  0
 10  9  1  0
 10 11  1  0
 11 12  1  0
 13 12  1  0
 14 24  1  0
 13 14  1  1
 15 14  2  0
 17 16  1  0
 17 19  1  0
 18 17  2  0
 20 19  1  0
 21 22  1  0
 21 20  1  0
 23 22  1  1
 23 24  1  0
 25 23  1  0
 25 27  1  0
 26 25  2  0
M  END
$$$$
