NPR.pdb
     RDKit          3D

 27 27  0  0  1  0  0  0  0  0999 V2000
    7.7164  -19.0778   29.6430 N   0  0  0  0  0  0  0  0  0  0  0  0
    8.7988  -18.4223   29.0165 C   0  0  0  0  0  0  0  0  0  0  0  0
    9.9555  -18.3657   29.5038 O   0  0  0  0  0  0  0  0  0  0  0  0
    8.5821  -17.7525   27.7014 C   0  0  0  0  0  0  0  0  0  0  0  0
    7.0925  -17.6743   27.3802 C   0  0  2  0  0  0  0  0  0  0  0  0
    6.5837  -19.0184   27.3214 N   0  0  0  0  0  0  0  0  0  0  0  0
    6.8926  -16.9182   26.1173 C   0  0  0  0  0  0  0  0  0  0  0  0
    6.3976  -17.6218   25.1694 O   0  0  0  0  0  0  0  0  0  0  0  0
    7.2073  -15.5467   25.9354 N   0  0  0  0  0  0  0  0  0  0  0  0
    7.5447  -14.6074   26.9557 C   0  0  0  0  0  0  0  0  0  0  0  0
    7.5729  -13.2685   26.2909 C   0  0  0  0  0  0  0  0  0  0  0  0
    6.8344  -13.4782   24.9607 C   0  0  0  0  0  0  0  0  0  0  0  0
    7.2401  -14.9013   24.6567 C   0  0  1  0  0  0  0  0  0  0  0  0
    8.5900  -14.8865   24.0525 C   0  0  0  0  0  0  0  0  0  0  0  0
    9.5847  -14.9134   24.8059 O   0  0  0  0  0  0  0  0  0  0  0  0
    8.0939  -12.3384   16.9979 N   0  0  0  0  0  0  0  0  0  0  0  0
    7.6880  -12.6971   18.3275 C   0  0  0  0  0  0  0  0  0  0  0  0
    6.5257  -12.3211   18.6967 N   0  0  0  0  0  0  0  0  0  0  0  0
    8.5113  -13.4243   19.1923 N   0  0  0  0  0  0  0  0  0  0  0  0
    9.8613  -13.8363   18.8667 C   0  0  0  0  0  0  0  0  0  0  0  0
   10.4754  -14.4967   20.0795 C   0  0  0  0  0  0  0  0  0  0  0  0
    9.6510  -15.6780   20.5202 C   0  0  0  0  0  0  0  0  0  0  0  0
    9.5745  -15.8618   22.0030 C   0  0  2  0  0  0  0  0  0  0  0  0
    8.7873  -14.8440   22.6563 N   0  0  0  0  0  0  0  0  0  0  0  0
   10.9730  -15.8185   22.5696 C   0  0  0  0  0  0  0  0  0  0  0  0
   11.3092  -14.8948   23.3444 O   0  0  0  0  0  0  0  0  0  0  0  0
   11.9031  -16.7932   22.2444 O   0  0  0  0  0  0  0  0  0  0  0  0
  2  1  1  0
  2  3  2  0
  4  2  1  0
  5  4  1  0
  5  6  1  6
  7  5  1  0
  7  9  1  0
  8  7  2  0
  9 13  1  0
 10  9  1  0
 10 11  1  0
 11 12  1  0
 13 12  1  0
 14 24  1  0
 13 14  1  1
 15 14  2  0
 17 16  1  0
 17 19  1  0
 18 17  2  0
 20 19  1  0
 21 22  1  0
 21 20  1  0
 23 22  1  6
 23 24  1  0
 25 23  1  0
 25 27  1  0
 26 25  2  0
M  END
$$$$
