YGG.pdb
     RDKit          3D

 21 21  0  0  1  0  0  0  0  0999 V2000
   23.1905  -20.9762   -8.5111 O   0  0  0  0  0  0  0  0  0  0  0  0
   24.1504  -20.7546   -9.4888 C   0  0  0  0  0  0  0  0  0  0  0  0
   25.4660  -21.0926   -9.2445 C   0  0  0  0  0  0  0  0  0  0  0  0
   26.4470  -20.8831  -10.2019 C   0  0  0  0  0  0  0  0  0  0  0  0
   26.0773  -20.3224  -11.4201 C   0  0  0  0  0  0  0  0  0  0  0  0
   27.0719  -20.0797  -12.4655 C   0  0  0  0  0  0  0  0  0  0  0  0
   26.5627  -20.4344  -13.8528 C   0  0  2  0  0  0  0  0  0  0  0  0
   26.1943  -21.8360  -13.8556 N   0  0  0  0  0  0  0  0  0  0  0  0
   27.6218  -20.2311  -14.8764 C   0  0  0  0  0  0  0  0  0  0  0  0
   28.2332  -21.2277  -15.3849 O   0  0  0  0  0  0  0  0  0  0  0  0
   24.7517  -19.9966  -11.6298 C   0  0  0  0  0  0  0  0  0  0  0  0
   23.7655  -20.2000  -10.6852 C   0  0  0  0  0  0  0  0  0  0  0  0
   28.0106  -18.9384  -15.3423 N   0  0  0  0  0  0  0  0  0  0  0  0
   28.5537  -18.6845  -16.6569 C   0  0  0  0  0  0  0  0  0  0  0  0
   27.5831  -18.2880  -17.6709 C   0  0  0  0  0  0  0  0  0  0  0  0
   27.1298  -19.2234  -18.4130 O   0  0  0  0  0  0  0  0  0  0  0  0
   27.1046  -16.9750  -17.8993 N   0  0  0  0  0  0  0  0  0  0  0  0
   25.6794  -16.7219  -18.0849 C   0  0  0  0  0  0  0  0  0  0  0  0
   25.2873  -17.0693  -19.4746 C   0  0  0  0  0  0  0  0  0  0  0  0
   26.2894  -17.5104  -20.3309 O   0  0  0  0  0  0  0  0  0  0  0  0
   24.1059  -16.9637  -19.8397 O   0  0  0  0  0  0  0  0  0  0  0  0
  2  1  1  0
  3  2  2  0
  4  3  1  0
  5  4  2  0
  5 11  1  0
  6  5  1  0
  7  9  1  0
  7  8  1  1
  7  6  1  0
  9 13  1  0
 10  9  2  0
 11 12  2  0
 12  2  1  0
 13 14  1  0
 14 15  1  0
 15 16  2  0
 15 17  1  0
 17 18  1  0
 19 18  1  0
 19 20  1  0
 21 19  2  0
M  END
$$$$
