YGG.pdb
     RDKit          3D

 21 21  0  0  1  0  0  0  0  0999 V2000
   28.8245  -19.8221   -4.2320 O   0  0  0  0  0  0  0  0  0  0  0  0
   28.3434  -19.8250   -5.5339 C   0  0  0  0  0  0  0  0  0  0  0  0
   29.1766  -20.1955   -6.5700 C   0  0  0  0  0  0  0  0  0  0  0  0
   28.7242  -20.2081   -7.8808 C   0  0  0  0  0  0  0  0  0  0  0  0
   27.4072  -19.8380   -8.1325 C   0  0  0  0  0  0  0  0  0  0  0  0
   26.8782  -19.8335   -9.4969 C   0  0  0  0  0  0  0  0  0  0  0  0
   26.1381  -21.1149   -9.8428 C   0  0  2  0  0  0  0  0  0  0  0  0
   27.0901  -22.2074   -9.8236 N   0  0  0  0  0  0  0  0  0  0  0  0
   25.5484  -21.0376  -11.2056 C   0  0  0  0  0  0  0  0  0  0  0  0
   24.6347  -20.1889  -11.4705 O   0  0  0  0  0  0  0  0  0  0  0  0
   26.6021  -19.4731   -7.0714 C   0  0  0  0  0  0  0  0  0  0  0  0
   27.0400  -19.4563   -5.7622 C   0  0  0  0  0  0  0  0  0  0  0  0
   25.9591  -21.8885  -12.2764 N   0  0  0  0  0  0  0  0  0  0  0  0
   25.5553  -21.7062  -13.6517 C   0  0  0  0  0  0  0  0  0  0  0  0
   26.1583  -20.5686  -14.3371 C   0  0  0  0  0  0  0  0  0  0  0  0
   25.4279  -19.5269  -14.4492 O   0  0  0  0  0  0  0  0  0  0  0  0
   27.4655  -20.5185  -14.8792 N   0  0  0  0  0  0  0  0  0  0  0  0
   27.9984  -19.2760  -15.4286 C   0  0  0  0  0  0  0  0  0  0  0  0
   27.8346  -19.2719  -16.9047 C   0  0  0  0  0  0  0  0  0  0  0  0
   27.2379  -20.3849  -17.4853 O   0  0  0  0  0  0  0  0  0  0  0  0
   28.2214  -18.3036  -17.5776 O   0  0  0  0  0  0  0  0  0  0  0  0
  2  1  1  0
  3  2  2  0
  4  3  1  0
  5  4  2  0
  5 11  1  0
  6  5  1  0
  7  9  1  0
  7  8  1  6
  7  6  1  0
  9 13  1  0
 10  9  2  0
 11 12  2  0
 12  2  1  0
 13 14  1  0
 14 15  1  0
 15 16  2  0
 15 17  1  0
 17 18  1  0
 19 18  1  0
 19 20  1  0
 21 19  2  0
M  END
$$$$
