YGG.pdb
     RDKit          3D

 21 21  0  0  1  0  0  0  0  0999 V2000
   13.8467  -22.1094    1.5489 O   0  0  0  0  0  0  0  0  0  0  0  0
   14.7123  -21.3634    2.3368 C   0  0  0  0  0  0  0  0  0  0  0  0
   15.9668  -21.0423    1.8591 C   0  0  0  0  0  0  0  0  0  0  0  0
   16.8532  -20.2985    2.6232 C   0  0  0  0  0  0  0  0  0  0  0  0
   16.4513  -19.8799    3.8874 C   0  0  0  0  0  0  0  0  0  0  0  0
   17.3470  -19.0927    4.7355 C   0  0  0  0  0  0  0  0  0  0  0  0
   16.7288  -17.7767    5.1781 C   0  0  2  0  0  0  0  0  0  0  0  0
   16.4751  -16.9755    3.9974 N   0  0  0  0  0  0  0  0  0  0  0  0
   17.6584  -17.0220    6.0596 C   0  0  0  0  0  0  0  0  0  0  0  0
   18.4582  -16.1575    5.5715 O   0  0  0  0  0  0  0  0  0  0  0  0
   15.1890  -20.2196    4.3328 C   0  0  0  0  0  0  0  0  0  0  0  0
   14.2971  -20.9595    3.5823 C   0  0  0  0  0  0  0  0  0  0  0  0
   17.7117  -17.2141    7.4737 N   0  0  0  0  0  0  0  0  0  0  0  0
   18.5636  -16.4539    8.3593 C   0  0  0  0  0  0  0  0  0  0  0  0
   19.9549  -16.8879    8.4172 C   0  0  0  0  0  0  0  0  0  0  0  0
   20.2372  -17.9603    7.7835 O   0  0  0  0  0  0  0  0  0  0  0  0
   21.0056  -16.2317    9.1031 N   0  0  0  0  0  0  0  0  0  0  0  0
   22.3443  -16.8110    9.1473 C   0  0  0  0  0  0  0  0  0  0  0  0
   23.2345  -15.9494    9.9664 C   0  0  0  0  0  0  0  0  0  0  0  0
   24.5469  -16.3711   10.1440 O   0  0  0  0  0  0  0  0  0  0  0  0
   22.8059  -14.8970   10.4653 O   0  0  0  0  0  0  0  0  0  0  0  0
  2  1  1  0
  3  2  2  0
  4  3  1  0
  5  4  2  0
  5 11  1  0
  6  5  1  0
  7  9  1  0
  7  8  1  6
  7  6  1  0
  9 13  1  0
 10  9  2  0
 11 12  2  0
 12  2  1  0
 13 14  1  0
 14 15  1  0
 15 16  2  0
 15 17  1  0
 17 18  1  0
 19 18  1  0
 19 20  1  0
 21 19  2  0
M  END
$$$$
