YGG.pdb
     RDKit          3D

 21 21  0  0  1  0  0  0  0  0999 V2000
   23.4456  -21.4654   -8.2475 O   0  0  0  0  0  0  0  0  0  0  0  0
   24.3083  -21.0158   -9.2375 C   0  0  0  0  0  0  0  0  0  0  0  0
   25.6658  -21.2315   -9.1113 C   0  0  0  0  0  0  0  0  0  0  0  0
   26.5520  -20.7940  -10.0839 C   0  0  0  0  0  0  0  0  0  0  0  0
   26.0436  -20.1298  -11.1954 C   0  0  0  0  0  0  0  0  0  0  0  0
   26.9340  -19.6469  -12.2514 C   0  0  0  0  0  0  0  0  0  0  0  0
   26.4104  -19.9529  -13.6449 C   0  0  2  0  0  0  0  0  0  0  0  0
   26.5149  -21.3816  -13.8647 N   0  0  0  0  0  0  0  0  0  0  0  0
   27.2230  -19.2635  -14.6819 C   0  0  0  0  0  0  0  0  0  0  0  0
   27.9425  -19.9328  -15.4941 O   0  0  0  0  0  0  0  0  0  0  0  0
   24.6800  -19.9316  -11.2884 C   0  0  0  0  0  0  0  0  0  0  0  0
   23.7870  -20.3621  -10.3274 C   0  0  0  0  0  0  0  0  0  0  0  0
   27.2473  -17.8433  -14.8289 N   0  0  0  0  0  0  0  0  0  0  0  0
   27.3904  -17.1660  -16.0972 C   0  0  0  0  0  0  0  0  0  0  0  0
   26.2662  -17.3096  -17.0155 C   0  0  0  0  0  0  0  0  0  0  0  0
   26.3360  -16.6394  -18.1005 O   0  0  0  0  0  0  0  0  0  0  0  0
   25.1213  -18.1178  -16.8126 N   0  0  0  0  0  0  0  0  0  0  0  0
   24.0787  -18.2039  -17.8301 C   0  0  0  0  0  0  0  0  0  0  0  0
   22.8228  -17.6054  -17.3101 C   0  0  0  0  0  0  0  0  0  0  0  0
   21.8679  -18.4720  -16.7914 O   0  0  0  0  0  0  0  0  0  0  0  0
   22.6500  -16.3771  -17.3455 O   0  0  0  0  0  0  0  0  0  0  0  0
  2  1  1  0
  3  2  2  0
  4  3  1  0
  5  4  2  0
  5 11  1  0
  6  5  1  0
  7  9  1  0
  7  8  1  6
  7  6  1  0
  9 13  1  0
 10  9  2  0
 11 12  2  0
 12  2  1  0
 13 14  1  0
 14 15  1  0
 15 16  2  0
 15 17  1  0
 17 18  1  0
 19 18  1  0
 19 20  1  0
 21 19  2  0
M  END
$$$$
