YGG.pdb
     RDKit          3D

 21 21  0  0  1  0  0  0  0  0999 V2000
   19.9659  -22.3234  -12.9964 O   0  0  0  0  0  0  0  0  0  0  0  0
   20.7824  -21.5120  -13.7720 C   0  0  0  0  0  0  0  0  0  0  0  0
   21.5222  -20.5132  -13.1720 C   0  0  0  0  0  0  0  0  0  0  0  0
   22.3466  -19.6870  -13.9208 C   0  0  0  0  0  0  0  0  0  0  0  0
   22.4139  -19.8856  -15.2959 C   0  0  0  0  0  0  0  0  0  0  0  0
   23.2677  -19.0425  -16.1334 C   0  0  0  0  0  0  0  0  0  0  0  0
   24.4114  -19.8152  -16.7694 C   0  0  2  0  0  0  0  0  0  0  0  0
   25.2632  -20.3177  -15.7099 N   0  0  0  0  0  0  0  0  0  0  0  0
   25.2294  -18.9324  -17.6426 C   0  0  0  0  0  0  0  0  0  0  0  0
   26.0467  -18.0952  -17.1363 O   0  0  0  0  0  0  0  0  0  0  0  0
   21.6599  -20.8946  -15.8621 C   0  0  0  0  0  0  0  0  0  0  0  0
   20.8354  -21.7239  -15.1282 C   0  0  0  0  0  0  0  0  0  0  0  0
   25.1521  -18.9668  -19.0681 N   0  0  0  0  0  0  0  0  0  0  0  0
   25.9098  -18.0969  -19.9382 C   0  0  0  0  0  0  0  0  0  0  0  0
   25.2112  -16.8993  -20.3910 C   0  0  0  0  0  0  0  0  0  0  0  0
   24.5765  -17.0009  -21.4947 O   0  0  0  0  0  0  0  0  0  0  0  0
   25.1739  -15.6520  -19.7217 N   0  0  0  0  0  0  0  0  0  0  0  0
   24.4556  -14.5184  -20.2952 C   0  0  0  0  0  0  0  0  0  0  0  0
   23.0504  -14.5227  -19.8144 C   0  0  0  0  0  0  0  0  0  0  0  0
   22.2709  -13.4095  -20.1061 O   0  0  0  0  0  0  0  0  0  0  0  0
   22.6064  -15.4914  -19.1784 O   0  0  0  0  0  0  0  0  0  0  0  0
  2  1  1  0
  3  2  2  0
  4  3  1  0
  5  4  2  0
  5 11  1  0
  6  5  1  0
  7  9  1  0
  7  8  1  1
  7  6  1  0
  9 13  1  0
 10  9  2  0
 11 12  2  0
 12  2  1  0
 13 14  1  0
 14 15  1  0
 15 16  2  0
 15 17  1  0
 17 18  1  0
 19 18  1  0
 19 20  1  0
 21 19  2  0
M  END
$$$$
