YGG.pdb
     RDKit          3D

 21 21  0  0  1  0  0  0  0  0999 V2000
   22.1831  -20.5379  -15.2177 O   0  0  0  0  0  0  0  0  0  0  0  0
   21.7264  -19.2996  -15.6474 C   0  0  0  0  0  0  0  0  0  0  0  0
   21.4711  -19.0925  -16.9879 C   0  0  0  0  0  0  0  0  0  0  0  0
   21.0142  -17.8664  -17.4468 C   0  0  0  0  0  0  0  0  0  0  0  0
   20.8171  -16.8435  -16.5249 C   0  0  0  0  0  0  0  0  0  0  0  0
   20.3364  -15.5300  -16.9549 C   0  0  0  0  0  0  0  0  0  0  0  0
   18.8473  -15.3436  -16.7153 C   0  0  2  0  0  0  0  0  0  0  0  0
   18.1407  -16.4018  -17.4090 N   0  0  0  0  0  0  0  0  0  0  0  0
   18.3801  -14.0405  -17.2581 C   0  0  0  0  0  0  0  0  0  0  0  0
   17.8789  -13.9667  -18.4280 O   0  0  0  0  0  0  0  0  0  0  0  0
   21.0830  -17.0865  -15.1917 C   0  0  0  0  0  0  0  0  0  0  0  0
   21.5381  -18.3023  -14.7218 C   0  0  0  0  0  0  0  0  0  0  0  0
   18.4617  -12.8205  -16.5206 N   0  0  0  0  0  0  0  0  0  0  0  0
   17.8969  -11.5681  -16.9681 C   0  0  0  0  0  0  0  0  0  0  0  0
   18.7594  -10.7610  -17.8238 C   0  0  0  0  0  0  0  0  0  0  0  0
   18.9609  -11.2087  -19.0029 O   0  0  0  0  0  0  0  0  0  0  0  0
   19.3820   -9.5404  -17.4669 N   0  0  0  0  0  0  0  0  0  0  0  0
   18.7647   -8.6442  -16.4945 C   0  0  0  0  0  0  0  0  0  0  0  0
   17.5243   -8.0629  -17.0682 C   0  0  0  0  0  0  0  0  0  0  0  0
   16.8496   -7.1160  -16.3066 O   0  0  0  0  0  0  0  0  0  0  0  0
   17.1208   -8.4207  -18.1859 O   0  0  0  0  0  0  0  0  0  0  0  0
  2  1  1  0
  3  2  2  0
  4  3  1  0
  5  4  2  0
  5 11  1  0
  6  5  1  0
  7  9  1  0
  7  8  1  6
  7  6  1  0
  9 13  1  0
 10  9  2  0
 11 12  2  0
 12  2  1  0
 13 14  1  0
 14 15  1  0
 15 16  2  0
 15 17  1  0
 17 18  1  0
 19 18  1  0
 19 20  1  0
 21 19  2  0
M  END
$$$$
