YGG.pdb
     RDKit          3D

 21 21  0  0  1  0  0  0  0  0999 V2000
   28.7909  -19.7920   -3.8306 O   0  0  0  0  0  0  0  0  0  0  0  0
   28.3240  -19.7835   -5.1376 C   0  0  0  0  0  0  0  0  0  0  0  0
   29.1833  -19.4613   -6.1686 C   0  0  0  0  0  0  0  0  0  0  0  0
   28.7456  -19.4445   -7.4843 C   0  0  0  0  0  0  0  0  0  0  0  0
   27.4165  -19.7604   -7.7464 C   0  0  0  0  0  0  0  0  0  0  0  0
   26.9021  -19.7579   -9.1163 C   0  0  0  0  0  0  0  0  0  0  0  0
   26.4071  -21.1249   -9.5589 C   0  0  2  0  0  0  0  0  0  0  0  0
   27.5327  -22.0378   -9.5543 N   0  0  0  0  0  0  0  0  0  0  0  0
   25.8596  -21.0708  -10.9403 C   0  0  0  0  0  0  0  0  0  0  0  0
   26.6381  -21.1071  -11.9493 O   0  0  0  0  0  0  0  0  0  0  0  0
   26.5853  -20.0779   -6.6901 C   0  0  0  0  0  0  0  0  0  0  0  0
   27.0083  -20.0983   -5.3760 C   0  0  0  0  0  0  0  0  0  0  0  0
   24.4615  -20.9772  -11.2159 N   0  0  0  0  0  0  0  0  0  0  0  0
   23.9024  -20.1913  -12.2918 C   0  0  0  0  0  0  0  0  0  0  0  0
   22.4463  -20.1111  -12.3191 C   0  0  0  0  0  0  0  0  0  0  0  0
   21.9357  -19.4713  -13.2995 O   0  0  0  0  0  0  0  0  0  0  0  0
   21.5618  -20.6749  -11.3678 N   0  0  0  0  0  0  0  0  0  0  0  0
   21.1289  -22.0638  -11.4827 C   0  0  0  0  0  0  0  0  0  0  0  0
   20.2885  -22.2262  -12.6965 C   0  0  0  0  0  0  0  0  0  0  0  0
   20.5583  -21.3951  -13.7773 O   0  0  0  0  0  0  0  0  0  0  0  0
   19.3849  -23.0762  -12.7265 O   0  0  0  0  0  0  0  0  0  0  0  0
  2  1  1  0
  3  2  2  0
  4  3  1  0
  5  4  2  0
  5 11  1  0
  6  5  1  0
  7  9  1  0
  7  8  1  6
  7  6  1  0
  9 13  1  0
 10  9  2  0
 11 12  2  0
 12  2  1  0
 13 14  1  0
 14 15  1  0
 15 16  2  0
 15 17  1  0
 17 18  1  0
 19 18  1  0
 19 20  1  0
 21 19  2  0
M  END
$$$$
