VYS.pdb
     RDKit          3D

 26 26  0  0  1  0  0  0  0  0999 V2000
   24.8004  -15.5062  -19.6839 C   0  0  0  0  0  0  0  0  0  0  0  0
   24.1584  -16.6622  -18.9479 C   0  0  1  0  0  0  0  0  0  0  0  0
   23.0882  -17.3023  -19.7777 C   0  0  0  0  0  0  0  0  0  0  0  0
   25.2389  -17.6423  -18.5487 C   0  0  2  0  0  0  0  0  0  0  0  0
   25.8822  -18.2265  -19.7084 N   0  0  0  0  0  0  0  0  0  0  0  0
   24.6757  -18.7189  -17.6616 C   0  0  0  0  0  0  0  0  0  0  0  0
   24.1881  -19.7703  -18.1458 O   0  0  0  0  0  0  0  0  0  0  0  0
   29.5399  -23.0830  -16.8245 O   0  0  0  0  0  0  0  0  0  0  0  0
   28.4863  -22.3704  -16.2476 C   0  0  0  0  0  0  0  0  0  0  0  0
   28.6207  -21.0102  -16.0747 C   0  0  0  0  0  0  0  0  0  0  0  0
   27.5831  -20.2741  -15.5006 C   0  0  0  0  0  0  0  0  0  0  0  0
   26.4148  -20.8592  -15.0949 C   0  0  0  0  0  0  0  0  0  0  0  0
   25.3401  -20.0855  -14.5097 C   0  0  0  0  0  0  0  0  0  0  0  0
   24.1872  -19.6920  -15.3615 C   0  0  2  0  0  0  0  0  0  0  0  0
   24.6725  -18.5916  -16.2537 N   0  0  0  0  0  0  0  0  0  0  0  0
   22.9555  -19.2780  -14.7087 C   0  0  0  0  0  0  0  0  0  0  0  0
   22.9679  -18.2030  -14.0071 O   0  0  0  0  0  0  0  0  0  0  0  0
   26.3001  -22.2267  -15.2773 C   0  0  0  0  0  0  0  0  0  0  0  0
   27.3256  -22.9544  -15.8445 C   0  0  0  0  0  0  0  0  0  0  0  0
   18.3881  -18.5789  -14.3999 O   0  0  0  0  0  0  0  0  0  0  0  0
   19.4585  -19.1047  -15.1233 C   0  0  0  0  0  0  0  0  0  0  0  0
   20.5306  -19.4734  -14.1208 C   0  0  2  0  0  0  0  0  0  0  0  0
   21.7359  -19.9441  -14.7786 N   0  0  0  0  0  0  0  0  0  0  0  0
   19.9889  -20.4752  -13.2092 C   0  0  0  0  0  0  0  0  0  0  0  0
   20.2524  -21.6891  -13.3627 O   0  0  0  0  0  0  0  0  0  0  0  0
   19.1568  -20.1375  -12.1288 O   0  0  0  0  0  0  0  0  0  0  0  0
  2  1  1  6
  3  2  1  0
  4  2  1  0
  4  5  1  6
  6 15  1  0
  6  4  1  0
  7  6  2  0
  9  8  1  0
 10  9  2  0
 11 10  1  0
 12 18  1  0
 12 11  2  0
 13 12  1  0
 14 15  1  0
 14 13  1  1
 16 14  1  0
 17 16  2  0
 18 19  2  0
 19  9  1  0
 20 21  1  0
 22 21  1  6
 22 24  1  0
 22 23  1  0
 23 16  1  0
 24 26  1  0
 25 24  2  0
M  END
$$$$
