VYS.pdb
     RDKit          3D

 26 26  0  0  1  0  0  0  0  0999 V2000
   28.8021  -21.1286  -19.3343 C   0  0  0  0  0  0  0  0  0  0  0  0
   27.7443  -21.5310  -18.3297 C   0  0  1  0  0  0  0  0  0  0  0  0
   26.7781  -22.5081  -18.9257 C   0  0  0  0  0  0  0  0  0  0  0  0
   28.4296  -22.0795  -17.0980 C   0  0  2  0  0  0  0  0  0  0  0  0
   29.1336  -23.3130  -17.3858 N   0  0  0  0  0  0  0  0  0  0  0  0
   27.4362  -22.2876  -15.9878 C   0  0  0  0  0  0  0  0  0  0  0  0
   26.9072  -23.4098  -15.7914 O   0  0  0  0  0  0  0  0  0  0  0  0
   23.8248  -20.5363   -7.9488 O   0  0  0  0  0  0  0  0  0  0  0  0
   24.5305  -20.5538   -9.1539 C   0  0  0  0  0  0  0  0  0  0  0  0
   23.9301  -20.0403  -10.2826 C   0  0  0  0  0  0  0  0  0  0  0  0
   24.6130  -20.0455  -11.4997 C   0  0  0  0  0  0  0  0  0  0  0  0
   25.8794  -20.5492  -11.6205 C   0  0  0  0  0  0  0  0  0  0  0  0
   26.5836  -20.5408  -12.8854 C   0  0  0  0  0  0  0  0  0  0  0  0
   26.1308  -21.4512  -13.9697 C   0  0  2  0  0  0  0  0  0  0  0  0
   27.0593  -21.2336  -15.1243 N   0  0  0  0  0  0  0  0  0  0  0  0
   24.7549  -21.3476  -14.4292 C   0  0  0  0  0  0  0  0  0  0  0  0
   24.4596  -20.4222  -15.2685 O   0  0  0  0  0  0  0  0  0  0  0  0
   26.4645  -21.0605  -10.4748 C   0  0  0  0  0  0  0  0  0  0  0  0
   25.7895  -21.0555   -9.2717 C   0  0  0  0  0  0  0  0  0  0  0  0
   20.4847  -23.1355  -13.6580 O   0  0  0  0  0  0  0  0  0  0  0  0
   21.5885  -23.3305  -14.4880 C   0  0  0  0  0  0  0  0  0  0  0  0
   22.3467  -22.0215  -14.5298 C   0  0  2  0  0  0  0  0  0  0  0  0
   23.7061  -22.1773  -14.0452 N   0  0  0  0  0  0  0  0  0  0  0  0
   21.6083  -21.0325  -13.7522 C   0  0  0  0  0  0  0  0  0  0  0  0
   22.0349  -20.6434  -12.6417 O   0  0  0  0  0  0  0  0  0  0  0  0
   20.3998  -20.4732  -14.1998 O   0  0  0  0  0  0  0  0  0  0  0  0
  2  1  1  6
  3  2  1  0
  4  2  1  0
  4  5  1  6
  6 15  1  0
  6  4  1  0
  7  6  2  0
  9  8  1  0
 10  9  2  0
 11 10  1  0
 12 18  1  0
 12 11  2  0
 13 12  1  0
 14 15  1  0
 14 13  1  1
 16 14  1  0
 17 16  2  0
 18 19  2  0
 19  9  1  0
 20 21  1  0
 22 21  1  1
 22 24  1  0
 22 23  1  0
 23 16  1  0
 24 26  1  0
 25 24  2  0
M  END
$$$$
