VYS.pdb
     RDKit          3D

 26 26  0  0  1  0  0  0  0  0999 V2000
   25.3136  -17.9335  -18.6749 C   0  0  0  0  0  0  0  0  0  0  0  0
   26.4194  -18.7106  -19.3558 C   0  0  1  0  0  0  0  0  0  0  0  0
   26.9503  -17.9662  -20.5422 C   0  0  0  0  0  0  0  0  0  0  0  0
   27.4968  -19.0125  -18.3381 C   0  0  2  0  0  0  0  0  0  0  0  0
   28.5995  -19.7422  -18.9312 N   0  0  0  0  0  0  0  0  0  0  0  0
   26.9266  -19.7758  -17.1740 C   0  0  0  0  0  0  0  0  0  0  0  0
   26.6234  -20.9901  -17.2795 O   0  0  0  0  0  0  0  0  0  0  0  0
   25.0921  -21.4532   -8.5326 O   0  0  0  0  0  0  0  0  0  0  0  0
   25.5236  -20.9735   -9.7713 C   0  0  0  0  0  0  0  0  0  0  0  0
   24.8210  -19.9495  -10.3681 C   0  0  0  0  0  0  0  0  0  0  0  0
   25.2307  -19.4514  -11.6058 C   0  0  0  0  0  0  0  0  0  0  0  0
   26.3229  -19.9476  -12.2637 C   0  0  0  0  0  0  0  0  0  0  0  0
   26.7459  -19.4172  -13.5427 C   0  0  0  0  0  0  0  0  0  0  0  0
   26.0725  -19.8925  -14.7796 C   0  0  2  0  0  0  0  0  0  0  0  0
   26.7098  -19.1603  -15.9199 N   0  0  0  0  0  0  0  0  0  0  0  0
   24.6267  -19.7663  -14.8712 C   0  0  0  0  0  0  0  0  0  0  0  0
   24.1320  -18.6226  -15.1803 O   0  0  0  0  0  0  0  0  0  0  0  0
   27.0146  -20.9760  -11.6470 C   0  0  0  0  0  0  0  0  0  0  0  0
   26.6097  -21.4686  -10.4238 C   0  0  0  0  0  0  0  0  0  0  0  0
   22.0256  -21.1560  -16.9012 O   0  0  0  0  0  0  0  0  0  0  0  0
   21.5690  -21.4961  -15.6278 C   0  0  0  0  0  0  0  0  0  0  0  0
   22.2709  -20.5810  -14.6478 C   0  0  2  0  0  0  0  0  0  0  0  0
   23.7074  -20.7891  -14.6595 N   0  0  0  0  0  0  0  0  0  0  0  0
   21.7061  -20.8014  -13.3210 C   0  0  0  0  0  0  0  0  0  0  0  0
   20.4990  -20.5627  -13.0917 O   0  0  0  0  0  0  0  0  0  0  0  0
   22.4729  -21.2849  -12.2478 O   0  0  0  0  0  0  0  0  0  0  0  0
  2  1  1  1
  3  2  1  0
  4  2  1  0
  4  5  1  6
  6 15  1  0
  6  4  1  0
  7  6  2  0
  9  8  1  0
 10  9  2  0
 11 10  1  0
 12 18  1  0
 12 11  2  0
 13 12  1  0
 14 15  1  0
 14 13  1  1
 16 14  1  0
 17 16  2  0
 18 19  2  0
 19  9  1  0
 20 21  1  0
 22 21  1  6
 22 24  1  0
 22 23  1  0
 23 16  1  0
 24 26  1  0
 25 24  2  0
M  END
$$$$
