VYS.pdb
     RDKit          3D

 26 26  0  0  1  0  0  0  0  0999 V2000
   28.5766  -21.1720  -19.0616 C   0  0  0  0  0  0  0  0  0  0  0  0
   28.5791  -19.7581  -18.5222 C   0  0  1  0  0  0  0  0  0  0  0  0
   29.1105  -18.7941  -19.5380 C   0  0  0  0  0  0  0  0  0  0  0  0
   27.1771  -19.4074  -18.0760 C   0  0  2  0  0  0  0  0  0  0  0  0
   27.0369  -17.9861  -17.8302 N   0  0  0  0  0  0  0  0  0  0  0  0
   26.7998  -20.1929  -16.8498 C   0  0  0  0  0  0  0  0  0  0  0  0
   26.7995  -21.4489  -16.8576 O   0  0  0  0  0  0  0  0  0  0  0  0
   24.6351  -21.2145   -8.1441 O   0  0  0  0  0  0  0  0  0  0  0  0
   25.1223  -20.8563   -9.4030 C   0  0  0  0  0  0  0  0  0  0  0  0
   24.3587  -20.0323  -10.2008 C   0  0  0  0  0  0  0  0  0  0  0  0
   24.8220  -19.6589  -11.4632 C   0  0  0  0  0  0  0  0  0  0  0  0
   26.0270  -20.0856  -11.9508 C   0  0  0  0  0  0  0  0  0  0  0  0
   26.5035  -19.6844  -13.2578 C   0  0  0  0  0  0  0  0  0  0  0  0
   25.9167  -20.3202  -14.4665 C   0  0  2  0  0  0  0  0  0  0  0  0
   26.4318  -19.5524  -15.6444 N   0  0  0  0  0  0  0  0  0  0  0  0
   24.4694  -20.4298  -14.5557 C   0  0  0  0  0  0  0  0  0  0  0  0
   23.7869  -19.3599  -14.7497 O   0  0  0  0  0  0  0  0  0  0  0  0
   26.7785  -20.9127  -11.1338 C   0  0  0  0  0  0  0  0  0  0  0  0
   26.3207  -21.2820   -9.8860 C   0  0  0  0  0  0  0  0  0  0  0  0
   20.3867  -23.0091  -14.6262 O   0  0  0  0  0  0  0  0  0  0  0  0
   21.7728  -23.0756  -14.4855 C   0  0  0  0  0  0  0  0  0  0  0  0
   22.2863  -21.6520  -14.4916 C   0  0  2  0  0  0  0  0  0  0  0  0
   23.7368  -21.6087  -14.4571 N   0  0  0  0  0  0  0  0  0  0  0  0
   21.6997  -20.9422  -13.3602 C   0  0  0  0  0  0  0  0  0  0  0  0
   22.2372  -20.9838  -12.2306 O   0  0  0  0  0  0  0  0  0  0  0  0
   20.5207  -20.1870  -13.4753 O   0  0  0  0  0  0  0  0  0  0  0  0
  2  1  1  6
  3  2  1  0
  4  2  1  0
  4  5  1  1
  6 15  1  0
  6  4  1  0
  7  6  2  0
  9  8  1  0
 10  9  2  0
 11 10  1  0
 12 18  1  0
 12 11  2  0
 13 12  1  0
 14 15  1  0
 14 13  1  1
 16 14  1  0
 17 16  2  0
 18 19  2  0
 19  9  1  0
 20 21  1  0
 22 21  1  1
 22 24  1  0
 22 23  1  0
 23 16  1  0
 24 26  1  0
 25 24  2  0
M  END
$$$$
