VYS.pdb
     RDKit          3D

 26 26  0  0  1  0  0  0  0  0999 V2000
   24.3054  -26.4050  -15.6727 C   0  0  0  0  0  0  0  0  0  0  0  0
   23.7050  -25.1598  -15.0569 C   0  0  1  0  0  0  0  0  0  0  0  0
   24.3696  -24.8268  -13.7565 C   0  0  0  0  0  0  0  0  0  0  0  0
   23.8019  -24.0296  -16.0573 C   0  0  2  0  0  0  0  0  0  0  0  0
   25.1778  -23.7605  -16.4245 N   0  0  0  0  0  0  0  0  0  0  0  0
   23.1491  -22.7868  -15.5170 C   0  0  0  0  0  0  0  0  0  0  0  0
   21.9240  -22.7645  -15.2403 O   0  0  0  0  0  0  0  0  0  0  0  0
   24.8733  -21.3649   -8.5626 O   0  0  0  0  0  0  0  0  0  0  0  0
   24.7482  -20.9584   -9.8929 C   0  0  0  0  0  0  0  0  0  0  0  0
   23.5371  -20.4637  -10.3250 C   0  0  0  0  0  0  0  0  0  0  0  0
   23.3848  -20.0506  -11.6494 C   0  0  0  0  0  0  0  0  0  0  0  0
   24.4091  -20.1175  -12.5540 C   0  0  0  0  0  0  0  0  0  0  0  0
   24.2443  -19.6768  -13.9232 C   0  0  0  0  0  0  0  0  0  0  0  0
   23.2365  -20.3519  -14.7824 C   0  0  2  0  0  0  0  0  0  0  0  0
   23.8842  -21.5990  -15.2996 N   0  0  0  0  0  0  0  0  0  0  0  0
   22.6655  -19.6068  -15.8931 C   0  0  0  0  0  0  0  0  0  0  0  0
   23.4251  -19.3120  -16.8852 O   0  0  0  0  0  0  0  0  0  0  0  0
   25.6174  -20.6176  -12.0997 C   0  0  0  0  0  0  0  0  0  0  0  0
   25.7680  -21.0262  -10.7908 C   0  0  0  0  0  0  0  0  0  0  0  0
   19.4436  -20.2325  -17.8512 O   0  0  0  0  0  0  0  0  0  0  0  0
   20.4996  -19.4279  -18.2788 C   0  0  0  0  0  0  0  0  0  0  0  0
   20.8170  -18.4763  -17.1456 C   0  0  2  0  0  0  0  0  0  0  0  0
   21.3448  -19.1800  -15.9910 N   0  0  0  0  0  0  0  0  0  0  0  0
   19.6084  -17.7295  -16.8145 C   0  0  0  0  0  0  0  0  0  0  0  0
   19.0058  -17.0672  -17.6891 O   0  0  0  0  0  0  0  0  0  0  0  0
   19.0652  -17.7135  -15.5190 O   0  0  0  0  0  0  0  0  0  0  0  0
  2  1  1  6
  3  2  1  0
  4  2  1  0
  4  5  1  1
  6 15  1  0
  6  4  1  0
  7  6  2  0
  9  8  1  0
 10  9  2  0
 11 10  1  0
 12 18  1  0
 12 11  2  0
 13 12  1  0
 14 15  1  0
 14 13  1  6
 16 14  1  0
 17 16  2  0
 18 19  2  0
 19  9  1  0
 20 21  1  0
 22 21  1  6
 22 24  1  0
 22 23  1  0
 23 16  1  0
 24 26  1  0
 25 24  2  0
M  END
$$$$
