VYS.pdb
     RDKit          3D

 26 26  0  0  1  0  0  0  0  0999 V2000
   27.3936  -34.2641   -3.4382 C   0  0  0  0  0  0  0  0  0  0  0  0
   26.3122  -33.2194   -3.6093 C   0  0  1  0  0  0  0  0  0  0  0  0
   25.6664  -33.3271   -4.9565 C   0  0  0  0  0  0  0  0  0  0  0  0
   25.3154  -33.3648   -2.4812 C   0  0  2  0  0  0  0  0  0  0  0  0
   24.1741  -32.4904   -2.6636 N   0  0  0  0  0  0  0  0  0  0  0  0
   25.9742  -33.0999   -1.1550 C   0  0  0  0  0  0  0  0  0  0  0  0
   26.2285  -31.9289   -0.7785 O   0  0  0  0  0  0  0  0  0  0  0  0
   23.3477  -29.5700    4.4570 O   0  0  0  0  0  0  0  0  0  0  0  0
   23.9610  -30.6803    3.8724 C   0  0  0  0  0  0  0  0  0  0  0  0
   23.1997  -31.5286    3.0984 C   0  0  0  0  0  0  0  0  0  0  0  0
   23.7876  -32.6454    2.5025 C   0  0  0  0  0  0  0  0  0  0  0  0
   25.1150  -32.9382    2.6582 C   0  0  0  0  0  0  0  0  0  0  0  0
   25.7179  -34.0936    2.0277 C   0  0  0  0  0  0  0  0  0  0  0  0
   26.8582  -33.8942    1.0952 C   0  0  2  0  0  0  0  0  0  0  0  0
   26.3322  -34.1532   -0.2827 N   0  0  0  0  0  0  0  0  0  0  0  0
   28.0674  -34.6741    1.3060 C   0  0  0  0  0  0  0  0  0  0  0  0
   28.0589  -35.9148    0.9764 O   0  0  0  0  0  0  0  0  0  0  0  0
   25.8620  -32.0735    3.4397 C   0  0  0  0  0  0  0  0  0  0  0  0
   25.2811  -30.9696    4.0288 C   0  0  0  0  0  0  0  0  0  0  0  0
   32.4190  -33.9332    1.5566 O   0  0  0  0  0  0  0  0  0  0  0  0
   31.5800  -34.2311    2.6302 C   0  0  0  0  0  0  0  0  0  0  0  0
   30.4214  -35.0321    2.0766 C   0  0  2  0  0  0  0  0  0  0  0  0
   29.2616  -34.1937    1.8344 N   0  0  0  0  0  0  0  0  0  0  0  0
   30.1185  -36.1139    3.0073 C   0  0  0  0  0  0  0  0  0  0  0  0
   29.4171  -35.9065    4.0230 O   0  0  0  0  0  0  0  0  0  0  0  0
   30.5893  -37.4238    2.8171 O   0  0  0  0  0  0  0  0  0  0  0  0
  2  1  1  1
  3  2  1  0
  4  2  1  0
  4  5  1  6
  6 15  1  0
  6  4  1  0
  7  6  2  0
  9  8  1  0
 10  9  2  0
 11 10  1  0
 12 18  1  0
 12 11  2  0
 13 12  1  0
 14 15  1  0
 14 13  1  1
 16 14  1  0
 17 16  2  0
 18 19  2  0
 19  9  1  0
 20 21  1  0
 22 21  1  1
 22 24  1  0
 22 23  1  0
 23 16  1  0
 24 26  1  0
 25 24  2  0
M  END
$$$$
