SPL.pdb
     RDKit          3D

 22 22  0  0  1  0  0  0  0  0999 V2000
    6.5432  -18.5005   23.7260 O   0  0  0  0  0  0  0  0  0  0  0  0
    5.5915  -18.0205   22.8251 C   0  0  0  0  0  0  0  0  0  0  0  0
    6.2346  -17.8443   21.4418 C   0  0  2  0  0  0  0  0  0  0  0  0
    6.4881  -19.2013   20.9789 N   0  0  0  0  0  0  0  0  0  0  0  0
    7.4833  -17.0802   21.5463 C   0  0  0  0  0  0  0  0  0  0  0  0
    8.5612  -17.7293   21.6874 O   0  0  0  0  0  0  0  0  0  0  0  0
    7.5754  -15.6764   21.5013 N   0  0  0  0  0  0  0  0  0  0  0  0
    6.4027  -14.7995   21.3615 C   0  0  0  0  0  0  0  0  0  0  0  0
    6.9341  -13.5949   20.5844 C   0  0  0  0  0  0  0  0  0  0  0  0
    8.3217  -13.4650   21.1747 C   0  0  0  0  0  0  0  0  0  0  0  0
    8.7482  -14.8436   21.5741 C   0  0  1  0  0  0  0  0  0  0  0  0
    9.3516  -14.8267   22.9324 C   0  0  0  0  0  0  0  0  0  0  0  0
   10.5492  -14.4990   23.1346 O   0  0  0  0  0  0  0  0  0  0  0  0
    6.8844  -12.0385   26.0037 C   0  0  0  0  0  0  0  0  0  0  0  0
    7.1939  -13.4702   25.7278 C   0  0  2  0  0  0  0  0  0  0  0  0
    6.2511  -14.3436   26.5013 C   0  0  0  0  0  0  0  0  0  0  0  0
    8.6267  -13.8400   26.0159 C   0  0  0  0  0  0  0  0  0  0  0  0
    9.0318  -15.1431   25.4128 C   0  0  2  0  0  0  0  0  0  0  0  0
    8.5665  -15.1873   24.0370 N   0  0  0  0  0  0  0  0  0  0  0  0
    8.3842  -16.2304   26.1972 C   0  0  0  0  0  0  0  0  0  0  0  0
    7.4320  -16.9262   25.7589 O   0  0  0  0  0  0  0  0  0  0  0  0
    8.8372  -16.5083   27.4796 O   0  0  0  0  0  0  0  0  0  0  0  0
  2  1  1  0
  3  5  1  0
  3  2  1  0
  3  4  1  1
  5  6  2  0
  5  7  1  0
  7 11  1  0
  8  7  1  0
  9  8  1  0
  9 10  1  0
 10 11  1  0
 11 12  1  1
 12 13  2  0
 12 19  1  0
 15 16  1  1
 15 14  1  0
 17 15  1  0
 18 20  1  0
 18 17  1  1
 19 18  1  0
 20 22  1  0
 21 20  2  0
M  END
$$$$
