SPL.pdb
     RDKit          3D

 22 22  0  0  1  0  0  0  0  0999 V2000
   11.5460  -18.1789   21.9536 O   0  0  0  0  0  0  0  0  0  0  0  0
   11.0377  -18.0579   20.6595 C   0  0  0  0  0  0  0  0  0  0  0  0
   11.0848  -16.5865   20.2231 C   0  0  2  0  0  0  0  0  0  0  0  0
   12.5004  -16.2459   20.2313 N   0  0  0  0  0  0  0  0  0  0  0  0
   10.3338  -15.7449   21.1623 C   0  0  0  0  0  0  0  0  0  0  0  0
   10.9950  -15.0444   21.9840 O   0  0  0  0  0  0  0  0  0  0  0  0
    8.9303  -15.6559   21.2199 N   0  0  0  0  0  0  0  0  0  0  0  0
    8.0423  -16.3684   20.2885 C   0  0  0  0  0  0  0  0  0  0  0  0
    6.8308  -15.4453   20.1559 C   0  0  0  0  0  0  0  0  0  0  0  0
    6.7203  -14.9158   21.5695 C   0  0  0  0  0  0  0  0  0  0  0  0
    8.1079  -14.9035   22.1320 C   0  0  1  0  0  0  0  0  0  0  0  0
    8.1154  -15.4704   23.5060 C   0  0  0  0  0  0  0  0  0  0  0  0
    8.5343  -16.6302   23.7552 O   0  0  0  0  0  0  0  0  0  0  0  0
    8.3165  -12.1783   26.8665 C   0  0  0  0  0  0  0  0  0  0  0  0
    7.0248  -12.7380   26.3769 C   0  0  2  0  0  0  0  0  0  0  0  0
    5.8927  -11.8838   26.8653 C   0  0  0  0  0  0  0  0  0  0  0  0
    6.8130  -14.1805   26.7603 C   0  0  0  0  0  0  0  0  0  0  0  0
    7.6370  -15.1307   25.9577 C   0  0  2  0  0  0  0  0  0  0  0  0
    7.6403  -14.6931   24.5722 N   0  0  0  0  0  0  0  0  0  0  0  0
    7.0090  -16.4770   26.0578 C   0  0  0  0  0  0  0  0  0  0  0  0
    6.1534  -16.9032   25.2397 O   0  0  0  0  0  0  0  0  0  0  0  0
    7.3704  -17.3220   27.0982 O   0  0  0  0  0  0  0  0  0  0  0  0
  2  1  1  0
  3  5  1  0
  3  2  1  0
  3  4  1  1
  5  6  2  0
  5  7  1  0
  7 11  1  0
  8  7  1  0
  9  8  1  0
  9 10  1  0
 10 11  1  0
 11 12  1  1
 12 13  2  0
 12 19  1  0
 15 16  1  1
 15 14  1  0
 17 15  1  0
 18 20  1  0
 18 17  1  1
 19 18  1  0
 20 22  1  0
 21 20  2  0
M  END
$$$$
