SPL.pdb
     RDKit          3D

 22 22  0  0  1  0  0  0  0  0999 V2000
    6.3029  -17.7193   22.3328 O   0  0  0  0  0  0  0  0  0  0  0  0
    7.0397  -18.4930   21.4349 C   0  0  0  0  0  0  0  0  0  0  0  0
    7.7027  -17.5810   20.3926 C   0  0  2  0  0  0  0  0  0  0  0  0
    8.5445  -18.4722   19.6069 N   0  0  0  0  0  0  0  0  0  0  0  0
    8.5037  -16.5419   21.0504 C   0  0  0  0  0  0  0  0  0  0  0  0
    9.6135  -16.8842   21.5545 O   0  0  0  0  0  0  0  0  0  0  0  0
    8.1320  -15.1891   21.1643 N   0  0  0  0  0  0  0  0  0  0  0  0
    6.7858  -14.6964   20.8345 C   0  0  0  0  0  0  0  0  0  0  0  0
    7.0281  -13.2750   20.3263 C   0  0  0  0  0  0  0  0  0  0  0  0
    8.1512  -12.8337   21.2398 C   0  0  0  0  0  0  0  0  0  0  0  0
    8.9245  -14.0659   21.5943 C   0  0  1  0  0  0  0  0  0  0  0  0
    9.2118  -14.0962   23.0523 C   0  0  0  0  0  0  0  0  0  0  0  0
   10.1243  -13.4056   23.5748 O   0  0  0  0  0  0  0  0  0  0  0  0
    7.8922  -12.1217   26.4059 C   0  0  0  0  0  0  0  0  0  0  0  0
    6.9482  -13.0236   25.6868 C   0  0  2  0  0  0  0  0  0  0  0  0
    5.5398  -12.6888   26.0795 C   0  0  0  0  0  0  0  0  0  0  0  0
    7.2332  -14.4875   25.9066 C   0  0  0  0  0  0  0  0  0  0  0  0
    8.5404  -14.9256   25.3363 C   0  0  2  0  0  0  0  0  0  0  0  0
    8.4439  -14.9216   23.8865 N   0  0  0  0  0  0  0  0  0  0  0  0
    8.8084  -16.3088   25.8180 C   0  0  0  0  0  0  0  0  0  0  0  0
    9.0315  -16.5897   27.0239 O   0  0  0  0  0  0  0  0  0  0  0  0
    8.8174  -17.3574   24.9085 O   0  0  0  0  0  0  0  0  0  0  0  0
  2  1  1  0
  3  5  1  0
  3  2  1  0
  3  4  1  6
  5  6  2  0
  5  7  1  0
  7 11  1  0
  8  7  1  0
  9  8  1  0
  9 10  1  0
 10 11  1  0
 11 12  1  1
 12 13  2  0
 12 19  1  0
 15 16  1  1
 15 14  1  0
 17 15  1  0
 18 20  1  0
 18 17  1  1
 19 18  1  0
 20 22  1  0
 21 20  2  0
M  END
$$$$
