SPL.pdb
     RDKit          3D

 22 22  0  0  1  0  0  0  0  0999 V2000
   11.0550  -17.6648   21.0884 O   0  0  0  0  0  0  0  0  0  0  0  0
   10.5043  -16.9192   20.0450 C   0  0  0  0  0  0  0  0  0  0  0  0
    8.9797  -17.1016   20.0305 C   0  0  2  0  0  0  0  0  0  0  0  0
    8.5265  -16.3159   18.8915 N   0  0  0  0  0  0  0  0  0  0  0  0
    8.3887  -16.6090   21.2804 C   0  0  0  0  0  0  0  0  0  0  0  0
    8.2365  -15.3585   21.4074 O   0  0  0  0  0  0  0  0  0  0  0  0
    7.9762  -17.4224   22.3524 N   0  0  0  0  0  0  0  0  0  0  0  0
    8.1922  -18.8771   22.3851 C   0  0  0  0  0  0  0  0  0  0  0  0
    6.9979  -19.4090   23.1776 C   0  0  0  0  0  0  0  0  0  0  0  0
    6.8299  -18.3138   24.2087 C   0  0  0  0  0  0  0  0  0  0  0  0
    7.2993  -17.0452   23.5665 C   0  0  1  0  0  0  0  0  0  0  0  0
    8.1770  -16.2873   24.4963 C   0  0  0  0  0  0  0  0  0  0  0  0
    9.4258  -16.4376   24.5186 O   0  0  0  0  0  0  0  0  0  0  0  0
    7.4892  -11.8727   25.0813 C   0  0  0  0  0  0  0  0  0  0  0  0
    6.6496  -12.7514   25.9443 C   0  0  2  0  0  0  0  0  0  0  0  0
    5.6078  -11.9237   26.6369 C   0  0  0  0  0  0  0  0  0  0  0  0
    7.4482  -13.5527   26.9406 C   0  0  0  0  0  0  0  0  0  0  0  0
    8.3680  -14.5387   26.3020 C   0  0  2  0  0  0  0  0  0  0  0  0
    7.6032  -15.3678   25.3862 N   0  0  0  0  0  0  0  0  0  0  0  0
    8.9495  -15.3854   27.3799 C   0  0  0  0  0  0  0  0  0  0  0  0
    9.8409  -14.9819   28.1709 O   0  0  0  0  0  0  0  0  0  0  0  0
    8.5009  -16.6894   27.5390 O   0  0  0  0  0  0  0  0  0  0  0  0
  2  1  1  0
  3  5  1  0
  3  2  1  0
  3  4  1  6
  5  6  2  0
  5  7  1  0
  7 11  1  0
  8  7  1  0
  9  8  1  0
  9 10  1  0
 10 11  1  0
 11 12  1  1
 12 13  2  0
 12 19  1  0
 15 16  1  1
 15 14  1  0
 17 15  1  0
 18 20  1  0
 18 17  1  1
 19 18  1  0
 20 22  1  0
 21 20  2  0
M  END
$$$$
