SPL.pdb
     RDKit          3D

 22 22  0  0  1  0  0  0  0  0999 V2000
    9.7779  -13.0431   20.0481 O   0  0  0  0  0  0  0  0  0  0  0  0
    9.3080  -14.0705   19.2287 C   0  0  0  0  0  0  0  0  0  0  0  0
    7.7786  -14.1562   19.3360 C   0  0  2  0  0  0  0  0  0  0  0  0
    7.3088  -12.8315   18.9561 N   0  0  0  0  0  0  0  0  0  0  0  0
    7.3748  -14.4862   20.7080 C   0  0  0  0  0  0  0  0  0  0  0  0
    6.9798  -13.5392   21.4498 O   0  0  0  0  0  0  0  0  0  0  0  0
    7.3925  -15.7789   21.2646 N   0  0  0  0  0  0  0  0  0  0  0  0
    7.8227  -16.9693   20.5150 C   0  0  0  0  0  0  0  0  0  0  0  0
    6.9794  -18.1001   21.1043 C   0  0  0  0  0  0  0  0  0  0  0  0
    6.9354  -17.6928   22.5614 C   0  0  0  0  0  0  0  0  0  0  0  0
    7.0203  -16.1982   22.5912 C   0  0  1  0  0  0  0  0  0  0  0  0
    7.9939  -15.7547   23.6231 C   0  0  0  0  0  0  0  0  0  0  0  0
    9.2305  -15.6908   23.4008 O   0  0  0  0  0  0  0  0  0  0  0  0
    7.8311  -11.8631   25.3662 C   0  0  0  0  0  0  0  0  0  0  0  0
    6.8888  -12.8469   25.9711 C   0  0  2  0  0  0  0  0  0  0  0  0
    5.8718  -12.1204   26.8004 C   0  0  0  0  0  0  0  0  0  0  0  0
    7.5769  -13.9162   26.7809 C   0  0  0  0  0  0  0  0  0  0  0  0
    8.3769  -14.8620   25.9493 C   0  0  2  0  0  0  0  0  0  0  0  0
    7.5286  -15.3915   24.8952 N   0  0  0  0  0  0  0  0  0  0  0  0
    8.8339  -15.9713   26.8312 C   0  0  0  0  0  0  0  0  0  0  0  0
    9.7109  -15.8297   27.7221 O   0  0  0  0  0  0  0  0  0  0  0  0
    8.2781  -17.2344   26.6809 O   0  0  0  0  0  0  0  0  0  0  0  0
  2  1  1  0
  3  5  1  0
  3  2  1  0
  3  4  1  1
  5  6  2  0
  5  7  1  0
  7 11  1  0
  8  7  1  0
  9  8  1  0
  9 10  1  0
 10 11  1  0
 11 12  1  1
 12 13  2  0
 12 19  1  0
 15 16  1  1
 15 14  1  0
 17 15  1  0
 18 20  1  0
 18 17  1  1
 19 18  1  0
 20 22  1  0
 21 20  2  0
M  END
$$$$
