SPL.pdb
     RDKit          3D

 22 22  0  0  1  0  0  0  0  0999 V2000
    5.9984  -20.1570   23.5133 O   0  0  0  0  0  0  0  0  0  0  0  0
    6.6617  -18.9306   23.4515 C   0  0  0  0  0  0  0  0  0  0  0  0
    7.0062  -18.6043   21.9912 C   0  0  2  0  0  0  0  0  0  0  0  0
    7.5232  -19.8523   21.4479 N   0  0  0  0  0  0  0  0  0  0  0  0
    8.0155  -17.5408   21.9238 C   0  0  0  0  0  0  0  0  0  0  0  0
    9.2329  -17.8777   22.0103 O   0  0  0  0  0  0  0  0  0  0  0  0
    7.7335  -16.1705   21.7696 N   0  0  0  0  0  0  0  0  0  0  0  0
    6.3650  -15.6375   21.6857 C   0  0  0  0  0  0  0  0  0  0  0  0
    6.5005  -14.4168   20.7752 C   0  0  0  0  0  0  0  0  0  0  0  0
    7.8476  -13.8834   21.2128 C   0  0  0  0  0  0  0  0  0  0  0  0
    8.6497  -15.0641   21.6649 C   0  0  1  0  0  0  0  0  0  0  0  0
    9.3319  -14.7657   22.9513 C   0  0  0  0  0  0  0  0  0  0  0  0
   10.3083  -13.9764   23.0299 O   0  0  0  0  0  0  0  0  0  0  0  0
    6.0697  -12.4395   26.7730 C   0  0  0  0  0  0  0  0  0  0  0  0
    7.4513  -12.9851   26.6499 C   0  0  2  0  0  0  0  0  0  0  0  0
    8.4454  -11.8851   26.8770 C   0  0  0  0  0  0  0  0  0  0  0  0
    7.7074  -13.6771   25.3352 C   0  0  0  0  0  0  0  0  0  0  0  0
    8.7842  -14.7070   25.4113 C   0  0  2  0  0  0  0  0  0  0  0  0
    8.8793  -15.3808   24.1275 N   0  0  0  0  0  0  0  0  0  0  0  0
    8.4052  -15.6870   26.4662 C   0  0  0  0  0  0  0  0  0  0  0  0
    8.6463  -15.5144   27.6889 O   0  0  0  0  0  0  0  0  0  0  0  0
    7.7520  -16.8576   26.1058 O   0  0  0  0  0  0  0  0  0  0  0  0
  2  1  1  0
  3  5  1  0
  3  2  1  0
  3  4  1  1
  5  6  2  0
  5  7  1  0
  7 11  1  0
  8  7  1  0
  9  8  1  0
  9 10  1  0
 10 11  1  0
 11 12  1  1
 12 13  2  0
 12 19  1  0
 15 16  1  6
 15 14  1  0
 17 15  1  0
 18 20  1  0
 18 17  1  6
 19 18  1  0
 20 22  1  0
 21 20  2  0
M  END
$$$$
