SPL.pdb
     RDKit          3D

 22 22  0  0  1  0  0  0  0  0999 V2000
   10.7472  -19.4841   19.5145 O   0  0  0  0  0  0  0  0  0  0  0  0
   10.6492  -18.4630   20.4608 C   0  0  0  0  0  0  0  0  0  0  0  0
   10.4397  -17.1189   19.7483 C   0  0  2  0  0  0  0  0  0  0  0  0
   11.7494  -16.7806   19.2094 N   0  0  0  0  0  0  0  0  0  0  0  0
    9.9792  -16.0979   20.6967 C   0  0  0  0  0  0  0  0  0  0  0  0
   10.8583  -15.4155   21.3007 O   0  0  0  0  0  0  0  0  0  0  0  0
    8.6309  -15.8174   20.9875 N   0  0  0  0  0  0  0  0  0  0  0  0
    7.5088  -16.4439   20.2719 C   0  0  0  0  0  0  0  0  0  0  0  0
    6.4184  -15.3723   20.2865 C   0  0  0  0  0  0  0  0  0  0  0  0
    6.6292  -14.7706   21.6592 C   0  0  0  0  0  0  0  0  0  0  0  0
    8.0853  -14.9210   21.9740 C   0  0  1  0  0  0  0  0  0  0  0  0
    8.2668  -15.4222   23.3615 C   0  0  0  0  0  0  0  0  0  0  0  0
    8.4096  -16.6441   23.6243 O   0  0  0  0  0  0  0  0  0  0  0  0
    7.4575  -11.3222   26.5719 C   0  0  0  0  0  0  0  0  0  0  0  0
    7.2323  -12.7494   26.2060 C   0  0  2  0  0  0  0  0  0  0  0  0
    5.9050  -13.1992   26.7405 C   0  0  0  0  0  0  0  0  0  0  0  0
    8.3356  -13.6675   26.6669 C   0  0  0  0  0  0  0  0  0  0  0  0
    8.4860  -14.8826   25.8143 C   0  0  2  0  0  0  0  0  0  0  0  0
    8.2810  -14.5084   24.4253 N   0  0  0  0  0  0  0  0  0  0  0  0
    7.4453  -15.8633   26.2291 C   0  0  0  0  0  0  0  0  0  0  0  0
    6.3710  -16.0397   25.5984 O   0  0  0  0  0  0  0  0  0  0  0  0
    7.6489  -16.6330   27.3662 O   0  0  0  0  0  0  0  0  0  0  0  0
  2  1  1  0
  3  5  1  0
  3  2  1  0
  3  4  1  1
  5  6  2  0
  5  7  1  0
  7 11  1  0
  8  7  1  0
  9  8  1  0
  9 10  1  0
 10 11  1  0
 11 12  1  1
 12 13  2  0
 12 19  1  0
 15 16  1  1
 15 14  1  0
 17 15  1  0
 18 20  1  0
 18 17  1  1
 19 18  1  0
 20 22  1  0
 21 20  2  0
M  END
$$$$
