SPL.pdb
     RDKit          3D

 22 22  0  0  1  0  0  0  0  0999 V2000
   10.9760  -18.5514   22.8045 O   0  0  0  0  0  0  0  0  0  0  0  0
   10.3903  -19.0140   21.6252 C   0  0  0  0  0  0  0  0  0  0  0  0
   10.5266  -17.9470   20.5294 C   0  0  2  0  0  0  0  0  0  0  0  0
   11.9571  -17.8679   20.2695 N   0  0  0  0  0  0  0  0  0  0  0  0
   10.0027  -16.6577   20.9958 C   0  0  0  0  0  0  0  0  0  0  0  0
   10.8335  -15.8063   21.4295 O   0  0  0  0  0  0  0  0  0  0  0  0
    8.6432  -16.2933   20.9977 N   0  0  0  0  0  0  0  0  0  0  0  0
    7.5891  -17.1237   20.3952 C   0  0  0  0  0  0  0  0  0  0  0  0
    6.5549  -16.1091   19.9072 C   0  0  0  0  0  0  0  0  0  0  0  0
    6.6243  -15.0777   21.0127 C   0  0  0  0  0  0  0  0  0  0  0  0
    8.0230  -15.1146   21.5459 C   0  0  1  0  0  0  0  0  0  0  0  0
    8.0115  -15.1157   23.0322 C   0  0  0  0  0  0  0  0  0  0  0  0
    8.1811  -16.1634   23.7075 O   0  0  0  0  0  0  0  0  0  0  0  0
    8.4333  -12.5731   27.7157 C   0  0  0  0  0  0  0  0  0  0  0  0
    7.1463  -12.2580   27.0331 C   0  0  2  0  0  0  0  0  0  0  0  0
    6.0382  -13.0451   27.6675 C   0  0  0  0  0  0  0  0  0  0  0  0
    7.1851  -12.4899   25.5441 C   0  0  0  0  0  0  0  0  0  0  0  0
    7.8173  -13.7873   25.1659 C   0  0  2  0  0  0  0  0  0  0  0  0
    7.8047  -13.9101   23.7182 N   0  0  0  0  0  0  0  0  0  0  0  0
    7.0092  -14.8823   25.7700 C   0  0  0  0  0  0  0  0  0  0  0  0
    7.2878  -15.4193   26.8732 O   0  0  0  0  0  0  0  0  0  0  0  0
    5.8873  -15.3506   25.1000 O   0  0  0  0  0  0  0  0  0  0  0  0
  2  1  1  0
  3  5  1  0
  3  2  1  0
  3  4  1  1
  5  6  2  0
  5  7  1  0
  7 11  1  0
  8  7  1  0
  9  8  1  0
  9 10  1  0
 10 11  1  0
 11 12  1  1
 12 13  2  0
 12 19  1  0
 15 16  1  1
 15 14  1  0
 17 15  1  0
 18 20  1  0
 18 17  1  6
 19 18  1  0
 20 22  1  0
 21 20  2  0
M  END
$$$$
