SPL.pdb
     RDKit          3D

 22 22  0  0  1  0  0  0  0  0999 V2000
   11.1828  -18.3949   21.7938 O   0  0  0  0  0  0  0  0  0  0  0  0
   10.7208  -18.3367   20.4782 C   0  0  0  0  0  0  0  0  0  0  0  0
   10.8265  -16.8957   19.9584 C   0  0  2  0  0  0  0  0  0  0  0  0
   12.2572  -16.6363   19.8828 N   0  0  0  0  0  0  0  0  0  0  0  0
   10.1691  -15.9639   20.8824 C   0  0  0  0  0  0  0  0  0  0  0  0
   10.9071  -15.2235   21.5967 O   0  0  0  0  0  0  0  0  0  0  0  0
    8.7765  -15.8290   21.0359 N   0  0  0  0  0  0  0  0  0  0  0  0
    7.8037  -16.5608   20.2101 C   0  0  0  0  0  0  0  0  0  0  0  0
    6.6109  -15.6091   20.1159 C   0  0  0  0  0  0  0  0  0  0  0  0
    6.6187  -15.0047   21.5035 C   0  0  0  0  0  0  0  0  0  0  0  0
    8.0436  -15.0061   21.9634 C   0  0  1  0  0  0  0  0  0  0  0  0
    8.1367  -15.5018   23.3616 C   0  0  0  0  0  0  0  0  0  0  0  0
    8.6876  -16.5940   23.6550 O   0  0  0  0  0  0  0  0  0  0  0  0
    8.2665  -12.1049   26.7252 C   0  0  0  0  0  0  0  0  0  0  0  0
    7.0037  -12.7073   26.2113 C   0  0  2  0  0  0  0  0  0  0  0  0
    5.8350  -11.8884   26.6733 C   0  0  0  0  0  0  0  0  0  0  0  0
    6.8304  -14.1547   26.5957 C   0  0  0  0  0  0  0  0  0  0  0  0
    7.6941  -15.0813   25.8075 C   0  0  2  0  0  0  0  0  0  0  0  0
    7.5940  -14.7320   24.4006 N   0  0  0  0  0  0  0  0  0  0  0  0
    7.1898  -16.4662   26.0183 C   0  0  0  0  0  0  0  0  0  0  0  0
    7.4736  -17.1588   27.0296 O   0  0  0  0  0  0  0  0  0  0  0  0
    6.3629  -17.0430   25.0641 O   0  0  0  0  0  0  0  0  0  0  0  0
  2  1  1  0
  3  5  1  0
  3  2  1  0
  3  4  1  1
  5  6  2  0
  5  7  1  0
  7 11  1  0
  8  7  1  0
  9  8  1  0
  9 10  1  0
 10 11  1  0
 11 12  1  1
 12 13  2  0
 12 19  1  0
 15 16  1  1
 15 14  1  0
 17 15  1  0
 18 20  1  0
 18 17  1  1
 19 18  1  0
 20 22  1  0
 21 20  2  0
M  END
$$$$
