SPL.pdb
     RDKit          3D

 22 22  0  0  1  0  0  0  0  0999 V2000
    6.0097  -17.4472   22.5906 O   0  0  0  0  0  0  0  0  0  0  0  0
    6.3908  -18.2968   21.5510 C   0  0  0  0  0  0  0  0  0  0  0  0
    6.9164  -17.4648   20.3723 C   0  0  2  0  0  0  0  0  0  0  0  0
    7.4316  -18.4477   19.4296 N   0  0  0  0  0  0  0  0  0  0  0  0
    7.9770  -16.5526   20.8163 C   0  0  0  0  0  0  0  0  0  0  0  0
    9.0723  -17.0624   21.1950 O   0  0  0  0  0  0  0  0  0  0  0  0
    7.8702  -15.1496   20.8534 N   0  0  0  0  0  0  0  0  0  0  0  0
    6.6303  -14.4304   20.5229 C   0  0  0  0  0  0  0  0  0  0  0  0
    7.1183  -13.1122   19.9216 C   0  0  0  0  0  0  0  0  0  0  0  0
    8.3341  -12.8402   20.7810 C   0  0  0  0  0  0  0  0  0  0  0  0
    8.8734  -14.1743   21.1949 C   0  0  1  0  0  0  0  0  0  0  0  0
    9.1982  -14.1750   22.6454 C   0  0  0  0  0  0  0  0  0  0  0  0
   10.2375  -13.6348   23.1044 O   0  0  0  0  0  0  0  0  0  0  0  0
    6.0051  -12.4110   26.8388 C   0  0  0  0  0  0  0  0  0  0  0  0
    7.3061  -12.9719   26.3756 C   0  0  2  0  0  0  0  0  0  0  0  0
    8.0572  -11.9247   25.6081 C   0  0  0  0  0  0  0  0  0  0  0  0
    7.1595  -14.2323   25.5615 C   0  0  0  0  0  0  0  0  0  0  0  0
    8.4493  -14.7183   24.9904 C   0  0  2  0  0  0  0  0  0  0  0  0
    8.3212  -14.7977   23.5452 N   0  0  0  0  0  0  0  0  0  0  0  0
    8.7130  -16.0741   25.5465 C   0  0  0  0  0  0  0  0  0  0  0  0
    8.9870  -16.2837   26.7565 O   0  0  0  0  0  0  0  0  0  0  0  0
    8.6594  -17.1777   24.7062 O   0  0  0  0  0  0  0  0  0  0  0  0
  2  1  1  0
  3  5  1  0
  3  2  1  0
  3  4  1  6
  5  6  2  0
  5  7  1  0
  7 11  1  0
  8  7  1  0
  9  8  1  0
  9 10  1  0
 10 11  1  0
 11 12  1  1
 12 13  2  0
 12 19  1  0
 15 16  1  6
 15 14  1  0
 17 15  1  0
 18 20  1  0
 18 17  1  1
 19 18  1  0
 20 22  1  0
 21 20  2  0
M  END
$$$$
