ASY.pdb
     RDKit          3D

 24 24  0  0  1  0  0  0  0  0999 V2000
   35.6078  -28.3316  -16.8310 C   0  0  0  0  0  0  0  0  0  0  0  0
   35.7289  -28.2978  -18.3562 C   0  0  2  0  0  0  0  0  0  0  0  0
   36.3053  -27.0421  -18.7156 N   0  0  0  0  0  0  0  0  0  0  0  0
   34.3382  -28.3909  -18.9432 C   0  0  0  0  0  0  0  0  0  0  0  0
   33.6578  -27.3673  -19.1577 O   0  0  0  0  0  0  0  0  0  0  0  0
   32.2665  -32.2101  -19.2745 O   0  0  0  0  0  0  0  0  0  0  0  0
   32.2489  -31.2443  -20.2756 C   0  0  0  0  0  0  0  0  0  0  0  0
   32.5157  -29.8713  -19.7782 C   0  0  2  0  0  0  0  0  0  0  0  0
   33.8193  -29.6715  -19.2469 N   0  0  0  0  0  0  0  0  0  0  0  0
   31.4007  -29.4006  -18.9159 C   0  0  0  0  0  0  0  0  0  0  0  0
   31.4503  -29.2420  -17.6787 O   0  0  0  0  0  0  0  0  0  0  0  0
   25.2333  -24.3975  -15.8478 O   0  0  0  0  0  0  0  0  0  0  0  0
   26.3026  -25.0783  -16.4242 C   0  0  0  0  0  0  0  0  0  0  0  0
   26.6223  -26.3260  -15.9511 C   0  0  0  0  0  0  0  0  0  0  0  0
   27.6766  -27.0412  -16.4923 C   0  0  0  0  0  0  0  0  0  0  0  0
   28.4205  -26.4953  -17.5233 C   0  0  0  0  0  0  0  0  0  0  0  0
   29.5428  -27.2755  -18.0877 C   0  0  0  0  0  0  0  0  0  0  0  0
   29.0370  -28.5488  -18.7684 C   0  0  2  0  0  0  0  0  0  0  0  0
   30.1620  -29.0978  -19.5299 N   0  0  0  0  0  0  0  0  0  0  0  0
   27.8735  -28.2916  -19.6141 C   0  0  0  0  0  0  0  0  0  0  0  0
   26.6043  -28.6286  -19.1913 O   0  0  0  0  0  0  0  0  0  0  0  0
   28.0844  -25.2415  -17.9850 C   0  0  0  0  0  0  0  0  0  0  0  0
   27.0424  -24.5464  -17.4428 C   0  0  0  0  0  0  0  0  0  0  0  0
   28.0112  -27.7612  -20.7358 O   0  0  0  0  0  0  0  0  0  0  0  0
  2  1  1  1
  2  3  1  0
  4  2  1  0
  4  9  1  0
  5  4  2  0
  6  7  1  0
  8 10  1  0
  8  7  1  1
  8  9  1  0
 10 19  1  0
 11 10  2  0
 13 12  1  0
 14 13  2  0
 15 14  1  0
 16 22  1  0
 16 15  2  0
 17 16  1  0
 18 17  1  6
 19 18  1  0
 20 18  1  0
 21 20  1  0
 22 23  2  0
 23 13  1  0
 24 20  2  0
M  END
$$$$
