ASY.pdb
     RDKit          3D

 24 24  0  0  1  0  0  0  0  0999 V2000
   29.0626  -25.8114  -16.5688 C   0  0  0  0  0  0  0  0  0  0  0  0
   29.4772  -24.5253  -17.2870 C   0  0  2  0  0  0  0  0  0  0  0  0
   30.8895  -24.3821  -17.1349 N   0  0  0  0  0  0  0  0  0  0  0  0
   28.7856  -23.3622  -16.6112 C   0  0  0  0  0  0  0  0  0  0  0  0
   29.2493  -22.8502  -15.5722 O   0  0  0  0  0  0  0  0  0  0  0  0
   24.6053  -22.2191  -17.5387 O   0  0  0  0  0  0  0  0  0  0  0  0
   25.6782  -21.3477  -17.3810 C   0  0  0  0  0  0  0  0  0  0  0  0
   26.7697  -21.8990  -16.5393 C   0  0  2  0  0  0  0  0  0  0  0  0
   27.5930  -22.8620  -17.1846 N   0  0  0  0  0  0  0  0  0  0  0  0
   26.2512  -22.3000  -15.2057 C   0  0  0  0  0  0  0  0  0  0  0  0
   26.5970  -23.3114  -14.5608 O   0  0  0  0  0  0  0  0  0  0  0  0
   26.3274  -20.0638   -7.0243 O   0  0  0  0  0  0  0  0  0  0  0  0
   26.3765  -20.2875   -8.3979 C   0  0  0  0  0  0  0  0  0  0  0  0
   26.0833  -19.2496   -9.2461 C   0  0  0  0  0  0  0  0  0  0  0  0
   26.1187  -19.4237  -10.6188 C   0  0  0  0  0  0  0  0  0  0  0  0
   26.4534  -20.6579  -11.1471 C   0  0  0  0  0  0  0  0  0  0  0  0
   26.4855  -20.8233  -12.6163 C   0  0  0  0  0  0  0  0  0  0  0  0
   25.1578  -21.3799  -13.1339 C   0  0  2  0  0  0  0  0  0  0  0  0
   25.2780  -21.4765  -14.5909 N   0  0  0  0  0  0  0  0  0  0  0  0
   24.0231  -20.5530  -12.7290 C   0  0  0  0  0  0  0  0  0  0  0  0
   23.7217  -19.3878  -13.4034 O   0  0  0  0  0  0  0  0  0  0  0  0
   26.7446  -21.6879  -10.2796 C   0  0  0  0  0  0  0  0  0  0  0  0
   26.7061  -21.5033   -8.9278 C   0  0  0  0  0  0  0  0  0  0  0  0
   23.3071  -20.8899  -11.7634 O   0  0  0  0  0  0  0  0  0  0  0  0
  2  1  1  1
  2  3  1  0
  4  2  1  0
  4  9  1  0
  5  4  2  0
  6  7  1  0
  8 10  1  0
  8  7  1  6
  8  9  1  0
 10 19  1  0
 11 10  2  0
 13 12  1  0
 14 13  2  0
 15 14  1  0
 16 22  1  0
 16 15  2  0
 17 16  1  0
 18 17  1  6
 19 18  1  0
 20 18  1  0
 21 20  1  0
 22 23  2  0
 23 13  1  0
 24 20  2  0
M  END
$$$$
