ASY.pdb
     RDKit          3D

 24 24  0  0  1  0  0  0  0  0999 V2000
   24.4338  -18.7369  -18.2526 C   0  0  0  0  0  0  0  0  0  0  0  0
   25.8755  -19.2500  -18.2718 C   0  0  2  0  0  0  0  0  0  0  0  0
   25.9540  -20.2794  -19.2578 N   0  0  0  0  0  0  0  0  0  0  0  0
   26.1858  -19.8396  -16.9140 C   0  0  0  0  0  0  0  0  0  0  0  0
   25.5198  -20.7894  -16.4548 O   0  0  0  0  0  0  0  0  0  0  0  0
   29.2578  -19.8156  -13.1308 O   0  0  0  0  0  0  0  0  0  0  0  0
   28.9138  -19.2789  -14.3672 C   0  0  0  0  0  0  0  0  0  0  0  0
   27.5817  -19.7183  -14.8533 C   0  0  2  0  0  0  0  0  0  0  0  0
   27.2546  -19.2888  -16.1686 N   0  0  0  0  0  0  0  0  0  0  0  0
   26.5390  -19.4638  -13.8256 C   0  0  0  0  0  0  0  0  0  0  0  0
   25.6167  -18.6270  -13.9117 O   0  0  0  0  0  0  0  0  0  0  0  0
   19.9694  -19.9452   -8.5307 O   0  0  0  0  0  0  0  0  0  0  0  0
   21.0466  -20.1305   -9.3935 C   0  0  0  0  0  0  0  0  0  0  0  0
   20.9289  -19.7120  -10.6950 C   0  0  0  0  0  0  0  0  0  0  0  0
   21.9725  -19.8747  -11.5896 C   0  0  0  0  0  0  0  0  0  0  0  0
   23.1512  -20.4661  -11.1711 C   0  0  0  0  0  0  0  0  0  0  0  0
   24.2541  -20.6308  -12.1422 C   0  0  0  0  0  0  0  0  0  0  0  0
   25.5628  -20.0668  -11.5855 C   0  0  2  0  0  0  0  0  0  0  0  0
   26.5734  -20.2271  -12.6342 N   0  0  0  0  0  0  0  0  0  0  0  0
   25.9543  -20.7218  -10.3394 C   0  0  0  0  0  0  0  0  0  0  0  0
   25.8015  -20.0822   -9.1267 O   0  0  0  0  0  0  0  0  0  0  0  0
   23.2506  -20.8799   -9.8607 C   0  0  0  0  0  0  0  0  0  0  0  0
   22.2142  -20.7137   -8.9882 C   0  0  0  0  0  0  0  0  0  0  0  0
   26.4346  -21.8740  -10.3538 O   0  0  0  0  0  0  0  0  0  0  0  0
  2  1  1  1
  2  3  1  0
  4  2  1  0
  4  9  1  0
  5  4  2  0
  6  7  1  0
  8 10  1  0
  8  7  1  1
  8  9  1  0
 10 19  1  0
 11 10  2  0
 13 12  1  0
 14 13  2  0
 15 14  1  0
 16 22  1  0
 16 15  2  0
 17 16  1  0
 18 17  1  6
 19 18  1  0
 20 18  1  0
 21 20  1  0
 22 23  2  0
 23 13  1  0
 24 20  2  0
M  END
$$$$
