ASY.pdb
     RDKit          3D

 24 24  0  0  1  0  0  0  0  0999 V2000
   29.2987  -24.5646  -19.0795 C   0  0  0  0  0  0  0  0  0  0  0  0
   30.1246  -23.9201  -17.9640 C   0  0  2  0  0  0  0  0  0  0  0  0
   30.8929  -24.9517  -17.3447 N   0  0  0  0  0  0  0  0  0  0  0  0
   29.1704  -23.3345  -16.9471 C   0  0  0  0  0  0  0  0  0  0  0  0
   28.6169  -24.0542  -16.0913 O   0  0  0  0  0  0  0  0  0  0  0  0
   27.9663  -19.1098  -17.0557 O   0  0  0  0  0  0  0  0  0  0  0  0
   28.3315  -19.8189  -15.9159 C   0  0  0  0  0  0  0  0  0  0  0  0
   28.0988  -21.2807  -16.0284 C   0  0  2  0  0  0  0  0  0  0  0  0
   28.9154  -21.9435  -16.9852 N   0  0  0  0  0  0  0  0  0  0  0  0
   26.6451  -21.5739  -16.1239 C   0  0  0  0  0  0  0  0  0  0  0  0
   26.0295  -21.8874  -17.1636 O   0  0  0  0  0  0  0  0  0  0  0  0
   18.3690  -22.4484  -13.1346 O   0  0  0  0  0  0  0  0  0  0  0  0
   19.7535  -22.3412  -13.2395 C   0  0  0  0  0  0  0  0  0  0  0  0
   20.3499  -21.1507  -12.9085 C   0  0  0  0  0  0  0  0  0  0  0  0
   21.7226  -20.9962  -12.9967 C   0  0  0  0  0  0  0  0  0  0  0  0
   22.5074  -22.0527  -13.4235 C   0  0  0  0  0  0  0  0  0  0  0  0
   23.9720  -21.8674  -13.5109 C   0  0  0  0  0  0  0  0  0  0  0  0
   24.4144  -21.6781  -14.9632 C   0  0  2  0  0  0  0  0  0  0  0  0
   25.8684  -21.4984  -14.9432 N   0  0  0  0  0  0  0  0  0  0  0  0
   23.7299  -20.5560  -15.6016 C   0  0  0  0  0  0  0  0  0  0  0  0
   22.6943  -20.7715  -16.4871 O   0  0  0  0  0  0  0  0  0  0  0  0
   21.8906  -23.2402  -13.7515 C   0  0  0  0  0  0  0  0  0  0  0  0
   20.5359  -23.3797  -13.6602 C   0  0  0  0  0  0  0  0  0  0  0  0
   24.0735  -19.3816  -15.3542 O   0  0  0  0  0  0  0  0  0  0  0  0
  2  1  1  6
  2  3  1  0
  4  2  1  0
  4  9  1  0
  5  4  2  0
  6  7  1  0
  8 10  1  0
  8  7  1  6
  8  9  1  0
 10 19  1  0
 11 10  2  0
 13 12  1  0
 14 13  2  0
 15 14  1  0
 16 22  1  0
 16 15  2  0
 17 16  1  0
 18 17  1  1
 19 18  1  0
 20 18  1  0
 21 20  1  0
 22 23  2  0
 23 13  1  0
 24 20  2  0
M  END
$$$$
