ASY.pdb
     RDKit          3D

 24 24  0  0  1  0  0  0  0  0999 V2000
   23.4163   -8.5466  -23.3632 C   0  0  0  0  0  0  0  0  0  0  0  0
   22.1542   -8.2217  -22.5610 C   0  0  2  0  0  0  0  0  0  0  0  0
   21.3000   -7.4414  -23.3975 N   0  0  0  0  0  0  0  0  0  0  0  0
   22.5573   -7.3978  -21.3584 C   0  0  0  0  0  0  0  0  0  0  0  0
   23.3091   -7.8641  -20.4785 O   0  0  0  0  0  0  0  0  0  0  0  0
   20.8176   -3.4212  -20.5340 O   0  0  0  0  0  0  0  0  0  0  0  0
   22.1548   -3.7813  -20.4023 C   0  0  0  0  0  0  0  0  0  0  0  0
   22.3553   -5.2298  -20.1463 C   0  0  2  0  0  0  0  0  0  0  0  0
   22.0614   -6.0774  -21.2494 N   0  0  0  0  0  0  0  0  0  0  0  0
   21.7290   -5.6257  -18.8582 C   0  0  0  0  0  0  0  0  0  0  0  0
   20.5806   -6.0941  -18.7173 O   0  0  0  0  0  0  0  0  0  0  0  0
   20.3371   -9.0578  -11.1041 O   0  0  0  0  0  0  0  0  0  0  0  0
   20.7760   -8.5981  -12.3431 C   0  0  0  0  0  0  0  0  0  0  0  0
   21.9598   -9.0787  -12.8434 C   0  0  0  0  0  0  0  0  0  0  0  0
   22.4369   -8.6515  -14.0706 C   0  0  0  0  0  0  0  0  0  0  0  0
   21.7146   -7.7284  -14.8056 C   0  0  0  0  0  0  0  0  0  0  0  0
   22.2414   -7.2847  -16.1143 C   0  0  0  0  0  0  0  0  0  0  0  0
   21.9327   -5.8059  -16.3561 C   0  0  2  0  0  0  0  0  0  0  0  0
   22.4833   -5.4676  -17.6711 N   0  0  0  0  0  0  0  0  0  0  0  0
   22.4721   -4.9545  -15.2981 C   0  0  0  0  0  0  0  0  0  0  0  0
   21.7146   -4.6405  -14.1887 O   0  0  0  0  0  0  0  0  0  0  0  0
   20.5283   -7.2573  -14.2869 C   0  0  0  0  0  0  0  0  0  0  0  0
   20.0687   -7.6865  -13.0756 C   0  0  0  0  0  0  0  0  0  0  0  0
   23.6306   -4.4971  -15.3828 O   0  0  0  0  0  0  0  0  0  0  0  0
  2  1  1  6
  2  3  1  0
  4  2  1  0
  4  9  1  0
  5  4  2  0
  6  7  1  0
  8 10  1  0
  8  7  1  6
  8  9  1  0
 10 19  1  0
 11 10  2  0
 13 12  1  0
 14 13  2  0
 15 14  1  0
 16 22  1  0
 16 15  2  0
 17 16  1  0
 18 17  1  1
 19 18  1  0
 20 18  1  0
 21 20  1  0
 22 23  2  0
 23 13  1  0
 24 20  2  0
M  END
$$$$
