ASY.pdb
     RDKit          3D

 24 24  0  0  1  0  0  0  0  0999 V2000
   23.6116  -18.5839  -17.6193 C   0  0  0  0  0  0  0  0  0  0  0  0
   23.7535  -19.8603  -16.7871 C   0  0  2  0  0  0  0  0  0  0  0  0
   24.2711  -20.8785  -17.6435 N   0  0  0  0  0  0  0  0  0  0  0  0
   22.3780  -20.2678  -16.3078 C   0  0  0  0  0  0  0  0  0  0  0  0
   21.5613  -20.8133  -17.0773 O   0  0  0  0  0  0  0  0  0  0  0  0
   20.9639  -19.1128  -12.3592 O   0  0  0  0  0  0  0  0  0  0  0  0
   20.7094  -20.3572  -12.9266 C   0  0  0  0  0  0  0  0  0  0  0  0
   20.7652  -20.3539  -14.4101 C   0  0  2  0  0  0  0  0  0  0  0  0
   22.0326  -20.0165  -14.9592 N   0  0  0  0  0  0  0  0  0  0  0  0
   19.6106  -19.6090  -14.9760 C   0  0  0  0  0  0  0  0  0  0  0  0
   19.6402  -18.4432  -15.4214 O   0  0  0  0  0  0  0  0  0  0  0  0
   19.6254  -20.0385  -21.4100 O   0  0  0  0  0  0  0  0  0  0  0  0
   18.8569  -20.1302  -20.2523 C   0  0  0  0  0  0  0  0  0  0  0  0
   19.2584  -20.9891  -19.2604 C   0  0  0  0  0  0  0  0  0  0  0  0
   18.5273  -21.1145  -18.0918 C   0  0  0  0  0  0  0  0  0  0  0  0
   17.3765  -20.3665  -17.9169 C   0  0  0  0  0  0  0  0  0  0  0  0
   16.6096  -20.5151  -16.6612 C   0  0  0  0  0  0  0  0  0  0  0  0
   17.1646  -19.5988  -15.5689 C   0  0  2  0  0  0  0  0  0  0  0  0
   18.3545  -20.2593  -15.0260 N   0  0  0  0  0  0  0  0  0  0  0  0
   16.1716  -19.3171  -14.5347 C   0  0  0  0  0  0  0  0  0  0  0  0
   14.9766  -18.7046  -14.8507 O   0  0  0  0  0  0  0  0  0  0  0  0
   16.9894  -19.5096  -18.9239 C   0  0  0  0  0  0  0  0  0  0  0  0
   17.7191  -19.3951  -20.0716 C   0  0  0  0  0  0  0  0  0  0  0  0
   16.3908  -19.6276  -13.3456 O   0  0  0  0  0  0  0  0  0  0  0  0
  2  1  1  6
  2  3  1  0
  4  2  1  0
  4  9  1  0
  5  4  2  0
  6  7  1  0
  8 10  1  0
  8  7  1  1
  8  9  1  0
 10 19  1  0
 11 10  2  0
 13 12  1  0
 14 13  2  0
 15 14  1  0
 16 22  1  0
 16 15  2  0
 17 16  1  0
 18 17  1  6
 19 18  1  0
 20 18  1  0
 21 20  1  0
 22 23  2  0
 23 13  1  0
 24 20  2  0
M  END
$$$$
