ENI.pdb
     RDKit          3D

 26 25  0  0  1  0  0  0  0  0999 V2000
   24.7360  -19.9891  -13.0631 N   0  0  0  0  0  0  0  0  0  0  0  0
   23.8339  -20.5980  -12.1302 C   0  0  1  0  0  0  0  0  0  0  0  0
   22.7990  -21.4673  -12.8063 C   0  0  0  0  0  0  0  0  0  0  0  0
   21.5432  -21.5799  -12.0053 C   0  0  0  0  0  0  0  0  0  0  0  0
   20.7623  -20.3242  -12.1041 C   0  0  0  0  0  0  0  0  0  0  0  0
   20.2675  -19.9952  -13.2000 O   0  0  0  0  0  0  0  0  0  0  0  0
   24.6083  -21.4334  -11.1879 C   0  0  0  0  0  0  0  0  0  0  0  0
   24.7687  -22.6579  -11.3856 O   0  0  0  0  0  0  0  0  0  0  0  0
   20.5886  -19.5187  -10.9612 O   0  0  0  0  0  0  0  0  0  0  0  0
   29.2643  -21.3087   -9.5230 N   0  0  0  0  0  0  0  0  0  0  0  0
   28.8707  -20.6384  -10.7253 C   0  0  0  0  0  0  0  0  0  0  0  0
   29.7613  -20.3117  -11.5404 O   0  0  0  0  0  0  0  0  0  0  0  0
   27.4304  -20.3732  -10.9289 C   0  0  0  0  0  0  0  0  0  0  0  0
   26.6068  -20.9199   -9.8155 C   0  0  2  0  0  0  0  0  0  0  0  0
   25.1808  -20.8423  -10.0397 N   0  0  0  0  0  0  0  0  0  0  0  0
   26.9541  -20.1392   -8.5815 C   0  0  0  0  0  0  0  0  0  0  0  0
   26.6054  -18.9360   -8.4878 O   0  0  0  0  0  0  0  0  0  0  0  0
   27.3569  -20.8675   -3.1916 C   0  0  0  0  0  0  0  0  0  0  0  0
   28.5565  -20.2970   -3.9423 C   0  0  0  0  0  0  0  0  0  0  0  0
   28.5660  -20.9038   -5.3128 C   0  0  2  0  0  0  0  0  0  0  0  0
   29.9848  -21.1496   -5.7987 C   0  0  0  0  0  0  0  0  0  0  0  0
   27.7845  -20.0620   -6.2669 C   0  0  2  0  0  0  0  0  0  0  0  0
   27.6674  -20.7661   -7.5430 N   0  0  0  0  0  0  0  0  0  0  0  0
   28.3716  -18.7277   -6.4658 C   0  0  0  0  0  0  0  0  0  0  0  0
   28.1624  -17.6101   -5.6978 O   0  0  0  0  0  0  0  0  0  0  0  0
   29.1661  -18.5695   -7.4588 O   0  0  0  0  0  0  0  0  0  0  0  0
  2  7  1  0
  2  1  1  6
  3  2  1  0
  4  3  1  0
  5  4  1  0
  5  6  2  0
  7  8  2  0
  9  5  1  0
 10 11  1  0
 11 13  1  0
 12 11  2  0
 14 13  1  6
 15 14  1  0
 15  7  1  0
 16 17  2  0
 16 14  1  0
 19 18  1  0
 19 20  1  0
 20 22  1  0
 20 21  1  6
 22 24  1  0
 22 23  1  6
 23 16  1  0
 24 25  1  0
 26 24  2  0
M  END
$$$$
