ENI.pdb
     RDKit          3D

 26 25  0  0  1  0  0  0  0  0999 V2000
   25.8981  -17.4441  -19.1844 N   0  0  0  0  0  0  0  0  0  0  0  0
   26.1812  -18.1234  -17.9543 C   0  0  1  0  0  0  0  0  0  0  0  0
   27.4251  -17.5994  -17.2748 C   0  0  0  0  0  0  0  0  0  0  0  0
   28.3829  -18.6914  -16.9262 C   0  0  0  0  0  0  0  0  0  0  0  0
   28.9398  -19.2930  -18.1609 C   0  0  0  0  0  0  0  0  0  0  0  0
   29.6027  -18.5835  -18.9428 O   0  0  0  0  0  0  0  0  0  0  0  0
   25.0351  -17.9529  -17.0361 C   0  0  0  0  0  0  0  0  0  0  0  0
   24.5676  -16.8207  -16.7835 O   0  0  0  0  0  0  0  0  0  0  0  0
   28.7143  -20.6563  -18.4360 O   0  0  0  0  0  0  0  0  0  0  0  0
   21.1857  -18.5169  -13.9419 N   0  0  0  0  0  0  0  0  0  0  0  0
   20.8732  -18.7654  -15.3167 C   0  0  0  0  0  0  0  0  0  0  0  0
   19.6702  -18.7755  -15.6586 O   0  0  0  0  0  0  0  0  0  0  0  0
   21.9967  -18.9955  -16.2501 C   0  0  0  0  0  0  0  0  0  0  0  0
   23.3116  -18.9396  -15.5538 C   0  0  2  0  0  0  0  0  0  0  0  0
   24.4525  -19.0876  -16.4291 N   0  0  0  0  0  0  0  0  0  0  0  0
   23.3237  -20.0448  -14.5383 C   0  0  0  0  0  0  0  0  0  0  0  0
   23.2613  -21.2402  -14.9192 O   0  0  0  0  0  0  0  0  0  0  0  0
   26.9581  -20.3207  -10.8954 C   0  0  0  0  0  0  0  0  0  0  0  0
   25.8760  -20.5440  -11.9476 C   0  0  0  0  0  0  0  0  0  0  0  0
   24.5559  -20.5926  -11.2393 C   0  0  2  0  0  0  0  0  0  0  0  0
   24.5659  -21.6221  -10.1214 C   0  0  0  0  0  0  0  0  0  0  0  0
   23.4460  -20.8294  -12.2097 C   0  0  2  0  0  0  0  0  0  0  0  0
   23.4049  -19.7273  -13.1698 N   0  0  0  0  0  0  0  0  0  0  0  0
   22.1386  -20.9922  -11.5550 C   0  0  0  0  0  0  0  0  0  0  0  0
   21.5267  -22.1720  -11.2137 O   0  0  0  0  0  0  0  0  0  0  0  0
   21.4826  -19.9304  -11.2645 O   0  0  0  0  0  0  0  0  0  0  0  0
  2  7  1  0
  2  1  1  6
  3  2  1  0
  4  3  1  0
  5  4  1  0
  5  6  2  0
  7  8  2  0
  9  5  1  0
 10 11  1  0
 11 13  1  0
 12 11  2  0
 14 13  1  6
 15 14  1  0
 15  7  1  0
 16 17  2  0
 16 14  1  0
 19 18  1  0
 19 20  1  0
 20 22  1  0
 20 21  1  1
 22 24  1  0
 22 23  1  6
 23 16  1  0
 24 25  1  0
 26 24  2  0
M  END
$$$$
