ENI.pdb
     RDKit          3D

 26 25  0  0  1  0  0  0  0  0999 V2000
   20.7526  -11.3801  -16.0159 N   0  0  0  0  0  0  0  0  0  0  0  0
   19.7526  -10.4108  -16.3554 C   0  0  1  0  0  0  0  0  0  0  0  0
   18.4191  -11.0424  -16.6820 C   0  0  0  0  0  0  0  0  0  0  0  0
   17.7719  -11.6520  -15.4816 C   0  0  0  0  0  0  0  0  0  0  0  0
   16.5015  -12.3104  -15.8677 C   0  0  0  0  0  0  0  0  0  0  0  0
   15.4315  -11.6770  -15.7780 O   0  0  0  0  0  0  0  0  0  0  0  0
   19.5704   -9.4883  -15.2146 C   0  0  0  0  0  0  0  0  0  0  0  0
   19.4795   -9.9144  -14.0422 O   0  0  0  0  0  0  0  0  0  0  0  0
   16.5177  -13.6411  -16.3304 O   0  0  0  0  0  0  0  0  0  0  0  0
   22.1171   -5.3448  -13.2362 N   0  0  0  0  0  0  0  0  0  0  0  0
   21.5399   -5.9683  -14.3885 C   0  0  0  0  0  0  0  0  0  0  0  0
   22.3002   -6.5634  -15.1835 O   0  0  0  0  0  0  0  0  0  0  0  0
   20.0755   -5.8693  -14.5672 C   0  0  0  0  0  0  0  0  0  0  0  0
   19.4026   -7.1772  -14.3360 C   0  0  2  0  0  0  0  0  0  0  0  0
   19.4969   -8.0969  -15.4473 N   0  0  0  0  0  0  0  0  0  0  0  0
   17.9562   -6.8892  -14.0568 C   0  0  0  0  0  0  0  0  0  0  0  0
   17.1486   -6.7770  -15.0124 O   0  0  0  0  0  0  0  0  0  0  0  0
   15.3548   -8.4610   -9.4137 C   0  0  0  0  0  0  0  0  0  0  0  0
   16.0449   -7.3768  -10.2359 C   0  0  0  0  0  0  0  0  0  0  0  0
   15.4937   -7.4417  -11.6282 C   0  0  2  0  0  0  0  0  0  0  0  0
   15.6412   -8.8350  -12.2168 C   0  0  0  0  0  0  0  0  0  0  0  0
   16.1218   -6.3986  -12.4924 C   0  0  2  0  0  0  0  0  0  0  0  0
   17.5223   -6.7483  -12.7256 N   0  0  0  0  0  0  0  0  0  0  0  0
   16.0156   -5.0454  -11.9248 C   0  0  0  0  0  0  0  0  0  0  0  0
   14.8815   -4.2804  -11.8192 O   0  0  0  0  0  0  0  0  0  0  0  0
   17.0864   -4.5030  -11.4760 O   0  0  0  0  0  0  0  0  0  0  0  0
  2  7  1  0
  2  1  1  1
  3  2  1  0
  4  3  1  0
  5  4  1  0
  5  6  2  0
  7  8  2  0
  9  5  1  0
 10 11  1  0
 11 13  1  0
 12 11  2  0
 14 13  1  6
 15 14  1  0
 15  7  1  0
 16 17  2  0
 16 14  1  0
 19 18  1  0
 19 20  1  0
 20 22  1  0
 20 21  1  6
 22 24  1  0
 22 23  1  1
 23 16  1  0
 24 25  1  0
 26 24  2  0
M  END
$$$$
