ENI.pdb
     RDKit          3D

 26 25  0  0  1  0  0  0  0  0999 V2000
   17.5428  -11.8060  -18.3772 N   0  0  0  0  0  0  0  0  0  0  0  0
   17.0228  -10.7133  -17.6089 C   0  0  1  0  0  0  0  0  0  0  0  0
   16.5463  -11.1411  -16.2401 C   0  0  0  0  0  0  0  0  0  0  0  0
   15.3375  -12.0160  -16.3090 C   0  0  0  0  0  0  0  0  0  0  0  0
   14.9095  -12.4009  -14.9433 C   0  0  0  0  0  0  0  0  0  0  0  0
   14.8901  -13.6059  -14.6243 O   0  0  0  0  0  0  0  0  0  0  0  0
   18.0822   -9.6956  -17.4424 C   0  0  0  0  0  0  0  0  0  0  0  0
   19.2929  -10.0091  -17.4585 O   0  0  0  0  0  0  0  0  0  0  0  0
   14.5304  -11.4031  -14.0235 O   0  0  0  0  0  0  0  0  0  0  0  0
   20.6990   -5.4553  -17.2896 N   0  0  0  0  0  0  0  0  0  0  0  0
   19.3730   -4.9719  -17.5299 C   0  0  0  0  0  0  0  0  0  0  0  0
   19.2219   -3.7559  -17.7805 O   0  0  0  0  0  0  0  0  0  0  0  0
   18.2609   -5.9442  -17.4667 C   0  0  0  0  0  0  0  0  0  0  0  0
   18.7495   -7.3227  -17.1873 C   0  0  2  0  0  0  0  0  0  0  0  0
   17.7259   -8.3407  -17.2612 N   0  0  0  0  0  0  0  0  0  0  0  0
   19.3364   -7.3143  -15.8058 C   0  0  0  0  0  0  0  0  0  0  0  0
   18.5806   -7.4215  -14.8082 O   0  0  0  0  0  0  0  0  0  0  0  0
   21.6072   -9.6750  -12.1793 C   0  0  0  0  0  0  0  0  0  0  0  0
   22.6601   -8.8388  -12.9005 C   0  0  0  0  0  0  0  0  0  0  0  0
   22.1565   -8.5699  -14.2864 C   0  0  2  0  0  0  0  0  0  0  0  0
   23.3016   -8.4635  -15.2798 C   0  0  0  0  0  0  0  0  0  0  0  0
   21.2846   -7.3579  -14.3039 C   0  0  2  0  0  0  0  0  0  0  0  0
   20.7285   -7.1862  -15.6453 N   0  0  0  0  0  0  0  0  0  0  0  0
   21.9903   -6.1392  -13.8781 C   0  0  0  0  0  0  0  0  0  0  0  0
   22.2878   -5.0444  -14.6499 O   0  0  0  0  0  0  0  0  0  0  0  0
   22.3798   -6.0726  -12.6591 O   0  0  0  0  0  0  0  0  0  0  0  0
  2  7  1  0
  2  1  1  1
  3  2  1  0
  4  3  1  0
  5  4  1  0
  5  6  2  0
  7  8  2  0
  9  5  1  0
 10 11  1  0
 11 13  1  0
 12 11  2  0
 14 13  1  1
 15 14  1  0
 15  7  1  0
 16 17  2  0
 16 14  1  0
 19 18  1  0
 19 20  1  0
 20 22  1  0
 20 21  1  6
 22 24  1  0
 22 23  1  6
 23 16  1  0
 24 25  1  0
 26 24  2  0
M  END
$$$$
