ENI.pdb
     RDKit          3D

 26 25  0  0  1  0  0  0  0  0999 V2000
   17.4585  -12.2610  -15.1367 N   0  0  0  0  0  0  0  0  0  0  0  0
   17.7557  -11.9999  -16.5145 C   0  0  1  0  0  0  0  0  0  0  0  0
   16.6294  -12.4031  -17.4379 C   0  0  0  0  0  0  0  0  0  0  0  0
   15.2977  -12.3510  -16.7632 C   0  0  0  0  0  0  0  0  0  0  0  0
   14.2306  -12.7467  -17.7125 C   0  0  0  0  0  0  0  0  0  0  0  0
   14.0474  -13.9549  -17.9591 O   0  0  0  0  0  0  0  0  0  0  0  0
   18.0107  -10.5537  -16.6856 C   0  0  0  0  0  0  0  0  0  0  0  0
   18.3701  -10.0829  -17.7871 O   0  0  0  0  0  0  0  0  0  0  0  0
   13.4375  -11.7554  -18.3237 O   0  0  0  0  0  0  0  0  0  0  0  0
   18.4576   -5.6168  -16.1386 N   0  0  0  0  0  0  0  0  0  0  0  0
   17.1281   -5.9937  -15.7646 C   0  0  0  0  0  0  0  0  0  0  0  0
   16.2581   -5.0985  -15.6869 O   0  0  0  0  0  0  0  0  0  0  0  0
   16.8656   -7.4231  -15.4924 C   0  0  0  0  0  0  0  0  0  0  0  0
   18.0697   -8.2620  -15.7444 C   0  0  2  0  0  0  0  0  0  0  0  0
   17.8466   -9.6815  -15.5865 N   0  0  0  0  0  0  0  0  0  0  0  0
   19.1292   -7.8198  -14.7776 C   0  0  0  0  0  0  0  0  0  0  0  0
   18.9755   -8.0275  -13.5483 O   0  0  0  0  0  0  0  0  0  0  0  0
   23.1244  -10.3345  -14.8048 C   0  0  0  0  0  0  0  0  0  0  0  0
   21.9968   -9.3824  -14.4176 C   0  0  0  0  0  0  0  0  0  0  0  0
   22.4745   -7.9845  -14.6709 C   0  0  2  0  0  0  0  0  0  0  0  0
   23.7669   -7.6981  -13.9245 C   0  0  0  0  0  0  0  0  0  0  0  0
   21.4058   -6.9950  -14.3417 C   0  0  2  0  0  0  0  0  0  0  0  0
   20.2837   -7.1769  -15.2614 N   0  0  0  0  0  0  0  0  0  0  0  0
   21.8831   -5.6039  -14.3789 C   0  0  0  0  0  0  0  0  0  0  0  0
   22.4547   -4.8987  -13.3500 O   0  0  0  0  0  0  0  0  0  0  0  0
   21.7598   -4.9621  -15.4812 O   0  0  0  0  0  0  0  0  0  0  0  0
  2  7  1  0
  2  1  1  1
  3  2  1  0
  4  3  1  0
  5  4  1  0
  5  6  2  0
  7  8  2  0
  9  5  1  0
 10 11  1  0
 11 13  1  0
 12 11  2  0
 14 13  1  1
 15 14  1  0
 15  7  1  0
 16 17  2  0
 16 14  1  0
 19 18  1  0
 19 20  1  0
 20 22  1  0
 20 21  1  1
 22 24  1  0
 22 23  1  6
 23 16  1  0
 24 25  1  0
 26 24  2  0
M  END
$$$$
