ENI.pdb
     RDKit          3D

 26 25  0  0  1  0  0  0  0  0999 V2000
   20.0993  -11.9297  -17.0622 N   0  0  0  0  0  0  0  0  0  0  0  0
   21.0340  -10.8628  -17.2690 C   0  0  1  0  0  0  0  0  0  0  0  0
   21.3728  -10.6625  -18.7280 C   0  0  0  0  0  0  0  0  0  0  0  0
   20.1581  -10.4233  -19.5639 C   0  0  0  0  0  0  0  0  0  0  0  0
   20.5354  -10.3269  -20.9939 C   0  0  0  0  0  0  0  0  0  0  0  0
   21.0920  -11.2956  -21.5471 O   0  0  0  0  0  0  0  0  0  0  0  0
   20.4554   -9.6081  -16.7429 C   0  0  0  0  0  0  0  0  0  0  0  0
   19.2406   -9.3445  -16.8810 O   0  0  0  0  0  0  0  0  0  0  0  0
   20.2614   -9.1447  -21.7098 O   0  0  0  0  0  0  0  0  0  0  0  0
   19.3758   -8.9026  -13.6226 N   0  0  0  0  0  0  0  0  0  0  0  0
   20.3356   -7.9695  -13.1150 C   0  0  0  0  0  0  0  0  0  0  0  0
   20.4320   -7.8338  -11.8755 O   0  0  0  0  0  0  0  0  0  0  0  0
   21.1560   -7.2217  -14.0917 C   0  0  0  0  0  0  0  0  0  0  0  0
   20.7230   -7.4859  -15.4917 C   0  0  2  0  0  0  0  0  0  0  0  0
   21.2864   -8.6850  -16.0700 N   0  0  0  0  0  0  0  0  0  0  0  0
   21.1363   -6.3011  -16.3153 C   0  0  0  0  0  0  0  0  0  0  0  0
   22.3270   -6.1972  -16.7020 O   0  0  0  0  0  0  0  0  0  0  0  0
   20.1606   -3.4719  -21.1282 C   0  0  0  0  0  0  0  0  0  0  0  0
   20.5197   -3.1581  -19.6788 C   0  0  0  0  0  0  0  0  0  0  0  0
   20.1923   -4.3680  -18.8569 C   0  0  2  0  0  0  0  0  0  0  0  0
   18.7190   -4.7258  -18.9623 C   0  0  0  0  0  0  0  0  0  0  0  0
   20.6222   -4.1743  -17.4401 C   0  0  2  0  0  0  0  0  0  0  0  0
   20.1830   -5.3198  -16.6446 N   0  0  0  0  0  0  0  0  0  0  0  0
   20.1225   -2.9193  -16.8572 C   0  0  0  0  0  0  0  0  0  0  0  0
   19.1148   -2.7797  -15.9364 O   0  0  0  0  0  0  0  0  0  0  0  0
   20.6726   -1.8262  -17.2377 O   0  0  0  0  0  0  0  0  0  0  0  0
  2  7  1  0
  2  1  1  6
  3  2  1  0
  4  3  1  0
  5  4  1  0
  5  6  2  0
  7  8  2  0
  9  5  1  0
 10 11  1  0
 11 13  1  0
 12 11  2  0
 14 13  1  1
 15 14  1  0
 15  7  1  0
 16 17  2  0
 16 14  1  0
 19 18  1  0
 19 20  1  0
 20 22  1  0
 20 21  1  1
 22 24  1  0
 22 23  1  1
 23 16  1  0
 24 25  1  0
 26 24  2  0
M  END
$$$$
