ENI.pdb
     RDKit          3D

 26 25  0  0  1  0  0  0  0  0999 V2000
   18.8556  -15.8065  -15.1927 N   0  0  0  0  0  0  0  0  0  0  0  0
   20.2537  -15.9842  -15.4542 C   0  0  1  0  0  0  0  0  0  0  0  0
   20.5314  -17.1758  -16.3413 C   0  0  0  0  0  0  0  0  0  0  0  0
   19.3256  -17.5995  -17.1146 C   0  0  0  0  0  0  0  0  0  0  0  0
   19.2100  -19.0770  -17.1076 C   0  0  0  0  0  0  0  0  0  0  0  0
   19.4673  -19.7163  -18.1465 O   0  0  0  0  0  0  0  0  0  0  0  0
   20.7768  -14.7708  -16.1173 C   0  0  0  0  0  0  0  0  0  0  0  0
   21.9810  -14.6751  -16.4413 O   0  0  0  0  0  0  0  0  0  0  0  0
   18.8118  -19.7403  -15.9301 O   0  0  0  0  0  0  0  0  0  0  0  0
   19.2148   -9.4331  -18.5979 N   0  0  0  0  0  0  0  0  0  0  0  0
   19.8665  -10.7054  -18.6758 C   0  0  0  0  0  0  0  0  0  0  0  0
   20.8689  -10.8135  -19.4158 O   0  0  0  0  0  0  0  0  0  0  0  0
   19.3114  -11.8164  -17.8734 C   0  0  0  0  0  0  0  0  0  0  0  0
   20.3763  -12.5449  -17.1302 C   0  0  2  0  0  0  0  0  0  0  0  0
   19.9037  -13.6950  -16.3930 N   0  0  0  0  0  0  0  0  0  0  0  0
   20.9977  -11.5688  -16.1741 C   0  0  0  0  0  0  0  0  0  0  0  0
   20.4729  -11.3808  -15.0484 O   0  0  0  0  0  0  0  0  0  0  0  0
   25.9483  -12.0086  -15.0591 C   0  0  0  0  0  0  0  0  0  0  0  0
   24.4454  -11.7600  -15.1453 C   0  0  0  0  0  0  0  0  0  0  0  0
   24.2420  -10.3121  -15.4751 C   0  0  2  0  0  0  0  0  0  0  0  0
   24.9623   -9.4129  -14.4841 C   0  0  0  0  0  0  0  0  0  0  0  0
   22.7863   -9.9924  -15.5670 C   0  0  2  0  0  0  0  0  0  0  0  0
   22.1624  -10.8753  -16.5516 N   0  0  0  0  0  0  0  0  0  0  0  0
   22.5302   -8.5830  -15.9024 C   0  0  0  0  0  0  0  0  0  0  0  0
   22.2108   -7.5714  -15.0320 O   0  0  0  0  0  0  0  0  0  0  0  0
   22.6068   -8.2416  -17.1351 O   0  0  0  0  0  0  0  0  0  0  0  0
  2  7  1  0
  2  1  1  6
  3  2  1  0
  4  3  1  0
  5  4  1  0
  5  6  2  0
  7  8  2  0
  9  5  1  0
 10 11  1  0
 11 13  1  0
 12 11  2  0
 14 13  1  1
 15 14  1  0
 15  7  1  0
 16 17  2  0
 16 14  1  0
 19 18  1  0
 19 20  1  0
 20 22  1  0
 20 21  1  1
 22 24  1  0
 22 23  1  6
 23 16  1  0
 24 25  1  0
 26 24  2  0
M  END
$$$$
