ENI.pdb
     RDKit          3D

 26 25  0  0  1  0  0  0  0  0999 V2000
   14.6001  -10.8992  -16.2542 N   0  0  0  0  0  0  0  0  0  0  0  0
   15.7954  -10.8722  -15.4636 C   0  0  1  0  0  0  0  0  0  0  0  0
   16.7548  -11.9830  -15.8236 C   0  0  0  0  0  0  0  0  0  0  0  0
   17.0760  -12.8552  -14.6542 C   0  0  0  0  0  0  0  0  0  0  0  0
   17.0994  -14.2771  -15.0714 C   0  0  0  0  0  0  0  0  0  0  0  0
   16.9723  -14.5636  -16.2780 O   0  0  0  0  0  0  0  0  0  0  0  0
   16.4771   -9.5762  -15.6669 C   0  0  0  0  0  0  0  0  0  0  0  0
   16.7862   -9.1769  -16.8111 O   0  0  0  0  0  0  0  0  0  0  0  0
   17.2648  -15.2861  -14.1019 O   0  0  0  0  0  0  0  0  0  0  0  0
   14.7060   -4.9709  -14.7628 N   0  0  0  0  0  0  0  0  0  0  0  0
   15.7037   -5.8937  -15.2130 C   0  0  0  0  0  0  0  0  0  0  0  0
   15.6541   -6.2883  -16.3987 O   0  0  0  0  0  0  0  0  0  0  0  0
   16.7342   -6.3243  -14.2441 C   0  0  0  0  0  0  0  0  0  0  0  0
   17.4846   -7.5148  -14.7305 C   0  0  2  0  0  0  0  0  0  0  0  0
   16.7881   -8.7687  -14.5503 N   0  0  0  0  0  0  0  0  0  0  0  0
   18.7822   -7.5600  -13.9774 C   0  0  0  0  0  0  0  0  0  0  0  0
   18.7953   -7.9504  -12.7835 O   0  0  0  0  0  0  0  0  0  0  0  0
   23.8847   -9.8732  -13.7015 C   0  0  0  0  0  0  0  0  0  0  0  0
   23.1833   -8.5729  -13.3206 C   0  0  0  0  0  0  0  0  0  0  0  0
   21.9501   -8.4571  -14.1646 C   0  0  2  0  0  0  0  0  0  0  0  0
   22.2799   -8.5698  -15.6438 C   0  0  0  0  0  0  0  0  0  0  0  0
   21.2123   -7.1979  -13.8490 C   0  0  2  0  0  0  0  0  0  0  0  0
   19.9700   -7.1638  -14.6195 N   0  0  0  0  0  0  0  0  0  0  0  0
   22.0103   -5.9883  -14.1031 C   0  0  0  0  0  0  0  0  0  0  0  0
   22.8576   -5.3582  -13.2269 O   0  0  0  0  0  0  0  0  0  0  0  0
   21.9179   -5.4472  -15.2611 O   0  0  0  0  0  0  0  0  0  0  0  0
  2  7  1  0
  2  1  1  6
  3  2  1  0
  4  3  1  0
  5  4  1  0
  5  6  2  0
  7  8  2  0
  9  5  1  0
 10 11  1  0
 11 13  1  0
 12 11  2  0
 14 13  1  1
 15 14  1  0
 15  7  1  0
 16 17  2  0
 16 14  1  0
 19 18  1  0
 19 20  1  0
 20 22  1  0
 20 21  1  6
 22 24  1  0
 22 23  1  6
 23 16  1  0
 24 25  1  0
 26 24  2  0
M  END
$$$$
