ENI.pdb
     RDKit          3D

 26 25  0  0  1  0  0  0  0  0999 V2000
   26.2413  -17.1375  -15.3365 N   0  0  0  0  0  0  0  0  0  0  0  0
   24.9053  -17.4758  -14.9422 C   0  0  1  0  0  0  0  0  0  0  0  0
   23.9909  -17.7016  -16.1241 C   0  0  0  0  0  0  0  0  0  0  0  0
   24.7305  -18.1869  -17.3278 C   0  0  0  0  0  0  0  0  0  0  0  0
   24.3167  -17.4161  -18.5241 C   0  0  0  0  0  0  0  0  0  0  0  0
   25.1592  -17.1526  -19.4044 O   0  0  0  0  0  0  0  0  0  0  0  0
   24.9417  -18.7116  -14.1315 C   0  0  0  0  0  0  0  0  0  0  0  0
   23.8906  -19.2490  -13.7182 O   0  0  0  0  0  0  0  0  0  0  0  0
   22.9795  -16.9912  -18.6524 O   0  0  0  0  0  0  0  0  0  0  0  0
   27.8849  -21.7987  -15.9188 N   0  0  0  0  0  0  0  0  0  0  0  0
   26.8337  -21.8948  -14.9516 C   0  0  0  0  0  0  0  0  0  0  0  0
   25.7030  -22.2620  -15.3398 O   0  0  0  0  0  0  0  0  0  0  0  0
   27.1520  -21.5526  -13.5488 C   0  0  0  0  0  0  0  0  0  0  0  0
   26.2371  -20.5056  -13.0160 C   0  0  2  0  0  0  0  0  0  0  0  0
   26.1853  -19.3016  -13.8144 N   0  0  0  0  0  0  0  0  0  0  0  0
   26.7136  -20.1604  -11.6352 C   0  0  0  0  0  0  0  0  0  0  0  0
   27.9460  -20.0941  -11.4008 O   0  0  0  0  0  0  0  0  0  0  0  0
   27.8370  -18.0288   -7.5465 C   0  0  0  0  0  0  0  0  0  0  0  0
   27.5892  -19.0968   -8.6076 C   0  0  0  0  0  0  0  0  0  0  0  0
   26.2981  -19.7803   -8.2722 C   0  0  2  0  0  0  0  0  0  0  0  0
   26.3879  -20.5096   -6.9419 C   0  0  0  0  0  0  0  0  0  0  0  0
   25.8787  -20.6874   -9.3817 C   0  0  2  0  0  0  0  0  0  0  0  0
   25.7721  -19.9149  -10.6186 N   0  0  0  0  0  0  0  0  0  0  0  0
   24.6163  -21.3888   -9.1010 C   0  0  0  0  0  0  0  0  0  0  0  0
   23.4126  -21.2089   -9.7346 O   0  0  0  0  0  0  0  0  0  0  0  0
   24.6181  -22.2657   -8.1665 O   0  0  0  0  0  0  0  0  0  0  0  0
  2  7  1  0
  2  1  1  6
  3  2  1  0
  4  3  1  0
  5  4  1  0
  5  6  2  0
  7  8  2  0
  9  5  1  0
 10 11  1  0
 11 13  1  0
 12 11  2  0
 14 13  1  6
 15 14  1  0
 15  7  1  0
 16 17  2  0
 16 14  1  0
 19 18  1  0
 19 20  1  0
 20 22  1  0
 20 21  1  1
 22 24  1  0
 22 23  1  6
 23 16  1  0
 24 25  1  0
 26 24  2  0
M  END
$$$$
