VFP.pdb
     RDKit          3D

 26 27  0  0  1  0  0  0  0  0999 V2000
   10.7549  -19.1110   22.9288 C   0  0  0  0  0  0  0  0  0  0  0  0
   11.6368  -18.3614   21.9858 C   0  0  1  0  0  0  0  0  0  0  0  0
   12.0876  -19.2851   20.8810 C   0  0  0  0  0  0  0  0  0  0  0  0
   11.0066  -17.0994   21.4436 C   0  0  2  0  0  0  0  0  0  0  0  0
   11.9883  -16.4346   20.6044 N   0  0  0  0  0  0  0  0  0  0  0  0
   10.6354  -16.2271   22.5864 C   0  0  0  0  0  0  0  0  0  0  0  0
   11.5546  -15.5649   23.1321 O   0  0  0  0  0  0  0  0  0  0  0  0
    9.2768  -16.1311   23.0656 N   0  0  0  0  0  0  0  0  0  0  0  0
    9.0036  -15.2871   24.1741 C   0  0  1  0  0  0  0  0  0  0  0  0
    7.6334  -14.6769   23.9189 C   0  0  0  0  0  0  0  0  0  0  0  0
    7.1821  -13.7244   24.9184 C   0  0  0  0  0  0  0  0  0  0  0  0
    7.5365  -12.3984   24.8382 C   0  0  0  0  0  0  0  0  0  0  0  0
    7.1289  -11.4578   25.7681 C   0  0  0  0  0  0  0  0  0  0  0  0
    6.3353  -11.8328   26.8291 C   0  0  0  0  0  0  0  0  0  0  0  0
    5.9703  -13.1525   26.9273 C   0  0  0  0  0  0  0  0  0  0  0  0
    6.3766  -14.0859   26.0017 C   0  0  0  0  0  0  0  0  0  0  0  0
    9.1720  -15.8152   25.5156 C   0  0  0  0  0  0  0  0  0  0  0  0
    8.6995  -16.9931   25.6862 O   0  0  0  0  0  0  0  0  0  0  0  0
    9.7787  -15.2182   26.6521 N   0  0  0  0  0  0  0  0  0  0  0  0
   10.2223  -13.8157   26.5981 C   0  0  0  0  0  0  0  0  0  0  0  0
   10.4989  -13.4349   28.0442 C   0  0  0  0  0  0  0  0  0  0  0  0
    9.7953  -14.5009   28.8501 C   0  0  0  0  0  0  0  0  0  0  0  0
   10.0985  -15.7156   27.9310 C   0  0  1  0  0  0  0  0  0  0  0  0
    9.4078  -16.8872   28.4467 C   0  0  0  0  0  0  0  0  0  0  0  0
    9.6512  -17.6459   29.5497 O   0  0  0  0  0  0  0  0  0  0  0  0
    8.3984  -17.2736   27.7404 O   0  0  0  0  0  0  0  0  0  0  0  0
  2  4  1  0
  2  1  1  1
  3  2  1  0
  4  5  1  6
  6  4  1  0
  6  7  2  0
  8  6  1  0
  9  8  1  0
  9 10  1  6
 11 10  1  0
 11 12  2  0
 13 12  1  0
 14 13  2  0
 15 16  2  0
 15 14  1  0
 16 11  1  0
 17 19  1  0
 17  9  1  0
 18 17  2  0
 19 20  1  0
 21 20  1  0
 22 23  1  0
 22 21  1  0
 23 19  1  0
 23 24  1  1
 25 24  1  0
 26 24  2  0
M  END
$$$$
