VFP.pdb
     RDKit          3D

 26 27  0  0  1  0  0  0  0  0999 V2000
   10.6825  -19.3033   20.4770 C   0  0  0  0  0  0  0  0  0  0  0  0
   10.7147  -18.3896   21.6572 C   0  0  1  0  0  0  0  0  0  0  0  0
   11.9544  -18.6675   22.4715 C   0  0  0  0  0  0  0  0  0  0  0  0
   10.5955  -16.9278   21.2928 C   0  0  2  0  0  0  0  0  0  0  0  0
   11.8513  -16.5133   20.6919 N   0  0  0  0  0  0  0  0  0  0  0  0
   10.3397  -16.1506   22.5318 C   0  0  0  0  0  0  0  0  0  0  0  0
   11.3254  -15.5972   23.0823 O   0  0  0  0  0  0  0  0  0  0  0  0
    9.0167  -16.0249   23.0964 N   0  0  0  0  0  0  0  0  0  0  0  0
    8.8361  -15.1876   24.2286 C   0  0  1  0  0  0  0  0  0  0  0  0
    7.4707  -14.5366   24.0651 C   0  0  0  0  0  0  0  0  0  0  0  0
    7.0913  -13.6158   25.1224 C   0  0  0  0  0  0  0  0  0  0  0  0
    7.5266  -12.3116   25.1102 C   0  0  0  0  0  0  0  0  0  0  0  0
    7.1892  -11.4015   26.0968 C   0  0  0  0  0  0  0  0  0  0  0  0
    6.3864  -11.7859   27.1475 C   0  0  0  0  0  0  0  0  0  0  0  0
    5.9412  -13.0841   27.1782 C   0  0  0  0  0  0  0  0  0  0  0  0
    6.2778  -13.9873   26.1963 C   0  0  0  0  0  0  0  0  0  0  0  0
    9.0715  -15.7369   25.5515 C   0  0  0  0  0  0  0  0  0  0  0  0
    8.5931  -16.9109   25.7322 O   0  0  0  0  0  0  0  0  0  0  0  0
    9.7485  -15.1640   26.6603 N   0  0  0  0  0  0  0  0  0  0  0  0
   10.1442  -13.7466   26.6289 C   0  0  0  0  0  0  0  0  0  0  0  0
   10.5234  -13.4124   28.0632 C   0  0  0  0  0  0  0  0  0  0  0  0
    9.9184  -14.5310   28.8777 C   0  0  0  0  0  0  0  0  0  0  0  0
   10.1838  -15.6991   27.8890 C   0  0  1  0  0  0  0  0  0  0  0  0
    9.5715  -16.9117   28.4090 C   0  0  0  0  0  0  0  0  0  0  0  0
    9.9239  -17.7030   29.4585 O   0  0  0  0  0  0  0  0  0  0  0  0
    8.5220  -17.3047   27.7680 O   0  0  0  0  0  0  0  0  0  0  0  0
  2  4  1  0
  2  1  1  6
  3  2  1  0
  4  5  1  1
  6  4  1  0
  6  7  2  0
  8  6  1  0
  9  8  1  0
  9 10  1  1
 11 10  1  0
 11 12  2  0
 13 12  1  0
 14 13  2  0
 15 16  2  0
 15 14  1  0
 16 11  1  0
 17 19  1  0
 17  9  1  0
 18 17  2  0
 19 20  1  0
 21 20  1  0
 22 23  1  0
 22 21  1  0
 23 19  1  0
 23 24  1  1
 25 24  1  0
 26 24  2  0
M  END
$$$$
