VFP.pdb
     RDKit          3D

 26 27  0  0  1  0  0  0  0  0999 V2000
    7.9763  -20.6014   23.7275 C   0  0  0  0  0  0  0  0  0  0  0  0
    6.6331  -20.7895   23.1034 C   0  0  1  0  0  0  0  0  0  0  0  0
    6.3553  -22.2646   22.9490 C   0  0  0  0  0  0  0  0  0  0  0  0
    5.5203  -20.0804   23.8400 C   0  0  2  0  0  0  0  0  0  0  0  0
    4.2851  -20.3089   23.1107 N   0  0  0  0  0  0  0  0  0  0  0  0
    5.8297  -18.6287   23.8807 C   0  0  0  0  0  0  0  0  0  0  0  0
    5.6278  -17.9639   22.8327 O   0  0  0  0  0  0  0  0  0  0  0  0
    6.3431  -17.9891   25.0690 N   0  0  0  0  0  0  0  0  0  0  0  0
    6.7321  -16.6256   24.9946 C   0  0  1  0  0  0  0  0  0  0  0  0
    6.5544  -16.0537   26.3932 C   0  0  0  0  0  0  0  0  0  0  0  0
    6.8092  -14.6293   26.5185 C   0  0  0  0  0  0  0  0  0  0  0  0
    8.0847  -14.1570   26.7196 C   0  0  0  0  0  0  0  0  0  0  0  0
    8.3718  -12.8088   26.8443 C   0  0  0  0  0  0  0  0  0  0  0  0
    7.3614  -11.8763   26.7686 C   0  0  0  0  0  0  0  0  0  0  0  0
    6.0805  -12.3275   26.5681 C   0  0  0  0  0  0  0  0  0  0  0  0
    5.7972  -13.6682   26.4444 C   0  0  0  0  0  0  0  0  0  0  0  0
    8.0040  -16.2920   24.3797 C   0  0  0  0  0  0  0  0  0  0  0  0
    9.0262  -16.7869   24.9711 O   0  0  0  0  0  0  0  0  0  0  0  0
    8.2722  -15.5041   23.2293 N   0  0  0  0  0  0  0  0  0  0  0  0
    7.1695  -14.8284   22.5264 C   0  0  0  0  0  0  0  0  0  0  0  0
    7.8472  -13.8424   21.5877 C   0  0  0  0  0  0  0  0  0  0  0  0
    9.2547  -13.7274   22.1229 C   0  0  0  0  0  0  0  0  0  0  0  0
    9.4620  -15.2108   22.5336 C   0  0  1  0  0  0  0  0  0  0  0  0
   10.7456  -15.3445   23.2044 C   0  0  0  0  0  0  0  0  0  0  0  0
   12.0048  -15.4414   22.6979 O   0  0  0  0  0  0  0  0  0  0  0  0
   10.6804  -15.3800   24.4934 O   0  0  0  0  0  0  0  0  0  0  0  0
  2  4  1  0
  2  1  1  1
  3  2  1  0
  4  5  1  6
  6  4  1  0
  6  7  2  0
  8  6  1  0
  9  8  1  0
  9 10  1  1
 11 10  1  0
 11 12  2  0
 13 12  1  0
 14 13  2  0
 15 16  2  0
 15 14  1  0
 16 11  1  0
 17 19  1  0
 17  9  1  0
 18 17  2  0
 19 20  1  0
 21 20  1  0
 22 23  1  0
 22 21  1  0
 23 19  1  0
 23 24  1  1
 25 24  1  0
 26 24  2  0
M  END
$$$$
