VFP.pdb
     RDKit          3D

 26 27  0  0  1  0  0  0  0  0999 V2000
    6.6174  -22.4532   24.0967 C   0  0  0  0  0  0  0  0  0  0  0  0
    6.8678  -20.9857   23.9853 C   0  0  1  0  0  0  0  0  0  0  0  0
    7.6563  -20.7065   22.7294 C   0  0  0  0  0  0  0  0  0  0  0  0
    5.6099  -20.1512   24.0584 C   0  0  2  0  0  0  0  0  0  0  0  0
    4.7858  -20.4835   22.9093 N   0  0  0  0  0  0  0  0  0  0  0  0
    5.9909  -18.7166   24.0175 C   0  0  0  0  0  0  0  0  0  0  0  0
    6.0073  -18.1535   22.8933 O   0  0  0  0  0  0  0  0  0  0  0  0
    6.3321  -17.9815   25.2124 N   0  0  0  0  0  0  0  0  0  0  0  0
    6.7405  -16.6276   25.0858 C   0  0  1  0  0  0  0  0  0  0  0  0
    6.5734  -16.0005   26.4620 C   0  0  0  0  0  0  0  0  0  0  0  0
    6.8426  -14.5749   26.5314 C   0  0  0  0  0  0  0  0  0  0  0  0
    8.1208  -14.1084   26.7288 C   0  0  0  0  0  0  0  0  0  0  0  0
    8.4215  -12.7593   26.8013 C   0  0  0  0  0  0  0  0  0  0  0  0
    7.4226  -11.8200   26.6744 C   0  0  0  0  0  0  0  0  0  0  0  0
    6.1393  -12.2654   26.4767 C   0  0  0  0  0  0  0  0  0  0  0  0
    5.8425  -13.6070   26.4050 C   0  0  0  0  0  0  0  0  0  0  0  0
    8.0159  -16.3359   24.4572 C   0  0  0  0  0  0  0  0  0  0  0  0
    9.0338  -16.8009   25.0796 O   0  0  0  0  0  0  0  0  0  0  0  0
    8.2918  -15.6165   23.2645 N   0  0  0  0  0  0  0  0  0  0  0  0
    7.1873  -15.0419   22.4794 C   0  0  0  0  0  0  0  0  0  0  0  0
    7.8554  -14.0918   21.4977 C   0  0  0  0  0  0  0  0  0  0  0  0
    9.2358  -13.8757   22.0709 C   0  0  0  0  0  0  0  0  0  0  0  0
    9.4924  -15.3167   22.5907 C   0  0  1  0  0  0  0  0  0  0  0  0
   10.7550  -15.3449   23.3122 C   0  0  0  0  0  0  0  0  0  0  0  0
   11.0123  -15.3783   24.6480 O   0  0  0  0  0  0  0  0  0  0  0  0
   11.8060  -15.3335   22.5625 O   0  0  0  0  0  0  0  0  0  0  0  0
  2  4  1  0
  2  1  1  6
  3  2  1  0
  4  5  1  6
  6  4  1  0
  6  7  2  0
  8  6  1  0
  9  8  1  0
  9 10  1  1
 11 10  1  0
 11 12  2  0
 13 12  1  0
 14 13  2  0
 15 16  2  0
 15 14  1  0
 16 11  1  0
 17 19  1  0
 17  9  1  0
 18 17  2  0
 19 20  1  0
 21 20  1  0
 22 23  1  0
 22 21  1  0
 23 19  1  0
 23 24  1  1
 25 24  1  0
 26 24  2  0
M  END
$$$$
