VFP.pdb
     RDKit          3D

 26 27  0  0  1  0  0  0  0  0999 V2000
    7.9585  -20.8588   24.3036 C   0  0  0  0  0  0  0  0  0  0  0  0
    6.7638  -20.9554   23.4135 C   0  0  1  0  0  0  0  0  0  0  0  0
    6.3560  -22.4021   23.2787 C   0  0  0  0  0  0  0  0  0  0  0  0
    5.6107  -20.0834   23.8536 C   0  0  2  0  0  0  0  0  0  0  0  0
    4.5342  -20.2473   22.8923 N   0  0  0  0  0  0  0  0  0  0  0  0
    6.0672  -18.6707   23.8750 C   0  0  0  0  0  0  0  0  0  0  0  0
    6.2119  -18.0919   22.7682 O   0  0  0  0  0  0  0  0  0  0  0  0
    6.3390  -17.9733   25.1098 N   0  0  0  0  0  0  0  0  0  0  0  0
    6.8651  -16.6561   25.0465 C   0  0  1  0  0  0  0  0  0  0  0  0
    6.4582  -15.9708   26.3425 C   0  0  0  0  0  0  0  0  0  0  0  0
    6.7932  -14.5603   26.4307 C   0  0  0  0  0  0  0  0  0  0  0  0
    5.8995  -13.5975   26.0248 C   0  0  0  0  0  0  0  0  0  0  0  0
    6.1777  -12.2433   26.0915 C   0  0  0  0  0  0  0  0  0  0  0  0
    7.3902  -11.8093   26.5792 C   0  0  0  0  0  0  0  0  0  0  0  0
    8.2966  -12.7550   26.9897 C   0  0  0  0  0  0  0  0  0  0  0  0
    8.0180  -14.1007   26.9226 C   0  0  0  0  0  0  0  0  0  0  0  0
    8.2628  -16.4755   24.6991 C   0  0  0  0  0  0  0  0  0  0  0  0
    9.0882  -16.9907   25.5315 O   0  0  0  0  0  0  0  0  0  0  0  0
    8.8379  -15.8161   23.5807 N   0  0  0  0  0  0  0  0  0  0  0  0
    7.9757  -15.1096   22.6194 C   0  0  0  0  0  0  0  0  0  0  0  0
    8.9273  -14.2713   21.7801 C   0  0  0  0  0  0  0  0  0  0  0  0
   10.2019  -14.2343   22.5891 C   0  0  0  0  0  0  0  0  0  0  0  0
   10.1674  -15.6892   23.1315 C   0  0  1  0  0  0  0  0  0  0  0  0
   11.2683  -15.8764   24.0635 C   0  0  0  0  0  0  0  0  0  0  0  0
   11.2704  -16.0130   25.4173 O   0  0  0  0  0  0  0  0  0  0  0  0
   12.4375  -15.9169   23.5173 O   0  0  0  0  0  0  0  0  0  0  0  0
  2  4  1  0
  2  1  1  1
  3  2  1  0
  4  5  1  6
  6  4  1  0
  6  7  2  0
  8  6  1  0
  9  8  1  0
  9 10  1  1
 11 10  1  0
 11 12  2  0
 13 12  1  0
 14 13  2  0
 15 16  2  0
 15 14  1  0
 16 11  1  0
 17 19  1  0
 17  9  1  0
 18 17  2  0
 19 20  1  0
 21 20  1  0
 22 23  1  0
 22 21  1  0
 23 19  1  0
 23 24  1  1
 25 24  1  0
 26 24  2  0
M  END
$$$$
