VFP.pdb
     RDKit          3D

 26 27  0  0  1  0  0  0  0  0999 V2000
    7.8569  -20.4659   22.8182 C   0  0  0  0  0  0  0  0  0  0  0  0
    6.4101  -20.7059   22.5393 C   0  0  1  0  0  0  0  0  0  0  0  0
    6.1807  -22.1813   22.3205 C   0  0  0  0  0  0  0  0  0  0  0  0
    5.4896  -20.1431   23.5976 C   0  0  2  0  0  0  0  0  0  0  0  0
    4.1218  -20.4095   23.1877 N   0  0  0  0  0  0  0  0  0  0  0  0
    5.7192  -18.6794   23.6944 C   0  0  0  0  0  0  0  0  0  0  0  0
    5.2687  -17.9598   22.7668 O   0  0  0  0  0  0  0  0  0  0  0  0
    6.4299  -18.0884   24.8036 N   0  0  0  0  0  0  0  0  0  0  0  0
    6.7537  -16.7072   24.7468 C   0  0  1  0  0  0  0  0  0  0  0  0
    6.7324  -16.2039   26.1825 C   0  0  0  0  0  0  0  0  0  0  0  0
    6.9143  -14.7717   26.3411 C   0  0  0  0  0  0  0  0  0  0  0  0
    8.1562  -14.2446   26.6062 C   0  0  0  0  0  0  0  0  0  0  0  0
    8.3740  -12.8870   26.7646 C   0  0  0  0  0  0  0  0  0  0  0  0
    7.3253  -12.0010   26.6582 C   0  0  0  0  0  0  0  0  0  0  0  0
    6.0770  -12.5072   26.3938 C   0  0  0  0  0  0  0  0  0  0  0  0
    5.8626  -13.8572   26.2368 C   0  0  0  0  0  0  0  0  0  0  0  0
    7.9239  -16.2918   23.9950 C   0  0  0  0  0  0  0  0  0  0  0  0
    9.0238  -16.8124   24.3934 O   0  0  0  0  0  0  0  0  0  0  0  0
    8.0208  -15.4006   22.8939 N   0  0  0  0  0  0  0  0  0  0  0  0
    6.8048  -14.7933   22.3291 C   0  0  0  0  0  0  0  0  0  0  0  0
    7.3058  -13.6786   21.4241 C   0  0  0  0  0  0  0  0  0  0  0  0
    8.7341  -13.4581   21.8622 C   0  0  0  0  0  0  0  0  0  0  0  0
    9.1165  -14.9380   22.1383 C   0  0  1  0  0  0  0  0  0  0  0  0
   10.4570  -14.9865   22.7007 C   0  0  0  0  0  0  0  0  0  0  0  0
   11.6742  -14.8816   22.1014 O   0  0  0  0  0  0  0  0  0  0  0  0
   10.5005  -15.1609   23.9792 O   0  0  0  0  0  0  0  0  0  0  0  0
  2  4  1  0
  2  1  1  1
  3  2  1  0
  4  5  1  6
  6  4  1  0
  6  7  2  0
  8  6  1  0
  9  8  1  0
  9 10  1  1
 11 10  1  0
 11 12  2  0
 13 12  1  0
 14 13  2  0
 15 16  2  0
 15 14  1  0
 16 11  1  0
 17 19  1  0
 17  9  1  0
 18 17  2  0
 19 20  1  0
 21 20  1  0
 22 23  1  0
 22 21  1  0
 23 19  1  0
 23 24  1  1
 25 24  1  0
 26 24  2  0
M  END
$$$$
