HGK.pdb
     RDKit          3D

 24 24  0  0  1  0  0  0  0  0999 V2000
   16.8344   -8.3143  -13.7287 N   0  0  0  0  0  0  0  0  0  0  0  0
   17.9533   -8.9458  -13.0579 C   0  0  1  0  0  0  0  0  0  0  0  0
   19.2745   -8.5887  -13.7159 C   0  0  0  0  0  0  0  0  0  0  0  0
   19.2765   -9.1221  -15.1006 C   0  0  0  0  0  0  0  0  0  0  0  0
   19.4162  -10.4416  -15.4502 C   0  0  0  0  0  0  0  0  0  0  0  0
   19.3645  -10.5023  -16.7928 N   0  0  0  0  0  0  0  0  0  0  0  0
   19.1975   -9.2599  -17.2745 C   0  0  0  0  0  0  0  0  0  0  0  0
   19.1452   -8.4252  -16.2294 N   0  0  0  0  0  0  0  0  0  0  0  0
   17.9267   -8.5086  -11.6386 C   0  0  0  0  0  0  0  0  0  0  0  0
   18.8287   -8.8721  -10.8219 O   0  0  0  0  0  0  0  0  0  0  0  0
   16.9078   -7.6673  -11.1032 N   0  0  0  0  0  0  0  0  0  0  0  0
   16.9575   -7.1725   -9.7478 C   0  0  0  0  0  0  0  0  0  0  0  0
   15.8091   -6.2081   -9.5863 C   0  0  0  0  0  0  0  0  0  0  0  0
   15.1251   -5.8610  -10.5843 O   0  0  0  0  0  0  0  0  0  0  0  0
   15.4778   -5.6759   -8.3166 N   0  0  0  0  0  0  0  0  0  0  0  0
   14.4077   -4.7567   -8.0324 C   0  0  1  0  0  0  0  0  0  0  0  0
   13.9697   -4.7296   -6.6103 C   0  0  0  0  0  0  0  0  0  0  0  0
   12.8324   -3.8193   -6.3215 C   0  0  0  0  0  0  0  0  0  0  0  0
   12.3648   -3.7815   -4.9175 C   0  0  0  0  0  0  0  0  0  0  0  0
   11.1935   -2.8778   -4.6621 C   0  0  0  0  0  0  0  0  0  0  0  0
   10.7397   -2.8437   -3.3132 N   0  0  0  0  0  0  0  0  0  0  0  0
   14.7941   -3.3508   -8.4287 C   0  0  0  0  0  0  0  0  0  0  0  0
   15.9541   -2.9747   -8.1703 O   0  0  0  0  0  0  0  0  0  0  0  0
   13.8927   -2.5155   -9.0542 O   0  0  0  0  0  0  0  0  0  0  0  0
  2  1  1  6
  2  9  1  0
  3  4  1  0
  3  2  1  0
  4  5  2  0
  5  6  1  0
  7  6  1  0
  8  4  1  0
  8  7  2  0
  9 10  2  0
 11 12  1  0
 11  9  1  0
 12 13  1  0
 13 14  2  0
 13 15  1  0
 15 16  1  0
 16 17  1  1
 16 22  1  0
 17 18  1  0
 19 18  1  0
 20 21  1  0
 20 19  1  0
 22 24  1  0
 23 22  2  0
M  END
$$$$
