HGK.pdb
     RDKit          3D

 24 24  0  0  1  0  0  0  0  0999 V2000
   22.9873   -8.5303  -14.9047 N   0  0  0  0  0  0  0  0  0  0  0  0
   22.3223   -9.6040  -15.6158 C   0  0  1  0  0  0  0  0  0  0  0  0
   22.9671  -10.9488  -15.3296 C   0  0  0  0  0  0  0  0  0  0  0  0
   24.3936  -10.8887  -15.7336 C   0  0  0  0  0  0  0  0  0  0  0  0
   24.8624  -10.4888  -16.9597 C   0  0  0  0  0  0  0  0  0  0  0  0
   26.2037  -10.5787  -16.9184 N   0  0  0  0  0  0  0  0  0  0  0  0
   26.5690  -11.0214  -15.7043 C   0  0  0  0  0  0  0  0  0  0  0  0
   25.4527  -11.2071  -14.9894 N   0  0  0  0  0  0  0  0  0  0  0  0
   20.8955   -9.5957  -15.2028 C   0  0  0  0  0  0  0  0  0  0  0  0
   20.0866  -10.4834  -15.6156 O   0  0  0  0  0  0  0  0  0  0  0  0
   20.3440   -8.6109  -14.3318 N   0  0  0  0  0  0  0  0  0  0  0  0
   18.9761   -8.6737  -13.8740 C   0  0  0  0  0  0  0  0  0  0  0  0
   18.7915   -7.5573  -12.8767 C   0  0  0  0  0  0  0  0  0  0  0  0
   19.7677   -6.8377  -12.5399 O   0  0  0  0  0  0  0  0  0  0  0  0
   17.5241   -7.2965  -12.3016 N   0  0  0  0  0  0  0  0  0  0  0  0
   17.2255   -6.2826  -11.3251 C   0  0  1  0  0  0  0  0  0  0  0  0
   15.7750   -6.0759  -11.0639 C   0  0  0  0  0  0  0  0  0  0  0  0
   15.4571   -4.9559  -10.1419 C   0  0  0  0  0  0  0  0  0  0  0  0
   14.0203   -4.7005   -9.8937 C   0  0  0  0  0  0  0  0  0  0  0  0
   13.7275   -3.5187   -9.0154 C   0  0  0  0  0  0  0  0  0  0  0  0
   13.7967   -3.7737   -7.6166 N   0  0  0  0  0  0  0  0  0  0  0  0
   17.8967   -6.5972  -10.0085 C   0  0  0  0  0  0  0  0  0  0  0  0
   18.0726   -7.7972   -9.7207 O   0  0  0  0  0  0  0  0  0  0  0  0
   18.2994   -5.5899   -9.1573 O   0  0  0  0  0  0  0  0  0  0  0  0
  2  1  1  1
  2  9  1  0
  3  4  1  0
  3  2  1  0
  4  5  2  0
  5  6  1  0
  7  6  1  0
  8  4  1  0
  8  7  2  0
  9 10  2  0
 11 12  1  0
 11  9  1  0
 12 13  1  0
 13 14  2  0
 13 15  1  0
 15 16  1  0
 16 17  1  1
 16 22  1  0
 17 18  1  0
 19 18  1  0
 20 21  1  0
 20 19  1  0
 22 24  1  0
 23 22  2  0
M  END
$$$$
