HGK.pdb
     RDKit          3D

 24 24  0  0  1  0  0  0  0  0999 V2000
   20.2300  -10.3053  -17.9778 N   0  0  0  0  0  0  0  0  0  0  0  0
   20.4128  -11.1625  -16.8236 C   0  0  1  0  0  0  0  0  0  0  0  0
   21.4892  -12.2060  -17.0659 C   0  0  0  0  0  0  0  0  0  0  0  0
   20.9932  -13.1772  -18.0722 C   0  0  0  0  0  0  0  0  0  0  0  0
   21.2013  -13.1037  -19.4265 C   0  0  0  0  0  0  0  0  0  0  0  0
   20.5919  -14.1682  -19.9783 N   0  0  0  0  0  0  0  0  0  0  0  0
   20.0175  -14.8901  -19.0023 C   0  0  0  0  0  0  0  0  0  0  0  0
   20.2703  -14.2733  -17.8416 N   0  0  0  0  0  0  0  0  0  0  0  0
   20.7612  -10.2915  -15.6720 C   0  0  0  0  0  0  0  0  0  0  0  0
   20.9416  -10.7762  -14.5121 O   0  0  0  0  0  0  0  0  0  0  0  0
   20.9148   -8.8786  -15.7844 N   0  0  0  0  0  0  0  0  0  0  0  0
   21.4376   -8.0769  -14.7033 C   0  0  0  0  0  0  0  0  0  0  0  0
   21.5357   -6.6599  -15.2104 C   0  0  0  0  0  0  0  0  0  0  0  0
   21.7328   -6.4342  -16.4330 O   0  0  0  0  0  0  0  0  0  0  0  0
   21.4091   -5.5599  -14.3278 N   0  0  0  0  0  0  0  0  0  0  0  0
   21.4096   -4.1689  -14.6965 C   0  0  1  0  0  0  0  0  0  0  0  0
   20.1497   -3.4406  -14.3853 C   0  0  0  0  0  0  0  0  0  0  0  0
   18.9421   -3.9490  -15.0845 C   0  0  0  0  0  0  0  0  0  0  0  0
   17.6624   -3.2865  -14.7460 C   0  0  0  0  0  0  0  0  0  0  0  0
   16.4545   -3.8449  -15.4408 C   0  0  0  0  0  0  0  0  0  0  0  0
   15.2342   -3.1626  -15.1729 N   0  0  0  0  0  0  0  0  0  0  0  0
   22.5488   -3.4399  -14.0229 C   0  0  0  0  0  0  0  0  0  0  0  0
   22.9104   -3.8428  -12.9000 O   0  0  0  0  0  0  0  0  0  0  0  0
   23.1649   -2.3669  -14.6316 O   0  0  0  0  0  0  0  0  0  0  0  0
  2  1  1  6
  2  9  1  0
  3  4  1  0
  3  2  1  0
  4  5  2  0
  5  6  1  0
  7  6  1  0
  8  4  1  0
  8  7  2  0
  9 10  2  0
 11 12  1  0
 11  9  1  0
 12 13  1  0
 13 14  2  0
 13 15  1  0
 15 16  1  0
 16 17  1  1
 16 22  1  0
 17 18  1  0
 19 18  1  0
 20 21  1  0
 20 19  1  0
 22 24  1  0
 23 22  2  0
M  END
$$$$
