HGK.pdb
     RDKit          3D

 24 24  0  0  1  0  0  0  0  0999 V2000
   21.4408  -19.1787  -15.5998 N   0  0  0  0  0  0  0  0  0  0  0  0
   22.1866  -20.2159  -14.9152 C   0  0  1  0  0  0  0  0  0  0  0  0
   23.6791  -19.9359  -14.9314 C   0  0  0  0  0  0  0  0  0  0  0  0
   24.1569  -19.9814  -16.3355 C   0  0  0  0  0  0  0  0  0  0  0  0
   23.4051  -20.3396  -17.4260 C   0  0  0  0  0  0  0  0  0  0  0  0
   24.2045  -20.2501  -18.5039 N   0  0  0  0  0  0  0  0  0  0  0  0
   25.4223  -19.8481  -18.1053 C   0  0  0  0  0  0  0  0  0  0  0  0
   25.3799  -19.6873  -16.7771 N   0  0  0  0  0  0  0  0  0  0  0  0
   21.6712  -20.2913  -13.5242 C   0  0  0  0  0  0  0  0  0  0  0  0
   22.0750  -19.4861  -12.6290 O   0  0  0  0  0  0  0  0  0  0  0  0
   20.7065  -21.2531  -13.1036 N   0  0  0  0  0  0  0  0  0  0  0  0
   20.2102  -21.2974  -11.7485 C   0  0  0  0  0  0  0  0  0  0  0  0
   19.1878  -22.4047  -11.6876 C   0  0  0  0  0  0  0  0  0  0  0  0
   18.9415  -23.0995  -12.7078 O   0  0  0  0  0  0  0  0  0  0  0  0
   18.4876  -22.6845  -10.4890 N   0  0  0  0  0  0  0  0  0  0  0  0
   17.3671  -23.5762  -10.3468 C   0  0  1  0  0  0  0  0  0  0  0  0
   16.9221  -23.8002   -8.9445 C   0  0  0  0  0  0  0  0  0  0  0  0
   17.9011  -24.5089   -8.0814 C   0  0  0  0  0  0  0  0  0  0  0  0
   17.3513  -25.5575   -7.1930 C   0  0  0  0  0  0  0  0  0  0  0  0
   18.3704  -26.2936   -6.3725 C   0  0  0  0  0  0  0  0  0  0  0  0
   17.8361  -27.2376   -5.4505 N   0  0  0  0  0  0  0  0  0  0  0  0
   16.1823  -23.0728  -11.1378 C   0  0  0  0  0  0  0  0  0  0  0  0
   15.9377  -21.8511  -11.0995 O   0  0  0  0  0  0  0  0  0  0  0  0
   15.4009  -23.9371  -11.8753 O   0  0  0  0  0  0  0  0  0  0  0  0
  2  1  1  6
  2  9  1  0
  3  4  1  0
  3  2  1  0
  4  5  2  0
  5  6  1  0
  7  6  1  0
  8  4  1  0
  8  7  2  0
  9 10  2  0
 11 12  1  0
 11  9  1  0
 12 13  1  0
 13 14  2  0
 13 15  1  0
 15 16  1  0
 16 17  1  1
 16 22  1  0
 17 18  1  0
 19 18  1  0
 20 21  1  0
 20 19  1  0
 22 24  1  0
 23 22  2  0
M  END
$$$$
