HGK.pdb
     RDKit          3D

 24 24  0  0  1  0  0  0  0  0999 V2000
   26.0143  -21.7384  -16.9154 N   0  0  0  0  0  0  0  0  0  0  0  0
   26.8609  -20.8942  -16.0961 C   0  0  1  0  0  0  0  0  0  0  0  0
   28.0729  -20.4007  -16.8665 C   0  0  0  0  0  0  0  0  0  0  0  0
   28.9222  -21.5662  -17.2158 C   0  0  0  0  0  0  0  0  0  0  0  0
   28.7142  -22.8596  -16.8074 C   0  0  0  0  0  0  0  0  0  0  0  0
   29.7004  -23.6048  -17.3374 N   0  0  0  0  0  0  0  0  0  0  0  0
   30.5049  -22.8062  -18.0575 C   0  0  0  0  0  0  0  0  0  0  0  0
   30.0180  -21.5621  -17.9750 N   0  0  0  0  0  0  0  0  0  0  0  0
   26.0305  -19.7584  -15.6196 C   0  0  0  0  0  0  0  0  0  0  0  0
   26.5010  -18.8895  -14.8218 O   0  0  0  0  0  0  0  0  0  0  0  0
   24.6745  -19.5668  -16.0158 N   0  0  0  0  0  0  0  0  0  0  0  0
   23.9109  -18.4144  -15.5995 C   0  0  0  0  0  0  0  0  0  0  0  0
   22.5801  -18.4866  -16.3056 C   0  0  0  0  0  0  0  0  0  0  0  0
   22.5059  -18.9393  -17.4778 O   0  0  0  0  0  0  0  0  0  0  0  0
   21.3931  -18.0494  -15.6692 N   0  0  0  0  0  0  0  0  0  0  0  0
   20.1680  -18.7948  -15.5494 C   0  0  1  0  0  0  0  0  0  0  0  0
   20.3390  -20.2724  -15.5011 C   0  0  0  0  0  0  0  0  0  0  0  0
   19.5849  -21.0252  -16.5356 C   0  0  0  0  0  0  0  0  0  0  0  0
   19.6880  -22.5007  -16.4764 C   0  0  0  0  0  0  0  0  0  0  0  0
   19.0146  -23.2304  -17.6022 C   0  0  0  0  0  0  0  0  0  0  0  0
   19.2054  -24.6412  -17.6075 N   0  0  0  0  0  0  0  0  0  0  0  0
   19.4063  -18.3724  -14.3148 C   0  0  0  0  0  0  0  0  0  0  0  0
   20.0656  -17.9579  -13.3414 O   0  0  0  0  0  0  0  0  0  0  0  0
   18.0300  -18.4442  -14.2694 O   0  0  0  0  0  0  0  0  0  0  0  0
  2  1  1  6
  2  9  1  0
  3  4  1  0
  3  2  1  0
  4  5  2  0
  5  6  1  0
  7  6  1  0
  8  4  1  0
  8  7  2  0
  9 10  2  0
 11 12  1  0
 11  9  1  0
 12 13  1  0
 13 14  2  0
 13 15  1  0
 15 16  1  0
 16 17  1  1
 16 22  1  0
 17 18  1  0
 19 18  1  0
 20 21  1  0
 20 19  1  0
 22 24  1  0
 23 22  2  0
M  END
$$$$
