HGK.pdb
     RDKit          3D

 24 24  0  0  1  0  0  0  0  0999 V2000
   20.9051  -15.7580  -19.5323 N   0  0  0  0  0  0  0  0  0  0  0  0
   19.5403  -15.6682  -19.0528 C   0  0  1  0  0  0  0  0  0  0  0  0
   19.2158  -16.7839  -18.0750 C   0  0  0  0  0  0  0  0  0  0  0  0
   19.3120  -18.0830  -18.7856 C   0  0  0  0  0  0  0  0  0  0  0  0
   18.4079  -18.5654  -19.6980 C   0  0  0  0  0  0  0  0  0  0  0  0
   18.8588  -19.7655  -20.1047 N   0  0  0  0  0  0  0  0  0  0  0  0
   20.0113  -20.0312  -19.4684 C   0  0  0  0  0  0  0  0  0  0  0  0
   20.2772  -18.9944  -18.6647 N   0  0  0  0  0  0  0  0  0  0  0  0
   19.3777  -14.3354  -18.4175 C   0  0  0  0  0  0  0  0  0  0  0  0
   18.2611  -13.9682  -17.9368 O   0  0  0  0  0  0  0  0  0  0  0  0
   20.4416  -13.3931  -18.3044 N   0  0  0  0  0  0  0  0  0  0  0  0
   20.2938  -12.1555  -17.5757 C   0  0  0  0  0  0  0  0  0  0  0  0
   20.2694  -11.0427  -18.5934 C   0  0  0  0  0  0  0  0  0  0  0  0
   20.9672  -11.1210  -19.6380 O   0  0  0  0  0  0  0  0  0  0  0  0
   19.4660   -9.8933  -18.3970 N   0  0  0  0  0  0  0  0  0  0  0  0
   19.2174   -8.8543  -19.3611 C   0  0  1  0  0  0  0  0  0  0  0  0
   18.0746   -7.9592  -19.0329 C   0  0  0  0  0  0  0  0  0  0  0  0
   17.9415   -7.6136  -17.5947 C   0  0  0  0  0  0  0  0  0  0  0  0
   16.7065   -6.8962  -17.2057 C   0  0  0  0  0  0  0  0  0  0  0  0
   16.5266   -6.6955  -15.7289 C   0  0  0  0  0  0  0  0  0  0  0  0
   15.2743   -6.1392  -15.3430 N   0  0  0  0  0  0  0  0  0  0  0  0
   20.4459   -7.9944  -19.5459 C   0  0  0  0  0  0  0  0  0  0  0  0
   21.2423   -7.9099  -18.5907 O   0  0  0  0  0  0  0  0  0  0  0  0
   20.6751   -7.3276  -20.7310 O   0  0  0  0  0  0  0  0  0  0  0  0
  2  1  1  1
  2  9  1  0
  3  4  1  0
  3  2  1  0
  4  5  2  0
  5  6  1  0
  7  6  1  0
  8  4  1  0
  8  7  2  0
  9 10  2  0
 11 12  1  0
 11  9  1  0
 12 13  1  0
 13 14  2  0
 13 15  1  0
 15 16  1  0
 16 17  1  1
 16 22  1  0
 17 18  1  0
 19 18  1  0
 20 21  1  0
 20 19  1  0
 22 24  1  0
 23 22  2  0
M  END
$$$$
