RHA.pdb
     RDKit          3D

 27 27  0  0  1  0  0  0  0  0999 V2000
    9.4615  -12.6166   19.3211 N   0  0  0  0  0  0  0  0  0  0  0  0
    8.0511  -12.6928   19.6163 C   0  0  0  0  0  0  0  0  0  0  0  0
    7.5364  -11.8175   20.3986 N   0  0  0  0  0  0  0  0  0  0  0  0
    7.2432  -13.7025   19.0624 N   0  0  0  0  0  0  0  0  0  0  0  0
    7.6976  -15.1069   19.0655 C   0  0  0  0  0  0  0  0  0  0  0  0
    8.1525  -15.5128   17.7124 C   0  0  0  0  0  0  0  0  0  0  0  0
    9.2965  -14.7588   17.1230 C   0  0  0  0  0  0  0  0  0  0  0  0
   10.4181  -15.6369   16.7117 C   0  0  2  0  0  0  0  0  0  0  0  0
    9.9535  -16.8026   16.0181 N   0  0  0  0  0  0  0  0  0  0  0  0
   11.3160  -15.9919   17.8496 C   0  0  0  0  0  0  0  0  0  0  0  0
   11.3324  -17.1758   18.2597 O   0  0  0  0  0  0  0  0  0  0  0  0
    6.5518  -11.8898   20.6945 N   0  0  0  0  0  0  0  0  0  0  0  0
   12.1558  -15.0495   18.4926 C   0  0  2  0  0  0  0  0  0  0  0  0
   13.1307  -15.4439   19.4598 C   0  0  0  0  0  0  0  0  0  0  0  0
   14.1477  -14.3219   19.7218 C   0  0  0  0  0  0  0  0  0  0  0  0
   15.1315  -14.2210   18.6488 C   0  0  0  0  0  0  0  0  0  0  0  0
   15.7631  -15.2844   18.0445 N   0  0  0  0  0  0  0  0  0  0  0  0
   16.5891  -14.7658   17.1096 C   0  0  0  0  0  0  0  0  0  0  0  0
   16.4714  -13.4368   17.1366 N   0  0  0  0  0  0  0  0  0  0  0  0
   15.5702  -13.0813   18.0868 C   0  0  0  0  0  0  0  0  0  0  0  0
   12.5184  -15.8733   20.7473 O   0  0  0  0  0  0  0  0  0  0  0  0
   11.6499  -15.1510   21.3240 C   0  0  0  0  0  0  0  0  0  0  0  0
   12.3486  -19.0075   22.8263 C   0  0  2  0  0  0  0  0  0  0  0  0
   12.3021  -17.5045   22.6580 N   0  0  0  0  0  0  0  0  0  0  0  0
   12.8573  -17.0832   21.3946 C   0  0  0  0  0  0  0  0  0  0  0  0
   12.9560  -16.8203   23.8063 O   0  0  0  0  0  0  0  0  0  0  0  0
   14.0511  -16.2339   23.5827 O   0  0  0  0  0  0  0  0  0  0  0  0
  2  4  1  0
  2  1  1  0
  3  2  2  0
  5  4  1  0
  5  6  1  0
  7  6  1  0
  7  8  1  0
  8  9  1  1
 10  8  1  0
 10 12  1  0
 11 10  2  0
 13 12  1  0
 13 14  1  6
 15 14  1  0
 15 16  2  0
 17 16  1  0
 18 17  1  0
 19 18  2  0
 19 15  1  0
 20 13  1  0
 21 20  2  0
 23 22  1  6
 23 24  1  0
 23 25  1  0
 24 20  1  0
 25 27  1  0
 26 25  2  0
M  END
$$$$
