RHA.pdb
     RDKit          3D

 27 27  0  0  1  0  0  0  0  0999 V2000
    8.0304  -15.2476   16.4300 N   0  0  0  0  0  0  0  0  0  0  0  0
    8.2910  -15.5074   15.0348 C   0  0  0  0  0  0  0  0  0  0  0  0
    7.2977  -15.6256   14.2332 N   0  0  0  0  0  0  0  0  0  0  0  0
    9.6053  -15.6301   14.5486 N   0  0  0  0  0  0  0  0  0  0  0  0
   10.7537  -15.5381   15.4715 C   0  0  0  0  0  0  0  0  0  0  0  0
   11.0510  -16.8630   16.0705 C   0  0  0  0  0  0  0  0  0  0  0  0
   12.1880  -16.9363   17.0331 C   0  0  0  0  0  0  0  0  0  0  0  0
   11.8203  -17.5836   18.3152 C   0  0  2  0  0  0  0  0  0  0  0  0
   10.7203  -18.4894   18.1568 N   0  0  0  0  0  0  0  0  0  0  0  0
   11.5705  -16.5959   19.4058 C   0  0  0  0  0  0  0  0  0  0  0  0
   12.4435  -15.7307   19.6490 O   0  0  0  0  0  0  0  0  0  0  0  0
    7.4496  -15.7710   13.2243 N   0  0  0  0  0  0  0  0  0  0  0  0
   10.3869  -16.5893   20.1842 C   0  0  1  0  0  0  0  0  0  0  0  0
   10.2053  -15.6829   21.2736 C   0  0  0  0  0  0  0  0  0  0  0  0
    8.7829  -15.1010   21.2889 C   0  0  0  0  0  0  0  0  0  0  0  0
    8.5451  -14.2214   20.1492 C   0  0  0  0  0  0  0  0  0  0  0  0
    9.4843  -13.8657   19.2078 N   0  0  0  0  0  0  0  0  0  0  0  0
    8.8644  -13.0467   18.3301 C   0  0  0  0  0  0  0  0  0  0  0  0
    7.5946  -12.9035   18.7150 N   0  0  0  0  0  0  0  0  0  0  0  0
    7.3792  -13.6262   19.8431 C   0  0  0  0  0  0  0  0  0  0  0  0
   10.5041  -16.3059   22.5925 O   0  0  0  0  0  0  0  0  0  0  0  0
    9.6054  -16.9334   23.2305 C   0  0  0  0  0  0  0  0  0  0  0  0
   11.9872  -18.5911   23.8648 C   0  0  2  0  0  0  0  0  0  0  0  0
   12.2231  -17.1435   24.2362 N   0  0  0  0  0  0  0  0  0  0  0  0
   11.7766  -16.2394   23.2040 C   0  0  0  0  0  0  0  0  0  0  0  0
   13.6483  -16.9124   24.5966 O   0  0  0  0  0  0  0  0  0  0  0  0
   14.4464  -16.6442   23.6562 O   0  0  0  0  0  0  0  0  0  0  0  0
  2  4  1  0
  2  1  1  0
  3  2  2  0
  5  4  1  0
  5  6  1  0
  7  6  1  0
  7  8  1  0
  8  9  1  6
 10  8  1  0
 10 12  1  0
 11 10  2  0
 13 12  1  0
 13 14  1  6
 15 14  1  0
 15 16  2  0
 17 16  1  0
 18 17  1  0
 19 18  2  0
 19 15  1  0
 20 13  1  0
 21 20  2  0
 23 22  1  1
 23 24  1  0
 23 25  1  0
 24 20  1  0
 25 27  1  0
 26 25  2  0
M  END
$$$$
