RHA.pdb
     RDKit          3D

 27 27  0  0  1  0  0  0  0  0999 V2000
   12.0612  -16.8902   16.6583 N   0  0  0  0  0  0  0  0  0  0  0  0
   10.8675  -16.9162   15.8479 C   0  0  0  0  0  0  0  0  0  0  0  0
   10.9721  -17.2114   14.6050 N   0  0  0  0  0  0  0  0  0  0  0  0
    9.6057  -16.6264   16.3982 N   0  0  0  0  0  0  0  0  0  0  0  0
    9.4389  -16.5074   17.8599 C   0  0  0  0  0  0  0  0  0  0  0  0
   10.3889  -17.3999   18.5695 C   0  0  0  0  0  0  0  0  0  0  0  0
   11.3323  -16.7631   19.5334 C   0  0  0  0  0  0  0  0  0  0  0  0
   11.1415  -17.2332   20.9265 C   0  0  2  0  0  0  0  0  0  0  0  0
   10.1958  -18.3084   20.9996 N   0  0  0  0  0  0  0  0  0  0  0  0
   10.7923  -16.1253   21.8633 C   0  0  0  0  0  0  0  0  0  0  0  0
   11.5101  -15.0984   21.8789 O   0  0  0  0  0  0  0  0  0  0  0  0
   10.1351  -17.2768   14.0071 N   0  0  0  0  0  0  0  0  0  0  0  0
    9.6819  -16.1787   22.7414 C   0  0  1  0  0  0  0  0  0  0  0  0
    9.4133  -15.1376   23.6824 C   0  0  0  0  0  0  0  0  0  0  0  0
    7.9468  -14.6831   23.6136 C   0  0  0  0  0  0  0  0  0  0  0  0
    7.6458  -14.0133   22.3526 C   0  0  0  0  0  0  0  0  0  0  0  0
    6.6491  -14.3770   21.4755 N   0  0  0  0  0  0  0  0  0  0  0  0
    6.7046  -13.5084   20.4421 C   0  0  0  0  0  0  0  0  0  0  0  0
    7.6953  -12.6446   20.6729 N   0  0  0  0  0  0  0  0  0  0  0  0
    8.2905  -12.9436   21.8552 C   0  0  0  0  0  0  0  0  0  0  0  0
    9.7501  -15.5277   25.0793 O   0  0  0  0  0  0  0  0  0  0  0  0
    9.9365  -16.7446   25.3846 C   0  0  0  0  0  0  0  0  0  0  0  0
   10.1627  -13.7686   28.4221 C   0  0  1  0  0  0  0  0  0  0  0  0
   10.3096  -14.9309   27.4645 N   0  0  0  0  0  0  0  0  0  0  0  0
    9.8798  -14.5909   26.1296 C   0  0  0  0  0  0  0  0  0  0  0  0
    9.6092  -16.1377   27.9815 O   0  0  0  0  0  0  0  0  0  0  0  0
    8.5050  -16.4381   27.4488 O   0  0  0  0  0  0  0  0  0  0  0  0
  2  4  1  0
  2  1  1  0
  3  2  2  0
  5  4  1  0
  5  6  1  0
  7  6  1  0
  7  8  1  0
  8  9  1  6
 10  8  1  0
 10 12  1  0
 11 10  2  0
 13 12  1  0
 13 14  1  6
 15 14  1  0
 15 16  2  0
 17 16  1  0
 18 17  1  0
 19 18  2  0
 19 15  1  0
 20 13  1  0
 21 20  2  0
 23 22  1  6
 23 24  1  0
 23 25  1  0
 24 20  1  0
 25 27  1  0
 26 25  2  0
M  END
$$$$
