RHA.pdb
     RDKit          3D

 27 27  0  0  1  0  0  0  0  0999 V2000
    7.0577  -21.5121   15.2587 N   0  0  0  0  0  0  0  0  0  0  0  0
    7.9302  -21.8274   14.1535 C   0  0  0  0  0  0  0  0  0  0  0  0
    8.4206  -23.0090   14.0723 N   0  0  0  0  0  0  0  0  0  0  0  0
    8.2450  -20.8667   13.1753 N   0  0  0  0  0  0  0  0  0  0  0  0
    7.6445  -19.5195   13.2325 C   0  0  0  0  0  0  0  0  0  0  0  0
    8.6683  -18.5048   13.5860 C   0  0  0  0  0  0  0  0  0  0  0  0
    8.2410  -17.0758   13.5841 C   0  0  0  0  0  0  0  0  0  0  0  0
    9.3442  -16.1413   13.9122 C   0  0  2  0  0  0  0  0  0  0  0  0
   10.4143  -16.2278   12.9619 N   0  0  0  0  0  0  0  0  0  0  0  0
    9.8344  -16.3012   15.3127 C   0  0  0  0  0  0  0  0  0  0  0  0
   10.9774  -15.8792   15.6047 O   0  0  0  0  0  0  0  0  0  0  0  0
    9.0044  -23.2827   13.2683 N   0  0  0  0  0  0  0  0  0  0  0  0
    9.0653  -16.9110   16.3343 C   0  0  2  0  0  0  0  0  0  0  0  0
    9.4311  -16.8169   17.7122 C   0  0  0  0  0  0  0  0  0  0  0  0
    8.2134  -16.5052   18.5965 C   0  0  0  0  0  0  0  0  0  0  0  0
    7.8242  -15.1017   18.5073 C   0  0  0  0  0  0  0  0  0  0  0  0
    8.1489  -14.1253   19.4217 N   0  0  0  0  0  0  0  0  0  0  0  0
    7.6015  -12.9746   18.9726 C   0  0  0  0  0  0  0  0  0  0  0  0
    6.9653  -13.2314   17.8279 N   0  0  0  0  0  0  0  0  0  0  0  0
    7.0934  -14.5477   17.5242 C   0  0  0  0  0  0  0  0  0  0  0  0
   10.1080  -18.0461   18.2099 O   0  0  0  0  0  0  0  0  0  0  0  0
   10.4542  -18.1474   19.4259 C   0  0  0  0  0  0  0  0  0  0  0  0
   12.5558  -19.9125   18.2716 C   0  0  1  0  0  0  0  0  0  0  0  0
   11.1687  -20.2979   17.8060 N   0  0  0  0  0  0  0  0  0  0  0  0
   10.4020  -19.1519   17.3802 C   0  0  0  0  0  0  0  0  0  0  0  0
   10.4567  -21.0840   18.8497 O   0  0  0  0  0  0  0  0  0  0  0  0
   10.9423  -22.2071   19.1597 O   0  0  0  0  0  0  0  0  0  0  0  0
  2  4  1  0
  2  1  1  0
  3  2  2  0
  5  4  1  0
  5  6  1  0
  7  6  1  0
  7  8  1  0
  8  9  1  6
 10  8  1  0
 10 12  1  0
 11 10  2  0
 13 12  1  0
 13 14  1  6
 15 14  1  0
 15 16  2  0
 17 16  1  0
 18 17  1  0
 19 18  2  0
 19 15  1  0
 20 13  1  0
 21 20  2  0
 23 22  1  6
 23 24  1  0
 23 25  1  0
 24 20  1  0
 25 27  1  0
 26 25  2  0
M  END
$$$$
