RHA.pdb
     RDKit          3D

 27 27  0  0  1  0  0  0  0  0999 V2000
    8.7969  -16.3386   14.2396 N   0  0  0  0  0  0  0  0  0  0  0  0
    8.6852  -14.9099   14.0709 C   0  0  0  0  0  0  0  0  0  0  0  0
    8.7891  -14.4180   12.8917 N   0  0  0  0  0  0  0  0  0  0  0  0
    8.4653  -14.0604   15.1703 N   0  0  0  0  0  0  0  0  0  0  0  0
    8.0673  -14.6195   16.4771 C   0  0  0  0  0  0  0  0  0  0  0  0
    9.2155  -15.2988   17.1273 C   0  0  0  0  0  0  0  0  0  0  0  0
    9.5030  -14.9434   18.5471 C   0  0  0  0  0  0  0  0  0  0  0  0
   10.0698  -16.0724   19.3232 C   0  0  2  0  0  0  0  0  0  0  0  0
    9.2595  -17.2504   19.2162 N   0  0  0  0  0  0  0  0  0  0  0  0
   10.3376  -15.7131   20.7466 C   0  0  0  0  0  0  0  0  0  0  0  0
   11.1305  -14.7750   20.9941 O   0  0  0  0  0  0  0  0  0  0  0  0
    8.8544  -13.3992   12.7501 N   0  0  0  0  0  0  0  0  0  0  0  0
    9.7353  -16.3855   21.8384 C   0  0  1  0  0  0  0  0  0  0  0  0
    9.8495  -15.9022   23.1781 C   0  0  0  0  0  0  0  0  0  0  0  0
    8.4760  -15.5340   23.7613 C   0  0  0  0  0  0  0  0  0  0  0  0
    7.7324  -14.6440   22.8757 C   0  0  0  0  0  0  0  0  0  0  0  0
    6.5094  -14.9234   22.3092 N   0  0  0  0  0  0  0  0  0  0  0  0
    6.1708  -13.8479   21.5648 C   0  0  0  0  0  0  0  0  0  0  0  0
    7.1457  -12.9424   21.6684 N   0  0  0  0  0  0  0  0  0  0  0  0
    8.1235  -13.4206   22.4787 C   0  0  0  0  0  0  0  0  0  0  0  0
   10.5313  -16.8711   24.0799 O   0  0  0  0  0  0  0  0  0  0  0  0
   10.7688  -16.5729   25.2896 C   0  0  0  0  0  0  0  0  0  0  0  0
   13.0714  -19.0786   24.4621 C   0  0  1  0  0  0  0  0  0  0  0  0
   11.5606  -19.1295   24.5257 N   0  0  0  0  0  0  0  0  0  0  0  0
   10.9484  -18.1536   23.6568 C   0  0  0  0  0  0  0  0  0  0  0  0
   11.0827  -18.9992   25.9289 O   0  0  0  0  0  0  0  0  0  0  0  0
   10.3311  -18.0208   26.1953 O   0  0  0  0  0  0  0  0  0  0  0  0
  2  4  1  0
  2  1  1  0
  3  2  2  0
  5  4  1  0
  5  6  1  0
  7  6  1  0
  7  8  1  0
  8  9  1  1
 10  8  1  0
 10 12  1  0
 11 10  2  0
 13 12  1  0
 13 14  1  1
 15 14  1  0
 15 16  2  0
 17 16  1  0
 18 17  1  0
 19 18  2  0
 19 15  1  0
 20 13  1  0
 21 20  2  0
 23 22  1  6
 23 24  1  0
 23 25  1  0
 24 20  1  0
 25 27  1  0
 26 25  2  0
M  END
$$$$
