RHA.pdb
     RDKit          3D

 27 27  0  0  1  0  0  0  0  0999 V2000
    7.7439  -15.6610   16.0802 N   0  0  0  0  0  0  0  0  0  0  0  0
    8.0235  -14.2457   16.1119 C   0  0  0  0  0  0  0  0  0  0  0  0
    8.0592  -13.5991   15.0057 N   0  0  0  0  0  0  0  0  0  0  0  0
    8.2535  -13.5745   17.3265 N   0  0  0  0  0  0  0  0  0  0  0  0
    7.8500  -14.1891   18.6064 C   0  0  0  0  0  0  0  0  0  0  0  0
    8.1109  -13.2634   19.7368 C   0  0  0  0  0  0  0  0  0  0  0  0
    7.8364  -13.7719   21.1118 C   0  0  0  0  0  0  0  0  0  0  0  0
    8.6958  -14.9204   21.4866 C   0  0  2  0  0  0  0  0  0  0  0  0
    8.0883  -16.1729   21.1433 N   0  0  0  0  0  0  0  0  0  0  0  0
    9.1120  -14.8822   22.9192 C   0  0  0  0  0  0  0  0  0  0  0  0
    9.7263  -13.8759   23.3433 O   0  0  0  0  0  0  0  0  0  0  0  0
    8.1733  -12.5748   14.9979 N   0  0  0  0  0  0  0  0  0  0  0  0
    8.8448  -15.9352   23.8285 C   0  0  1  0  0  0  0  0  0  0  0  0
    9.1164  -15.8126   25.2259 C   0  0  0  0  0  0  0  0  0  0  0  0
    7.8186  -15.7353   26.0455 C   0  0  0  0  0  0  0  0  0  0  0  0
    7.1212  -14.4705   25.8378 C   0  0  0  0  0  0  0  0  0  0  0  0
    7.6748  -13.2201   25.9960 N   0  0  0  0  0  0  0  0  0  0  0  0
    6.7038  -12.3258   25.7085 C   0  0  0  0  0  0  0  0  0  0  0  0
    5.5967  -12.9977   25.3861 N   0  0  0  0  0  0  0  0  0  0  0  0
    5.8382  -14.3309   25.4613 C   0  0  0  0  0  0  0  0  0  0  0  0
    9.9681  -16.9191   25.7426 O   0  0  0  0  0  0  0  0  0  0  0  0
   10.3147  -16.9540   26.9622 C   0  0  0  0  0  0  0  0  0  0  0  0
   12.7944  -18.6415   24.9157 C   0  0  1  0  0  0  0  0  0  0  0  0
   11.3865  -18.9691   25.3628 N   0  0  0  0  0  0  0  0  0  0  0  0
   10.4347  -17.9755   24.9279 C   0  0  0  0  0  0  0  0  0  0  0  0
   11.3319  -19.1817   26.8346 O   0  0  0  0  0  0  0  0  0  0  0  0
   11.9964  -20.1465   27.3045 O   0  0  0  0  0  0  0  0  0  0  0  0
  2  4  1  0
  2  1  1  0
  3  2  2  0
  5  4  1  0
  5  6  1  0
  7  6  1  0
  7  8  1  0
  8  9  1  1
 10  8  1  0
 10 12  1  0
 11 10  2  0
 13 12  1  0
 13 14  1  1
 15 14  1  0
 15 16  2  0
 17 16  1  0
 18 17  1  0
 19 18  2  0
 19 15  1  0
 20 13  1  0
 21 20  2  0
 23 22  1  6
 23 24  1  0
 23 25  1  0
 24 20  1  0
 25 27  1  0
 26 25  2  0
M  END
$$$$
