RHA.pdb
     RDKit          3D

 27 27  0  0  1  0  0  0  0  0999 V2000
    9.2876  -13.8611   15.2629 N   0  0  0  0  0  0  0  0  0  0  0  0
    8.1611  -14.6531   15.6940 C   0  0  0  0  0  0  0  0  0  0  0  0
    7.0876  -14.6314   14.9938 N   0  0  0  0  0  0  0  0  0  0  0  0
    8.2254  -15.4400   16.8583 N   0  0  0  0  0  0  0  0  0  0  0  0
    8.8523  -14.9083   18.0843 C   0  0  0  0  0  0  0  0  0  0  0  0
    7.9523  -13.9358   18.7527 C   0  0  0  0  0  0  0  0  0  0  0  0
    7.5810  -14.2134   20.1704 C   0  0  0  0  0  0  0  0  0  0  0  0
    8.6231  -14.9708   20.9041 C   0  0  2  0  0  0  0  0  0  0  0  0
    8.4030  -16.3856   20.8300 N   0  0  0  0  0  0  0  0  0  0  0  0
    8.7821  -14.5092   22.3144 C   0  0  0  0  0  0  0  0  0  0  0  0
    9.1667  -13.3357   22.5263 O   0  0  0  0  0  0  0  0  0  0  0  0
    6.3059  -15.2677   15.2086 N   0  0  0  0  0  0  0  0  0  0  0  0
    8.5178  -15.3387   23.4320 C   0  0  1  0  0  0  0  0  0  0  0  0
    8.5089  -14.8272   24.7660 C   0  0  0  0  0  0  0  0  0  0  0  0
    7.1452  -15.0428   25.4411 C   0  0  0  0  0  0  0  0  0  0  0  0
    6.5475  -13.7825   25.8695 C   0  0  0  0  0  0  0  0  0  0  0  0
    7.1303  -12.5416   25.7456 N   0  0  0  0  0  0  0  0  0  0  0  0
    6.2559  -11.6483   26.2582 C   0  0  0  0  0  0  0  0  0  0  0  0
    5.1779  -12.3118   26.6809 N   0  0  0  0  0  0  0  0  0  0  0  0
    5.3422  -13.6383   26.4472 C   0  0  0  0  0  0  0  0  0  0  0  0
    9.5835  -15.4160   25.6119 O   0  0  0  0  0  0  0  0  0  0  0  0
   10.1809  -16.4762   25.2546 C   0  0  0  0  0  0  0  0  0  0  0  0
   11.3218  -14.5271   28.8757 C   0  0  2  0  0  0  0  0  0  0  0  0
   11.0236  -15.4075   27.6818 N   0  0  0  0  0  0  0  0  0  0  0  0
    9.9966  -14.8464   26.8377 C   0  0  0  0  0  0  0  0  0  0  0  0
   10.6915  -16.7927   28.1122 O   0  0  0  0  0  0  0  0  0  0  0  0
    9.4883  -17.1588   28.0049 O   0  0  0  0  0  0  0  0  0  0  0  0
  2  4  1  0
  2  1  1  0
  3  2  2  0
  5  4  1  0
  5  6  1  0
  7  6  1  0
  7  8  1  0
  8  9  1  1
 10  8  1  0
 10 12  1  0
 11 10  2  0
 13 12  1  0
 13 14  1  6
 15 14  1  0
 15 16  2  0
 17 16  1  0
 18 17  1  0
 19 18  2  0
 19 15  1  0
 20 13  1  0
 21 20  2  0
 23 22  1  6
 23 24  1  0
 23 25  1  0
 24 20  1  0
 25 27  1  0
 26 25  2  0
M  END
$$$$
