RHA.pdb
     RDKit          3D

 27 27  0  0  1  0  0  0  0  0999 V2000
   13.9409  -19.0627   15.3719 N   0  0  0  0  0  0  0  0  0  0  0  0
   13.0567  -20.1506   15.0302 C   0  0  0  0  0  0  0  0  0  0  0  0
   13.3535  -20.8962   14.0307 N   0  0  0  0  0  0  0  0  0  0  0  0
   11.8878  -20.4012   15.7718 N   0  0  0  0  0  0  0  0  0  0  0  0
   11.5578  -19.5713   16.9470 C   0  0  0  0  0  0  0  0  0  0  0  0
   11.4861  -18.1372   16.5716 C   0  0  0  0  0  0  0  0  0  0  0  0
   11.1579  -17.1647   17.6537 C   0  0  0  0  0  0  0  0  0  0  0  0
   11.0008  -17.8067   18.9809 C   0  0  2  0  0  0  0  0  0  0  0  0
    9.8176  -18.6139   19.0440 N   0  0  0  0  0  0  0  0  0  0  0  0
   11.0611  -16.8255   20.1037 C   0  0  0  0  0  0  0  0  0  0  0  0
   12.0654  -16.0830   20.2040 O   0  0  0  0  0  0  0  0  0  0  0  0
   12.7183  -21.6496   13.7288 N   0  0  0  0  0  0  0  0  0  0  0  0
   10.0317  -16.6921   21.0677 C   0  0  1  0  0  0  0  0  0  0  0  0
   10.1277  -15.7653   22.1509 C   0  0  0  0  0  0  0  0  0  0  0  0
    8.7672  -15.1213   22.4613 C   0  0  0  0  0  0  0  0  0  0  0  0
    8.2124  -14.4392   21.2966 C   0  0  0  0  0  0  0  0  0  0  0  0
    8.8650  -14.2476   20.0998 N   0  0  0  0  0  0  0  0  0  0  0  0
    8.0106  -13.5804   19.2936 C   0  0  0  0  0  0  0  0  0  0  0  0
    6.8774  -13.3694   19.9661 N   0  0  0  0  0  0  0  0  0  0  0  0
    6.9855  -13.8963   21.2120 C   0  0  0  0  0  0  0  0  0  0  0  0
   10.6804  -16.3848   23.3869 O   0  0  0  0  0  0  0  0  0  0  0  0
   10.8817  -15.6868   24.4266 C   0  0  0  0  0  0  0  0  0  0  0  0
   12.9667  -18.2261   24.8788 C   0  0  1  0  0  0  0  0  0  0  0  0
   11.4753  -18.3940   24.6868 N   0  0  0  0  0  0  0  0  0  0  0  0
   11.0092  -17.7563   23.4792 C   0  0  0  0  0  0  0  0  0  0  0  0
   10.7286  -17.9242   25.8851 O   0  0  0  0  0  0  0  0  0  0  0  0
    9.8283  -17.0585   25.7029 O   0  0  0  0  0  0  0  0  0  0  0  0
  2  4  1  0
  2  1  1  0
  3  2  2  0
  5  4  1  0
  5  6  1  0
  7  6  1  0
  7  8  1  0
  8  9  1  6
 10  8  1  0
 10 12  1  0
 11 10  2  0
 13 12  1  0
 13 14  1  6
 15 14  1  0
 15 16  2  0
 17 16  1  0
 18 17  1  0
 19 18  2  0
 19 15  1  0
 20 13  1  0
 21 20  2  0
 23 22  1  6
 23 24  1  0
 23 25  1  0
 24 20  1  0
 25 27  1  0
 26 25  2  0
M  END
$$$$
