RHA.pdb
     RDKit          3D

 27 27  0  0  1  0  0  0  0  0999 V2000
   15.7529  -17.5398   10.3488 N   0  0  0  0  0  0  0  0  0  0  0  0
   16.6314  -18.5827   10.8207 C   0  0  0  0  0  0  0  0  0  0  0  0
   17.7273  -18.7979   10.1915 N   0  0  0  0  0  0  0  0  0  0  0  0
   16.3051  -19.3563   11.9495 N   0  0  0  0  0  0  0  0  0  0  0  0
   14.9677  -19.2503   12.5650 C   0  0  0  0  0  0  0  0  0  0  0  0
   13.9505  -19.9332   11.7275 C   0  0  0  0  0  0  0  0  0  0  0  0
   13.0201  -20.8738   12.4162 C   0  0  0  0  0  0  0  0  0  0  0  0
   11.5959  -20.6216   12.0906 C   0  0  2  0  0  0  0  0  0  0  0  0
   11.4303  -19.4196   11.3267 N   0  0  0  0  0  0  0  0  0  0  0  0
   10.7201  -20.6338   13.2988 C   0  0  0  0  0  0  0  0  0  0  0  0
   10.4508  -19.5468   13.8608 O   0  0  0  0  0  0  0  0  0  0  0  0
   18.3632  -19.5541   10.4849 N   0  0  0  0  0  0  0  0  0  0  0  0
   10.1751  -21.8220   13.8446 C   0  0  2  0  0  0  0  0  0  0  0  0
    9.2874  -21.8004   14.9640 C   0  0  0  0  0  0  0  0  0  0  0  0
    8.3727  -23.0353   14.9793 C   0  0  0  0  0  0  0  0  0  0  0  0
    7.3907  -22.9688   16.0567 C   0  0  0  0  0  0  0  0  0  0  0  0
    6.1294  -22.4273   15.9527 N   0  0  0  0  0  0  0  0  0  0  0  0
    5.5466  -22.5640   17.1638 C   0  0  0  0  0  0  0  0  0  0  0  0
    6.4135  -23.1652   17.9811 N   0  0  0  0  0  0  0  0  0  0  0  0
    7.5641  -23.4237   17.3098 C   0  0  0  0  0  0  0  0  0  0  0  0
   10.0071  -21.6960   16.2632 O   0  0  0  0  0  0  0  0  0  0  0  0
   11.0783  -22.3447   16.4639 C   0  0  0  0  0  0  0  0  0  0  0  0
    9.6661  -19.6540   19.4465 C   0  0  2  0  0  0  0  0  0  0  0  0
   10.2355  -20.7693   18.5973 N   0  0  0  0  0  0  0  0  0  0  0  0
    9.5541  -20.8881   17.3308 C   0  0  0  0  0  0  0  0  0  0  0  0
   10.2435  -22.0559   19.3449 O   0  0  0  0  0  0  0  0  0  0  0  0
    9.2277  -22.7966   19.2321 O   0  0  0  0  0  0  0  0  0  0  0  0
  2  4  1  0
  2  1  1  0
  3  2  2  0
  5  4  1  0
  5  6  1  0
  7  6  1  0
  7  8  1  0
  8  9  1  1
 10  8  1  0
 10 12  1  0
 11 10  2  0
 13 12  1  0
 13 14  1  6
 15 14  1  0
 15 16  2  0
 17 16  1  0
 18 17  1  0
 19 18  2  0
 19 15  1  0
 20 13  1  0
 21 20  2  0
 23 22  1  6
 23 24  1  0
 23 25  1  0
 24 20  1  0
 25 27  1  0
 26 25  2  0
M  END
$$$$
