RHA.pdb
     RDKit          3D

 27 27  0  0  1  0  0  0  0  0999 V2000
    9.4291  -17.4675   12.3085 N   0  0  0  0  0  0  0  0  0  0  0  0
    9.4496  -18.8759   12.6219 C   0  0  0  0  0  0  0  0  0  0  0  0
    9.2846  -19.7215   11.6728 N   0  0  0  0  0  0  0  0  0  0  0  0
    9.6470  -19.3273   13.9396 N   0  0  0  0  0  0  0  0  0  0  0  0
   10.2926  -18.4533   14.9386 C   0  0  0  0  0  0  0  0  0  0  0  0
    9.4089  -17.3121   15.2844 C   0  0  0  0  0  0  0  0  0  0  0  0
    8.7909  -17.3153   16.6419 C   0  0  0  0  0  0  0  0  0  0  0  0
    9.7711  -17.0617   17.7249 C   0  0  2  0  0  0  0  0  0  0  0  0
   10.7495  -18.1061   17.8114 N   0  0  0  0  0  0  0  0  0  0  0  0
    9.1177  -16.8058   19.0420 C   0  0  0  0  0  0  0  0  0  0  0  0
    8.2992  -15.8619   19.1372 O   0  0  0  0  0  0  0  0  0  0  0  0
    9.3154  -20.7347   11.8591 N   0  0  0  0  0  0  0  0  0  0  0  0
    9.3797  -17.5831   20.1970 C   0  0  1  0  0  0  0  0  0  0  0  0
    8.8058  -17.2656   21.4663 C   0  0  0  0  0  0  0  0  0  0  0  0
    8.1099  -18.4862   22.0891 C   0  0  0  0  0  0  0  0  0  0  0  0
    7.1045  -19.0513   21.1951 C   0  0  0  0  0  0  0  0  0  0  0  0
    5.8865  -18.4802   20.9035 N   0  0  0  0  0  0  0  0  0  0  0  0
    5.2622  -19.3138   20.0429 C   0  0  0  0  0  0  0  0  0  0  0  0
    6.0630  -20.3565   19.8134 N   0  0  0  0  0  0  0  0  0  0  0  0
    7.2115  -20.2096   20.5211 C   0  0  0  0  0  0  0  0  0  0  0  0
    9.8044  -16.7172   22.4249 O   0  0  0  0  0  0  0  0  0  0  0  0
    9.4395  -16.2670   23.5531 C   0  0  0  0  0  0  0  0  0  0  0  0
   12.1508  -16.9746   24.3803 C   0  0  2  0  0  0  0  0  0  0  0  0
   12.1820  -16.1959   23.0833 N   0  0  0  0  0  0  0  0  0  0  0  0
   11.1890  -16.6633   22.1465 C   0  0  0  0  0  0  0  0  0  0  0  0
   13.5476  -16.2019   22.4922 O   0  0  0  0  0  0  0  0  0  0  0  0
   14.4745  -15.6808   23.1722 O   0  0  0  0  0  0  0  0  0  0  0  0
  2  4  1  0
  2  1  1  0
  3  2  2  0
  5  4  1  0
  5  6  1  0
  7  6  1  0
  7  8  1  0
  8  9  1  1
 10  8  1  0
 10 12  1  0
 11 10  2  0
 13 12  1  0
 13 14  1  6
 15 14  1  0
 15 16  2  0
 17 16  1  0
 18 17  1  0
 19 18  2  0
 19 15  1  0
 20 13  1  0
 21 20  2  0
 23 22  1  1
 23 24  1  0
 23 25  1  0
 24 20  1  0
 25 27  1  0
 26 25  2  0
M  END
$$$$
