RHA.pdb
     RDKit          3D

 27 27  0  0  1  0  0  0  0  0999 V2000
   10.2168  -13.6079   19.9878 N   0  0  0  0  0  0  0  0  0  0  0  0
    9.2756  -12.7011   19.3761 C   0  0  0  0  0  0  0  0  0  0  0  0
    9.5508  -11.4493   19.3531 N   0  0  0  0  0  0  0  0  0  0  0  0
    8.0750  -13.1676   18.8107 N   0  0  0  0  0  0  0  0  0  0  0  0
    7.5789  -14.5217   19.1254 C   0  0  0  0  0  0  0  0  0  0  0  0
    6.6289  -14.4794   20.2649 C   0  0  0  0  0  0  0  0  0  0  0  0
    7.1627  -14.8361   21.6112 C   0  0  0  0  0  0  0  0  0  0  0  0
    7.2943  -16.2990   21.8127 C   0  0  2  0  0  0  0  0  0  0  0  0
    6.0551  -16.9812   21.5789 N   0  0  0  0  0  0  0  0  0  0  0  0
    7.8731  -16.6452   23.1440 C   0  0  0  0  0  0  0  0  0  0  0  0
    7.1080  -16.7261   24.1329 O   0  0  0  0  0  0  0  0  0  0  0  0
    8.9040  -10.7759   18.9168 N   0  0  0  0  0  0  0  0  0  0  0  0
    9.2542  -16.8880   23.3451 C   0  0  2  0  0  0  0  0  0  0  0  0
    9.7881  -17.1839   24.6370 C   0  0  0  0  0  0  0  0  0  0  0  0
   11.1640  -17.8610   24.5344 C   0  0  0  0  0  0  0  0  0  0  0  0
   11.6706  -18.2596   25.8435 C   0  0  0  0  0  0  0  0  0  0  0  0
   11.3176  -19.4058   26.5191 N   0  0  0  0  0  0  0  0  0  0  0  0
   12.0048  -19.3988   27.6823 C   0  0  0  0  0  0  0  0  0  0  0  0
   12.7510  -18.2931   27.7220 N   0  0  0  0  0  0  0  0  0  0  0  0
   12.5555  -17.5740   26.5879 C   0  0  0  0  0  0  0  0  0  0  0  0
    9.8884  -15.9783   25.5048 O   0  0  0  0  0  0  0  0  0  0  0  0
   10.1538  -14.8424   25.0068 C   0  0  0  0  0  0  0  0  0  0  0  0
    8.4649  -14.0520   27.6871 C   0  0  2  0  0  0  0  0  0  0  0  0
    9.7431  -14.8584   27.7595 N   0  0  0  0  0  0  0  0  0  0  0  0
    9.7000  -16.0204   26.9049 C   0  0  0  0  0  0  0  0  0  0  0  0
   10.0665  -15.2175   29.1669 O   0  0  0  0  0  0  0  0  0  0  0  0
   10.0791  -16.4446   29.4623 O   0  0  0  0  0  0  0  0  0  0  0  0
  2  4  1  0
  2  1  1  0
  3  2  2  0
  5  4  1  0
  5  6  1  0
  7  6  1  0
  7  8  1  0
  8  9  1  1
 10  8  1  0
 10 12  1  0
 11 10  2  0
 13 12  1  0
 13 14  1  6
 15 14  1  0
 15 16  2  0
 17 16  1  0
 18 17  1  0
 19 18  2  0
 19 15  1  0
 20 13  1  0
 21 20  2  0
 23 22  1  6
 23 24  1  0
 23 25  1  0
 24 20  1  0
 25 27  1  0
 26 25  2  0
M  END
$$$$
