RFN.pdb
     RDKit          3D

 31 31  0  0  1  0  0  0  0  0999 V2000
    7.6801  -13.4730   17.5482 N   0  0  0  0  0  0  0  0  0  0  0  0
    8.1139  -14.1610   16.3939 C   0  0  0  0  0  0  0  0  0  0  0  0
    8.5876  -13.4934   15.3853 N   0  0  0  0  0  0  0  0  0  0  0  0
    8.0626  -15.5855   16.2618 N   0  0  0  0  0  0  0  0  0  0  0  0
    8.5701  -16.4804   17.2571 C   0  0  0  0  0  0  0  0  0  0  0  0
    9.9526  -16.0292   17.6521 C   0  0  0  0  0  0  0  0  0  0  0  0
   10.2410  -16.2852   19.1184 C   0  0  0  0  0  0  0  0  0  0  0  0
    8.9337  -16.1673   19.8629 C   0  0  2  0  0  0  0  0  0  0  0  0
    8.0467  -15.2301   19.2095 N   0  0  0  0  0  0  0  0  0  0  0  0
    9.1500  -15.6863   21.2614 C   0  0  0  0  0  0  0  0  0  0  0  0
   10.3117  -15.5326   21.7034 O   0  0  0  0  0  0  0  0  0  0  0  0
    8.8304  -13.9629   14.4811 N   0  0  0  0  0  0  0  0  0  0  0  0
    8.0553  -15.3933   22.1200 C   0  0  1  0  0  0  0  0  0  0  0  0
    8.1335  -14.8130   23.4290 C   0  0  0  0  0  0  0  0  0  0  0  0
    7.0535  -13.8540   23.7617 C   0  0  0  0  0  0  0  0  0  0  0  0
    7.1480  -13.2929   25.1207 C   0  0  0  0  0  0  0  0  0  0  0  0
    7.9727  -12.2032   25.3608 C   0  0  0  0  0  0  0  0  0  0  0  0
    8.0471  -11.6998   26.6411 C   0  0  0  0  0  0  0  0  0  0  0  0
    7.2983  -12.2957   27.6455 C   0  0  0  0  0  0  0  0  0  0  0  0
    6.4758  -13.3783   27.4197 C   0  0  0  0  0  0  0  0  0  0  0  0
    6.4124  -13.8680   26.1401 C   0  0  0  0  0  0  0  0  0  0  0  0
    8.4425  -15.7973   24.4977 O   0  0  0  0  0  0  0  0  0  0  0  0
    7.6198  -16.7089   24.7248 N   0  0  0  0  0  0  0  0  0  0  0  0
   10.6921  -18.7213   24.0411 C   0  0  0  0  0  0  0  0  0  0  0  0
   11.4918  -17.7689   24.6999 O   0  0  0  0  0  0  0  0  0  0  0  0
   12.4364  -17.2197   24.0807 C   0  0  0  0  0  0  0  0  0  0  0  0
   11.2538  -17.3917   26.1072 C   0  0  2  0  0  0  0  0  0  0  0  0
    9.8615  -16.8351   26.2435 N   0  0  0  0  0  0  0  0  0  0  0  0
    9.6202  -15.7562   25.2735 C   0  0  0  0  0  0  0  0  0  0  0  0
    9.6018  -16.3595   27.6197 O   0  0  0  0  0  0  0  0  0  0  0  0
    9.6629  -17.2606   28.6615 O   0  0  0  0  0  0  0  0  0  0  0  0
  2  3  2  0
  2  1  1  0
  4  2  1  0
  5  4  1  0
  6  5  1  0
  7  6  1  0
  8  7  1  0
  8  9  1  6
 10 12  1  0
 10  8  1  0
 11 10  2  0
 13 12  1  0
 13 14  1  1
 15 20  2  0
 15 14  1  0
 16 15  1  0
 17 18  1  0
 17 16  2  0
 18 19  2  0
 19 20  1  0
 21 13  1  0
 21 22  2  0
 24 26  1  0
 24 23  1  0
 25 24  2  0
 27 28  1  0
 27 26  1  6
 28 21  1  0
 29 27  1  0
 30 29  1  0
 31 29  2  0
M  END
$$$$
