RFN.pdb
     RDKit          3D

 31 31  0  0  1  0  0  0  0  0999 V2000
   13.2401  -18.5838   16.2774 N   0  0  0  0  0  0  0  0  0  0  0  0
   11.9616  -19.1832   16.2840 C   0  0  0  0  0  0  0  0  0  0  0  0
   11.4812  -19.6894   15.1886 N   0  0  0  0  0  0  0  0  0  0  0  0
   11.1399  -19.2699   17.4530 N   0  0  0  0  0  0  0  0  0  0  0  0
   11.3494  -18.4618   18.6159 C   0  0  0  0  0  0  0  0  0  0  0  0
   10.2638  -18.7646   19.6161 C   0  0  0  0  0  0  0  0  0  0  0  0
   10.4619  -18.0165   20.9199 C   0  0  0  0  0  0  0  0  0  0  0  0
    9.0934  -17.7178   21.4813 C   0  0  2  0  0  0  0  0  0  0  0  0
    8.1941  -17.2638   20.4435 N   0  0  0  0  0  0  0  0  0  0  0  0
    9.1587  -16.6484   22.5235 C   0  0  0  0  0  0  0  0  0  0  0  0
   10.2441  -16.3848   23.0900 O   0  0  0  0  0  0  0  0  0  0  0  0
   10.5115  -20.0830   15.1443 N   0  0  0  0  0  0  0  0  0  0  0  0
    8.0034  -15.9089   22.8973 C   0  0  1  0  0  0  0  0  0  0  0  0
    7.8635  -15.0812   24.0599 C   0  0  0  0  0  0  0  0  0  0  0  0
    7.0657  -13.8472   23.8660 C   0  0  0  0  0  0  0  0  0  0  0  0
    6.9626  -13.0049   25.0704 C   0  0  0  0  0  0  0  0  0  0  0  0
    7.9988  -12.1430   25.3997 C   0  0  0  0  0  0  0  0  0  0  0  0
    7.8801  -11.3692   26.5334 C   0  0  0  0  0  0  0  0  0  0  0  0
    6.7332  -11.4757   27.3066 C   0  0  0  0  0  0  0  0  0  0  0  0
    5.6973  -12.3279   26.9902 C   0  0  0  0  0  0  0  0  0  0  0  0
    5.8302  -13.0916   25.8586 C   0  0  0  0  0  0  0  0  0  0  0  0
    7.5433  -15.8413   25.2953 O   0  0  0  0  0  0  0  0  0  0  0  0
    6.4371  -16.4157   25.3721 N   0  0  0  0  0  0  0  0  0  0  0  0
    7.7668  -19.8438   28.1882 C   0  0  0  0  0  0  0  0  0  0  0  0
    8.4234  -19.6494   26.9587 O   0  0  0  0  0  0  0  0  0  0  0  0
    9.1460  -20.5644   26.4920 C   0  0  0  0  0  0  0  0  0  0  0  0
    8.2888  -18.3939   26.1939 C   0  0  1  0  0  0  0  0  0  0  0  0
    8.4901  -17.2241   27.1200 N   0  0  0  0  0  0  0  0  0  0  0  0
    8.4254  -15.9484   26.3911 C   0  0  0  0  0  0  0  0  0  0  0  0
    9.7673  -17.3326   27.8581 O   0  0  0  0  0  0  0  0  0  0  0  0
    9.7852  -17.0542   29.2084 O   0  0  0  0  0  0  0  0  0  0  0  0
  2  3  2  0
  2  1  1  0
  4  2  1  0
  5  4  1  0
  6  5  1  0
  7  6  1  0
  8  7  1  0
  8  9  1  6
 10 12  1  0
 10  8  1  0
 11 10  2  0
 13 12  1  0
 13 14  1  6
 15 20  2  0
 15 14  1  0
 16 15  1  0
 17 18  1  0
 17 16  2  0
 18 19  2  0
 19 20  1  0
 21 13  1  0
 21 22  2  0
 24 26  1  0
 24 23  1  0
 25 24  2  0
 27 28  1  0
 27 26  1  1
 28 21  1  0
 29 27  1  0
 30 29  1  0
 31 29  2  0
M  END
$$$$
