RFN.pdb
     RDKit          3D

 31 31  0  0  1  0  0  0  0  0999 V2000
    8.7530  -19.8210   17.1696 N   0  0  0  0  0  0  0  0  0  0  0  0
    7.9150  -20.9339   17.4001 C   0  0  0  0  0  0  0  0  0  0  0  0
    7.5450  -21.6799   16.4032 N   0  0  0  0  0  0  0  0  0  0  0  0
    7.4345  -21.3010   18.6977 N   0  0  0  0  0  0  0  0  0  0  0  0
    7.6277  -20.4884   19.8602 C   0  0  0  0  0  0  0  0  0  0  0  0
    8.9074  -19.7095   19.6973 C   0  0  0  0  0  0  0  0  0  0  0  0
    9.1853  -18.8103   20.8861 C   0  0  0  0  0  0  0  0  0  0  0  0
    8.7541  -17.4147   20.5069 C   0  0  2  0  0  0  0  0  0  0  0  0
    9.4419  -16.9639   19.3171 N   0  0  0  0  0  0  0  0  0  0  0  0
    9.0546  -16.4407   21.6001 C   0  0  0  0  0  0  0  0  0  0  0  0
   10.2223  -16.0200   21.7671 O   0  0  0  0  0  0  0  0  0  0  0  0
    6.9049  -22.4980   16.5372 N   0  0  0  0  0  0  0  0  0  0  0  0
    8.0347  -15.9701   22.4717 C   0  0  2  0  0  0  0  0  0  0  0  0
    8.2208  -15.1469   23.6311 C   0  0  0  0  0  0  0  0  0  0  0  0
    7.0050  -14.4506   24.1146 C   0  0  0  0  0  0  0  0  0  0  0  0
    7.2262  -13.6198   25.3110 C   0  0  0  0  0  0  0  0  0  0  0  0
    7.2383  -14.2092   26.5671 C   0  0  0  0  0  0  0  0  0  0  0  0
    7.4426  -13.4099   27.6705 C   0  0  0  0  0  0  0  0  0  0  0  0
    7.6290  -12.0468   27.4917 C   0  0  0  0  0  0  0  0  0  0  0  0
    7.6190  -11.4496   26.2496 C   0  0  0  0  0  0  0  0  0  0  0  0
    7.4145  -12.2585   25.1610 C   0  0  0  0  0  0  0  0  0  0  0  0
    9.0321  -15.7931   24.6945 O   0  0  0  0  0  0  0  0  0  0  0  0
    8.7368  -16.9541   25.0472 N   0  0  0  0  0  0  0  0  0  0  0  0
   13.9284  -17.5797   25.5280 C   0  0  0  0  0  0  0  0  0  0  0  0
   13.6170  -16.3051   26.0367 O   0  0  0  0  0  0  0  0  0  0  0  0
   14.2531  -15.8609   27.0243 C   0  0  0  0  0  0  0  0  0  0  0  0
   12.5578  -15.4665   25.4415 C   0  0  1  0  0  0  0  0  0  0  0  0
   11.2116  -15.9994   25.8544 N   0  0  0  0  0  0  0  0  0  0  0  0
   10.1219  -15.1620   25.3304 C   0  0  0  0  0  0  0  0  0  0  0  0
   11.1067  -16.1224   27.3246 O   0  0  0  0  0  0  0  0  0  0  0  0
   10.5623  -15.0809   28.0458 O   0  0  0  0  0  0  0  0  0  0  0  0
  2  3  2  0
  2  1  1  0
  4  2  1  0
  5  4  1  0
  6  5  1  0
  7  6  1  0
  8  7  1  0
  8  9  1  6
 10 12  1  0
 10  8  1  0
 11 10  2  0
 13 12  1  0
 13 14  1  6
 15 20  2  0
 15 14  1  0
 16 15  1  0
 17 18  1  0
 17 16  2  0
 18 19  2  0
 19 20  1  0
 21 13  1  0
 21 22  2  0
 24 26  1  0
 24 23  1  0
 25 24  2  0
 27 28  1  0
 27 26  1  6
 28 21  1  0
 29 27  1  0
 30 29  1  0
 31 29  2  0
M  END
$$$$
