RFN.pdb
     RDKit          3D

 31 31  0  0  1  0  0  0  0  0999 V2000
   11.7249  -22.7716   19.5365 N   0  0  0  0  0  0  0  0  0  0  0  0
   10.7266  -22.4021   18.6086 C   0  0  0  0  0  0  0  0  0  0  0  0
   10.2756  -23.2792   17.7634 N   0  0  0  0  0  0  0  0  0  0  0  0
   10.1660  -21.0868   18.5390 N   0  0  0  0  0  0  0  0  0  0  0  0
   10.7136  -19.9667   19.2423 C   0  0  0  0  0  0  0  0  0  0  0  0
    9.6342  -19.3622   20.1025 C   0  0  0  0  0  0  0  0  0  0  0  0
   10.1348  -18.1715   20.8965 C   0  0  0  0  0  0  0  0  0  0  0  0
    9.1170  -17.0677   20.7449 C   0  0  2  0  0  0  0  0  0  0  0  0
    9.3075  -16.3528   19.5022 N   0  0  0  0  0  0  0  0  0  0  0  0
    9.2250  -16.0766   21.8586 C   0  0  0  0  0  0  0  0  0  0  0  0
   10.2810  -15.4233   22.0217 O   0  0  0  0  0  0  0  0  0  0  0  0
    9.5205  -23.0431   17.0770 N   0  0  0  0  0  0  0  0  0  0  0  0
    8.1443  -15.8505   22.7543 C   0  0  2  0  0  0  0  0  0  0  0  0
    8.1820  -15.0573   23.9484 C   0  0  0  0  0  0  0  0  0  0  0  0
    6.9365  -14.3145   24.2543 C   0  0  0  0  0  0  0  0  0  0  0  0
    7.0305  -13.4515   25.4447 C   0  0  0  0  0  0  0  0  0  0  0  0
    7.3274  -12.1041   25.2978 C   0  0  0  0  0  0  0  0  0  0  0  0
    7.4140  -11.3193   26.4267 C   0  0  0  0  0  0  0  0  0  0  0  0
    7.2026  -11.8984   27.6696 C   0  0  0  0  0  0  0  0  0  0  0  0
    6.9072  -13.2351   27.8286 C   0  0  0  0  0  0  0  0  0  0  0  0
    6.8243  -14.0034   26.6953 C   0  0  0  0  0  0  0  0  0  0  0  0
    8.7889  -15.7588   25.1086 O   0  0  0  0  0  0  0  0  0  0  0  0
    8.2170  -16.7742   25.5573 N   0  0  0  0  0  0  0  0  0  0  0  0
   13.0303  -15.7585   24.3288 C   0  0  0  0  0  0  0  0  0  0  0  0
   12.4427  -16.6536   25.2421 O   0  0  0  0  0  0  0  0  0  0  0  0
   12.2105  -17.8357   24.8871 C   0  0  0  0  0  0  0  0  0  0  0  0
   12.0878  -16.2442   26.6153 C   0  0  2  0  0  0  0  0  0  0  0  0
   10.5888  -16.2079   26.7509 N   0  0  0  0  0  0  0  0  0  0  0  0
    9.9813  -15.3367   25.7336 C   0  0  0  0  0  0  0  0  0  0  0  0
   10.1789  -15.7818   28.1067 O   0  0  0  0  0  0  0  0  0  0  0  0
   10.5973  -16.5186   29.1944 O   0  0  0  0  0  0  0  0  0  0  0  0
  2  3  2  0
  2  1  1  0
  4  2  1  0
  5  4  1  0
  6  5  1  0
  7  6  1  0
  8  7  1  0
  8  9  1  6
 10 12  1  0
 10  8  1  0
 11 10  2  0
 13 12  1  0
 13 14  1  6
 15 20  2  0
 15 14  1  0
 16 15  1  0
 17 18  1  0
 17 16  2  0
 18 19  2  0
 19 20  1  0
 21 13  1  0
 21 22  2  0
 24 26  1  0
 24 23  1  0
 25 24  2  0
 27 28  1  0
 27 26  1  6
 28 21  1  0
 29 27  1  0
 30 29  1  0
 31 29  2  0
M  END
$$$$
