RFN.pdb
     RDKit          3D

 31 31  0  0  1  0  0  0  0  0999 V2000
    8.2483  -14.6399   13.9239 N   0  0  0  0  0  0  0  0  0  0  0  0
    8.1784  -14.2957   15.2916 C   0  0  0  0  0  0  0  0  0  0  0  0
    8.1284  -13.0454   15.6400 N   0  0  0  0  0  0  0  0  0  0  0  0
    8.1591  -15.2637   16.3461 N   0  0  0  0  0  0  0  0  0  0  0  0
    9.3477  -15.8336   16.9042 C   0  0  0  0  0  0  0  0  0  0  0  0
    8.9539  -16.8272   17.9664 C   0  0  0  0  0  0  0  0  0  0  0  0
    9.3943  -16.3905   19.3500 C   0  0  0  0  0  0  0  0  0  0  0  0
    8.1478  -16.1651   20.1701 C   0  0  2  0  0  0  0  0  0  0  0  0
    7.2144  -15.3089   19.4718 N   0  0  0  0  0  0  0  0  0  0  0  0
    8.4708  -15.5129   21.4757 C   0  0  0  0  0  0  0  0  0  0  0  0
    9.3716  -14.6453   21.5419 O   0  0  0  0  0  0  0  0  0  0  0  0
    8.1650  -12.7533   16.6452 N   0  0  0  0  0  0  0  0  0  0  0  0
    7.7727  -15.8555   22.6659 C   0  0  1  0  0  0  0  0  0  0  0  0
    7.9658  -15.2731   23.9620 C   0  0  0  0  0  0  0  0  0  0  0  0
    6.7693  -14.6246   24.5491 C   0  0  0  0  0  0  0  0  0  0  0  0
    7.0584  -13.7879   25.7268 C   0  0  0  0  0  0  0  0  0  0  0  0
    7.2948  -14.3860   26.9562 C   0  0  0  0  0  0  0  0  0  0  0  0
    7.5584  -13.5815   28.0431 C   0  0  0  0  0  0  0  0  0  0  0  0
    7.5791  -12.2045   27.8747 C   0  0  0  0  0  0  0  0  0  0  0  0
    7.3459  -11.5986   26.6590 C   0  0  0  0  0  0  0  0  0  0  0  0
    7.0850  -12.4129   25.5866 C   0  0  0  0  0  0  0  0  0  0  0  0
    8.7239  -16.1432   24.8973 O   0  0  0  0  0  0  0  0  0  0  0  0
    8.2155  -17.2293   25.2459 N   0  0  0  0  0  0  0  0  0  0  0  0
   12.6650  -18.6435   24.3896 C   0  0  0  0  0  0  0  0  0  0  0  0
   12.4353  -17.2785   24.6437 O   0  0  0  0  0  0  0  0  0  0  0  0
   12.4525  -16.4605   23.6908 C   0  0  0  0  0  0  0  0  0  0  0  0
   12.1725  -16.7733   26.0057 C   0  0  2  0  0  0  0  0  0  0  0  0
   10.6890  -16.7858   26.2624 N   0  0  0  0  0  0  0  0  0  0  0  0
    9.9920  -15.8060   25.4154 C   0  0  0  0  0  0  0  0  0  0  0  0
   10.3853  -16.5430   27.6894 O   0  0  0  0  0  0  0  0  0  0  0  0
    9.5440  -15.5041   28.0268 O   0  0  0  0  0  0  0  0  0  0  0  0
  2  3  2  0
  2  1  1  0
  4  2  1  0
  5  4  1  0
  6  5  1  0
  7  6  1  0
  8  7  1  0
  8  9  1  6
 10 12  1  0
 10  8  1  0
 11 10  2  0
 13 12  1  0
 13 14  1  1
 15 20  2  0
 15 14  1  0
 16 15  1  0
 17 18  1  0
 17 16  2  0
 18 19  2  0
 19 20  1  0
 21 13  1  0
 21 22  2  0
 24 26  1  0
 24 23  1  0
 25 24  2  0
 27 28  1  0
 27 26  1  6
 28 21  1  0
 29 27  1  0
 30 29  1  0
 31 29  2  0
M  END
$$$$
