TIK.pdb
     RDKit          3D

 25 24  0  0  1  0  0  0  0  0999 V2000
    6.0940  -16.3402   19.7583 C   0  0  0  0  0  0  0  0  0  0  0  0
    6.8370  -16.1692   21.0745 C   0  0  1  0  0  0  0  0  0  0  0  0
    7.8881  -17.0545   21.1706 O   0  0  0  0  0  0  0  0  0  0  0  0
    7.2625  -14.7334   21.1615 C   0  0  2  0  0  0  0  0  0  0  0  0
    8.0734  -14.3271   20.0485 N   0  0  0  0  0  0  0  0  0  0  0  0
    7.9777  -14.4210   22.4277 C   0  0  0  0  0  0  0  0  0  0  0  0
    9.2420  -14.3137   22.4431 O   0  0  0  0  0  0  0  0  0  0  0  0
    5.8503  -11.3022   26.4623 C   0  0  0  0  0  0  0  0  0  0  0  0
    6.8831  -11.9688   25.6106 C   0  0  0  0  0  0  0  0  0  0  0  0
    7.2129  -13.3684   25.9480 C   0  0  2  0  0  0  0  0  0  0  0  0
    8.0688  -13.3257   27.2252 C   0  0  0  0  0  0  0  0  0  0  0  0
    8.0088  -14.1214   24.9380 C   0  0  2  0  0  0  0  0  0  0  0  0
    7.3164  -14.2276   23.6667 N   0  0  0  0  0  0  0  0  0  0  0  0
    8.4761  -15.4359   25.4325 C   0  0  0  0  0  0  0  0  0  0  0  0
    7.5894  -16.3403   25.5186 O   0  0  0  0  0  0  0  0  0  0  0  0
    9.7900  -15.7308   25.7979 N   0  0  0  0  0  0  0  0  0  0  0  0
   10.1382  -17.1308   26.0746 C   0  0  1  0  0  0  0  0  0  0  0  0
   11.4445  -17.4856   25.3930 C   0  0  0  0  0  0  0  0  0  0  0  0
   11.9310  -18.8604   25.7328 C   0  0  0  0  0  0  0  0  0  0  0  0
   13.2376  -19.1840   25.0483 C   0  0  0  0  0  0  0  0  0  0  0  0
   13.6901  -20.5706   25.4093 C   0  0  0  0  0  0  0  0  0  0  0  0
   13.5522  -21.4621   24.2834 N   0  0  0  0  0  0  0  0  0  0  0  0
   10.1896  -17.3029   27.5468 C   0  0  0  0  0  0  0  0  0  0  0  0
   10.1861  -18.5257   28.1972 O   0  0  0  0  0  0  0  0  0  0  0  0
   10.2415  -16.2879   28.3257 O   0  0  0  0  0  0  0  0  0  0  0  0
  2  1  1  6
  2  3  1  0
  4  5  1  6
  4  2  1  0
  6  4  1  0
  7  6  2  0
  8  9  1  0
 10 11  1  1
 10  9  1  0
 10 12  1  0
 12 13  1  6
 13  6  1  0
 14 12  1  0
 14 15  2  0
 16 14  1  0
 17 16  1  0
 17 18  1  6
 19 18  1  0
 20 19  1  0
 21 20  1  0
 22 21  1  0
 23 24  1  0
 23 17  1  0
 25 23  2  0
M  END
$$$$
