TIK.pdb
     RDKit          3D

 25 24  0  0  1  0  0  0  0  0999 V2000
    6.4721  -17.0266   21.8013 C   0  0  0  0  0  0  0  0  0  0  0  0
    7.3414  -16.2941   20.7906 C   0  0  1  0  0  0  0  0  0  0  0  0
    6.9216  -16.5417   19.5021 O   0  0  0  0  0  0  0  0  0  0  0  0
    7.3139  -14.8387   21.1528 C   0  0  2  0  0  0  0  0  0  0  0  0
    7.9189  -14.0067   20.1512 N   0  0  0  0  0  0  0  0  0  0  0  0
    7.9497  -14.5612   22.4686 C   0  0  0  0  0  0  0  0  0  0  0  0
    9.2112  -14.4650   22.5662 O   0  0  0  0  0  0  0  0  0  0  0  0
    5.5528  -11.4759   26.4346 C   0  0  0  0  0  0  0  0  0  0  0  0
    6.5743  -12.1432   25.5697 C   0  0  0  0  0  0  0  0  0  0  0  0
    6.9442  -13.5260   25.9334 C   0  0  2  0  0  0  0  0  0  0  0  0
    7.7237  -13.4421   27.2566 C   0  0  0  0  0  0  0  0  0  0  0  0
    7.8277  -14.2472   24.9743 C   0  0  2  0  0  0  0  0  0  0  0  0
    7.2126  -14.3901   23.6674 N   0  0  0  0  0  0  0  0  0  0  0  0
    8.3248  -15.5372   25.5032 C   0  0  0  0  0  0  0  0  0  0  0  0
    7.4503  -16.4447   25.6567 O   0  0  0  0  0  0  0  0  0  0  0  0
    9.6535  -15.8068   25.8325 N   0  0  0  0  0  0  0  0  0  0  0  0
   10.0020  -17.1674   26.2628 C   0  0  1  0  0  0  0  0  0  0  0  0
   11.1815  -17.6797   25.4608 C   0  0  0  0  0  0  0  0  0  0  0  0
   10.9879  -19.0761   24.9562 C   0  0  0  0  0  0  0  0  0  0  0  0
   12.1590  -19.5460   24.1266 C   0  0  0  0  0  0  0  0  0  0  0  0
   11.9459  -20.9622   23.6720 C   0  0  0  0  0  0  0  0  0  0  0  0
   13.0986  -21.4466   22.9524 N   0  0  0  0  0  0  0  0  0  0  0  0
   10.2688  -17.1277   27.7211 C   0  0  0  0  0  0  0  0  0  0  0  0
   10.3511  -18.2436   28.5373 O   0  0  0  0  0  0  0  0  0  0  0  0
   10.4440  -16.0133   28.3270 O   0  0  0  0  0  0  0  0  0  0  0  0
  2  1  1  1
  2  3  1  0
  4  5  1  6
  4  2  1  0
  6  4  1  0
  7  6  2  0
  8  9  1  0
 10 11  1  1
 10  9  1  0
 10 12  1  0
 12 13  1  6
 13  6  1  0
 14 12  1  0
 14 15  2  0
 16 14  1  0
 17 16  1  0
 17 18  1  6
 19 18  1  0
 20 19  1  0
 21 20  1  0
 22 21  1  0
 23 24  1  0
 23 17  1  0
 25 23  2  0
M  END
$$$$
