TIK.pdb
     RDKit          3D

 25 24  0  0  1  0  0  0  0  0999 V2000
    6.5126  -17.3123   22.4612 C   0  0  0  0  0  0  0  0  0  0  0  0
    7.3417  -16.6902   21.3480 C   0  0  1  0  0  0  0  0  0  0  0  0
    6.8524  -17.0403   20.1087 O   0  0  0  0  0  0  0  0  0  0  0  0
    7.3582  -15.2085   21.5809 C   0  0  2  0  0  0  0  0  0  0  0  0
    7.9422  -14.4821   20.4888 N   0  0  0  0  0  0  0  0  0  0  0  0
    8.0487  -14.8322   22.8435 C   0  0  0  0  0  0  0  0  0  0  0  0
    9.3156  -14.7847   22.8946 O   0  0  0  0  0  0  0  0  0  0  0  0
    5.7035  -11.2432   26.3061 C   0  0  0  0  0  0  0  0  0  0  0  0
    6.7415  -12.0089   25.5492 C   0  0  0  0  0  0  0  0  0  0  0  0
    7.1822  -13.2871   26.1437 C   0  0  2  0  0  0  0  0  0  0  0  0
    8.0418  -12.9322   27.3687 C   0  0  0  0  0  0  0  0  0  0  0  0
    8.0269  -14.1603   25.2807 C   0  0  2  0  0  0  0  0  0  0  0  0
    7.3598  -14.5105   24.0400 N   0  0  0  0  0  0  0  0  0  0  0  0
    8.5453  -15.3500   25.9927 C   0  0  0  0  0  0  0  0  0  0  0  0
    7.6685  -16.1590   26.4270 O   0  0  0  0  0  0  0  0  0  0  0  0
    9.8957  -15.6264   26.2083 N   0  0  0  0  0  0  0  0  0  0  0  0
   10.2527  -16.9025   26.8421 C   0  0  1  0  0  0  0  0  0  0  0  0
   11.4617  -17.5040   26.1539 C   0  0  0  0  0  0  0  0  0  0  0  0
   11.2588  -17.7139   24.6853 C   0  0  0  0  0  0  0  0  0  0  0  0
   12.4801  -18.3068   24.0239 C   0  0  0  0  0  0  0  0  0  0  0  0
   12.2366  -18.5070   22.5548 C   0  0  0  0  0  0  0  0  0  0  0  0
   11.4821  -19.7145   22.3221 N   0  0  0  0  0  0  0  0  0  0  0  0
   10.4784  -16.6449   28.2851 C   0  0  0  0  0  0  0  0  0  0  0  0
   10.4612  -15.3911   28.8732 O   0  0  0  0  0  0  0  0  0  0  0  0
   10.7110  -17.6081   29.0961 O   0  0  0  0  0  0  0  0  0  0  0  0
  2  1  1  1
  2  3  1  0
  4  5  1  6
  4  2  1  0
  6  4  1  0
  7  6  2  0
  8  9  1  0
 10 11  1  1
 10  9  1  0
 10 12  1  0
 12 13  1  6
 13  6  1  0
 14 12  1  0
 14 15  2  0
 16 14  1  0
 17 16  1  0
 17 18  1  6
 19 18  1  0
 20 19  1  0
 21 20  1  0
 22 21  1  0
 23 24  1  0
 23 17  1  0
 25 23  2  0
M  END
$$$$
