TIK.pdb
     RDKit          3D

 25 24  0  0  1  0  0  0  0  0999 V2000
    6.3544  -14.9511   19.0947 C   0  0  0  0  0  0  0  0  0  0  0  0
    7.0074  -15.0751   20.4629 C   0  0  1  0  0  0  0  0  0  0  0  0
    8.0815  -15.9368   20.4247 O   0  0  0  0  0  0  0  0  0  0  0  0
    7.3748  -13.6903   20.9072 C   0  0  2  0  0  0  0  0  0  0  0  0
    8.2456  -13.0236   19.9807 N   0  0  0  0  0  0  0  0  0  0  0  0
    7.9897  -13.6648   22.2614 C   0  0  0  0  0  0  0  0  0  0  0  0
    9.2510  -13.6285   22.3949 O   0  0  0  0  0  0  0  0  0  0  0  0
    5.5537  -11.1949   26.5426 C   0  0  0  0  0  0  0  0  0  0  0  0
    6.6374  -11.7412   25.6687 C   0  0  0  0  0  0  0  0  0  0  0  0
    6.9556  -13.1743   25.8307 C   0  0  2  0  0  0  0  0  0  0  0  0
    7.7250  -13.3096   27.1556 C   0  0  0  0  0  0  0  0  0  0  0  0
    7.8226  -13.7811   24.7815 C   0  0  2  0  0  0  0  0  0  0  0  0
    7.2319  -13.6789   23.4595 N   0  0  0  0  0  0  0  0  0  0  0  0
    8.2385  -15.1646   25.1034 C   0  0  0  0  0  0  0  0  0  0  0  0
    7.3882  -16.0711   24.8444 O   0  0  0  0  0  0  0  0  0  0  0  0
    9.4689  -15.5207   25.6567 N   0  0  0  0  0  0  0  0  0  0  0  0
    9.7883  -16.9488   25.7834 C   0  0  1  0  0  0  0  0  0  0  0  0
   10.7763  -17.3574   24.7092 C   0  0  0  0  0  0  0  0  0  0  0  0
   11.1868  -18.7943   24.8032 C   0  0  0  0  0  0  0  0  0  0  0  0
   12.2065  -19.1620   23.7517 C   0  0  0  0  0  0  0  0  0  0  0  0
   12.5880  -20.6101   23.8739 C   0  0  0  0  0  0  0  0  0  0  0  0
   13.6667  -20.9320   22.9717 N   0  0  0  0  0  0  0  0  0  0  0  0
   10.2998  -17.1792   27.1562 C   0  0  0  0  0  0  0  0  0  0  0  0
   10.4104  -18.4222   27.7571 O   0  0  0  0  0  0  0  0  0  0  0  0
   10.6813  -16.2003   27.8883 O   0  0  0  0  0  0  0  0  0  0  0  0
  2  1  1  6
  2  3  1  0
  4  5  1  6
  4  2  1  0
  6  4  1  0
  7  6  2  0
  8  9  1  0
 10 11  1  1
 10  9  1  0
 10 12  1  0
 12 13  1  6
 13  6  1  0
 14 12  1  0
 14 15  2  0
 16 14  1  0
 17 16  1  0
 17 18  1  6
 19 18  1  0
 20 19  1  0
 21 20  1  0
 22 21  1  0
 23 24  1  0
 23 17  1  0
 25 23  2  0
M  END
$$$$
