TIK.pdb
     RDKit          3D

 25 24  0  0  1  0  0  0  0  0999 V2000
    5.6904  -16.3064   19.7053 C   0  0  0  0  0  0  0  0  0  0  0  0
    6.5214  -16.2455   20.9779 C   0  0  1  0  0  0  0  0  0  0  0  0
    7.5422  -17.1701   20.9497 O   0  0  0  0  0  0  0  0  0  0  0  0
    7.0056  -14.8335   21.1254 C   0  0  2  0  0  0  0  0  0  0  0  0
    7.8106  -14.4047   20.0165 N   0  0  0  0  0  0  0  0  0  0  0  0
    7.7570  -14.6120   22.3899 C   0  0  0  0  0  0  0  0  0  0  0  0
    9.0259  -14.6059   22.3918 O   0  0  0  0  0  0  0  0  0  0  0  0
    5.5724  -11.5653   26.5699 C   0  0  0  0  0  0  0  0  0  0  0  0
    6.5432  -12.1730   25.6082 C   0  0  0  0  0  0  0  0  0  0  0  0
    7.0157  -13.5368   25.9215 C   0  0  2  0  0  0  0  0  0  0  0  0
    7.8981  -13.4221   27.1761 C   0  0  0  0  0  0  0  0  0  0  0  0
    7.8528  -14.2007   24.8826 C   0  0  2  0  0  0  0  0  0  0  0  0
    7.1265  -14.3991   23.6416 N   0  0  0  0  0  0  0  0  0  0  0  0
    8.4911  -15.4467   25.3631 C   0  0  0  0  0  0  0  0  0  0  0  0
    7.7043  -16.4153   25.5970 O   0  0  0  0  0  0  0  0  0  0  0  0
    9.8609  -15.6150   25.5678 N   0  0  0  0  0  0  0  0  0  0  0  0
   10.3705  -16.9755   25.7850 C   0  0  1  0  0  0  0  0  0  0  0  0
   11.5780  -17.2247   24.9036 C   0  0  0  0  0  0  0  0  0  0  0  0
   12.1764  -18.5837   25.0961 C   0  0  0  0  0  0  0  0  0  0  0  0
   13.4832  -18.7372   24.3549 C   0  0  0  0  0  0  0  0  0  0  0  0
   13.2424  -19.2704   22.9709 C   0  0  0  0  0  0  0  0  0  0  0  0
   14.4891  -19.4425   22.2658 N   0  0  0  0  0  0  0  0  0  0  0  0
   10.6702  -17.1223   27.2301 C   0  0  0  0  0  0  0  0  0  0  0  0
   10.9306  -18.3270   27.8618 O   0  0  0  0  0  0  0  0  0  0  0  0
   10.7048  -16.1007   28.0012 O   0  0  0  0  0  0  0  0  0  0  0  0
  2  1  1  6
  2  3  1  0
  4  5  1  6
  4  2  1  0
  6  4  1  0
  7  6  2  0
  8  9  1  0
 10 11  1  1
 10  9  1  0
 10 12  1  0
 12 13  1  6
 13  6  1  0
 14 12  1  0
 14 15  2  0
 16 14  1  0
 17 16  1  0
 17 18  1  6
 19 18  1  0
 20 19  1  0
 21 20  1  0
 22 21  1  0
 23 24  1  0
 23 17  1  0
 25 23  2  0
M  END
$$$$
