TIK.pdb
     RDKit          3D

 25 24  0  0  1  0  0  0  0  0999 V2000
    6.3487  -16.6992   21.4345 C   0  0  0  0  0  0  0  0  0  0  0  0
    7.2852  -15.9442   20.5036 C   0  0  1  0  0  0  0  0  0  0  0  0
    6.9081  -16.0976   19.1875 O   0  0  0  0  0  0  0  0  0  0  0  0
    7.2995  -14.5130   20.9522 C   0  0  2  0  0  0  0  0  0  0  0  0
    7.9309  -13.6406   20.0026 N   0  0  0  0  0  0  0  0  0  0  0  0
    7.9400  -14.3334   22.2826 C   0  0  0  0  0  0  0  0  0  0  0  0
    9.2039  -14.2950   22.3885 O   0  0  0  0  0  0  0  0  0  0  0  0
    5.5898  -11.3052   26.2704 C   0  0  0  0  0  0  0  0  0  0  0  0
    6.5719  -11.9955   25.3784 C   0  0  0  0  0  0  0  0  0  0  0  0
    6.9683  -13.3638   25.7682 C   0  0  2  0  0  0  0  0  0  0  0  0
    7.7964  -13.2340   27.0579 C   0  0  0  0  0  0  0  0  0  0  0  0
    7.8218  -14.1058   24.7979 C   0  0  2  0  0  0  0  0  0  0  0  0
    7.2049  -14.1969   23.4871 N   0  0  0  0  0  0  0  0  0  0  0  0
    8.2593  -15.4263   25.3038 C   0  0  0  0  0  0  0  0  0  0  0  0
    7.3317  -16.2550   25.5579 O   0  0  0  0  0  0  0  0  0  0  0  0
    9.5867  -15.8024   25.5114 N   0  0  0  0  0  0  0  0  0  0  0  0
    9.8579  -17.1655   25.9871 C   0  0  1  0  0  0  0  0  0  0  0  0
   10.9842  -17.7821   25.1818 C   0  0  0  0  0  0  0  0  0  0  0  0
   10.6861  -17.8588   23.7164 C   0  0  0  0  0  0  0  0  0  0  0  0
   11.8098  -18.5069   22.9431 C   0  0  0  0  0  0  0  0  0  0  0  0
   11.5438  -18.4296   21.4664 C   0  0  0  0  0  0  0  0  0  0  0  0
   12.5871  -19.0941   20.7240 N   0  0  0  0  0  0  0  0  0  0  0  0
   10.1598  -17.0884   27.4370 C   0  0  0  0  0  0  0  0  0  0  0  0
   10.3602  -15.9109   28.1381 O   0  0  0  0  0  0  0  0  0  0  0  0
   10.2554  -18.1505   28.1458 O   0  0  0  0  0  0  0  0  0  0  0  0
  2  1  1  1
  2  3  1  0
  4  5  1  6
  4  2  1  0
  6  4  1  0
  7  6  2  0
  8  9  1  0
 10 11  1  1
 10  9  1  0
 10 12  1  0
 12 13  1  6
 13  6  1  0
 14 12  1  0
 14 15  2  0
 16 14  1  0
 17 16  1  0
 17 18  1  6
 19 18  1  0
 20 19  1  0
 21 20  1  0
 22 21  1  0
 23 24  1  0
 23 17  1  0
 25 23  2  0
M  END
$$$$
