MFE.pdb
     RDKit          3D

 29 29  0  0  1  0  0  0  0  0999 V2000
   30.2902  -17.4957  -18.6990 C   0  0  0  0  0  0  0  0  0  0  0  0
   28.7719  -16.8774  -17.9233 S   0  0  0  0  0  0  0  0  0  0  0  0
   27.3822  -17.7918  -18.6477 C   0  0  0  0  0  0  0  0  0  0  0  0
   26.7324  -18.5757  -17.5219 C   0  0  0  0  0  0  0  0  0  0  0  0
   27.5539  -19.7833  -17.1210 C   0  0  2  0  0  0  0  0  0  0  0  0
   27.4896  -20.7349  -18.2094 N   0  0  0  0  0  0  0  0  0  0  0  0
   26.9417  -20.3456  -15.9002 C   0  0  0  0  0  0  0  0  0  0  0  0
   25.9538  -21.1038  -16.0427 O   0  0  0  0  0  0  0  0  0  0  0  0
   27.3760  -20.1007  -14.5844 N   0  0  0  0  0  0  0  0  0  0  0  0
   26.6445  -20.5103  -13.4385 C   0  0  1  0  0  0  0  0  0  0  0  0
   27.3049  -20.2512  -12.1263 C   0  0  0  0  0  0  0  0  0  0  0  0
   26.4672  -20.5039  -10.9535 C   0  0  0  0  0  0  0  0  0  0  0  0
   25.9645  -21.7858  -10.6965 C   0  0  0  0  0  0  0  0  0  0  0  0
   25.1736  -22.0621   -9.6020 C   0  0  0  0  0  0  0  0  0  0  0  0
   24.8435  -21.0653   -8.7043 C   0  0  0  0  0  0  0  0  0  0  0  0
   25.3238  -19.8050   -8.9359 C   0  0  0  0  0  0  0  0  0  0  0  0
   26.1159  -19.5433  -10.0380 C   0  0  0  0  0  0  0  0  0  0  0  0
   25.2790  -19.9426  -13.4235 C   0  0  0  0  0  0  0  0  0  0  0  0
   25.1323  -18.6730  -13.4696 O   0  0  0  0  0  0  0  0  0  0  0  0
   24.1000  -20.7041  -13.3650 N   0  0  0  0  0  0  0  0  0  0  0  0
   22.7524  -20.1278  -13.3194 C   0  0  1  0  0  0  0  0  0  0  0  0
   22.1228  -20.2192  -14.6917 C   0  0  0  0  0  0  0  0  0  0  0  0
   20.7222  -19.6952  -14.6444 C   0  0  0  0  0  0  0  0  0  0  0  0
   20.2126  -19.5211  -16.0392 C   0  0  0  0  0  0  0  0  0  0  0  0
   20.8926  -19.9402  -16.9848 O   0  0  0  0  0  0  0  0  0  0  0  0
   21.9690  -20.9226  -12.3708 C   0  0  0  0  0  0  0  0  0  0  0  0
   22.2417  -22.2686  -12.1982 O   0  0  0  0  0  0  0  0  0  0  0  0
   19.0039  -18.9014  -16.2419 O   0  0  0  0  0  0  0  0  0  0  0  0
   21.0471  -20.4447  -11.6942 O   0  0  0  0  0  0  0  0  0  0  0  0
  2  1  1  0
  3  2  1  0
  4  3  1  0
  5  4  1  0
  5  6  1  6
  7  5  1  0
  7  8  2  0
  9  7  1  0
 10  9  1  0
 10 11  1  1
 12 11  1  0
 12 13  2  0
 14 13  1  0
 15 14  2  0
 16 17  2  0
 16 15  1  0
 17 12  1  0
 18 10  1  0
 19 18  2  0
 20 18  1  0
 21 20  1  0
 21 22  1  6
 22 23  1  0
 23 24  1  0
 24 25  2  0
 24 28  1  0
 26 27  1  0
 26 21  1  0
 29 26  2  0
M  END
$$$$
