MFE.pdb
     RDKit          3D

 29 29  0  0  1  0  0  0  0  0999 V2000
   19.0337  -13.6434  -23.6254 C   0  0  0  0  0  0  0  0  0  0  0  0
   19.1173  -12.3017  -22.4080 S   0  0  0  0  0  0  0  0  0  0  0  0
   19.1420  -13.0644  -20.7618 C   0  0  0  0  0  0  0  0  0  0  0  0
   19.3490  -11.9450  -19.7578 C   0  0  0  0  0  0  0  0  0  0  0  0
   20.1748  -12.3916  -18.5693 C   0  0  2  0  0  0  0  0  0  0  0  0
   19.5520  -13.5805  -18.0281 N   0  0  0  0  0  0  0  0  0  0  0  0
   20.1511  -11.2947  -17.5806 C   0  0  0  0  0  0  0  0  0  0  0  0
   19.0561  -11.0344  -17.0286 O   0  0  0  0  0  0  0  0  0  0  0  0
   21.2592  -10.5134  -17.2042 N   0  0  0  0  0  0  0  0  0  0  0  0
   21.1602   -9.3999  -16.3291 C   0  0  1  0  0  0  0  0  0  0  0  0
   22.3590   -9.1393  -15.4802 C   0  0  0  0  0  0  0  0  0  0  0  0
   22.2495   -7.9769  -14.5982 C   0  0  0  0  0  0  0  0  0  0  0  0
   21.6718   -8.0952  -13.3277 C   0  0  0  0  0  0  0  0  0  0  0  0
   21.5525   -7.0236  -12.4690 C   0  0  0  0  0  0  0  0  0  0  0  0
   22.0072   -5.7727  -12.8394 C   0  0  0  0  0  0  0  0  0  0  0  0
   22.5751   -5.6341  -14.0767 C   0  0  0  0  0  0  0  0  0  0  0  0
   22.6878   -6.7183  -14.9267 C   0  0  0  0  0  0  0  0  0  0  0  0
   20.7885   -8.1631  -17.0496 C   0  0  0  0  0  0  0  0  0  0  0  0
   21.4038   -7.8631  -18.1298 O   0  0  0  0  0  0  0  0  0  0  0  0
   19.7863   -7.2702  -16.6352 N   0  0  0  0  0  0  0  0  0  0  0  0
   19.4363   -6.0395  -17.3518 C   0  0  1  0  0  0  0  0  0  0  0  0
   18.0548   -6.1851  -17.9504 C   0  0  0  0  0  0  0  0  0  0  0  0
   17.6855   -4.9360  -18.6865 C   0  0  0  0  0  0  0  0  0  0  0  0
   16.3035   -5.0788  -19.2392 C   0  0  0  0  0  0  0  0  0  0  0  0
   15.8124   -4.1413  -19.8810 O   0  0  0  0  0  0  0  0  0  0  0  0
   19.4300   -4.9504  -16.3727 C   0  0  0  0  0  0  0  0  0  0  0  0
   19.6609   -3.6474  -16.7789 O   0  0  0  0  0  0  0  0  0  0  0  0
   15.6095   -6.2442  -19.0237 O   0  0  0  0  0  0  0  0  0  0  0  0
   19.2249   -5.1343  -15.1642 O   0  0  0  0  0  0  0  0  0  0  0  0
  2  1  1  0
  3  2  1  0
  4  3  1  0
  5  4  1  0
  5  6  1  1
  7  5  1  0
  7  8  2  0
  9  7  1  0
 10  9  1  0
 10 11  1  6
 12 11  1  0
 12 13  2  0
 14 13  1  0
 15 14  2  0
 16 17  2  0
 16 15  1  0
 17 12  1  0
 18 10  1  0
 19 18  2  0
 20 18  1  0
 21 20  1  0
 21 22  1  1
 22 23  1  0
 23 24  1  0
 24 25  2  0
 24 28  1  0
 26 27  1  0
 26 21  1  0
 29 26  2  0
M  END
$$$$
