MFE.pdb
     RDKit          3D

 29 29  0  0  1  0  0  0  0  0999 V2000
   27.7721  -17.9152  -17.2499 C   0  0  0  0  0  0  0  0  0  0  0  0
   28.5816  -19.5266  -17.4437 S   0  0  0  0  0  0  0  0  0  0  0  0
   27.3652  -20.6602  -18.1701 C   0  0  0  0  0  0  0  0  0  0  0  0
   26.3769  -21.0122  -17.0732 C   0  0  0  0  0  0  0  0  0  0  0  0
   27.0632  -21.5878  -15.8518 C   0  0  2  0  0  0  0  0  0  0  0  0
   27.5445  -22.9065  -16.2033 N   0  0  0  0  0  0  0  0  0  0  0  0
   26.0524  -21.6709  -14.7781 C   0  0  0  0  0  0  0  0  0  0  0  0
   25.3315  -22.6957  -14.7378 O   0  0  0  0  0  0  0  0  0  0  0  0
   25.8293  -20.6923  -13.7921 N   0  0  0  0  0  0  0  0  0  0  0  0
   24.7933  -20.7883  -12.8260 C   0  0  1  0  0  0  0  0  0  0  0  0
   24.8951  -19.8433  -11.6763 C   0  0  0  0  0  0  0  0  0  0  0  0
   23.8562  -19.9970  -10.6575 C   0  0  0  0  0  0  0  0  0  0  0  0
   24.0635  -20.8198   -9.5430 C   0  0  0  0  0  0  0  0  0  0  0  0
   23.1092  -20.9882   -8.5628 C   0  0  0  0  0  0  0  0  0  0  0  0
   21.8927  -20.3389   -8.6479 C   0  0  0  0  0  0  0  0  0  0  0  0
   21.6685  -19.5299   -9.7286 C   0  0  0  0  0  0  0  0  0  0  0  0
   22.6354  -19.3710  -10.7035 C   0  0  0  0  0  0  0  0  0  0  0  0
   23.4531  -20.6738  -13.4407 C   0  0  0  0  0  0  0  0  0  0  0  0
   23.2515  -19.7788  -14.3318 O   0  0  0  0  0  0  0  0  0  0  0  0
   22.3567  -21.4913  -13.1198 N   0  0  0  0  0  0  0  0  0  0  0  0
   21.0541  -21.4170  -13.7892 C   0  0  1  0  0  0  0  0  0  0  0  0
   20.2924  -22.7008  -13.5446 C   0  0  0  0  0  0  0  0  0  0  0  0
   18.9854  -22.6629  -14.2718 C   0  0  0  0  0  0  0  0  0  0  0  0
   18.3436  -24.0117  -14.2047 C   0  0  0  0  0  0  0  0  0  0  0  0
   17.2384  -24.1792  -14.7362 O   0  0  0  0  0  0  0  0  0  0  0  0
   20.3213  -20.2961  -13.1964 C   0  0  0  0  0  0  0  0  0  0  0  0
   20.3785  -20.0704  -11.8319 O   0  0  0  0  0  0  0  0  0  0  0  0
   18.9920  -25.0341  -13.5562 O   0  0  0  0  0  0  0  0  0  0  0  0
   19.6308  -19.5150  -13.8667 O   0  0  0  0  0  0  0  0  0  0  0  0
  2  1  1  0
  3  2  1  0
  4  3  1  0
  5  4  1  0
  5  6  1  6
  7  5  1  0
  7  8  2  0
  9  7  1  0
 10  9  1  0
 10 11  1  1
 12 11  1  0
 12 13  2  0
 14 13  1  0
 15 14  2  0
 16 17  2  0
 16 15  1  0
 17 12  1  0
 18 10  1  0
 19 18  2  0
 20 18  1  0
 21 20  1  0
 21 22  1  1
 22 23  1  0
 23 24  1  0
 24 25  2  0
 24 28  1  0
 26 27  1  0
 26 21  1  0
 29 26  2  0
M  END
$$$$
