MFE.pdb
     RDKit          3D

 29 29  0  0  1  0  0  0  0  0999 V2000
   29.7848  -18.0294  -18.0368 C   0  0  0  0  0  0  0  0  0  0  0  0
   28.6877  -18.6999  -16.7577 S   0  0  0  0  0  0  0  0  0  0  0  0
   29.6358  -19.9319  -15.8219 C   0  0  0  0  0  0  0  0  0  0  0  0
   28.6740  -20.5819  -14.8439 C   0  0  0  0  0  0  0  0  0  0  0  0
   27.6473  -19.6006  -14.3178 C   0  0  2  0  0  0  0  0  0  0  0  0
   28.3435  -18.6501  -13.4775 N   0  0  0  0  0  0  0  0  0  0  0  0
   26.6656  -20.3724  -13.5290 C   0  0  0  0  0  0  0  0  0  0  0  0
   26.2450  -21.4474  -14.0177 O   0  0  0  0  0  0  0  0  0  0  0  0
   26.1604  -20.0011  -12.2693 N   0  0  0  0  0  0  0  0  0  0  0  0
   25.2013  -20.7724  -11.5615 C   0  0  1  0  0  0  0  0  0  0  0  0
   25.1329  -20.5243  -10.0921 C   0  0  0  0  0  0  0  0  0  0  0  0
   26.4078  -20.6505   -9.3852 C   0  0  0  0  0  0  0  0  0  0  0  0
   26.6724  -19.8813   -8.2449 C   0  0  0  0  0  0  0  0  0  0  0  0
   27.8606  -19.9736   -7.5524 C   0  0  0  0  0  0  0  0  0  0  0  0
   28.8496  -20.8444   -7.9673 C   0  0  0  0  0  0  0  0  0  0  0  0
   28.6125  -21.6058   -9.0793 C   0  0  0  0  0  0  0  0  0  0  0  0
   27.4158  -21.5021   -9.7633 C   0  0  0  0  0  0  0  0  0  0  0  0
   23.8492  -20.6436  -12.1464 C   0  0  0  0  0  0  0  0  0  0  0  0
   23.3895  -19.4776  -12.4008 O   0  0  0  0  0  0  0  0  0  0  0  0
   23.0088  -21.7257  -12.4566 N   0  0  0  0  0  0  0  0  0  0  0  0
   21.7391  -21.5978  -13.1791 C   0  0  1  0  0  0  0  0  0  0  0  0
   21.3317  -22.9514  -13.7175 C   0  0  0  0  0  0  0  0  0  0  0  0
   20.0374  -22.8350  -14.4590 C   0  0  0  0  0  0  0  0  0  0  0  0
   20.0201  -23.8238  -15.5804 C   0  0  0  0  0  0  0  0  0  0  0  0
   19.1254  -23.7513  -16.4327 O   0  0  0  0  0  0  0  0  0  0  0  0
   20.7350  -21.1336  -12.2193 C   0  0  0  0  0  0  0  0  0  0  0  0
   19.6315  -20.4210  -12.6559 O   0  0  0  0  0  0  0  0  0  0  0  0
   20.9946  -24.7896  -15.6414 O   0  0  0  0  0  0  0  0  0  0  0  0
   20.8199  -21.3477  -11.0015 O   0  0  0  0  0  0  0  0  0  0  0  0
  2  1  1  0
  3  2  1  0
  4  3  1  0
  5  4  1  0
  5  6  1  1
  7  5  1  0
  7  8  2  0
  9  7  1  0
 10  9  1  0
 10 11  1  1
 12 11  1  0
 12 13  2  0
 14 13  1  0
 15 14  2  0
 16 17  2  0
 16 15  1  0
 17 12  1  0
 18 10  1  0
 19 18  2  0
 20 18  1  0
 21 20  1  0
 21 22  1  1
 22 23  1  0
 23 24  1  0
 24 25  2  0
 24 28  1  0
 26 27  1  0
 26 21  1  0
 29 26  2  0
M  END
$$$$
