MFE.pdb
     RDKit          3D

 29 29  0  0  1  0  0  0  0  0999 V2000
   25.7734  -17.1876  -14.7434 C   0  0  0  0  0  0  0  0  0  0  0  0
   27.2803  -17.5102  -15.6996 S   0  0  0  0  0  0  0  0  0  0  0  0
   27.8701  -19.1635  -15.2403 C   0  0  0  0  0  0  0  0  0  0  0  0
   27.2593  -19.4928  -13.8903 C   0  0  0  0  0  0  0  0  0  0  0  0
   27.6684  -20.8661  -13.4000 C   0  0  2  0  0  0  0  0  0  0  0  0
   27.0359  -21.8424  -14.2608 N   0  0  0  0  0  0  0  0  0  0  0  0
   27.1805  -21.0008  -12.0125 C   0  0  0  0  0  0  0  0  0  0  0  0
   26.0948  -21.6016  -11.8348 O   0  0  0  0  0  0  0  0  0  0  0  0
   27.8348  -20.5092  -10.8678 N   0  0  0  0  0  0  0  0  0  0  0  0
   27.2876  -20.6063   -9.5613 C   0  0  1  0  0  0  0  0  0  0  0  0
   28.1118  -20.0074   -8.4717 C   0  0  0  0  0  0  0  0  0  0  0  0
   27.5366  -20.1186   -7.1309 C   0  0  0  0  0  0  0  0  0  0  0  0
   28.1826  -19.5494   -6.0261 C   0  0  0  0  0  0  0  0  0  0  0  0
   27.6709  -19.6325   -4.7489 C   0  0  0  0  0  0  0  0  0  0  0  0
   26.4809  -20.2926   -4.5106 C   0  0  0  0  0  0  0  0  0  0  0  0
   25.8326  -20.8565   -5.5757 C   0  0  0  0  0  0  0  0  0  0  0  0
   26.3583  -20.7647   -6.8508 C   0  0  0  0  0  0  0  0  0  0  0  0
   25.9142  -20.0617   -9.4964 C   0  0  0  0  0  0  0  0  0  0  0  0
   25.7481  -18.7940   -9.4653 O   0  0  0  0  0  0  0  0  0  0  0  0
   24.7474  -20.8435   -9.4690 N   0  0  0  0  0  0  0  0  0  0  0  0
   23.4470  -20.3950   -9.9772 C   0  0  1  0  0  0  0  0  0  0  0  0
   23.2541  -20.9142  -11.3848 C   0  0  0  0  0  0  0  0  0  0  0  0
   21.9182  -20.4869  -11.9056 C   0  0  0  0  0  0  0  0  0  0  0  0
   21.7445  -21.0000  -13.2993 C   0  0  0  0  0  0  0  0  0  0  0  0
   22.7446  -21.3410  -13.9439 O   0  0  0  0  0  0  0  0  0  0  0  0
   22.4172  -20.9624   -9.1040 C   0  0  0  0  0  0  0  0  0  0  0  0
   21.1001  -20.5537   -9.2237 O   0  0  0  0  0  0  0  0  0  0  0  0
   20.4821  -21.0819  -13.8339 O   0  0  0  0  0  0  0  0  0  0  0  0
   22.6653  -21.8123   -8.2366 O   0  0  0  0  0  0  0  0  0  0  0  0
  2  1  1  0
  3  2  1  0
  4  3  1  0
  5  4  1  0
  5  6  1  6
  7  5  1  0
  7  8  2  0
  9  7  1  0
 10  9  1  0
 10 11  1  1
 12 11  1  0
 12 13  2  0
 14 13  1  0
 15 14  2  0
 16 17  2  0
 16 15  1  0
 17 12  1  0
 18 10  1  0
 19 18  2  0
 20 18  1  0
 21 20  1  0
 21 22  1  6
 22 23  1  0
 23 24  1  0
 24 25  2  0
 24 28  1  0
 26 27  1  0
 26 21  1  0
 29 26  2  0
M  END
$$$$
