MFE.pdb
     RDKit          3D

 29 29  0  0  1  0  0  0  0  0999 V2000
   19.7005   -9.8469  -23.9372 C   0  0  0  0  0  0  0  0  0  0  0  0
   20.0797   -9.4888  -22.2002 S   0  0  0  0  0  0  0  0  0  0  0  0
   18.6940  -10.1062  -21.2046 C   0  0  0  0  0  0  0  0  0  0  0  0
   19.0048   -9.7720  -19.7570 C   0  0  0  0  0  0  0  0  0  0  0  0
   20.0572  -10.6918  -19.1736 C   0  0  2  0  0  0  0  0  0  0  0  0
   19.4865  -12.0200  -19.1074 N   0  0  0  0  0  0  0  0  0  0  0  0
   20.3752  -10.1931  -17.8203 C   0  0  0  0  0  0  0  0  0  0  0  0
   19.5018  -10.3291  -16.9315 O   0  0  0  0  0  0  0  0  0  0  0  0
   21.5817   -9.5752  -17.4427 N   0  0  0  0  0  0  0  0  0  0  0  0
   21.8676   -9.1856  -16.1077 C   0  0  1  0  0  0  0  0  0  0  0  0
   23.0596   -9.8347  -15.4886 C   0  0  0  0  0  0  0  0  0  0  0  0
   23.0137  -11.2965  -15.4464 C   0  0  0  0  0  0  0  0  0  0  0  0
   22.4198  -11.9625  -14.3667 C   0  0  0  0  0  0  0  0  0  0  0  0
   22.3566  -13.3374  -14.2926 C   0  0  0  0  0  0  0  0  0  0  0  0
   22.8870  -14.1202  -15.2998 C   0  0  0  0  0  0  0  0  0  0  0  0
   23.4723  -13.4905  -16.3645 C   0  0  0  0  0  0  0  0  0  0  0  0
   23.5280  -12.1107  -16.4246 C   0  0  0  0  0  0  0  0  0  0  0  0
   21.9810   -7.7172  -15.9737 C   0  0  0  0  0  0  0  0  0  0  0  0
   22.6635   -7.0643  -16.8359 O   0  0  0  0  0  0  0  0  0  0  0  0
   21.3816   -6.9617  -14.9523 N   0  0  0  0  0  0  0  0  0  0  0  0
   21.4987   -5.5049  -14.8325 C   0  0  1  0  0  0  0  0  0  0  0  0
   20.1214   -4.8844  -14.9102 C   0  0  0  0  0  0  0  0  0  0  0  0
   20.2236   -3.3993  -14.7602 C   0  0  0  0  0  0  0  0  0  0  0  0
   18.8578   -2.7983  -14.8546 C   0  0  0  0  0  0  0  0  0  0  0  0
   18.7391   -1.5666  -14.8245 O   0  0  0  0  0  0  0  0  0  0  0  0
   22.0876   -5.2199  -13.5222 C   0  0  0  0  0  0  0  0  0  0  0  0
   22.0670   -6.1805  -12.5258 O   0  0  0  0  0  0  0  0  0  0  0  0
   17.7660   -3.6231  -14.9723 O   0  0  0  0  0  0  0  0  0  0  0  0
   22.6182   -4.1345  -13.2456 O   0  0  0  0  0  0  0  0  0  0  0  0
  2  1  1  0
  3  2  1  0
  4  3  1  0
  5  4  1  0
  5  6  1  1
  7  5  1  0
  7  8  2  0
  9  7  1  0
 10  9  1  0
 10 11  1  6
 12 11  1  0
 12 13  2  0
 14 13  1  0
 15 14  2  0
 16 17  2  0
 16 15  1  0
 17 12  1  0
 18 10  1  0
 19 18  2  0
 20 18  1  0
 21 20  1  0
 21 22  1  1
 22 23  1  0
 23 24  1  0
 24 25  2  0
 24 28  1  0
 26 27  1  0
 26 21  1  0
 29 26  2  0
M  END
$$$$
