MFE.pdb
     RDKit          3D

 29 29  0  0  1  0  0  0  0  0999 V2000
   20.0800  -13.8360  -22.6657 C   0  0  0  0  0  0  0  0  0  0  0  0
   20.1668  -12.5904  -21.3504 S   0  0  0  0  0  0  0  0  0  0  0  0
   21.8878  -12.5245  -20.7792 C   0  0  0  0  0  0  0  0  0  0  0  0
   21.9143  -11.6280  -19.5546 C   0  0  0  0  0  0  0  0  0  0  0  0
   23.3211  -11.4148  -19.0355 C   0  0  2  0  0  0  0  0  0  0  0  0
   23.8214  -12.6985  -18.5928 N   0  0  0  0  0  0  0  0  0  0  0  0
   23.2332  -10.4709  -17.9029 C   0  0  0  0  0  0  0  0  0  0  0  0
   22.7580  -10.9002  -16.8252 O   0  0  0  0  0  0  0  0  0  0  0  0
   23.6397   -9.1241  -17.9316 N   0  0  0  0  0  0  0  0  0  0  0  0
   23.5748   -8.2712  -16.7984 C   0  0  1  0  0  0  0  0  0  0  0  0
   24.8883   -7.8002  -16.2709 C   0  0  0  0  0  0  0  0  0  0  0  0
   25.8399   -8.8633  -15.9467 C   0  0  0  0  0  0  0  0  0  0  0  0
   25.6671   -9.6536  -14.8032 C   0  0  0  0  0  0  0  0  0  0  0  0
   26.5415  -10.6643  -14.4661 C   0  0  0  0  0  0  0  0  0  0  0  0
   27.6390  -10.9375  -15.2596 C   0  0  0  0  0  0  0  0  0  0  0  0
   27.8275  -10.1775  -16.3819 C   0  0  0  0  0  0  0  0  0  0  0  0
   26.9418   -9.1673  -16.7068 C   0  0  0  0  0  0  0  0  0  0  0  0
   22.6923   -7.1080  -17.0330 C   0  0  0  0  0  0  0  0  0  0  0  0
   22.8011   -6.4548  -18.1271 O   0  0  0  0  0  0  0  0  0  0  0  0
   21.7169   -6.6530  -16.1304 N   0  0  0  0  0  0  0  0  0  0  0  0
   20.7283   -5.6163  -16.4442 C   0  0  1  0  0  0  0  0  0  0  0  0
   19.3694   -6.0533  -15.9437 C   0  0  0  0  0  0  0  0  0  0  0  0
   18.3478   -5.0101  -16.2699 C   0  0  0  0  0  0  0  0  0  0  0  0
   17.0029   -5.4754  -15.8112 C   0  0  0  0  0  0  0  0  0  0  0  0
   16.4391   -6.3879  -16.4289 O   0  0  0  0  0  0  0  0  0  0  0  0
   21.1360   -4.3969  -15.7429 C   0  0  0  0  0  0  0  0  0  0  0  0
   20.6878   -3.1612  -16.1767 O   0  0  0  0  0  0  0  0  0  0  0  0
   16.4226   -4.8823  -14.7168 O   0  0  0  0  0  0  0  0  0  0  0  0
   21.8832   -4.4083  -14.7541 O   0  0  0  0  0  0  0  0  0  0  0  0
  2  1  1  0
  3  2  1  0
  4  3  1  0
  5  4  1  0
  5  6  1  1
  7  5  1  0
  7  8  2  0
  9  7  1  0
 10  9  1  0
 10 11  1  6
 12 11  1  0
 12 13  2  0
 14 13  1  0
 15 14  2  0
 16 17  2  0
 16 15  1  0
 17 12  1  0
 18 10  1  0
 19 18  2  0
 20 18  1  0
 21 20  1  0
 21 22  1  1
 22 23  1  0
 23 24  1  0
 24 25  2  0
 24 28  1  0
 26 27  1  0
 26 21  1  0
 29 26  2  0
M  END
$$$$
