WNN.pdb
     RDKit          3D

 31 32  0  0  1  0  0  0  0  0999 V2000
   19.4850   -6.8597  -16.2461 N   0  0  0  0  0  0  0  0  0  0  0  0
   20.4901   -7.9302  -16.3121 C   0  0  1  0  0  0  0  0  0  0  0  0
   21.0562   -8.1173  -14.9131 C   0  0  0  0  0  0  0  0  0  0  0  0
   21.8136   -6.8797  -14.5863 C   0  0  0  0  0  0  0  0  0  0  0  0
   21.4793   -5.9803  -13.5975 C   0  0  0  0  0  0  0  0  0  0  0  0
   22.4123   -4.9860  -13.6195 N   0  0  0  0  0  0  0  0  0  0  0  0
   23.3235   -5.2177  -14.5807 C   0  0  0  0  0  0  0  0  0  0  0  0
   24.4508   -4.5076  -14.9884 C   0  0  0  0  0  0  0  0  0  0  0  0
   25.2193   -4.9981  -16.0262 C   0  0  0  0  0  0  0  0  0  0  0  0
   24.8653   -6.1843  -16.6496 C   0  0  0  0  0  0  0  0  0  0  0  0
   23.7306   -6.8717  -16.2180 C   0  0  0  0  0  0  0  0  0  0  0  0
   22.9552   -6.3965  -15.1863 C   0  0  0  0  0  0  0  0  0  0  0  0
   19.8678   -9.1652  -16.8302 C   0  0  0  0  0  0  0  0  0  0  0  0
   18.5924   -9.1905  -16.9116 O   0  0  0  0  0  0  0  0  0  0  0  0
   20.9205  -14.6545  -19.5095 N   0  0  0  0  0  0  0  0  0  0  0  0
   20.2092  -13.4444  -19.3299 C   0  0  0  0  0  0  0  0  0  0  0  0
   19.0321  -13.3676  -19.7423 O   0  0  0  0  0  0  0  0  0  0  0  0
   20.8492  -12.3095  -18.6732 C   0  0  0  0  0  0  0  0  0  0  0  0
   19.8819  -11.4754  -17.8239 C   0  0  2  0  0  0  0  0  0  0  0  0
   20.5499  -10.3286  -17.2471 N   0  0  0  0  0  0  0  0  0  0  0  0
   19.2628  -12.3511  -16.8047 C   0  0  0  0  0  0  0  0  0  0  0  0
   19.6573  -12.3301  -15.5880 O   0  0  0  0  0  0  0  0  0  0  0  0
   15.0515  -13.8556  -14.4174 N   0  0  0  0  0  0  0  0  0  0  0  0
   15.3257  -12.5287  -14.8285 C   0  0  0  0  0  0  0  0  0  0  0  0
   14.6437  -11.5919  -14.3629 O   0  0  0  0  0  0  0  0  0  0  0  0
   16.3956  -12.2405  -15.7901 C   0  0  0  0  0  0  0  0  0  0  0  0
   17.1417  -13.5218  -16.0987 C   0  0  2  0  0  0  0  0  0  0  0  0
   18.2092  -13.2663  -17.0593 N   0  0  0  0  0  0  0  0  0  0  0  0
   16.2287  -14.5640  -16.5455 C   0  0  0  0  0  0  0  0  0  0  0  0
   15.7890  -15.5275  -15.6321 O   0  0  0  0  0  0  0  0  0  0  0  0
   15.8032  -14.6585  -17.7123 O   0  0  0  0  0  0  0  0  0  0  0  0
  2  1  1  1
  2  3  1  0
  2 13  1  0
  3  4  1  0
  4  5  2  0
  6  5  1  0
  7  6  1  0
  8  7  2  0
  9  8  1  0
 10  9  2  0
 10 11  1  0
 11 12  2  0
 12  7  1  0
 12  4  1  0
 13 14  2  0
 15 16  1  0
 16 17  2  0
 19 18  1  1
 18 16  1  0
 20 13  1  0
 20 19  1  0
 21 22  2  0
 21 19  1  0
 23 24  1  0
 24 26  1  0
 24 25  2  0
 27 26  1  6
 27 28  1  0
 28 21  1  0
 29 27  1  0
 29 30  1  0
 31 29  2  0
M  END
$$$$
