WNN.pdb
     RDKit          3D

 31 32  0  0  1  0  0  0  0  0999 V2000
   25.6824  -19.3399  -11.5477 N   0  0  0  0  0  0  0  0  0  0  0  0
   26.1821  -20.6682  -11.9303 C   0  0  1  0  0  0  0  0  0  0  0  0
   25.8272  -21.6340  -10.8104 C   0  0  0  0  0  0  0  0  0  0  0  0
   26.3659  -21.0509   -9.5527 C   0  0  0  0  0  0  0  0  0  0  0  0
   25.6151  -20.4301   -8.5783 C   0  0  0  0  0  0  0  0  0  0  0  0
   26.4729  -20.0313   -7.5960 N   0  0  0  0  0  0  0  0  0  0  0  0
   27.7354  -20.3735   -7.9072 C   0  0  0  0  0  0  0  0  0  0  0  0
   28.9435  -20.1912   -7.2375 C   0  0  0  0  0  0  0  0  0  0  0  0
   30.1103  -20.6601   -7.8093 C   0  0  0  0  0  0  0  0  0  0  0  0
   30.0704  -21.3034   -9.0363 C   0  0  0  0  0  0  0  0  0  0  0  0
   28.8448  -21.4701   -9.6816 C   0  0  0  0  0  0  0  0  0  0  0  0
   27.6745  -21.0090   -9.1255 C   0  0  0  0  0  0  0  0  0  0  0  0
   25.5875  -21.0704  -13.2209 C   0  0  0  0  0  0  0  0  0  0  0  0
   24.5298  -20.4584  -13.5962 O   0  0  0  0  0  0  0  0  0  0  0  0
   29.6511  -22.4372  -15.3731 N   0  0  0  0  0  0  0  0  0  0  0  0
   28.5020  -21.7940  -15.8912 C   0  0  0  0  0  0  0  0  0  0  0  0
   28.5424  -20.5636  -16.1057 O   0  0  0  0  0  0  0  0  0  0  0  0
   27.2935  -22.5638  -16.1664 C   0  0  0  0  0  0  0  0  0  0  0  0
   26.0338  -21.9645  -15.5287 C   0  0  2  0  0  0  0  0  0  0  0  0
   26.0775  -22.0721  -14.0863 N   0  0  0  0  0  0  0  0  0  0  0  0
   24.8431  -22.6168  -16.1166 C   0  0  0  0  0  0  0  0  0  0  0  0
   24.6208  -22.5745  -17.3757 O   0  0  0  0  0  0  0  0  0  0  0  0
   20.2771  -21.7858  -12.9268 N   0  0  0  0  0  0  0  0  0  0  0  0
   21.1195  -21.2707  -13.9416 C   0  0  0  0  0  0  0  0  0  0  0  0
   20.6834  -20.3841  -14.7054 O   0  0  0  0  0  0  0  0  0  0  0  0
   22.4918  -21.7622  -14.1074 C   0  0  0  0  0  0  0  0  0  0  0  0
   22.5088  -22.8291  -15.1821 C   0  0  2  0  0  0  0  0  0  0  0  0
   23.8650  -23.3294  -15.3764 N   0  0  0  0  0  0  0  0  0  0  0  0
   21.9148  -22.3371  -16.4168 C   0  0  0  0  0  0  0  0  0  0  0  0
   20.7598  -22.9498  -16.9133 O   0  0  0  0  0  0  0  0  0  0  0  0
   22.3758  -21.3864  -17.0764 O   0  0  0  0  0  0  0  0  0  0  0  0
  2  1  1  1
  2  3  1  0
  2 13  1  0
  3  4  1  0
  4  5  2  0
  6  5  1  0
  7  6  1  0
  8  7  2  0
  9  8  1  0
 10  9  2  0
 10 11  1  0
 11 12  2  0
 12  7  1  0
 12  4  1  0
 13 14  2  0
 15 16  1  0
 16 17  2  0
 19 18  1  6
 18 16  1  0
 20 13  1  0
 20 19  1  0
 21 22  2  0
 21 19  1  0
 23 24  1  0
 24 26  1  0
 24 25  2  0
 27 26  1  1
 27 28  1  0
 28 21  1  0
 29 27  1  0
 29 30  1  0
 31 29  2  0
M  END
$$$$
