WNN.pdb
     RDKit          3D

 31 32  0  0  1  0  0  0  0  0999 V2000
   24.0507  -20.0826  -17.1475 N   0  0  0  0  0  0  0  0  0  0  0  0
   22.6421  -19.8669  -16.7871 C   0  0  1  0  0  0  0  0  0  0  0  0
   21.7965  -20.2251  -17.9994 C   0  0  0  0  0  0  0  0  0  0  0  0
   21.3082  -18.9444  -18.5769 C   0  0  0  0  0  0  0  0  0  0  0  0
   22.0849  -17.8313  -18.8138 C   0  0  0  0  0  0  0  0  0  0  0  0
   21.2711  -16.8715  -19.3391 N   0  0  0  0  0  0  0  0  0  0  0  0
   20.0114  -17.3298  -19.4448 C   0  0  0  0  0  0  0  0  0  0  0  0
   18.8401  -16.7394  -19.9149 C   0  0  0  0  0  0  0  0  0  0  0  0
   17.6662  -17.4674  -19.9062 C   0  0  0  0  0  0  0  0  0  0  0  0
   17.6626  -18.7702  -19.4332 C   0  0  0  0  0  0  0  0  0  0  0  0
   18.8520  -19.3327  -18.9692 C   0  0  0  0  0  0  0  0  0  0  0  0
   20.0289  -18.6210  -18.9712 C   0  0  0  0  0  0  0  0  0  0  0  0
   22.2993  -20.6872  -15.6079 C   0  0  0  0  0  0  0  0  0  0  0  0
   22.7469  -21.8841  -15.5751 O   0  0  0  0  0  0  0  0  0  0  0  0
   23.5754  -21.9855  -12.1281 N   0  0  0  0  0  0  0  0  0  0  0  0
   22.8554  -20.9604  -11.4699 C   0  0  0  0  0  0  0  0  0  0  0  0
   23.2909  -20.5147  -10.3868 O   0  0  0  0  0  0  0  0  0  0  0  0
   21.6242  -20.4392  -12.0543 C   0  0  0  0  0  0  0  0  0  0  0  0
   21.2387  -21.1265  -13.3703 C   0  0  2  0  0  0  0  0  0  0  0  0
   21.5198  -20.2746  -14.5058 N   0  0  0  0  0  0  0  0  0  0  0  0
   19.8189  -21.5361  -13.2982 C   0  0  0  0  0  0  0  0  0  0  0  0
   18.8780  -20.7029  -13.5367 O   0  0  0  0  0  0  0  0  0  0  0  0
   15.7821  -24.9890  -11.1193 N   0  0  0  0  0  0  0  0  0  0  0  0
   16.1874  -23.6362  -11.2208 C   0  0  0  0  0  0  0  0  0  0  0  0
   15.3217  -22.7364  -11.2022 O   0  0  0  0  0  0  0  0  0  0  0  0
   17.6046  -23.2786  -11.3472 C   0  0  0  0  0  0  0  0  0  0  0  0
   17.9589  -23.1717  -12.8158 C   0  0  2  0  0  0  0  0  0  0  0  0
   19.3711  -22.8421  -12.9725 N   0  0  0  0  0  0  0  0  0  0  0  0
   17.0875  -22.2246  -13.4963 C   0  0  0  0  0  0  0  0  0  0  0  0
   16.1273  -22.7005  -14.3950 O   0  0  0  0  0  0  0  0  0  0  0  0
   17.1403  -20.9915  -13.3295 O   0  0  0  0  0  0  0  0  0  0  0  0
  2  1  1  6
  2  3  1  0
  2 13  1  0
  3  4  1  0
  4  5  2  0
  6  5  1  0
  7  6  1  0
  8  7  2  0
  9  8  1  0
 10  9  2  0
 10 11  1  0
 11 12  2  0
 12  7  1  0
 12  4  1  0
 13 14  2  0
 15 16  1  0
 16 17  2  0
 19 18  1  1
 18 16  1  0
 20 13  1  0
 20 19  1  0
 21 22  2  0
 21 19  1  0
 23 24  1  0
 24 26  1  0
 24 25  2  0
 27 26  1  1
 27 28  1  0
 28 21  1  0
 29 27  1  0
 29 30  1  0
 31 29  2  0
M  END
$$$$
