WNN.pdb
     RDKit          3D

 31 32  0  0  1  0  0  0  0  0999 V2000
   19.5208  -25.3587  -14.9859 N   0  0  0  0  0  0  0  0  0  0  0  0
   20.4663  -25.5600  -13.8786 C   0  0  1  0  0  0  0  0  0  0  0  0
   20.8284  -24.1896  -13.3273 C   0  0  0  0  0  0  0  0  0  0  0  0
   21.6894  -23.5302  -14.3450 C   0  0  0  0  0  0  0  0  0  0  0  0
   21.3276  -22.4413  -15.1079 C   0  0  0  0  0  0  0  0  0  0  0  0
   22.3830  -22.1437  -15.9186 N   0  0  0  0  0  0  0  0  0  0  0  0
   23.3981  -22.9983  -15.7013 C   0  0  0  0  0  0  0  0  0  0  0  0
   24.6664  -23.1039  -16.2682 C   0  0  0  0  0  0  0  0  0  0  0  0
   25.5181  -24.1024  -15.8370 C   0  0  0  0  0  0  0  0  0  0  0  0
   25.1071  -24.9852  -14.8508 C   0  0  0  0  0  0  0  0  0  0  0  0
   23.8307  -24.8530  -14.3031 C   0  0  0  0  0  0  0  0  0  0  0  0
   22.9712  -23.8644  -14.7217 C   0  0  0  0  0  0  0  0  0  0  0  0
   19.8534  -26.4280  -12.8529 C   0  0  0  0  0  0  0  0  0  0  0  0
   18.6261  -26.2183  -12.5635 O   0  0  0  0  0  0  0  0  0  0  0  0
   20.6905  -31.5106   -9.3151 N   0  0  0  0  0  0  0  0  0  0  0  0
   20.0367  -30.3421   -9.7731 C   0  0  0  0  0  0  0  0  0  0  0  0
   18.8696  -30.1123   -9.3901 O   0  0  0  0  0  0  0  0  0  0  0  0
   20.7226  -29.4267  -10.6788 C   0  0  0  0  0  0  0  0  0  0  0  0
   19.8618  -28.2278  -11.0965 C   0  0  2  0  0  0  0  0  0  0  0  0
   20.4962  -27.4742  -12.1566 N   0  0  0  0  0  0  0  0  0  0  0  0
   19.5744  -27.4053   -9.9008 C   0  0  0  0  0  0  0  0  0  0  0  0
   20.4440  -26.5913   -9.4343 O   0  0  0  0  0  0  0  0  0  0  0  0
   18.2654  -23.8268   -6.5838 N   0  0  0  0  0  0  0  0  0  0  0  0
   17.2156  -24.4062   -7.3368 C   0  0  0  0  0  0  0  0  0  0  0  0
   16.0324  -24.1953   -6.9976 O   0  0  0  0  0  0  0  0  0  0  0  0
   17.4978  -25.2476   -8.5050 C   0  0  0  0  0  0  0  0  0  0  0  0
   18.0983  -26.5572   -8.0381 C   0  0  2  0  0  0  0  0  0  0  0  0
   18.3542  -27.4308   -9.1778 N   0  0  0  0  0  0  0  0  0  0  0  0
   17.2578  -27.1883   -7.0308 C   0  0  0  0  0  0  0  0  0  0  0  0
   17.4382  -26.8589   -5.6835 O   0  0  0  0  0  0  0  0  0  0  0  0
   16.3691  -28.0207   -7.2928 O   0  0  0  0  0  0  0  0  0  0  0  0
  2  1  1  6
  2  3  1  0
  2 13  1  0
  3  4  1  0
  4  5  2  0
  6  5  1  0
  7  6  1  0
  8  7  2  0
  9  8  1  0
 10  9  2  0
 10 11  1  0
 11 12  2  0
 12  7  1  0
 12  4  1  0
 13 14  2  0
 15 16  1  0
 16 17  2  0
 19 18  1  1
 18 16  1  0
 20 13  1  0
 20 19  1  0
 21 22  2  0
 21 19  1  0
 23 24  1  0
 24 26  1  0
 24 25  2  0
 27 26  1  6
 27 28  1  0
 28 21  1  0
 29 27  1  0
 29 30  1  0
 31 29  2  0
M  END
$$$$
