WNN.pdb
     RDKit          3D

 31 32  0  0  1  0  0  0  0  0999 V2000
   27.1655  -21.0816  -10.9728 N   0  0  0  0  0  0  0  0  0  0  0  0
   25.9888  -20.8781  -10.1157 C   0  0  1  0  0  0  0  0  0  0  0  0
   26.3250  -19.7730   -9.1266 C   0  0  0  0  0  0  0  0  0  0  0  0
   27.5947  -20.1652   -8.4586 C   0  0  0  0  0  0  0  0  0  0  0  0
   28.6179  -20.8745   -9.0488 C   0  0  0  0  0  0  0  0  0  0  0  0
   29.5950  -21.0355   -8.1113 N   0  0  0  0  0  0  0  0  0  0  0  0
   29.2338  -20.4580   -6.9521 C   0  0  0  0  0  0  0  0  0  0  0  0
   29.8789  -20.3520   -5.7217 C   0  0  0  0  0  0  0  0  0  0  0  0
   29.2539  -19.6842   -4.6866 C   0  0  0  0  0  0  0  0  0  0  0  0
   27.9986  -19.1289   -4.8786 C   0  0  0  0  0  0  0  0  0  0  0  0
   27.3791  -19.2524   -6.1225 C   0  0  0  0  0  0  0  0  0  0  0  0
   27.9881  -19.9142   -7.1629 C   0  0  0  0  0  0  0  0  0  0  0  0
   24.8182  -20.5404  -10.9504 C   0  0  0  0  0  0  0  0  0  0  0  0
   23.7561  -20.1636  -10.3471 O   0  0  0  0  0  0  0  0  0  0  0  0
   22.6337  -17.9174  -14.8432 N   0  0  0  0  0  0  0  0  0  0  0  0
   23.9338  -18.3129  -15.2377 C   0  0  0  0  0  0  0  0  0  0  0  0
   24.4171  -17.8405  -16.2889 O   0  0  0  0  0  0  0  0  0  0  0  0
   24.6900  -19.2587  -14.4239 C   0  0  0  0  0  0  0  0  0  0  0  0
   23.9491  -19.6938  -13.1532 C   0  0  2  0  0  0  0  0  0  0  0  0
   24.7583  -20.5936  -12.3596 N   0  0  0  0  0  0  0  0  0  0  0  0
   22.6463  -20.2810  -13.5363 C   0  0  0  0  0  0  0  0  0  0  0  0
   21.5781  -19.9950  -12.8932 O   0  0  0  0  0  0  0  0  0  0  0  0
   22.8260  -25.4236  -14.8101 N   0  0  0  0  0  0  0  0  0  0  0  0
   23.3681  -24.6790  -13.7347 C   0  0  0  0  0  0  0  0  0  0  0  0
   23.7064  -25.2733  -12.6898 O   0  0  0  0  0  0  0  0  0  0  0  0
   23.5369  -23.2248  -13.8308 C   0  0  0  0  0  0  0  0  0  0  0  0
   22.2778  -22.6180  -14.4141 C   0  0  2  0  0  0  0  0  0  0  0  0
   22.4532  -21.1838  -14.6134 N   0  0  0  0  0  0  0  0  0  0  0  0
   21.1180  -22.9277  -13.5904 C   0  0  0  0  0  0  0  0  0  0  0  0
   20.1006  -23.7318  -14.1142 O   0  0  0  0  0  0  0  0  0  0  0  0
   20.9664  -22.5156  -12.4248 O   0  0  0  0  0  0  0  0  0  0  0  0
  2  1  1  6
  2  3  1  0
  2 13  1  0
  3  4  1  0
  4  5  2  0
  6  5  1  0
  7  6  1  0
  8  7  2  0
  9  8  1  0
 10  9  2  0
 10 11  1  0
 11 12  2  0
 12  7  1  0
 12  4  1  0
 13 14  2  0
 15 16  1  0
 16 17  2  0
 19 18  1  6
 18 16  1  0
 20 13  1  0
 20 19  1  0
 21 22  2  0
 21 19  1  0
 23 24  1  0
 24 26  1  0
 24 25  2  0
 27 26  1  1
 27 28  1  0
 28 21  1  0
 29 27  1  0
 29 30  1  0
 31 29  2  0
M  END
$$$$
