WNN.pdb
     RDKit          3D

 31 32  0  0  1  0  0  0  0  0999 V2000
   24.2548   -9.3200  -15.7932 N   0  0  0  0  0  0  0  0  0  0  0  0
   22.9187   -9.2234  -15.1880 C   0  0  1  0  0  0  0  0  0  0  0  0
   22.8259  -10.2866  -14.1046 C   0  0  0  0  0  0  0  0  0  0  0  0
   22.8684  -11.6053  -14.7912 C   0  0  0  0  0  0  0  0  0  0  0  0
   23.8978  -12.5166  -14.7004 C   0  0  0  0  0  0  0  0  0  0  0  0
   23.5624  -13.5879  -15.4747 N   0  0  0  0  0  0  0  0  0  0  0  0
   22.3638  -13.3935  -16.0521 C   0  0  0  0  0  0  0  0  0  0  0  0
   21.6037  -14.1827  -16.9127 C   0  0  0  0  0  0  0  0  0  0  0  0
   20.3804  -13.7165  -17.3536 C   0  0  0  0  0  0  0  0  0  0  0  0
   19.9220  -12.4758  -16.9394 C   0  0  0  0  0  0  0  0  0  0  0  0
   20.7068  -11.7095  -16.0773 C   0  0  0  0  0  0  0  0  0  0  0  0
   21.9268  -12.1595  -15.6296 C   0  0  0  0  0  0  0  0  0  0  0  0
   22.7131   -7.8630  -14.6513 C   0  0  0  0  0  0  0  0  0  0  0  0
   23.2831   -7.5764  -13.5437 O   0  0  0  0  0  0  0  0  0  0  0  0
   21.4236   -2.9408  -13.7103 N   0  0  0  0  0  0  0  0  0  0  0  0
   22.0490   -3.0891  -14.9711 C   0  0  0  0  0  0  0  0  0  0  0  0
   22.4414   -2.0683  -15.5757 O   0  0  0  0  0  0  0  0  0  0  0  0
   22.2275   -4.4173  -15.5480 C   0  0  0  0  0  0  0  0  0  0  0  0
   21.7335   -5.5468  -14.6354 C   0  0  2  0  0  0  0  0  0  0  0  0
   21.9427   -6.8414  -15.2474 N   0  0  0  0  0  0  0  0  0  0  0  0
   20.3165   -5.2980  -14.2902 C   0  0  0  0  0  0  0  0  0  0  0  0
   19.9577   -4.2145  -13.7127 O   0  0  0  0  0  0  0  0  0  0  0  0
   16.5024   -3.0172  -16.9592 N   0  0  0  0  0  0  0  0  0  0  0  0
   16.6819   -4.3453  -16.5025 C   0  0  0  0  0  0  0  0  0  0  0  0
   15.6853   -5.0866  -16.3735 O   0  0  0  0  0  0  0  0  0  0  0  0
   18.0173   -4.8603  -16.1799 C   0  0  0  0  0  0  0  0  0  0  0  0
   17.9236   -5.7453  -14.9546 C   0  0  2  0  0  0  0  0  0  0  0  0
   19.2514   -6.1970  -14.5544 N   0  0  0  0  0  0  0  0  0  0  0  0
   17.0032   -6.8512  -15.1774 C   0  0  0  0  0  0  0  0  0  0  0  0
   17.5146   -8.1318  -15.4111 O   0  0  0  0  0  0  0  0  0  0  0  0
   15.7635   -6.7318  -15.1744 O   0  0  0  0  0  0  0  0  0  0  0  0
  2  1  1  1
  2  3  1  0
  2 13  1  0
  3  4  1  0
  4  5  2  0
  6  5  1  0
  7  6  1  0
  8  7  2  0
  9  8  1  0
 10  9  2  0
 10 11  1  0
 11 12  2  0
 12  7  1  0
 12  4  1  0
 13 14  2  0
 15 16  1  0
 16 17  2  0
 19 18  1  6
 18 16  1  0
 20 13  1  0
 20 19  1  0
 21 22  2  0
 21 19  1  0
 23 24  1  0
 24 26  1  0
 24 25  2  0
 27 26  1  6
 27 28  1  0
 28 21  1  0
 29 27  1  0
 29 30  1  0
 31 29  2  0
M  END
$$$$
