WNN.pdb
     RDKit          3D

 31 32  0  0  1  0  0  0  0  0999 V2000
   23.3297  -18.7286  -15.7292 N   0  0  0  0  0  0  0  0  0  0  0  0
   23.9228  -19.1541  -14.4534 C   0  0  1  0  0  0  0  0  0  0  0  0
   24.8144  -18.0250  -13.9606 C   0  0  0  0  0  0  0  0  0  0  0  0
   25.8654  -17.8246  -14.9938 C   0  0  0  0  0  0  0  0  0  0  0  0
   25.9440  -16.7481  -15.8502 C   0  0  0  0  0  0  0  0  0  0  0  0
   27.0378  -16.9373  -16.6423 N   0  0  0  0  0  0  0  0  0  0  0  0
   27.6554  -18.0883  -16.3236 C   0  0  0  0  0  0  0  0  0  0  0  0
   28.7935  -18.7090  -16.8343 C   0  0  0  0  0  0  0  0  0  0  0  0
   29.2045  -19.9135  -16.2974 C   0  0  0  0  0  0  0  0  0  0  0  0
   28.4865  -20.4914  -15.2622 C   0  0  0  0  0  0  0  0  0  0  0  0
   27.3511  -19.8448  -14.7731 C   0  0  0  0  0  0  0  0  0  0  0  0
   26.9290  -18.6453  -15.2969 C   0  0  0  0  0  0  0  0  0  0  0  0
   22.8510  -19.4773  -13.4901 C   0  0  0  0  0  0  0  0  0  0  0  0
   22.5651  -18.5938  -12.6117 O   0  0  0  0  0  0  0  0  0  0  0  0
   21.2657  -18.8678  -10.6375 N   0  0  0  0  0  0  0  0  0  0  0  0
   20.1894  -18.7431  -11.5478 C   0  0  0  0  0  0  0  0  0  0  0  0
   19.4131  -17.7702  -11.4371 O   0  0  0  0  0  0  0  0  0  0  0  0
   19.9970  -19.7406  -12.5950 C   0  0  0  0  0  0  0  0  0  0  0  0
   21.0076  -20.8925  -12.5291 C   0  0  2  0  0  0  0  0  0  0  0  0
   22.1065  -20.6757  -13.4454 N   0  0  0  0  0  0  0  0  0  0  0  0
   20.2977  -22.1668  -12.7763 C   0  0  0  0  0  0  0  0  0  0  0  0
   19.3373  -22.5454  -12.0209 O   0  0  0  0  0  0  0  0  0  0  0  0
   21.0909  -26.7218  -14.3511 N   0  0  0  0  0  0  0  0  0  0  0  0
   20.7055  -26.3819  -13.0318 C   0  0  0  0  0  0  0  0  0  0  0  0
   21.0168  -27.1407  -12.0901 O   0  0  0  0  0  0  0  0  0  0  0  0
   19.9485  -25.1555  -12.7571 C   0  0  0  0  0  0  0  0  0  0  0  0
   19.8808  -24.3225  -14.0201 C   0  0  2  0  0  0  0  0  0  0  0  0
   20.5943  -23.0640  -13.8344 N   0  0  0  0  0  0  0  0  0  0  0  0
   18.5017  -24.1235  -14.4420 C   0  0  0  0  0  0  0  0  0  0  0  0
   17.7070  -25.2367  -14.7338 O   0  0  0  0  0  0  0  0  0  0  0  0
   17.9695  -23.0041  -14.5639 O   0  0  0  0  0  0  0  0  0  0  0  0
  2  1  1  6
  2  3  1  0
  2 13  1  0
  3  4  1  0
  4  5  2  0
  6  5  1  0
  7  6  1  0
  8  7  2  0
  9  8  1  0
 10  9  2  0
 10 11  1  0
 11 12  2  0
 12  7  1  0
 12  4  1  0
 13 14  2  0
 15 16  1  0
 16 17  2  0
 19 18  1  6
 18 16  1  0
 20 13  1  0
 20 19  1  0
 21 22  2  0
 21 19  1  0
 23 24  1  0
 24 26  1  0
 24 25  2  0
 27 26  1  1
 27 28  1  0
 28 21  1  0
 29 27  1  0
 29 30  1  0
 31 29  2  0
M  END
$$$$
