WNN.pdb
     RDKit          3D

 31 32  0  0  1  0  0  0  0  0999 V2000
   21.3963   -9.8212  -13.7479 N   0  0  0  0  0  0  0  0  0  0  0  0
   20.9970   -8.4162  -13.9116 C   0  0  1  0  0  0  0  0  0  0  0  0
   20.9913   -8.1096  -15.4012 C   0  0  0  0  0  0  0  0  0  0  0  0
   22.2487   -7.3710  -15.6932 C   0  0  0  0  0  0  0  0  0  0  0  0
   23.4032   -7.9325  -16.1936 C   0  0  0  0  0  0  0  0  0  0  0  0
   24.3226   -6.9328  -16.3147 N   0  0  0  0  0  0  0  0  0  0  0  0
   23.7992   -5.7616  -15.9121 C   0  0  0  0  0  0  0  0  0  0  0  0
   24.3303   -4.4751  -15.8479 C   0  0  0  0  0  0  0  0  0  0  0  0
   23.5412   -3.4409  -15.3834 C   0  0  0  0  0  0  0  0  0  0  0  0
   22.2364   -3.6892  -14.9873 C   0  0  0  0  0  0  0  0  0  0  0  0
   21.7341   -4.9886  -15.0636 C   0  0  0  0  0  0  0  0  0  0  0  0
   22.5070   -6.0289  -15.5237 C   0  0  0  0  0  0  0  0  0  0  0  0
   19.6728   -8.2005  -13.2943 C   0  0  0  0  0  0  0  0  0  0  0  0
   18.7851   -9.1015  -13.4790 O   0  0  0  0  0  0  0  0  0  0  0  0
   17.4587   -8.0935   -9.6910 N   0  0  0  0  0  0  0  0  0  0  0  0
   17.7102   -6.7018   -9.6417 C   0  0  0  0  0  0  0  0  0  0  0  0
   17.8015   -6.1426   -8.5279 O   0  0  0  0  0  0  0  0  0  0  0  0
   17.8581   -5.9402  -10.8773 C   0  0  0  0  0  0  0  0  0  0  0  0
   17.9202   -6.8227  -12.1304 C   0  0  2  0  0  0  0  0  0  0  0  0
   19.2899   -7.0879  -12.5145 N   0  0  0  0  0  0  0  0  0  0  0  0
   17.1366   -6.1795  -13.2080 C   0  0  0  0  0  0  0  0  0  0  0  0
   17.6210   -5.2113  -13.8893 O   0  0  0  0  0  0  0  0  0  0  0  0
   16.0754   -5.7035  -18.1368 N   0  0  0  0  0  0  0  0  0  0  0  0
   15.5764   -6.7239  -17.2915 C   0  0  0  0  0  0  0  0  0  0  0  0
   14.6252   -7.4313  -17.6842 O   0  0  0  0  0  0  0  0  0  0  0  0
   16.1591   -6.9604  -15.9660 C   0  0  0  0  0  0  0  0  0  0  0  0
   15.2844   -6.3060  -14.9171 C   0  0  2  0  0  0  0  0  0  0  0  0
   15.8213   -6.5551  -13.5840 N   0  0  0  0  0  0  0  0  0  0  0  0
   13.8997   -6.7359  -15.0486 C   0  0  0  0  0  0  0  0  0  0  0  0
   13.5171   -7.9804  -14.5378 O   0  0  0  0  0  0  0  0  0  0  0  0
   13.0126   -6.0557  -15.5978 O   0  0  0  0  0  0  0  0  0  0  0  0
  2  1  1  6
  2  3  1  0
  2 13  1  0
  3  4  1  0
  4  5  2  0
  6  5  1  0
  7  6  1  0
  8  7  2  0
  9  8  1  0
 10  9  2  0
 10 11  1  0
 11 12  2  0
 12  7  1  0
 12  4  1  0
 13 14  2  0
 15 16  1  0
 16 17  2  0
 19 18  1  1
 18 16  1  0
 20 13  1  0
 20 19  1  0
 21 22  2  0
 21 19  1  0
 23 24  1  0
 24 26  1  0
 24 25  2  0
 27 26  1  6
 27 28  1  0
 28 21  1  0
 29 27  1  0
 29 30  1  0
 31 29  2  0
M  END
$$$$
