NPS.pdb
     RDKit          3D

 22 22  0  0  1  0  0  0  0  0999 V2000
   13.9061  -11.5027  -16.7099 N   0  0  0  0  0  0  0  0  0  0  0  0
   14.2362  -10.6959  -15.5949 C   0  0  0  0  0  0  0  0  0  0  0  0
   13.2931  -10.5065  -14.7478 O   0  0  0  0  0  0  0  0  0  0  0  0
   15.5414  -10.0845  -15.3486 C   0  0  0  0  0  0  0  0  0  0  0  0
   16.5643  -10.3066  -16.4349 C   0  0  2  0  0  0  0  0  0  0  0  0
   16.7682  -11.7101  -16.5367 N   0  0  0  0  0  0  0  0  0  0  0  0
   17.7417   -9.4609  -16.2570 C   0  0  0  0  0  0  0  0  0  0  0  0
   18.4447   -9.6963  -15.2103 O   0  0  0  0  0  0  0  0  0  0  0  0
   18.2150   -8.4238  -17.0727 N   0  0  0  0  0  0  0  0  0  0  0  0
   18.1094   -8.3779  -18.5581 C   0  0  0  0  0  0  0  0  0  0  0  0
   17.4326   -7.0009  -18.7129 C   0  0  0  0  0  0  0  0  0  0  0  0
   17.7588   -6.2382  -17.4230 C   0  0  0  0  0  0  0  0  0  0  0  0
   18.8347   -7.1595  -16.8656 C   0  0  1  0  0  0  0  0  0  0  0  0
   19.3843   -6.7758  -15.5979 C   0  0  0  0  0  0  0  0  0  0  0  0
   18.7803   -6.8942  -14.5183 O   0  0  0  0  0  0  0  0  0  0  0  0
   22.6060   -6.8718  -12.4402 O   0  0  0  0  0  0  0  0  0  0  0  0
   22.0651   -7.0762  -13.6914 C   0  0  0  0  0  0  0  0  0  0  0  0
   21.2872   -5.8653  -14.1992 C   0  0  2  0  0  0  0  0  0  0  0  0
   20.7074   -6.2089  -15.4551 N   0  0  0  0  0  0  0  0  0  0  0  0
   22.3041   -4.7638  -14.3306 C   0  0  0  0  0  0  0  0  0  0  0  0
   22.8547   -4.6392  -15.4599 O   0  0  0  0  0  0  0  0  0  0  0  0
   22.6360   -3.9196  -13.2862 O   0  0  0  0  0  0  0  0  0  0  0  0
  1  2  1  0
  2  4  1  0
  3  2  2  0
  4  5  1  0
  5  7  1  0
  5  6  1  1
  7  8  2  0
  9 13  1  0
  9  7  1  0
 10  9  1  0
 11 10  1  0
 11 12  1  0
 12 13  1  0
 13 14  1  1
 14 15  2  0
 14 19  1  0
 17 16  1  0
 18 17  1  6
 19 18  1  0
 20 18  1  0
 20 22  1  0
 21 20  2  0
M  END
$$$$
