NPS.pdb
     RDKit          3D

 22 22  0  0  1  0  0  0  0  0999 V2000
   35.9623  -29.5682  -21.1576 N   0  0  0  0  0  0  0  0  0  0  0  0
   35.7123  -28.5543  -20.2023 C   0  0  0  0  0  0  0  0  0  0  0  0
   36.6449  -27.6873  -20.0558 O   0  0  0  0  0  0  0  0  0  0  0  0
   34.4980  -28.4298  -19.3974 C   0  0  0  0  0  0  0  0  0  0  0  0
   34.6763  -28.7148  -17.9269 C   0  0  2  0  0  0  0  0  0  0  0  0
   35.0294  -30.0868  -17.8065 N   0  0  0  0  0  0  0  0  0  0  0  0
   33.5464  -28.2330  -17.1367 C   0  0  0  0  0  0  0  0  0  0  0  0
   32.4483  -28.8799  -17.2812 O   0  0  0  0  0  0  0  0  0  0  0  0
   33.4921  -27.1589  -16.2376 N   0  0  0  0  0  0  0  0  0  0  0  0
   34.4028  -26.9598  -15.0755 C   0  0  0  0  0  0  0  0  0  0  0  0
   34.8844  -25.5278  -15.3846 C   0  0  0  0  0  0  0  0  0  0  0  0
   33.8073  -24.9217  -16.2926 C   0  0  0  0  0  0  0  0  0  0  0  0
   32.7199  -25.9706  -16.1072 C   0  0  1  0  0  0  0  0  0  0  0  0
   31.5159  -25.7550  -16.8558 C   0  0  0  0  0  0  0  0  0  0  0  0
   31.4569  -25.7946  -18.0964 O   0  0  0  0  0  0  0  0  0  0  0  0
   26.6480  -25.6278  -16.6622 O   0  0  0  0  0  0  0  0  0  0  0  0
   27.8793  -25.7624  -16.0574 C   0  0  0  0  0  0  0  0  0  0  0  0
   29.0267  -25.3073  -16.9550 C   0  0  2  0  0  0  0  0  0  0  0  0
   30.2435  -25.4681  -16.2303 N   0  0  0  0  0  0  0  0  0  0  0  0
   28.7423  -23.8625  -17.2650 C   0  0  0  0  0  0  0  0  0  0  0  0
   29.2365  -23.0105  -16.4752 O   0  0  0  0  0  0  0  0  0  0  0  0
   27.9834  -23.4626  -18.3503 O   0  0  0  0  0  0  0  0  0  0  0  0
  1  2  1  0
  2  4  1  0
  3  2  2  0
  4  5  1  0
  5  7  1  0
  5  6  1  6
  7  8  2  0
  9 13  1  0
  9  7  1  0
 10  9  1  0
 11 10  1  0
 11 12  1  0
 12 13  1  0
 13 14  1  6
 14 15  2  0
 14 19  1  0
 17 16  1  0
 18 17  1  1
 19 18  1  0
 20 18  1  0
 20 22  1  0
 21 20  2  0
M  END
$$$$
