NPS.pdb
     RDKit          3D

 22 22  0  0  1  0  0  0  0  0999 V2000
   15.6127  -12.0580  -18.0944 N   0  0  0  0  0  0  0  0  0  0  0  0
   15.2232  -11.1667  -17.0664 C   0  0  0  0  0  0  0  0  0  0  0  0
   13.9921  -10.8102  -17.0775 O   0  0  0  0  0  0  0  0  0  0  0  0
   16.1019  -10.6428  -16.0216 C   0  0  0  0  0  0  0  0  0  0  0  0
   17.5344  -11.1088  -16.1010 C   0  0  2  0  0  0  0  0  0  0  0  0
   17.5440  -12.4905  -15.7653 N   0  0  0  0  0  0  0  0  0  0  0  0
   18.4370  -10.2258  -15.3669 C   0  0  0  0  0  0  0  0  0  0  0  0
   18.0779   -9.9295  -14.1717 O   0  0  0  0  0  0  0  0  0  0  0  0
   19.6466   -9.6542  -15.7854 N   0  0  0  0  0  0  0  0  0  0  0  0
   20.6347  -10.2968  -16.6966 C   0  0  0  0  0  0  0  0  0  0  0  0
   20.7614   -9.1769  -17.7491 C   0  0  0  0  0  0  0  0  0  0  0  0
   20.3135   -7.8946  -17.0371 C   0  0  0  0  0  0  0  0  0  0  0  0
   20.3067   -8.4066  -15.6036 C   0  0  1  0  0  0  0  0  0  0  0  0
   19.8928   -7.4603  -14.6087 C   0  0  0  0  0  0  0  0  0  0  0  0
   18.7618   -6.9468  -14.5714 O   0  0  0  0  0  0  0  0  0  0  0  0
   20.2258   -5.6657  -10.2215 O   0  0  0  0  0  0  0  0  0  0  0  0
   20.4799   -6.5933  -11.2089 C   0  0  0  0  0  0  0  0  0  0  0  0
   20.4051   -5.9938  -12.6104 C   0  0  2  0  0  0  0  0  0  0  0  0
   20.7622   -7.0099  -13.5440 N   0  0  0  0  0  0  0  0  0  0  0  0
   21.3904   -4.8564  -12.6113 C   0  0  0  0  0  0  0  0  0  0  0  0
   22.5650   -5.1307  -12.9843 O   0  0  0  0  0  0  0  0  0  0  0  0
   21.0533   -3.5705  -12.2286 O   0  0  0  0  0  0  0  0  0  0  0  0
  1  2  1  0
  2  4  1  0
  3  2  2  0
  4  5  1  0
  5  7  1  0
  5  6  1  1
  7  8  2  0
  9 13  1  0
  9  7  1  0
 10  9  1  0
 11 10  1  0
 11 12  1  0
 12 13  1  0
 13 14  1  1
 14 15  2  0
 14 19  1  0
 17 16  1  0
 18 17  1  1
 19 18  1  0
 20 18  1  0
 20 22  1  0
 21 20  2  0
M  END
$$$$
