NPS.pdb
     RDKit          3D

 22 22  0  0  1  0  0  0  0  0999 V2000
   26.5967  -19.5924  -20.8548 N   0  0  0  0  0  0  0  0  0  0  0  0
   25.5203  -20.1355  -20.1136 C   0  0  0  0  0  0  0  0  0  0  0  0
   24.3824  -20.1325  -20.7036 O   0  0  0  0  0  0  0  0  0  0  0  0
   25.6150  -20.6866  -18.7626 C   0  0  0  0  0  0  0  0  0  0  0  0
   27.0166  -20.7962  -18.2158 C   0  0  2  0  0  0  0  0  0  0  0  0
   27.6934  -21.7756  -18.9934 N   0  0  0  0  0  0  0  0  0  0  0  0
   27.0252  -20.9575  -16.7642 C   0  0  0  0  0  0  0  0  0  0  0  0
   26.7597  -22.1357  -16.3322 O   0  0  0  0  0  0  0  0  0  0  0  0
   27.2847  -20.0024  -15.7715 N   0  0  0  0  0  0  0  0  0  0  0  0
   28.3677  -18.9805  -15.8196 C   0  0  0  0  0  0  0  0  0  0  0  0
   27.5213  -17.7152  -15.5726 C   0  0  0  0  0  0  0  0  0  0  0  0
   26.2469  -18.2061  -14.8749 C   0  0  0  0  0  0  0  0  0  0  0  0
   26.6900  -19.6224  -14.5357 C   0  0  1  0  0  0  0  0  0  0  0  0
   25.7120  -20.4370  -13.8752 C   0  0  0  0  0  0  0  0  0  0  0  0
   24.7269  -20.9345  -14.4466 O   0  0  0  0  0  0  0  0  0  0  0  0
   26.2988  -21.8606  -10.0012 O   0  0  0  0  0  0  0  0  0  0  0  0
   25.0654  -21.2989  -10.2524 C   0  0  0  0  0  0  0  0  0  0  0  0
   24.6985  -21.3275  -11.7336 C   0  0  2  0  0  0  0  0  0  0  0  0
   25.7809  -20.7596  -12.4668 N   0  0  0  0  0  0  0  0  0  0  0  0
   23.4450  -20.5030  -11.8504 C   0  0  0  0  0  0  0  0  0  0  0  0
   23.5808  -19.3367  -12.3143 O   0  0  0  0  0  0  0  0  0  0  0  0
   22.1990  -20.9738  -11.4768 O   0  0  0  0  0  0  0  0  0  0  0  0
  1  2  1  0
  2  4  1  0
  3  2  2  0
  4  5  1  0
  5  7  1  0
  5  6  1  6
  7  8  2  0
  9 13  1  0
  9  7  1  0
 10  9  1  0
 11 10  1  0
 11 12  1  0
 12 13  1  0
 13 14  1  6
 14 15  2  0
 14 19  1  0
 17 16  1  0
 18 17  1  1
 19 18  1  0
 20 18  1  0
 20 22  1  0
 21 20  2  0
M  END
$$$$
