NPS.pdb
     RDKit          3D

 22 22  0  0  1  0  0  0  0  0999 V2000
   27.1521  -22.9509  -18.6856 N   0  0  0  0  0  0  0  0  0  0  0  0
   26.2338  -24.0250  -18.6075 C   0  0  0  0  0  0  0  0  0  0  0  0
   26.4972  -25.0358  -19.3503 O   0  0  0  0  0  0  0  0  0  0  0  0
   25.0426  -24.0610  -17.7604 C   0  0  0  0  0  0  0  0  0  0  0  0
   25.3161  -24.1515  -16.2797 C   0  0  2  0  0  0  0  0  0  0  0  0
   25.7104  -25.4904  -16.0083 N   0  0  0  0  0  0  0  0  0  0  0  0
   24.2240  -23.5919  -15.4876 C   0  0  0  0  0  0  0  0  0  0  0  0
   23.1212  -24.2463  -15.5172 O   0  0  0  0  0  0  0  0  0  0  0  0
   24.2106  -22.4357  -14.6952 N   0  0  0  0  0  0  0  0  0  0  0  0
   25.3816  -21.8791  -13.9615 C   0  0  0  0  0  0  0  0  0  0  0  0
   25.3504  -20.4375  -14.5083 C   0  0  0  0  0  0  0  0  0  0  0  0
   23.9121  -20.2152  -14.9918 C   0  0  0  0  0  0  0  0  0  0  0  0
   23.2559  -21.4348  -14.3602 C   0  0  1  0  0  0  0  0  0  0  0  0
   21.8558  -21.5938  -14.6264 C   0  0  0  0  0  0  0  0  0  0  0  0
   21.3800  -21.7283  -15.7665 O   0  0  0  0  0  0  0  0  0  0  0  0
   19.1739  -23.4321  -12.1909 O   0  0  0  0  0  0  0  0  0  0  0  0
   18.7690  -22.1670  -12.5592 C   0  0  0  0  0  0  0  0  0  0  0  0
   19.4539  -21.6795  -13.8330 C   0  0  2  0  0  0  0  0  0  0  0  0
   20.8553  -21.6127  -13.5819 N   0  0  0  0  0  0  0  0  0  0  0  0
   18.8656  -20.3219  -14.1082 C   0  0  0  0  0  0  0  0  0  0  0  0
   19.5378  -19.3281  -13.7153 O   0  0  0  0  0  0  0  0  0  0  0  0
   17.6554  -20.1449  -14.7546 O   0  0  0  0  0  0  0  0  0  0  0  0
  1  2  1  0
  2  4  1  0
  3  2  2  0
  4  5  1  0
  5  7  1  0
  5  6  1  1
  7  8  2  0
  9 13  1  0
  9  7  1  0
 10  9  1  0
 11 10  1  0
 11 12  1  0
 12 13  1  0
 13 14  1  6
 14 15  2  0
 14 19  1  0
 17 16  1  0
 18 17  1  1
 19 18  1  0
 20 18  1  0
 20 22  1  0
 21 20  2  0
M  END
$$$$
