NPS.pdb
     RDKit          3D

 22 22  0  0  1  0  0  0  0  0999 V2000
   12.0512  -21.7635   -0.4527 N   0  0  0  0  0  0  0  0  0  0  0  0
   12.0373  -22.1082    0.9199 C   0  0  0  0  0  0  0  0  0  0  0  0
   10.9031  -22.0023    1.5076 O   0  0  0  0  0  0  0  0  0  0  0  0
   13.1928  -22.5665    1.6898 C   0  0  0  0  0  0  0  0  0  0  0  0
   14.4806  -22.6624    0.9101 C   0  0  2  0  0  0  0  0  0  0  0  0
   14.2849  -23.6417   -0.1020 N   0  0  0  0  0  0  0  0  0  0  0  0
   15.6392  -22.8144    1.7864 C   0  0  0  0  0  0  0  0  0  0  0  0
   15.6724  -23.8890    2.4859 O   0  0  0  0  0  0  0  0  0  0  0  0
   16.7256  -21.9481    1.9716 N   0  0  0  0  0  0  0  0  0  0  0  0
   17.3976  -21.1653    0.8968 C   0  0  0  0  0  0  0  0  0  0  0  0
   17.3057  -19.7596    1.5240 C   0  0  0  0  0  0  0  0  0  0  0  0
   17.1382  -19.9946    3.0303 C   0  0  0  0  0  0  0  0  0  0  0  0
   17.4819  -21.4766    3.0811 C   0  0  1  0  0  0  0  0  0  0  0  0
   17.4025  -22.0879    4.3758 C   0  0  0  0  0  0  0  0  0  0  0  0
   16.3717  -22.1058    5.0697 O   0  0  0  0  0  0  0  0  0  0  0  0
   19.7421  -24.8453    7.6872 O   0  0  0  0  0  0  0  0  0  0  0  0
   19.7764  -24.0832    6.5392 C   0  0  0  0  0  0  0  0  0  0  0  0
   18.4853  -23.3008    6.3156 C   0  0  2  0  0  0  0  0  0  0  0  0
   18.5268  -22.7479    5.0025 N   0  0  0  0  0  0  0  0  0  0  0  0
   18.4764  -22.2333    7.3763 C   0  0  0  0  0  0  0  0  0  0  0  0
   18.1221  -22.5938    8.5333 O   0  0  0  0  0  0  0  0  0  0  0  0
   18.8325  -20.9207    7.1237 O   0  0  0  0  0  0  0  0  0  0  0  0
  1  2  1  0
  2  4  1  0
  3  2  2  0
  4  5  1  0
  5  7  1  0
  5  6  1  6
  7  8  2  0
  9 13  1  0
  9  7  1  0
 10  9  1  0
 11 10  1  0
 11 12  1  0
 12 13  1  0
 13 14  1  1
 14 15  2  0
 14 19  1  0
 17 16  1  0
 18 17  1  1
 19 18  1  0
 20 18  1  0
 20 22  1  0
 21 20  2  0
M  END
$$$$
