FCY.pdb
     RDKit          3D

 30 31  0  0  1  0  0  0  0  0999 V2000
    6.5933  -17.2685   19.7764 N   0  0  0  0  0  0  0  0  0  0  0  0
    7.7658  -17.2946   20.6263 C   0  0  1  0  0  0  0  0  0  0  0  0
    8.7343  -16.1942   20.2500 C   0  0  0  0  0  0  0  0  0  0  0  0
    8.1134  -14.9010   20.6185 C   0  0  0  0  0  0  0  0  0  0  0  0
    7.6984  -14.0512   19.6242 C   0  0  0  0  0  0  0  0  0  0  0  0
    7.1103  -12.8269   19.9320 C   0  0  0  0  0  0  0  0  0  0  0  0
    6.9446  -12.4676   21.2571 C   0  0  0  0  0  0  0  0  0  0  0  0
    7.3514  -13.3003   22.2586 C   0  0  0  0  0  0  0  0  0  0  0  0
    7.9290  -14.5031   21.9217 C   0  0  0  0  0  0  0  0  0  0  0  0
    7.3681  -17.2500   22.0335 C   0  0  0  0  0  0  0  0  0  0  0  0
    6.1505  -17.2473   22.3364 O   0  0  0  0  0  0  0  0  0  0  0  0
    8.2924  -17.2081   23.1208 N   0  0  0  0  0  0  0  0  0  0  0  0
    7.8777  -17.2675   24.5091 C   0  0  1  0  0  0  0  0  0  0  0  0
    7.1355  -18.5717   24.7051 C   0  0  0  0  0  0  0  0  0  0  0  0
    8.3685  -19.9043   24.4634 S   0  0  0  0  0  0  0  0  0  0  0  0
    9.0260  -17.1299   25.4207 C   0  0  0  0  0  0  0  0  0  0  0  0
   10.1618  -16.9355   24.9148 O   0  0  0  0  0  0  0  0  0  0  0  0
    7.0778  -11.1063   24.8220 O   0  0  0  0  0  0  0  0  0  0  0  0
    7.4889  -12.1443   25.6459 C   0  0  0  0  0  0  0  0  0  0  0  0
    8.0945  -13.2919   25.1778 C   0  0  0  0  0  0  0  0  0  0  0  0
    8.4782  -14.2839   26.0507 C   0  0  0  0  0  0  0  0  0  0  0  0
    8.2875  -14.2007   27.4279 C   0  0  0  0  0  0  0  0  0  0  0  0
    8.7070  -15.2899   28.3104 C   0  0  0  0  0  0  0  0  0  0  0  0
    9.6507  -16.2801   27.7163 C   0  0  2  0  0  0  0  0  0  0  0  0
    8.9357  -17.2015   26.8165 N   0  0  0  0  0  0  0  0  0  0  0  0
   10.3761  -17.0468   28.7584 C   0  0  0  0  0  0  0  0  0  0  0  0
    9.9701  -18.1343   29.2313 O   0  0  0  0  0  0  0  0  0  0  0  0
    7.6770  -13.0408   27.8839 C   0  0  0  0  0  0  0  0  0  0  0  0
    7.2953  -12.0516   27.0061 C   0  0  0  0  0  0  0  0  0  0  0  0
   11.5872  -16.5673   29.2728 O   0  0  0  0  0  0  0  0  0  0  0  0
  2  3  1  0
  2  1  1  6
  3  4  1  0
  4  9  2  0
  5  6  2  0
  5  4  1  0
  6  7  1  0
  7  8  2  0
  9  8  1  0
 10 12  1  0
 10  2  1  0
 11 10  2  0
 13 14  1  6
 13 12  1  0
 14 15  1  0
 16 13  1  0
 16 17  2  0
 18 19  1  0
 19 29  2  0
 20 19  1  0
 20 21  2  0
 21 22  1  0
 22 28  2  0
 22 23  1  0
 24 23  1  1
 24 26  1  0
 24 25  1  0
 25 16  1  0
 26 30  1  0
 27 26  2  0
 29 28  1  0
M  END
$$$$
