FCY.pdb
     RDKit          3D

 30 31  0  0  1  0  0  0  0  0999 V2000
    6.6060  -17.6249   21.1307 N   0  0  0  0  0  0  0  0  0  0  0  0
    7.4019  -16.6124   21.7934 C   0  0  1  0  0  0  0  0  0  0  0  0
    6.5353  -15.4682   22.2735 C   0  0  0  0  0  0  0  0  0  0  0  0
    7.0469  -14.2239   21.6541 C   0  0  0  0  0  0  0  0  0  0  0  0
    6.9898  -14.0834   20.2903 C   0  0  0  0  0  0  0  0  0  0  0  0
    7.4611  -12.9279   19.6723 C   0  0  0  0  0  0  0  0  0  0  0  0
    7.9922  -11.9124   20.4464 C   0  0  0  0  0  0  0  0  0  0  0  0
    8.0568  -12.0351   21.8038 C   0  0  0  0  0  0  0  0  0  0  0  0
    7.5828  -13.1893   22.3844 C   0  0  0  0  0  0  0  0  0  0  0  0
    8.1954  -17.2170   22.8634 C   0  0  0  0  0  0  0  0  0  0  0  0
    7.6399  -17.9650   23.7038 O   0  0  0  0  0  0  0  0  0  0  0  0
    9.5989  -17.0120   23.0265 N   0  0  0  0  0  0  0  0  0  0  0  0
   10.3561  -17.5862   24.1218 C   0  0  1  0  0  0  0  0  0  0  0  0
   11.6763  -18.0656   23.5581 C   0  0  0  0  0  0  0  0  0  0  0  0
   12.6021  -18.7870   24.9642 S   0  0  0  0  0  0  0  0  0  0  0  0
   10.5296  -16.6215   25.2208 C   0  0  0  0  0  0  0  0  0  0  0  0
   11.1002  -15.5296   24.9637 O   0  0  0  0  0  0  0  0  0  0  0  0
    5.9911  -12.2306   24.9207 O   0  0  0  0  0  0  0  0  0  0  0  0
    6.8124  -12.9700   25.7599 C   0  0  0  0  0  0  0  0  0  0  0  0
    7.8023  -12.4103   26.5408 C   0  0  0  0  0  0  0  0  0  0  0  0
    8.5821  -13.2022   27.3520 C   0  0  0  0  0  0  0  0  0  0  0  0
    8.4306  -14.5841   27.4386 C   0  0  0  0  0  0  0  0  0  0  0  0
    9.2940  -15.3800   28.3117 C   0  0  0  0  0  0  0  0  0  0  0  0
   10.4955  -15.9807   27.6643 C   0  0  2  0  0  0  0  0  0  0  0  0
   10.1001  -16.8408   26.5356 N   0  0  0  0  0  0  0  0  0  0  0  0
   11.3160  -16.7524   28.6293 C   0  0  0  0  0  0  0  0  0  0  0  0
   11.8424  -16.2524   29.6511 O   0  0  0  0  0  0  0  0  0  0  0  0
    7.4312  -15.1327   26.6472 C   0  0  0  0  0  0  0  0  0  0  0  0
    6.6541  -14.3356   25.8377 C   0  0  0  0  0  0  0  0  0  0  0  0
   11.5425  -18.1198   28.4283 O   0  0  0  0  0  0  0  0  0  0  0  0
  2  3  1  0
  2  1  1  1
  3  4  1  0
  4  9  2  0
  5  6  2  0
  5  4  1  0
  6  7  1  0
  7  8  2  0
  9  8  1  0
 10 12  1  0
 10  2  1  0
 11 10  2  0
 13 14  1  6
 13 12  1  0
 14 15  1  0
 16 13  1  0
 16 17  2  0
 18 19  1  0
 19 29  2  0
 20 19  1  0
 20 21  2  0
 21 22  1  0
 22 28  2  0
 22 23  1  0
 24 23  1  1
 24 26  1  0
 24 25  1  0
 25 16  1  0
 26 30  1  0
 27 26  2  0
 29 28  1  0
M  END
$$$$
