FCY.pdb
     RDKit          3D

 30 31  0  0  1  0  0  0  0  0999 V2000
    5.8003  -18.3762   25.1297 N   0  0  0  0  0  0  0  0  0  0  0  0
    6.4473  -17.0916   24.9600 C   0  0  1  0  0  0  0  0  0  0  0  0
    7.1705  -16.6764   26.2230 C   0  0  0  0  0  0  0  0  0  0  0  0
    7.1889  -15.1960   26.2666 C   0  0  0  0  0  0  0  0  0  0  0  0
    8.1919  -14.5204   25.6181 C   0  0  0  0  0  0  0  0  0  0  0  0
    8.2422  -13.1289   25.6369 C   0  0  0  0  0  0  0  0  0  0  0  0
    7.2674  -12.4236   26.3187 C   0  0  0  0  0  0  0  0  0  0  0  0
    6.2628  -13.0790   26.9691 C   0  0  0  0  0  0  0  0  0  0  0  0
    6.2410  -14.4545   26.9317 C   0  0  0  0  0  0  0  0  0  0  0  0
    7.3183  -17.1184   23.7848 C   0  0  0  0  0  0  0  0  0  0  0  0
    7.8671  -18.1931   23.4412 O   0  0  0  0  0  0  0  0  0  0  0  0
    7.5980  -15.9761   22.9754 N   0  0  0  0  0  0  0  0  0  0  0  0
    8.4467  -16.0325   21.8009 C   0  0  1  0  0  0  0  0  0  0  0  0
    7.8876  -15.0548   20.7901 C   0  0  0  0  0  0  0  0  0  0  0  0
    7.8898  -13.4155   21.6071 S   0  0  0  0  0  0  0  0  0  0  0  0
    9.8525  -15.7522   22.1381 C   0  0  0  0  0  0  0  0  0  0  0  0
   10.3819  -14.7192   21.6518 O   0  0  0  0  0  0  0  0  0  0  0  0
    9.3210  -15.3650   29.4866 O   0  0  0  0  0  0  0  0  0  0  0  0
    9.9107  -15.2606   28.2350 C   0  0  0  0  0  0  0  0  0  0  0  0
   10.9094  -16.1033   27.7928 C   0  0  0  0  0  0  0  0  0  0  0  0
   11.4515  -15.9443   26.5382 C   0  0  0  0  0  0  0  0  0  0  0  0
   11.0415  -14.9502   25.6529 C   0  0  0  0  0  0  0  0  0  0  0  0
   11.6588  -14.8205   24.3326 C   0  0  0  0  0  0  0  0  0  0  0  0
   11.8879  -16.0959   23.5947 C   0  0  2  0  0  0  0  0  0  0  0  0
   10.6397  -16.5621   22.9663 N   0  0  0  0  0  0  0  0  0  0  0  0
   12.4398  -17.1534   24.4762 C   0  0  0  0  0  0  0  0  0  0  0  0
   13.5630  -17.0832   25.0281 O   0  0  0  0  0  0  0  0  0  0  0  0
   10.0365  -14.1103   26.1117 C   0  0  0  0  0  0  0  0  0  0  0  0
    9.4977  -14.2740   27.3677 C   0  0  0  0  0  0  0  0  0  0  0  0
   11.6996  -18.3138   24.7354 O   0  0  0  0  0  0  0  0  0  0  0  0
  2  3  1  0
  2  1  1  1
  3  4  1  0
  4  9  2  0
  5  6  2  0
  5  4  1  0
  6  7  1  0
  7  8  2  0
  9  8  1  0
 10 12  1  0
 10  2  1  0
 11 10  2  0
 13 14  1  6
 13 12  1  0
 14 15  1  0
 16 13  1  0
 16 17  2  0
 18 19  1  0
 19 29  2  0
 20 19  1  0
 20 21  2  0
 21 22  1  0
 22 28  2  0
 22 23  1  0
 24 23  1  1
 24 26  1  0
 24 25  1  0
 25 16  1  0
 26 30  1  0
 27 26  2  0
 29 28  1  0
M  END
$$$$
