FCY.pdb
     RDKit          3D

 30 31  0  0  1  0  0  0  0  0999 V2000
    5.8978  -16.7271   21.5719 N   0  0  0  0  0  0  0  0  0  0  0  0
    7.0835  -17.0746   20.8161 C   0  0  1  0  0  0  0  0  0  0  0  0
    7.6538  -15.8624   20.1120 C   0  0  0  0  0  0  0  0  0  0  0  0
    7.8053  -14.7859   21.1180 C   0  0  0  0  0  0  0  0  0  0  0  0
    7.4326  -15.0269   22.4165 C   0  0  0  0  0  0  0  0  0  0  0  0
    7.5604  -14.0393   23.3899 C   0  0  0  0  0  0  0  0  0  0  0  0
    8.0695  -12.8022   23.0391 C   0  0  0  0  0  0  0  0  0  0  0  0
    8.4451  -12.5453   21.7527 C   0  0  0  0  0  0  0  0  0  0  0  0
    8.3064  -13.5420   20.8141 C   0  0  0  0  0  0  0  0  0  0  0  0
    8.0547  -17.7421   21.6830 C   0  0  0  0  0  0  0  0  0  0  0  0
    8.1235  -18.9949   21.6919 O   0  0  0  0  0  0  0  0  0  0  0  0
    8.9578  -17.0511   22.5464 N   0  0  0  0  0  0  0  0  0  0  0  0
   10.3763  -17.3472   22.6010 C   0  0  1  0  0  0  0  0  0  0  0  0
   10.9336  -17.1548   21.2072 C   0  0  0  0  0  0  0  0  0  0  0  0
   12.6825  -17.6949   21.2756 S   0  0  0  0  0  0  0  0  0  0  0  0
   11.0625  -16.5136   23.6024 C   0  0  0  0  0  0  0  0  0  0  0  0
   12.3204  -16.4813   23.5821 O   0  0  0  0  0  0  0  0  0  0  0  0
    5.9007  -11.5124   26.6248 O   0  0  0  0  0  0  0  0  0  0  0  0
    6.6822  -12.6591   26.6216 C   0  0  0  0  0  0  0  0  0  0  0  0
    6.2118  -13.8981   26.2390 C   0  0  0  0  0  0  0  0  0  0  0  0
    7.0413  -14.9957   26.2593 C   0  0  0  0  0  0  0  0  0  0  0  0
    8.3750  -14.9339   26.6560 C   0  0  0  0  0  0  0  0  0  0  0  0
    9.2107  -16.1350   26.6670 C   0  0  0  0  0  0  0  0  0  0  0  0
   10.5487  -16.0011   26.0222 C   0  0  2  0  0  0  0  0  0  0  0  0
   10.4048  -15.7531   24.5773 N   0  0  0  0  0  0  0  0  0  0  0  0
   11.3953  -17.1971   26.2516 C   0  0  0  0  0  0  0  0  0  0  0  0
   12.5491  -17.1499   26.7393 O   0  0  0  0  0  0  0  0  0  0  0  0
    8.8337  -13.6812   27.0382 C   0  0  0  0  0  0  0  0  0  0  0  0
    7.9995  -12.5865   27.0159 C   0  0  0  0  0  0  0  0  0  0  0  0
   10.9205  -18.4722   25.9197 O   0  0  0  0  0  0  0  0  0  0  0  0
  2  3  1  0
  2  1  1  1
  3  4  1  0
  4  9  2  0
  5  6  2  0
  5  4  1  0
  6  7  1  0
  7  8  2  0
  9  8  1  0
 10 12  1  0
 10  2  1  0
 11 10  2  0
 13 14  1  6
 13 12  1  0
 14 15  1  0
 16 13  1  0
 16 17  2  0
 18 19  1  0
 19 29  2  0
 20 19  1  0
 20 21  2  0
 21 22  1  0
 22 28  2  0
 22 23  1  0
 24 23  1  6
 24 26  1  0
 24 25  1  0
 25 16  1  0
 26 30  1  0
 27 26  2  0
 29 28  1  0
M  END
$$$$
