FCY.pdb
     RDKit          3D

 30 31  0  0  1  0  0  0  0  0999 V2000
    5.7843  -18.0406   21.0328 N   0  0  0  0  0  0  0  0  0  0  0  0
    6.8673  -17.1084   21.2690 C   0  0  1  0  0  0  0  0  0  0  0  0
    6.4170  -15.9646   22.1518 C   0  0  0  0  0  0  0  0  0  0  0  0
    6.8433  -14.7015   21.5064 C   0  0  0  0  0  0  0  0  0  0  0  0
    6.6152  -14.5260   20.1647 C   0  0  0  0  0  0  0  0  0  0  0  0
    7.0020  -13.3519   19.5233 C   0  0  0  0  0  0  0  0  0  0  0  0
    7.6231  -12.3536   20.2515 C   0  0  0  0  0  0  0  0  0  0  0  0
    7.8577  -12.5112   21.5864 C   0  0  0  0  0  0  0  0  0  0  0  0
    7.4636  -13.6829   22.1910 C   0  0  0  0  0  0  0  0  0  0  0  0
    8.0329  -17.8157   21.7994 C   0  0  0  0  0  0  0  0  0  0  0  0
    7.9223  -19.0104   22.1663 O   0  0  0  0  0  0  0  0  0  0  0  0
    9.3270  -17.2278   21.9343 N   0  0  0  0  0  0  0  0  0  0  0  0
   10.4883  -17.9746   22.3777 C   0  0  1  0  0  0  0  0  0  0  0  0
   10.6562  -19.1507   21.4402 C   0  0  0  0  0  0  0  0  0  0  0  0
   10.4377  -18.4905   19.7457 S   0  0  0  0  0  0  0  0  0  0  0  0
   11.6879  -17.1223   22.4331 C   0  0  0  0  0  0  0  0  0  0  0  0
   12.7473  -17.5590   21.9124 O   0  0  0  0  0  0  0  0  0  0  0  0
   10.5559  -15.1108   30.7951 O   0  0  0  0  0  0  0  0  0  0  0  0
   10.5498  -15.2811   29.4180 C   0  0  0  0  0  0  0  0  0  0  0  0
   10.7144  -16.5048   28.8028 C   0  0  0  0  0  0  0  0  0  0  0  0
   10.6979  -16.6034   27.4305 C   0  0  0  0  0  0  0  0  0  0  0  0
   10.5190  -15.5063   26.5913 C   0  0  0  0  0  0  0  0  0  0  0  0
   10.5188  -15.6667   25.1368 C   0  0  0  0  0  0  0  0  0  0  0  0
   11.8585  -15.6542   24.4820 C   0  0  2  0  0  0  0  0  0  0  0  0
   11.7264  -15.8553   23.0286 N   0  0  0  0  0  0  0  0  0  0  0  0
   12.7648  -16.6777   25.0572 C   0  0  0  0  0  0  0  0  0  0  0  0
   12.5087  -17.9047   25.0717 O   0  0  0  0  0  0  0  0  0  0  0  0
   10.3551  -14.2822   27.2244 C   0  0  0  0  0  0  0  0  0  0  0  0
   10.3723  -14.1895   28.5976 C   0  0  0  0  0  0  0  0  0  0  0  0
   13.9865  -16.2985   25.6274 O   0  0  0  0  0  0  0  0  0  0  0  0
  2  3  1  0
  2  1  1  1
  3  4  1  0
  4  9  2  0
  5  6  2  0
  5  4  1  0
  6  7  1  0
  7  8  2  0
  9  8  1  0
 10 12  1  0
 10  2  1  0
 11 10  2  0
 13 14  1  6
 13 12  1  0
 14 15  1  0
 16 13  1  0
 16 17  2  0
 18 19  1  0
 19 29  2  0
 20 19  1  0
 20 21  2  0
 21 22  1  0
 22 28  2  0
 22 23  1  0
 24 23  1  1
 24 26  1  0
 24 25  1  0
 25 16  1  0
 26 30  1  0
 27 26  2  0
 29 28  1  0
M  END
$$$$
