FCY.pdb
     RDKit          3D

 30 31  0  0  1  0  0  0  0  0999 V2000
    7.3417  -17.5618   21.1862 N   0  0  0  0  0  0  0  0  0  0  0  0
    8.6078  -17.1000   20.6555 C   0  0  1  0  0  0  0  0  0  0  0  0
    8.4231  -16.4399   19.3062 C   0  0  0  0  0  0  0  0  0  0  0  0
    7.9529  -15.0553   19.5417 C   0  0  0  0  0  0  0  0  0  0  0  0
    8.8236  -14.0120   19.3512 C   0  0  0  0  0  0  0  0  0  0  0  0
    8.4175  -12.6968   19.5627 C   0  0  0  0  0  0  0  0  0  0  0  0
    7.1202  -12.4440   19.9697 C   0  0  0  0  0  0  0  0  0  0  0  0
    6.2411  -13.4694   20.1640 C   0  0  0  0  0  0  0  0  0  0  0  0
    6.6728  -14.7578   19.9465 C   0  0  0  0  0  0  0  0  0  0  0  0
    9.2757  -16.2355   21.6285 C   0  0  0  0  0  0  0  0  0  0  0  0
   10.4523  -15.8540   21.4179 O   0  0  0  0  0  0  0  0  0  0  0  0
    8.6680  -15.7801   22.8376 N   0  0  0  0  0  0  0  0  0  0  0  0
    9.3491  -14.9189   23.7849 C   0  0  1  0  0  0  0  0  0  0  0  0
    8.2886  -14.1458   24.5385 C   0  0  0  0  0  0  0  0  0  0  0  0
    7.1824  -15.3955   25.2930 S   0  0  0  0  0  0  0  0  0  0  0  0
   10.2269  -15.6910   24.6804 C   0  0  0  0  0  0  0  0  0  0  0  0
   11.1118  -15.0672   25.3220 O   0  0  0  0  0  0  0  0  0  0  0  0
   10.1151  -13.3145   30.2854 O   0  0  0  0  0  0  0  0  0  0  0  0
   10.1722  -14.4496   29.4893 C   0  0  0  0  0  0  0  0  0  0  0  0
    9.2149  -14.7666   28.5481 C   0  0  0  0  0  0  0  0  0  0  0  0
    9.3327  -15.9095   27.7910 C   0  0  0  0  0  0  0  0  0  0  0  0
   10.3960  -16.8001   27.9185 C   0  0  0  0  0  0  0  0  0  0  0  0
   10.4673  -18.0063   27.0933 C   0  0  0  0  0  0  0  0  0  0  0  0
   11.0587  -17.8303   25.7357 C   0  0  2  0  0  0  0  0  0  0  0  0
   10.1405  -17.0767   24.8645 N   0  0  0  0  0  0  0  0  0  0  0  0
   11.4025  -19.1302   25.1095 C   0  0  0  0  0  0  0  0  0  0  0  0
   10.9029  -19.5387   24.0350 O   0  0  0  0  0  0  0  0  0  0  0  0
   11.3508  -16.4681   28.8693 C   0  0  0  0  0  0  0  0  0  0  0  0
   11.2280  -15.3234   29.6239 C   0  0  0  0  0  0  0  0  0  0  0  0
   12.3331  -19.9823   25.7173 O   0  0  0  0  0  0  0  0  0  0  0  0
  2  3  1  0
  2  1  1  1
  3  4  1  0
  4  9  2  0
  5  6  2  0
  5  4  1  0
  6  7  1  0
  7  8  2  0
  9  8  1  0
 10 12  1  0
 10  2  1  0
 11 10  2  0
 13 14  1  1
 13 12  1  0
 14 15  1  0
 16 13  1  0
 16 17  2  0
 18 19  1  0
 19 29  2  0
 20 19  1  0
 20 21  2  0
 21 22  1  0
 22 28  2  0
 22 23  1  0
 24 23  1  1
 24 26  1  0
 24 25  1  0
 25 16  1  0
 26 30  1  0
 27 26  2  0
 29 28  1  0
M  END
$$$$
