FCY.pdb
     RDKit          3D

 30 31  0  0  1  0  0  0  0  0999 V2000
    7.2362  -20.4722   21.8893 N   0  0  0  0  0  0  0  0  0  0  0  0
    6.9668  -19.2197   22.5648 C   0  0  1  0  0  0  0  0  0  0  0  0
    6.9413  -19.4065   24.0664 C   0  0  0  0  0  0  0  0  0  0  0  0
    5.8468  -20.3521   24.3850 C   0  0  0  0  0  0  0  0  0  0  0  0
    6.1460  -21.5331   25.0164 C   0  0  0  0  0  0  0  0  0  0  0  0
    5.1435  -22.4468   25.3320 C   0  0  0  0  0  0  0  0  0  0  0  0
    3.8321  -22.1562   25.0031 C   0  0  0  0  0  0  0  0  0  0  0  0
    3.5165  -20.9866   24.3750 C   0  0  0  0  0  0  0  0  0  0  0  0
    4.5297  -20.1045   24.0767 C   0  0  0  0  0  0  0  0  0  0  0  0
    7.9213  -18.1992   22.1315 C   0  0  0  0  0  0  0  0  0  0  0  0
    9.0445  -18.5442   21.6914 O   0  0  0  0  0  0  0  0  0  0  0  0
    7.6603  -16.7961   22.1739 N   0  0  0  0  0  0  0  0  0  0  0  0
    8.6717  -15.7983   21.8834 C   0  0  1  0  0  0  0  0  0  0  0  0
    7.9542  -14.5393   21.4468 C   0  0  0  0  0  0  0  0  0  0  0  0
    6.5095  -14.3611   22.5586 S   0  0  0  0  0  0  0  0  0  0  0  0
    9.5534  -15.5720   23.0408 C   0  0  0  0  0  0  0  0  0  0  0  0
   10.5864  -14.8738   22.8689 O   0  0  0  0  0  0  0  0  0  0  0  0
    4.7622  -12.6768   26.2756 O   0  0  0  0  0  0  0  0  0  0  0  0
    6.0519  -13.1870   26.2340 C   0  0  0  0  0  0  0  0  0  0  0  0
    6.3338  -14.5358   26.1694 C   0  0  0  0  0  0  0  0  0  0  0  0
    7.6373  -14.9749   26.1307 C   0  0  0  0  0  0  0  0  0  0  0  0
    8.7312  -14.1130   26.1533 C   0  0  0  0  0  0  0  0  0  0  0  0
   10.0979  -14.6345   26.1190 C   0  0  0  0  0  0  0  0  0  0  0  0
   10.2752  -15.9466   25.4327 C   0  0  2  0  0  0  0  0  0  0  0  0
    9.3166  -16.0841   24.3227 N   0  0  0  0  0  0  0  0  0  0  0  0
   10.1330  -17.0856   26.3721 C   0  0  0  0  0  0  0  0  0  0  0  0
    9.2054  -17.9264   26.3110 O   0  0  0  0  0  0  0  0  0  0  0  0
    8.4319  -12.7594   26.2186 C   0  0  0  0  0  0  0  0  0  0  0  0
    7.1262  -12.3258   26.2570 C   0  0  0  0  0  0  0  0  0  0  0  0
   11.0643  -17.2723   27.4013 O   0  0  0  0  0  0  0  0  0  0  0  0
  2  3  1  0
  2  1  1  6
  3  4  1  0
  4  9  2  0
  5  6  2  0
  5  4  1  0
  6  7  1  0
  7  8  2  0
  9  8  1  0
 10 12  1  0
 10  2  1  0
 11 10  2  0
 13 14  1  1
 13 12  1  0
 14 15  1  0
 16 13  1  0
 16 17  2  0
 18 19  1  0
 19 29  2  0
 20 19  1  0
 20 21  2  0
 21 22  1  0
 22 28  2  0
 22 23  1  0
 24 23  1  1
 24 26  1  0
 24 25  1  0
 25 16  1  0
 26 30  1  0
 27 26  2  0
 29 28  1  0
M  END
$$$$
