FCY.pdb
     RDKit          3D

 30 31  0  0  1  0  0  0  0  0999 V2000
    7.3176  -17.2009   25.9276 N   0  0  0  0  0  0  0  0  0  0  0  0
    6.4417  -17.1218   24.7768 C   0  0  1  0  0  0  0  0  0  0  0  0
    5.2603  -16.2175   25.0543 C   0  0  0  0  0  0  0  0  0  0  0  0
    5.7886  -14.9177   25.5288 C   0  0  0  0  0  0  0  0  0  0  0  0
    6.0876  -14.7630   26.8591 C   0  0  0  0  0  0  0  0  0  0  0  0
    6.5861  -13.5557   27.3421 C   0  0  0  0  0  0  0  0  0  0  0  0
    6.7805  -12.5028   26.4667 C   0  0  0  0  0  0  0  0  0  0  0  0
    6.4885  -12.6390   25.1408 C   0  0  0  0  0  0  0  0  0  0  0  0
    5.9974  -13.8446   24.6946 C   0  0  0  0  0  0  0  0  0  0  0  0
    7.2021  -16.7223   23.5925 C   0  0  0  0  0  0  0  0  0  0  0  0
    7.1132  -17.3975   22.5387 O   0  0  0  0  0  0  0  0  0  0  0  0
    8.0644  -15.5854   23.5466 N   0  0  0  0  0  0  0  0  0  0  0  0
    8.9001  -15.2772   22.4023 C   0  0  1  0  0  0  0  0  0  0  0  0
    8.6798  -13.8197   22.0594 C   0  0  0  0  0  0  0  0  0  0  0  0
    7.5125  -13.7961   20.6482 S   0  0  0  0  0  0  0  0  0  0  0  0
   10.3150  -15.5856   22.6698 C   0  0  0  0  0  0  0  0  0  0  0  0
   11.1755  -15.1670   21.8523 O   0  0  0  0  0  0  0  0  0  0  0  0
   10.6568  -13.3088   29.3944 O   0  0  0  0  0  0  0  0  0  0  0  0
   11.0918  -14.2330   28.4551 C   0  0  0  0  0  0  0  0  0  0  0  0
   11.6477  -15.4507   28.7881 C   0  0  0  0  0  0  0  0  0  0  0  0
   12.0587  -16.3218   27.8055 C   0  0  0  0  0  0  0  0  0  0  0  0
   11.9453  -16.0428   26.4456 C   0  0  0  0  0  0  0  0  0  0  0  0
   12.4070  -17.0023   25.4419 C   0  0  0  0  0  0  0  0  0  0  0  0
   12.1885  -16.6102   24.0199 C   0  0  2  0  0  0  0  0  0  0  0  0
   10.7657  -16.3157   23.7767 N   0  0  0  0  0  0  0  0  0  0  0  0
   12.6599  -17.6556   23.0792 C   0  0  0  0  0  0  0  0  0  0  0  0
   11.9104  -18.2563   22.2739 O   0  0  0  0  0  0  0  0  0  0  0  0
   11.3845  -14.8142   26.1262 C   0  0  0  0  0  0  0  0  0  0  0  0
   10.9750  -13.9467   27.1132 C   0  0  0  0  0  0  0  0  0  0  0  0
   14.0105  -18.0254   23.0540 O   0  0  0  0  0  0  0  0  0  0  0  0
  2  3  1  0
  2  1  1  1
  3  4  1  0
  4  9  2  0
  5  6  2  0
  5  4  1  0
  6  7  1  0
  7  8  2  0
  9  8  1  0
 10 12  1  0
 10  2  1  0
 11 10  2  0
 13 14  1  1
 13 12  1  0
 14 15  1  0
 16 13  1  0
 16 17  2  0
 18 19  1  0
 19 29  2  0
 20 19  1  0
 20 21  2  0
 21 22  1  0
 22 28  2  0
 22 23  1  0
 24 23  1  1
 24 26  1  0
 24 25  1  0
 25 16  1  0
 26 30  1  0
 27 26  2  0
 29 28  1  0
M  END
$$$$
