WEQ.pdb
     RDKit          3D

 33 34  0  0  1  0  0  0  0  0999 V2000
    6.5870  -17.8326   24.6911 N   0  0  0  0  0  0  0  0  0  0  0  0
    7.6046  -16.9796   24.0858 C   0  0  1  0  0  0  0  0  0  0  0  0
    8.1836  -16.1596   25.2145 C   0  0  0  0  0  0  0  0  0  0  0  0
    7.2588  -15.0967   25.6562 C   0  0  0  0  0  0  0  0  0  0  0  0
    5.9903  -15.2722   26.1578 C   0  0  0  0  0  0  0  0  0  0  0  0
    5.4450  -14.0794   26.4556 N   0  0  0  0  0  0  0  0  0  0  0  0
    6.3673  -13.1570   26.1424 C   0  0  0  0  0  0  0  0  0  0  0  0
    6.3321  -11.7949   26.2442 C   0  0  0  0  0  0  0  0  0  0  0  0
    7.4037  -11.0031   25.8615 C   0  0  0  0  0  0  0  0  0  0  0  0
    8.5335  -11.6197   25.3646 C   0  0  0  0  0  0  0  0  0  0  0  0
    8.5964  -12.9845   25.2514 C   0  0  0  0  0  0  0  0  0  0  0  0
    7.5028  -13.7466   25.6450 C   0  0  0  0  0  0  0  0  0  0  0  0
    8.7438  -17.8248   23.5798 C   0  0  0  0  0  0  0  0  0  0  0  0
    9.0383  -18.9228   24.1036 O   0  0  0  0  0  0  0  0  0  0  0  0
    9.5152  -17.3808   22.4797 N   0  0  0  0  0  0  0  0  0  0  0  0
   10.7845  -18.0778   22.1999 C   0  0  1  0  0  0  0  0  0  0  0  0
   11.3502  -17.5249   20.9415 C   0  0  0  0  0  0  0  0  0  0  0  0
   12.6878  -17.9944   20.5291 C   0  0  0  0  0  0  0  0  0  0  0  0
   13.0551  -17.3959   19.1835 C   0  0  0  0  0  0  0  0  0  0  0  0
   13.6223  -16.3065   19.0832 O   0  0  0  0  0  0  0  0  0  0  0  0
   11.6495  -17.7693   23.3525 C   0  0  0  0  0  0  0  0  0  0  0  0
   12.0846  -16.5817   23.5662 O   0  0  0  0  0  0  0  0  0  0  0  0
   12.7332  -18.1133   18.0471 O   0  0  0  0  0  0  0  0  0  0  0  0
   10.9398  -18.1671   28.9742 N   0  0  0  0  0  0  0  0  0  0  0  0
   10.7375  -19.3660   28.2391 C   0  0  0  0  0  0  0  0  0  0  0  0
    9.9981  -20.2857   28.6622 O   0  0  0  0  0  0  0  0  0  0  0  0
   11.4423  -19.5080   26.9212 C   0  0  0  0  0  0  0  0  0  0  0  0
   12.1835  -18.2502   26.6364 C   0  0  0  0  0  0  0  0  0  0  0  0
   13.0054  -18.3421   25.3682 C   0  0  2  0  0  0  0  0  0  0  0  0
   12.0563  -18.7398   24.3026 N   0  0  0  0  0  0  0  0  0  0  0  0
   14.0685  -19.3561   25.5059 C   0  0  0  0  0  0  0  0  0  0  0  0
   14.9774  -19.1586   26.3510 O   0  0  0  0  0  0  0  0  0  0  0  0
   14.1601  -20.5283   24.7799 O   0  0  0  0  0  0  0  0  0  0  0  0
  2  1  1  1
  3  2  1  0
  4  3  1  0
  4  5  2  0
  6  5  1  0
  7  6  1  0
  8  7  2  0
  9 10  2  0
  9  8  1  0
 10 11  1  0
 11 12  2  0
 12  7  1  0
 12  4  1  0
 13 15  1  0
 13  2  1  0
 14 13  2  0
 16 17  1  6
 16 15  1  0
 18 17  1  0
 18 19  1  0
 19 23  1  0
 20 19  2  0
 21 16  1  0
 22 21  2  0
 24 25  1  0
 25 26  2  0
 27 25  1  0
 27 28  1  0
 29 28  1  1
 29 30  1  0
 30 21  1  0
 31 33  1  0
 31 29  1  0
 32 31  2  0
M  END
$$$$
