WEQ.pdb
     RDKit          3D

 33 34  0  0  1  0  0  0  0  0999 V2000
    6.7479  -16.7846   22.7334 N   0  0  0  0  0  0  0  0  0  0  0  0
    7.9675  -16.0075   22.9287 C   0  0  1  0  0  0  0  0  0  0  0  0
    8.0903  -15.7955   24.4191 C   0  0  0  0  0  0  0  0  0  0  0  0
    7.0020  -14.9496   24.9484 C   0  0  0  0  0  0  0  0  0  0  0  0
    5.7910  -15.3839   25.4348 C   0  0  0  0  0  0  0  0  0  0  0  0
    5.0517  -14.3326   25.8312 N   0  0  0  0  0  0  0  0  0  0  0  0
    5.7949  -13.2413   25.5949 C   0  0  0  0  0  0  0  0  0  0  0  0
    5.5254  -11.9190   25.8097 C   0  0  0  0  0  0  0  0  0  0  0  0
    6.4374  -10.9241   25.4931 C   0  0  0  0  0  0  0  0  0  0  0  0
    7.6492  -11.2917   24.9457 C   0  0  0  0  0  0  0  0  0  0  0  0
    7.9463  -12.6108   24.7194 C   0  0  0  0  0  0  0  0  0  0  0  0
    7.0077  -13.5813   25.0493 C   0  0  0  0  0  0  0  0  0  0  0  0
    9.1661  -16.8332   22.5418 C   0  0  0  0  0  0  0  0  0  0  0  0
    9.1603  -17.5805   21.5376 O   0  0  0  0  0  0  0  0  0  0  0  0
   10.3435  -16.7750   23.3246 N   0  0  0  0  0  0  0  0  0  0  0  0
   11.4779  -17.6313   22.9309 C   0  0  1  0  0  0  0  0  0  0  0  0
   12.0719  -17.0725   21.6881 C   0  0  0  0  0  0  0  0  0  0  0  0
   12.0583  -15.6055   21.5237 C   0  0  0  0  0  0  0  0  0  0  0  0
   12.7632  -15.2217   20.2354 C   0  0  0  0  0  0  0  0  0  0  0  0
   13.2961  -16.0590   19.5051 O   0  0  0  0  0  0  0  0  0  0  0  0
   12.4251  -17.5488   24.0568 C   0  0  0  0  0  0  0  0  0  0  0  0
   13.6934  -17.5243   23.8665 O   0  0  0  0  0  0  0  0  0  0  0  0
   12.7962  -13.8841   19.8900 O   0  0  0  0  0  0  0  0  0  0  0  0
   11.9979  -14.9336   29.6053 N   0  0  0  0  0  0  0  0  0  0  0  0
   10.9827  -15.8515   29.2238 C   0  0  0  0  0  0  0  0  0  0  0  0
    9.9032  -15.9449   29.8543 O   0  0  0  0  0  0  0  0  0  0  0  0
   11.2376  -16.7217   28.0273 C   0  0  0  0  0  0  0  0  0  0  0  0
   12.5651  -16.3719   27.4546 C   0  0  0  0  0  0  0  0  0  0  0  0
   13.0566  -17.4093   26.4675 C   0  0  2  0  0  0  0  0  0  0  0  0
   12.0184  -17.4840   25.4134 N   0  0  0  0  0  0  0  0  0  0  0  0
   13.2111  -18.7227   27.1222 C   0  0  0  0  0  0  0  0  0  0  0  0
   12.4349  -19.6526   26.7876 O   0  0  0  0  0  0  0  0  0  0  0  0
   14.1499  -19.0343   28.0871 O   0  0  0  0  0  0  0  0  0  0  0  0
  2  1  1  1
  3  2  1  0
  4  3  1  0
  4  5  2  0
  6  5  1  0
  7  6  1  0
  8  7  2  0
  9 10  2  0
  9  8  1  0
 10 11  1  0
 11 12  2  0
 12  7  1  0
 12  4  1  0
 13 15  1  0
 13  2  1  0
 14 13  2  0
 16 17  1  6
 16 15  1  0
 18 17  1  0
 18 19  1  0
 19 23  1  0
 20 19  2  0
 21 16  1  0
 22 21  2  0
 24 25  1  0
 25 26  2  0
 27 25  1  0
 27 28  1  0
 29 28  1  1
 29 30  1  0
 30 21  1  0
 31 33  1  0
 31 29  1  0
 32 31  2  0
M  END
$$$$
