WEQ.pdb
     RDKit          3D

 33 34  0  0  1  0  0  0  0  0999 V2000
    6.5865  -17.1956   24.9695 N   0  0  0  0  0  0  0  0  0  0  0  0
    7.1597  -16.9272   23.6546 C   0  0  1  0  0  0  0  0  0  0  0  0
    7.1733  -15.4240   23.5069 C   0  0  0  0  0  0  0  0  0  0  0  0
    6.6530  -14.7458   24.7108 C   0  0  0  0  0  0  0  0  0  0  0  0
    5.8097  -15.2854   25.6538 C   0  0  0  0  0  0  0  0  0  0  0  0
    5.5485  -14.3765   26.6101 N   0  0  0  0  0  0  0  0  0  0  0  0
    6.2249  -13.2693   26.2697 C   0  0  0  0  0  0  0  0  0  0  0  0
    6.3102  -12.0544   26.8892 C   0  0  0  0  0  0  0  0  0  0  0  0
    7.0736  -11.0194   26.3715 C   0  0  0  0  0  0  0  0  0  0  0  0
    7.7629  -11.2340   25.1958 C   0  0  0  0  0  0  0  0  0  0  0  0
    7.6955  -12.4430   24.5530 C   0  0  0  0  0  0  0  0  0  0  0  0
    6.9202  -13.4579   25.1012 C   0  0  0  0  0  0  0  0  0  0  0  0
    8.6066  -17.3445   23.6338 C   0  0  0  0  0  0  0  0  0  0  0  0
    9.0981  -18.0774   24.5216 O   0  0  0  0  0  0  0  0  0  0  0  0
    9.4511  -16.9053   22.5867 N   0  0  0  0  0  0  0  0  0  0  0  0
   10.7701  -17.5500   22.4466 C   0  0  1  0  0  0  0  0  0  0  0  0
   11.1870  -17.4496   21.0233 C   0  0  0  0  0  0  0  0  0  0  0  0
   12.4360  -18.1298   20.6273 C   0  0  0  0  0  0  0  0  0  0  0  0
   13.3321  -17.1677   19.8688 C   0  0  0  0  0  0  0  0  0  0  0  0
   14.4223  -16.8005   20.3104 O   0  0  0  0  0  0  0  0  0  0  0  0
   11.6677  -16.7729   23.3197 C   0  0  0  0  0  0  0  0  0  0  0  0
   11.7425  -15.4949   23.2382 O   0  0  0  0  0  0  0  0  0  0  0  0
   12.8908  -16.7011   18.6452 O   0  0  0  0  0  0  0  0  0  0  0  0
   12.2977  -16.6201   29.1434 N   0  0  0  0  0  0  0  0  0  0  0  0
   11.4145  -15.8642   28.3264 C   0  0  0  0  0  0  0  0  0  0  0  0
   10.3891  -15.3138   28.7923 O   0  0  0  0  0  0  0  0  0  0  0  0
   11.7440  -15.7381   26.8672 C   0  0  0  0  0  0  0  0  0  0  0  0
   12.8776  -16.6480   26.5517 C   0  0  0  0  0  0  0  0  0  0  0  0
   13.3648  -16.4865   25.1273 C   0  0  2  0  0  0  0  0  0  0  0  0
   12.4987  -17.3632   24.3050 N   0  0  0  0  0  0  0  0  0  0  0  0
   14.7741  -16.9063   25.0055 C   0  0  0  0  0  0  0  0  0  0  0  0
   15.6583  -16.0168   24.9264 O   0  0  0  0  0  0  0  0  0  0  0  0
   15.2237  -18.2126   24.9716 O   0  0  0  0  0  0  0  0  0  0  0  0
  2  1  1  1
  3  2  1  0
  4  3  1  0
  4  5  2  0
  6  5  1  0
  7  6  1  0
  8  7  2  0
  9 10  2  0
  9  8  1  0
 10 11  1  0
 11 12  2  0
 12  7  1  0
 12  4  1  0
 13 15  1  0
 13  2  1  0
 14 13  2  0
 16 17  1  6
 16 15  1  0
 18 17  1  0
 18 19  1  0
 19 23  1  0
 20 19  2  0
 21 16  1  0
 22 21  2  0
 24 25  1  0
 25 26  2  0
 27 25  1  0
 27 28  1  0
 29 28  1  1
 29 30  1  0
 30 21  1  0
 31 33  1  0
 31 29  1  0
 32 31  2  0
M  END
$$$$
