WEQ.pdb
     RDKit          3D

 33 34  0  0  1  0  0  0  0  0999 V2000
    6.5258  -17.4418   24.1379 N   0  0  0  0  0  0  0  0  0  0  0  0
    7.6747  -16.5684   23.9218 C   0  0  1  0  0  0  0  0  0  0  0  0
    8.0323  -16.0097   25.2788 C   0  0  0  0  0  0  0  0  0  0  0  0
    7.0733  -14.9780   25.7217 C   0  0  0  0  0  0  0  0  0  0  0  0
    5.8381  -15.1971   26.2853 C   0  0  0  0  0  0  0  0  0  0  0  0
    5.2450  -14.0223   26.5630 N   0  0  0  0  0  0  0  0  0  0  0  0
    6.1042  -13.0679   26.1754 C   0  0  0  0  0  0  0  0  0  0  0  0
    6.0029  -11.7063   26.2287 C   0  0  0  0  0  0  0  0  0  0  0  0
    7.0150  -10.8774   25.7698 C   0  0  0  0  0  0  0  0  0  0  0  0
    8.1530  -11.4555   25.2462 C   0  0  0  0  0  0  0  0  0  0  0  0
    8.2815  -12.8188   25.1806 C   0  0  0  0  0  0  0  0  0  0  0  0
    7.2465  -13.6188   25.6501 C   0  0  0  0  0  0  0  0  0  0  0  0
    8.8660  -17.3872   23.4996 C   0  0  0  0  0  0  0  0  0  0  0  0
    8.9857  -18.5935   23.8118 O   0  0  0  0  0  0  0  0  0  0  0  0
    9.8906  -16.7925   22.7257 N   0  0  0  0  0  0  0  0  0  0  0  0
   11.1448  -17.5467   22.5434 C   0  0  1  0  0  0  0  0  0  0  0  0
   11.9633  -16.8460   21.5193 C   0  0  0  0  0  0  0  0  0  0  0  0
   13.2875  -17.4135   21.1971 C   0  0  0  0  0  0  0  0  0  0  0  0
   13.8968  -16.6723   20.0211 C   0  0  0  0  0  0  0  0  0  0  0  0
   13.8692  -17.1250   18.8753 O   0  0  0  0  0  0  0  0  0  0  0  0
   11.8021  -17.5155   23.8620 C   0  0  0  0  0  0  0  0  0  0  0  0
   12.3212  -16.4389   24.3279 O   0  0  0  0  0  0  0  0  0  0  0  0
   14.4970  -15.4520   20.2665 O   0  0  0  0  0  0  0  0  0  0  0  0
    9.7477  -20.2567   28.6287 N   0  0  0  0  0  0  0  0  0  0  0  0
   10.9884  -19.9219   29.2349 C   0  0  0  0  0  0  0  0  0  0  0  0
   11.2243  -20.1690   30.4411 O   0  0  0  0  0  0  0  0  0  0  0  0
   12.0278  -19.2536   28.3824 C   0  0  0  0  0  0  0  0  0  0  0  0
   11.4654  -19.0380   27.0222 C   0  0  0  0  0  0  0  0  0  0  0  0
   12.4913  -18.4813   26.0579 C   0  0  2  0  0  0  0  0  0  0  0  0
   11.9053  -18.6487   24.7076 N   0  0  0  0  0  0  0  0  0  0  0  0
   13.7609  -19.2268   26.1565 C   0  0  0  0  0  0  0  0  0  0  0  0
   14.4555  -19.0900   27.1948 O   0  0  0  0  0  0  0  0  0  0  0  0
   14.2682  -20.0809   25.1959 O   0  0  0  0  0  0  0  0  0  0  0  0
  2  1  1  1
  3  2  1  0
  4  3  1  0
  4  5  2  0
  6  5  1  0
  7  6  1  0
  8  7  2  0
  9 10  2  0
  9  8  1  0
 10 11  1  0
 11 12  2  0
 12  7  1  0
 12  4  1  0
 13 15  1  0
 13  2  1  0
 14 13  2  0
 16 17  1  6
 16 15  1  0
 18 17  1  0
 18 19  1  0
 19 23  1  0
 20 19  2  0
 21 16  1  0
 22 21  2  0
 24 25  1  0
 25 26  2  0
 27 25  1  0
 27 28  1  0
 29 28  1  1
 29 30  1  0
 30 21  1  0
 31 33  1  0
 31 29  1  0
 32 31  2  0
M  END
$$$$
