WEQ.pdb
     RDKit          3D

 33 34  0  0  1  0  0  0  0  0999 V2000
    6.8563  -17.6785   24.1406 N   0  0  0  0  0  0  0  0  0  0  0  0
    7.8573  -16.7324   23.6584 C   0  0  1  0  0  0  0  0  0  0  0  0
    8.3258  -15.9684   24.8742 C   0  0  0  0  0  0  0  0  0  0  0  0
    7.2775  -15.0722   25.4014 C   0  0  0  0  0  0  0  0  0  0  0  0
    6.0847  -15.4538   25.9700 C   0  0  0  0  0  0  0  0  0  0  0  0
    5.3817  -14.3671   26.3357 N   0  0  0  0  0  0  0  0  0  0  0  0
    6.1296  -13.3059   25.9983 C   0  0  0  0  0  0  0  0  0  0  0  0
    5.8914  -11.9683   26.1442 C   0  0  0  0  0  0  0  0  0  0  0  0
    6.8024  -11.0113   25.7247 C   0  0  0  0  0  0  0  0  0  0  0  0
    7.9807  -11.4336   25.1443 C   0  0  0  0  0  0  0  0  0  0  0  0
    8.2459  -12.7692   24.9855 C   0  0  0  0  0  0  0  0  0  0  0  0
    7.3094  -13.7006   25.4179 C   0  0  0  0  0  0  0  0  0  0  0  0
    9.0682  -17.4787   23.1636 C   0  0  0  0  0  0  0  0  0  0  0  0
    9.3888  -18.5992   23.6203 O   0  0  0  0  0  0  0  0  0  0  0  0
    9.8796  -16.9123   22.1520 N   0  0  0  0  0  0  0  0  0  0  0  0
   11.1430  -17.5953   21.8167 C   0  0  1  0  0  0  0  0  0  0  0  0
   11.6382  -17.0482   20.5263 C   0  0  0  0  0  0  0  0  0  0  0  0
   13.0070  -17.4122   20.1099 C   0  0  0  0  0  0  0  0  0  0  0  0
   13.2924  -16.8581   18.7260 C   0  0  0  0  0  0  0  0  0  0  0  0
   14.0728  -15.9222   18.5424 O   0  0  0  0  0  0  0  0  0  0  0  0
   12.0596  -17.2630   22.9219 C   0  0  0  0  0  0  0  0  0  0  0  0
   12.0927  -16.0883   23.4362 O   0  0  0  0  0  0  0  0  0  0  0  0
   12.6446  -17.4371   17.6513 O   0  0  0  0  0  0  0  0  0  0  0  0
   12.0280  -19.0379   28.8860 N   0  0  0  0  0  0  0  0  0  0  0  0
   11.4189  -18.6878   27.6510 C   0  0  0  0  0  0  0  0  0  0  0  0
   10.2782  -18.1706   27.5981 O   0  0  0  0  0  0  0  0  0  0  0  0
   12.1868  -18.9565   26.3893 C   0  0  0  0  0  0  0  0  0  0  0  0
   12.6065  -17.6576   25.7981 C   0  0  0  0  0  0  0  0  0  0  0  0
   13.6751  -17.8269   24.7390 C   0  0  2  0  0  0  0  0  0  0  0  0
   12.9554  -18.1983   23.4985 N   0  0  0  0  0  0  0  0  0  0  0  0
   14.6214  -18.8944   25.1162 C   0  0  0  0  0  0  0  0  0  0  0  0
   14.5383  -20.0021   24.5286 O   0  0  0  0  0  0  0  0  0  0  0  0
   15.6127  -18.7885   26.0730 O   0  0  0  0  0  0  0  0  0  0  0  0
  2  1  1  1
  3  2  1  0
  4  3  1  0
  4  5  2  0
  6  5  1  0
  7  6  1  0
  8  7  2  0
  9 10  2  0
  9  8  1  0
 10 11  1  0
 11 12  2  0
 12  7  1  0
 12  4  1  0
 13 15  1  0
 13  2  1  0
 14 13  2  0
 16 17  1  6
 16 15  1  0
 18 17  1  0
 18 19  1  0
 19 23  1  0
 20 19  2  0
 21 16  1  0
 22 21  2  0
 24 25  1  0
 25 26  2  0
 27 25  1  0
 27 28  1  0
 29 28  1  1
 29 30  1  0
 30 21  1  0
 31 33  1  0
 31 29  1  0
 32 31  2  0
M  END
$$$$
