WEQ.pdb
     RDKit          3D

 33 34  0  0  1  0  0  0  0  0999 V2000
    7.8130  -16.3971   20.7225 N   0  0  0  0  0  0  0  0  0  0  0  0
    8.4161  -15.8659   21.9405 C   0  0  1  0  0  0  0  0  0  0  0  0
    7.2667  -15.4098   22.8079 C   0  0  0  0  0  0  0  0  0  0  0  0
    7.3848  -13.9853   23.1776 C   0  0  0  0  0  0  0  0  0  0  0  0
    7.6077  -12.9332   22.3203 C   0  0  0  0  0  0  0  0  0  0  0  0
    7.6552  -11.7801   23.0109 N   0  0  0  0  0  0  0  0  0  0  0  0
    7.4629  -12.1057   24.2978 C   0  0  0  0  0  0  0  0  0  0  0  0
    7.4175  -11.3214   25.4158 C   0  0  0  0  0  0  0  0  0  0  0  0
    7.2053  -11.8548   26.6776 C   0  0  0  0  0  0  0  0  0  0  0  0
    7.0363  -13.2190   26.7958 C   0  0  0  0  0  0  0  0  0  0  0  0
    7.0770  -14.0299   25.6911 C   0  0  0  0  0  0  0  0  0  0  0  0
    7.2918  -13.4601   24.4418 C   0  0  0  0  0  0  0  0  0  0  0  0
    9.0799  -16.9785   22.7083 C   0  0  0  0  0  0  0  0  0  0  0  0
    8.4193  -17.8430   23.3273 O   0  0  0  0  0  0  0  0  0  0  0  0
   10.4920  -17.0659   22.7419 N   0  0  0  0  0  0  0  0  0  0  0  0
   11.0982  -18.1520   23.5343 C   0  0  1  0  0  0  0  0  0  0  0  0
   12.2856  -18.6577   22.7967 C   0  0  0  0  0  0  0  0  0  0  0  0
   12.8887  -17.7709   21.7822 C   0  0  0  0  0  0  0  0  0  0  0  0
   13.8052  -18.5705   20.8740 C   0  0  0  0  0  0  0  0  0  0  0  0
   13.3694  -19.3247   20.0024 O   0  0  0  0  0  0  0  0  0  0  0  0
   11.4916  -17.5205   24.8064 C   0  0  0  0  0  0  0  0  0  0  0  0
   12.3015  -16.5264   24.8399 O   0  0  0  0  0  0  0  0  0  0  0  0
   15.1692  -18.4326   21.0482 O   0  0  0  0  0  0  0  0  0  0  0  0
    8.7510  -13.7613   27.6987 N   0  0  0  0  0  0  0  0  0  0  0  0
    9.8033  -14.4606   28.3488 C   0  0  0  0  0  0  0  0  0  0  0  0
    9.9687  -14.4036   29.5901 O   0  0  0  0  0  0  0  0  0  0  0  0
   10.7282  -15.2834   27.4995 C   0  0  0  0  0  0  0  0  0  0  0  0
   10.8060  -16.6561   28.0673 C   0  0  0  0  0  0  0  0  0  0  0  0
   11.7504  -17.5472   27.2887 C   0  0  2  0  0  0  0  0  0  0  0  0
   11.0105  -17.9482   26.0695 N   0  0  0  0  0  0  0  0  0  0  0  0
   12.1141  -18.7401   28.0775 C   0  0  0  0  0  0  0  0  0  0  0  0
   12.7604  -18.5782   29.1430 O   0  0  0  0  0  0  0  0  0  0  0  0
   11.8027  -20.0460   27.7498 O   0  0  0  0  0  0  0  0  0  0  0  0
  2  1  1  6
  3  2  1  0
  4  3  1  0
  4  5  2  0
  6  5  1  0
  7  6  1  0
  8  7  2  0
  9 10  2  0
  9  8  1  0
 10 11  1  0
 11 12  2  0
 12  7  1  0
 12  4  1  0
 13 15  1  0
 13  2  1  0
 14 13  2  0
 16 17  1  6
 16 15  1  0
 18 17  1  0
 18 19  1  0
 19 23  1  0
 20 19  2  0
 21 16  1  0
 22 21  2  0
 24 25  1  0
 25 26  2  0
 27 25  1  0
 27 28  1  0
 29 28  1  1
 29 30  1  0
 30 21  1  0
 31 33  1  0
 31 29  1  0
 32 31  2  0
M  END
$$$$
