WEQ.pdb
     RDKit          3D

 33 34  0  0  1  0  0  0  0  0999 V2000
    6.6670  -17.5744   24.0879 N   0  0  0  0  0  0  0  0  0  0  0  0
    7.8627  -16.7836   23.8154 C   0  0  1  0  0  0  0  0  0  0  0  0
    8.2379  -16.1336   25.1263 C   0  0  0  0  0  0  0  0  0  0  0  0
    7.2294  -15.1474   25.5626 C   0  0  0  0  0  0  0  0  0  0  0  0
    5.9849  -15.4235   26.0788 C   0  0  0  0  0  0  0  0  0  0  0  0
    5.3422  -14.2774   26.3659 N   0  0  0  0  0  0  0  0  0  0  0  0
    6.1795  -13.2842   26.0315 C   0  0  0  0  0  0  0  0  0  0  0  0
    6.0288  -11.9288   26.1156 C   0  0  0  0  0  0  0  0  0  0  0  0
    7.0256  -11.0538   25.7120 C   0  0  0  0  0  0  0  0  0  0  0  0
    8.1997  -11.5787   25.2124 C   0  0  0  0  0  0  0  0  0  0  0  0
    8.3780  -12.9346   25.1169 C   0  0  0  0  0  0  0  0  0  0  0  0
    7.3570  -13.7816   25.5311 C   0  0  0  0  0  0  0  0  0  0  0  0
    9.0122  -17.6962   23.4778 C   0  0  0  0  0  0  0  0  0  0  0  0
    9.0921  -18.8588   23.9349 O   0  0  0  0  0  0  0  0  0  0  0  0
   10.0418  -17.2435   22.6190 N   0  0  0  0  0  0  0  0  0  0  0  0
   11.2528  -18.0760   22.4939 C   0  0  1  0  0  0  0  0  0  0  0  0
   12.0504  -17.5660   21.3479 C   0  0  0  0  0  0  0  0  0  0  0  0
   11.5921  -16.3236   20.6953 C   0  0  0  0  0  0  0  0  0  0  0  0
   12.3877  -16.0812   19.4256 C   0  0  0  0  0  0  0  0  0  0  0  0
   11.8796  -16.1696   18.3065 O   0  0  0  0  0  0  0  0  0  0  0  0
   11.9731  -17.8928   23.7665 C   0  0  0  0  0  0  0  0  0  0  0  0
   12.1211  -16.7325   24.2929 O   0  0  0  0  0  0  0  0  0  0  0  0
   13.7239  -15.7520   19.5526 O   0  0  0  0  0  0  0  0  0  0  0  0
   10.1885  -19.1733   29.2073 N   0  0  0  0  0  0  0  0  0  0  0  0
   10.0414  -18.6997   27.8758 C   0  0  0  0  0  0  0  0  0  0  0  0
    9.1320  -17.8991   27.5541 O   0  0  0  0  0  0  0  0  0  0  0  0
   11.0175  -19.1892   26.8455 C   0  0  0  0  0  0  0  0  0  0  0  0
   12.1208  -18.1991   26.7224 C   0  0  0  0  0  0  0  0  0  0  0  0
   13.2143  -18.6706   25.7874 C   0  0  2  0  0  0  0  0  0  0  0  0
   12.5428  -18.9640   24.4999 N   0  0  0  0  0  0  0  0  0  0  0  0
   13.8620  -19.8885   26.3115 C   0  0  0  0  0  0  0  0  0  0  0  0
   14.5235  -19.8028   27.3766 O   0  0  0  0  0  0  0  0  0  0  0  0
   13.8070  -21.1414   25.7312 O   0  0  0  0  0  0  0  0  0  0  0  0
  2  1  1  1
  3  2  1  0
  4  3  1  0
  4  5  2  0
  6  5  1  0
  7  6  1  0
  8  7  2  0
  9 10  2  0
  9  8  1  0
 10 11  1  0
 11 12  2  0
 12  7  1  0
 12  4  1  0
 13 15  1  0
 13  2  1  0
 14 13  2  0
 16 17  1  6
 16 15  1  0
 18 17  1  0
 18 19  1  0
 19 23  1  0
 20 19  2  0
 21 16  1  0
 22 21  2  0
 24 25  1  0
 25 26  2  0
 27 25  1  0
 27 28  1  0
 29 28  1  1
 29 30  1  0
 30 21  1  0
 31 33  1  0
 31 29  1  0
 32 31  2  0
M  END
$$$$
