NWW.pdb
     RDKit          3D

 37 40  0  0  1  0  0  0  0  0999 V2000
   28.6415  -23.7929  -17.3290 N   0  0  0  0  0  0  0  0  0  0  0  0
   29.4294  -22.9901  -16.4710 C   0  0  0  0  0  0  0  0  0  0  0  0
   30.6226  -23.2764  -16.2394 O   0  0  0  0  0  0  0  0  0  0  0  0
   28.8257  -21.7992  -15.8410 C   0  0  0  0  0  0  0  0  0  0  0  0
   27.3327  -21.8735  -16.1080 C   0  0  2  0  0  0  0  0  0  0  0  0
   27.1067  -21.2618  -17.4055 N   0  0  0  0  0  0  0  0  0  0  0  0
   26.5621  -21.1143  -15.0962 C   0  0  0  0  0  0  0  0  0  0  0  0
   26.7859  -19.8971  -14.9044 O   0  0  0  0  0  0  0  0  0  0  0  0
   25.5729  -21.8287  -14.3691 N   0  0  0  0  0  0  0  0  0  0  0  0
   24.7715  -21.2136  -13.3566 C   0  0  1  0  0  0  0  0  0  0  0  0
   23.2854  -21.2812  -13.7669 C   0  0  0  0  0  0  0  0  0  0  0  0
   22.9892  -20.5155  -14.9764 C   0  0  0  0  0  0  0  0  0  0  0  0
   22.9726  -21.1217  -16.2409 C   0  0  0  0  0  0  0  0  0  0  0  0
   22.6403  -20.1797  -17.1200 N   0  0  0  0  0  0  0  0  0  0  0  0
   22.4365  -18.9951  -16.5301 C   0  0  0  0  0  0  0  0  0  0  0  0
   22.0852  -17.7373  -17.0064 C   0  0  0  0  0  0  0  0  0  0  0  0
   21.9564  -16.6986  -16.1413 C   0  0  0  0  0  0  0  0  0  0  0  0
   22.1625  -16.8464  -14.8005 C   0  0  0  0  0  0  0  0  0  0  0  0
   22.5141  -18.1147  -14.3378 C   0  0  0  0  0  0  0  0  0  0  0  0
   22.6578  -19.2039  -15.1669 C   0  0  0  0  0  0  0  0  0  0  0  0
   24.9268  -21.6405  -11.9959 C   0  0  0  0  0  0  0  0  0  0  0  0
   24.6049  -22.7609  -11.5449 O   0  0  0  0  0  0  0  0  0  0  0  0
   25.5068  -20.7059  -11.0726 N   0  0  0  0  0  0  0  0  0  0  0  0
   25.7032  -21.0765   -9.6792 C   0  0  1  0  0  0  0  0  0  0  0  0
   26.7667  -20.1775   -9.0697 C   0  0  0  0  0  0  0  0  0  0  0  0
   27.0835  -20.4559   -7.6700 C   0  0  0  0  0  0  0  0  0  0  0  0
   26.8735  -21.6921   -7.0182 C   0  0  0  0  0  0  0  0  0  0  0  0
   27.3006  -21.6084   -5.7542 N   0  0  0  0  0  0  0  0  0  0  0  0
   27.7920  -20.3689   -5.5161 C   0  0  0  0  0  0  0  0  0  0  0  0
   28.3322  -19.8075   -4.3759 C   0  0  0  0  0  0  0  0  0  0  0  0
   28.7472  -18.4920   -4.4280 C   0  0  0  0  0  0  0  0  0  0  0  0
   28.6317  -17.7496   -5.5748 C   0  0  0  0  0  0  0  0  0  0  0  0
   28.0832  -18.3592   -6.6906 C   0  0  0  0  0  0  0  0  0  0  0  0
   27.6522  -19.6604   -6.7104 C   0  0  0  0  0  0  0  0  0  0  0  0
   24.4465  -21.1331   -8.9627 C   0  0  0  0  0  0  0  0  0  0  0  0
   23.5340  -20.3046   -9.2050 O   0  0  0  0  0  0  0  0  0  0  0  0
   24.1723  -22.0850   -7.9890 O   0  0  0  0  0  0  0  0  0  0  0  0
  2  1  1  0
  3  2  2  0
  4  2  1  0
  5  6  1  6
  5  4  1  0
  7  5  1  0
  8  7  2  0
  9  7  1  0
 10  9  1  0
 10 11  1  6
 11 12  1  0
 12 13  2  0
 13 14  1  0
 15 16  2  0
 15 14  1  0
 17 16  1  0
 18 17  2  0
 19 18  1  0
 19 20  2  0
 20 12  1  0
 20 15  1  0
 21 23  1  0
 21 10  1  0
 22 21  2  0
 24 23  1  0
 24 25  1  1
 25 26  1  0
 26 27  2  0
 26 34  1  0
 27 28  1  0
 28 29  1  0
 29 30  2  0
 30 31  1  0
 32 31  2  0
 33 32  1  0
 34 33  2  0
 34 29  1  0
 35 37  1  0
 35 24  1  0
 36 35  2  0
M  END
$$$$
