NWW.pdb
     RDKit          3D

 37 40  0  0  1  0  0  0  0  0999 V2000
   28.1396  -18.1098  -15.5427 N   0  0  0  0  0  0  0  0  0  0  0  0
   27.8322  -18.0748  -14.1622 C   0  0  0  0  0  0  0  0  0  0  0  0
   28.1927  -17.1161  -13.4478 O   0  0  0  0  0  0  0  0  0  0  0  0
   27.0763  -19.1922  -13.5627 C   0  0  0  0  0  0  0  0  0  0  0  0
   28.0558  -19.9697  -12.7013 C   0  0  2  0  0  0  0  0  0  0  0  0
   28.9542  -20.6629  -13.6075 N   0  0  0  0  0  0  0  0  0  0  0  0
   27.3632  -20.9812  -11.8701 C   0  0  0  0  0  0  0  0  0  0  0  0
   27.3076  -22.1780  -12.2350 O   0  0  0  0  0  0  0  0  0  0  0  0
   26.7769  -20.5284  -10.6581 N   0  0  0  0  0  0  0  0  0  0  0  0
   25.5488  -21.0609  -10.1544 C   0  0  1  0  0  0  0  0  0  0  0  0
   25.5509  -20.9863   -8.6130 C   0  0  0  0  0  0  0  0  0  0  0  0
   26.8623  -20.6582   -8.0568 C   0  0  0  0  0  0  0  0  0  0  0  0
   27.9626  -20.3912   -8.8842 C   0  0  0  0  0  0  0  0  0  0  0  0
   28.9865  -20.0959   -8.0875 N   0  0  0  0  0  0  0  0  0  0  0  0
   28.6446  -20.1484   -6.7940 C   0  0  0  0  0  0  0  0  0  0  0  0
   29.3419  -19.9329   -5.6109 C   0  0  0  0  0  0  0  0  0  0  0  0
   28.7082  -20.0718   -4.4179 C   0  0  0  0  0  0  0  0  0  0  0  0
   27.3916  -20.4211   -4.3365 C   0  0  0  0  0  0  0  0  0  0  0  0
   26.7055  -20.6337   -5.5325 C   0  0  0  0  0  0  0  0  0  0  0  0
   27.2948  -20.5063   -6.7697 C   0  0  0  0  0  0  0  0  0  0  0  0
   24.3103  -20.5532  -10.6705 C   0  0  0  0  0  0  0  0  0  0  0  0
   23.7244  -19.5240  -10.2707 O   0  0  0  0  0  0  0  0  0  0  0  0
   23.6921  -21.2833  -11.7414 N   0  0  0  0  0  0  0  0  0  0  0  0
   22.4533  -20.8052  -12.3366 C   0  0  1  0  0  0  0  0  0  0  0  0
   22.6205  -20.7342  -13.8458 C   0  0  0  0  0  0  0  0  0  0  0  0
   23.0543  -19.4360  -14.3593 C   0  0  0  0  0  0  0  0  0  0  0  0
   23.6454  -18.4111  -13.5865 C   0  0  0  0  0  0  0  0  0  0  0  0
   23.9452  -17.3740  -14.3750 N   0  0  0  0  0  0  0  0  0  0  0  0
   23.5836  -17.6473  -15.6514 C   0  0  0  0  0  0  0  0  0  0  0  0
   23.6815  -16.8960  -16.8058 C   0  0  0  0  0  0  0  0  0  0  0  0
   23.2104  -17.4413  -17.9831 C   0  0  0  0  0  0  0  0  0  0  0  0
   22.6565  -18.6949  -18.0204 C   0  0  0  0  0  0  0  0  0  0  0  0
   22.5816  -19.4073  -16.8354 C   0  0  0  0  0  0  0  0  0  0  0  0
   23.0307  -18.9287  -15.6318 C   0  0  0  0  0  0  0  0  0  0  0  0
   21.3123  -21.5635  -11.8688 C   0  0  0  0  0  0  0  0  0  0  0  0
   21.2981  -22.8165  -11.9546 O   0  0  0  0  0  0  0  0  0  0  0  0
   20.1895  -20.9714  -11.3047 O   0  0  0  0  0  0  0  0  0  0  0  0
  2  1  1  0
  3  2  2  0
  4  2  1  0
  5  6  1  6
  5  4  1  0
  7  5  1  0
  8  7  2  0
  9  7  1  0
 10  9  1  0
 10 11  1  1
 11 12  1  0
 12 13  2  0
 13 14  1  0
 15 16  2  0
 15 14  1  0
 17 16  1  0
 18 17  2  0
 19 18  1  0
 19 20  2  0
 20 12  1  0
 20 15  1  0
 21 23  1  0
 21 10  1  0
 22 21  2  0
 24 23  1  0
 24 25  1  6
 25 26  1  0
 26 27  2  0
 26 34  1  0
 27 28  1  0
 28 29  1  0
 29 30  2  0
 30 31  1  0
 32 31  2  0
 33 32  1  0
 34 33  2  0
 34 29  1  0
 35 37  1  0
 35 24  1  0
 36 35  2  0
M  END
$$$$
