NWW.pdb
     RDKit          3D

 37 40  0  0  1  0  0  0  0  0999 V2000
   28.6366  -18.7015  -17.1442 N   0  0  0  0  0  0  0  0  0  0  0  0
   28.4294  -17.4542  -16.5095 C   0  0  0  0  0  0  0  0  0  0  0  0
   29.0807  -16.4444  -16.8492 O   0  0  0  0  0  0  0  0  0  0  0  0
   27.4290  -17.3519  -15.4287 C   0  0  0  0  0  0  0  0  0  0  0  0
   26.8358  -18.7383  -15.2501 C   0  0  2  0  0  0  0  0  0  0  0  0
   25.8807  -18.9289  -16.3272 N   0  0  0  0  0  0  0  0  0  0  0  0
   26.1135  -18.8577  -13.9625 C   0  0  0  0  0  0  0  0  0  0  0  0
   25.8165  -17.8372  -13.3000 O   0  0  0  0  0  0  0  0  0  0  0  0
   25.7814  -20.1687  -13.5282 N   0  0  0  0  0  0  0  0  0  0  0  0
   25.1847  -20.4265  -12.2542 C   0  0  1  0  0  0  0  0  0  0  0  0
   23.9588  -21.3455  -12.4381 C   0  0  0  0  0  0  0  0  0  0  0  0
   22.7471  -20.6173  -12.8103 C   0  0  0  0  0  0  0  0  0  0  0  0
   22.4830  -20.2681  -14.1425 C   0  0  0  0  0  0  0  0  0  0  0  0
   21.3031  -19.6531  -14.1574 N   0  0  0  0  0  0  0  0  0  0  0  0
   20.7677  -19.5695  -12.9330 C   0  0  0  0  0  0  0  0  0  0  0  0
   19.5854  -19.0289  -12.4411 C   0  0  0  0  0  0  0  0  0  0  0  0
   19.3145  -19.0927  -11.1119 C   0  0  0  0  0  0  0  0  0  0  0  0
   20.1739  -19.6769  -10.2275 C   0  0  0  0  0  0  0  0  0  0  0  0
   21.3561  -20.2151  -10.7366 C   0  0  0  0  0  0  0  0  0  0  0  0
   21.6829  -20.1809  -12.0731 C   0  0  0  0  0  0  0  0  0  0  0  0
   26.0114  -20.9153  -11.1884 C   0  0  0  0  0  0  0  0  0  0  0  0
   26.8550  -21.8323  -11.2858 O   0  0  0  0  0  0  0  0  0  0  0  0
   25.8638  -20.2963   -9.9011 N   0  0  0  0  0  0  0  0  0  0  0  0
   26.6104  -20.7961   -8.7564 C   0  0  1  0  0  0  0  0  0  0  0  0
   27.7365  -19.8272   -8.4342 C   0  0  0  0  0  0  0  0  0  0  0  0
   28.5595  -20.1963   -7.2839 C   0  0  0  0  0  0  0  0  0  0  0  0
   29.5404  -21.2136   -7.2776 C   0  0  0  0  0  0  0  0  0  0  0  0
   30.1225  -21.2650   -6.0753 N   0  0  0  0  0  0  0  0  0  0  0  0
   29.5806  -20.3274   -5.2617 C   0  0  0  0  0  0  0  0  0  0  0  0
   29.8420  -20.0041   -3.9448 C   0  0  0  0  0  0  0  0  0  0  0  0
   29.1097  -18.9892   -3.3627 C   0  0  0  0  0  0  0  0  0  0  0  0
   28.1441  -18.3113   -4.0612 C   0  0  0  0  0  0  0  0  0  0  0  0
   27.9206  -18.6739   -5.3788 C   0  0  0  0  0  0  0  0  0  0  0  0
   28.6109  -19.6697   -6.0200 C   0  0  0  0  0  0  0  0  0  0  0  0
   25.7330  -21.1245   -7.6527 C   0  0  0  0  0  0  0  0  0  0  0  0
   24.5791  -20.6331   -7.5846 O   0  0  0  0  0  0  0  0  0  0  0  0
   26.0979  -21.9857   -6.6258 O   0  0  0  0  0  0  0  0  0  0  0  0
  2  1  1  0
  3  2  2  0
  4  2  1  0
  5  6  1  6
  5  4  1  0
  7  5  1  0
  8  7  2  0
  9  7  1  0
 10  9  1  0
 10 11  1  6
 11 12  1  0
 12 13  2  0
 13 14  1  0
 15 16  2  0
 15 14  1  0
 17 16  1  0
 18 17  2  0
 19 18  1  0
 19 20  2  0
 20 12  1  0
 20 15  1  0
 21 23  1  0
 21 10  1  0
 22 21  2  0
 24 23  1  0
 24 25  1  1
 25 26  1  0
 26 27  2  0
 26 34  1  0
 27 28  1  0
 28 29  1  0
 29 30  2  0
 30 31  1  0
 32 31  2  0
 33 32  1  0
 34 33  2  0
 34 29  1  0
 35 37  1  0
 35 24  1  0
 36 35  2  0
M  END
$$$$
