NWW.pdb
     RDKit          3D

 37 40  0  0  1  0  0  0  0  0999 V2000
   29.1304  -25.5153  -16.5163 N   0  0  0  0  0  0  0  0  0  0  0  0
   27.9760  -24.8619  -17.0079 C   0  0  0  0  0  0  0  0  0  0  0  0
   27.9149  -24.4695  -18.1919 O   0  0  0  0  0  0  0  0  0  0  0  0
   26.8310  -24.6412  -16.1025 C   0  0  0  0  0  0  0  0  0  0  0  0
   26.2562  -23.2791  -16.4493 C   0  0  2  0  0  0  0  0  0  0  0  0
   27.3097  -22.3068  -16.2174 N   0  0  0  0  0  0  0  0  0  0  0  0
   25.1083  -22.9367  -15.5782 C   0  0  0  0  0  0  0  0  0  0  0  0
   24.5268  -23.8226  -14.9108 O   0  0  0  0  0  0  0  0  0  0  0  0
   24.7107  -21.5736  -15.5410 N   0  0  0  0  0  0  0  0  0  0  0  0
   23.6513  -21.1062  -14.7014 C   0  0  1  0  0  0  0  0  0  0  0  0
   24.1382  -19.8858  -13.8921 C   0  0  0  0  0  0  0  0  0  0  0  0
   25.0251  -20.2470  -12.7877 C   0  0  0  0  0  0  0  0  0  0  0  0
   26.4089  -20.3788  -12.9731 C   0  0  0  0  0  0  0  0  0  0  0  0
   26.9342  -20.6762  -11.7873 N   0  0  0  0  0  0  0  0  0  0  0  0
   25.9996  -20.7513  -10.8314 C   0  0  0  0  0  0  0  0  0  0  0  0
   26.0440  -21.0293   -9.4701 C   0  0  0  0  0  0  0  0  0  0  0  0
   24.8962  -21.0391   -8.7444 C   0  0  0  0  0  0  0  0  0  0  0  0
   23.6818  -20.7824   -9.3112 C   0  0  0  0  0  0  0  0  0  0  0  0
   23.6537  -20.5048  -10.6782 C   0  0  0  0  0  0  0  0  0  0  0  0
   24.7840  -20.4797  -11.4633 C   0  0  0  0  0  0  0  0  0  0  0  0
   22.3724  -20.8292  -15.2893 C   0  0  0  0  0  0  0  0  0  0  0  0
   22.1609  -20.0246  -16.2221 O   0  0  0  0  0  0  0  0  0  0  0  0
   21.2382  -21.5394  -14.7684 N   0  0  0  0  0  0  0  0  0  0  0  0
   19.9006  -21.2503  -15.2630 C   0  0  1  0  0  0  0  0  0  0  0  0
   19.4557  -22.3754  -16.1834 C   0  0  0  0  0  0  0  0  0  0  0  0
   18.1670  -22.1637  -16.8402 C   0  0  0  0  0  0  0  0  0  0  0  0
   17.7506  -20.9568  -17.4460 C   0  0  0  0  0  0  0  0  0  0  0  0
   16.5338  -21.1197  -17.9753 N   0  0  0  0  0  0  0  0  0  0  0  0
   16.1027  -22.3849  -17.7561 C   0  0  0  0  0  0  0  0  0  0  0  0
   14.9243  -23.0174  -18.1001 C   0  0  0  0  0  0  0  0  0  0  0  0
   14.7560  -24.3354  -17.7261 C   0  0  0  0  0  0  0  0  0  0  0  0
   15.7246  -25.0115  -17.0301 C   0  0  0  0  0  0  0  0  0  0  0  0
   16.8878  -24.3321  -16.7095 C   0  0  0  0  0  0  0  0  0  0  0  0
   17.1223  -23.0251  -17.0501 C   0  0  0  0  0  0  0  0  0  0  0  0
   18.9924  -20.9305  -14.1820 C   0  0  0  0  0  0  0  0  0  0  0  0
   19.1984  -21.3680  -13.0228 O   0  0  0  0  0  0  0  0  0  0  0  0
   17.8657  -20.1358  -14.3499 O   0  0  0  0  0  0  0  0  0  0  0  0
  2  1  1  0
  3  2  2  0
  4  2  1  0
  5  6  1  1
  5  4  1  0
  7  5  1  0
  8  7  2  0
  9  7  1  0
 10  9  1  0
 10 11  1  6
 11 12  1  0
 12 13  2  0
 13 14  1  0
 15 16  2  0
 15 14  1  0
 17 16  1  0
 18 17  2  0
 19 18  1  0
 19 20  2  0
 20 12  1  0
 20 15  1  0
 21 23  1  0
 21 10  1  0
 22 21  2  0
 24 23  1  0
 24 25  1  1
 25 26  1  0
 26 27  2  0
 26 34  1  0
 27 28  1  0
 28 29  1  0
 29 30  2  0
 30 31  1  0
 32 31  2  0
 33 32  1  0
 34 33  2  0
 34 29  1  0
 35 37  1  0
 35 24  1  0
 36 35  2  0
M  END
$$$$
