NWW.pdb
     RDKit          3D

 37 40  0  0  1  0  0  0  0  0999 V2000
   27.2607  -33.2200  -13.0118 N   0  0  0  0  0  0  0  0  0  0  0  0
   26.5388  -33.5187  -14.1913 C   0  0  0  0  0  0  0  0  0  0  0  0
   25.5222  -34.2430  -14.1563 O   0  0  0  0  0  0  0  0  0  0  0  0
   27.0007  -32.9652  -15.4796 C   0  0  0  0  0  0  0  0  0  0  0  0
   26.3453  -31.6037  -15.6301 C   0  0  2  0  0  0  0  0  0  0  0  0
   24.9653  -31.8416  -16.0144 N   0  0  0  0  0  0  0  0  0  0  0  0
   26.9929  -30.8046  -16.6958 C   0  0  0  0  0  0  0  0  0  0  0  0
   26.7862  -31.0642  -17.9035 O   0  0  0  0  0  0  0  0  0  0  0  0
   27.8450  -29.7465  -16.2813 N   0  0  0  0  0  0  0  0  0  0  0  0
   28.6186  -28.9773  -17.2062 C   0  0  1  0  0  0  0  0  0  0  0  0
   29.1220  -27.6943  -16.5121 C   0  0  0  0  0  0  0  0  0  0  0  0
   28.3787  -26.4993  -16.9074 C   0  0  0  0  0  0  0  0  0  0  0  0
   27.0765  -26.2608  -16.4449 C   0  0  0  0  0  0  0  0  0  0  0  0
   26.6927  -25.0903  -16.9482 N   0  0  0  0  0  0  0  0  0  0  0  0
   27.6450  -24.5375  -17.7100 C   0  0  0  0  0  0  0  0  0  0  0  0
   27.7214  -23.3558  -18.4380 C   0  0  0  0  0  0  0  0  0  0  0  0
   28.8488  -23.0637  -19.1363 C   0  0  0  0  0  0  0  0  0  0  0  0
   29.9263  -23.9008  -19.1501 C   0  0  0  0  0  0  0  0  0  0  0  0
   29.8344  -25.0827  -18.4144 C   0  0  0  0  0  0  0  0  0  0  0  0
   28.7188  -25.4304  -17.6873 C   0  0  0  0  0  0  0  0  0  0  0  0
   29.6970  -29.6148  -17.9054 C   0  0  0  0  0  0  0  0  0  0  0  0
   30.6914  -30.1520  -17.3718 O   0  0  0  0  0  0  0  0  0  0  0  0
   29.6279  -29.6454  -19.3394 N   0  0  0  0  0  0  0  0  0  0  0  0
   30.6280  -30.3719  -20.1071 C   0  0  1  0  0  0  0  0  0  0  0  0
   29.9484  -31.4942  -20.8748 C   0  0  0  0  0  0  0  0  0  0  0  0
   30.8416  -32.3131  -21.6924 C   0  0  0  0  0  0  0  0  0  0  0  0
   31.9536  -33.0379  -21.2072 C   0  0  0  0  0  0  0  0  0  0  0  0
   32.5303  -33.6987  -22.2161 N   0  0  0  0  0  0  0  0  0  0  0  0
   31.8602  -33.4554  -23.3677 C   0  0  0  0  0  0  0  0  0  0  0  0
   32.0760  -33.8991  -24.6575 C   0  0  0  0  0  0  0  0  0  0  0  0
   31.2189  -33.4676  -25.6497 C   0  0  0  0  0  0  0  0  0  0  0  0
   30.1765  -32.6198  -25.3768 C   0  0  0  0  0  0  0  0  0  0  0  0
   30.0033  -32.2040  -24.0674 C   0  0  0  0  0  0  0  0  0  0  0  0
   30.8145  -32.5938  -23.0332 C   0  0  0  0  0  0  0  0  0  0  0  0
   31.4427  -29.4757  -20.9002 C   0  0  0  0  0  0  0  0  0  0  0  0
   32.5054  -29.8804  -21.4337 O   0  0  0  0  0  0  0  0  0  0  0  0
   31.1094  -28.1456  -21.1215 O   0  0  0  0  0  0  0  0  0  0  0  0
  2  1  1  0
  3  2  2  0
  4  2  1  0
  5  6  1  6
  5  4  1  0
  7  5  1  0
  8  7  2  0
  9  7  1  0
 10  9  1  0
 10 11  1  1
 11 12  1  0
 12 13  2  0
 13 14  1  0
 15 16  2  0
 15 14  1  0
 17 16  1  0
 18 17  2  0
 19 18  1  0
 19 20  2  0
 20 12  1  0
 20 15  1  0
 21 23  1  0
 21 10  1  0
 22 21  2  0
 24 23  1  0
 24 25  1  6
 25 26  1  0
 26 27  2  0
 26 34  1  0
 27 28  1  0
 28 29  1  0
 29 30  2  0
 30 31  1  0
 32 31  2  0
 33 32  1  0
 34 33  2  0
 34 29  1  0
 35 37  1  0
 35 24  1  0
 36 35  2  0
M  END
$$$$
