LWN.pdb
     RDKit          3D

 31 32  0  0  1  0  0  0  0  0999 V2000
   22.4012  -20.5338  -16.8840 C   0  0  0  0  0  0  0  0  0  0  0  0
   23.8336  -20.2830  -16.5106 C   0  0  2  0  0  0  0  0  0  0  0  0
   24.6888  -21.1756  -17.4033 C   0  0  0  0  0  0  0  0  0  0  0  0
   24.1089  -20.6984  -15.0691 C   0  0  0  0  0  0  0  0  0  0  0  0
   23.1727  -20.0190  -14.1249 C   0  0  2  0  0  0  0  0  0  0  0  0
   23.3178  -18.5881  -14.1105 N   0  0  0  0  0  0  0  0  0  0  0  0
   23.3249  -20.6178  -12.7755 C   0  0  0  0  0  0  0  0  0  0  0  0
   23.2567  -21.8695  -12.6724 O   0  0  0  0  0  0  0  0  0  0  0  0
   23.5412  -19.8614  -11.6060 N   0  0  0  0  0  0  0  0  0  0  0  0
   23.7254  -20.5005  -10.3399 C   0  0  1  0  0  0  0  0  0  0  0  0
   24.6116  -19.7990   -9.3736 C   0  0  0  0  0  0  0  0  0  0  0  0
   25.9644  -20.3538   -9.2507 C   0  0  0  0  0  0  0  0  0  0  0  0
   26.5493  -21.2741  -10.0962 C   0  0  0  0  0  0  0  0  0  0  0  0
   27.7841  -21.5674   -9.6726 N   0  0  0  0  0  0  0  0  0  0  0  0
   28.0632  -20.8628   -8.5456 C   0  0  0  0  0  0  0  0  0  0  0  0
   29.1813  -20.8099   -7.7469 C   0  0  0  0  0  0  0  0  0  0  0  0
   29.1753  -19.9820   -6.6561 C   0  0  0  0  0  0  0  0  0  0  0  0
   28.0536  -19.2283   -6.3908 C   0  0  0  0  0  0  0  0  0  0  0  0
   26.9399  -19.2849   -7.1911 C   0  0  0  0  0  0  0  0  0  0  0  0
   26.9160  -20.1036   -8.2881 C   0  0  0  0  0  0  0  0  0  0  0  0
   22.3881  -20.8673   -9.8024 C   0  0  0  0  0  0  0  0  0  0  0  0
   21.4165  -20.0467   -9.8537 O   0  0  0  0  0  0  0  0  0  0  0  0
   19.1099  -25.1939   -7.2821 N   0  0  0  0  0  0  0  0  0  0  0  0
   19.1588  -24.2399   -8.3261 C   0  0  0  0  0  0  0  0  0  0  0  0
   18.0789  -23.7426   -8.7246 O   0  0  0  0  0  0  0  0  0  0  0  0
   20.4160  -23.8048   -8.9651 C   0  0  0  0  0  0  0  0  0  0  0  0
   20.8129  -22.3803   -8.5495 C   0  0  2  0  0  0  0  0  0  0  0  0
   22.0890  -22.1238   -9.2067 N   0  0  0  0  0  0  0  0  0  0  0  0
   20.9148  -22.2415   -7.0856 C   0  0  0  0  0  0  0  0  0  0  0  0
   19.8292  -21.9933   -6.2650 O   0  0  0  0  0  0  0  0  0  0  0  0
   22.0375  -22.3512   -6.5430 O   0  0  0  0  0  0  0  0  0  0  0  0
  2  1  1  6
  2  3  1  0
  4  5  1  0
  4  2  1  0
  5  6  1  1
  7  5  1  0
  7  8  2  0
  9  7  1  0
 10  9  1  0
 10 11  1  1
 12 11  1  0
 13 12  2  0
 14 13  1  0
 15 14  1  0
 15 20  2  0
 16 15  1  0
 17 16  2  0
 17 18  1  0
 18 19  2  0
 19 20  1  0
 20 12  1  0
 21 10  1  0
 22 21  2  0
 23 24  1  0
 24 26  1  0
 24 25  2  0
 27 26  1  1
 27 28  1  0
 27 29  1  0
 28 21  1  0
 29 30  1  0
 31 29  2  0
M  END
$$$$
