LWN.pdb
     RDKit          3D

 31 32  0  0  1  0  0  0  0  0999 V2000
   29.1350  -17.5431  -13.8023 C   0  0  0  0  0  0  0  0  0  0  0  0
   28.3803  -18.6256  -14.5183 C   0  0  2  0  0  0  0  0  0  0  0  0
   27.4982  -17.9408  -15.5565 C   0  0  0  0  0  0  0  0  0  0  0  0
   27.4518  -19.3731  -13.5668 C   0  0  0  0  0  0  0  0  0  0  0  0
   28.2154  -19.9828  -12.4378 C   0  0  2  0  0  0  0  0  0  0  0  0
   29.3080  -20.8115  -12.8716 N   0  0  0  0  0  0  0  0  0  0  0  0
   27.2726  -20.7071  -11.5493 C   0  0  0  0  0  0  0  0  0  0  0  0
   27.0304  -21.9151  -11.8026 O   0  0  0  0  0  0  0  0  0  0  0  0
   26.6354  -20.1159  -10.4398 N   0  0  0  0  0  0  0  0  0  0  0  0
   25.4904  -20.7255   -9.8376 C   0  0  1  0  0  0  0  0  0  0  0  0
   25.2794  -20.4418   -8.3933 C   0  0  0  0  0  0  0  0  0  0  0  0
   26.4060  -19.7926   -7.7134 C   0  0  0  0  0  0  0  0  0  0  0  0
   26.9411  -18.5575   -8.0175 C   0  0  0  0  0  0  0  0  0  0  0  0
   27.9691  -18.2894   -7.2042 N   0  0  0  0  0  0  0  0  0  0  0  0
   28.1535  -19.3210   -6.3405 C   0  0  0  0  0  0  0  0  0  0  0  0
   29.0592  -19.5201   -5.3251 C   0  0  0  0  0  0  0  0  0  0  0  0
   28.9966  -20.6816   -4.6024 C   0  0  0  0  0  0  0  0  0  0  0  0
   28.0316  -21.6142   -4.9118 C   0  0  0  0  0  0  0  0  0  0  0  0
   27.1300  -21.4108   -5.9265 C   0  0  0  0  0  0  0  0  0  0  0  0
   27.1682  -20.2598   -6.6667 C   0  0  0  0  0  0  0  0  0  0  0  0
   24.3098  -20.4581  -10.7017 C   0  0  0  0  0  0  0  0  0  0  0  0
   24.4006  -19.6877  -11.7108 O   0  0  0  0  0  0  0  0  0  0  0  0
   20.5641  -22.0737  -13.8216 N   0  0  0  0  0  0  0  0  0  0  0  0
   21.8650  -22.6022  -13.6462 C   0  0  0  0  0  0  0  0  0  0  0  0
   22.2884  -23.4257  -14.4917 O   0  0  0  0  0  0  0  0  0  0  0  0
   22.7430  -22.2309  -12.5195 C   0  0  0  0  0  0  0  0  0  0  0  0
   22.0746  -21.2217  -11.5739 C   0  0  2  0  0  0  0  0  0  0  0  0
   23.0223  -21.0220  -10.4839 N   0  0  0  0  0  0  0  0  0  0  0  0
   20.7717  -21.7058  -11.0831 C   0  0  0  0  0  0  0  0  0  0  0  0
   20.5135  -21.9864   -9.7534 O   0  0  0  0  0  0  0  0  0  0  0  0
   19.8409  -21.8769  -11.9022 O   0  0  0  0  0  0  0  0  0  0  0  0
  2  1  1  1
  2  3  1  0
  4  5  1  0
  4  2  1  0
  5  6  1  6
  7  5  1  0
  7  8  2  0
  9  7  1  0
 10  9  1  0
 10 11  1  1
 12 11  1  0
 13 12  2  0
 14 13  1  0
 15 14  1  0
 15 20  2  0
 16 15  1  0
 17 16  2  0
 17 18  1  0
 18 19  2  0
 19 20  1  0
 20 12  1  0
 21 10  1  0
 22 21  2  0
 23 24  1  0
 24 26  1  0
 24 25  2  0
 27 26  1  6
 27 28  1  0
 27 29  1  0
 28 21  1  0
 29 30  1  0
 31 29  2  0
M  END
$$$$
