LWN.pdb
     RDKit          3D

 31 32  0  0  1  0  0  0  0  0999 V2000
   16.5792  -10.9288  -21.9077 C   0  0  0  0  0  0  0  0  0  0  0  0
   15.4371  -11.2200  -20.9777 C   0  0  2  0  0  0  0  0  0  0  0  0
   14.2059  -10.5309  -21.5559 C   0  0  0  0  0  0  0  0  0  0  0  0
   15.6806  -10.6154  -19.5987 C   0  0  0  0  0  0  0  0  0  0  0  0
   16.9859  -11.0706  -19.0343 C   0  0  2  0  0  0  0  0  0  0  0  0
   16.9977  -12.4645  -18.6799 N   0  0  0  0  0  0  0  0  0  0  0  0
   17.3548  -10.1931  -17.8955 C   0  0  0  0  0  0  0  0  0  0  0  0
   16.4268   -9.6629  -17.2323 O   0  0  0  0  0  0  0  0  0  0  0  0
   18.6855   -9.9224  -17.5180 N   0  0  0  0  0  0  0  0  0  0  0  0
   18.9761   -9.1097  -16.3777 C   0  0  1  0  0  0  0  0  0  0  0  0
   20.2463   -9.4092  -15.6651 C   0  0  0  0  0  0  0  0  0  0  0  0
   20.5659   -8.5072  -14.5528 C   0  0  0  0  0  0  0  0  0  0  0  0
   20.1956   -8.6742  -13.2340 C   0  0  0  0  0  0  0  0  0  0  0  0
   20.6449   -7.6514  -12.4977 N   0  0  0  0  0  0  0  0  0  0  0  0
   21.3218   -6.7784  -13.2876 C   0  0  0  0  0  0  0  0  0  0  0  0
   21.9670   -5.5962  -13.0098 C   0  0  0  0  0  0  0  0  0  0  0  0
   22.5824   -4.9236  -14.0317 C   0  0  0  0  0  0  0  0  0  0  0  0
   22.5379   -5.4484  -15.3042 C   0  0  0  0  0  0  0  0  0  0  0  0
   21.8924   -6.6287  -15.5763 C   0  0  0  0  0  0  0  0  0  0  0  0
   21.2677   -7.3232  -14.5755 C   0  0  0  0  0  0  0  0  0  0  0  0
   18.8019   -7.6839  -16.7631 C   0  0  0  0  0  0  0  0  0  0  0  0
   19.1235   -7.2781  -17.9259 O   0  0  0  0  0  0  0  0  0  0  0  0
   19.1808   -2.7124  -18.1008 N   0  0  0  0  0  0  0  0  0  0  0  0
   18.4897   -3.9181  -18.3675 C   0  0  0  0  0  0  0  0  0  0  0  0
   17.5794   -3.9005  -19.2295 O   0  0  0  0  0  0  0  0  0  0  0  0
   18.7892   -5.1899  -17.6812 C   0  0  0  0  0  0  0  0  0  0  0  0
   18.0303   -5.3225  -16.3523 C   0  0  2  0  0  0  0  0  0  0  0  0
   18.2774   -6.6854  -15.8966 N   0  0  0  0  0  0  0  0  0  0  0  0
   16.5901   -5.0522  -16.5109 C   0  0  0  0  0  0  0  0  0  0  0  0
   15.6059   -5.9942  -16.2710 O   0  0  0  0  0  0  0  0  0  0  0  0
   16.2241   -3.9143  -16.8823 O   0  0  0  0  0  0  0  0  0  0  0  0
  2  1  1  6
  2  3  1  0
  4  5  1  0
  4  2  1  0
  5  6  1  1
  7  5  1  0
  7  8  2  0
  9  7  1  0
 10  9  1  0
 10 11  1  6
 12 11  1  0
 13 12  2  0
 14 13  1  0
 15 14  1  0
 15 20  2  0
 16 15  1  0
 17 16  2  0
 17 18  1  0
 18 19  2  0
 19 20  1  0
 20 12  1  0
 21 10  1  0
 22 21  2  0
 23 24  1  0
 24 26  1  0
 24 25  2  0
 27 26  1  6
 27 28  1  0
 27 29  1  0
 28 21  1  0
 29 30  1  0
 31 29  2  0
M  END
$$$$
