LWN.pdb
     RDKit          3D

 31 32  0  0  1  0  0  0  0  0999 V2000
   24.7974  -21.1422  -16.8239 C   0  0  0  0  0  0  0  0  0  0  0  0
   26.0425  -21.6816  -16.1814 C   0  0  2  0  0  0  0  0  0  0  0  0
   26.3321  -23.0287  -16.8344 C   0  0  0  0  0  0  0  0  0  0  0  0
   25.8271  -21.9435  -14.6943 C   0  0  0  0  0  0  0  0  0  0  0  0
   25.4898  -20.6827  -13.9691 C   0  0  2  0  0  0  0  0  0  0  0  0
   26.4304  -19.6207  -14.2058 N   0  0  0  0  0  0  0  0  0  0  0  0
   25.3252  -20.9827  -12.5249 C   0  0  0  0  0  0  0  0  0  0  0  0
   24.7914  -22.0756  -12.2046 O   0  0  0  0  0  0  0  0  0  0  0  0
   25.7337  -20.1111  -11.4953 N   0  0  0  0  0  0  0  0  0  0  0  0
   25.5763  -20.4716  -10.1203 C   0  0  1  0  0  0  0  0  0  0  0  0
   26.4507  -19.7595   -9.1511 C   0  0  0  0  0  0  0  0  0  0  0  0
   26.3747  -20.2445   -7.7683 C   0  0  0  0  0  0  0  0  0  0  0  0
   25.5044  -21.2000   -7.2849 C   0  0  0  0  0  0  0  0  0  0  0  0
   25.7042  -21.3826   -5.9746 N   0  0  0  0  0  0  0  0  0  0  0  0
   26.7011  -20.5674   -5.5434 C   0  0  0  0  0  0  0  0  0  0  0  0
   27.2728  -20.3886   -4.3056 C   0  0  0  0  0  0  0  0  0  0  0  0
   28.2893  -19.4807   -4.1723 C   0  0  0  0  0  0  0  0  0  0  0  0
   28.7090  -18.7749   -5.2780 C   0  0  0  0  0  0  0  0  0  0  0  0
   28.1349  -18.9569   -6.5113 C   0  0  0  0  0  0  0  0  0  0  0  0
   27.1165  -19.8570   -6.6754 C   0  0  0  0  0  0  0  0  0  0  0  0
   24.1265  -20.4361   -9.7907 C   0  0  0  0  0  0  0  0  0  0  0  0
   23.4005  -19.4524  -10.1446 O   0  0  0  0  0  0  0  0  0  0  0  0
   19.7046  -23.0860   -6.5327 N   0  0  0  0  0  0  0  0  0  0  0  0
   20.2259  -22.8327   -7.8237 C   0  0  0  0  0  0  0  0  0  0  0  0
   19.4175  -22.7010   -8.7731 O   0  0  0  0  0  0  0  0  0  0  0  0
   21.6703  -22.7168   -8.1035 C   0  0  0  0  0  0  0  0  0  0  0  0
   22.0217  -21.3875   -8.7882 C   0  0  2  0  0  0  0  0  0  0  0  0
   23.4488  -21.4635   -9.0778 N   0  0  0  0  0  0  0  0  0  0  0  0
   21.6978  -20.2275   -7.9385 C   0  0  0  0  0  0  0  0  0  0  0  0
   22.5199  -19.7714   -6.9238 O   0  0  0  0  0  0  0  0  0  0  0  0
   20.6247  -19.6135   -8.1343 O   0  0  0  0  0  0  0  0  0  0  0  0
  2  1  1  6
  2  3  1  0
  4  5  1  0
  4  2  1  0
  5  6  1  1
  7  5  1  0
  7  8  2  0
  9  7  1  0
 10  9  1  0
 10 11  1  1
 12 11  1  0
 13 12  2  0
 14 13  1  0
 15 14  1  0
 15 20  2  0
 16 15  1  0
 17 16  2  0
 17 18  1  0
 18 19  2  0
 19 20  1  0
 20 12  1  0
 21 10  1  0
 22 21  2  0
 23 24  1  0
 24 26  1  0
 24 25  2  0
 27 26  1  1
 27 28  1  0
 27 29  1  0
 28 21  1  0
 29 30  1  0
 31 29  2  0
M  END
$$$$
