LWN.pdb
     RDKit          3D

 31 32  0  0  1  0  0  0  0  0999 V2000
   27.8966  -19.1294  -17.3514 C   0  0  0  0  0  0  0  0  0  0  0  0
   28.7187  -20.0894  -16.5410 C   0  0  2  0  0  0  0  0  0  0  0  0
   29.2422  -21.1495  -17.5039 C   0  0  0  0  0  0  0  0  0  0  0  0
   27.8628  -20.8109  -15.5050 C   0  0  0  0  0  0  0  0  0  0  0  0
   27.2901  -19.8496  -14.5163 C   0  0  2  0  0  0  0  0  0  0  0  0
   28.2719  -18.9662  -13.9468 N   0  0  0  0  0  0  0  0  0  0  0  0
   26.5403  -20.6058  -13.4825 C   0  0  0  0  0  0  0  0  0  0  0  0
   26.3236  -21.8282  -13.6842 O   0  0  0  0  0  0  0  0  0  0  0  0
   26.0592  -20.0295  -12.2895 N   0  0  0  0  0  0  0  0  0  0  0  0
   25.2823  -20.7943  -11.3639 C   0  0  1  0  0  0  0  0  0  0  0  0
   25.5184  -20.5165   -9.9224 C   0  0  0  0  0  0  0  0  0  0  0  0
   26.8855  -20.7697   -9.4534 C   0  0  0  0  0  0  0  0  0  0  0  0
   27.8607  -21.4785  -10.1247 C   0  0  0  0  0  0  0  0  0  0  0  0
   28.9806  -21.5241   -9.3940 N   0  0  0  0  0  0  0  0  0  0  0  0
   28.7952  -20.8564   -8.2260 C   0  0  0  0  0  0  0  0  0  0  0  0
   29.6309  -20.6168   -7.1606 C   0  0  0  0  0  0  0  0  0  0  0  0
   29.1585  -19.8887   -6.1012 C   0  0  0  0  0  0  0  0  0  0  0  0
   27.8644  -19.4187   -6.1328 C   0  0  0  0  0  0  0  0  0  0  0  0
   27.0341  -19.6608   -7.1986 C   0  0  0  0  0  0  0  0  0  0  0  0
   27.4779  -20.3859   -8.2717 C   0  0  0  0  0  0  0  0  0  0  0  0
   23.8570  -20.7283  -11.7835 C   0  0  0  0  0  0  0  0  0  0  0  0
   23.3695  -19.6593  -12.2730 O   0  0  0  0  0  0  0  0  0  0  0  0
   18.8476  -21.0218  -12.6086 N   0  0  0  0  0  0  0  0  0  0  0  0
   19.6270  -20.1435  -11.8188 C   0  0  0  0  0  0  0  0  0  0  0  0
   19.0887  -19.0935  -11.3947 O   0  0  0  0  0  0  0  0  0  0  0  0
   21.0377  -20.4047  -11.4726 C   0  0  0  0  0  0  0  0  0  0  0  0
   21.5580  -21.7030  -12.1074 C   0  0  2  0  0  0  0  0  0  0  0  0
   22.9473  -21.8167  -11.6794 N   0  0  0  0  0  0  0  0  0  0  0  0
   21.4388  -21.6844  -13.5765 C   0  0  0  0  0  0  0  0  0  0  0  0
   22.0039  -20.7070  -14.3757 O   0  0  0  0  0  0  0  0  0  0  0  0
   20.7943  -22.5952  -14.1439 O   0  0  0  0  0  0  0  0  0  0  0  0
  2  1  1  6
  2  3  1  0
  4  5  1  0
  4  2  1  0
  5  6  1  1
  7  5  1  0
  7  8  2  0
  9  7  1  0
 10  9  1  0
 10 11  1  1
 12 11  1  0
 13 12  2  0
 14 13  1  0
 15 14  1  0
 15 20  2  0
 16 15  1  0
 17 16  2  0
 17 18  1  0
 18 19  2  0
 19 20  1  0
 20 12  1  0
 21 10  1  0
 22 21  2  0
 23 24  1  0
 24 26  1  0
 24 25  2  0
 27 26  1  1
 27 28  1  0
 27 29  1  0
 28 21  1  0
 29 30  1  0
 31 29  2  0
M  END
$$$$
