LWN.pdb
     RDKit          3D

 31 32  0  0  1  0  0  0  0  0999 V2000
   28.0880  -17.3128  -15.4052 C   0  0  0  0  0  0  0  0  0  0  0  0
   27.8683  -18.7679  -15.7029 C   0  0  2  0  0  0  0  0  0  0  0  0
   27.1730  -18.8446  -17.0578 C   0  0  0  0  0  0  0  0  0  0  0  0
   26.9297  -19.4042  -14.6829 C   0  0  0  0  0  0  0  0  0  0  0  0
   27.4540  -20.7228  -14.2182 C   0  0  2  0  0  0  0  0  0  0  0  0
   27.2170  -21.7907  -15.1521 N   0  0  0  0  0  0  0  0  0  0  0  0
   26.9050  -21.0158  -12.8708 C   0  0  0  0  0  0  0  0  0  0  0  0
   25.9248  -21.7998  -12.7888 O   0  0  0  0  0  0  0  0  0  0  0  0
   27.4214  -20.4644  -11.6809 N   0  0  0  0  0  0  0  0  0  0  0  0
   26.8662  -20.8087  -10.4086 C   0  0  1  0  0  0  0  0  0  0  0  0
   27.7536  -20.6151   -9.2314 C   0  0  0  0  0  0  0  0  0  0  0  0
   27.0847  -20.6845   -7.9272 C   0  0  0  0  0  0  0  0  0  0  0  0
   25.8426  -21.2299   -7.6747 C   0  0  0  0  0  0  0  0  0  0  0  0
   25.5414  -21.1057   -6.3770 N   0  0  0  0  0  0  0  0  0  0  0  0
   26.5577  -20.4823   -5.7266 C   0  0  0  0  0  0  0  0  0  0  0  0
   26.7290  -20.1335   -4.4076 C   0  0  0  0  0  0  0  0  0  0  0  0
   27.8884  -19.5070   -4.0352 C   0  0  0  0  0  0  0  0  0  0  0  0
   28.8467  -19.2450   -4.9890 C   0  0  0  0  0  0  0  0  0  0  0  0
   28.6708  -19.5950   -6.3044 C   0  0  0  0  0  0  0  0  0  0  0  0
   27.5221  -20.2219   -6.7068 C   0  0  0  0  0  0  0  0  0  0  0  0
   25.5306  -20.1649  -10.2918 C   0  0  0  0  0  0  0  0  0  0  0  0
   25.4251  -18.9122  -10.0923 O   0  0  0  0  0  0  0  0  0  0  0  0
   22.9944  -21.4106  -12.9686 N   0  0  0  0  0  0  0  0  0  0  0  0
   22.9787  -19.9972  -12.9005 C   0  0  0  0  0  0  0  0  0  0  0  0
   22.8863  -19.3539  -13.9727 O   0  0  0  0  0  0  0  0  0  0  0  0
   23.0656  -19.2483  -11.6317 C   0  0  0  0  0  0  0  0  0  0  0  0
   23.0153  -20.1758  -10.4083 C   0  0  2  0  0  0  0  0  0  0  0  0
   24.2984  -20.8683  -10.3912 N   0  0  0  0  0  0  0  0  0  0  0  0
   21.8859  -21.1202  -10.4787 C   0  0  0  0  0  0  0  0  0  0  0  0
   22.0395  -22.4800  -10.6812 O   0  0  0  0  0  0  0  0  0  0  0  0
   20.7204  -20.6820  -10.3508 O   0  0  0  0  0  0  0  0  0  0  0  0
  2  1  1  1
  2  3  1  0
  4  5  1  0
  4  2  1  0
  5  6  1  6
  7  5  1  0
  7  8  2  0
  9  7  1  0
 10  9  1  0
 10 11  1  1
 12 11  1  0
 13 12  2  0
 14 13  1  0
 15 14  1  0
 15 20  2  0
 16 15  1  0
 17 16  2  0
 17 18  1  0
 18 19  2  0
 19 20  1  0
 20 12  1  0
 21 10  1  0
 22 21  2  0
 23 24  1  0
 24 26  1  0
 24 25  2  0
 27 26  1  6
 27 28  1  0
 27 29  1  0
 28 21  1  0
 29 30  1  0
 31 29  2  0
M  END
$$$$
