LWN.pdb
     RDKit          3D

 31 32  0  0  1  0  0  0  0  0999 V2000
   27.4808  -21.7415   -8.7164 C   0  0  0  0  0  0  0  0  0  0  0  0
   27.1079  -20.3976   -9.2724 C   0  0  2  0  0  0  0  0  0  0  0  0
   27.2188  -19.3964   -8.1277 C   0  0  0  0  0  0  0  0  0  0  0  0
   25.6573  -20.3785   -9.7432 C   0  0  0  0  0  0  0  0  0  0  0  0
   25.4664  -21.2581  -10.9346 C   0  0  2  0  0  0  0  0  0  0  0  0
   26.6895  -21.5367  -11.6382 N   0  0  0  0  0  0  0  0  0  0  0  0
   24.4287  -20.6652  -11.8144 C   0  0  0  0  0  0  0  0  0  0  0  0
   23.3893  -20.2045  -11.2763 O   0  0  0  0  0  0  0  0  0  0  0  0
   24.5445  -20.5906  -13.2172 N   0  0  0  0  0  0  0  0  0  0  0  0
   23.4971  -20.0300  -14.0133 C   0  0  1  0  0  0  0  0  0  0  0  0
   23.8749  -19.5981  -15.3850 C   0  0  0  0  0  0  0  0  0  0  0  0
   22.8138  -18.9243  -16.1421 C   0  0  0  0  0  0  0  0  0  0  0  0
   22.2461  -17.7030  -15.8417 C   0  0  0  0  0  0  0  0  0  0  0  0
   21.2976  -17.4046  -16.7370 N   0  0  0  0  0  0  0  0  0  0  0  0
   21.2005  -18.4018  -17.6538 C   0  0  0  0  0  0  0  0  0  0  0  0
   20.3952  -18.5622  -18.7569 C   0  0  0  0  0  0  0  0  0  0  0  0
   20.5315  -19.6943  -19.5152 C   0  0  0  0  0  0  0  0  0  0  0  0
   21.4680  -20.6369  -19.1530 C   0  0  0  0  0  0  0  0  0  0  0  0
   22.2693  -20.4722  -18.0509 C   0  0  0  0  0  0  0  0  0  0  0  0
   22.1557  -19.3512  -17.2732 C   0  0  0  0  0  0  0  0  0  0  0  0
   22.3234  -20.9413  -13.9507 C   0  0  0  0  0  0  0  0  0  0  0  0
   22.4750  -22.2044  -13.9905 O   0  0  0  0  0  0  0  0  0  0  0  0
   19.2363  -23.6835  -12.2839 N   0  0  0  0  0  0  0  0  0  0  0  0
   18.8315  -22.4054  -11.8313 C   0  0  0  0  0  0  0  0  0  0  0  0
   18.2554  -22.3257  -10.7205 O   0  0  0  0  0  0  0  0  0  0  0  0
   19.0550  -21.1669  -12.6024 C   0  0  0  0  0  0  0  0  0  0  0  0
   19.8528  -21.4234  -13.8896 C   0  0  2  0  0  0  0  0  0  0  0  0
   20.9770  -20.4959  -13.8428 N   0  0  0  0  0  0  0  0  0  0  0  0
   19.0304  -21.2244  -15.0966 C   0  0  0  0  0  0  0  0  0  0  0  0
   18.6279  -22.2569  -15.9246 O   0  0  0  0  0  0  0  0  0  0  0  0
   18.6706  -20.0647  -15.4005 O   0  0  0  0  0  0  0  0  0  0  0  0
  2  1  1  1
  2  3  1  0
  4  5  1  0
  4  2  1  0
  5  6  1  6
  7  5  1  0
  7  8  2  0
  9  7  1  0
 10  9  1  0
 10 11  1  6
 12 11  1  0
 13 12  2  0
 14 13  1  0
 15 14  1  0
 15 20  2  0
 16 15  1  0
 17 16  2  0
 17 18  1  0
 18 19  2  0
 19 20  1  0
 20 12  1  0
 21 10  1  0
 22 21  2  0
 23 24  1  0
 24 26  1  0
 24 25  2  0
 27 26  1  1
 27 28  1  0
 27 29  1  0
 28 21  1  0
 29 30  1  0
 31 29  2  0
M  END
$$$$
