CDS.pdb
     RDKit          3D

 21 20  0  0  1  0  0  0  0  0999 V2000
    5.2051  -14.3343   25.9623 N   0  0  0  0  0  0  0  0  0  0  0  0
    6.3775  -13.7038   25.3895 C   0  0  1  0  0  0  0  0  0  0  0  0
    6.9109  -12.7290   26.4425 C   0  0  0  0  0  0  0  0  0  0  0  0
    5.6816  -11.4150   26.7060 S   0  0  0  0  0  0  0  0  0  0  0  0
    7.4155  -14.7189   25.0983 C   0  0  0  0  0  0  0  0  0  0  0  0
    7.3313  -15.8517   25.6368 O   0  0  0  0  0  0  0  0  0  0  0  0
    8.4886  -14.4505   24.2385 N   0  0  0  0  0  0  0  0  0  0  0  0
    9.4010  -15.5356   23.8820 C   0  0  1  0  0  0  0  0  0  0  0  0
   10.1358  -15.1755   22.6110 C   0  0  0  0  0  0  0  0  0  0  0  0
   11.0254  -16.2141   22.1148 C   0  0  0  0  0  0  0  0  0  0  0  0
   12.0477  -15.8839   21.4353 O   0  0  0  0  0  0  0  0  0  0  0  0
   10.2869  -15.7271   25.0417 C   0  0  0  0  0  0  0  0  0  0  0  0
   11.2988  -16.4849   24.9807 O   0  0  0  0  0  0  0  0  0  0  0  0
   10.8583  -17.5767   22.3198 O   0  0  0  0  0  0  0  0  0  0  0  0
   11.2740  -14.7225   29.6304 O   0  0  0  0  0  0  0  0  0  0  0  0
   10.3858  -14.4856   28.5723 C   0  0  0  0  0  0  0  0  0  0  0  0
   10.9235  -15.3382   27.4026 C   0  0  2  0  0  0  0  0  0  0  0  0
   10.0653  -15.0755   26.2839 N   0  0  0  0  0  0  0  0  0  0  0  0
   10.8542  -16.7390   27.8518 C   0  0  0  0  0  0  0  0  0  0  0  0
   11.8397  -17.2683   28.6335 O   0  0  0  0  0  0  0  0  0  0  0  0
    9.8485  -17.4462   27.4909 O   0  0  0  0  0  0  0  0  0  0  0  0
  2  5  1  0
  2  1  1  1
  3  2  1  0
  4  3  1  0
  5  6  2  0
  7  8  1  0
  7  5  1  0
  8 12  1  0
  9 10  1  0
  8  9  1  6
 10 14  1  0
 11 10  2  0
 12 13  2  0
 15 16  1  0
 17 16  1  1
 17 19  1  0
 18 17  1  0
 18 12  1  0
 19 21  2  0
 19 20  1  0
M  END
$$$$
