CDS.pdb
     RDKit          3D

 21 20  0  0  1  0  0  0  0  0999 V2000
    7.9087  -14.9326   18.1092 N   0  0  0  0  0  0  0  0  0  0  0  0
    9.0671  -14.3521   18.7583 C   0  0  1  0  0  0  0  0  0  0  0  0
    8.5405  -13.3037   19.7416 C   0  0  0  0  0  0  0  0  0  0  0  0
    7.7386  -11.9669   18.8050 S   0  0  0  0  0  0  0  0  0  0  0  0
    9.8095  -15.3909   19.5083 C   0  0  0  0  0  0  0  0  0  0  0  0
    9.1710  -16.3311   20.0458 O   0  0  0  0  0  0  0  0  0  0  0  0
   11.2043  -15.3540   19.6347 N   0  0  0  0  0  0  0  0  0  0  0  0
   11.8763  -16.4068   20.3944 C   0  0  1  0  0  0  0  0  0  0  0  0
   13.3276  -16.4774   19.9775 C   0  0  0  0  0  0  0  0  0  0  0  0
   13.5457  -17.0193   18.6452 C   0  0  0  0  0  0  0  0  0  0  0  0
   13.0104  -18.1285   18.3304 O   0  0  0  0  0  0  0  0  0  0  0  0
   11.6861  -16.0749   21.8157 C   0  0  0  0  0  0  0  0  0  0  0  0
   11.9663  -14.9264   22.2680 O   0  0  0  0  0  0  0  0  0  0  0  0
   14.3081  -16.4202   17.6520 O   0  0  0  0  0  0  0  0  0  0  0  0
    9.3083  -16.2331   25.6995 O   0  0  0  0  0  0  0  0  0  0  0  0
    9.4707  -16.7168   24.3941 C   0  0  0  0  0  0  0  0  0  0  0  0
   10.9889  -16.6338   24.1248 C   0  0  2  0  0  0  0  0  0  0  0  0
   11.1768  -17.0114   22.7539 N   0  0  0  0  0  0  0  0  0  0  0  0
   11.6229  -17.5757   25.0628 C   0  0  0  0  0  0  0  0  0  0  0  0
   11.7649  -17.2544   26.3815 O   0  0  0  0  0  0  0  0  0  0  0  0
   12.0368  -18.7010   24.6106 O   0  0  0  0  0  0  0  0  0  0  0  0
  2  5  1  0
  2  1  1  1
  3  2  1  0
  4  3  1  0
  5  6  2  0
  7  8  1  0
  7  5  1  0
  8 12  1  0
  9 10  1  0
  8  9  1  6
 10 14  1  0
 11 10  2  0
 12 13  2  0
 15 16  1  0
 17 16  1  1
 17 19  1  0
 18 17  1  0
 18 12  1  0
 19 21  2  0
 19 20  1  0
M  END
$$$$
