CDS.pdb
     RDKit          3D

 21 20  0  0  1  0  0  0  0  0999 V2000
    7.3849  -15.1582   18.2884 N   0  0  0  0  0  0  0  0  0  0  0  0
    8.5269  -14.6221   19.0016 C   0  0  1  0  0  0  0  0  0  0  0  0
    8.0807  -13.2885   19.6063 C   0  0  0  0  0  0  0  0  0  0  0  0
    8.1365  -12.0078   18.3164 S   0  0  0  0  0  0  0  0  0  0  0  0
    8.9276  -15.5396   20.0925 C   0  0  0  0  0  0  0  0  0  0  0  0
    8.0404  -16.1870   20.7042 O   0  0  0  0  0  0  0  0  0  0  0  0
   10.2691  -15.7054   20.4611 N   0  0  0  0  0  0  0  0  0  0  0  0
   10.6121  -16.7230   21.4530 C   0  0  1  0  0  0  0  0  0  0  0  0
   11.9873  -17.2733   21.1517 C   0  0  0  0  0  0  0  0  0  0  0  0
   12.4355  -18.3097   22.0689 C   0  0  0  0  0  0  0  0  0  0  0  0
   11.5836  -19.1148   22.5608 O   0  0  0  0  0  0  0  0  0  0  0  0
   10.5138  -16.0674   22.7671 C   0  0  0  0  0  0  0  0  0  0  0  0
   11.3592  -15.2011   23.1368 O   0  0  0  0  0  0  0  0  0  0  0  0
   13.7488  -18.5097   22.4711 O   0  0  0  0  0  0  0  0  0  0  0  0
    7.2193  -16.1783   24.4638 O   0  0  0  0  0  0  0  0  0  0  0  0
    7.9984  -15.3096   25.2402 C   0  0  0  0  0  0  0  0  0  0  0  0
    9.4572  -15.7457   24.9831 C   0  0  2  0  0  0  0  0  0  0  0  0
    9.4722  -16.3600   23.6871 N   0  0  0  0  0  0  0  0  0  0  0  0
    9.7977  -16.6902   26.0606 C   0  0  0  0  0  0  0  0  0  0  0  0
   10.1880  -17.9653   25.7702 O   0  0  0  0  0  0  0  0  0  0  0  0
    9.7180  -16.2858   27.2739 O   0  0  0  0  0  0  0  0  0  0  0  0
  2  5  1  0
  2  1  1  1
  3  2  1  0
  4  3  1  0
  5  6  2  0
  7  8  1  0
  7  5  1  0
  8 12  1  0
  9 10  1  0
  8  9  1  6
 10 14  1  0
 11 10  2  0
 12 13  2  0
 15 16  1  0
 17 16  1  1
 17 19  1  0
 18 17  1  0
 18 12  1  0
 19 21  2  0
 19 20  1  0
M  END
$$$$
