CDS.pdb
     RDKit          3D

 21 20  0  0  1  0  0  0  0  0999 V2000
    7.4920  -15.5429   19.2166 N   0  0  0  0  0  0  0  0  0  0  0  0
    8.6965  -14.9890   19.8018 C   0  0  1  0  0  0  0  0  0  0  0  0
    8.2934  -13.6755   20.4766 C   0  0  0  0  0  0  0  0  0  0  0  0
    7.8994  -12.4494   19.1926 S   0  0  0  0  0  0  0  0  0  0  0  0
    9.2420  -15.9118   20.8233 C   0  0  0  0  0  0  0  0  0  0  0  0
    8.4999  -16.8106   21.2943 O   0  0  0  0  0  0  0  0  0  0  0  0
   10.5630  -15.8099   21.2789 N   0  0  0  0  0  0  0  0  0  0  0  0
   11.0794  -16.8280   22.1920 C   0  0  1  0  0  0  0  0  0  0  0  0
   12.5518  -17.0409   21.9244 C   0  0  0  0  0  0  0  0  0  0  0  0
   13.1734  -18.0613   22.7543 C   0  0  0  0  0  0  0  0  0  0  0  0
   12.4419  -18.7874   23.4982 O   0  0  0  0  0  0  0  0  0  0  0  0
   10.7906  -16.3461   23.5525 C   0  0  0  0  0  0  0  0  0  0  0  0
   11.4971  -15.4488   24.0982 O   0  0  0  0  0  0  0  0  0  0  0  0
   14.5346  -18.3262   22.8126 O   0  0  0  0  0  0  0  0  0  0  0  0
    7.3408  -17.0351   25.2324 O   0  0  0  0  0  0  0  0  0  0  0  0
    8.0862  -16.0330   25.8685 C   0  0  0  0  0  0  0  0  0  0  0  0
    9.5593  -16.4632   25.6974 C   0  0  2  0  0  0  0  0  0  0  0  0
    9.7100  -16.8493   24.3243 N   0  0  0  0  0  0  0  0  0  0  0  0
    9.7681  -17.5864   26.6268 C   0  0  0  0  0  0  0  0  0  0  0  0
    9.6734  -17.4000   27.9754 O   0  0  0  0  0  0  0  0  0  0  0  0
   10.0404  -18.7394   26.1386 O   0  0  0  0  0  0  0  0  0  0  0  0
  2  5  1  0
  2  1  1  1
  3  2  1  0
  4  3  1  0
  5  6  2  0
  7  8  1  0
  7  5  1  0
  8 12  1  0
  9 10  1  0
  8  9  1  1
 10 14  1  0
 11 10  2  0
 12 13  2  0
 15 16  1  0
 17 16  1  6
 17 19  1  0
 18 17  1  0
 18 12  1  0
 19 21  2  0
 19 20  1  0
M  END
$$$$
