QML.pdb
     RDKit          3D

 26 25  0  0  1  0  0  0  0  0999 V2000
   26.0148  -21.6584  -18.2681 N   0  0  0  0  0  0  0  0  0  0  0  0
   27.0990  -20.6958  -18.2473 C   0  0  0  0  0  0  0  0  0  0  0  0
   27.5676  -20.3758  -19.3493 O   0  0  0  0  0  0  0  0  0  0  0  0
   27.5431  -20.1973  -16.9594 C   0  0  0  0  0  0  0  0  0  0  0  0
   26.7958  -20.7357  -15.7806 C   0  0  0  0  0  0  0  0  0  0  0  0
   27.6894  -21.0899  -14.6590 C   0  0  2  0  0  0  0  0  0  0  0  0
   28.7000  -22.0488  -14.9532 N   0  0  0  0  0  0  0  0  0  0  0  0
   26.8368  -21.4776  -13.4759 C   0  0  0  0  0  0  0  0  0  0  0  0
   25.9914  -22.4164  -13.6149 O   0  0  0  0  0  0  0  0  0  0  0  0
   27.5788  -20.6527   -6.6066 C   0  0  0  0  0  0  0  0  0  0  0  0
   26.3758  -19.4739   -7.2851 S   0  0  0  0  0  0  0  0  0  0  0  0
   25.6288  -20.2485   -8.7501 C   0  0  0  0  0  0  0  0  0  0  0  0
   26.5757  -20.1319   -9.9095 C   0  0  0  0  0  0  0  0  0  0  0  0
   26.0007  -20.7710  -11.1701 C   0  0  2  0  0  0  0  0  0  0  0  0
   26.9316  -20.8502  -12.2266 N   0  0  0  0  0  0  0  0  0  0  0  0
   24.6471  -20.3438  -11.4905 C   0  0  0  0  0  0  0  0  0  0  0  0
   24.4368  -19.2279  -12.0270 O   0  0  0  0  0  0  0  0  0  0  0  0
   21.9031  -20.0338  -14.5316 C   0  0  0  0  0  0  0  0  0  0  0  0
   22.4548  -21.3960  -14.0755 C   0  0  2  0  0  0  0  0  0  0  0  0
   22.1317  -22.3692  -15.1662 C   0  0  0  0  0  0  0  0  0  0  0  0
   21.7888  -21.6930  -12.7735 C   0  0  0  0  0  0  0  0  0  0  0  0
   22.1636  -20.8081  -11.6409 C   0  0  2  0  0  0  0  0  0  0  0  0
   23.5008  -21.1658  -11.2129 N   0  0  0  0  0  0  0  0  0  0  0  0
   21.2186  -20.7667  -10.5319 C   0  0  0  0  0  0  0  0  0  0  0  0
   19.9344  -20.2920  -10.5853 O   0  0  0  0  0  0  0  0  0  0  0  0
   21.6156  -21.2098   -9.4104 O   0  0  0  0  0  0  0  0  0  0  0  0
  2  1  1  0
  3  2  2  0
  4  2  1  0
  5  4  1  0
  6  5  1  0
  6  7  1  6
  8  6  1  0
  8  9  2  0
 11 12  1  0
 11 10  1  0
 12 13  1  0
 14 13  1  1
 14 15  1  0
 15  8  1  0
 16 14  1  0
 17 16  2  0
 19 18  1  6
 20 19  1  0
 21 19  1  0
 22 21  1  6
 22 23  1  0
 23 16  1  0
 24 22  1  0
 25 24  1  0
 26 24  2  0
M  END
$$$$
