QML.pdb
     RDKit          3D

 26 25  0  0  1  0  0  0  0  0999 V2000
   15.3143  -11.1965  -14.7164 N   0  0  0  0  0  0  0  0  0  0  0  0
   15.3582  -12.0030  -15.9206 C   0  0  0  0  0  0  0  0  0  0  0  0
   14.2727  -12.4479  -16.3209 O   0  0  0  0  0  0  0  0  0  0  0  0
   16.6483  -12.2240  -16.5462 C   0  0  0  0  0  0  0  0  0  0  0  0
   17.8179  -11.6665  -15.7984 C   0  0  0  0  0  0  0  0  0  0  0  0
   19.0893  -11.8357  -16.5309 C   0  0  2  0  0  0  0  0  0  0  0  0
   19.3952  -13.1650  -16.9391 N   0  0  0  0  0  0  0  0  0  0  0  0
   20.1928  -11.2002  -15.7213 C   0  0  0  0  0  0  0  0  0  0  0  0
   20.7549  -11.8872  -14.8116 O   0  0  0  0  0  0  0  0  0  0  0  0
   26.3939   -9.8692  -16.3846 C   0  0  0  0  0  0  0  0  0  0  0  0
   25.6500  -10.2182  -14.7653 S   0  0  0  0  0  0  0  0  0  0  0  0
   24.1168   -9.2481  -14.6556 C   0  0  0  0  0  0  0  0  0  0  0  0
   23.0120   -9.9865  -15.3548 C   0  0  0  0  0  0  0  0  0  0  0  0
   21.7146   -9.1834  -15.3578 C   0  0  2  0  0  0  0  0  0  0  0  0
   20.6293   -9.8842  -15.9237 N   0  0  0  0  0  0  0  0  0  0  0  0
   21.8807   -7.7842  -15.7208 C   0  0  0  0  0  0  0  0  0  0  0  0
   22.3249   -7.4630  -16.8508 O   0  0  0  0  0  0  0  0  0  0  0  0
   19.8622   -4.4818  -17.4704 C   0  0  0  0  0  0  0  0  0  0  0  0
   19.3265   -5.1195  -16.1764 C   0  0  2  0  0  0  0  0  0  0  0  0
   17.9385   -4.5909  -15.9883 C   0  0  0  0  0  0  0  0  0  0  0  0
   20.2820   -4.7265  -15.0995 C   0  0  0  0  0  0  0  0  0  0  0  0
   21.6402   -5.3201  -15.1946 C   0  0  2  0  0  0  0  0  0  0  0  0
   21.5494   -6.7161  -14.8174 N   0  0  0  0  0  0  0  0  0  0  0  0
   22.6896   -4.6163  -14.4680 C   0  0  0  0  0  0  0  0  0  0  0  0
   23.2847   -3.4422  -14.8489 O   0  0  0  0  0  0  0  0  0  0  0  0
   23.0942   -5.1331  -13.3813 O   0  0  0  0  0  0  0  0  0  0  0  0
  2  1  1  0
  3  2  2  0
  4  2  1  0
  5  4  1  0
  6  5  1  0
  6  7  1  1
  8  6  1  0
  8  9  2  0
 11 12  1  0
 11 10  1  0
 12 13  1  0
 14 13  1  6
 14 15  1  0
 15  8  1  0
 16 14  1  0
 17 16  2  0
 19 18  1  6
 20 19  1  0
 21 19  1  0
 22 21  1  1
 22 23  1  0
 23 16  1  0
 24 22  1  0
 25 24  1  0
 26 24  2  0
M  END
$$$$
