QML.pdb
     RDKit          3D

 26 25  0  0  1  0  0  0  0  0999 V2000
   25.6806  -17.6994  -18.4495 N   0  0  0  0  0  0  0  0  0  0  0  0
   27.0502  -17.2235  -18.4395 C   0  0  0  0  0  0  0  0  0  0  0  0
   27.6279  -17.1965  -19.5358 O   0  0  0  0  0  0  0  0  0  0  0  0
   27.6251  -16.8287  -17.1675 C   0  0  0  0  0  0  0  0  0  0  0  0
   26.8436  -17.2473  -15.9626 C   0  0  0  0  0  0  0  0  0  0  0  0
   27.4191  -18.4359  -15.3009 C   0  0  2  0  0  0  0  0  0  0  0  0
   27.2886  -19.6627  -16.0116 N   0  0  0  0  0  0  0  0  0  0  0  0
   26.8735  -18.5089  -13.8959 C   0  0  0  0  0  0  0  0  0  0  0  0
   26.8102  -17.4408  -13.2100 O   0  0  0  0  0  0  0  0  0  0  0  0
   21.3228  -20.4130  -13.9978 C   0  0  0  0  0  0  0  0  0  0  0  0
   21.5889  -21.2480  -12.4074 S   0  0  0  0  0  0  0  0  0  0  0  0
   23.1422  -20.6066  -11.7146 C   0  0  0  0  0  0  0  0  0  0  0  0
   24.1457  -20.4396  -12.8190 C   0  0  0  0  0  0  0  0  0  0  0  0
   25.4806  -19.9225  -12.2907 C   0  0  2  0  0  0  0  0  0  0  0  0
   26.4322  -19.7018  -13.3079 N   0  0  0  0  0  0  0  0  0  0  0  0
   25.9318  -20.5751  -11.0709 C   0  0  0  0  0  0  0  0  0  0  0  0
   26.1699  -21.8081  -11.0535 O   0  0  0  0  0  0  0  0  0  0  0  0
   27.9070  -18.7628   -5.5569 C   0  0  0  0  0  0  0  0  0  0  0  0
   27.5934  -20.0151   -6.3945 C   0  0  2  0  0  0  0  0  0  0  0  0
   28.8478  -20.8316   -6.4195 C   0  0  0  0  0  0  0  0  0  0  0  0
   27.1616  -19.5157   -7.7328 C   0  0  0  0  0  0  0  0  0  0  0  0
   26.4737  -20.5066   -8.5996 C   0  0  2  0  0  0  0  0  0  0  0  0
   26.1245  -19.8515   -9.8438 N   0  0  0  0  0  0  0  0  0  0  0  0
   25.3381  -21.1930   -7.9963 C   0  0  0  0  0  0  0  0  0  0  0  0
   25.3852  -22.3777   -7.3094 O   0  0  0  0  0  0  0  0  0  0  0  0
   24.1974  -20.6484   -8.1144 O   0  0  0  0  0  0  0  0  0  0  0  0
  2  1  1  0
  3  2  2  0
  4  2  1  0
  5  4  1  0
  6  5  1  0
  6  7  1  6
  8  6  1  0
  8  9  2  0
 11 12  1  0
 11 10  1  0
 12 13  1  0
 14 13  1  6
 14 15  1  0
 15  8  1  0
 16 14  1  0
 17 16  2  0
 19 18  1  1
 20 19  1  0
 21 19  1  0
 22 21  1  1
 22 23  1  0
 23 16  1  0
 24 22  1  0
 25 24  1  0
 26 24  2  0
M  END
$$$$
