QML.pdb
     RDKit          3D

 26 25  0  0  1  0  0  0  0  0999 V2000
   28.7335  -17.7906  -17.2400 N   0  0  0  0  0  0  0  0  0  0  0  0
   28.1677  -16.4747  -17.0141 C   0  0  0  0  0  0  0  0  0  0  0  0
   28.5430  -15.5786  -17.7838 O   0  0  0  0  0  0  0  0  0  0  0  0
   27.2275  -16.3156  -15.9209 C   0  0  0  0  0  0  0  0  0  0  0  0
   26.9954  -17.5457  -15.1018 C   0  0  0  0  0  0  0  0  0  0  0  0
   26.1315  -18.5271  -15.7889 C   0  0  2  0  0  0  0  0  0  0  0  0
   25.4101  -18.0349  -16.9135 N   0  0  0  0  0  0  0  0  0  0  0  0
   25.2423  -19.1806  -14.7596 C   0  0  0  0  0  0  0  0  0  0  0  0
   23.9964  -19.2660  -14.9960 O   0  0  0  0  0  0  0  0  0  0  0  0
   25.3499  -24.1591  -15.8004 C   0  0  0  0  0  0  0  0  0  0  0  0
   24.0673  -24.4010  -14.5380 S   0  0  0  0  0  0  0  0  0  0  0  0
   24.0779  -22.9306  -13.4694 C   0  0  0  0  0  0  0  0  0  0  0  0
   25.2910  -22.1017  -13.7792 C   0  0  0  0  0  0  0  0  0  0  0  0
   25.3872  -20.8842  -12.8644 C   0  0  2  0  0  0  0  0  0  0  0  0
   25.7249  -19.6993  -13.5508 N   0  0  0  0  0  0  0  0  0  0  0  0
   26.0491  -21.1438  -11.5948 C   0  0  0  0  0  0  0  0  0  0  0  0
   27.2981  -21.2614  -11.5348 O   0  0  0  0  0  0  0  0  0  0  0  0
   27.5081  -18.0968   -7.7024 C   0  0  0  0  0  0  0  0  0  0  0  0
   27.4485  -19.6336   -7.7534 C   0  0  2  0  0  0  0  0  0  0  0  0
   28.8576  -20.1162   -7.6036 C   0  0  0  0  0  0  0  0  0  0  0  0
   26.8204  -19.9763   -9.0630 C   0  0  0  0  0  0  0  0  0  0  0  0
   25.9522  -21.1815   -9.0659 C   0  0  2  0  0  0  0  0  0  0  0  0
   25.3170  -21.2762  -10.3647 N   0  0  0  0  0  0  0  0  0  0  0  0
   24.9936  -21.2721   -7.9716 C   0  0  0  0  0  0  0  0  0  0  0  0
   25.2750  -21.6435   -6.6830 O   0  0  0  0  0  0  0  0  0  0  0  0
   23.7849  -20.9817   -8.2293 O   0  0  0  0  0  0  0  0  0  0  0  0
  2  1  1  0
  3  2  2  0
  4  2  1  0
  5  4  1  0
  6  5  1  0
  6  7  1  6
  8  6  1  0
  8  9  2  0
 11 12  1  0
 11 10  1  0
 12 13  1  0
 14 13  1  6
 14 15  1  0
 15  8  1  0
 16 14  1  0
 17 16  2  0
 19 18  1  6
 20 19  1  0
 21 19  1  0
 22 21  1  6
 22 23  1  0
 23 16  1  0
 24 22  1  0
 25 24  1  0
 26 24  2  0
M  END
$$$$
