QML.pdb
     RDKit          3D

 26 25  0  0  1  0  0  0  0  0999 V2000
   23.9280  -20.2409  -16.7623 N   0  0  0  0  0  0  0  0  0  0  0  0
   23.3258  -21.0498  -15.7204 C   0  0  0  0  0  0  0  0  0  0  0  0
   22.3399  -21.7238  -16.0523 O   0  0  0  0  0  0  0  0  0  0  0  0
   23.9134  -21.0017  -14.3950 C   0  0  0  0  0  0  0  0  0  0  0  0
   25.0723  -20.0669  -14.2502 C   0  0  0  0  0  0  0  0  0  0  0  0
   26.1330  -20.6128  -13.3792 C   0  0  2  0  0  0  0  0  0  0  0  0
   26.2575  -22.0312  -13.3720 N   0  0  0  0  0  0  0  0  0  0  0  0
   25.9608  -20.0303  -11.9979 C   0  0  0  0  0  0  0  0  0  0  0  0
   26.0760  -18.7735  -11.8474 O   0  0  0  0  0  0  0  0  0  0  0  0
   22.2576  -22.1493   -7.2018 C   0  0  0  0  0  0  0  0  0  0  0  0
   21.6636  -21.3932   -8.7422 S   0  0  0  0  0  0  0  0  0  0  0  0
   23.0935  -20.6085   -9.5444 C   0  0  0  0  0  0  0  0  0  0  0  0
   24.3474  -21.0042   -8.8194 C   0  0  0  0  0  0  0  0  0  0  0  0
   25.5918  -20.4509   -9.5075 C   0  0  2  0  0  0  0  0  0  0  0  0
   25.6799  -20.8105  -10.8684 N   0  0  0  0  0  0  0  0  0  0  0  0
   26.8029  -20.5338   -8.7052 C   0  0  0  0  0  0  0  0  0  0  0  0
   27.7337  -21.3130   -9.0273 O   0  0  0  0  0  0  0  0  0  0  0  0
   29.1596  -19.7051   -3.9373 C   0  0  0  0  0  0  0  0  0  0  0  0
   29.4588  -18.5804   -4.9441 C   0  0  2  0  0  0  0  0  0  0  0  0
   29.5526  -17.3156   -4.1488 C   0  0  0  0  0  0  0  0  0  0  0  0
   28.3375  -18.6024   -5.9285 C   0  0  0  0  0  0  0  0  0  0  0  0
   28.1529  -19.8777   -6.6672 C   0  0  2  0  0  0  0  0  0  0  0  0
   26.9910  -19.7395   -7.5217 N   0  0  0  0  0  0  0  0  0  0  0  0
   28.0979  -21.0810   -5.8464 C   0  0  0  0  0  0  0  0  0  0  0  0
   29.1471  -21.9196   -5.5752 O   0  0  0  0  0  0  0  0  0  0  0  0
   26.9778  -21.3859   -5.3324 O   0  0  0  0  0  0  0  0  0  0  0  0
  2  1  1  0
  3  2  2  0
  4  2  1  0
  5  4  1  0
  6  5  1  0
  6  7  1  1
  8  6  1  0
  8  9  2  0
 11 12  1  0
 11 10  1  0
 12 13  1  0
 14 13  1  1
 14 15  1  0
 15  8  1  0
 16 14  1  0
 17 16  2  0
 19 18  1  1
 20 19  1  0
 21 19  1  0
 22 21  1  1
 22 23  1  0
 23 16  1  0
 24 22  1  0
 25 24  1  0
 26 24  2  0
M  END
$$$$
