QML.pdb
     RDKit          3D

 26 25  0  0  1  0  0  0  0  0999 V2000
   30.1727  -24.1726  -16.6628 N   0  0  0  0  0  0  0  0  0  0  0  0
   29.7748  -23.5603  -17.9155 C   0  0  0  0  0  0  0  0  0  0  0  0
   30.6101  -23.5945  -18.8306 O   0  0  0  0  0  0  0  0  0  0  0  0
   28.4551  -22.9631  -17.9933 C   0  0  0  0  0  0  0  0  0  0  0  0
   27.6612  -23.0154  -16.7265 C   0  0  0  0  0  0  0  0  0  0  0  0
   26.8596  -21.7936  -16.5114 C   0  0  2  0  0  0  0  0  0  0  0  0
   27.5970  -20.5791  -16.4178 N   0  0  0  0  0  0  0  0  0  0  0  0
   25.9511  -22.0229  -15.3286 C   0  0  0  0  0  0  0  0  0  0  0  0
   25.1463  -23.0061  -15.3593 O   0  0  0  0  0  0  0  0  0  0  0  0
   24.8002  -20.5353   -7.6740 C   0  0  0  0  0  0  0  0  0  0  0  0
   25.9034  -20.3574   -9.1053 S   0  0  0  0  0  0  0  0  0  0  0  0
   24.9624  -20.8594  -10.5773 C   0  0  0  0  0  0  0  0  0  0  0  0
   25.8304  -20.7138  -11.7938 C   0  0  0  0  0  0  0  0  0  0  0  0
   25.1276  -21.2231  -13.0488 C   0  0  2  0  0  0  0  0  0  0  0  0
   25.9508  -21.2010  -14.1938 N   0  0  0  0  0  0  0  0  0  0  0  0
   23.7552  -20.7613  -13.1921 C   0  0  0  0  0  0  0  0  0  0  0  0
   23.4954  -19.5347  -13.2640 O   0  0  0  0  0  0  0  0  0  0  0  0
   20.6999  -21.2938  -16.2946 C   0  0  0  0  0  0  0  0  0  0  0  0
   20.9762  -22.5536  -15.4553 C   0  0  2  0  0  0  0  0  0  0  0  0
   20.2466  -23.6760  -16.1254 C   0  0  0  0  0  0  0  0  0  0  0  0
   20.4904  -22.2438  -14.0786 C   0  0  0  0  0  0  0  0  0  0  0  0
   21.2706  -21.2222  -13.3344 C   0  0  2  0  0  0  0  0  0  0  0  0
   22.6454  -21.6728  -13.2576 N   0  0  0  0  0  0  0  0  0  0  0  0
   20.7368  -20.8452  -12.0315 C   0  0  0  0  0  0  0  0  0  0  0  0
   21.3358  -21.0702  -10.8199 O   0  0  0  0  0  0  0  0  0  0  0  0
   19.6137  -20.2536  -12.0101 O   0  0  0  0  0  0  0  0  0  0  0  0
  2  1  1  0
  3  2  2  0
  4  2  1  0
  5  4  1  0
  6  5  1  0
  6  7  1  1
  8  6  1  0
  8  9  2  0
 11 12  1  0
 11 10  1  0
 12 13  1  0
 14 13  1  1
 14 15  1  0
 15  8  1  0
 16 14  1  0
 17 16  2  0
 19 18  1  6
 20 19  1  0
 21 19  1  0
 22 21  1  1
 22 23  1  0
 23 16  1  0
 24 22  1  0
 25 24  1  0
 26 24  2  0
M  END
$$$$
