QML.pdb
     RDKit          3D

 26 25  0  0  1  0  0  0  0  0999 V2000
   23.4802  -27.4710  -15.5304 N   0  0  0  0  0  0  0  0  0  0  0  0
   22.4616  -26.8545  -16.3580 C   0  0  0  0  0  0  0  0  0  0  0  0
   21.9064  -27.5937  -17.1836 O   0  0  0  0  0  0  0  0  0  0  0  0
   22.1830  -25.4449  -16.1590 C   0  0  0  0  0  0  0  0  0  0  0  0
   22.9415  -24.8016  -15.0415 C   0  0  0  0  0  0  0  0  0  0  0  0
   23.6955  -23.6105  -15.4828 C   0  0  2  0  0  0  0  0  0  0  0  0
   24.2957  -23.7013  -16.7708 N   0  0  0  0  0  0  0  0  0  0  0  0
   24.6796  -23.2424  -14.3997 C   0  0  0  0  0  0  0  0  0  0  0  0
   24.9503  -24.1023  -13.5038 O   0  0  0  0  0  0  0  0  0  0  0  0
   29.2897  -19.0676  -15.2645 C   0  0  0  0  0  0  0  0  0  0  0  0
   29.2344  -18.7576  -13.4761 S   0  0  0  0  0  0  0  0  0  0  0  0
   28.0310  -19.9191  -12.7642 C   0  0  0  0  0  0  0  0  0  0  0  0
   27.0911  -20.3804  -13.8405 C   0  0  0  0  0  0  0  0  0  0  0  0
   26.1100  -21.4259  -13.3183 C   0  0  2  0  0  0  0  0  0  0  0  0
   25.3115  -21.9936  -14.3329 N   0  0  0  0  0  0  0  0  0  0  0  0
   25.4596  -21.0611  -12.0688 C   0  0  0  0  0  0  0  0  0  0  0  0
   24.3213  -20.5306  -12.0692 O   0  0  0  0  0  0  0  0  0  0  0  0
   26.1436  -20.8691   -6.6084 C   0  0  0  0  0  0  0  0  0  0  0  0
   27.1729  -20.5796   -7.7151 C   0  0  2  0  0  0  0  0  0  0  0  0
   28.1990  -19.6724   -7.1107 C   0  0  0  0  0  0  0  0  0  0  0  0
   26.4047  -19.9706   -8.8403 C   0  0  0  0  0  0  0  0  0  0  0  0
   25.4636  -20.8788   -9.5443 C   0  0  2  0  0  0  0  0  0  0  0  0
   26.0787  -21.2868  -10.7911 N   0  0  0  0  0  0  0  0  0  0  0  0
   24.1128  -20.3650   -9.7343 C   0  0  0  0  0  0  0  0  0  0  0  0
   22.9940  -20.7702   -9.0549 O   0  0  0  0  0  0  0  0  0  0  0  0
   23.9510  -19.4584  -10.6082 O   0  0  0  0  0  0  0  0  0  0  0  0
  2  1  1  0
  3  2  2  0
  4  2  1  0
  5  4  1  0
  6  5  1  0
  6  7  1  6
  8  6  1  0
  8  9  2  0
 11 12  1  0
 11 10  1  0
 12 13  1  0
 14 13  1  6
 14 15  1  0
 15  8  1  0
 16 14  1  0
 17 16  2  0
 19 18  1  1
 20 19  1  0
 21 19  1  0
 22 21  1  6
 22 23  1  0
 23 16  1  0
 24 22  1  0
 25 24  1  0
 26 24  2  0
M  END
$$$$
