QML.pdb
     RDKit          3D

 26 25  0  0  1  0  0  0  0  0999 V2000
   26.7820  -35.3561  -20.1662 N   0  0  0  0  0  0  0  0  0  0  0  0
   27.7006  -36.1604  -20.9483 C   0  0  0  0  0  0  0  0  0  0  0  0
   27.3515  -36.4156  -22.1099 O   0  0  0  0  0  0  0  0  0  0  0  0
   28.9312  -36.5976  -20.3167 C   0  0  0  0  0  0  0  0  0  0  0  0
   29.1031  -36.1613  -18.8961 C   0  0  0  0  0  0  0  0  0  0  0  0
   30.2063  -35.1929  -18.7322 C   0  0  2  0  0  0  0  0  0  0  0  0
   31.5187  -35.7450  -18.7348 N   0  0  0  0  0  0  0  0  0  0  0  0
   29.9239  -34.3527  -17.5109 C   0  0  0  0  0  0  0  0  0  0  0  0
   30.5983  -34.5657  -16.4549 O   0  0  0  0  0  0  0  0  0  0  0  0
   29.2270  -28.1900  -17.5947 C   0  0  0  0  0  0  0  0  0  0  0  0
   28.0329  -28.4188  -16.2460 S   0  0  0  0  0  0  0  0  0  0  0  0
   28.1885  -30.1369  -15.6733 C   0  0  0  0  0  0  0  0  0  0  0  0
   28.4464  -31.0307  -16.8520 C   0  0  0  0  0  0  0  0  0  0  0  0
   28.5425  -32.4954  -16.4351 C   0  0  2  0  0  0  0  0  0  0  0  0
   28.9501  -33.3455  -17.4841 N   0  0  0  0  0  0  0  0  0  0  0  0
   27.4519  -32.9453  -15.5834 C   0  0  0  0  0  0  0  0  0  0  0  0
   26.3637  -33.3258  -16.0819 O   0  0  0  0  0  0  0  0  0  0  0  0
   26.3371  -32.8259   -9.5373 C   0  0  0  0  0  0  0  0  0  0  0  0
   25.8379  -33.4496  -10.8525 C   0  0  2  0  0  0  0  0  0  0  0  0
   25.7101  -34.9198  -10.6010 C   0  0  0  0  0  0  0  0  0  0  0  0
   26.8523  -33.0919  -11.8869 C   0  0  0  0  0  0  0  0  0  0  0  0
   26.4726  -33.3886  -13.2920 C   0  0  2  0  0  0  0  0  0  0  0  0
   27.5644  -32.9761  -14.1505 N   0  0  0  0  0  0  0  0  0  0  0  0
   25.1904  -32.8491  -13.7273 C   0  0  0  0  0  0  0  0  0  0  0  0
   24.0104  -33.5412  -13.8061 O   0  0  0  0  0  0  0  0  0  0  0  0
   25.1567  -31.6260  -14.0660 O   0  0  0  0  0  0  0  0  0  0  0  0
  2  1  1  0
  3  2  2  0
  4  2  1  0
  5  4  1  0
  6  5  1  0
  6  7  1  1
  8  6  1  0
  8  9  2  0
 11 12  1  0
 11 10  1  0
 12 13  1  0
 14 13  1  6
 14 15  1  0
 15  8  1  0
 16 14  1  0
 17 16  2  0
 19 18  1  1
 20 19  1  0
 21 19  1  0
 22 21  1  1
 22 23  1  0
 23 16  1  0
 24 22  1  0
 25 24  1  0
 26 24  2  0
M  END
$$$$
