QML.pdb
     RDKit          3D

 26 25  0  0  1  0  0  0  0  0999 V2000
   18.6793  -16.5699  -16.9426 N   0  0  0  0  0  0  0  0  0  0  0  0
   18.3931  -15.7476  -18.1020 C   0  0  0  0  0  0  0  0  0  0  0  0
   17.3583  -16.0233  -18.7262 O   0  0  0  0  0  0  0  0  0  0  0  0
   19.3281  -14.6895  -18.4346 C   0  0  0  0  0  0  0  0  0  0  0  0
   20.5260  -14.6002  -17.5431 C   0  0  0  0  0  0  0  0  0  0  0  0
   21.5560  -13.6824  -18.0709 C   0  0  2  0  0  0  0  0  0  0  0  0
   22.7624  -14.2960  -18.5129 N   0  0  0  0  0  0  0  0  0  0  0  0
   21.7886  -12.5928  -17.0533 C   0  0  0  0  0  0  0  0  0  0  0  0
   21.2385  -12.6964  -15.9123 O   0  0  0  0  0  0  0  0  0  0  0  0
   27.5713  -12.5791  -14.7902 C   0  0  0  0  0  0  0  0  0  0  0  0
   26.8499  -11.1013  -15.5602 S   0  0  0  0  0  0  0  0  0  0  0  0
   25.0660  -11.4016  -15.7376 C   0  0  0  0  0  0  0  0  0  0  0  0
   24.4108  -10.1751  -16.3041 C   0  0  0  0  0  0  0  0  0  0  0  0
   22.9078  -10.3718  -16.4792 C   0  0  2  0  0  0  0  0  0  0  0  0
   22.5840  -11.4673  -17.3063 N   0  0  0  0  0  0  0  0  0  0  0  0
   22.1633   -9.1361  -16.6691 C   0  0  0  0  0  0  0  0  0  0  0  0
   22.1091   -8.5869  -17.7973 O   0  0  0  0  0  0  0  0  0  0  0  0
   18.3847   -7.5446  -17.6257 C   0  0  0  0  0  0  0  0  0  0  0  0
   18.5133   -8.3740  -16.3360 C   0  0  2  0  0  0  0  0  0  0  0  0
   17.1175   -8.6705  -15.8835 C   0  0  0  0  0  0  0  0  0  0  0  0
   19.2992   -7.5342  -15.3851 C   0  0  0  0  0  0  0  0  0  0  0  0
   20.7086   -7.2692  -15.7722 C   0  0  2  0  0  0  0  0  0  0  0  0
   21.4633   -8.4926  -15.5908 N   0  0  0  0  0  0  0  0  0  0  0  0
   21.3384   -6.1271  -15.1213 C   0  0  0  0  0  0  0  0  0  0  0  0
   21.0026   -4.8110  -15.3020 O   0  0  0  0  0  0  0  0  0  0  0  0
   22.2861   -6.3668  -14.3113 O   0  0  0  0  0  0  0  0  0  0  0  0
  2  1  1  0
  3  2  2  0
  4  2  1  0
  5  4  1  0
  6  5  1  0
  6  7  1  1
  8  6  1  0
  8  9  2  0
 11 12  1  0
 11 10  1  0
 12 13  1  0
 14 13  1  6
 14 15  1  0
 15  8  1  0
 16 14  1  0
 17 16  2  0
 19 18  1  6
 20 19  1  0
 21 19  1  0
 22 21  1  1
 22 23  1  0
 23 16  1  0
 24 22  1  0
 25 24  1  0
 26 24  2  0
M  END
$$$$
