YNR.pdb
     RDKit          3D

 32 32  0  0  1  0  0  0  0  0999 V2000
    6.7231  -12.1667   17.1184 O   0  0  0  0  0  0  0  0  0  0  0  0
    7.0985  -12.6868   18.3506 C   0  0  0  0  0  0  0  0  0  0  0  0
    6.1796  -13.0403   19.3204 C   0  0  0  0  0  0  0  0  0  0  0  0
    6.5623  -13.5549   20.5391 C   0  0  0  0  0  0  0  0  0  0  0  0
    7.9141  -13.7221   20.7966 C   0  0  0  0  0  0  0  0  0  0  0  0
    8.2959  -14.2773   22.1164 C   0  0  0  0  0  0  0  0  0  0  0  0
    9.3713  -15.3342   21.8374 C   0  0  2  0  0  0  0  0  0  0  0  0
    8.8669  -16.3205   20.9015 N   0  0  0  0  0  0  0  0  0  0  0  0
    9.7669  -15.9549   23.1169 C   0  0  0  0  0  0  0  0  0  0  0  0
   10.2276  -15.2363   24.0314 O   0  0  0  0  0  0  0  0  0  0  0  0
    8.8352  -13.3746   19.8413 C   0  0  0  0  0  0  0  0  0  0  0  0
    8.4451  -12.8514   18.6030 C   0  0  0  0  0  0  0  0  0  0  0  0
    6.9964  -19.2701   24.4253 N   0  0  0  0  0  0  0  0  0  0  0  0
    8.1311  -19.0014   25.2231 C   0  0  0  0  0  0  0  0  0  0  0  0
    7.8944  -18.4575   26.3534 O   0  0  0  0  0  0  0  0  0  0  0  0
    9.5116  -19.2921   24.8593 C   0  0  0  0  0  0  0  0  0  0  0  0
   10.2668  -18.0694   24.4074 C   0  0  2  0  0  0  0  0  0  0  0  0
    9.6375  -17.3560   23.3477 N   0  0  0  0  0  0  0  0  0  0  0  0
   11.6696  -18.3370   24.0840 C   0  0  0  0  0  0  0  0  0  0  0  0
   11.9323  -19.3554   23.3824 O   0  0  0  0  0  0  0  0  0  0  0  0
   16.1926  -14.2238   19.8192 N   0  0  0  0  0  0  0  0  0  0  0  0
   15.6456  -14.9628   18.7146 C   0  0  0  0  0  0  0  0  0  0  0  0
   16.0873  -14.7046   17.5341 N   0  0  0  0  0  0  0  0  0  0  0  0
   14.6492  -15.9410   18.9591 N   0  0  0  0  0  0  0  0  0  0  0  0
   13.6589  -15.7523   20.0212 C   0  0  0  0  0  0  0  0  0  0  0  0
   14.1007  -16.5692   21.1931 C   0  0  0  0  0  0  0  0  0  0  0  0
   13.2080  -16.5032   22.3802 C   0  0  0  0  0  0  0  0  0  0  0  0
   13.7657  -16.9880   23.6558 C   0  0  2  0  0  0  0  0  0  0  0  0
   12.7397  -17.5046   24.5238 N   0  0  0  0  0  0  0  0  0  0  0  0
   14.7226  -16.0762   24.3303 C   0  0  0  0  0  0  0  0  0  0  0  0
   15.9155  -15.9627   24.0283 O   0  0  0  0  0  0  0  0  0  0  0  0
   14.2630  -15.2944   25.3738 O   0  0  0  0  0  0  0  0  0  0  0  0
  2  3  2  0
  2  1  1  0
  4  3  1  0
  5  4  2  0
  6  7  1  0
  6  5  1  0
  7  8  1  6
  9  7  1  0
  9 10  2  0
 11 12  2  0
 11  5  1  0
 12  2  1  0
 13 14  1  0
 14 15  2  0
 17 16  1  6
 16 14  1  0
 17 18  1  0
 18  9  1  0
 19 17  1  0
 20 19  2  0
 22 23  2  0
 22 21  1  0
 24 22  1  0
 25 24  1  0
 26 25  1  0
 26 27  1  0
 28 27  1  6
 28 29  1  0
 29 19  1  0
 30 28  1  0
 31 30  2  0
 32 30  1  0
M  END
$$$$
