YNR.pdb
     RDKit          3D

 32 32  0  0  1  0  0  0  0  0999 V2000
    9.0312  -12.2304   19.0966 O   0  0  0  0  0  0  0  0  0  0  0  0
    8.2278  -13.0280   19.9015 C   0  0  0  0  0  0  0  0  0  0  0  0
    8.3364  -13.0434   21.2791 C   0  0  0  0  0  0  0  0  0  0  0  0
    7.5350  -13.8383   22.0681 C   0  0  0  0  0  0  0  0  0  0  0  0
    6.5903  -14.6472   21.4562 C   0  0  0  0  0  0  0  0  0  0  0  0
    5.7429  -15.4919   22.3304 C   0  0  0  0  0  0  0  0  0  0  0  0
    5.7991  -16.9055   21.7388 C   0  0  2  0  0  0  0  0  0  0  0  0
    4.8775  -17.7755   22.4438 N   0  0  0  0  0  0  0  0  0  0  0  0
    7.1867  -17.4005   21.8286 C   0  0  0  0  0  0  0  0  0  0  0  0
    7.6272  -17.7965   22.9306 O   0  0  0  0  0  0  0  0  0  0  0  0
    6.4736  -14.6401   20.0893 C   0  0  0  0  0  0  0  0  0  0  0  0
    7.2887  -13.8319   19.2883 C   0  0  0  0  0  0  0  0  0  0  0  0
   11.7344  -20.1467   19.1618 N   0  0  0  0  0  0  0  0  0  0  0  0
   11.2880  -18.8334   19.4306 C   0  0  0  0  0  0  0  0  0  0  0  0
   12.1981  -17.9945   19.7423 O   0  0  0  0  0  0  0  0  0  0  0  0
    9.9041  -18.3809   19.3790 C   0  0  0  0  0  0  0  0  0  0  0  0
    9.3998  -17.8896   20.7108 C   0  0  2  0  0  0  0  0  0  0  0  0
    8.0468  -17.4455   20.6924 N   0  0  0  0  0  0  0  0  0  0  0  0
   10.2635  -16.8789   21.3246 C   0  0  0  0  0  0  0  0  0  0  0  0
   10.0213  -15.6629   21.0771 O   0  0  0  0  0  0  0  0  0  0  0  0
   10.6238  -15.4586   30.0787 N   0  0  0  0  0  0  0  0  0  0  0  0
    9.9124  -15.0719   28.8913 C   0  0  0  0  0  0  0  0  0  0  0  0
    9.2479  -13.9705   28.9141 N   0  0  0  0  0  0  0  0  0  0  0  0
    9.9658  -15.9070   27.7471 N   0  0  0  0  0  0  0  0  0  0  0  0
    9.6348  -15.3824   26.4207 C   0  0  0  0  0  0  0  0  0  0  0  0
   10.8328  -15.5854   25.5491 C   0  0  0  0  0  0  0  0  0  0  0  0
   10.5625  -16.2626   24.2534 C   0  0  0  0  0  0  0  0  0  0  0  0
   11.7136  -16.4510   23.3520 C   0  0  2  0  0  0  0  0  0  0  0  0
   11.3548  -17.2072   22.1805 N   0  0  0  0  0  0  0  0  0  0  0  0
   12.9721  -16.9006   23.9971 C   0  0  0  0  0  0  0  0  0  0  0  0
   13.7751  -16.1531   24.5658 O   0  0  0  0  0  0  0  0  0  0  0  0
   13.2836  -18.2472   23.9653 O   0  0  0  0  0  0  0  0  0  0  0  0
  2  3  2  0
  2  1  1  0
  4  3  1  0
  5  4  2  0
  6  7  1  0
  6  5  1  0
  7  8  1  1
  9  7  1  0
  9 10  2  0
 11 12  2  0
 11  5  1  0
 12  2  1  0
 13 14  1  0
 14 15  2  0
 17 16  1  6
 16 14  1  0
 17 18  1  0
 18  9  1  0
 19 17  1  0
 20 19  2  0
 22 23  2  0
 22 21  1  0
 24 22  1  0
 25 24  1  0
 26 25  1  0
 26 27  1  0
 28 27  1  1
 28 29  1  0
 29 19  1  0
 30 28  1  0
 31 30  2  0
 32 30  1  0
M  END
$$$$
