YNR.pdb
     RDKit          3D

 32 32  0  0  1  0  0  0  0  0999 V2000
    8.0192  -11.5242   19.5442 O   0  0  0  0  0  0  0  0  0  0  0  0
    7.8253  -12.7056   20.2488 C   0  0  0  0  0  0  0  0  0  0  0  0
    8.8083  -13.2709   21.0387 C   0  0  0  0  0  0  0  0  0  0  0  0
    8.6059  -14.4429   21.7331 C   0  0  0  0  0  0  0  0  0  0  0  0
    7.3748  -15.0720   21.6334 C   0  0  0  0  0  0  0  0  0  0  0  0
    7.1863  -16.3315   22.3910 C   0  0  0  0  0  0  0  0  0  0  0  0
    7.7699  -17.4459   21.5141 C   0  0  2  0  0  0  0  0  0  0  0  0
    6.7860  -18.4942   21.3236 N   0  0  0  0  0  0  0  0  0  0  0  0
    8.9932  -17.9625   22.1586 C   0  0  0  0  0  0  0  0  0  0  0  0
    8.9835  -19.1055   22.6671 O   0  0  0  0  0  0  0  0  0  0  0  0
    6.3915  -14.5199   20.8521 C   0  0  0  0  0  0  0  0  0  0  0  0
    6.5984  -13.3287   20.1467 C   0  0  0  0  0  0  0  0  0  0  0  0
   14.5087  -18.6372   22.5724 N   0  0  0  0  0  0  0  0  0  0  0  0
   13.8796  -17.4040   22.8549 C   0  0  0  0  0  0  0  0  0  0  0  0
   14.4722  -16.6660   23.7113 O   0  0  0  0  0  0  0  0  0  0  0  0
   12.6395  -16.9280   22.2565 C   0  0  0  0  0  0  0  0  0  0  0  0
   11.4247  -17.6535   22.7738 C   0  0  2  0  0  0  0  0  0  0  0  0
   10.1951  -17.1978   22.2185 N   0  0  0  0  0  0  0  0  0  0  0  0
   11.3457  -17.6896   24.2355 C   0  0  0  0  0  0  0  0  0  0  0  0
   12.3747  -18.0497   24.8760 O   0  0  0  0  0  0  0  0  0  0  0  0
    7.6973  -11.5752   25.2027 N   0  0  0  0  0  0  0  0  0  0  0  0
    6.6007  -12.4374   25.5483 C   0  0  0  0  0  0  0  0  0  0  0  0
    5.4573  -11.8982   25.7873 N   0  0  0  0  0  0  0  0  0  0  0  0
    6.8123  -13.8376   25.6134 N   0  0  0  0  0  0  0  0  0  0  0  0
    7.5399  -14.4339   26.7355 C   0  0  0  0  0  0  0  0  0  0  0  0
    8.6554  -15.2478   26.1617 C   0  0  0  0  0  0  0  0  0  0  0  0
    8.9206  -16.5341   26.8585 C   0  0  0  0  0  0  0  0  0  0  0  0
   10.0849  -17.3104   26.3949 C   0  0  2  0  0  0  0  0  0  0  0  0
   10.1681  -17.3391   24.9579 N   0  0  0  0  0  0  0  0  0  0  0  0
   10.2743  -18.6353   27.0359 C   0  0  0  0  0  0  0  0  0  0  0  0
   10.2207  -19.7169   26.4406 O   0  0  0  0  0  0  0  0  0  0  0  0
   10.5262  -18.6794   28.3945 O   0  0  0  0  0  0  0  0  0  0  0  0
  2  3  2  0
  2  1  1  0
  4  3  1  0
  5  4  2  0
  6  7  1  0
  6  5  1  0
  7  8  1  1
  9  7  1  0
  9 10  2  0
 11 12  2  0
 11  5  1  0
 12  2  1  0
 13 14  1  0
 14 15  2  0
 17 16  1  1
 16 14  1  0
 17 18  1  0
 18  9  1  0
 19 17  1  0
 20 19  2  0
 22 23  2  0
 22 21  1  0
 24 22  1  0
 25 24  1  0
 26 25  1  0
 26 27  1  0
 28 27  1  6
 28 29  1  0
 29 19  1  0
 30 28  1  0
 31 30  2  0
 32 30  1  0
M  END
$$$$
