YNR.pdb
     RDKit          3D

 32 32  0  0  1  0  0  0  0  0999 V2000
    4.3900  -22.1527   13.9762 O   0  0  0  0  0  0  0  0  0  0  0  0
    4.8160  -21.7857   15.2464 C   0  0  0  0  0  0  0  0  0  0  0  0
    4.3994  -22.4413   16.3894 C   0  0  0  0  0  0  0  0  0  0  0  0
    4.8276  -22.0692   17.6443 C   0  0  0  0  0  0  0  0  0  0  0  0
    5.7049  -21.0021   17.7596 C   0  0  0  0  0  0  0  0  0  0  0  0
    6.1478  -20.6242   19.1222 C   0  0  0  0  0  0  0  0  0  0  0  0
    7.6808  -20.6430   19.0908 C   0  0  2  0  0  0  0  0  0  0  0  0
    8.1555  -21.9881   18.8289 N   0  0  0  0  0  0  0  0  0  0  0  0
    8.1861  -20.1323   20.3803 C   0  0  0  0  0  0  0  0  0  0  0  0
    7.7756  -19.0304   20.8075 O   0  0  0  0  0  0  0  0  0  0  0  0
    6.1251  -20.3440   16.6317 C   0  0  0  0  0  0  0  0  0  0  0  0
    5.6891  -20.7229   15.3567 C   0  0  0  0  0  0  0  0  0  0  0  0
   10.6173  -20.9259   25.6806 N   0  0  0  0  0  0  0  0  0  0  0  0
   11.0934  -20.8799   24.3511 C   0  0  0  0  0  0  0  0  0  0  0  0
   12.2220  -20.3059   24.1891 O   0  0  0  0  0  0  0  0  0  0  0  0
   10.4092  -21.4245   23.1859 C   0  0  0  0  0  0  0  0  0  0  0  0
    9.7883  -20.3583   22.3214 C   0  0  2  0  0  0  0  0  0  0  0  0
    9.1308  -20.8598   21.1620 N   0  0  0  0  0  0  0  0  0  0  0  0
   10.7175  -19.2856   21.9610 C   0  0  0  0  0  0  0  0  0  0  0  0
   11.7973  -19.6050   21.3859 O   0  0  0  0  0  0  0  0  0  0  0  0
    8.4020  -13.6673   17.8223 N   0  0  0  0  0  0  0  0  0  0  0  0
    8.4556  -13.0325   19.1105 C   0  0  0  0  0  0  0  0  0  0  0  0
    7.7117  -12.0019   19.3102 N   0  0  0  0  0  0  0  0  0  0  0  0
    9.3161  -13.5568   20.1076 N   0  0  0  0  0  0  0  0  0  0  0  0
   10.7495  -13.7138   19.8530 C   0  0  0  0  0  0  0  0  0  0  0  0
   11.3330  -14.4412   21.0220 C   0  0  0  0  0  0  0  0  0  0  0  0
   10.5516  -15.6178   21.4865 C   0  0  0  0  0  0  0  0  0  0  0  0
   11.3180  -16.8330   21.8165 C   0  0  2  0  0  0  0  0  0  0  0  0
   10.4568  -17.9103   22.2295 N   0  0  0  0  0  0  0  0  0  0  0  0
   12.4973  -16.6341   22.6950 C   0  0  0  0  0  0  0  0  0  0  0  0
   13.6442  -16.4139   22.2909 O   0  0  0  0  0  0  0  0  0  0  0  0
   12.3170  -16.6999   24.0641 O   0  0  0  0  0  0  0  0  0  0  0  0
  2  3  2  0
  2  1  1  0
  4  3  1  0
  5  4  2  0
  6  7  1  0
  6  5  1  0
  7  8  1  1
  9  7  1  0
  9 10  2  0
 11 12  2  0
 11  5  1  0
 12  2  1  0
 13 14  1  0
 14 15  2  0
 17 16  1  6
 16 14  1  0
 17 18  1  0
 18  9  1  0
 19 17  1  0
 20 19  2  0
 22 23  2  0
 22 21  1  0
 24 22  1  0
 25 24  1  0
 26 25  1  0
 26 27  1  0
 28 27  1  1
 28 29  1  0
 29 19  1  0
 30 28  1  0
 31 30  2  0
 32 30  1  0
M  END
$$$$
