YNR.pdb
     RDKit          3D

 32 32  0  0  1  0  0  0  0  0999 V2000
    5.1681  -12.7031   17.0370 O   0  0  0  0  0  0  0  0  0  0  0  0
    6.4212  -12.8309   17.6227 C   0  0  0  0  0  0  0  0  0  0  0  0
    6.6533  -12.5424   18.9542 C   0  0  0  0  0  0  0  0  0  0  0  0
    7.8998  -12.6722   19.5252 C   0  0  0  0  0  0  0  0  0  0  0  0
    8.9524  -13.1068   18.7349 C   0  0  0  0  0  0  0  0  0  0  0  0
   10.2819  -13.2363   19.3764 C   0  0  0  0  0  0  0  0  0  0  0  0
   11.2320  -13.7450   18.2855 C   0  0  2  0  0  0  0  0  0  0  0  0
   10.4747  -14.1480   17.1161 N   0  0  0  0  0  0  0  0  0  0  0  0
   12.0214  -14.8662   18.8317 C   0  0  0  0  0  0  0  0  0  0  0  0
   11.7463  -16.0367   18.4861 O   0  0  0  0  0  0  0  0  0  0  0  0
    8.7336  -13.3961   17.4119 C   0  0  0  0  0  0  0  0  0  0  0  0
    7.4664  -13.2637   16.8325 C   0  0  0  0  0  0  0  0  0  0  0  0
   16.9038  -16.2713   17.9491 N   0  0  0  0  0  0  0  0  0  0  0  0
   16.3670  -14.9643   17.9462 C   0  0  0  0  0  0  0  0  0  0  0  0
   17.2073  -14.0234   17.7507 O   0  0  0  0  0  0  0  0  0  0  0  0
   14.9646  -14.6230   18.1444 C   0  0  0  0  0  0  0  0  0  0  0  0
   14.4525  -15.0218   19.5039 C   0  0  2  0  0  0  0  0  0  0  0  0
   13.0969  -14.6578   19.7443 N   0  0  0  0  0  0  0  0  0  0  0  0
   15.3077  -14.5718   20.6041 C   0  0  0  0  0  0  0  0  0  0  0  0
   16.4879  -14.2117   20.3283 O   0  0  0  0  0  0  0  0  0  0  0  0
   11.9437  -21.5054   23.8067 N   0  0  0  0  0  0  0  0  0  0  0  0
   12.9566  -21.1020   24.7431 C   0  0  0  0  0  0  0  0  0  0  0  0
   13.0497  -21.7483   25.8516 N   0  0  0  0  0  0  0  0  0  0  0  0
   13.8103  -20.0180   24.4181 N   0  0  0  0  0  0  0  0  0  0  0  0
   13.2685  -18.7822   23.8495 C   0  0  0  0  0  0  0  0  0  0  0  0
   14.3931  -17.8004   23.7632 C   0  0  0  0  0  0  0  0  0  0  0  0
   14.1095  -16.5863   22.9531 C   0  0  0  0  0  0  0  0  0  0  0  0
   15.1529  -15.5451   22.9333 C   0  0  2  0  0  0  0  0  0  0  0  0
   14.8681  -14.5240   21.9590 N   0  0  0  0  0  0  0  0  0  0  0  0
   16.5533  -16.0348   22.9009 C   0  0  0  0  0  0  0  0  0  0  0  0
   17.0539  -16.6680   21.9652 O   0  0  0  0  0  0  0  0  0  0  0  0
   17.3669  -15.7750   23.9881 O   0  0  0  0  0  0  0  0  0  0  0  0
  2  3  2  0
  2  1  1  0
  4  3  1  0
  5  4  2  0
  6  7  1  0
  6  5  1  0
  7  8  1  6
  9  7  1  0
  9 10  2  0
 11 12  2  0
 11  5  1  0
 12  2  1  0
 13 14  1  0
 14 15  2  0
 17 16  1  6
 16 14  1  0
 17 18  1  0
 18  9  1  0
 19 17  1  0
 20 19  2  0
 22 23  2  0
 22 21  1  0
 24 22  1  0
 25 24  1  0
 26 25  1  0
 26 27  1  0
 28 27  1  6
 28 29  1  0
 29 19  1  0
 30 28  1  0
 31 30  2  0
 32 30  1  0
M  END
$$$$
