YNR.pdb
     RDKit          3D

 32 32  0  0  1  0  0  0  0  0999 V2000
    7.7824  -13.5973   16.0675 O   0  0  0  0  0  0  0  0  0  0  0  0
    7.7642  -13.8721   17.4291 C   0  0  0  0  0  0  0  0  0  0  0  0
    7.5110  -15.1348   17.9302 C   0  0  0  0  0  0  0  0  0  0  0  0
    7.4950  -15.3966   19.2822 C   0  0  0  0  0  0  0  0  0  0  0  0
    7.7417  -14.3567   20.1649 C   0  0  0  0  0  0  0  0  0  0  0  0
    7.7175  -14.6680   21.6134 C   0  0  0  0  0  0  0  0  0  0  0  0
    9.1648  -14.5319   22.1014 C   0  0  2  0  0  0  0  0  0  0  0  0
   10.0111  -15.4914   21.4184 N   0  0  0  0  0  0  0  0  0  0  0  0
    9.1912  -14.7315   23.5636 C   0  0  0  0  0  0  0  0  0  0  0  0
    9.7605  -15.7407   24.0354 O   0  0  0  0  0  0  0  0  0  0  0  0
    7.9943  -13.0990   19.6787 C   0  0  0  0  0  0  0  0  0  0  0  0
    8.0102  -12.8340   18.3043 C   0  0  0  0  0  0  0  0  0  0  0  0
    5.5575  -12.5963   25.8829 N   0  0  0  0  0  0  0  0  0  0  0  0
    6.5823  -12.9632   26.7836 C   0  0  0  0  0  0  0  0  0  0  0  0
    6.1965  -13.5564   27.8460 O   0  0  0  0  0  0  0  0  0  0  0  0
    8.0061  -12.7205   26.5928 C   0  0  0  0  0  0  0  0  0  0  0  0
    8.7017  -13.8517   25.8815 C   0  0  2  0  0  0  0  0  0  0  0  0
    8.5878  -13.8039   24.4628 N   0  0  0  0  0  0  0  0  0  0  0  0
    8.3247  -15.1750   26.3825 C   0  0  0  0  0  0  0  0  0  0  0  0
    7.1171  -15.5309   26.2661 O   0  0  0  0  0  0  0  0  0  0  0  0
    7.2809  -20.4014   22.5203 N   0  0  0  0  0  0  0  0  0  0  0  0
    8.7181  -20.3963   22.5294 C   0  0  0  0  0  0  0  0  0  0  0  0
    9.3320  -20.4890   21.4026 N   0  0  0  0  0  0  0  0  0  0  0  0
    9.4041  -20.2901   23.7654 N   0  0  0  0  0  0  0  0  0  0  0  0
    8.6728  -20.0396   25.0090 C   0  0  0  0  0  0  0  0  0  0  0  0
    8.7619  -18.5739   25.2912 C   0  0  0  0  0  0  0  0  0  0  0  0
    8.0859  -18.1297   26.5387 C   0  0  0  0  0  0  0  0  0  0  0  0
    8.9042  -17.3685   27.5001 C   0  0  2  0  0  0  0  0  0  0  0  0
    9.2542  -16.0685   26.9898 N   0  0  0  0  0  0  0  0  0  0  0  0
   10.0419  -18.1047   28.1048 C   0  0  0  0  0  0  0  0  0  0  0  0
   11.2313  -17.8059   27.9527 O   0  0  0  0  0  0  0  0  0  0  0  0
    9.7683  -19.2065   28.8938 O   0  0  0  0  0  0  0  0  0  0  0  0
  2  3  2  0
  2  1  1  0
  4  3  1  0
  5  4  2  0
  6  7  1  0
  6  5  1  0
  7  8  1  6
  9  7  1  0
  9 10  2  0
 11 12  2  0
 11  5  1  0
 12  2  1  0
 13 14  1  0
 14 15  2  0
 17 16  1  1
 16 14  1  0
 17 18  1  0
 18  9  1  0
 19 17  1  0
 20 19  2  0
 22 23  2  0
 22 21  1  0
 24 22  1  0
 25 24  1  0
 26 25  1  0
 26 27  1  0
 28 27  1  6
 28 29  1  0
 29 19  1  0
 30 28  1  0
 31 30  2  0
 32 30  1  0
M  END
$$$$
