YNR.pdb
     RDKit          3D

 32 32  0  0  1  0  0  0  0  0999 V2000
    6.0668  -10.7587   27.3954 O   0  0  0  0  0  0  0  0  0  0  0  0
    6.6023  -11.8423   26.7108 C   0  0  0  0  0  0  0  0  0  0  0  0
    7.8684  -12.3331   26.9677 C   0  0  0  0  0  0  0  0  0  0  0  0
    8.3901  -13.4080   26.2828 C   0  0  0  0  0  0  0  0  0  0  0  0
    7.6164  -14.0141   25.3054 C   0  0  0  0  0  0  0  0  0  0  0  0
    8.2041  -15.1678   24.5848 C   0  0  0  0  0  0  0  0  0  0  0  0
    7.3547  -16.3855   24.9684 C   0  0  2  0  0  0  0  0  0  0  0  0
    7.6018  -16.7473   26.3510 N   0  0  0  0  0  0  0  0  0  0  0  0
    7.6799  -17.4960   24.0520 C   0  0  0  0  0  0  0  0  0  0  0  0
    8.5196  -18.3549   24.4018 O   0  0  0  0  0  0  0  0  0  0  0  0
    6.3580  -13.5354   25.0419 C   0  0  0  0  0  0  0  0  0  0  0  0
    5.8288  -12.4427   25.7385 C   0  0  0  0  0  0  0  0  0  0  0  0
    8.2028  -20.3004   19.6129 N   0  0  0  0  0  0  0  0  0  0  0  0
    7.0905  -19.4369   19.4973 C   0  0  0  0  0  0  0  0  0  0  0  0
    6.4685  -19.4848   18.3836 O   0  0  0  0  0  0  0  0  0  0  0  0
    6.6160  -18.5225   20.5275 C   0  0  0  0  0  0  0  0  0  0  0  0
    7.5353  -18.4569   21.7192 C   0  0  2  0  0  0  0  0  0  0  0  0
    7.0619  -17.6249   22.7736 N   0  0  0  0  0  0  0  0  0  0  0  0
    8.9153  -18.1111   21.3727 C   0  0  0  0  0  0  0  0  0  0  0  0
    9.6434  -19.0130   20.8676 O   0  0  0  0  0  0  0  0  0  0  0  0
    8.2351  -13.6913   17.0359 N   0  0  0  0  0  0  0  0  0  0  0  0
    8.4246  -13.1150   18.3387 C   0  0  0  0  0  0  0  0  0  0  0  0
    7.6149  -12.1890   18.7159 N   0  0  0  0  0  0  0  0  0  0  0  0
    9.4850  -13.5805   19.1562 N   0  0  0  0  0  0  0  0  0  0  0  0
   10.6200  -14.2993   18.5737 C   0  0  0  0  0  0  0  0  0  0  0  0
   11.5717  -14.6059   19.6855 C   0  0  0  0  0  0  0  0  0  0  0  0
   10.9350  -15.0002   20.9700 C   0  0  0  0  0  0  0  0  0  0  0  0
   10.8135  -16.4457   21.2324 C   0  0  2  0  0  0  0  0  0  0  0  0
    9.4652  -16.8126   21.5796 N   0  0  0  0  0  0  0  0  0  0  0  0
   11.8454  -17.0289   22.1252 C   0  0  0  0  0  0  0  0  0  0  0  0
   11.6116  -17.5518   23.2202 O   0  0  0  0  0  0  0  0  0  0  0  0
   13.1662  -16.9892   21.7188 O   0  0  0  0  0  0  0  0  0  0  0  0
  2  3  2  0
  2  1  1  0
  4  3  1  0
  5  4  2  0
  6  7  1  0
  6  5  1  0
  7  8  1  1
  9  7  1  0
  9 10  2  0
 11 12  2  0
 11  5  1  0
 12  2  1  0
 13 14  1  0
 14 15  2  0
 17 16  1  6
 16 14  1  0
 17 18  1  0
 18  9  1  0
 19 17  1  0
 20 19  2  0
 22 23  2  0
 22 21  1  0
 24 22  1  0
 25 24  1  0
 26 25  1  0
 26 27  1  0
 28 27  1  1
 28 29  1  0
 29 19  1  0
 30 28  1  0
 31 30  2  0
 32 30  1  0
M  END
$$$$
