YNR.pdb
     RDKit          3D

 32 32  0  0  1  0  0  0  0  0999 V2000
    7.0916  -22.5810   14.6832 O   0  0  0  0  0  0  0  0  0  0  0  0
    7.5613  -22.1590   15.9205 C   0  0  0  0  0  0  0  0  0  0  0  0
    8.8647  -21.7455   16.1203 C   0  0  0  0  0  0  0  0  0  0  0  0
    9.3205  -21.3292   17.3514 C   0  0  0  0  0  0  0  0  0  0  0  0
    8.4396  -21.3266   18.4217 C   0  0  0  0  0  0  0  0  0  0  0  0
    8.9583  -20.8743   19.7339 C   0  0  0  0  0  0  0  0  0  0  0  0
    8.1837  -19.5968   20.0793 C   0  0  2  0  0  0  0  0  0  0  0  0
    8.5314  -18.5390   19.1501 N   0  0  0  0  0  0  0  0  0  0  0  0
    8.4943  -19.2177   21.4716 C   0  0  0  0  0  0  0  0  0  0  0  0
    9.4628  -18.4594   21.7000 O   0  0  0  0  0  0  0  0  0  0  0  0
    7.1433  -21.7351   18.2350 C   0  0  0  0  0  0  0  0  0  0  0  0
    6.6812  -22.1581   16.9833 C   0  0  0  0  0  0  0  0  0  0  0  0
    7.4187  -17.3390   26.6040 N   0  0  0  0  0  0  0  0  0  0  0  0
    6.8955  -18.5195   26.0304 C   0  0  0  0  0  0  0  0  0  0  0  0
    6.5774  -19.4397   26.8560 O   0  0  0  0  0  0  0  0  0  0  0  0
    6.6985  -18.7553   24.6063 C   0  0  0  0  0  0  0  0  0  0  0  0
    7.9237  -19.3149   23.9315 C   0  0  2  0  0  0  0  0  0  0  0  0
    7.7196  -19.6879   22.5724 N   0  0  0  0  0  0  0  0  0  0  0  0
    8.5505  -20.4092   24.6757 C   0  0  0  0  0  0  0  0  0  0  0  0
    7.9648  -21.5297   24.6878 O   0  0  0  0  0  0  0  0  0  0  0  0
   11.7470  -23.3694   21.3737 N   0  0  0  0  0  0  0  0  0  0  0  0
   13.0603  -23.3903   21.9570 C   0  0  0  0  0  0  0  0  0  0  0  0
   13.7275  -24.4893   21.9094 N   0  0  0  0  0  0  0  0  0  0  0  0
   13.5716  -22.2129   22.5585 N   0  0  0  0  0  0  0  0  0  0  0  0
   13.4957  -22.0183   24.0078 C   0  0  0  0  0  0  0  0  0  0  0  0
   12.0601  -21.7788   24.3510 C   0  0  0  0  0  0  0  0  0  0  0  0
   11.7884  -21.5357   25.7924 C   0  0  0  0  0  0  0  0  0  0  0  0
   10.3826  -21.3051   26.1714 C   0  0  2  0  0  0  0  0  0  0  0  0
    9.7812  -20.2638   25.3796 N   0  0  0  0  0  0  0  0  0  0  0  0
   10.1176  -21.1846   27.6265 C   0  0  0  0  0  0  0  0  0  0  0  0
    9.6054  -20.1986   28.1672 O   0  0  0  0  0  0  0  0  0  0  0  0
   10.4655  -22.2403   28.4487 O   0  0  0  0  0  0  0  0  0  0  0  0
  2  3  2  0
  2  1  1  0
  4  3  1  0
  5  4  2  0
  6  7  1  0
  6  5  1  0
  7  8  1  6
  9  7  1  0
  9 10  2  0
 11 12  2  0
 11  5  1  0
 12  2  1  0
 13 14  1  0
 14 15  2  0
 17 16  1  1
 16 14  1  0
 17 18  1  0
 18  9  1  0
 19 17  1  0
 20 19  2  0
 22 23  2  0
 22 21  1  0
 24 22  1  0
 25 24  1  0
 26 25  1  0
 26 27  1  0
 28 27  1  1
 28 29  1  0
 29 19  1  0
 30 28  1  0
 31 30  2  0
 32 30  1  0
M  END
$$$$
