ICM.pdb
     RDKit          3D

 23 22  0  0  1  0  0  0  0  0999 V2000
   19.2709  -13.2504  -22.2397 C   0  0  0  0  0  0  0  0  0  0  0  0
   20.7311  -13.1594  -21.8818 C   0  0  0  0  0  0  0  0  0  0  0  0
   20.9113  -12.3275  -20.6040 C   0  0  2  0  0  0  0  0  0  0  0  0
   21.1283  -10.9181  -21.0318 C   0  0  0  0  0  0  0  0  0  0  0  0
   22.0195  -12.9270  -19.7830 C   0  0  2  0  0  0  0  0  0  0  0  0
   21.5793  -14.2997  -19.4346 N   0  0  0  0  0  0  0  0  0  0  0  0
   22.3155  -12.1771  -18.5363 C   0  0  0  0  0  0  0  0  0  0  0  0
   21.4857  -12.2184  -17.5582 O   0  0  0  0  0  0  0  0  0  0  0  0
   23.4673  -11.3912  -18.3086 N   0  0  0  0  0  0  0  0  0  0  0  0
   23.6508  -10.6104  -17.0853 C   0  0  1  0  0  0  0  0  0  0  0  0
   25.1135  -10.5628  -16.6924 C   0  0  0  0  0  0  0  0  0  0  0  0
   25.7181  -12.2013  -16.2091 S   0  0  0  0  0  0  0  0  0  0  0  0
   23.0651   -9.2626  -17.2131 C   0  0  0  0  0  0  0  0  0  0  0  0
   23.0022   -8.7198  -18.3690 O   0  0  0  0  0  0  0  0  0  0  0  0
   18.8971   -7.4197  -19.7155 C   0  0  0  0  0  0  0  0  0  0  0  0
   18.8435   -5.9518  -18.6863 S   0  0  0  0  0  0  0  0  0  0  0  0
   20.1917   -5.8978  -17.4687 C   0  0  0  0  0  0  0  0  0  0  0  0
   20.8594   -7.2336  -17.3161 C   0  0  0  0  0  0  0  0  0  0  0  0
   21.9382   -7.1871  -16.2967 C   0  0  2  0  0  0  0  0  0  0  0  0
   22.5591   -8.5161  -16.1220 N   0  0  0  0  0  0  0  0  0  0  0  0
   21.5751   -6.6168  -14.9911 C   0  0  0  0  0  0  0  0  0  0  0  0
   21.2189   -5.2782  -14.9229 O   0  0  0  0  0  0  0  0  0  0  0  0
   21.5687   -7.2715  -13.9339 O   0  0  0  0  0  0  0  0  0  0  0  0
  2  1  1  0
  2  3  1  0
  3  4  1  6
  5  3  1  0
  5  7  1  0
  5  6  1  1
  7  8  2  0
  7  9  1  0
  9 10  1  0
 10 13  1  0
 10 11  1  6
 11 12  1  0
 13 14  2  0
 16 15  1  0
 17 16  1  0
 17 18  1  0
 19 18  1  6
 20 19  1  0
 20 13  1  0
 21 19  1  0
 22 21  1  0
 23 21  2  0
M  END
$$$$
