ICM.pdb
     RDKit          3D

 23 22  0  0  1  0  0  0  0  0999 V2000
   29.3862  -19.8171  -16.5057 C   0  0  0  0  0  0  0  0  0  0  0  0
   27.9554  -20.1650  -16.1887 C   0  0  0  0  0  0  0  0  0  0  0  0
   27.6222  -19.7666  -14.7440 C   0  0  2  0  0  0  0  0  0  0  0  0
   28.5735  -20.4980  -13.8627 C   0  0  0  0  0  0  0  0  0  0  0  0
   26.1665  -20.0413  -14.4848 C   0  0  2  0  0  0  0  0  0  0  0  0
   25.4098  -19.1786  -15.4244 N   0  0  0  0  0  0  0  0  0  0  0  0
   25.7381  -19.7438  -13.0947 C   0  0  0  0  0  0  0  0  0  0  0  0
   25.8254  -18.5446  -12.6462 O   0  0  0  0  0  0  0  0  0  0  0  0
   25.2214  -20.6872  -12.1787 N   0  0  0  0  0  0  0  0  0  0  0  0
   24.7148  -20.3008  -10.8619 C   0  0  1  0  0  0  0  0  0  0  0  0
   23.2894  -20.7790  -10.6730 C   0  0  0  0  0  0  0  0  0  0  0  0
   22.1004  -19.5715  -11.3146 S   0  0  0  0  0  0  0  0  0  0  0  0
   25.6058  -20.7681   -9.7832 C   0  0  0  0  0  0  0  0  0  0  0  0
   26.1636  -21.9136   -9.8908 O   0  0  0  0  0  0  0  0  0  0  0  0
   31.0009  -19.6460   -5.1445 C   0  0  0  0  0  0  0  0  0  0  0  0
   29.3280  -19.0753   -4.8403 S   0  0  0  0  0  0  0  0  0  0  0  0
   28.0693  -20.1853   -5.5377 C   0  0  0  0  0  0  0  0  0  0  0  0
   27.5001  -19.6484   -6.8187 C   0  0  0  0  0  0  0  0  0  0  0  0
   26.5609  -20.6153   -7.4419 C   0  0  2  0  0  0  0  0  0  0  0  0
   25.8897  -20.0200   -8.6155 N   0  0  0  0  0  0  0  0  0  0  0  0
   25.5718  -21.2312   -6.5452 C   0  0  0  0  0  0  0  0  0  0  0  0
   24.2235  -21.0218   -6.7936 O   0  0  0  0  0  0  0  0  0  0  0  0
   25.8769  -21.9360   -5.5672 O   0  0  0  0  0  0  0  0  0  0  0  0
  2  1  1  0
  2  3  1  0
  3  4  1  1
  5  3  1  0
  5  7  1  0
  5  6  1  6
  7  8  2  0
  7  9  1  0
  9 10  1  0
 10 13  1  0
 10 11  1  1
 11 12  1  0
 13 14  2  0
 16 15  1  0
 17 16  1  0
 17 18  1  0
 19 18  1  1
 20 19  1  0
 20 13  1  0
 21 19  1  0
 22 21  1  0
 23 21  2  0
M  END
$$$$
