ICM.pdb
     RDKit          3D

 23 22  0  0  1  0  0  0  0  0999 V2000
   25.2595  -14.0557  -15.6778 C   0  0  0  0  0  0  0  0  0  0  0  0
   25.8821  -15.3145  -16.2222 C   0  0  0  0  0  0  0  0  0  0  0  0
   25.8524  -16.4215  -15.1588 C   0  0  2  0  0  0  0  0  0  0  0  0
   26.6793  -15.9461  -14.0157 C   0  0  0  0  0  0  0  0  0  0  0  0
   26.3040  -17.7123  -15.7846 C   0  0  2  0  0  0  0  0  0  0  0  0
   25.6372  -17.7855  -17.1073 N   0  0  0  0  0  0  0  0  0  0  0  0
   25.9529  -18.9179  -14.9925 C   0  0  0  0  0  0  0  0  0  0  0  0
   24.7449  -19.3510  -14.9968 O   0  0  0  0  0  0  0  0  0  0  0  0
   26.8527  -19.6682  -14.2029 N   0  0  0  0  0  0  0  0  0  0  0  0
   26.4327  -20.8492  -13.4487 C   0  0  1  0  0  0  0  0  0  0  0  0
   27.1898  -22.0783  -13.9093 C   0  0  0  0  0  0  0  0  0  0  0  0
   28.9762  -21.8724  -13.6851 S   0  0  0  0  0  0  0  0  0  0  0  0
   26.5560  -20.6323  -11.9949 C   0  0  0  0  0  0  0  0  0  0  0  0
   27.7048  -20.3624  -11.5024 O   0  0  0  0  0  0  0  0  0  0  0  0
   29.3737  -19.4147   -6.5848 C   0  0  0  0  0  0  0  0  0  0  0  0
   27.7949  -18.6394   -6.9359 S   0  0  0  0  0  0  0  0  0  0  0  0
   26.5717  -19.8068   -7.6021 C   0  0  0  0  0  0  0  0  0  0  0  0
   26.5787  -19.8261   -9.1031 C   0  0  0  0  0  0  0  0  0  0  0  0
   25.6619  -20.8655   -9.6362 C   0  0  2  0  0  0  0  0  0  0  0  0
   25.4684  -20.7045  -11.0918 N   0  0  0  0  0  0  0  0  0  0  0  0
   24.3633  -20.9964   -8.9592 C   0  0  0  0  0  0  0  0  0  0  0  0
   24.3430  -21.3156   -7.6097 O   0  0  0  0  0  0  0  0  0  0  0  0
   23.2714  -20.8359   -9.5320 O   0  0  0  0  0  0  0  0  0  0  0  0
  2  1  1  0
  2  3  1  0
  3  4  1  1
  5  3  1  0
  5  7  1  0
  5  6  1  6
  7  8  2  0
  7  9  1  0
  9 10  1  0
 10 13  1  0
 10 11  1  6
 11 12  1  0
 13 14  2  0
 16 15  1  0
 17 16  1  0
 17 18  1  0
 19 18  1  1
 20 19  1  0
 20 13  1  0
 21 19  1  0
 22 21  1  0
 23 21  2  0
M  END
$$$$
