ICM.pdb
     RDKit          3D

 23 22  0  0  1  0  0  0  0  0999 V2000
   18.8964  -16.9395  -18.3467 C   0  0  0  0  0  0  0  0  0  0  0  0
   20.3156  -16.9784  -17.8437 C   0  0  0  0  0  0  0  0  0  0  0  0
   20.6495  -15.6758  -17.1029 C   0  0  2  0  0  0  0  0  0  0  0  0
   20.4258  -14.5612  -18.0642 C   0  0  0  0  0  0  0  0  0  0  0  0
   22.0434  -15.7736  -16.5467 C   0  0  2  0  0  0  0  0  0  0  0  0
   22.0305  -16.9138  -15.5983 N   0  0  0  0  0  0  0  0  0  0  0  0
   22.4926  -14.5505  -15.8351 C   0  0  0  0  0  0  0  0  0  0  0  0
   21.9689  -14.2455  -14.7040 O   0  0  0  0  0  0  0  0  0  0  0  0
   23.4805  -13.6521  -16.2967 N   0  0  0  0  0  0  0  0  0  0  0  0
   23.8488  -12.4470  -15.5538 C   0  0  1  0  0  0  0  0  0  0  0  0
   25.3530  -12.2654  -15.5359 C   0  0  0  0  0  0  0  0  0  0  0  0
   26.1857  -13.7397  -14.8903 S   0  0  0  0  0  0  0  0  0  0  0  0
   23.1511  -11.2572  -16.0765 C   0  0  0  0  0  0  0  0  0  0  0  0
   22.8035  -11.2316  -17.3067 O   0  0  0  0  0  0  0  0  0  0  0  0
   17.0622   -7.8751  -17.9411 C   0  0  0  0  0  0  0  0  0  0  0  0
   18.1687   -9.1562  -17.3484 S   0  0  0  0  0  0  0  0  0  0  0  0
   19.7613   -8.4974  -16.7715 C   0  0  0  0  0  0  0  0  0  0  0  0
   20.6957   -9.5916  -16.3438 C   0  0  0  0  0  0  0  0  0  0  0  0
   21.9587   -9.0405  -15.7904 C   0  0  2  0  0  0  0  0  0  0  0  0
   22.8349  -10.1210  -15.2936 N   0  0  0  0  0  0  0  0  0  0  0  0
   21.8185   -7.9877  -14.7736 C   0  0  0  0  0  0  0  0  0  0  0  0
   22.1424   -8.2829  -13.4578 O   0  0  0  0  0  0  0  0  0  0  0  0
   21.4224   -6.8367  -15.0275 O   0  0  0  0  0  0  0  0  0  0  0  0
  2  1  1  0
  2  3  1  0
  3  4  1  6
  5  3  1  0
  5  7  1  0
  5  6  1  1
  7  8  2  0
  7  9  1  0
  9 10  1  0
 10 13  1  0
 10 11  1  6
 11 12  1  0
 13 14  2  0
 16 15  1  0
 17 16  1  0
 17 18  1  0
 19 18  1  1
 20 19  1  0
 20 13  1  0
 21 19  1  0
 22 21  1  0
 23 21  2  0
M  END
$$$$
