ICM.pdb
     RDKit          3D

 23 22  0  0  1  0  0  0  0  0999 V2000
   21.8290   -9.9393  -19.9898 C   0  0  0  0  0  0  0  0  0  0  0  0
   21.6444  -10.2855  -18.5356 C   0  0  0  0  0  0  0  0  0  0  0  0
   21.0496   -9.0893  -17.7789 C   0  0  2  0  0  0  0  0  0  0  0  0
   21.9739   -7.9412  -17.9886 C   0  0  0  0  0  0  0  0  0  0  0  0
   20.8273   -9.4806  -16.3439 C   0  0  2  0  0  0  0  0  0  0  0  0
   19.9308  -10.6617  -16.3720 N   0  0  0  0  0  0  0  0  0  0  0  0
   20.2048   -8.4133  -15.5207 C   0  0  0  0  0  0  0  0  0  0  0  0
   19.0984   -7.8841  -15.8984 O   0  0  0  0  0  0  0  0  0  0  0  0
   20.7290   -7.9017  -14.3127 N   0  0  0  0  0  0  0  0  0  0  0  0
   20.1190   -6.7709  -13.6133 C   0  0  1  0  0  0  0  0  0  0  0  0
   20.2526   -6.9317  -12.1125 C   0  0  0  0  0  0  0  0  0  0  0  0
   19.3550   -8.3923  -11.5254 S   0  0  0  0  0  0  0  0  0  0  0  0
   20.6670   -5.4856  -14.0860 C   0  0  0  0  0  0  0  0  0  0  0  0
   21.8036   -5.4728  -14.6715 O   0  0  0  0  0  0  0  0  0  0  0  0
   23.7969   -2.7754  -18.3612 C   0  0  0  0  0  0  0  0  0  0  0  0
   22.0651   -2.3139  -18.2913 S   0  0  0  0  0  0  0  0  0  0  0  0
   21.4871   -2.0090  -16.5955 C   0  0  0  0  0  0  0  0  0  0  0  0
   20.9542   -3.2575  -15.9547 C   0  0  0  0  0  0  0  0  0  0  0  0
   20.5046   -3.0029  -14.5625 C   0  0  2  0  0  0  0  0  0  0  0  0
   20.0073   -4.2427  -13.9318 N   0  0  0  0  0  0  0  0  0  0  0  0
   19.5349   -1.9127  -14.3814 C   0  0  0  0  0  0  0  0  0  0  0  0
   19.9850   -0.6022  -14.4392 O   0  0  0  0  0  0  0  0  0  0  0  0
   18.3225   -2.0992  -14.1774 O   0  0  0  0  0  0  0  0  0  0  0  0
  2  1  1  0
  2  3  1  0
  3  4  1  1
  5  3  1  0
  5  7  1  0
  5  6  1  6
  7  8  2  0
  7  9  1  0
  9 10  1  0
 10 13  1  0
 10 11  1  1
 11 12  1  0
 13 14  2  0
 16 15  1  0
 17 16  1  0
 17 18  1  0
 19 18  1  6
 20 19  1  0
 20 13  1  0
 21 19  1  0
 22 21  1  0
 23 21  2  0
M  END
$$$$
