ICM.pdb
     RDKit          3D

 23 22  0  0  1  0  0  0  0  0999 V2000
   15.9823  -12.4903  -20.1626 C   0  0  0  0  0  0  0  0  0  0  0  0
   17.0994  -12.0315  -19.2624 C   0  0  0  0  0  0  0  0  0  0  0  0
   18.4583  -12.3592  -19.8973 C   0  0  2  0  0  0  0  0  0  0  0  0
   18.5110  -13.8371  -20.0688 C   0  0  0  0  0  0  0  0  0  0  0  0
   19.5499  -11.7726  -19.0452 C   0  0  2  0  0  0  0  0  0  0  0  0
   19.3766  -12.3562  -17.6927 N   0  0  0  0  0  0  0  0  0  0  0  0
   19.5050  -10.2918  -18.9484 C   0  0  0  0  0  0  0  0  0  0  0  0
   19.4448   -9.5871  -20.0192 O   0  0  0  0  0  0  0  0  0  0  0  0
   19.5214   -9.5500  -17.7462 N   0  0  0  0  0  0  0  0  0  0  0  0
   19.4765   -8.0879  -17.7297 C   0  0  1  0  0  0  0  0  0  0  0  0
   18.2542   -7.5794  -18.4670 C   0  0  0  0  0  0  0  0  0  0  0  0
   18.0617   -5.7890  -18.2641 S   0  0  0  0  0  0  0  0  0  0  0  0
   19.5551   -7.5617  -16.3540 C   0  0  0  0  0  0  0  0  0  0  0  0
   18.7222   -7.9820  -15.4797 O   0  0  0  0  0  0  0  0  0  0  0  0
   21.9120  -10.8588  -13.0605 C   0  0  0  0  0  0  0  0  0  0  0  0
   22.7620   -9.4980  -12.2589 S   0  0  0  0  0  0  0  0  0  0  0  0
   22.1122   -7.8745  -12.7537 C   0  0  0  0  0  0  0  0  0  0  0  0
   21.6538   -7.8692  -14.1831 C   0  0  0  0  0  0  0  0  0  0  0  0
   21.0294   -6.5719  -14.5473 C   0  0  2  0  0  0  0  0  0  0  0  0
   20.5079   -6.6049  -15.9290 N   0  0  0  0  0  0  0  0  0  0  0  0
   21.8543   -5.3725  -14.3407 C   0  0  0  0  0  0  0  0  0  0  0  0
   22.1365   -4.9715  -13.0434 O   0  0  0  0  0  0  0  0  0  0  0  0
   22.3182   -4.6899  -15.2708 O   0  0  0  0  0  0  0  0  0  0  0  0
  2  1  1  0
  2  3  1  0
  3  4  1  1
  5  3  1  0
  5  7  1  0
  5  6  1  1
  7  8  2  0
  7  9  1  0
  9 10  1  0
 10 13  1  0
 10 11  1  1
 11 12  1  0
 13 14  2  0
 16 15  1  0
 17 16  1  0
 17 18  1  0
 19 18  1  6
 20 19  1  0
 20 13  1  0
 21 19  1  0
 22 21  1  0
 23 21  2  0
M  END
$$$$
