ICM.pdb
     RDKit          3D

 23 22  0  0  1  0  0  0  0  0999 V2000
   17.1564  -17.0977  -16.3520 C   0  0  0  0  0  0  0  0  0  0  0  0
   16.8891  -15.8386  -15.5699 C   0  0  0  0  0  0  0  0  0  0  0  0
   17.4080  -14.6169  -16.3415 C   0  0  2  0  0  0  0  0  0  0  0  0
   18.8489  -14.8630  -16.6237 C   0  0  0  0  0  0  0  0  0  0  0  0
   17.1127  -13.3752  -15.5461 C   0  0  2  0  0  0  0  0  0  0  0  0
   15.6410  -13.3410  -15.3651 N   0  0  0  0  0  0  0  0  0  0  0  0
   17.5535  -12.1208  -16.2067 C   0  0  0  0  0  0  0  0  0  0  0  0
   17.0894  -11.8152  -17.3634 O   0  0  0  0  0  0  0  0  0  0  0  0
   18.4695  -11.1905  -15.6668 N   0  0  0  0  0  0  0  0  0  0  0  0
   18.8919   -9.9958  -16.3977 C   0  0  1  0  0  0  0  0  0  0  0  0
   17.6907   -9.1999  -16.8664 C   0  0  0  0  0  0  0  0  0  0  0  0
   18.1803   -7.5594  -17.4607 S   0  0  0  0  0  0  0  0  0  0  0  0
   19.8245   -9.1774  -15.5999 C   0  0  0  0  0  0  0  0  0  0  0  0
   19.4788   -8.8089  -14.4254 O   0  0  0  0  0  0  0  0  0  0  0  0
   26.1505  -11.4531  -14.5930 C   0  0  0  0  0  0  0  0  0  0  0  0
   25.6129   -9.8830  -15.2733 S   0  0  0  0  0  0  0  0  0  0  0  0
   23.8682   -9.5222  -14.9140 C   0  0  0  0  0  0  0  0  0  0  0  0
   23.4252   -8.2316  -15.5395 C   0  0  0  0  0  0  0  0  0  0  0  0
   22.0029   -7.9388  -15.2289 C   0  0  2  0  0  0  0  0  0  0  0  0
   21.0995   -8.7649  -16.0558 N   0  0  0  0  0  0  0  0  0  0  0  0
   21.6016   -6.5256  -15.2892 C   0  0  0  0  0  0  0  0  0  0  0  0
   21.8464   -5.7145  -14.1912 O   0  0  0  0  0  0  0  0  0  0  0  0
   21.0502   -6.0102  -16.2774 O   0  0  0  0  0  0  0  0  0  0  0  0
  2  1  1  0
  2  3  1  0
  3  4  1  1
  5  3  1  0
  5  7  1  0
  5  6  1  6
  7  8  2  0
  7  9  1  0
  9 10  1  0
 10 13  1  0
 10 11  1  1
 11 12  1  0
 13 14  2  0
 16 15  1  0
 17 16  1  0
 17 18  1  0
 19 18  1  6
 20 19  1  0
 20 13  1  0
 21 19  1  0
 22 21  1  0
 23 21  2  0
M  END
$$$$
