ICM.pdb
     RDKit          3D

 23 22  0  0  1  0  0  0  0  0999 V2000
   28.6262  -17.4847  -17.5011 C   0  0  0  0  0  0  0  0  0  0  0  0
   27.7205  -18.5850  -17.0134 C   0  0  0  0  0  0  0  0  0  0  0  0
   27.0768  -18.1867  -15.6777 C   0  0  2  0  0  0  0  0  0  0  0  0
   28.1881  -17.9294  -14.7211 C   0  0  0  0  0  0  0  0  0  0  0  0
   26.1084  -19.2599  -15.2629 C   0  0  2  0  0  0  0  0  0  0  0  0
   25.0767  -19.3189  -16.3268 N   0  0  0  0  0  0  0  0  0  0  0  0
   25.4504  -19.0020  -13.9572 C   0  0  0  0  0  0  0  0  0  0  0  0
   24.5828  -18.0616  -13.8582 O   0  0  0  0  0  0  0  0  0  0  0  0
   25.6924  -19.7184  -12.7638 N   0  0  0  0  0  0  0  0  0  0  0  0
   24.9790  -19.4281  -11.5202 C   0  0  1  0  0  0  0  0  0  0  0  0
   23.4855  -19.6079  -11.7027 C   0  0  0  0  0  0  0  0  0  0  0  0
   23.1011  -21.2273  -12.4193 S   0  0  0  0  0  0  0  0  0  0  0  0
   25.5028  -20.2302  -10.3985 C   0  0  0  0  0  0  0  0  0  0  0  0
   25.7512  -21.4706  -10.5847 O   0  0  0  0  0  0  0  0  0  0  0  0
   29.2728  -18.4897   -5.1767 C   0  0  0  0  0  0  0  0  0  0  0  0
   28.1329  -19.6931   -4.4917 S   0  0  0  0  0  0  0  0  0  0  0  0
   27.2638  -20.6459   -5.7723 C   0  0  0  0  0  0  0  0  0  0  0  0
   26.8892  -19.7895   -6.9469 C   0  0  0  0  0  0  0  0  0  0  0  0
   26.1532  -20.5698   -7.9739 C   0  0  2  0  0  0  0  0  0  0  0  0
   25.7531  -19.7096   -9.1062 N   0  0  0  0  0  0  0  0  0  0  0  0
   25.0043  -21.3529   -7.4958 C   0  0  0  0  0  0  0  0  0  0  0  0
   25.2397  -22.4820   -6.7258 O   0  0  0  0  0  0  0  0  0  0  0  0
   23.8219  -21.0586   -7.7443 O   0  0  0  0  0  0  0  0  0  0  0  0
  2  1  1  0
  2  3  1  0
  3  4  1  1
  5  3  1  0
  5  7  1  0
  5  6  1  6
  7  8  2  0
  7  9  1  0
  9 10  1  0
 10 13  1  0
 10 11  1  6
 11 12  1  0
 13 14  2  0
 16 15  1  0
 17 16  1  0
 17 18  1  0
 19 18  1  1
 20 19  1  0
 20 13  1  0
 21 19  1  0
 22 21  1  0
 23 21  2  0
M  END
$$$$
