ICM.pdb
     RDKit          3D

 23 22  0  0  1  0  0  0  0  0999 V2000
   12.8182  -12.4305  -10.0135 C   0  0  0  0  0  0  0  0  0  0  0  0
   13.3996  -11.2674   -9.2535 C   0  0  0  0  0  0  0  0  0  0  0  0
   13.9358  -10.2121  -10.2313 C   0  0  2  0  0  0  0  0  0  0  0  0
   14.9024  -10.9039  -11.1277 C   0  0  0  0  0  0  0  0  0  0  0  0
   14.4999   -9.0603   -9.4459 C   0  0  2  0  0  0  0  0  0  0  0  0
   13.3946   -8.5622   -8.5917 N   0  0  0  0  0  0  0  0  0  0  0  0
   15.0045   -7.9484  -10.2905 C   0  0  0  0  0  0  0  0  0  0  0  0
   14.2057   -7.3516  -11.0983 O   0  0  0  0  0  0  0  0  0  0  0  0
   16.3304   -7.4603  -10.2933 N   0  0  0  0  0  0  0  0  0  0  0  0
   16.7264   -6.2796  -11.0606 C   0  0  1  0  0  0  0  0  0  0  0  0
   15.8021   -5.1147  -10.7698 C   0  0  0  0  0  0  0  0  0  0  0  0
   16.2957   -3.6368  -11.6950 S   0  0  0  0  0  0  0  0  0  0  0  0
   18.1425   -5.9369  -10.8301 C   0  0  0  0  0  0  0  0  0  0  0  0
   18.6664   -6.1939   -9.6923 O   0  0  0  0  0  0  0  0  0  0  0  0
   22.2622   -9.8037  -14.4158 C   0  0  0  0  0  0  0  0  0  0  0  0
   22.0429   -9.4283  -12.6757 S   0  0  0  0  0  0  0  0  0  0  0  0
   21.9115   -7.6446  -12.3529 C   0  0  0  0  0  0  0  0  0  0  0  0
   20.4849   -7.2141  -12.1720 C   0  0  0  0  0  0  0  0  0  0  0  0
   20.3802   -5.7426  -12.0015 C   0  0  2  0  0  0  0  0  0  0  0  0
   18.9755   -5.3315  -11.8013 N   0  0  0  0  0  0  0  0  0  0  0  0
   21.0097   -4.9206  -13.0454 C   0  0  0  0  0  0  0  0  0  0  0  0
   22.2929   -4.4393  -12.8331 O   0  0  0  0  0  0  0  0  0  0  0  0
   20.4528   -4.6289  -14.1183 O   0  0  0  0  0  0  0  0  0  0  0  0
  2  1  1  0
  2  3  1  0
  3  4  1  1
  5  3  1  0
  5  7  1  0
  5  6  1  1
  7  8  2  0
  7  9  1  0
  9 10  1  0
 10 13  1  0
 10 11  1  1
 11 12  1  0
 13 14  2  0
 16 15  1  0
 17 16  1  0
 17 18  1  0
 19 18  1  6
 20 19  1  0
 20 13  1  0
 21 19  1  0
 22 21  1  0
 23 21  2  0
M  END
$$$$
