CCF.pdb
     RDKit          3D

 24 24  0  0  1  0  0  0  0  0999 V2000
   25.9588  -21.5454  -16.8058 N   0  0  0  0  0  0  0  0  0  0  0  0
   26.7371  -21.5587  -15.5805 C   0  0  1  0  0  0  0  0  0  0  0  0
   28.1517  -21.1373  -15.8494 C   0  0  0  0  0  0  0  0  0  0  0  0
   29.2546  -22.5218  -15.4499 S   0  0  0  0  0  0  0  0  0  0  0  0
   26.0791  -20.7973  -14.5087 C   0  0  0  0  0  0  0  0  0  0  0  0
   25.3752  -19.8069  -14.8365 O   0  0  0  0  0  0  0  0  0  0  0  0
   26.1901  -21.1127  -13.1209 N   0  0  0  0  0  0  0  0  0  0  0  0
   25.3433  -20.5696  -12.1102 C   0  0  1  0  0  0  0  0  0  0  0  0
   23.8877  -20.9450  -12.2943 C   0  0  0  0  0  0  0  0  0  0  0  0
   22.9441  -20.8507  -10.7684 S   0  0  0  0  0  0  0  0  0  0  0  0
   25.8040  -20.9424  -10.7285 C   0  0  0  0  0  0  0  0  0  0  0  0
   25.8346  -22.1433  -10.3562 O   0  0  0  0  0  0  0  0  0  0  0  0
   26.2069  -19.9099   -9.8442 N   0  0  0  0  0  0  0  0  0  0  0  0
   26.7242  -20.2866   -8.5283 C   0  0  1  0  0  0  0  0  0  0  0  0
   27.4790  -19.1448   -7.9284 C   0  0  0  0  0  0  0  0  0  0  0  0
   28.0189  -19.5122   -6.6119 C   0  0  0  0  0  0  0  0  0  0  0  0
   29.1688  -20.2707   -6.5467 C   0  0  0  0  0  0  0  0  0  0  0  0
   29.7439  -20.6255   -5.3316 C   0  0  0  0  0  0  0  0  0  0  0  0
   29.1718  -20.2229   -4.1512 C   0  0  0  0  0  0  0  0  0  0  0  0
   28.0227  -19.4646   -4.2068 C   0  0  0  0  0  0  0  0  0  0  0  0
   27.4587  -19.1168   -5.4141 C   0  0  0  0  0  0  0  0  0  0  0  0
   25.6201  -20.6895   -7.6429 C   0  0  0  0  0  0  0  0  0  0  0  0
   24.5329  -20.0555   -7.7006 O   0  0  0  0  0  0  0  0  0  0  0  0
   25.7496  -21.7266   -6.7736 O   0  0  0  0  0  0  0  0  0  0  0  0
  2  1  1  6
  2  5  1  0
  3  2  1  0
  4  3  1  0
  5  6  2  0
  7  8  1  0
  7  5  1  0
  8 11  1  0
  9 10  1  0
  8  9  1  6
 11 12  2  0
 11 13  1  0
 13 14  1  0
 14 22  1  0
 14 15  1  1
 16 15  1  0
 16 17  2  0
 18 17  1  0
 19 18  2  0
 20 21  2  0
 20 19  1  0
 21 16  1  0
 22 23  2  0
 22 24  1  0
M  END
$$$$
