CCF.pdb
     RDKit          3D

 24 24  0  0  1  0  0  0  0  0999 V2000
   28.4769  -21.4074  -16.2390 N   0  0  0  0  0  0  0  0  0  0  0  0
   28.1429  -20.4494  -15.2006 C   0  0  1  0  0  0  0  0  0  0  0  0
   27.8316  -19.1094  -15.7995 C   0  0  0  0  0  0  0  0  0  0  0  0
   27.3675  -17.9717  -14.4642 S   0  0  0  0  0  0  0  0  0  0  0  0
   27.0973  -20.9612  -14.3028 C   0  0  0  0  0  0  0  0  0  0  0  0
   26.0958  -21.5188  -14.8224 O   0  0  0  0  0  0  0  0  0  0  0  0
   27.1491  -20.8644  -12.8795 N   0  0  0  0  0  0  0  0  0  0  0  0
   26.0775  -21.2380  -12.0159 C   0  0  1  0  0  0  0  0  0  0  0  0
   26.4764  -21.2611  -10.5552 C   0  0  0  0  0  0  0  0  0  0  0  0
   25.0724  -21.4545   -9.4512 S   0  0  0  0  0  0  0  0  0  0  0  0
   24.8677  -20.3666  -12.2092 C   0  0  0  0  0  0  0  0  0  0  0  0
   24.9204  -19.1273  -12.0018 O   0  0  0  0  0  0  0  0  0  0  0  0
   23.6562  -20.9691  -12.6326 N   0  0  0  0  0  0  0  0  0  0  0  0
   22.4549  -20.1364  -12.7023 C   0  0  1  0  0  0  0  0  0  0  0  0
   22.6191  -19.0873  -13.7539 C   0  0  0  0  0  0  0  0  0  0  0  0
   22.8198  -19.7008  -15.0741 C   0  0  0  0  0  0  0  0  0  0  0  0
   21.7201  -20.1194  -15.7933 C   0  0  0  0  0  0  0  0  0  0  0  0
   21.8435  -20.6802  -17.0595 C   0  0  0  0  0  0  0  0  0  0  0  0
   23.0813  -20.8326  -17.6315 C   0  0  0  0  0  0  0  0  0  0  0  0
   24.1858  -20.4170  -16.9203 C   0  0  0  0  0  0  0  0  0  0  0  0
   24.0560  -19.8622  -15.6665 C   0  0  0  0  0  0  0  0  0  0  0  0
   21.2750  -20.9672  -12.9904 C   0  0  0  0  0  0  0  0  0  0  0  0
   21.4332  -22.2030  -13.1778 O   0  0  0  0  0  0  0  0  0  0  0  0
   20.0276  -20.4307  -13.0545 O   0  0  0  0  0  0  0  0  0  0  0  0
  2  1  1  6
  2  5  1  0
  3  2  1  0
  4  3  1  0
  5  6  2  0
  7  8  1  0
  7  5  1  0
  8 11  1  0
  9 10  1  0
  8  9  1  1
 11 12  2  0
 11 13  1  0
 13 14  1  0
 14 22  1  0
 14 15  1  6
 16 15  1  0
 16 17  2  0
 18 17  1  0
 19 18  2  0
 20 21  2  0
 20 19  1  0
 21 16  1  0
 22 23  2  0
 22 24  1  0
M  END
$$$$
