CCF.pdb
     RDKit          3D

 24 24  0  0  1  0  0  0  0  0999 V2000
   19.7149  -20.9418  -15.0707 N   0  0  0  0  0  0  0  0  0  0  0  0
   20.5795  -20.3534  -14.0639 C   0  0  1  0  0  0  0  0  0  0  0  0
   19.8038  -20.0460  -12.8169 C   0  0  0  0  0  0  0  0  0  0  0  0
   20.9126  -19.2376  -11.6294 S   0  0  0  0  0  0  0  0  0  0  0  0
   21.7822  -21.1673  -13.8353 C   0  0  0  0  0  0  0  0  0  0  0  0
   21.8192  -22.3188  -14.3420 O   0  0  0  0  0  0  0  0  0  0  0  0
   22.9089  -20.7315  -13.0748 N   0  0  0  0  0  0  0  0  0  0  0  0
   24.1805  -21.3767  -13.0933 C   0  0  1  0  0  0  0  0  0  0  0  0
   24.7658  -21.4895  -14.4855 C   0  0  0  0  0  0  0  0  0  0  0  0
   26.4842  -22.0133  -14.4799 S   0  0  0  0  0  0  0  0  0  0  0  0
   25.1634  -20.7119  -12.1700 C   0  0  0  0  0  0  0  0  0  0  0  0
   25.5138  -19.5170  -12.3462 O   0  0  0  0  0  0  0  0  0  0  0  0
   25.6935  -21.4598  -11.0884 N   0  0  0  0  0  0  0  0  0  0  0  0
   26.6667  -20.8119  -10.2085 C   0  0  1  0  0  0  0  0  0  0  0  0
   26.4522  -21.2508   -8.7961 C   0  0  0  0  0  0  0  0  0  0  0  0
   27.3179  -20.4959   -7.8794 C   0  0  0  0  0  0  0  0  0  0  0  0
   26.8206  -19.3656   -7.2655 C   0  0  0  0  0  0  0  0  0  0  0  0
   27.5809  -18.6261   -6.3666 C   0  0  0  0  0  0  0  0  0  0  0  0
   28.8632  -19.0098   -6.0648 C   0  0  0  0  0  0  0  0  0  0  0  0
   29.3684  -20.1380   -6.6734 C   0  0  0  0  0  0  0  0  0  0  0  0
   28.6095  -20.8656   -7.5628 C   0  0  0  0  0  0  0  0  0  0  0  0
   28.0365  -21.1327  -10.6398 C   0  0  0  0  0  0  0  0  0  0  0  0
   28.3514  -22.3401  -10.8146 O   0  0  0  0  0  0  0  0  0  0  0  0
   28.9597  -20.1582  -10.8544 O   0  0  0  0  0  0  0  0  0  0  0  0
  2  1  1  6
  2  5  1  0
  3  2  1  0
  4  3  1  0
  5  6  2  0
  7  8  1  0
  7  5  1  0
  8 11  1  0
  9 10  1  0
  8  9  1  6
 11 12  2  0
 11 13  1  0
 13 14  1  0
 14 22  1  0
 14 15  1  1
 16 15  1  0
 16 17  2  0
 18 17  1  0
 19 18  2  0
 20 21  2  0
 20 19  1  0
 21 16  1  0
 22 23  2  0
 22 24  1  0
M  END
$$$$
