CCF.pdb
     RDKit          3D

 24 24  0  0  1  0  0  0  0  0999 V2000
   28.1737  -20.4956  -16.1661 N   0  0  0  0  0  0  0  0  0  0  0  0
   27.7489  -19.7943  -14.9682 C   0  0  1  0  0  0  0  0  0  0  0  0
   27.1584  -18.4604  -15.3192 C   0  0  0  0  0  0  0  0  0  0  0  0
   28.5080  -17.3198  -15.7317 S   0  0  0  0  0  0  0  0  0  0  0  0
   26.8808  -20.6303  -14.1262 C   0  0  0  0  0  0  0  0  0  0  0  0
   25.9892  -21.3128  -14.6947 O   0  0  0  0  0  0  0  0  0  0  0  0
   26.9878  -20.7148  -12.7053 N   0  0  0  0  0  0  0  0  0  0  0  0
   26.0098  -21.3276  -11.8676 C   0  0  1  0  0  0  0  0  0  0  0  0
   26.5135  -21.5871  -10.4632 C   0  0  0  0  0  0  0  0  0  0  0  0
   25.6454  -20.6227   -9.2208 S   0  0  0  0  0  0  0  0  0  0  0  0
   24.7316  -20.5372  -11.8220 C   0  0  0  0  0  0  0  0  0  0  0  0
   24.7444  -19.2914  -11.6503 O   0  0  0  0  0  0  0  0  0  0  0  0
   23.5012  -21.2244  -11.9770 N   0  0  0  0  0  0  0  0  0  0  0  0
   22.2611  -20.4509  -11.9047 C   0  0  1  0  0  0  0  0  0  0  0  0
   22.2663  -19.3762  -12.9431 C   0  0  0  0  0  0  0  0  0  0  0  0
   22.3501  -19.9555  -14.2911 C   0  0  0  0  0  0  0  0  0  0  0  0
   23.5857  -20.0849  -14.8897 C   0  0  0  0  0  0  0  0  0  0  0  0
   23.7324  -20.6515  -16.1509 C   0  0  0  0  0  0  0  0  0  0  0  0
   22.6344  -21.1018  -16.8395 C   0  0  0  0  0  0  0  0  0  0  0  0
   21.3958  -20.9767  -16.2490 C   0  0  0  0  0  0  0  0  0  0  0  0
   21.2580  -20.4144  -14.9994 C   0  0  0  0  0  0  0  0  0  0  0  0
   21.0984  -21.3336  -12.0899 C   0  0  0  0  0  0  0  0  0  0  0  0
   21.2947  -22.5448  -12.3757 O   0  0  0  0  0  0  0  0  0  0  0  0
   19.8273  -20.8706  -11.9563 O   0  0  0  0  0  0  0  0  0  0  0  0
  2  1  1  6
  2  5  1  0
  3  2  1  0
  4  3  1  0
  5  6  2  0
  7  8  1  0
  7  5  1  0
  8 11  1  0
  9 10  1  0
  8  9  1  1
 11 12  2  0
 11 13  1  0
 13 14  1  0
 14 22  1  0
 14 15  1  6
 16 15  1  0
 16 17  2  0
 18 17  1  0
 19 18  2  0
 20 21  2  0
 20 19  1  0
 21 16  1  0
 22 23  2  0
 22 24  1  0
M  END
$$$$
