CCF.pdb
     RDKit          3D

 24 24  0  0  1  0  0  0  0  0999 V2000
   27.7868  -20.9749  -16.3026 N   0  0  0  0  0  0  0  0  0  0  0  0
   28.2070  -21.3878  -14.9758 C   0  0  1  0  0  0  0  0  0  0  0  0
   29.6979  -21.5463  -14.9200 C   0  0  0  0  0  0  0  0  0  0  0  0
   30.1304  -23.1878  -15.5614 S   0  0  0  0  0  0  0  0  0  0  0  0
   27.6591  -20.5088  -13.9325 C   0  0  0  0  0  0  0  0  0  0  0  0
   27.6375  -19.2706  -14.1569 O   0  0  0  0  0  0  0  0  0  0  0  0
   27.1508  -20.9738  -12.6822 N   0  0  0  0  0  0  0  0  0  0  0  0
   26.4442  -20.1531  -11.7544 C   0  0  1  0  0  0  0  0  0  0  0  0
   25.1364  -19.6268  -12.3077 C   0  0  0  0  0  0  0  0  0  0  0  0
   23.7977  -20.8188  -12.1880 S   0  0  0  0  0  0  0  0  0  0  0  0
   26.2084  -20.8554  -10.4462 C   0  0  0  0  0  0  0  0  0  0  0  0
   26.2048  -22.1110  -10.3748 O   0  0  0  0  0  0  0  0  0  0  0  0
   25.9883  -20.0731   -9.2843 N   0  0  0  0  0  0  0  0  0  0  0  0
   25.7676  -20.7652   -8.0140 C   0  0  1  0  0  0  0  0  0  0  0  0
   26.0522  -19.8437   -6.8725 C   0  0  0  0  0  0  0  0  0  0  0  0
   27.4591  -19.9452   -6.4600 C   0  0  0  0  0  0  0  0  0  0  0  0
   28.2092  -18.7936   -6.3457 C   0  0  0  0  0  0  0  0  0  0  0  0
   29.5363  -18.8223   -5.9322 C   0  0  0  0  0  0  0  0  0  0  0  0
   30.1395  -20.0153   -5.6235 C   0  0  0  0  0  0  0  0  0  0  0  0
   29.3977  -21.1711   -5.7348 C   0  0  0  0  0  0  0  0  0  0  0  0
   28.0836  -21.1351   -6.1450 C   0  0  0  0  0  0  0  0  0  0  0  0
   24.3842  -21.2605   -7.9372 C   0  0  0  0  0  0  0  0  0  0  0  0
   23.5453  -20.8538   -8.7847 O   0  0  0  0  0  0  0  0  0  0  0  0
   23.9986  -22.1436   -6.9784 O   0  0  0  0  0  0  0  0  0  0  0  0
  2  1  1  6
  2  5  1  0
  3  2  1  0
  4  3  1  0
  5  6  2  0
  7  8  1  0
  7  5  1  0
  8 11  1  0
  9 10  1  0
  8  9  1  6
 11 12  2  0
 11 13  1  0
 13 14  1  0
 14 22  1  0
 14 15  1  1
 16 15  1  0
 16 17  2  0
 18 17  1  0
 19 18  2  0
 20 21  2  0
 20 19  1  0
 21 16  1  0
 22 23  2  0
 22 24  1  0
M  END
$$$$
