CCF.pdb
     RDKit          3D

 24 24  0  0  1  0  0  0  0  0999 V2000
   29.4233  -21.1488  -18.3806 N   0  0  0  0  0  0  0  0  0  0  0  0
   28.4869  -21.7823  -17.4699 C   0  0  1  0  0  0  0  0  0  0  0  0
   28.4542  -23.2654  -17.6943 C   0  0  0  0  0  0  0  0  0  0  0  0
   27.1794  -23.9856  -16.6223 S   0  0  0  0  0  0  0  0  0  0  0  0
   28.7363  -21.3934  -16.0743 C   0  0  0  0  0  0  0  0  0  0  0  0
   29.9079  -21.0625  -15.7553 O   0  0  0  0  0  0  0  0  0  0  0  0
   27.7316  -21.3684  -15.0604 N   0  0  0  0  0  0  0  0  0  0  0  0
   27.6076  -20.3336  -14.0870 C   0  0  1  0  0  0  0  0  0  0  0  0
   27.5612  -18.9491  -14.6989 C   0  0  0  0  0  0  0  0  0  0  0  0
   27.1954  -17.6661  -13.4957 S   0  0  0  0  0  0  0  0  0  0  0  0
   26.4200  -20.5437  -13.1892 C   0  0  0  0  0  0  0  0  0  0  0  0
   25.2468  -20.4179  -13.6244 O   0  0  0  0  0  0  0  0  0  0  0  0
   26.6456  -20.8887  -11.8326 N   0  0  0  0  0  0  0  0  0  0  0  0
   25.5107  -21.3628  -11.0398 C   0  0  1  0  0  0  0  0  0  0  0  0
   25.9966  -21.9861   -9.7715 C   0  0  0  0  0  0  0  0  0  0  0  0
   26.7714  -21.0199   -8.9804 C   0  0  0  0  0  0  0  0  0  0  0  0
   28.1476  -21.0320   -9.0677 C   0  0  0  0  0  0  0  0  0  0  0  0
   28.9337  -20.1246   -8.3665 C   0  0  0  0  0  0  0  0  0  0  0  0
   28.3494  -19.1817   -7.5590 C   0  0  0  0  0  0  0  0  0  0  0  0
   26.9748  -19.1621   -7.4657 C   0  0  0  0  0  0  0  0  0  0  0  0
   26.2025  -20.0640   -8.1632 C   0  0  0  0  0  0  0  0  0  0  0  0
   24.5957  -20.2493  -10.7432 C   0  0  0  0  0  0  0  0  0  0  0  0
   23.4635  -20.5071  -10.2543 O   0  0  0  0  0  0  0  0  0  0  0  0
   24.9479  -18.9582  -10.9820 O   0  0  0  0  0  0  0  0  0  0  0  0
  2  1  1  6
  2  5  1  0
  3  2  1  0
  4  3  1  0
  5  6  2  0
  7  8  1  0
  7  5  1  0
  8 11  1  0
  9 10  1  0
  8  9  1  6
 11 12  2  0
 11 13  1  0
 13 14  1  0
 14 22  1  0
 14 15  1  1
 16 15  1  0
 16 17  2  0
 18 17  1  0
 19 18  2  0
 20 21  2  0
 20 19  1  0
 21 16  1  0
 22 23  2  0
 22 24  1  0
M  END
$$$$
