CCF.pdb
     RDKit          3D

 24 24  0  0  1  0  0  0  0  0999 V2000
   24.9576  -13.7984  -18.3337 N   0  0  0  0  0  0  0  0  0  0  0  0
   24.5696  -13.0811  -17.1327 C   0  0  1  0  0  0  0  0  0  0  0  0
   25.7660  -12.4449  -16.4886 C   0  0  0  0  0  0  0  0  0  0  0  0
   26.8049  -13.7518  -15.7776 S   0  0  0  0  0  0  0  0  0  0  0  0
   23.4612  -12.1498  -17.3882 C   0  0  0  0  0  0  0  0  0  0  0  0
   23.3957  -11.6092  -18.5229 O   0  0  0  0  0  0  0  0  0  0  0  0
   22.4562  -11.8219  -16.4289 N   0  0  0  0  0  0  0  0  0  0  0  0
   21.3408  -10.9760  -16.7009 C   0  0  1  0  0  0  0  0  0  0  0  0
   20.0101  -11.6740  -16.5129 C   0  0  0  0  0  0  0  0  0  0  0  0
   18.6130  -10.5477  -16.5977 S   0  0  0  0  0  0  0  0  0  0  0  0
   21.3818   -9.7108  -15.8896 C   0  0  0  0  0  0  0  0  0  0  0  0
   21.5670   -9.7427  -14.6461 O   0  0  0  0  0  0  0  0  0  0  0  0
   21.2068   -8.4707  -16.5542 N   0  0  0  0  0  0  0  0  0  0  0  0
   21.1851   -7.2493  -15.7487 C   0  0  1  0  0  0  0  0  0  0  0  0
   21.9102   -6.1534  -16.4603 C   0  0  0  0  0  0  0  0  0  0  0  0
   21.7409   -4.8746  -15.7561 C   0  0  0  0  0  0  0  0  0  0  0  0
   22.5473   -4.5934  -14.6734 C   0  0  0  0  0  0  0  0  0  0  0  0
   22.4547   -3.3892  -13.9846 C   0  0  0  0  0  0  0  0  0  0  0  0
   21.5448   -2.4382  -14.3724 C   0  0  0  0  0  0  0  0  0  0  0  0
   20.7349   -2.7105  -15.4533 C   0  0  0  0  0  0  0  0  0  0  0  0
   20.8323   -3.9055  -16.1308 C   0  0  0  0  0  0  0  0  0  0  0  0
   19.7973   -6.8465  -15.4712 C   0  0  0  0  0  0  0  0  0  0  0  0
   18.9202   -7.0403  -16.3548 O   0  0  0  0  0  0  0  0  0  0  0  0
   19.4465   -6.2768  -14.2879 O   0  0  0  0  0  0  0  0  0  0  0  0
  2  1  1  6
  2  5  1  0
  3  2  1  0
  4  3  1  0
  5  6  2  0
  7  8  1  0
  7  5  1  0
  8 11  1  0
  9 10  1  0
  8  9  1  1
 11 12  2  0
 11 13  1  0
 13 14  1  0
 14 22  1  0
 14 15  1  6
 16 15  1  0
 16 17  2  0
 18 17  1  0
 19 18  2  0
 20 21  2  0
 20 19  1  0
 21 16  1  0
 22 23  2  0
 22 24  1  0
M  END
$$$$
