CCF.pdb
     RDKit          3D

 24 24  0  0  1  0  0  0  0  0999 V2000
   18.1079  -13.6000  -17.4920 N   0  0  0  0  0  0  0  0  0  0  0  0
   18.5591  -12.6665  -16.4759 C   0  0  1  0  0  0  0  0  0  0  0  0
   19.9548  -12.9987  -16.0368 C   0  0  0  0  0  0  0  0  0  0  0  0
   19.9038  -14.5164  -15.0434 S   0  0  0  0  0  0  0  0  0  0  0  0
   18.3817  -11.2705  -16.9011 C   0  0  0  0  0  0  0  0  0  0  0  0
   17.9061  -11.0596  -18.0471 O   0  0  0  0  0  0  0  0  0  0  0  0
   18.7157  -10.1412  -16.0943 N   0  0  0  0  0  0  0  0  0  0  0  0
   18.3973   -8.7943  -16.4379 C   0  0  1  0  0  0  0  0  0  0  0  0
   16.9288   -8.5952  -16.7497 C   0  0  0  0  0  0  0  0  0  0  0  0
   16.4932   -6.8685  -16.9860 S   0  0  0  0  0  0  0  0  0  0  0  0
   18.8387   -7.8229  -15.3787 C   0  0  0  0  0  0  0  0  0  0  0  0
   18.3987   -7.9000  -14.2030 O   0  0  0  0  0  0  0  0  0  0  0  0
   19.7667   -6.8099  -15.7291 N   0  0  0  0  0  0  0  0  0  0  0  0
   20.2581   -5.9242  -14.6729 C   0  0  1  0  0  0  0  0  0  0  0  0
   21.7395   -6.0647  -14.5346 C   0  0  0  0  0  0  0  0  0  0  0  0
   22.1096   -7.4676  -14.3012 C   0  0  0  0  0  0  0  0  0  0  0  0
   21.7961   -8.0516  -13.0919 C   0  0  0  0  0  0  0  0  0  0  0  0
   22.0941   -9.3827  -12.8225 C   0  0  0  0  0  0  0  0  0  0  0  0
   22.7165  -10.1578  -13.7682 C   0  0  0  0  0  0  0  0  0  0  0  0
   23.0335   -9.5827  -14.9795 C   0  0  0  0  0  0  0  0  0  0  0  0
   22.7352   -8.2636  -15.2394 C   0  0  0  0  0  0  0  0  0  0  0  0
   19.9039   -4.5279  -14.9731 C   0  0  0  0  0  0  0  0  0  0  0  0
   20.1735   -3.6368  -14.1241 O   0  0  0  0  0  0  0  0  0  0  0  0
   19.2991   -4.1843  -16.1410 O   0  0  0  0  0  0  0  0  0  0  0  0
  2  1  1  6
  2  5  1  0
  3  2  1  0
  4  3  1  0
  5  6  2  0
  7  8  1  0
  7  5  1  0
  8 11  1  0
  9 10  1  0
  8  9  1  1
 11 12  2  0
 11 13  1  0
 13 14  1  0
 14 22  1  0
 14 15  1  6
 16 15  1  0
 16 17  2  0
 18 17  1  0
 19 18  2  0
 20 21  2  0
 20 19  1  0
 21 16  1  0
 22 23  2  0
 22 24  1  0
M  END
$$$$
