DQN.pdb
     RDKit          3D

 26 25  0  0  1  0  0  0  0  0999 V2000
    8.0878  -17.9537   19.5317 N   0  0  0  0  0  0  0  0  0  0  0  0
    8.9090  -19.1083   19.2791 C   0  0  1  0  0  0  0  0  0  0  0  0
    8.7238  -19.4840   17.8247 C   0  0  0  0  0  0  0  0  0  0  0  0
    7.2822  -19.7315   17.5707 C   0  0  0  0  0  0  0  0  0  0  0  0
    6.4382  -18.8181   17.7383 O   0  0  0  0  0  0  0  0  0  0  0  0
   10.3244  -18.7792   19.5817 C   0  0  0  0  0  0  0  0  0  0  0  0
   11.1777  -19.6894   19.5143 O   0  0  0  0  0  0  0  0  0  0  0  0
    6.8199  -20.9658   17.1440 O   0  0  0  0  0  0  0  0  0  0  0  0
   13.8207  -14.0827   17.6488 N   0  0  0  0  0  0  0  0  0  0  0  0
   14.2246  -14.2035   19.0040 C   0  0  0  0  0  0  0  0  0  0  0  0
   14.9318  -13.3079   19.5063 O   0  0  0  0  0  0  0  0  0  0  0  0
   13.8034  -15.3689   19.7694 C   0  0  0  0  0  0  0  0  0  0  0  0
   12.4165  -15.8535   19.5399 C   0  0  0  0  0  0  0  0  0  0  0  0
   12.0396  -17.1136   20.2659 C   0  0  2  0  0  0  0  0  0  0  0  0
   10.6763  -17.4518   19.9377 N   0  0  0  0  0  0  0  0  0  0  0  0
   12.2283  -17.1002   21.7071 C   0  0  0  0  0  0  0  0  0  0  0  0
   13.3087  -16.7733   22.2836 O   0  0  0  0  0  0  0  0  0  0  0  0
    9.2768  -14.8208   23.4075 N   0  0  0  0  0  0  0  0  0  0  0  0
   10.2558  -15.3340   24.3338 C   0  0  0  0  0  0  0  0  0  0  0  0
   11.1098  -14.5214   24.7984 O   0  0  0  0  0  0  0  0  0  0  0  0
   10.2482  -16.7421   24.7112 C   0  0  0  0  0  0  0  0  0  0  0  0
   11.3333  -17.4950   24.0261 C   0  0  2  0  0  0  0  0  0  0  0  0
   11.1632  -17.4702   22.5651 N   0  0  0  0  0  0  0  0  0  0  0  0
   11.4042  -18.8910   24.5097 C   0  0  0  0  0  0  0  0  0  0  0  0
   11.6479  -19.1170   25.8781 O   0  0  0  0  0  0  0  0  0  0  0  0
   11.2581  -19.8833   23.7624 O   0  0  0  0  0  0  0  0  0  0  0  0
  2  1  1  6
  2  3  1  0
  4  3  1  0
  4  8  1  0
  5  4  2  0
  6  7  2  0
  6  2  1  0
  9 10  1  0
 10 12  1  0
 11 10  2  0
 12 13  1  0
 14 13  1  1
 14 15  1  0
 15  6  1  0
 16 14  1  0
 17 16  2  0
 19 20  2  0
 19 18  1  0
 21 19  1  0
 22 21  1  1
 22 23  1  0
 23 16  1  0
 24 22  1  0
 25 24  1  0
 26 24  2  0
M  END
$$$$
