DQN.pdb
     RDKit          3D

 26 25  0  0  1  0  0  0  0  0999 V2000
   10.0755  -18.0419   19.3698 N   0  0  0  0  0  0  0  0  0  0  0  0
   10.5374  -17.8115   20.7132 C   0  0  1  0  0  0  0  0  0  0  0  0
   11.6552  -16.7938   20.6376 C   0  0  0  0  0  0  0  0  0  0  0  0
   12.8457  -17.4305   20.0200 C   0  0  0  0  0  0  0  0  0  0  0  0
   13.1513  -18.6159   20.2962 O   0  0  0  0  0  0  0  0  0  0  0  0
    9.4083  -17.3214   21.5428 C   0  0  0  0  0  0  0  0  0  0  0  0
    8.6609  -16.4372   21.0731 O   0  0  0  0  0  0  0  0  0  0  0  0
   13.6545  -16.7480   19.1260 O   0  0  0  0  0  0  0  0  0  0  0  0
    6.4694  -21.1349   25.2887 N   0  0  0  0  0  0  0  0  0  0  0  0
    6.0170  -20.7277   24.0066 C   0  0  0  0  0  0  0  0  0  0  0  0
    5.2147  -21.4557   23.3892 O   0  0  0  0  0  0  0  0  0  0  0  0
    6.5023  -19.4734   23.4475 C   0  0  0  0  0  0  0  0  0  0  0  0
    7.4776  -18.7087   24.2690 C   0  0  0  0  0  0  0  0  0  0  0  0
    8.0521  -17.4811   23.6210 C   0  0  2  0  0  0  0  0  0  0  0  0
    9.2028  -17.8609   22.8386 N   0  0  0  0  0  0  0  0  0  0  0  0
    8.3834  -16.3836   24.5148 C   0  0  0  0  0  0  0  0  0  0  0  0
    9.4915  -16.2627   25.1181 O   0  0  0  0  0  0  0  0  0  0  0  0
    8.0521  -12.2646   27.5458 N   0  0  0  0  0  0  0  0  0  0  0  0
    6.9177  -12.1814   26.6593 C   0  0  0  0  0  0  0  0  0  0  0  0
    6.1925  -11.1445   26.7263 O   0  0  0  0  0  0  0  0  0  0  0  0
    6.6302  -13.2626   25.7246 C   0  0  0  0  0  0  0  0  0  0  0  0
    7.6958  -14.3007   25.7489 C   0  0  2  0  0  0  0  0  0  0  0  0
    7.4369  -15.3582   24.7596 N   0  0  0  0  0  0  0  0  0  0  0  0
    7.8413  -14.8871   27.0990 C   0  0  0  0  0  0  0  0  0  0  0  0
    8.5986  -14.1872   28.0580 O   0  0  0  0  0  0  0  0  0  0  0  0
    7.3242  -15.9762   27.4324 O   0  0  0  0  0  0  0  0  0  0  0  0
  2  1  1  6
  2  3  1  0
  4  3  1  0
  4  8  1  0
  5  4  2  0
  6  7  2  0
  6  2  1  0
  9 10  1  0
 10 12  1  0
 11 10  2  0
 12 13  1  0
 14 13  1  1
 14 15  1  0
 15  6  1  0
 16 14  1  0
 17 16  2  0
 19 20  2  0
 19 18  1  0
 21 19  1  0
 22 21  1  1
 22 23  1  0
 23 16  1  0
 24 22  1  0
 25 24  1  0
 26 24  2  0
M  END
$$$$
