DQN.pdb
     RDKit          3D

 26 25  0  0  1  0  0  0  0  0999 V2000
    9.4432  -16.4313   14.8568 N   0  0  0  0  0  0  0  0  0  0  0  0
   10.8238  -16.0547   15.0099 C   0  0  1  0  0  0  0  0  0  0  0  0
   11.2261  -15.2986   13.7620 C   0  0  0  0  0  0  0  0  0  0  0  0
   11.2747  -16.2455   12.6195 C   0  0  0  0  0  0  0  0  0  0  0  0
   12.2519  -16.2465   11.8321 O   0  0  0  0  0  0  0  0  0  0  0  0
   10.9718  -15.2176   16.2267 C   0  0  0  0  0  0  0  0  0  0  0  0
   12.0934  -14.7316   16.4854 O   0  0  0  0  0  0  0  0  0  0  0  0
   10.2551  -17.1528   12.3824 O   0  0  0  0  0  0  0  0  0  0  0  0
    6.2020  -14.0457   20.3759 N   0  0  0  0  0  0  0  0  0  0  0  0
    7.3343  -13.4249   20.9646 C   0  0  0  0  0  0  0  0  0  0  0  0
    7.1863  -12.7676   22.0138 O   0  0  0  0  0  0  0  0  0  0  0  0
    8.6359  -13.5714   20.3278 C   0  0  0  0  0  0  0  0  0  0  0  0
    8.6651  -14.2844   19.0232 C   0  0  0  0  0  0  0  0  0  0  0  0
   10.0005  -14.3292   18.3365 C   0  0  2  0  0  0  0  0  0  0  0  0
    9.8487  -14.9885   17.0626 N   0  0  0  0  0  0  0  0  0  0  0  0
   11.0874  -14.9278   19.0937 C   0  0  0  0  0  0  0  0  0  0  0  0
   12.1910  -15.2960   18.5907 O   0  0  0  0  0  0  0  0  0  0  0  0
   14.3110  -14.1932   19.1140 N   0  0  0  0  0  0  0  0  0  0  0  0
   14.2172  -14.9253   20.3529 C   0  0  0  0  0  0  0  0  0  0  0  0
   15.0592  -15.8501   20.5558 O   0  0  0  0  0  0  0  0  0  0  0  0
   13.1827  -14.5989   21.3269 C   0  0  0  0  0  0  0  0  0  0  0  0
   12.0811  -15.5988   21.3065 C   0  0  2  0  0  0  0  0  0  0  0  0
   10.9502  -15.1340   20.4887 N   0  0  0  0  0  0  0  0  0  0  0  0
   11.6246  -15.9205   22.6762 C   0  0  0  0  0  0  0  0  0  0  0  0
   12.5347  -16.5269   23.5633 O   0  0  0  0  0  0  0  0  0  0  0  0
   10.4678  -15.6803   23.0869 O   0  0  0  0  0  0  0  0  0  0  0  0
  2  1  1  6
  2  3  1  0
  4  3  1  0
  4  8  1  0
  5  4  2  0
  6  7  2  0
  6  2  1  0
  9 10  1  0
 10 12  1  0
 11 10  2  0
 12 13  1  0
 14 13  1  1
 14 15  1  0
 15  6  1  0
 16 14  1  0
 17 16  2  0
 19 20  2  0
 19 18  1  0
 21 19  1  0
 22 21  1  1
 22 23  1  0
 23 16  1  0
 24 22  1  0
 25 24  1  0
 26 24  2  0
M  END
$$$$
