DQN.pdb
     RDKit          3D

 26 25  0  0  1  0  0  0  0  0999 V2000
    7.1488  -15.9870   20.6227 N   0  0  0  0  0  0  0  0  0  0  0  0
    8.4327  -15.3701   20.4165 C   0  0  1  0  0  0  0  0  0  0  0  0
    8.2234  -14.1923   19.4892 C   0  0  0  0  0  0  0  0  0  0  0  0
    8.0303  -14.6962   18.1061 C   0  0  0  0  0  0  0  0  0  0  0  0
    7.5703  -15.8461   17.9038 O   0  0  0  0  0  0  0  0  0  0  0  0
    8.9872  -14.9425   21.7252 C   0  0  0  0  0  0  0  0  0  0  0  0
   10.0433  -14.2749   21.7378 O   0  0  0  0  0  0  0  0  0  0  0  0
    8.3468  -13.9248   16.9998 O   0  0  0  0  0  0  0  0  0  0  0  0
    5.6310  -13.1424   26.6327 N   0  0  0  0  0  0  0  0  0  0  0  0
    6.3903  -12.2616   25.8192 C   0  0  0  0  0  0  0  0  0  0  0  0
    6.1383  -11.0408   25.8508 O   0  0  0  0  0  0  0  0  0  0  0  0
    7.4407  -12.8069   24.9703 C   0  0  0  0  0  0  0  0  0  0  0  0
    7.6042  -14.2848   24.9753 C   0  0  0  0  0  0  0  0  0  0  0  0
    8.7779  -14.8118   24.1997 C   0  0  2  0  0  0  0  0  0  0  0  0
    8.3142  -15.2966   22.9228 N   0  0  0  0  0  0  0  0  0  0  0  0
    9.5816  -15.8226   24.8671 C   0  0  0  0  0  0  0  0  0  0  0  0
    9.9749  -15.7440   26.0694 O   0  0  0  0  0  0  0  0  0  0  0  0
   10.7368  -18.8175   27.5196 N   0  0  0  0  0  0  0  0  0  0  0  0
    9.8310  -19.2989   26.5059 C   0  0  0  0  0  0  0  0  0  0  0  0
    8.7174  -19.7688   26.8862 O   0  0  0  0  0  0  0  0  0  0  0  0
   10.2004  -19.2392   25.0969 C   0  0  0  0  0  0  0  0  0  0  0  0
   10.8974  -17.9659   24.7706 C   0  0  2  0  0  0  0  0  0  0  0  0
    9.9766  -16.9898   24.1678 N   0  0  0  0  0  0  0  0  0  0  0  0
   12.0516  -18.2013   23.8760 C   0  0  0  0  0  0  0  0  0  0  0  0
   13.1796  -18.8660   24.3945 O   0  0  0  0  0  0  0  0  0  0  0  0
   12.0761  -17.8386   22.6792 O   0  0  0  0  0  0  0  0  0  0  0  0
  2  1  1  1
  2  3  1  0
  4  3  1  0
  4  8  1  0
  5  4  2  0
  6  7  2  0
  6  2  1  0
  9 10  1  0
 10 12  1  0
 11 10  2  0
 12 13  1  0
 14 13  1  1
 14 15  1  0
 15  6  1  0
 16 14  1  0
 17 16  2  0
 19 20  2  0
 19 18  1  0
 21 19  1  0
 22 21  1  6
 22 23  1  0
 23 16  1  0
 24 22  1  0
 25 24  1  0
 26 24  2  0
M  END
$$$$
