DQN.pdb
     RDKit          3D

 26 25  0  0  1  0  0  0  0  0999 V2000
   12.6634  -16.3530   19.3953 N   0  0  0  0  0  0  0  0  0  0  0  0
   13.1468  -15.0226   19.1352 C   0  0  1  0  0  0  0  0  0  0  0  0
   13.1061  -14.8128   17.6368 C   0  0  0  0  0  0  0  0  0  0  0  0
   14.1566  -15.6497   17.0042 C   0  0  0  0  0  0  0  0  0  0  0  0
   15.2364  -15.8784   17.6014 O   0  0  0  0  0  0  0  0  0  0  0  0
   12.2900  -14.0416   19.8471 C   0  0  0  0  0  0  0  0  0  0  0  0
   12.2261  -12.8737   19.4076 O   0  0  0  0  0  0  0  0  0  0  0  0
   13.9864  -16.2031   15.7457 O   0  0  0  0  0  0  0  0  0  0  0  0
    7.5360  -12.5435   17.7283 N   0  0  0  0  0  0  0  0  0  0  0  0
    7.3108  -13.4766   18.7736 C   0  0  0  0  0  0  0  0  0  0  0  0
    6.4360  -14.3525   18.6242 O   0  0  0  0  0  0  0  0  0  0  0  0
    8.1055  -13.3852   19.9907 C   0  0  0  0  0  0  0  0  0  0  0  0
    9.4789  -13.9524   19.9362 C   0  0  0  0  0  0  0  0  0  0  0  0
   10.2297  -13.9641   21.2374 C   0  0  2  0  0  0  0  0  0  0  0  0
   11.5686  -14.4454   20.9998 N   0  0  0  0  0  0  0  0  0  0  0  0
    9.6088  -14.7013   22.3255 C   0  0  0  0  0  0  0  0  0  0  0  0
    8.4229  -14.5133   22.7312 O   0  0  0  0  0  0  0  0  0  0  0  0
    7.3696  -16.4069   25.5925 N   0  0  0  0  0  0  0  0  0  0  0  0
    7.3103  -16.8887   24.2345 C   0  0  0  0  0  0  0  0  0  0  0  0
    6.1702  -16.9700   23.6876 O   0  0  0  0  0  0  0  0  0  0  0  0
    8.5303  -17.2647   23.5306 C   0  0  0  0  0  0  0  0  0  0  0  0
    9.7108  -16.5267   24.0553 C   0  0  2  0  0  0  0  0  0  0  0  0
   10.3385  -15.7056   23.0085 N   0  0  0  0  0  0  0  0  0  0  0  0
   10.7030  -17.4526   24.6436 C   0  0  0  0  0  0  0  0  0  0  0  0
   11.9404  -17.6154   23.9914 O   0  0  0  0  0  0  0  0  0  0  0  0
   10.4976  -18.0998   25.6941 O   0  0  0  0  0  0  0  0  0  0  0  0
  2  1  1  6
  2  3  1  0
  4  3  1  0
  4  8  1  0
  5  4  2  0
  6  7  2  0
  6  2  1  0
  9 10  1  0
 10 12  1  0
 11 10  2  0
 12 13  1  0
 14 13  1  6
 14 15  1  0
 15  6  1  0
 16 14  1  0
 17 16  2  0
 19 20  2  0
 19 18  1  0
 21 19  1  0
 22 21  1  6
 22 23  1  0
 23 16  1  0
 24 22  1  0
 25 24  1  0
 26 24  2  0
M  END
$$$$
