DQN.pdb
     RDKit          3D

 26 25  0  0  1  0  0  0  0  0999 V2000
   11.4770  -16.3436   15.6105 N   0  0  0  0  0  0  0  0  0  0  0  0
   12.7832  -15.9395   16.0597 C   0  0  1  0  0  0  0  0  0  0  0  0
   13.4586  -15.2321   14.9045 C   0  0  0  0  0  0  0  0  0  0  0  0
   13.3685  -16.0891   13.6956 C   0  0  0  0  0  0  0  0  0  0  0  0
   13.7356  -15.6554   12.5767 O   0  0  0  0  0  0  0  0  0  0  0  0
   12.6426  -15.0482   17.2383 C   0  0  0  0  0  0  0  0  0  0  0  0
   13.6671  -14.5036   17.7018 O   0  0  0  0  0  0  0  0  0  0  0  0
   12.8816  -17.3846   13.7565 O   0  0  0  0  0  0  0  0  0  0  0  0
    7.4446  -11.9200   18.9353 N   0  0  0  0  0  0  0  0  0  0  0  0
    7.4250  -13.3346   18.8228 C   0  0  0  0  0  0  0  0  0  0  0  0
    6.3265  -13.9204   18.7523 O   0  0  0  0  0  0  0  0  0  0  0  0
    8.6863  -14.0623   18.7938 C   0  0  0  0  0  0  0  0  0  0  0  0
    9.9283  -13.2509   18.8942 C   0  0  0  0  0  0  0  0  0  0  0  0
   11.2081  -14.0311   18.9965 C   0  0  2  0  0  0  0  0  0  0  0  0
   11.3614  -14.8349   17.8087 N   0  0  0  0  0  0  0  0  0  0  0  0
   11.3633  -14.8485   20.1885 C   0  0  0  0  0  0  0  0  0  0  0  0
   10.6655  -15.8744   20.4475 O   0  0  0  0  0  0  0  0  0  0  0  0
   12.7408  -16.9651   24.5508 N   0  0  0  0  0  0  0  0  0  0  0  0
   11.4199  -16.7129   24.0298 C   0  0  0  0  0  0  0  0  0  0  0  0
   10.4457  -17.3054   24.5825 O   0  0  0  0  0  0  0  0  0  0  0  0
   11.2307  -15.8047   22.9053 C   0  0  0  0  0  0  0  0  0  0  0  0
   12.5328  -15.3294   22.3646 C   0  0  2  0  0  0  0  0  0  0  0  0
   12.3455  -14.5154   21.1536 N   0  0  0  0  0  0  0  0  0  0  0  0
   13.4418  -16.4622   22.0847 C   0  0  0  0  0  0  0  0  0  0  0  0
   14.7437  -16.4279   22.6203 O   0  0  0  0  0  0  0  0  0  0  0  0
   13.1113  -17.4515   21.3943 O   0  0  0  0  0  0  0  0  0  0  0  0
  2  1  1  6
  2  3  1  0
  4  3  1  0
  4  8  1  0
  5  4  2  0
  6  7  2  0
  6  2  1  0
  9 10  1  0
 10 12  1  0
 11 10  2  0
 12 13  1  0
 14 13  1  6
 14 15  1  0
 15  6  1  0
 16 14  1  0
 17 16  2  0
 19 20  2  0
 19 18  1  0
 21 19  1  0
 22 21  1  6
 22 23  1  0
 23 16  1  0
 24 22  1  0
 25 24  1  0
 26 24  2  0
M  END
$$$$
