NWH.pdb
     RDKit          3D

 33 35  0  0  1  0  0  0  0  0999 V2000
    6.8052  -14.4788   18.9457 N   0  0  0  0  0  0  0  0  0  0  0  0
    7.9716  -15.0869   19.4586 C   0  0  0  0  0  0  0  0  0  0  0  0
    8.5964  -15.9245   18.7747 O   0  0  0  0  0  0  0  0  0  0  0  0
    8.4652  -14.7413   20.8048 C   0  0  0  0  0  0  0  0  0  0  0  0
    9.0044  -16.0055   21.4406 C   0  0  2  0  0  0  0  0  0  0  0  0
    8.1061  -17.1154   21.3770 N   0  0  0  0  0  0  0  0  0  0  0  0
    9.4816  -15.8100   22.8139 C   0  0  0  0  0  0  0  0  0  0  0  0
   10.2779  -14.8715   23.0673 O   0  0  0  0  0  0  0  0  0  0  0  0
    9.0770  -16.6470   23.8832 N   0  0  0  0  0  0  0  0  0  0  0  0
    9.5421  -16.3610   25.2183 C   0  0  1  0  0  0  0  0  0  0  0  0
    8.4501  -16.1665   26.2209 C   0  0  0  0  0  0  0  0  0  0  0  0
    7.4087  -15.2106   25.8385 C   0  0  0  0  0  0  0  0  0  0  0  0
    6.2240  -15.3575   25.1562 C   0  0  0  0  0  0  0  0  0  0  0  0
    5.6162  -14.1483   25.0533 N   0  0  0  0  0  0  0  0  0  0  0  0
    6.3680  -13.2204   25.6465 C   0  0  0  0  0  0  0  0  0  0  0  0
    6.2097  -11.8424   25.8235 C   0  0  0  0  0  0  0  0  0  0  0  0
    7.1545  -11.1046   26.4859 C   0  0  0  0  0  0  0  0  0  0  0  0
    8.2609  -11.7477   26.9728 C   0  0  0  0  0  0  0  0  0  0  0  0
    8.4194  -13.0963   26.8017 C   0  0  0  0  0  0  0  0  0  0  0  0
    7.4825  -13.8619   26.1383 C   0  0  0  0  0  0  0  0  0  0  0  0
   10.3319  -17.5462   25.6797 C   0  0  0  0  0  0  0  0  0  0  0  0
    9.8954  -18.6955   25.4451 O   0  0  0  0  0  0  0  0  0  0  0  0
   11.5607  -17.3964   26.3753 N   0  0  0  0  0  0  0  0  0  0  0  0
   12.2688  -18.5696   26.8094 C   0  0  1  0  0  0  0  0  0  0  0  0
   13.7662  -18.3503   26.8448 C   0  0  0  0  0  0  0  0  0  0  0  0
   14.3274  -17.9946   25.5464 C   0  0  0  0  0  0  0  0  0  0  0  0
   13.6793  -18.1503   24.3438 C   0  0  0  0  0  0  0  0  0  0  0  0
   14.5240  -17.7100   23.3830 N   0  0  0  0  0  0  0  0  0  0  0  0
   15.6613  -17.2907   23.9371 C   0  0  0  0  0  0  0  0  0  0  0  0
   15.5264  -17.4717   25.2673 N   0  0  0  0  0  0  0  0  0  0  0  0
   11.7371  -19.0177   28.1047 C   0  0  0  0  0  0  0  0  0  0  0  0
   12.2368  -20.1613   28.6942 O   0  0  0  0  0  0  0  0  0  0  0  0
   10.8330  -18.3924   28.7052 O   0  0  0  0  0  0  0  0  0  0  0  0
  2  4  1  0
  2  1  1  0
  3  2  2  0
  4  5  1  0
  5  6  1  1
  7  5  1  0
  7  8  2  0
  9  7  1  0
 10  9  1  0
 10 11  1  1
 12 11  1  0
 12 20  1  0
 13 14  1  0
 13 12  2  0
 14 15  1  0
 15 20  2  0
 15 16  1  0
 16 17  2  0
 17 18  1  0
 19 18  2  0
 20 19  1  0
 21 10  1  0
 22 21  2  0
 23 21  1  0
 24 25  1  1
 24 23  1  0
 25 26  1  0
 26 30  1  0
 26 27  2  0
 27 28  1  0
 29 28  1  0
 30 29  2  0
 31 32  1  0
 31 24  1  0
 33 31  2  0
M  END
$$$$
