NWH.pdb
     RDKit          3D

 33 35  0  0  1  0  0  0  0  0999 V2000
    7.5629  -16.6960   18.0511 N   0  0  0  0  0  0  0  0  0  0  0  0
    7.3871  -15.3452   18.4222 C   0  0  0  0  0  0  0  0  0  0  0  0
    6.9362  -14.5209   17.5994 O   0  0  0  0  0  0  0  0  0  0  0  0
    7.7329  -14.8920   19.7825 C   0  0  0  0  0  0  0  0  0  0  0  0
    8.2408  -16.0905   20.5563 C   0  0  2  0  0  0  0  0  0  0  0  0
    7.2115  -16.9893   20.9752 N   0  0  0  0  0  0  0  0  0  0  0  0
    9.1007  -15.7316   21.6893 C   0  0  0  0  0  0  0  0  0  0  0  0
   10.1150  -15.0152   21.4970 O   0  0  0  0  0  0  0  0  0  0  0  0
    8.8325  -16.1649   23.0114 N   0  0  0  0  0  0  0  0  0  0  0  0
    9.7407  -15.8015   24.0713 C   0  0  1  0  0  0  0  0  0  0  0  0
    9.1715  -15.9487   25.4459 C   0  0  0  0  0  0  0  0  0  0  0  0
    7.8827  -15.2893   25.6665 C   0  0  0  0  0  0  0  0  0  0  0  0
    6.5865  -15.7396   25.5789 C   0  0  0  0  0  0  0  0  0  0  0  0
    5.7400  -14.7214   25.8771 N   0  0  0  0  0  0  0  0  0  0  0  0
    6.4445  -13.6241   26.1555 C   0  0  0  0  0  0  0  0  0  0  0  0
    6.0734  -12.3250   26.5166 C   0  0  0  0  0  0  0  0  0  0  0  0
    7.0189  -11.3625   26.7513 C   0  0  0  0  0  0  0  0  0  0  0  0
    8.3396  -11.7007   26.6245 C   0  0  0  0  0  0  0  0  0  0  0  0
    8.7067  -12.9710   26.2713 C   0  0  0  0  0  0  0  0  0  0  0  0
    7.7740  -13.9585   26.0295 C   0  0  0  0  0  0  0  0  0  0  0  0
   10.9099  -16.7337   23.9969 C   0  0  0  0  0  0  0  0  0  0  0  0
   10.7043  -17.9498   23.7849 O   0  0  0  0  0  0  0  0  0  0  0  0
   12.2422  -16.2708   24.1613 N   0  0  0  0  0  0  0  0  0  0  0  0
   13.3302  -17.1992   24.0183 C   0  0  1  0  0  0  0  0  0  0  0  0
   14.5347  -16.5669   23.3544 C   0  0  0  0  0  0  0  0  0  0  0  0
   14.2161  -15.9015   22.0961 C   0  0  0  0  0  0  0  0  0  0  0  0
   13.5203  -16.4777   21.0597 C   0  0  0  0  0  0  0  0  0  0  0  0
   13.4327  -15.5478   20.0809 N   0  0  0  0  0  0  0  0  0  0  0  0
   14.0416  -14.4264   20.4658 C   0  0  0  0  0  0  0  0  0  0  0  0
   14.5186  -14.6584   21.7064 N   0  0  0  0  0  0  0  0  0  0  0  0
   13.6550  -17.7864   25.3264 C   0  0  0  0  0  0  0  0  0  0  0  0
   14.6163  -18.7726   25.4174 O   0  0  0  0  0  0  0  0  0  0  0  0
   13.0843  -17.4213   26.3799 O   0  0  0  0  0  0  0  0  0  0  0  0
  2  4  1  0
  2  1  1  0
  3  2  2  0
  4  5  1  0
  5  6  1  1
  7  5  1  0
  7  8  2  0
  9  7  1  0
 10  9  1  0
 10 11  1  1
 12 11  1  0
 12 20  1  0
 13 14  1  0
 13 12  2  0
 14 15  1  0
 15 20  2  0
 15 16  1  0
 16 17  2  0
 17 18  1  0
 19 18  2  0
 20 19  1  0
 21 10  1  0
 22 21  2  0
 23 21  1  0
 24 25  1  1
 24 23  1  0
 25 26  1  0
 26 30  1  0
 26 27  2  0
 27 28  1  0
 29 28  1  0
 30 29  2  0
 31 32  1  0
 31 24  1  0
 33 31  2  0
M  END
$$$$
