NWH.pdb
     RDKit          3D

 33 35  0  0  1  0  0  0  0  0999 V2000
   10.8238  -18.1273   18.7004 N   0  0  0  0  0  0  0  0  0  0  0  0
   10.9271  -16.7298   18.8726 C   0  0  0  0  0  0  0  0  0  0  0  0
   11.2120  -15.9964   17.9028 O   0  0  0  0  0  0  0  0  0  0  0  0
   10.7003  -16.1205   20.1966 C   0  0  0  0  0  0  0  0  0  0  0  0
   10.4854  -17.2405   21.1927 C   0  0  2  0  0  0  0  0  0  0  0  0
    9.3300  -18.0389   20.9277 N   0  0  0  0  0  0  0  0  0  0  0  0
   10.4873  -16.7883   22.5882 C   0  0  0  0  0  0  0  0  0  0  0  0
   11.4100  -16.0400   22.9977 O   0  0  0  0  0  0  0  0  0  0  0  0
    9.4777  -17.1650   23.5084 N   0  0  0  0  0  0  0  0  0  0  0  0
    9.5205  -16.6477   24.8541 C   0  0  1  0  0  0  0  0  0  0  0  0
    8.1960  -16.1982   25.3821 C   0  0  0  0  0  0  0  0  0  0  0  0
    7.6117  -15.0370   24.7077 C   0  0  0  0  0  0  0  0  0  0  0  0
    7.1067  -14.8606   23.4410 C   0  0  0  0  0  0  0  0  0  0  0  0
    6.6879  -13.5769   23.3032 N   0  0  0  0  0  0  0  0  0  0  0  0
    6.9048  -12.9136   24.4394 C   0  0  0  0  0  0  0  0  0  0  0  0
    6.6641  -11.5916   24.8266 C   0  0  0  0  0  0  0  0  0  0  0  0
    6.9904  -11.1557   26.0832 C   0  0  0  0  0  0  0  0  0  0  0  0
    7.5592  -12.0452   26.9551 C   0  0  0  0  0  0  0  0  0  0  0  0
    7.7963  -13.3398   26.5798 C   0  0  0  0  0  0  0  0  0  0  0  0
    7.4769  -13.8037   25.3202 C   0  0  0  0  0  0  0  0  0  0  0  0
    9.9744  -17.7609   25.7464 C   0  0  0  0  0  0  0  0  0  0  0  0
    9.3623  -18.8521   25.7151 O   0  0  0  0  0  0  0  0  0  0  0  0
   11.0796  -17.6071   26.6245 N   0  0  0  0  0  0  0  0  0  0  0  0
   11.4538  -18.7003   27.4796 C   0  0  1  0  0  0  0  0  0  0  0  0
   12.9461  -18.9532   27.4603 C   0  0  0  0  0  0  0  0  0  0  0  0
   13.4782  -19.1608   26.1182 C   0  0  0  0  0  0  0  0  0  0  0  0
   12.9160  -19.9843   25.1715 C   0  0  0  0  0  0  0  0  0  0  0  0
   13.6977  -19.9069   24.0700 N   0  0  0  0  0  0  0  0  0  0  0  0
   14.7145  -19.0747   24.2937 C   0  0  0  0  0  0  0  0  0  0  0  0
   14.5668  -18.6237   25.5568 N   0  0  0  0  0  0  0  0  0  0  0  0
   10.9428  -18.4638   28.8377 C   0  0  0  0  0  0  0  0  0  0  0  0
   11.1885  -19.3860   29.8347 O   0  0  0  0  0  0  0  0  0  0  0  0
   10.2819  -17.4410   29.1313 O   0  0  0  0  0  0  0  0  0  0  0  0
  2  4  1  0
  2  1  1  0
  3  2  2  0
  4  5  1  0
  5  6  1  6
  7  5  1  0
  7  8  2  0
  9  7  1  0
 10  9  1  0
 10 11  1  1
 12 11  1  0
 12 20  1  0
 13 14  1  0
 13 12  2  0
 14 15  1  0
 15 20  2  0
 15 16  1  0
 16 17  2  0
 17 18  1  0
 19 18  2  0
 20 19  1  0
 21 10  1  0
 22 21  2  0
 23 21  1  0
 24 25  1  1
 24 23  1  0
 25 26  1  0
 26 30  1  0
 26 27  2  0
 27 28  1  0
 29 28  1  0
 30 29  2  0
 31 32  1  0
 31 24  1  0
 33 31  2  0
M  END
$$$$
