NWH.pdb
     RDKit          3D

 33 35  0  0  1  0  0  0  0  0999 V2000
   11.0891  -18.6969   17.4766 N   0  0  0  0  0  0  0  0  0  0  0  0
   12.1738  -17.9042   17.9106 C   0  0  0  0  0  0  0  0  0  0  0  0
   13.2563  -17.9251   17.2880 O   0  0  0  0  0  0  0  0  0  0  0  0
   12.0423  -17.0438   19.1013 C   0  0  0  0  0  0  0  0  0  0  0  0
   10.7517  -17.4140   19.8016 C   0  0  2  0  0  0  0  0  0  0  0  0
    9.5741  -17.0528   19.0766 N   0  0  0  0  0  0  0  0  0  0  0  0
   10.6753  -16.9227   21.1817 C   0  0  0  0  0  0  0  0  0  0  0  0
   11.5681  -16.1535   21.6178 O   0  0  0  0  0  0  0  0  0  0  0  0
    9.6216  -17.2840   22.0575 N   0  0  0  0  0  0  0  0  0  0  0  0
    9.5350  -16.6573   23.3537 C   0  0  1  0  0  0  0  0  0  0  0  0
    8.1436  -16.3108   23.7770 C   0  0  0  0  0  0  0  0  0  0  0  0
    7.7475  -14.9184   23.5554 C   0  0  0  0  0  0  0  0  0  0  0  0
    7.5635  -14.1804   22.4099 C   0  0  0  0  0  0  0  0  0  0  0  0
    7.1999  -12.9171   22.7474 N   0  0  0  0  0  0  0  0  0  0  0  0
    7.1419  -12.8104   24.0753 C   0  0  0  0  0  0  0  0  0  0  0  0
    6.8249  -11.7488   24.9286 C   0  0  0  0  0  0  0  0  0  0  0  0
    6.8425  -11.9095   26.2885 C   0  0  0  0  0  0  0  0  0  0  0  0
    7.1780  -13.1360   26.7963 C   0  0  0  0  0  0  0  0  0  0  0  0
    7.4888  -14.1774   25.9644 C   0  0  0  0  0  0  0  0  0  0  0  0
    7.4785  -14.0416   24.5914 C   0  0  0  0  0  0  0  0  0  0  0  0
   10.0496  -17.6392   24.3599 C   0  0  0  0  0  0  0  0  0  0  0  0
    9.3335  -18.6153   24.6772 O   0  0  0  0  0  0  0  0  0  0  0  0
   11.3275  -17.4884   24.9606 N   0  0  0  0  0  0  0  0  0  0  0  0
   11.4131  -17.0504   26.3270 C   0  0  1  0  0  0  0  0  0  0  0  0
   10.7865  -15.6872   26.5283 C   0  0  0  0  0  0  0  0  0  0  0  0
   10.8655  -15.2144   27.9058 C   0  0  0  0  0  0  0  0  0  0  0  0
   11.3794  -15.9398   28.9546 C   0  0  0  0  0  0  0  0  0  0  0  0
   11.2749  -15.1631   30.0575 N   0  0  0  0  0  0  0  0  0  0  0  0
   10.7212  -13.9938   29.7372 C   0  0  0  0  0  0  0  0  0  0  0  0
   10.4746  -14.0395   28.4114 N   0  0  0  0  0  0  0  0  0  0  0  0
   10.8316  -18.0708   27.2113 C   0  0  0  0  0  0  0  0  0  0  0  0
   10.0333  -19.0646   26.6821 O   0  0  0  0  0  0  0  0  0  0  0  0
   11.0352  -18.0745   28.4473 O   0  0  0  0  0  0  0  0  0  0  0  0
  2  4  1  0
  2  1  1  0
  3  2  2  0
  4  5  1  0
  5  6  1  6
  7  5  1  0
  7  8  2  0
  9  7  1  0
 10  9  1  0
 10 11  1  1
 12 11  1  0
 12 20  1  0
 13 14  1  0
 13 12  2  0
 14 15  1  0
 15 20  2  0
 15 16  1  0
 16 17  2  0
 17 18  1  0
 19 18  2  0
 20 19  1  0
 21 10  1  0
 22 21  2  0
 23 21  1  0
 24 25  1  6
 24 23  1  0
 25 26  1  0
 26 30  1  0
 26 27  2  0
 27 28  1  0
 29 28  1  0
 30 29  2  0
 31 32  1  0
 31 24  1  0
 33 31  2  0
M  END
$$$$
