NWH.pdb
     RDKit          3D

 33 35  0  0  1  0  0  0  0  0999 V2000
    8.1314  -16.9410   18.2127 N   0  0  0  0  0  0  0  0  0  0  0  0
    8.2428  -15.5712   18.5359 C   0  0  0  0  0  0  0  0  0  0  0  0
    8.0444  -14.7011   17.6622 O   0  0  0  0  0  0  0  0  0  0  0  0
    8.5940  -15.1519   19.9057 C   0  0  0  0  0  0  0  0  0  0  0  0
    8.8248  -16.4016   20.7292 C   0  0  2  0  0  0  0  0  0  0  0  0
    7.6893  -17.2666   20.8015 N   0  0  0  0  0  0  0  0  0  0  0  0
    9.3467  -16.1269   22.0723 C   0  0  0  0  0  0  0  0  0  0  0  0
   10.3299  -15.3568   22.2114 O   0  0  0  0  0  0  0  0  0  0  0  0
    8.7810  -16.7016   23.2374 N   0  0  0  0  0  0  0  0  0  0  0  0
    9.3375  -16.3747   24.5273 C   0  0  1  0  0  0  0  0  0  0  0  0
    8.3342  -16.3248   25.6347 C   0  0  0  0  0  0  0  0  0  0  0  0
    7.2541  -15.3514   25.4608 C   0  0  0  0  0  0  0  0  0  0  0  0
    5.9762  -15.4664   24.9664 C   0  0  0  0  0  0  0  0  0  0  0  0
    5.3701  -14.2528   25.0113 N   0  0  0  0  0  0  0  0  0  0  0  0
    6.2132  -13.3529   25.5187 C   0  0  0  0  0  0  0  0  0  0  0  0
    6.0962  -11.9835   25.7768 C   0  0  0  0  0  0  0  0  0  0  0  0
    7.1390  -11.2769   26.3142 C   0  0  0  0  0  0  0  0  0  0  0  0
    8.3023  -11.9424   26.5944 C   0  0  0  0  0  0  0  0  0  0  0  0
    8.4206  -13.2826   26.3433 C   0  0  0  0  0  0  0  0  0  0  0  0
    7.3853  -14.0170   25.8026 C   0  0  0  0  0  0  0  0  0  0  0  0
   10.3056  -17.4595   24.8841 C   0  0  0  0  0  0  0  0  0  0  0  0
   10.1637  -18.5926   24.3720 O   0  0  0  0  0  0  0  0  0  0  0  0
   11.3774  -17.2327   25.7875 N   0  0  0  0  0  0  0  0  0  0  0  0
   12.2549  -18.3209   26.1224 C   0  0  1  0  0  0  0  0  0  0  0  0
   13.7091  -17.9003   26.1225 C   0  0  0  0  0  0  0  0  0  0  0  0
   14.6219  -18.9823   26.4740 C   0  0  0  0  0  0  0  0  0  0  0  0
   14.2369  -20.2725   26.7522 C   0  0  0  0  0  0  0  0  0  0  0  0
   15.3641  -20.9670   27.0308 N   0  0  0  0  0  0  0  0  0  0  0  0
   16.4247  -20.1654   26.9373 C   0  0  0  0  0  0  0  0  0  0  0  0
   15.9535  -18.9484   26.5945 N   0  0  0  0  0  0  0  0  0  0  0  0
   11.8426  -18.9131   27.4033 C   0  0  0  0  0  0  0  0  0  0  0  0
   12.4871  -20.0366   27.8801 O   0  0  0  0  0  0  0  0  0  0  0  0
   10.9136  -18.4304   28.0912 O   0  0  0  0  0  0  0  0  0  0  0  0
  2  4  1  0
  2  1  1  0
  3  2  2  0
  4  5  1  0
  5  6  1  1
  7  5  1  0
  7  8  2  0
  9  7  1  0
 10  9  1  0
 10 11  1  1
 12 11  1  0
 12 20  1  0
 13 14  1  0
 13 12  2  0
 14 15  1  0
 15 20  2  0
 15 16  1  0
 16 17  2  0
 17 18  1  0
 19 18  2  0
 20 19  1  0
 21 10  1  0
 22 21  2  0
 23 21  1  0
 24 25  1  1
 24 23  1  0
 25 26  1  0
 26 30  1  0
 26 27  2  0
 27 28  1  0
 29 28  1  0
 30 29  2  0
 31 32  1  0
 31 24  1  0
 33 31  2  0
M  END
$$$$
