NWH.pdb
     RDKit          3D

 33 35  0  0  1  0  0  0  0  0999 V2000
   10.3156  -20.3727   18.5471 N   0  0  0  0  0  0  0  0  0  0  0  0
   10.9504  -19.1122   18.5876 C   0  0  0  0  0  0  0  0  0  0  0  0
   11.4681  -18.6358   17.5557 O   0  0  0  0  0  0  0  0  0  0  0  0
   11.0097  -18.3446   19.8456 C   0  0  0  0  0  0  0  0  0  0  0  0
    9.9567  -17.2586   19.7773 C   0  0  2  0  0  0  0  0  0  0  0  0
   10.1727  -16.3060   18.7339 N   0  0  0  0  0  0  0  0  0  0  0  0
    9.7384  -16.5765   21.0575 C   0  0  0  0  0  0  0  0  0  0  0  0
   10.5868  -15.7477   21.4726 O   0  0  0  0  0  0  0  0  0  0  0  0
    8.5942  -16.8158   21.8583 N   0  0  0  0  0  0  0  0  0  0  0  0
    8.4737  -16.1523   23.1333 C   0  0  1  0  0  0  0  0  0  0  0  0
    7.0678  -16.0111   23.6221 C   0  0  0  0  0  0  0  0  0  0  0  0
    6.9222  -15.4277   24.9574 C   0  0  0  0  0  0  0  0  0  0  0  0
    6.6444  -15.9833   26.1841 C   0  0  0  0  0  0  0  0  0  0  0  0
    6.6088  -15.0013   27.1203 N   0  0  0  0  0  0  0  0  0  0  0  0
    6.8545  -13.8255   26.5414 C   0  0  0  0  0  0  0  0  0  0  0  0
    6.9331  -12.5211   27.0394 C   0  0  0  0  0  0  0  0  0  0  0  0
    7.2054  -11.4661   26.2097 C   0  0  0  0  0  0  0  0  0  0  0  0
    7.3996  -11.7169   24.8778 C   0  0  0  0  0  0  0  0  0  0  0  0
    7.3235  -12.9920   24.3866 C   0  0  0  0  0  0  0  0  0  0  0  0
    7.0508  -14.0718   25.2012 C   0  0  0  0  0  0  0  0  0  0  0  0
    9.1891  -16.9936   24.1441 C   0  0  0  0  0  0  0  0  0  0  0  0
    8.9494  -18.2211   24.1915 O   0  0  0  0  0  0  0  0  0  0  0  0
   10.1300  -16.4322   25.0474 N   0  0  0  0  0  0  0  0  0  0  0  0
   10.8068  -17.2919   25.9797 C   0  0  1  0  0  0  0  0  0  0  0  0
   12.3122  -17.1742   25.8731 C   0  0  0  0  0  0  0  0  0  0  0  0
   12.8168  -17.4336   24.5294 C   0  0  0  0  0  0  0  0  0  0  0  0
   12.8221  -18.6655   23.9190 C   0  0  0  0  0  0  0  0  0  0  0  0
   13.3662  -18.4933   22.6922 N   0  0  0  0  0  0  0  0  0  0  0  0
   13.6962  -17.2137   22.5187 C   0  0  0  0  0  0  0  0  0  0  0  0
   13.3529  -16.5741   23.6560 N   0  0  0  0  0  0  0  0  0  0  0  0
   10.3188  -17.0276   27.3410 C   0  0  0  0  0  0  0  0  0  0  0  0
   10.8277  -17.7448   28.4049 O   0  0  0  0  0  0  0  0  0  0  0  0
    9.4445  -16.1625   27.5783 O   0  0  0  0  0  0  0  0  0  0  0  0
  2  4  1  0
  2  1  1  0
  3  2  2  0
  4  5  1  0
  5  6  1  6
  7  5  1  0
  7  8  2  0
  9  7  1  0
 10  9  1  0
 10 11  1  1
 12 11  1  0
 12 20  1  0
 13 14  1  0
 13 12  2  0
 14 15  1  0
 15 20  2  0
 15 16  1  0
 16 17  2  0
 17 18  1  0
 19 18  2  0
 20 19  1  0
 21 10  1  0
 22 21  2  0
 23 21  1  0
 24 25  1  1
 24 23  1  0
 25 26  1  0
 26 30  1  0
 26 27  2  0
 27 28  1  0
 29 28  1  0
 30 29  2  0
 31 32  1  0
 31 24  1  0
 33 31  2  0
M  END
$$$$
