NWH.pdb
     RDKit          3D

 33 35  0  0  1  0  0  0  0  0999 V2000
   11.4803  -18.5710   17.7013 N   0  0  0  0  0  0  0  0  0  0  0  0
   12.1438  -17.3604   17.9968 C   0  0  0  0  0  0  0  0  0  0  0  0
   12.9847  -16.8938   17.2000 O   0  0  0  0  0  0  0  0  0  0  0  0
   11.8528  -16.6337   19.2469 C   0  0  0  0  0  0  0  0  0  0  0  0
   10.6858  -17.3220   19.9233 C   0  0  2  0  0  0  0  0  0  0  0  0
    9.5121  -17.4057   19.1120 N   0  0  0  0  0  0  0  0  0  0  0  0
   10.3608  -16.7609   21.2392 C   0  0  0  0  0  0  0  0  0  0  0  0
   11.2843  -16.3434   21.9820 O   0  0  0  0  0  0  0  0  0  0  0  0
    9.0296  -16.6681   21.7158 N   0  0  0  0  0  0  0  0  0  0  0  0
    8.7822  -16.0783   23.0086 C   0  0  1  0  0  0  0  0  0  0  0  0
    7.3462  -15.7565   23.2725 C   0  0  0  0  0  0  0  0  0  0  0  0
    7.0658  -15.1606   24.5805 C   0  0  0  0  0  0  0  0  0  0  0  0
    6.5216  -15.6752   25.7337 C   0  0  0  0  0  0  0  0  0  0  0  0
    6.4665  -14.6986   26.6747 N   0  0  0  0  0  0  0  0  0  0  0  0
    6.9572  -13.5661   26.1700 C   0  0  0  0  0  0  0  0  0  0  0  0
    7.1276  -12.2851   26.7044 C   0  0  0  0  0  0  0  0  0  0  0  0
    7.6687  -11.2755   25.9537 C   0  0  0  0  0  0  0  0  0  0  0  0
    8.0406  -11.5485   24.6645 C   0  0  0  0  0  0  0  0  0  0  0  0
    7.8755  -12.8009   24.1380 C   0  0  0  0  0  0  0  0  0  0  0  0
    7.3330  -13.8349   24.8731 C   0  0  0  0  0  0  0  0  0  0  0  0
    9.1861  -17.0829   24.0425 C   0  0  0  0  0  0  0  0  0  0  0  0
    8.6723  -18.2237   24.0141 O   0  0  0  0  0  0  0  0  0  0  0  0
   10.1357  -16.7715   25.0514 N   0  0  0  0  0  0  0  0  0  0  0  0
   10.5703  -17.8065   25.9492 C   0  0  1  0  0  0  0  0  0  0  0  0
   12.0793  -17.9086   26.0124 C   0  0  0  0  0  0  0  0  0  0  0  0
   12.6768  -18.3897   24.7718 C   0  0  0  0  0  0  0  0  0  0  0  0
   11.9912  -19.0392   23.7726 C   0  0  0  0  0  0  0  0  0  0  0  0
   12.8886  -19.3212   22.8002 N   0  0  0  0  0  0  0  0  0  0  0  0
   14.0941  -18.8760   23.1534 C   0  0  0  0  0  0  0  0  0  0  0  0
   13.9490  -18.3058   24.3676 N   0  0  0  0  0  0  0  0  0  0  0  0
    9.9666  -17.5987   27.2735 C   0  0  0  0  0  0  0  0  0  0  0  0
    9.1547  -16.5047   27.4947 O   0  0  0  0  0  0  0  0  0  0  0  0
   10.1629  -18.3886   28.2257 O   0  0  0  0  0  0  0  0  0  0  0  0
  2  4  1  0
  2  1  1  0
  3  2  2  0
  4  5  1  0
  5  6  1  6
  7  5  1  0
  7  8  2  0
  9  7  1  0
 10  9  1  0
 10 11  1  6
 12 11  1  0
 12 20  1  0
 13 14  1  0
 13 12  2  0
 14 15  1  0
 15 20  2  0
 15 16  1  0
 16 17  2  0
 17 18  1  0
 19 18  2  0
 20 19  1  0
 21 10  1  0
 22 21  2  0
 23 21  1  0
 24 25  1  1
 24 23  1  0
 25 26  1  0
 26 30  1  0
 26 27  2  0
 27 28  1  0
 29 28  1  0
 30 29  2  0
 31 32  1  0
 31 24  1  0
 33 31  2  0
M  END
$$$$
