NWH.pdb
     RDKit          3D

 33 35  0  0  1  0  0  0  0  0999 V2000
   10.5331  -18.4502   19.1196 N   0  0  0  0  0  0  0  0  0  0  0  0
   11.7528  -18.4546   19.8307 C   0  0  0  0  0  0  0  0  0  0  0  0
   12.7261  -19.1113   19.4049 O   0  0  0  0  0  0  0  0  0  0  0  0
   11.8922  -17.6859   21.0817 C   0  0  0  0  0  0  0  0  0  0  0  0
   10.5381  -17.0977   21.4187 C   0  0  2  0  0  0  0  0  0  0  0  0
   10.1016  -16.0869   20.5075 N   0  0  0  0  0  0  0  0  0  0  0  0
   10.4379  -16.6193   22.8018 C   0  0  0  0  0  0  0  0  0  0  0  0
   11.1049  -15.6173   23.1626 O   0  0  0  0  0  0  0  0  0  0  0  0
    9.6086  -17.2484   23.7632 N   0  0  0  0  0  0  0  0  0  0  0  0
    9.5209  -16.6930   25.0914 C   0  0  1  0  0  0  0  0  0  0  0  0
    8.1439  -16.2687   25.4904 C   0  0  0  0  0  0  0  0  0  0  0  0
    7.6238  -15.0890   24.7961 C   0  0  0  0  0  0  0  0  0  0  0  0
    7.2571  -14.8722   23.4888 C   0  0  0  0  0  0  0  0  0  0  0  0
    6.8419  -13.5874   23.3496 N   0  0  0  0  0  0  0  0  0  0  0  0
    6.9273  -12.9625   24.5245 C   0  0  0  0  0  0  0  0  0  0  0  0
    6.6317  -11.6565   24.9277 C   0  0  0  0  0  0  0  0  0  0  0  0
    6.8152  -11.2623   26.2263 C   0  0  0  0  0  0  0  0  0  0  0  0
    7.2957  -12.1775   27.1243 C   0  0  0  0  0  0  0  0  0  0  0  0
    7.5861  -13.4566   26.7335 C   0  0  0  0  0  0  0  0  0  0  0  0
    7.4101  -13.8787   25.4317 C   0  0  0  0  0  0  0  0  0  0  0  0
    9.9263  -17.7670   26.0524 C   0  0  0  0  0  0  0  0  0  0  0  0
    9.2660  -18.8295   26.0895 O   0  0  0  0  0  0  0  0  0  0  0  0
   11.0391  -17.6078   26.9200 N   0  0  0  0  0  0  0  0  0  0  0  0
   11.3622  -18.6581   27.8467 C   0  0  1  0  0  0  0  0  0  0  0  0
   12.8537  -18.7749   28.0776 C   0  0  0  0  0  0  0  0  0  0  0  0
   13.5985  -19.1172   26.8712 C   0  0  0  0  0  0  0  0  0  0  0  0
   13.0296  -19.3766   25.6466 C   0  0  0  0  0  0  0  0  0  0  0  0
   14.0430  -19.6522   24.7936 N   0  0  0  0  0  0  0  0  0  0  0  0
   15.2087  -19.5747   25.4350 C   0  0  0  0  0  0  0  0  0  0  0  0
   14.9201  -19.2452   26.7112 N   0  0  0  0  0  0  0  0  0  0  0  0
   10.6150  -18.4617   29.0975 C   0  0  0  0  0  0  0  0  0  0  0  0
   10.7372  -19.3783   30.1222 O   0  0  0  0  0  0  0  0  0  0  0  0
    9.8588  -17.4788   29.2736 O   0  0  0  0  0  0  0  0  0  0  0  0
  2  4  1  0
  2  1  1  0
  3  2  2  0
  4  5  1  0
  5  6  1  6
  7  5  1  0
  7  8  2  0
  9  7  1  0
 10  9  1  0
 10 11  1  1
 12 11  1  0
 12 20  1  0
 13 14  1  0
 13 12  2  0
 14 15  1  0
 15 20  2  0
 15 16  1  0
 16 17  2  0
 17 18  1  0
 19 18  2  0
 20 19  1  0
 21 10  1  0
 22 21  2  0
 23 21  1  0
 24 25  1  1
 24 23  1  0
 25 26  1  0
 26 30  1  0
 26 27  2  0
 27 28  1  0
 29 28  1  0
 30 29  2  0
 31 32  1  0
 31 24  1  0
 33 31  2  0
M  END
$$$$
