FDN.pdb
     RDKit          3D

 28 28  0  0  1  0  0  0  0  0999 V2000
   23.2484  -32.2609   -1.8379 N   0  0  0  0  0  0  0  0  0  0  0  0
   24.4575  -32.7746   -1.2522 C   0  0  1  0  0  0  0  0  0  0  0  0
   25.5708  -31.8235   -1.6385 C   0  0  0  0  0  0  0  0  0  0  0  0
   25.8486  -32.0862   -3.0887 C   0  0  0  0  0  0  0  0  0  0  0  0
   26.7685  -33.0476   -3.4499 C   0  0  0  0  0  0  0  0  0  0  0  0
   27.0588  -33.3348   -4.7854 C   0  0  0  0  0  0  0  0  0  0  0  0
   26.4063  -32.6369   -5.7716 C   0  0  0  0  0  0  0  0  0  0  0  0
   25.4865  -31.6756   -5.4088 C   0  0  0  0  0  0  0  0  0  0  0  0
   25.2036  -31.3959   -4.0843 C   0  0  0  0  0  0  0  0  0  0  0  0
   24.3470  -32.8380    0.2595 C   0  0  0  0  0  0  0  0  0  0  0  0
   23.6518  -31.9642    0.7987 O   0  0  0  0  0  0  0  0  0  0  0  0
   24.9913  -33.8250    0.9981 N   0  0  0  0  0  0  0  0  0  0  0  0
   25.0202  -33.9980    2.3972 C   0  0  1  0  0  0  0  0  0  0  0  0
   23.8169  -34.6509    3.0442 C   0  0  0  0  0  0  0  0  0  0  0  0
   23.7784  -34.4992    4.5174 C   0  0  0  0  0  0  0  0  0  0  0  0
   24.1735  -35.3333    5.3413 O   0  0  0  0  0  0  0  0  0  0  0  0
   26.2707  -34.4237    2.9941 C   0  0  0  0  0  0  0  0  0  0  0  0
   26.6168  -35.6601    2.8929 O   0  0  0  0  0  0  0  0  0  0  0  0
   23.2419  -33.2935    4.9842 O   0  0  0  0  0  0  0  0  0  0  0  0
   29.0164  -30.6832    5.3310 N   0  0  0  0  0  0  0  0  0  0  0  0
   29.3681  -31.9709    4.7644 C   0  0  0  0  0  0  0  0  0  0  0  0
   30.0888  -31.8858    3.7412 O   0  0  0  0  0  0  0  0  0  0  0  0
   28.8898  -33.2156    5.3819 C   0  0  0  0  0  0  0  0  0  0  0  0
   28.4059  -34.1845    4.3352 C   0  0  2  0  0  0  0  0  0  0  0  0
   27.1872  -33.6124    3.6993 N   0  0  0  0  0  0  0  0  0  0  0  0
   28.0540  -35.5237    4.8855 C   0  0  0  0  0  0  0  0  0  0  0  0
   26.9729  -35.8596    5.3832 O   0  0  0  0  0  0  0  0  0  0  0  0
   29.0410  -36.5267    4.8452 O   0  0  0  0  0  0  0  0  0  0  0  0
  2  1  1  6
  2  3  1  0
  2 10  1  0
  4  9  2  0
  4  3  1  0
  5  4  1  0
  6  7  1  0
  6  5  2  0
  7  8  2  0
  8  9  1  0
 10 11  2  0
 12 10  1  0
 12 13  1  0
 13 14  1  6
 14 15  1  0
 15 19  1  0
 15 16  2  0
 17 13  1  0
 17 18  2  0
 20 21  1  0
 21 23  1  0
 21 22  2  0
 24 23  1  1
 24 25  1  0
 25 17  1  0
 26 24  1  0
 26 28  1  0
 27 26  2  0
M  END
$$$$
