FDN.pdb
     RDKit          3D

 28 28  0  0  1  0  0  0  0  0999 V2000
   17.7508  -10.3536  -13.2374 N   0  0  0  0  0  0  0  0  0  0  0  0
   18.5402   -9.7613  -14.2838 C   0  0  1  0  0  0  0  0  0  0  0  0
   17.6629   -9.7048  -15.5168 C   0  0  0  0  0  0  0  0  0  0  0  0
   17.4418  -11.1302  -15.9273 C   0  0  0  0  0  0  0  0  0  0  0  0
   16.1586  -11.6114  -16.0791 C   0  0  0  0  0  0  0  0  0  0  0  0
   15.8988  -12.9280  -16.4654 C   0  0  0  0  0  0  0  0  0  0  0  0
   16.9562  -13.7714  -16.7023 C   0  0  0  0  0  0  0  0  0  0  0  0
   18.2390  -13.2887  -16.5500 C   0  0  0  0  0  0  0  0  0  0  0  0
   18.4896  -11.9837  -16.1671 C   0  0  0  0  0  0  0  0  0  0  0  0
   18.9781   -8.3580  -13.9088 C   0  0  0  0  0  0  0  0  0  0  0  0
   18.2741   -7.7640  -13.0788 O   0  0  0  0  0  0  0  0  0  0  0  0
   20.1096   -7.7724  -14.4671 N   0  0  0  0  0  0  0  0  0  0  0  0
   20.5666   -6.4447  -14.3382 C   0  0  1  0  0  0  0  0  0  0  0  0
   22.0640   -6.2195  -14.3371 C   0  0  0  0  0  0  0  0  0  0  0  0
   22.4534   -4.8115  -14.0909 C   0  0  0  0  0  0  0  0  0  0  0  0
   23.1025   -4.0947  -14.8627 O   0  0  0  0  0  0  0  0  0  0  0  0
   19.8511   -5.4160  -15.0669 C   0  0  0  0  0  0  0  0  0  0  0  0
   19.7576   -5.5147  -16.3476 O   0  0  0  0  0  0  0  0  0  0  0  0
   22.0333   -4.2761  -12.8677 O   0  0  0  0  0  0  0  0  0  0  0  0
   15.6414   -2.6785  -17.1467 N   0  0  0  0  0  0  0  0  0  0  0  0
   16.2770   -2.4143  -15.8703 C   0  0  0  0  0  0  0  0  0  0  0  0
   16.1079   -1.2403  -15.4621 O   0  0  0  0  0  0  0  0  0  0  0  0
   17.0316   -3.4683  -15.1781 C   0  0  0  0  0  0  0  0  0  0  0  0
   18.5137   -3.2873  -15.3755 C   0  0  2  0  0  0  0  0  0  0  0  0
   19.2219   -4.2769  -14.5174 N   0  0  0  0  0  0  0  0  0  0  0  0
   18.9983   -1.9272  -15.0076 C   0  0  0  0  0  0  0  0  0  0  0  0
   19.0194   -0.9265  -15.7338 O   0  0  0  0  0  0  0  0  0  0  0  0
   19.4885   -1.7393  -13.7013 O   0  0  0  0  0  0  0  0  0  0  0  0
  2  1  1  1
  2  3  1  0
  2 10  1  0
  4  9  2  0
  4  3  1  0
  5  4  1  0
  6  7  1  0
  6  5  2  0
  7  8  2  0
  8  9  1  0
 10 11  2  0
 12 10  1  0
 12 13  1  0
 13 14  1  6
 14 15  1  0
 15 19  1  0
 15 16  2  0
 17 13  1  0
 17 18  2  0
 20 21  1  0
 21 23  1  0
 21 22  2  0
 24 23  1  1
 24 25  1  0
 25 17  1  0
 26 24  1  0
 26 28  1  0
 27 26  2  0
M  END
$$$$
