FDN.pdb
     RDKit          3D

 28 28  0  0  1  0  0  0  0  0999 V2000
   28.5415  -19.1075  -13.0309 N   0  0  0  0  0  0  0  0  0  0  0  0
   27.9206  -20.3327  -13.4579 C   0  0  1  0  0  0  0  0  0  0  0  0
   27.6553  -21.1483  -12.2098 C   0  0  0  0  0  0  0  0  0  0  0  0
   28.9959  -21.3762  -11.5773 C   0  0  0  0  0  0  0  0  0  0  0  0
   30.0111  -21.9577  -12.3069 C   0  0  0  0  0  0  0  0  0  0  0  0
   31.2786  -22.1860  -11.7670 C   0  0  0  0  0  0  0  0  0  0  0  0
   31.5223  -21.8188  -10.4664 C   0  0  0  0  0  0  0  0  0  0  0  0
   30.5059  -21.2374   -9.7380 C   0  0  0  0  0  0  0  0  0  0  0  0
   29.2528  -21.0141  -10.2785 C   0  0  0  0  0  0  0  0  0  0  0  0
   26.6107  -20.0600  -14.1729 C   0  0  0  0  0  0  0  0  0  0  0  0
   25.9717  -19.0673  -13.7935 O   0  0  0  0  0  0  0  0  0  0  0  0
   26.1541  -20.8806  -15.1990 N   0  0  0  0  0  0  0  0  0  0  0  0
   24.8923  -20.8816  -15.8283 C   0  0  1  0  0  0  0  0  0  0  0  0
   24.8362  -21.3156  -17.2779 C   0  0  0  0  0  0  0  0  0  0  0  0
   23.5291  -21.0576  -17.9257 C   0  0  0  0  0  0  0  0  0  0  0  0
   22.6984  -21.9165  -18.2465 O   0  0  0  0  0  0  0  0  0  0  0  0
   23.7610  -21.3632  -15.0605 C   0  0  0  0  0  0  0  0  0  0  0  0
   23.9045  -22.4234  -14.3435 O   0  0  0  0  0  0  0  0  0  0  0  0
   23.2403  -19.7123  -18.1829 O   0  0  0  0  0  0  0  0  0  0  0  0
   21.7678  -19.9712  -10.2543 N   0  0  0  0  0  0  0  0  0  0  0  0
   21.6325  -20.8994  -11.3603 C   0  0  0  0  0  0  0  0  0  0  0  0
   20.7909  -21.8057  -11.1509 O   0  0  0  0  0  0  0  0  0  0  0  0
   22.4369  -20.7334  -12.5788 C   0  0  0  0  0  0  0  0  0  0  0  0
   21.5975  -20.9466  -13.8111 C   0  0  2  0  0  0  0  0  0  0  0  0
   22.4732  -20.7854  -15.0045 N   0  0  0  0  0  0  0  0  0  0  0  0
   20.4690  -19.9814  -13.9331 C   0  0  0  0  0  0  0  0  0  0  0  0
   20.4016  -19.0129  -14.6992 O   0  0  0  0  0  0  0  0  0  0  0  0
   19.3521  -20.1728  -13.0977 O   0  0  0  0  0  0  0  0  0  0  0  0
  2  1  1  1
  2  3  1  0
  2 10  1  0
  4  9  2  0
  4  3  1  0
  5  4  1  0
  6  7  1  0
  6  5  2  0
  7  8  2  0
  8  9  1  0
 10 11  2  0
 12 10  1  0
 12 13  1  0
 13 14  1  6
 14 15  1  0
 15 19  1  0
 15 16  2  0
 17 13  1  0
 17 18  2  0
 20 21  1  0
 21 23  1  0
 21 22  2  0
 24 23  1  1
 24 25  1  0
 25 17  1  0
 26 24  1  0
 26 28  1  0
 27 26  2  0
M  END
$$$$
