FDN.pdb
     RDKit          3D

 28 28  0  0  1  0  0  0  0  0999 V2000
   24.3212  -13.5461  -18.4562 N   0  0  0  0  0  0  0  0  0  0  0  0
   24.0440  -12.6228  -17.3887 C   0  0  1  0  0  0  0  0  0  0  0  0
   25.1847  -11.6271  -17.3625 C   0  0  0  0  0  0  0  0  0  0  0  0
   26.4000  -12.4075  -16.9584 C   0  0  0  0  0  0  0  0  0  0  0  0
   27.4385  -12.5742  -17.8499 C   0  0  0  0  0  0  0  0  0  0  0  0
   28.5939  -13.2863  -17.5212 C   0  0  0  0  0  0  0  0  0  0  0  0
   28.6995  -13.8387  -16.2685 C   0  0  0  0  0  0  0  0  0  0  0  0
   27.6600  -13.6712  -15.3780 C   0  0  0  0  0  0  0  0  0  0  0  0
   26.5183  -12.9648  -15.7097 C   0  0  0  0  0  0  0  0  0  0  0  0
   22.7372  -11.8901  -17.6269 C   0  0  0  0  0  0  0  0  0  0  0  0
   22.4341  -11.6735  -18.8095 O   0  0  0  0  0  0  0  0  0  0  0  0
   21.9244  -11.4852  -16.5732 N   0  0  0  0  0  0  0  0  0  0  0  0
   20.6866  -10.8119  -16.6264 C   0  0  1  0  0  0  0  0  0  0  0  0
   19.5822  -11.3099  -15.7179 C   0  0  0  0  0  0  0  0  0  0  0  0
   18.2745  -10.6565  -15.9584 C   0  0  0  0  0  0  0  0  0  0  0  0
   17.6487  -10.6610  -17.0256 O   0  0  0  0  0  0  0  0  0  0  0  0
   20.7139   -9.3661  -16.7258 C   0  0  0  0  0  0  0  0  0  0  0  0
   21.5831   -8.8141  -17.4995 O   0  0  0  0  0  0  0  0  0  0  0  0
   17.7269   -9.9839  -14.8597 O   0  0  0  0  0  0  0  0  0  0  0  0
   18.0860   -4.3036  -17.5541 N   0  0  0  0  0  0  0  0  0  0  0  0
   18.6513   -4.9360  -16.3779 C   0  0  0  0  0  0  0  0  0  0  0  0
   19.1563   -4.1222  -15.5678 O   0  0  0  0  0  0  0  0  0  0  0  0
   18.6022   -6.3958  -16.2170 C   0  0  0  0  0  0  0  0  0  0  0  0
   19.9868   -6.9875  -16.2470 C   0  0  2  0  0  0  0  0  0  0  0  0
   19.8688   -8.4586  -16.0492 N   0  0  0  0  0  0  0  0  0  0  0  0
   20.8837   -6.4498  -15.1856 C   0  0  0  0  0  0  0  0  0  0  0  0
   20.7958   -6.6516  -13.9687 O   0  0  0  0  0  0  0  0  0  0  0  0
   21.9492   -5.6223  -15.5878 O   0  0  0  0  0  0  0  0  0  0  0  0
  2  1  1  6
  2  3  1  0
  2 10  1  0
  4  9  2  0
  4  3  1  0
  5  4  1  0
  6  7  1  0
  6  5  2  0
  7  8  2  0
  8  9  1  0
 10 11  2  0
 12 10  1  0
 12 13  1  0
 13 14  1  1
 14 15  1  0
 15 19  1  0
 15 16  2  0
 17 13  1  0
 17 18  2  0
 20 21  1  0
 21 23  1  0
 21 22  2  0
 24 23  1  1
 24 25  1  0
 25 17  1  0
 26 24  1  0
 26 28  1  0
 27 26  2  0
M  END
$$$$
