FDN.pdb
     RDKit          3D

 28 28  0  0  1  0  0  0  0  0999 V2000
   26.9340  -11.6290  -16.5592 N   0  0  0  0  0  0  0  0  0  0  0  0
   26.4627  -10.2706  -16.5969 C   0  0  1  0  0  0  0  0  0  0  0  0
   26.7830   -9.7332  -17.9760 C   0  0  0  0  0  0  0  0  0  0  0  0
   28.2798   -9.6952  -18.0629 C   0  0  0  0  0  0  0  0  0  0  0  0
   28.9670   -8.5863  -17.6166 C   0  0  0  0  0  0  0  0  0  0  0  0
   30.3600   -8.5034  -17.6696 C   0  0  0  0  0  0  0  0  0  0  0  0
   31.0690   -9.5614  -18.1829 C   0  0  0  0  0  0  0  0  0  0  0  0
   30.3803  -10.6697  -18.6290 C   0  0  0  0  0  0  0  0  0  0  0  0
   29.0006  -10.7455  -18.5738 C   0  0  0  0  0  0  0  0  0  0  0  0
   24.9652  -10.2062  -16.3632 C   0  0  0  0  0  0  0  0  0  0  0  0
   24.2889  -11.1150  -16.8673 O   0  0  0  0  0  0  0  0  0  0  0  0
   24.3851   -9.1819  -15.6221 N   0  0  0  0  0  0  0  0  0  0  0  0
   23.0177   -8.9387  -15.3788 C   0  0  1  0  0  0  0  0  0  0  0  0
   22.4352   -9.4651  -14.0840 C   0  0  0  0  0  0  0  0  0  0  0  0
   20.9610   -9.3429  -14.0021 C   0  0  0  0  0  0  0  0  0  0  0  0
   20.1566   -9.6883  -14.8763 O   0  0  0  0  0  0  0  0  0  0  0  0
   22.4962   -7.6330  -15.7318 C   0  0  0  0  0  0  0  0  0  0  0  0
   22.9715   -6.5941  -15.1374 O   0  0  0  0  0  0  0  0  0  0  0  0
   20.4686   -8.7835  -12.8172 O   0  0  0  0  0  0  0  0  0  0  0  0
   19.5472   -4.2143  -19.9936 N   0  0  0  0  0  0  0  0  0  0  0  0
   20.0196   -4.5411  -18.6621 C   0  0  0  0  0  0  0  0  0  0  0  0
   19.9422   -3.5830  -17.8560 O   0  0  0  0  0  0  0  0  0  0  0  0
   20.5276   -5.8860  -18.3577 C   0  0  0  0  0  0  0  0  0  0  0  0
   21.0136   -5.9685  -16.9345 C   0  0  2  0  0  0  0  0  0  0  0  0
   21.4914   -7.3565  -16.6855 N   0  0  0  0  0  0  0  0  0  0  0  0
   19.9588   -5.6562  -15.9296 C   0  0  0  0  0  0  0  0  0  0  0  0
   19.7929   -4.5827  -15.3385 O   0  0  0  0  0  0  0  0  0  0  0  0
   19.0447   -6.6760  -15.6032 O   0  0  0  0  0  0  0  0  0  0  0  0
  2  1  1  6
  2  3  1  0
  2 10  1  0
  4  9  2  0
  4  3  1  0
  5  4  1  0
  6  7  1  0
  6  5  2  0
  7  8  2  0
  8  9  1  0
 10 11  2  0
 12 10  1  0
 12 13  1  0
 13 14  1  1
 14 15  1  0
 15 19  1  0
 15 16  2  0
 17 13  1  0
 17 18  2  0
 20 21  1  0
 21 23  1  0
 21 22  2  0
 24 23  1  6
 24 25  1  0
 25 17  1  0
 26 24  1  0
 26 28  1  0
 27 26  2  0
M  END
$$$$
