FDN.pdb
     RDKit          3D

 28 28  0  0  1  0  0  0  0  0999 V2000
   27.9220  -20.9335   -8.7460 N   0  0  0  0  0  0  0  0  0  0  0  0
   26.5572  -20.4984   -8.6154 C   0  0  1  0  0  0  0  0  0  0  0  0
   26.5840  -19.1952   -7.8446 C   0  0  0  0  0  0  0  0  0  0  0  0
   27.3260  -19.4862   -6.5742 C   0  0  0  0  0  0  0  0  0  0  0  0
   27.3207  -20.7619   -6.0511 C   0  0  0  0  0  0  0  0  0  0  0  0
   28.0003  -21.0865   -4.8751 C   0  0  0  0  0  0  0  0  0  0  0  0
   28.6973  -20.1026   -4.2180 C   0  0  0  0  0  0  0  0  0  0  0  0
   28.7016  -18.8272   -4.7423 C   0  0  0  0  0  0  0  0  0  0  0  0
   28.0264  -18.5123   -5.9074 C   0  0  0  0  0  0  0  0  0  0  0  0
   25.9251  -20.2698   -9.9754 C   0  0  0  0  0  0  0  0  0  0  0  0
   25.3367  -19.1902  -10.1355 O   0  0  0  0  0  0  0  0  0  0  0  0
   26.0041  -21.2217  -10.9866 N   0  0  0  0  0  0  0  0  0  0  0  0
   25.4870  -21.1571  -12.2969 C   0  0  1  0  0  0  0  0  0  0  0  0
   26.4383  -21.4520  -13.4374 C   0  0  0  0  0  0  0  0  0  0  0  0
   27.6185  -20.5572  -13.4738 C   0  0  0  0  0  0  0  0  0  0  0  0
   27.6186  -19.3739  -13.8349 O   0  0  0  0  0  0  0  0  0  0  0  0
   24.1635  -21.7034  -12.5226 C   0  0  0  0  0  0  0  0  0  0  0  0
   23.7942  -22.7341  -11.8443 O   0  0  0  0  0  0  0  0  0  0  0  0
   28.8236  -21.1337  -13.0559 O   0  0  0  0  0  0  0  0  0  0  0  0
   19.1098  -22.0800  -12.7325 N   0  0  0  0  0  0  0  0  0  0  0  0
   19.9058  -21.4931  -11.6719 C   0  0  0  0  0  0  0  0  0  0  0  0
   19.2614  -21.2992  -10.6132 O   0  0  0  0  0  0  0  0  0  0  0  0
   21.3255  -21.1808  -11.8875 C   0  0  0  0  0  0  0  0  0  0  0  0
   21.7523  -21.5518  -13.2833 C   0  0  2  0  0  0  0  0  0  0  0  0
   23.1964  -21.2207  -13.4321 N   0  0  0  0  0  0  0  0  0  0  0  0
   21.0006  -20.8256  -14.3452 C   0  0  0  0  0  0  0  0  0  0  0  0
   19.9022  -21.1369  -14.8205 O   0  0  0  0  0  0  0  0  0  0  0  0
   21.5837  -19.6601  -14.8778 O   0  0  0  0  0  0  0  0  0  0  0  0
  2  1  1  6
  2  3  1  0
  2 10  1  0
  4  9  2  0
  4  3  1  0
  5  4  1  0
  6  7  1  0
  6  5  2  0
  7  8  2  0
  8  9  1  0
 10 11  2  0
 12 10  1  0
 12 13  1  0
 13 14  1  6
 14 15  1  0
 15 19  1  0
 15 16  2  0
 17 13  1  0
 17 18  2  0
 20 21  1  0
 21 23  1  0
 21 22  2  0
 24 23  1  1
 24 25  1  0
 25 17  1  0
 26 24  1  0
 26 28  1  0
 27 26  2  0
M  END
$$$$
