FDN.pdb
     RDKit          3D

 28 28  0  0  1  0  0  0  0  0999 V2000
   23.4655   -9.4348  -17.2912 N   0  0  0  0  0  0  0  0  0  0  0  0
   23.2145   -8.2584  -16.5024 C   0  0  1  0  0  0  0  0  0  0  0  0
   24.4751   -7.4207  -16.5503 C   0  0  0  0  0  0  0  0  0  0  0  0
   25.5804   -8.3173  -16.0772 C   0  0  0  0  0  0  0  0  0  0  0  0
   25.4806   -8.9460  -14.8542 C   0  0  0  0  0  0  0  0  0  0  0  0
   26.4784   -9.7950  -14.3706 C   0  0  0  0  0  0  0  0  0  0  0  0
   27.5960  -10.0111  -15.1387 C   0  0  0  0  0  0  0  0  0  0  0  0
   27.6944   -9.3815  -16.3616 C   0  0  0  0  0  0  0  0  0  0  0  0
   26.7027   -8.5418  -16.8348 C   0  0  0  0  0  0  0  0  0  0  0  0
   22.0541   -7.4606  -17.0670 C   0  0  0  0  0  0  0  0  0  0  0  0
   21.8300   -7.5958  -18.2790 O   0  0  0  0  0  0  0  0  0  0  0  0
   21.2845   -6.6241  -16.2653 N   0  0  0  0  0  0  0  0  0  0  0  0
   20.2156   -5.7850  -16.6419 C   0  0  1  0  0  0  0  0  0  0  0  0
   18.9703   -5.8130  -15.7811 C   0  0  0  0  0  0  0  0  0  0  0  0
   18.3518   -7.1549  -15.6733 C   0  0  0  0  0  0  0  0  0  0  0  0
   18.0827   -7.9057  -16.6191 O   0  0  0  0  0  0  0  0  0  0  0  0
   20.5420   -4.4500  -17.1028 C   0  0  0  0  0  0  0  0  0  0  0  0
   20.6580   -3.5056  -16.2350 O   0  0  0  0  0  0  0  0  0  0  0  0
   18.0597   -7.5800  -14.3720 O   0  0  0  0  0  0  0  0  0  0  0  0
   18.0876   -3.0973  -21.7094 N   0  0  0  0  0  0  0  0  0  0  0  0
   19.3014   -2.9440  -20.9308 C   0  0  0  0  0  0  0  0  0  0  0  0
   20.3433   -3.2254  -21.5701 O   0  0  0  0  0  0  0  0  0  0  0  0
   19.2413   -2.4982  -19.5318 C   0  0  0  0  0  0  0  0  0  0  0  0
   20.5855   -2.6321  -18.8660 C   0  0  2  0  0  0  0  0  0  0  0  0
   20.7552   -4.0489  -18.4404 N   0  0  0  0  0  0  0  0  0  0  0  0
   20.7390   -1.7673  -17.6625 C   0  0  0  0  0  0  0  0  0  0  0  0
   21.4162   -0.7364  -17.5721 O   0  0  0  0  0  0  0  0  0  0  0  0
   20.0501   -2.1448  -16.4942 O   0  0  0  0  0  0  0  0  0  0  0  0
  2  1  1  6
  2  3  1  0
  2 10  1  0
  4  9  2  0
  4  3  1  0
  5  4  1  0
  6  7  1  0
  6  5  2  0
  7  8  2  0
  8  9  1  0
 10 11  2  0
 12 10  1  0
 12 13  1  0
 13 14  1  1
 14 15  1  0
 15 19  1  0
 15 16  2  0
 17 13  1  0
 17 18  2  0
 20 21  1  0
 21 23  1  0
 21 22  2  0
 24 23  1  1
 24 25  1  0
 25 17  1  0
 26 24  1  0
 26 28  1  0
 27 26  2  0
M  END
$$$$
