FDN.pdb
     RDKit          3D

 28 28  0  0  1  0  0  0  0  0999 V2000
   23.7551  -20.6347  -15.7968 N   0  0  0  0  0  0  0  0  0  0  0  0
   23.5987  -20.8329  -14.3807 C   0  0  1  0  0  0  0  0  0  0  0  0
   24.2860  -19.6700  -13.6963 C   0  0  0  0  0  0  0  0  0  0  0  0
   25.7270  -19.7484  -14.1047 C   0  0  0  0  0  0  0  0  0  0  0  0
   26.2593  -18.7875  -14.9379 C   0  0  0  0  0  0  0  0  0  0  0  0
   27.5957  -18.8114  -15.3425 C   0  0  0  0  0  0  0  0  0  0  0  0
   28.4067  -19.8253  -14.8955 C   0  0  0  0  0  0  0  0  0  0  0  0
   27.8728  -20.7857  -14.0623 C   0  0  0  0  0  0  0  0  0  0  0  0
   26.5484  -20.7564  -13.6653 C   0  0  0  0  0  0  0  0  0  0  0  0
   22.1325  -20.8550  -13.9918 C   0  0  0  0  0  0  0  0  0  0  0  0
   21.5629  -19.7556  -13.9259 O   0  0  0  0  0  0  0  0  0  0  0  0
   21.4656  -22.0463  -13.7250 N   0  0  0  0  0  0  0  0  0  0  0  0
   20.1215  -22.2346  -13.3429 C   0  0  1  0  0  0  0  0  0  0  0  0
   19.0794  -22.2483  -14.4414 C   0  0  0  0  0  0  0  0  0  0  0  0
   18.7273  -20.8999  -14.9440 C   0  0  0  0  0  0  0  0  0  0  0  0
   18.5953  -19.8820  -14.2533 O   0  0  0  0  0  0  0  0  0  0  0  0
   19.8498  -23.2123  -12.3078 C   0  0  0  0  0  0  0  0  0  0  0  0
   20.7953  -24.0064  -11.9415 O   0  0  0  0  0  0  0  0  0  0  0  0
   18.5344  -20.8047  -16.3271 O   0  0  0  0  0  0  0  0  0  0  0  0
   19.2919  -24.7352   -7.0076 N   0  0  0  0  0  0  0  0  0  0  0  0
   19.3275  -25.1512   -8.3964 C   0  0  0  0  0  0  0  0  0  0  0  0
   19.2528  -26.3943   -8.5470 O   0  0  0  0  0  0  0  0  0  0  0  0
   19.4422  -24.1569   -9.4723 C   0  0  0  0  0  0  0  0  0  0  0  0
   18.4691  -24.4515  -10.5835 C   0  0  2  0  0  0  0  0  0  0  0  0
   18.6256  -23.4034  -11.6295 N   0  0  0  0  0  0  0  0  0  0  0  0
   17.0466  -24.4522  -10.1401 C   0  0  0  0  0  0  0  0  0  0  0  0
   16.2558  -25.4018  -10.1883 O   0  0  0  0  0  0  0  0  0  0  0  0
   16.5274  -23.2568   -9.6078 O   0  0  0  0  0  0  0  0  0  0  0  0
  2  1  1  6
  2  3  1  0
  2 10  1  0
  4  9  2  0
  4  3  1  0
  5  4  1  0
  6  7  1  0
  6  5  2  0
  7  8  2  0
  8  9  1  0
 10 11  2  0
 12 10  1  0
 12 13  1  0
 13 14  1  6
 14 15  1  0
 15 19  1  0
 15 16  2  0
 17 13  1  0
 17 18  2  0
 20 21  1  0
 21 23  1  0
 21 22  2  0
 24 23  1  1
 24 25  1  0
 25 17  1  0
 26 24  1  0
 26 28  1  0
 27 26  2  0
M  END
$$$$
