WFL.pdb
     RDKit          3D

 34 36  0  0  1  0  0  0  0  0999 V2000
    7.6472  -17.9412   22.0709 N   0  0  0  0  0  0  0  0  0  0  0  0
    8.0091  -16.5677   21.7390 C   0  0  1  0  0  0  0  0  0  0  0  0
    6.7883  -15.6798   21.8136 C   0  0  0  0  0  0  0  0  0  0  0  0
    6.5255  -15.3068   23.1998 C   0  0  0  0  0  0  0  0  0  0  0  0
    6.0209  -16.2146   24.1361 C   0  0  0  0  0  0  0  0  0  0  0  0
    5.9363  -15.5902   25.3081 N   0  0  0  0  0  0  0  0  0  0  0  0
    6.3663  -14.3038   25.1770 C   0  0  0  0  0  0  0  0  0  0  0  0
    6.4543  -13.2769   26.1073 C   0  0  0  0  0  0  0  0  0  0  0  0
    6.9196  -12.0440   25.7057 C   0  0  0  0  0  0  0  0  0  0  0  0
    7.2829  -11.8697   24.3911 C   0  0  0  0  0  0  0  0  0  0  0  0
    7.1950  -12.8879   23.4732 C   0  0  0  0  0  0  0  0  0  0  0  0
    6.7291  -14.1426   23.8573 C   0  0  0  0  0  0  0  0  0  0  0  0
    9.0847  -16.0941   22.6047 C   0  0  0  0  0  0  0  0  0  0  0  0
    9.6877  -14.9877   22.4231 O   0  0  0  0  0  0  0  0  0  0  0  0
    9.4491  -16.9434   23.7088 N   0  0  0  0  0  0  0  0  0  0  0  0
   10.3855  -16.4512   24.6813 C   0  0  1  0  0  0  0  0  0  0  0  0
    9.8806  -16.8521   26.0673 C   0  0  0  0  0  0  0  0  0  0  0  0
   10.2159  -15.8245   27.0807 C   0  0  0  0  0  0  0  0  0  0  0  0
    9.6798  -14.5562   26.9996 C   0  0  0  0  0  0  0  0  0  0  0  0
    9.9728  -13.5752   27.9296 C   0  0  0  0  0  0  0  0  0  0  0  0
   10.8222  -13.8318   28.9853 C   0  0  0  0  0  0  0  0  0  0  0  0
   11.3651  -15.0941   29.0789 C   0  0  0  0  0  0  0  0  0  0  0  0
   11.0611  -16.0758   28.1331 C   0  0  0  0  0  0  0  0  0  0  0  0
   11.7507  -16.9259   24.4487 C   0  0  0  0  0  0  0  0  0  0  0  0
   12.1209  -18.1120   24.6932 O   0  0  0  0  0  0  0  0  0  0  0  0
   16.6298  -14.5859   21.7363 C   0  0  0  0  0  0  0  0  0  0  0  0
   15.8287  -15.8921   21.8056 C   0  0  2  0  0  0  0  0  0  0  0  0
   15.6703  -16.3856   20.3889 C   0  0  0  0  0  0  0  0  0  0  0  0
   14.5183  -15.5656   22.4406 C   0  0  0  0  0  0  0  0  0  0  0  0
   13.9933  -16.6025   23.3886 C   0  0  2  0  0  0  0  0  0  0  0  0
   12.7314  -16.0642   23.9304 N   0  0  0  0  0  0  0  0  0  0  0  0
   14.9106  -16.9824   24.4651 C   0  0  0  0  0  0  0  0  0  0  0  0
   14.9525  -16.2909   25.6676 O   0  0  0  0  0  0  0  0  0  0  0  0
   15.7320  -17.9576   24.3944 O   0  0  0  0  0  0  0  0  0  0  0  0
  2  3  1  0
  2  1  1  1
  3  4  1  0
  4  5  2  0
  5  6  1  0
  7  6  1  0
  8  7  2  0
  9  8  1  0
 10 11  1  0
 10  9  2  0
 11 12  2  0
 12  4  1  0
 12  7  1  0
 13 14  2  0
 13  2  1  0
 15 13  1  0
 16 15  1  0
 16 17  1  1
 17 18  1  0
 18 23  1  0
 18 19  2  0
 19 20  1  0
 20 21  2  0
 22 21  1  0
 23 22  2  0
 24 31  1  0
 24 16  1  0
 25 24  2  0
 27 26  1  6
 27 28  1  0
 27 29  1  0
 30 29  1  6
 30 32  1  0
 30 31  1  0
 32 33  1  0
 34 32  2  0
M  END
$$$$
