WFL.pdb
     RDKit          3D

 34 36  0  0  1  0  0  0  0  0999 V2000
    9.7479  -18.8508   20.4778 N   0  0  0  0  0  0  0  0  0  0  0  0
   10.9106  -17.9848   20.6385 C   0  0  1  0  0  0  0  0  0  0  0  0
   11.4623  -17.6047   19.2838 C   0  0  0  0  0  0  0  0  0  0  0  0
   11.8827  -18.8011   18.5616 C   0  0  0  0  0  0  0  0  0  0  0  0
   11.1836  -19.2910   17.4541 C   0  0  0  0  0  0  0  0  0  0  0  0
   11.8371  -20.3550   16.9946 N   0  0  0  0  0  0  0  0  0  0  0  0
   12.9411  -20.5838   17.7600 C   0  0  0  0  0  0  0  0  0  0  0  0
   13.9140  -21.5708   17.6775 C   0  0  0  0  0  0  0  0  0  0  0  0
   14.9370  -21.5851   18.6001 C   0  0  0  0  0  0  0  0  0  0  0  0
   14.9609  -20.6178   19.5770 C   0  0  0  0  0  0  0  0  0  0  0  0
   13.9969  -19.6424   19.6556 C   0  0  0  0  0  0  0  0  0  0  0  0
   12.9548  -19.6076   18.7327 C   0  0  0  0  0  0  0  0  0  0  0  0
   10.5741  -16.8131   21.4414 C   0  0  0  0  0  0  0  0  0  0  0  0
   11.3618  -15.8247   21.5939 O   0  0  0  0  0  0  0  0  0  0  0  0
    9.2790  -16.8091   22.0707 N   0  0  0  0  0  0  0  0  0  0  0  0
    8.9630  -15.7580   22.9980 C   0  0  1  0  0  0  0  0  0  0  0  0
    7.4536  -15.5217   22.9467 C   0  0  0  0  0  0  0  0  0  0  0  0
    7.0644  -14.3469   23.7613 C   0  0  0  0  0  0  0  0  0  0  0  0
    7.3282  -13.0670   23.3200 C   0  0  0  0  0  0  0  0  0  0  0  0
    6.9774  -11.9502   24.0568 C   0  0  0  0  0  0  0  0  0  0  0  0
    6.3430  -12.0764   25.2748 C   0  0  0  0  0  0  0  0  0  0  0  0
    6.0733  -13.3486   25.7281 C   0  0  0  0  0  0  0  0  0  0  0  0
    6.4329  -14.4682   24.9745 C   0  0  0  0  0  0  0  0  0  0  0  0
    9.4159  -16.0450   24.3603 C   0  0  0  0  0  0  0  0  0  0  0  0
    9.3274  -17.1915   24.8907 O   0  0  0  0  0  0  0  0  0  0  0  0
    9.8355  -15.3985   29.4121 C   0  0  0  0  0  0  0  0  0  0  0  0
   10.6380  -14.2568   28.7755 C   0  0  2  0  0  0  0  0  0  0  0  0
   10.3281  -13.0092   29.5648 C   0  0  0  0  0  0  0  0  0  0  0  0
   10.1936  -14.1522   27.3547 C   0  0  0  0  0  0  0  0  0  0  0  0
   10.5069  -15.3438   26.4994 C   0  0  2  0  0  0  0  0  0  0  0  0
    9.9829  -15.0355   25.1554 N   0  0  0  0  0  0  0  0  0  0  0  0
    9.9803  -16.6185   26.9917 C   0  0  0  0  0  0  0  0  0  0  0  0
    8.6406  -16.9558   26.8595 O   0  0  0  0  0  0  0  0  0  0  0  0
   10.6884  -17.5091   27.5716 O   0  0  0  0  0  0  0  0  0  0  0  0
  2  3  1  0
  2  1  1  6
  3  4  1  0
  4  5  2  0
  5  6  1  0
  7  6  1  0
  8  7  2  0
  9  8  1  0
 10 11  1  0
 10  9  2  0
 11 12  2  0
 12  4  1  0
 12  7  1  0
 13 14  2  0
 13  2  1  0
 15 13  1  0
 16 15  1  0
 16 17  1  1
 17 18  1  0
 18 23  1  0
 18 19  2  0
 19 20  1  0
 20 21  2  0
 22 21  1  0
 23 22  2  0
 24 31  1  0
 24 16  1  0
 25 24  2  0
 27 26  1  1
 27 28  1  0
 27 29  1  0
 30 29  1  1
 30 32  1  0
 30 31  1  0
 32 33  1  0
 34 32  2  0
M  END
$$$$
