WFL.pdb
     RDKit          3D

 34 36  0  0  1  0  0  0  0  0999 V2000
    7.5560  -17.3165   21.4260 N   0  0  0  0  0  0  0  0  0  0  0  0
    9.0120  -17.2752   21.5052 C   0  0  1  0  0  0  0  0  0  0  0  0
    9.5687  -16.4656   20.3569 C   0  0  0  0  0  0  0  0  0  0  0  0
    8.6473  -15.3877   20.0123 C   0  0  0  0  0  0  0  0  0  0  0  0
    8.0938  -15.2562   18.7349 C   0  0  0  0  0  0  0  0  0  0  0  0
    7.2669  -14.2138   18.7517 N   0  0  0  0  0  0  0  0  0  0  0  0
    7.2565  -13.6538   19.9940 C   0  0  0  0  0  0  0  0  0  0  0  0
    6.5656  -12.5560   20.4889 C   0  0  0  0  0  0  0  0  0  0  0  0
    6.7464  -12.1845   21.8031 C   0  0  0  0  0  0  0  0  0  0  0  0
    7.6093  -12.9157   22.5849 C   0  0  0  0  0  0  0  0  0  0  0  0
    8.2912  -14.0016   22.0922 C   0  0  0  0  0  0  0  0  0  0  0  0
    8.1225  -14.3961   20.7675 C   0  0  0  0  0  0  0  0  0  0  0  0
    9.4436  -16.7580   22.8001 C   0  0  0  0  0  0  0  0  0  0  0  0
   10.5900  -16.2399   22.9953 O   0  0  0  0  0  0  0  0  0  0  0  0
    8.4986  -16.8510   23.8825 N   0  0  0  0  0  0  0  0  0  0  0  0
    8.9426  -16.5552   25.2168 C   0  0  1  0  0  0  0  0  0  0  0  0
    7.7328  -16.0822   26.0225 C   0  0  0  0  0  0  0  0  0  0  0  0
    7.6163  -14.6052   26.0022 C   0  0  0  0  0  0  0  0  0  0  0  0
    8.5538  -13.8173   26.6368 C   0  0  0  0  0  0  0  0  0  0  0  0
    8.4733  -12.4365   26.6358 C   0  0  0  0  0  0  0  0  0  0  0  0
    7.4400  -11.7883   25.9922 C   0  0  0  0  0  0  0  0  0  0  0  0
    6.4964  -12.5624   25.3541 C   0  0  0  0  0  0  0  0  0  0  0  0
    6.5892  -13.9560   25.3628 C   0  0  0  0  0  0  0  0  0  0  0  0
    9.6068  -17.6898   25.8607 C   0  0  0  0  0  0  0  0  0  0  0  0
    9.0783  -18.8367   25.9559 O   0  0  0  0  0  0  0  0  0  0  0  0
   15.3635  -19.0398   27.2941 C   0  0  0  0  0  0  0  0  0  0  0  0
   13.9179  -19.5313   27.4393 C   0  0  2  0  0  0  0  0  0  0  0  0
   13.8149  -20.8253   26.6707 C   0  0  0  0  0  0  0  0  0  0  0  0
   13.0376  -18.4666   26.8749 C   0  0  0  0  0  0  0  0  0  0  0  0
   11.5658  -18.7007   27.0432 C   0  0  2  0  0  0  0  0  0  0  0  0
   10.8909  -17.5506   26.4127 N   0  0  0  0  0  0  0  0  0  0  0  0
   11.1189  -18.8819   28.4260 C   0  0  0  0  0  0  0  0  0  0  0  0
   10.7137  -17.8105   29.2095 O   0  0  0  0  0  0  0  0  0  0  0  0
   11.0644  -20.0121   29.0181 O   0  0  0  0  0  0  0  0  0  0  0  0
  2  3  1  0
  2  1  1  1
  3  4  1  0
  4  5  2  0
  5  6  1  0
  7  6  1  0
  8  7  2  0
  9  8  1  0
 10 11  1  0
 10  9  2  0
 11 12  2  0
 12  4  1  0
 12  7  1  0
 13 14  2  0
 13  2  1  0
 15 13  1  0
 16 15  1  0
 16 17  1  1
 17 18  1  0
 18 23  1  0
 18 19  2  0
 19 20  1  0
 20 21  2  0
 22 21  1  0
 23 22  2  0
 24 31  1  0
 24 16  1  0
 25 24  2  0
 27 26  1  6
 27 28  1  0
 27 29  1  0
 30 29  1  1
 30 32  1  0
 30 31  1  0
 32 33  1  0
 34 32  2  0
M  END
$$$$
