WFL.pdb
     RDKit          3D

 34 36  0  0  1  0  0  0  0  0999 V2000
    7.0710  -19.4592   26.4773 N   0  0  0  0  0  0  0  0  0  0  0  0
    7.7194  -18.1836   26.1941 C   0  0  1  0  0  0  0  0  0  0  0  0
    9.1965  -18.2762   26.5004 C   0  0  0  0  0  0  0  0  0  0  0  0
    9.5218  -17.4395   27.6510 C   0  0  0  0  0  0  0  0  0  0  0  0
    9.6512  -17.9604   28.9422 C   0  0  0  0  0  0  0  0  0  0  0  0
    9.9946  -16.9636   29.7539 N   0  0  0  0  0  0  0  0  0  0  0  0
   10.0953  -15.8049   29.0438 C   0  0  0  0  0  0  0  0  0  0  0  0
   10.4139  -14.5161   29.4502 C   0  0  0  0  0  0  0  0  0  0  0  0
   10.4339  -13.5027   28.5172 C   0  0  0  0  0  0  0  0  0  0  0  0
   10.1358  -13.8017   27.2087 C   0  0  0  0  0  0  0  0  0  0  0  0
    9.8213  -15.0779   26.8098 C   0  0  0  0  0  0  0  0  0  0  0  0
    9.7968  -16.1180   27.7353 C   0  0  0  0  0  0  0  0  0  0  0  0
    7.4705  -17.7733   24.8156 C   0  0  0  0  0  0  0  0  0  0  0  0
    7.3281  -18.6004   23.8584 O   0  0  0  0  0  0  0  0  0  0  0  0
    7.3831  -16.3577   24.5668 N   0  0  0  0  0  0  0  0  0  0  0  0
    7.5503  -15.8793   23.2221 C   0  0  1  0  0  0  0  0  0  0  0  0
    7.4156  -14.3568   23.2430 C   0  0  0  0  0  0  0  0  0  0  0  0
    7.5095  -13.7892   21.8776 C   0  0  0  0  0  0  0  0  0  0  0  0
    6.7306  -14.2874   20.8541 C   0  0  0  0  0  0  0  0  0  0  0  0
    6.7948  -13.7791   19.5693 C   0  0  0  0  0  0  0  0  0  0  0  0
    7.6504  -12.7426   19.2601 C   0  0  0  0  0  0  0  0  0  0  0  0
    8.4343  -12.2351   20.2724 C   0  0  0  0  0  0  0  0  0  0  0  0
    8.3600  -12.7574   21.5656 C   0  0  0  0  0  0  0  0  0  0  0  0
    8.8181  -16.2985   22.6220 C   0  0  0  0  0  0  0  0  0  0  0  0
    8.9241  -17.3091   21.8661 O   0  0  0  0  0  0  0  0  0  0  0  0
   11.4515  -15.6965   19.2689 C   0  0  0  0  0  0  0  0  0  0  0  0
   11.1166  -14.5175   20.1910 C   0  0  2  0  0  0  0  0  0  0  0  0
   11.6499  -13.2737   19.5245 C   0  0  0  0  0  0  0  0  0  0  0  0
   11.7805  -14.7867   21.5000 C   0  0  0  0  0  0  0  0  0  0  0  0
   11.2705  -15.9884   22.2384 C   0  0  2  0  0  0  0  0  0  0  0  0
    9.9994  -15.5785   22.8646 N   0  0  0  0  0  0  0  0  0  0  0  0
   12.1920  -16.5463   23.2304 C   0  0  0  0  0  0  0  0  0  0  0  0
   13.3415  -17.2289   22.8578 O   0  0  0  0  0  0  0  0  0  0  0  0
   12.0237  -16.4572   24.4932 O   0  0  0  0  0  0  0  0  0  0  0  0
  2  3  1  0
  2  1  1  6
  3  4  1  0
  4  5  2  0
  5  6  1  0
  7  6  1  0
  8  7  2  0
  9  8  1  0
 10 11  1  0
 10  9  2  0
 11 12  2  0
 12  4  1  0
 12  7  1  0
 13 14  2  0
 13  2  1  0
 15 13  1  0
 16 15  1  0
 16 17  1  1
 17 18  1  0
 18 23  1  0
 18 19  2  0
 19 20  1  0
 20 21  2  0
 22 21  1  0
 23 22  2  0
 24 31  1  0
 24 16  1  0
 25 24  2  0
 27 26  1  6
 27 28  1  0
 27 29  1  0
 30 29  1  1
 30 32  1  0
 30 31  1  0
 32 33  1  0
 34 32  2  0
M  END
$$$$
