WFL.pdb
     RDKit          3D

 34 36  0  0  1  0  0  0  0  0999 V2000
    6.2915  -18.7468   22.4977 N   0  0  0  0  0  0  0  0  0  0  0  0
    6.8047  -17.5586   23.1704 C   0  0  1  0  0  0  0  0  0  0  0  0
    6.7464  -17.7479   24.6687 C   0  0  0  0  0  0  0  0  0  0  0  0
    6.3356  -16.5052   25.3140 C   0  0  0  0  0  0  0  0  0  0  0  0
    5.0374  -16.3047   25.7935 C   0  0  0  0  0  0  0  0  0  0  0  0
    4.9918  -15.1031   26.3633 N   0  0  0  0  0  0  0  0  0  0  0  0
    6.2130  -14.5049   26.2756 C   0  0  0  0  0  0  0  0  0  0  0  0
    6.6474  -13.2605   26.7117 C   0  0  0  0  0  0  0  0  0  0  0  0
    7.9532  -12.8859   26.4823 C   0  0  0  0  0  0  0  0  0  0  0  0
    8.7870  -13.7601   25.8257 C   0  0  0  0  0  0  0  0  0  0  0  0
    8.3540  -14.9908   25.3957 C   0  0  0  0  0  0  0  0  0  0  0  0
    7.0390  -15.3910   25.6184 C   0  0  0  0  0  0  0  0  0  0  0  0
    8.1544  -17.2474   22.7097 C   0  0  0  0  0  0  0  0  0  0  0  0
    8.9701  -18.1333   22.2967 O   0  0  0  0  0  0  0  0  0  0  0  0
    8.5435  -15.8613   22.7331 N   0  0  0  0  0  0  0  0  0  0  0  0
    9.9183  -15.5237   22.4867 C   0  0  1  0  0  0  0  0  0  0  0  0
    9.9716  -14.0656   22.0311 C   0  0  0  0  0  0  0  0  0  0  0  0
    9.0246  -13.8137   20.9198 C   0  0  0  0  0  0  0  0  0  0  0  0
    9.4304  -13.9421   19.6078 C   0  0  0  0  0  0  0  0  0  0  0  0
    8.5707  -13.7143   18.5485 C   0  0  0  0  0  0  0  0  0  0  0  0
    7.2598  -13.3458   18.7674 C   0  0  0  0  0  0  0  0  0  0  0  0
    6.8407  -13.2137   20.0727 C   0  0  0  0  0  0  0  0  0  0  0  0
    7.7189  -13.4466   21.1334 C   0  0  0  0  0  0  0  0  0  0  0  0
   10.7788  -15.7556   23.6482 C   0  0  0  0  0  0  0  0  0  0  0  0
   12.0392  -15.6391   23.6087 O   0  0  0  0  0  0  0  0  0  0  0  0
    9.3106  -14.3354   28.8682 C   0  0  0  0  0  0  0  0  0  0  0  0
   10.5205  -14.6654   27.9851 C   0  0  2  0  0  0  0  0  0  0  0  0
   10.7118  -13.4984   27.0486 C   0  0  0  0  0  0  0  0  0  0  0  0
   10.1965  -15.9274   27.2574 C   0  0  0  0  0  0  0  0  0  0  0  0
   11.0811  -16.2324   26.0853 C   0  0  2  0  0  0  0  0  0  0  0  0
   10.2283  -16.1253   24.8865 N   0  0  0  0  0  0  0  0  0  0  0  0
   11.7577  -17.5301   26.1376 C   0  0  0  0  0  0  0  0  0  0  0  0
   11.0597  -18.7100   26.3541 O   0  0  0  0  0  0  0  0  0  0  0  0
   13.0168  -17.6871   25.9931 O   0  0  0  0  0  0  0  0  0  0  0  0
  2  3  1  0
  2  1  1  6
  3  4  1  0
  4  5  2  0
  5  6  1  0
  7  6  1  0
  8  7  2  0
  9  8  1  0
 10 11  1  0
 10  9  2  0
 11 12  2  0
 12  4  1  0
 12  7  1  0
 13 14  2  0
 13  2  1  0
 15 13  1  0
 16 15  1  0
 16 17  1  1
 17 18  1  0
 18 23  1  0
 18 19  2  0
 19 20  1  0
 20 21  2  0
 22 21  1  0
 23 22  2  0
 24 31  1  0
 24 16  1  0
 25 24  2  0
 27 26  1  1
 27 28  1  0
 27 29  1  0
 30 29  1  1
 30 32  1  0
 30 31  1  0
 32 33  1  0
 34 32  2  0
M  END
$$$$
