WFL.pdb
     RDKit          3D

 34 36  0  0  1  0  0  0  0  0999 V2000
    9.6666  -17.1344   20.7927 N   0  0  0  0  0  0  0  0  0  0  0  0
    8.3267  -16.9013   21.3200 C   0  0  1  0  0  0  0  0  0  0  0  0
    7.3088  -17.0059   20.2077 C   0  0  0  0  0  0  0  0  0  0  0  0
    7.5397  -15.9579   19.2187 C   0  0  0  0  0  0  0  0  0  0  0  0
    7.6657  -16.2322   17.8533 C   0  0  0  0  0  0  0  0  0  0  0  0
    7.8209  -15.0749   17.2153 N   0  0  0  0  0  0  0  0  0  0  0  0
    7.8022  -14.0485   18.1114 C   0  0  0  0  0  0  0  0  0  0  0  0
    7.9340  -12.6789   17.9256 C   0  0  0  0  0  0  0  0  0  0  0  0
    7.8912  -11.8447   19.0211 C   0  0  0  0  0  0  0  0  0  0  0  0
    7.7191  -12.3979   20.2680 C   0  0  0  0  0  0  0  0  0  0  0  0
    7.5887  -13.7534   20.4484 C   0  0  0  0  0  0  0  0  0  0  0  0
    7.6272  -14.6152   19.3554 C   0  0  0  0  0  0  0  0  0  0  0  0
    8.0366  -17.8205   22.4161 C   0  0  0  0  0  0  0  0  0  0  0  0
    7.2847  -18.8399   22.2887 O   0  0  0  0  0  0  0  0  0  0  0  0
    8.6524  -17.5305   23.6850 N   0  0  0  0  0  0  0  0  0  0  0  0
    8.6671  -16.1721   24.1532 C   0  0  1  0  0  0  0  0  0  0  0  0
    7.2347  -15.7841   24.5199 C   0  0  0  0  0  0  0  0  0  0  0  0
    7.1840  -14.4426   25.1470 C   0  0  0  0  0  0  0  0  0  0  0  0
    6.7716  -14.2930   26.4547 C   0  0  0  0  0  0  0  0  0  0  0  0
    6.7136  -13.0548   27.0684 C   0  0  0  0  0  0  0  0  0  0  0  0
    7.0704  -11.9099   26.3874 C   0  0  0  0  0  0  0  0  0  0  0  0
    7.4842  -12.0441   25.0807 C   0  0  0  0  0  0  0  0  0  0  0  0
    7.5382  -13.3002   24.4725 C   0  0  0  0  0  0  0  0  0  0  0  0
    9.5838  -15.9665   25.2760 C   0  0  0  0  0  0  0  0  0  0  0  0
   10.6358  -15.2668   25.1899 O   0  0  0  0  0  0  0  0  0  0  0  0
   11.1187  -13.7832   27.8178 C   0  0  0  0  0  0  0  0  0  0  0  0
    9.8395  -14.4995   28.2683 C   0  0  2  0  0  0  0  0  0  0  0  0
    9.2987  -13.7314   29.4487 C   0  0  0  0  0  0  0  0  0  0  0  0
   10.2265  -15.8945   28.6305 C   0  0  0  0  0  0  0  0  0  0  0  0
   10.4302  -16.8215   27.4693 C   0  0  2  0  0  0  0  0  0  0  0  0
    9.3277  -16.5506   26.5274 N   0  0  0  0  0  0  0  0  0  0  0  0
   10.4938  -18.2438   27.8124 C   0  0  0  0  0  0  0  0  0  0  0  0
    9.4981  -19.1326   27.4323 O   0  0  0  0  0  0  0  0  0  0  0  0
   11.4459  -18.7781   28.4749 O   0  0  0  0  0  0  0  0  0  0  0  0
  2  3  1  0
  2  1  1  6
  3  4  1  0
  4  5  2  0
  5  6  1  0
  7  6  1  0
  8  7  2  0
  9  8  1  0
 10 11  1  0
 10  9  2  0
 11 12  2  0
 12  4  1  0
 12  7  1  0
 13 14  2  0
 13  2  1  0
 15 13  1  0
 16 15  1  0
 16 17  1  1
 17 18  1  0
 18 23  1  0
 18 19  2  0
 19 20  1  0
 20 21  2  0
 22 21  1  0
 23 22  2  0
 24 31  1  0
 24 16  1  0
 25 24  2  0
 27 26  1  1
 27 28  1  0
 27 29  1  0
 30 29  1  1
 30 32  1  0
 30 31  1  0
 32 33  1  0
 34 32  2  0
M  END
$$$$
