WFL.pdb
     RDKit          3D

 34 36  0  0  1  0  0  0  0  0999 V2000
    8.4613  -18.5799   21.8345 N   0  0  0  0  0  0  0  0  0  0  0  0
    9.6289  -17.8088   21.4223 C   0  0  1  0  0  0  0  0  0  0  0  0
    9.4367  -17.2939   20.0144 C   0  0  0  0  0  0  0  0  0  0  0  0
    8.2796  -16.4063   19.9604 C   0  0  0  0  0  0  0  0  0  0  0  0
    6.9676  -16.8887   19.9233 C   0  0  0  0  0  0  0  0  0  0  0  0
    6.1458  -15.8422   19.9252 N   0  0  0  0  0  0  0  0  0  0  0  0
    6.8694  -14.6881   19.9614 C   0  0  0  0  0  0  0  0  0  0  0  0
    6.4616  -13.3610   19.9681 C   0  0  0  0  0  0  0  0  0  0  0  0
    7.4134  -12.3654   19.9949 C   0  0  0  0  0  0  0  0  0  0  0  0
    8.7417  -12.7198   20.0135 C   0  0  0  0  0  0  0  0  0  0  0  0
    9.1419  -14.0339   20.0071 C   0  0  0  0  0  0  0  0  0  0  0  0
    8.1972  -15.0566   19.9821 C   0  0  0  0  0  0  0  0  0  0  0  0
    9.8948  -16.7297   22.3687 C   0  0  0  0  0  0  0  0  0  0  0  0
   10.9082  -15.9639   22.2839 O   0  0  0  0  0  0  0  0  0  0  0  0
    8.9403  -16.5505   23.4318 N   0  0  0  0  0  0  0  0  0  0  0  0
    9.1428  -15.4825   24.3715 C   0  0  1  0  0  0  0  0  0  0  0  0
    8.0946  -14.4049   24.0940 C   0  0  0  0  0  0  0  0  0  0  0  0
    7.7606  -13.6492   25.3239 C   0  0  0  0  0  0  0  0  0  0  0  0
    6.5204  -13.7787   25.9134 C   0  0  0  0  0  0  0  0  0  0  0  0
    6.1782  -13.0875   27.0615 C   0  0  0  0  0  0  0  0  0  0  0  0
    7.0752  -12.2327   27.6669 C   0  0  0  0  0  0  0  0  0  0  0  0
    8.3177  -12.0934   27.0892 C   0  0  0  0  0  0  0  0  0  0  0  0
    8.6507  -12.7971   25.9296 C   0  0  0  0  0  0  0  0  0  0  0  0
    9.0954  -15.9323   25.7639 C   0  0  0  0  0  0  0  0  0  0  0  0
    9.1230  -15.1363   26.7485 O   0  0  0  0  0  0  0  0  0  0  0  0
    6.2263  -20.1710   27.3847 C   0  0  0  0  0  0  0  0  0  0  0  0
    6.9600  -18.8655   27.0531 C   0  0  2  0  0  0  0  0  0  0  0  0
    6.9576  -18.7300   25.5506 C   0  0  0  0  0  0  0  0  0  0  0  0
    8.3399  -18.9891   27.6077 C   0  0  0  0  0  0  0  0  0  0  0  0
    9.1979  -17.7678   27.4604 C   0  0  2  0  0  0  0  0  0  0  0  0
    9.0141  -17.2999   26.0736 N   0  0  0  0  0  0  0  0  0  0  0  0
   10.6162  -17.9632   27.7680 C   0  0  0  0  0  0  0  0  0  0  0  0
   11.5790  -18.0235   26.7702 O   0  0  0  0  0  0  0  0  0  0  0  0
   11.0808  -18.0927   28.9505 O   0  0  0  0  0  0  0  0  0  0  0  0
  2  3  1  0
  2  1  1  1
  3  4  1  0
  4  5  2  0
  5  6  1  0
  7  6  1  0
  8  7  2  0
  9  8  1  0
 10 11  1  0
 10  9  2  0
 11 12  2  0
 12  4  1  0
 12  7  1  0
 13 14  2  0
 13  2  1  0
 15 13  1  0
 16 15  1  0
 16 17  1  1
 17 18  1  0
 18 23  1  0
 18 19  2  0
 19 20  1  0
 20 21  2  0
 22 21  1  0
 23 22  2  0
 24 31  1  0
 24 16  1  0
 25 24  2  0
 27 26  1  6
 27 28  1  0
 27 29  1  0
 30 29  1  6
 30 32  1  0
 30 31  1  0
 32 33  1  0
 34 32  2  0
M  END
$$$$
