WFL.pdb
     RDKit          3D

 34 36  0  0  1  0  0  0  0  0999 V2000
   12.1921  -16.1835   21.9977 N   0  0  0  0  0  0  0  0  0  0  0  0
   10.8564  -15.7938   22.4355 C   0  0  1  0  0  0  0  0  0  0  0  0
    9.8129  -16.5111   21.6104 C   0  0  0  0  0  0  0  0  0  0  0  0
    9.2859  -15.6174   20.5842 C   0  0  0  0  0  0  0  0  0  0  0  0
    9.6423  -15.7325   19.2369 C   0  0  0  0  0  0  0  0  0  0  0  0
    8.9658  -14.8126   18.5538 N   0  0  0  0  0  0  0  0  0  0  0  0
    8.1773  -14.0954   19.4029 C   0  0  0  0  0  0  0  0  0  0  0  0
    7.3098  -13.0387   19.1613 C   0  0  0  0  0  0  0  0  0  0  0  0
    6.6298  -12.4724   20.2171 C   0  0  0  0  0  0  0  0  0  0  0  0
    6.8337  -12.9738   21.4811 C   0  0  0  0  0  0  0  0  0  0  0  0
    7.6926  -14.0196   21.7167 C   0  0  0  0  0  0  0  0  0  0  0  0
    8.3889  -14.6084   20.6644 C   0  0  0  0  0  0  0  0  0  0  0  0
   10.6894  -16.0405   23.8645 C   0  0  0  0  0  0  0  0  0  0  0  0
   11.6648  -16.2727   24.6490 O   0  0  0  0  0  0  0  0  0  0  0  0
    9.3435  -16.0063   24.3749 N   0  0  0  0  0  0  0  0  0  0  0  0
    9.1396  -16.0784   25.7955 C   0  0  1  0  0  0  0  0  0  0  0  0
    7.6766  -15.7387   26.0799 C   0  0  0  0  0  0  0  0  0  0  0  0
    7.4348  -14.2798   25.9878 C   0  0  0  0  0  0  0  0  0  0  0  0
    8.0464  -13.4091   26.8654 C   0  0  0  0  0  0  0  0  0  0  0  0
    7.8415  -12.0426   26.8053 C   0  0  0  0  0  0  0  0  0  0  0  0
    7.0078  -11.4931   25.8540 C   0  0  0  0  0  0  0  0  0  0  0  0
    6.3901  -12.3506   24.9709 C   0  0  0  0  0  0  0  0  0  0  0  0
    6.6055  -13.7288   25.0424 C   0  0  0  0  0  0  0  0  0  0  0  0
    9.5088  -17.3783   26.3587 C   0  0  0  0  0  0  0  0  0  0  0  0
    9.1403  -17.7634   27.5075 O   0  0  0  0  0  0  0  0  0  0  0  0
   12.9291  -22.1051   24.4143 C   0  0  0  0  0  0  0  0  0  0  0  0
   11.9743  -21.6400   25.5208 C   0  0  2  0  0  0  0  0  0  0  0  0
   10.8022  -22.5897   25.5171 C   0  0  0  0  0  0  0  0  0  0  0  0
   11.5707  -20.2423   25.1882 C   0  0  0  0  0  0  0  0  0  0  0  0
   10.7268  -19.5591   26.2228 C   0  0  2  0  0  0  0  0  0  0  0  0
   10.3062  -18.2757   25.6296 N   0  0  0  0  0  0  0  0  0  0  0  0
   11.3766  -19.3537   27.5190 C   0  0  0  0  0  0  0  0  0  0  0  0
   12.1235  -18.2158   27.7901 O   0  0  0  0  0  0  0  0  0  0  0  0
   11.3158  -20.1820   28.4891 O   0  0  0  0  0  0  0  0  0  0  0  0
  2  3  1  0
  2  1  1  6
  3  4  1  0
  4  5  2  0
  5  6  1  0
  7  6  1  0
  8  7  2  0
  9  8  1  0
 10 11  1  0
 10  9  2  0
 11 12  2  0
 12  4  1  0
 12  7  1  0
 13 14  2  0
 13  2  1  0
 15 13  1  0
 16 15  1  0
 16 17  1  6
 17 18  1  0
 18 23  1  0
 18 19  2  0
 19 20  1  0
 20 21  2  0
 22 21  1  0
 23 22  2  0
 24 31  1  0
 24 16  1  0
 25 24  2  0
 27 26  1  6
 27 28  1  0
 27 29  1  0
 30 29  1  6
 30 32  1  0
 30 31  1  0
 32 33  1  0
 34 32  2  0
M  END
$$$$
