LRI.pdb
     RDKit          3D

 28 27  0  0  1  0  0  0  0  0999 V2000
    6.2210  -13.2520   18.0346 C   0  0  0  0  0  0  0  0  0  0  0  0
    7.5775  -13.5797   18.6647 C   0  0  1  0  0  0  0  0  0  0  0  0
    8.4800  -12.3911   18.7127 C   0  0  0  0  0  0  0  0  0  0  0  0
    7.3563  -14.1953   20.0311 C   0  0  0  0  0  0  0  0  0  0  0  0
    8.7017  -14.2870   20.7156 C   0  0  2  0  0  0  0  0  0  0  0  0
    9.6212  -14.9681   19.8221 N   0  0  0  0  0  0  0  0  0  0  0  0
    8.6379  -15.0517   21.9758 C   0  0  0  0  0  0  0  0  0  0  0  0
    7.7361  -14.8416   22.8265 O   0  0  0  0  0  0  0  0  0  0  0  0
   12.9458  -21.9562   25.7446 N   0  0  0  0  0  0  0  0  0  0  0  0
   11.9285  -21.6231   26.6967 C   0  0  0  0  0  0  0  0  0  0  0  0
   11.7934  -22.3415   27.7627 N   0  0  0  0  0  0  0  0  0  0  0  0
   11.1029  -20.5025   26.4215 N   0  0  0  0  0  0  0  0  0  0  0  0
   11.3487  -19.8002   25.1514 C   0  0  0  0  0  0  0  0  0  0  0  0
   10.2785  -18.7778   24.9559 C   0  0  0  0  0  0  0  0  0  0  0  0
   10.3697  -18.0059   23.6815 C   0  0  0  0  0  0  0  0  0  0  0  0
    9.5549  -16.7775   23.5604 C   0  0  2  0  0  0  0  0  0  0  0  0
    9.5847  -16.0781   22.3236 N   0  0  0  0  0  0  0  0  0  0  0  0
    9.8970  -15.8222   24.6864 C   0  0  0  0  0  0  0  0  0  0  0  0
   10.9605  -15.1723   24.5945 O   0  0  0  0  0  0  0  0  0  0  0  0
   11.0711  -22.1045   28.4603 C   0  0  0  0  0  0  0  0  0  0  0  0
    6.9174  -12.0599   26.3092 C   0  0  0  0  0  0  0  0  0  0  0  0
    8.0340  -13.0078   26.1007 C   0  0  2  0  0  0  0  0  0  0  0  0
    8.4657  -13.8846   27.1964 C   0  0  0  0  0  0  0  0  0  0  0  0
    8.8659  -13.0910   28.4440 C   0  0  2  0  0  0  0  0  0  0  0  0
    9.5277  -14.8791   26.9473 N   0  0  0  0  0  0  0  0  0  0  0  0
    9.0625  -15.6754   25.7745 C   0  0  0  0  0  0  0  0  0  0  0  0
    9.8358  -15.8168   28.0315 O   0  0  0  0  0  0  0  0  0  0  0  0
    9.2231  -16.9533   28.1113 O   0  0  0  0  0  0  0  0  0  0  0  0
  2  4  1  0
  2  1  1  1
  3  2  1  0
  5  4  1  0
  5  6  1  6
  7  5  1  0
  7  8  2  0
  9 10  1  0
 10 12  1  0
 10 11  2  0
 12 13  1  0
 13 14  1  0
 16 15  1  6
 15 14  1  0
 17 16  1  0
 17  7  1  0
 18 16  1  0
 19 18  2  0
 20 21  1  0
 21 22  1  0
 22 24  1  0
 22 23  1  1
 24 26  1  0
 24 25  1  6
 25 18  1  0
 26 28  1  0
 27 26  2  0
M  END
$$$$
