LRI.pdb
     RDKit          3D

 28 27  0  0  1  0  0  0  0  0999 V2000
    8.3024  -12.0366   18.2249 C   0  0  0  0  0  0  0  0  0  0  0  0
    8.5298  -13.5280   18.4862 C   0  0  1  0  0  0  0  0  0  0  0  0
    9.9207  -13.8152   18.9471 C   0  0  0  0  0  0  0  0  0  0  0  0
    7.4816  -14.0289   19.4585 C   0  0  0  0  0  0  0  0  0  0  0  0
    7.8326  -15.4559   19.8157 C   0  0  2  0  0  0  0  0  0  0  0  0
    7.2306  -16.3333   18.8282 N   0  0  0  0  0  0  0  0  0  0  0  0
    7.3203  -15.8429   21.1442 C   0  0  0  0  0  0  0  0  0  0  0  0
    6.1364  -15.5966   21.4887 O   0  0  0  0  0  0  0  0  0  0  0  0
    8.5772  -21.7810   27.1504 N   0  0  0  0  0  0  0  0  0  0  0  0
    7.3836  -21.1959   27.6845 C   0  0  0  0  0  0  0  0  0  0  0  0
    6.9996  -21.5088   28.8785 N   0  0  0  0  0  0  0  0  0  0  0  0
    6.6664  -20.2858   26.8658 N   0  0  0  0  0  0  0  0  0  0  0  0
    7.1682  -20.0980   25.4948 C   0  0  0  0  0  0  0  0  0  0  0  0
    7.1591  -18.6390   25.1784 C   0  0  0  0  0  0  0  0  0  0  0  0
    7.6444  -18.2878   23.8112 C   0  0  0  0  0  0  0  0  0  0  0  0
    7.6374  -16.8605   23.4233 C   0  0  2  0  0  0  0  0  0  0  0  0
    8.1201  -16.5194   22.1309 N   0  0  0  0  0  0  0  0  0  0  0  0
    8.3720  -16.0420   24.4663 C   0  0  0  0  0  0  0  0  0  0  0  0
    9.6212  -16.0386   24.4286 O   0  0  0  0  0  0  0  0  0  0  0  0
    6.2125  -21.0075   29.3187 C   0  0  0  0  0  0  0  0  0  0  0  0
    5.6361  -11.8414   26.6336 C   0  0  0  0  0  0  0  0  0  0  0  0
    6.7141  -12.6988   26.0936 C   0  0  2  0  0  0  0  0  0  0  0  0
    7.4769  -13.5721   26.9942 C   0  0  0  0  0  0  0  0  0  0  0  0
    8.2007  -12.7794   28.0870 C   0  0  2  0  0  0  0  0  0  0  0  0
    8.4499  -14.5233   26.4220 N   0  0  0  0  0  0  0  0  0  0  0  0
    7.6848  -15.3256   25.4236 C   0  0  0  0  0  0  0  0  0  0  0  0
    9.0967  -15.4588   27.3473 O   0  0  0  0  0  0  0  0  0  0  0  0
   10.1776  -15.1223   27.9734 O   0  0  0  0  0  0  0  0  0  0  0  0
  2  4  1  0
  2  1  1  1
  3  2  1  0
  5  4  1  0
  5  6  1  6
  7  5  1  0
  7  8  2  0
  9 10  1  0
 10 12  1  0
 10 11  2  0
 12 13  1  0
 13 14  1  0
 16 15  1  1
 15 14  1  0
 17 16  1  0
 17  7  1  0
 18 16  1  0
 19 18  2  0
 20 21  1  0
 21 22  1  0
 22 24  1  0
 22 23  1  1
 24 26  1  0
 24 25  1  6
 25 18  1  0
 26 28  1  0
 27 26  2  0
M  END
$$$$
