LRI.pdb
     RDKit          3D

 28 27  0  0  1  0  0  0  0  0999 V2000
    7.1598  -11.8663   19.0563 C   0  0  0  0  0  0  0  0  0  0  0  0
    7.8100  -13.2518   19.1000 C   0  0  1  0  0  0  0  0  0  0  0  0
    9.2613  -13.2061   18.7519 C   0  0  0  0  0  0  0  0  0  0  0  0
    7.5586  -13.8775   20.4566 C   0  0  0  0  0  0  0  0  0  0  0  0
    8.1066  -15.2865   20.4201 C   0  0  2  0  0  0  0  0  0  0  0  0
    7.3396  -16.0479   19.4508 N   0  0  0  0  0  0  0  0  0  0  0  0
    7.9953  -15.9646   21.7258 C   0  0  0  0  0  0  0  0  0  0  0  0
    6.8786  -16.1711   22.2655 O   0  0  0  0  0  0  0  0  0  0  0  0
   15.3922  -20.7751   23.7339 N   0  0  0  0  0  0  0  0  0  0  0  0
   13.9669  -20.8534   23.8556 C   0  0  0  0  0  0  0  0  0  0  0  0
   13.4115  -21.9898   24.1218 N   0  0  0  0  0  0  0  0  0  0  0  0
   13.2186  -19.6615   23.6754 N   0  0  0  0  0  0  0  0  0  0  0  0
   11.7777  -19.7390   23.9660 C   0  0  0  0  0  0  0  0  0  0  0  0
   11.1692  -18.3968   23.7266 C   0  0  0  0  0  0  0  0  0  0  0  0
    9.7029  -18.3132   23.9933 C   0  0  0  0  0  0  0  0  0  0  0  0
    9.0338  -17.0144   23.7629 C   0  0  2  0  0  0  0  0  0  0  0  0
    9.1344  -16.4338   22.4697 N   0  0  0  0  0  0  0  0  0  0  0  0
    9.4920  -16.0102   24.8017 C   0  0  0  0  0  0  0  0  0  0  0  0
   10.5541  -15.3895   24.5815 O   0  0  0  0  0  0  0  0  0  0  0  0
   12.3847  -22.0617   24.1935 C   0  0  0  0  0  0  0  0  0  0  0  0
    6.9897  -11.9353   26.1123 C   0  0  0  0  0  0  0  0  0  0  0  0
    8.0491  -12.9632   26.0124 C   0  0  2  0  0  0  0  0  0  0  0  0
    8.3647  -13.8059   27.1725 C   0  0  0  0  0  0  0  0  0  0  0  0
    8.8123  -12.9770   28.3805 C   0  0  2  0  0  0  0  0  0  0  0  0
    9.3277  -14.9139   27.0172 N   0  0  0  0  0  0  0  0  0  0  0  0
    8.7611  -15.7893   25.9502 C   0  0  0  0  0  0  0  0  0  0  0  0
    9.5828  -15.7503   28.1941 O   0  0  0  0  0  0  0  0  0  0  0  0
    8.8712  -16.8077   28.4155 O   0  0  0  0  0  0  0  0  0  0  0  0
  2  4  1  0
  2  1  1  1
  3  2  1  0
  5  4  1  0
  5  6  1  6
  7  5  1  0
  7  8  2  0
  9 10  1  0
 10 12  1  0
 10 11  2  0
 12 13  1  0
 13 14  1  0
 16 15  1  6
 15 14  1  0
 17 16  1  0
 17  7  1  0
 18 16  1  0
 19 18  2  0
 20 21  1  0
 21 22  1  0
 22 24  1  0
 22 23  1  1
 24 26  1  0
 24 25  1  6
 25 18  1  0
 26 28  1  0
 27 26  2  0
M  END
$$$$
