LRI.pdb
     RDKit          3D

 28 27  0  0  1  0  0  0  0  0999 V2000
    6.2742  -22.2943   27.4017 C   0  0  0  0  0  0  0  0  0  0  0  0
    6.2351  -22.3879   25.8739 C   0  0  1  0  0  0  0  0  0  0  0  0
    4.8455  -22.2862   25.3369 C   0  0  0  0  0  0  0  0  0  0  0  0
    7.1615  -21.3428   25.2869 C   0  0  0  0  0  0  0  0  0  0  0  0
    6.4561  -20.0076   25.3685 C   0  0  2  0  0  0  0  0  0  0  0  0
    5.1561  -20.1404   24.7362 N   0  0  0  0  0  0  0  0  0  0  0  0
    7.1970  -18.9393   24.6707 C   0  0  0  0  0  0  0  0  0  0  0  0
    8.3816  -18.6523   24.9793 O   0  0  0  0  0  0  0  0  0  0  0  0
    7.0194  -12.4637   19.0143 N   0  0  0  0  0  0  0  0  0  0  0  0
    8.2846  -13.1031   18.8074 C   0  0  0  0  0  0  0  0  0  0  0  0
    9.2797  -12.4149   18.3524 N   0  0  0  0  0  0  0  0  0  0  0  0
    8.3890  -14.4840   19.1161 N   0  0  0  0  0  0  0  0  0  0  0  0
    7.2040  -15.1146   19.7201 C   0  0  0  0  0  0  0  0  0  0  0  0
    7.4546  -15.3023   21.1799 C   0  0  0  0  0  0  0  0  0  0  0  0
    6.7253  -16.4464   21.8023 C   0  0  0  0  0  0  0  0  0  0  0  0
    7.2723  -17.0126   23.0543 C   0  0  2  0  0  0  0  0  0  0  0  0
    6.6326  -18.1570   23.6028 N   0  0  0  0  0  0  0  0  0  0  0  0
    7.3590  -15.9302   24.1119 C   0  0  0  0  0  0  0  0  0  0  0  0
    6.6676  -14.9019   23.9493 O   0  0  0  0  0  0  0  0  0  0  0  0
   10.2001  -12.8607   18.2164 C   0  0  0  0  0  0  0  0  0  0  0  0
    5.9923  -12.4742   26.1743 C   0  0  0  0  0  0  0  0  0  0  0  0
    7.0164  -13.3196   25.5223 C   0  0  2  0  0  0  0  0  0  0  0  0
    8.0320  -13.9998   26.3357 C   0  0  0  0  0  0  0  0  0  0  0  0
    8.8482  -13.0145   27.1781 C   0  0  2  0  0  0  0  0  0  0  0  0
    8.9867  -14.9144   25.6791 N   0  0  0  0  0  0  0  0  0  0  0  0
    8.1731  -16.0759   25.2155 C   0  0  0  0  0  0  0  0  0  0  0  0
   10.0862  -15.4358   26.4969 O   0  0  0  0  0  0  0  0  0  0  0  0
    9.9960  -16.5996   27.0544 O   0  0  0  0  0  0  0  0  0  0  0  0
  2  4  1  0
  2  1  1  1
  3  2  1  0
  5  4  1  0
  5  6  1  6
  7  5  1  0
  7  8  2  0
  9 10  1  0
 10 12  1  0
 10 11  2  0
 12 13  1  0
 13 14  1  0
 16 15  1  6
 15 14  1  0
 17 16  1  0
 17  7  1  0
 18 16  1  0
 19 18  2  0
 20 21  1  0
 21 22  1  0
 22 24  1  0
 22 23  1  1
 24 26  1  0
 24 25  1  6
 25 18  1  0
 26 28  1  0
 27 26  2  0
M  END
$$$$
