LRI.pdb
     RDKit          3D

 28 27  0  0  1  0  0  0  0  0999 V2000
    7.3678  -11.6180   19.1786 C   0  0  0  0  0  0  0  0  0  0  0  0
    7.8284  -13.0761   19.1007 C   0  0  1  0  0  0  0  0  0  0  0  0
    9.2490  -13.1969   18.6570 C   0  0  0  0  0  0  0  0  0  0  0  0
    7.5784  -13.7494   20.4346 C   0  0  0  0  0  0  0  0  0  0  0  0
    7.8686  -15.2239   20.2652 C   0  0  2  0  0  0  0  0  0  0  0  0
    6.7732  -15.8207   19.5227 N   0  0  0  0  0  0  0  0  0  0  0  0
    7.9798  -15.9249   21.5587 C   0  0  0  0  0  0  0  0  0  0  0  0
    6.9909  -16.0499   22.3251 O   0  0  0  0  0  0  0  0  0  0  0  0
    8.7715  -20.8106   27.1268 N   0  0  0  0  0  0  0  0  0  0  0  0
   10.1713  -21.1121   27.1706 C   0  0  0  0  0  0  0  0  0  0  0  0
   10.6899  -21.5745   28.2606 N   0  0  0  0  0  0  0  0  0  0  0  0
   10.9363  -20.8856   25.9973 N   0  0  0  0  0  0  0  0  0  0  0  0
   10.2144  -20.3403   24.8362 C   0  0  0  0  0  0  0  0  0  0  0  0
   10.3510  -18.8536   24.8439 C   0  0  0  0  0  0  0  0  0  0  0  0
   10.2769  -18.2071   23.5005 C   0  0  0  0  0  0  0  0  0  0  0  0
    9.3472  -17.0689   23.3342 C   0  0  2  0  0  0  0  0  0  0  0  0
    9.2054  -16.5093   22.0355 N   0  0  0  0  0  0  0  0  0  0  0  0
    9.6987  -15.9714   24.3187 C   0  0  0  0  0  0  0  0  0  0  0  0
   10.6875  -15.2525   24.0593 O   0  0  0  0  0  0  0  0  0  0  0  0
   11.6979  -21.7899   28.3052 C   0  0  0  0  0  0  0  0  0  0  0  0
    6.7738  -12.1324   25.6596 C   0  0  0  0  0  0  0  0  0  0  0  0
    7.9018  -13.0788   25.5159 C   0  0  2  0  0  0  0  0  0  0  0  0
    8.3797  -13.8324   26.6818 C   0  0  0  0  0  0  0  0  0  0  0  0
    8.7996  -12.9095   27.8302 C   0  0  2  0  0  0  0  0  0  0  0  0
    9.4525  -14.8306   26.5040 N   0  0  0  0  0  0  0  0  0  0  0  0
    8.9524  -15.7734   25.4614 C   0  0  0  0  0  0  0  0  0  0  0  0
    9.8331  -15.6221   27.6780 O   0  0  0  0  0  0  0  0  0  0  0  0
    9.1652  -16.6819   28.0007 O   0  0  0  0  0  0  0  0  0  0  0  0
  2  4  1  0
  2  1  1  1
  3  2  1  0
  5  4  1  0
  5  6  1  6
  7  5  1  0
  7  8  2  0
  9 10  1  0
 10 12  1  0
 10 11  2  0
 12 13  1  0
 13 14  1  0
 16 15  1  6
 15 14  1  0
 17 16  1  0
 17  7  1  0
 18 16  1  0
 19 18  2  0
 20 21  1  0
 21 22  1  0
 22 24  1  0
 22 23  1  1
 24 26  1  0
 24 25  1  6
 25 18  1  0
 26 28  1  0
 27 26  2  0
M  END
$$$$
