LRI.pdb
     RDKit          3D

 28 27  0  0  1  0  0  0  0  0999 V2000
    6.8567  -12.4495   17.8127 C   0  0  0  0  0  0  0  0  0  0  0  0
    7.9914  -13.1737   18.5425 C   0  0  1  0  0  0  0  0  0  0  0  0
    9.1394  -12.2673   18.8424 C   0  0  0  0  0  0  0  0  0  0  0  0
    7.4386  -13.8400   19.7857 C   0  0  0  0  0  0  0  0  0  0  0  0
    8.6074  -14.4070   20.5599 C   0  0  2  0  0  0  0  0  0  0  0  0
    9.2273  -15.4432   19.7538 N   0  0  0  0  0  0  0  0  0  0  0  0
    8.1910  -15.0113   21.8399 C   0  0  0  0  0  0  0  0  0  0  0  0
    7.5567  -14.3515   22.7020 O   0  0  0  0  0  0  0  0  0  0  0  0
    7.4347  -22.5979   22.3267 N   0  0  0  0  0  0  0  0  0  0  0  0
    7.6135  -22.0731   21.0058 C   0  0  0  0  0  0  0  0  0  0  0  0
    6.9596  -22.5931   20.0195 N   0  0  0  0  0  0  0  0  0  0  0  0
    8.5142  -20.9898   20.8380 N   0  0  0  0  0  0  0  0  0  0  0  0
    8.9266  -20.2815   22.0607 C   0  0  0  0  0  0  0  0  0  0  0  0
    7.8948  -19.2533   22.3882 C   0  0  0  0  0  0  0  0  0  0  0  0
    8.1969  -18.4173   23.5873 C   0  0  0  0  0  0  0  0  0  0  0  0
    8.1051  -16.9481   23.4436 C   0  0  2  0  0  0  0  0  0  0  0  0
    8.4731  -16.3770   22.1954 N   0  0  0  0  0  0  0  0  0  0  0  0
    8.8860  -16.2743   24.5543 C   0  0  0  0  0  0  0  0  0  0  0  0
   10.0962  -16.0367   24.3526 O   0  0  0  0  0  0  0  0  0  0  0  0
    7.0775  -22.2207   19.0645 C   0  0  0  0  0  0  0  0  0  0  0  0
    6.7083  -12.0772   26.3686 C   0  0  0  0  0  0  0  0  0  0  0  0
    7.6783  -13.1472   26.0477 C   0  0  2  0  0  0  0  0  0  0  0  0
    8.1971  -14.0109   27.1155 C   0  0  0  0  0  0  0  0  0  0  0  0
    8.9307  -13.2109   28.1965 C   0  0  2  0  0  0  0  0  0  0  0  0
    9.0530  -15.1600   26.7606 N   0  0  0  0  0  0  0  0  0  0  0  0
    8.2809  -15.9352   25.7463 C   0  0  0  0  0  0  0  0  0  0  0  0
    9.4226  -16.0797   27.8409 O   0  0  0  0  0  0  0  0  0  0  0  0
    8.6573  -17.0774   28.1452 O   0  0  0  0  0  0  0  0  0  0  0  0
  2  4  1  0
  2  1  1  1
  3  2  1  0
  5  4  1  0
  5  6  1  6
  7  5  1  0
  7  8  2  0
  9 10  1  0
 10 12  1  0
 10 11  2  0
 12 13  1  0
 13 14  1  0
 16 15  1  6
 15 14  1  0
 17 16  1  0
 17  7  1  0
 18 16  1  0
 19 18  2  0
 20 21  1  0
 21 22  1  0
 22 24  1  0
 22 23  1  1
 24 26  1  0
 24 25  1  6
 25 18  1  0
 26 28  1  0
 27 26  2  0
M  END
$$$$
