LRI.pdb
     RDKit          3D

 28 27  0  0  1  0  0  0  0  0999 V2000
    7.4364  -12.1244   18.1273 C   0  0  0  0  0  0  0  0  0  0  0  0
    7.9976  -13.4935   18.5210 C   0  0  1  0  0  0  0  0  0  0  0  0
    9.4611  -13.4416   18.8123 C   0  0  0  0  0  0  0  0  0  0  0  0
    7.1948  -14.0461   19.6808 C   0  0  0  0  0  0  0  0  0  0  0  0
    7.7886  -15.3865   20.0517 C   0  0  2  0  0  0  0  0  0  0  0  0
    7.3200  -16.3723   19.0945 N   0  0  0  0  0  0  0  0  0  0  0  0
    7.3792  -15.8269   21.3991 C   0  0  0  0  0  0  0  0  0  0  0  0
    6.1715  -15.8344   21.7488 O   0  0  0  0  0  0  0  0  0  0  0  0
    5.4161  -21.2561   25.3456 N   0  0  0  0  0  0  0  0  0  0  0  0
    6.5500  -20.7869   26.0848 C   0  0  0  0  0  0  0  0  0  0  0  0
    6.4897  -20.7272   27.3747 N   0  0  0  0  0  0  0  0  0  0  0  0
    7.7053  -20.4033   25.3560 N   0  0  0  0  0  0  0  0  0  0  0  0
    7.5985  -20.4367   23.8883 C   0  0  0  0  0  0  0  0  0  0  0  0
    7.3897  -19.0439   23.3927 C   0  0  0  0  0  0  0  0  0  0  0  0
    8.0751  -17.9828   24.1880 C   0  0  0  0  0  0  0  0  0  0  0  0
    7.9337  -16.5823   23.7341 C   0  0  2  0  0  0  0  0  0  0  0  0
    8.3123  -16.2735   22.3996 N   0  0  0  0  0  0  0  0  0  0  0  0
    8.6613  -15.6576   24.6897 C   0  0  0  0  0  0  0  0  0  0  0  0
    9.8278  -15.3186   24.3957 O   0  0  0  0  0  0  0  0  0  0  0  0
    7.3049  -20.4036   27.9180 C   0  0  0  0  0  0  0  0  0  0  0  0
    5.8248  -12.0801   27.8971 C   0  0  0  0  0  0  0  0  0  0  0  0
    6.5813  -13.2591   27.4212 C   0  0  2  0  0  0  0  0  0  0  0  0
    7.9435  -13.0943   26.8988 C   0  0  0  0  0  0  0  0  0  0  0  0
    7.9603  -12.3426   25.5642 C   0  0  1  0  0  0  0  0  0  0  0  0
    8.8049  -14.2832   26.7458 N   0  0  0  0  0  0  0  0  0  0  0  0
    8.0562  -15.2059   25.8436 C   0  0  0  0  0  0  0  0  0  0  0  0
    9.1452  -15.0258   27.9634 O   0  0  0  0  0  0  0  0  0  0  0  0
    8.6513  -16.2025   28.1751 O   0  0  0  0  0  0  0  0  0  0  0  0
  2  4  1  0
  2  1  1  1
  3  2  1  0
  5  4  1  0
  5  6  1  6
  7  5  1  0
  7  8  2  0
  9 10  1  0
 10 12  1  0
 10 11  2  0
 12 13  1  0
 13 14  1  0
 16 15  1  1
 15 14  1  0
 17 16  1  0
 17  7  1  0
 18 16  1  0
 19 18  2  0
 20 21  1  0
 21 22  1  0
 22 24  1  0
 22 23  1  1
 24 26  1  0
 24 25  1  6
 25 18  1  0
 26 28  1  0
 27 26  2  0
M  END
$$$$
