LRI.pdb
     RDKit          3D

 28 27  0  0  1  0  0  0  0  0999 V2000
    7.3770  -11.7911   19.1171 C   0  0  0  0  0  0  0  0  0  0  0  0
    7.9352  -13.2146   19.0367 C   0  0  1  0  0  0  0  0  0  0  0  0
    9.3692  -13.2365   18.6211 C   0  0  0  0  0  0  0  0  0  0  0  0
    7.7043  -13.9156   20.3597 C   0  0  0  0  0  0  0  0  0  0  0  0
    8.3174  -15.2946   20.2608 C   0  0  2  0  0  0  0  0  0  0  0  0
    7.4730  -16.1074   19.4041 N   0  0  0  0  0  0  0  0  0  0  0  0
    8.4126  -15.9606   21.5739 C   0  0  0  0  0  0  0  0  0  0  0  0
    7.3864  -16.2382   22.2454 O   0  0  0  0  0  0  0  0  0  0  0  0
   14.1802  -19.6775   25.6885 N   0  0  0  0  0  0  0  0  0  0  0  0
   13.2737  -20.2704   26.6261 C   0  0  0  0  0  0  0  0  0  0  0  0
   13.7014  -20.6132   27.7967 N   0  0  0  0  0  0  0  0  0  0  0  0
   11.9270  -20.4573   26.2204 N   0  0  0  0  0  0  0  0  0  0  0  0
   11.6047  -20.1068   24.8276 C   0  0  0  0  0  0  0  0  0  0  0  0
   10.7414  -18.8887   24.8291 C   0  0  0  0  0  0  0  0  0  0  0  0
   10.6838  -18.1557   23.5300 C   0  0  0  0  0  0  0  0  0  0  0  0
    9.7535  -17.0106   23.4259 C   0  0  2  0  0  0  0  0  0  0  0  0
    9.6635  -16.3373   22.1776 N   0  0  0  0  0  0  0  0  0  0  0  0
   10.0544  -16.0045   24.5190 C   0  0  0  0  0  0  0  0  0  0  0  0
   11.0317  -15.2429   24.3552 O   0  0  0  0  0  0  0  0  0  0  0  0
   13.0709  -21.0878   28.4614 C   0  0  0  0  0  0  0  0  0  0  0  0
    6.4626  -12.8187   26.1011 C   0  0  0  0  0  0  0  0  0  0  0  0
    7.7434  -13.5236   25.8745 C   0  0  2  0  0  0  0  0  0  0  0  0
    8.4269  -14.1809   26.9954 C   0  0  0  0  0  0  0  0  0  0  0  0
    8.7516  -13.1994   28.1258 C   0  0  2  0  0  0  0  0  0  0  0  0
    9.6467  -14.9696   26.7326 N   0  0  0  0  0  0  0  0  0  0  0  0
    9.2757  -15.9323   25.6550 C   0  0  0  0  0  0  0  0  0  0  0  0
   10.2007  -15.7401   27.8503 O   0  0  0  0  0  0  0  0  0  0  0  0
    9.7328  -16.9117   28.1365 O   0  0  0  0  0  0  0  0  0  0  0  0
  2  4  1  0
  2  1  1  1
  3  2  1  0
  5  4  1  0
  5  6  1  6
  7  5  1  0
  7  8  2  0
  9 10  1  0
 10 12  1  0
 10 11  2  0
 12 13  1  0
 13 14  1  0
 16 15  1  6
 15 14  1  0
 17 16  1  0
 17  7  1  0
 18 16  1  0
 19 18  2  0
 20 21  1  0
 21 22  1  0
 22 24  1  0
 22 23  1  1
 24 26  1  0
 24 25  1  6
 25 18  1  0
 26 28  1  0
 27 26  2  0
M  END
$$$$
