LRI.pdb
     RDKit          3D

 28 27  0  0  1  0  0  0  0  0999 V2000
    9.1186  -12.4323   19.3192 C   0  0  0  0  0  0  0  0  0  0  0  0
    7.8896  -13.3305   19.1544 C   0  0  1  0  0  0  0  0  0  0  0  0
    6.8615  -12.7225   18.2584 C   0  0  0  0  0  0  0  0  0  0  0  0
    8.3332  -14.7000   18.6824 C   0  0  0  0  0  0  0  0  0  0  0  0
    9.1698  -15.3149   19.7819 C   0  0  2  0  0  0  0  0  0  0  0  0
    9.6090  -16.6262   19.3400 N   0  0  0  0  0  0  0  0  0  0  0  0
    8.4098  -15.4854   21.0350 C   0  0  0  0  0  0  0  0  0  0  0  0
    7.8916  -14.5049   21.6273 O   0  0  0  0  0  0  0  0  0  0  0  0
    9.2630  -20.9202   26.8106 N   0  0  0  0  0  0  0  0  0  0  0  0
    8.2337  -21.4405   25.9609 C   0  0  0  0  0  0  0  0  0  0  0  0
    7.7866  -22.6368   26.1605 N   0  0  0  0  0  0  0  0  0  0  0  0
    7.7444  -20.6060   24.9229 N   0  0  0  0  0  0  0  0  0  0  0  0
    6.5061  -19.8621   25.2053 C   0  0  0  0  0  0  0  0  0  0  0  0
    6.6828  -18.4506   24.7521 C   0  0  0  0  0  0  0  0  0  0  0  0
    7.3325  -18.2941   23.4174 C   0  0  0  0  0  0  0  0  0  0  0  0
    7.5109  -16.9220   22.8948 C   0  0  2  0  0  0  0  0  0  0  0  0
    8.2063  -16.7629   21.6656 N   0  0  0  0  0  0  0  0  0  0  0  0
    8.1558  -16.0498   23.9535 C   0  0  0  0  0  0  0  0  0  0  0  0
    9.4017  -15.9514   23.9459 O   0  0  0  0  0  0  0  0  0  0  0  0
    7.1008  -23.0500   25.5098 C   0  0  0  0  0  0  0  0  0  0  0  0
    6.2999  -11.3790   27.5030 C   0  0  0  0  0  0  0  0  0  0  0  0
    7.3528  -12.3170   27.0554 C   0  0  2  0  0  0  0  0  0  0  0  0
    7.0051  -13.4507   26.1898 C   0  0  0  0  0  0  0  0  0  0  0  0
    5.8179  -14.2491   26.7372 C   0  0  2  0  0  0  0  0  0  0  0  0
    8.0537  -14.4204   25.8168 N   0  0  0  0  0  0  0  0  0  0  0  0
    7.3933  -15.3876   24.8926 C   0  0  0  0  0  0  0  0  0  0  0  0
    8.6728  -15.1886   26.9014 O   0  0  0  0  0  0  0  0  0  0  0  0
    8.2368  -16.3687   27.2027 O   0  0  0  0  0  0  0  0  0  0  0  0
  2  4  1  0
  2  1  1  6
  3  2  1  0
  5  4  1  0
  5  6  1  6
  7  5  1  0
  7  8  2  0
  9 10  1  0
 10 12  1  0
 10 11  2  0
 12 13  1  0
 13 14  1  0
 16 15  1  1
 15 14  1  0
 17 16  1  0
 17  7  1  0
 18 16  1  0
 19 18  2  0
 20 21  1  0
 21 22  1  0
 22 24  1  0
 22 23  1  6
 24 26  1  0
 24 25  1  1
 25 18  1  0
 26 28  1  0
 27 26  2  0
M  END
$$$$
