LRI.pdb
     RDKit          3D

 28 27  0  0  1  0  0  0  0  0999 V2000
    7.0394  -11.8241   19.2174 C   0  0  0  0  0  0  0  0  0  0  0  0
    7.9728  -13.0378   19.2052 C   0  0  1  0  0  0  0  0  0  0  0  0
    9.3904  -12.6632   19.4874 C   0  0  0  0  0  0  0  0  0  0  0  0
    7.4459  -14.0810   20.1691 C   0  0  0  0  0  0  0  0  0  0  0  0
    8.4325  -15.2270   20.1884 C   0  0  2  0  0  0  0  0  0  0  0  0
    8.0875  -16.1424   19.1158 N   0  0  0  0  0  0  0  0  0  0  0  0
    8.3957  -15.9764   21.4588 C   0  0  0  0  0  0  0  0  0  0  0  0
    7.3332  -16.4981   21.8829 O   0  0  0  0  0  0  0  0  0  0  0  0
   12.2389  -19.9233   21.0968 N   0  0  0  0  0  0  0  0  0  0  0  0
   11.2620  -20.8896   20.6916 C   0  0  0  0  0  0  0  0  0  0  0  0
   11.3404  -21.4206   19.5157 N   0  0  0  0  0  0  0  0  0  0  0  0
   10.2371  -21.2247   21.6138 N   0  0  0  0  0  0  0  0  0  0  0  0
   10.1922  -20.4428   22.8601 C   0  0  0  0  0  0  0  0  0  0  0  0
   10.4033  -19.0025   22.5283 C   0  0  0  0  0  0  0  0  0  0  0  0
   10.3259  -18.0702   23.6915 C   0  0  0  0  0  0  0  0  0  0  0  0
    9.5058  -16.8485   23.5415 C   0  0  2  0  0  0  0  0  0  0  0  0
    9.5507  -16.1651   22.2963 N   0  0  0  0  0  0  0  0  0  0  0  0
    9.8244  -15.8764   24.6600 C   0  0  0  0  0  0  0  0  0  0  0  0
   10.9408  -15.3149   24.6418 O   0  0  0  0  0  0  0  0  0  0  0  0
   10.5897  -22.0412   19.1752 C   0  0  0  0  0  0  0  0  0  0  0  0
    6.6593  -12.0433   25.7718 C   0  0  0  0  0  0  0  0  0  0  0  0
    7.8205  -12.9580   25.7101 C   0  0  2  0  0  0  0  0  0  0  0  0
    8.2081  -13.7319   26.8960 C   0  0  0  0  0  0  0  0  0  0  0  0
    8.5249  -12.8299   28.0928 C   0  0  2  0  0  0  0  0  0  0  0  0
    9.3003  -14.7189   26.7867 N   0  0  0  0  0  0  0  0  0  0  0  0
    8.9131  -15.6207   25.6630 C   0  0  0  0  0  0  0  0  0  0  0  0
    9.5679  -15.5555   27.9606 O   0  0  0  0  0  0  0  0  0  0  0  0
   10.2863  -15.1060   28.9380 O   0  0  0  0  0  0  0  0  0  0  0  0
  2  4  1  0
  2  1  1  1
  3  2  1  0
  5  4  1  0
  5  6  1  6
  7  5  1  0
  7  8  2  0
  9 10  1  0
 10 12  1  0
 10 11  2  0
 12 13  1  0
 13 14  1  0
 16 15  1  6
 15 14  1  0
 17 16  1  0
 17  7  1  0
 18 16  1  0
 19 18  2  0
 20 21  1  0
 21 22  1  0
 22 24  1  0
 22 23  1  1
 24 26  1  0
 24 25  1  6
 25 18  1  0
 26 28  1  0
 27 26  2  0
M  END
$$$$
