CDP.pdb
     RDKit          3D

 22 22  0  0  1  0  0  0  0  0999 V2000
    7.9550  -15.7301   18.7682 N   0  0  0  0  0  0  0  0  0  0  0  0
    8.2701  -14.7742   19.7772 C   0  0  1  0  0  0  0  0  0  0  0  0
    7.8377  -13.4025   19.2669 C   0  0  0  0  0  0  0  0  0  0  0  0
    8.0651  -12.1626   20.5587 S   0  0  0  0  0  0  0  0  0  0  0  0
    7.4095  -15.0252   20.9987 C   0  0  0  0  0  0  0  0  0  0  0  0
    6.2743  -15.4800   20.7379 O   0  0  0  0  0  0  0  0  0  0  0  0
    7.9112  -14.7481   22.2648 N   0  0  0  0  0  0  0  0  0  0  0  0
    7.2579  -15.1462   23.4950 C   0  0  1  0  0  0  0  0  0  0  0  0
    7.3744  -16.6706   23.5031 C   0  0  0  0  0  0  0  0  0  0  0  0
    6.8989  -17.3610   24.6880 C   0  0  0  0  0  0  0  0  0  0  0  0
    5.7895  -17.3290   25.2021 O   0  0  0  0  0  0  0  0  0  0  0  0
    7.9826  -14.4841   24.5866 C   0  0  0  0  0  0  0  0  0  0  0  0
    9.2415  -14.7486   24.7659 O   0  0  0  0  0  0  0  0  0  0  0  0
    7.8482  -18.1864   25.3413 O   0  0  0  0  0  0  0  0  0  0  0  0
    7.4806  -13.5419   25.5182 N   0  0  0  0  0  0  0  0  0  0  0  0
    6.0897  -13.0508   25.4487 C   0  0  0  0  0  0  0  0  0  0  0  0
    6.1420  -11.7913   26.3338 C   0  0  0  0  0  0  0  0  0  0  0  0
    6.9934  -12.3369   27.4518 C   0  0  0  0  0  0  0  0  0  0  0  0
    8.1394  -13.0114   26.6620 C   0  0  1  0  0  0  0  0  0  0  0  0
    8.6565  -14.0804   27.5697 C   0  0  0  0  0  0  0  0  0  0  0  0
    9.4707  -13.7841   28.4582 O   0  0  0  0  0  0  0  0  0  0  0  0
    8.2367  -15.3803   27.4251 O   0  0  0  0  0  0  0  0  0  0  0  0
  2  1  1  6
  2  5  1  0
  2  3  1  0
  4  3  1  0
  5  6  2  0
  7  5  1  0
  7  8  1  0
  8 12  1  0
  8  9  1  1
 10  9  1  0
 10 11  2  0
 12 13  2  0
 12 15  1  0
 14 10  1  0
 15 16  1  0
 15 19  1  0
 16 17  1  0
 17 18  1  0
 19 18  1  0
 19 20  1  1
 20 22  1  0
 21 20  2  0
M  END
$$$$
