CDP.pdb
     RDKit          3D

 22 22  0  0  1  0  0  0  0  0999 V2000
    9.6137  -15.4613   20.1333 N   0  0  0  0  0  0  0  0  0  0  0  0
    9.0106  -14.1850   20.3291 C   0  0  1  0  0  0  0  0  0  0  0  0
    8.0674  -13.9335   19.1559 C   0  0  0  0  0  0  0  0  0  0  0  0
    7.3723  -12.2715   19.2668 S   0  0  0  0  0  0  0  0  0  0  0  0
    8.1127  -14.2311   21.5486 C   0  0  0  0  0  0  0  0  0  0  0  0
    7.5717  -13.1382   21.8252 O   0  0  0  0  0  0  0  0  0  0  0  0
    7.9561  -15.4234   22.2453 N   0  0  0  0  0  0  0  0  0  0  0  0
    7.2364  -15.5361   23.4975 C   0  0  1  0  0  0  0  0  0  0  0  0
    7.1059  -17.0433   23.7186 C   0  0  0  0  0  0  0  0  0  0  0  0
    6.6843  -17.4814   25.0366 C   0  0  0  0  0  0  0  0  0  0  0  0
    5.5738  -17.4238   25.5462 O   0  0  0  0  0  0  0  0  0  0  0  0
    8.0485  -14.8502   24.5100 C   0  0  0  0  0  0  0  0  0  0  0  0
    9.3139  -15.1276   24.6045 O   0  0  0  0  0  0  0  0  0  0  0  0
    7.6961  -18.0552   25.8468 O   0  0  0  0  0  0  0  0  0  0  0  0
    7.6291  -13.8709   25.4443 N   0  0  0  0  0  0  0  0  0  0  0  0
    6.2483  -13.3476   25.4492 C   0  0  0  0  0  0  0  0  0  0  0  0
    6.3861  -12.0663   26.2928 C   0  0  0  0  0  0  0  0  0  0  0  0
    7.2947  -12.6024   27.3697 C   0  0  0  0  0  0  0  0  0  0  0  0
    8.3719  -13.3261   26.5283 C   0  0  1  0  0  0  0  0  0  0  0  0
    8.9214  -14.3827   27.4316 C   0  0  0  0  0  0  0  0  0  0  0  0
    8.4929  -15.5440   27.3421 O   0  0  0  0  0  0  0  0  0  0  0  0
    9.8919  -14.0753   28.3538 O   0  0  0  0  0  0  0  0  0  0  0  0
  2  1  1  6
  2  5  1  0
  2  3  1  0
  4  3  1  0
  5  6  2  0
  7  5  1  0
  7  8  1  0
  8 12  1  0
  8  9  1  1
 10  9  1  0
 10 11  2  0
 12 13  2  0
 12 15  1  0
 14 10  1  0
 15 16  1  0
 15 19  1  0
 16 17  1  0
 17 18  1  0
 19 18  1  0
 19 20  1  1
 20 22  1  0
 21 20  2  0
M  END
$$$$
