CDP.pdb
     RDKit          3D

 22 22  0  0  1  0  0  0  0  0999 V2000
    7.6845  -15.1882   18.9125 N   0  0  0  0  0  0  0  0  0  0  0  0
    8.2194  -14.5587   20.0738 C   0  0  1  0  0  0  0  0  0  0  0  0
    7.9375  -13.0631   19.9614 C   0  0  0  0  0  0  0  0  0  0  0  0
    9.0096  -12.3241   18.7115 S   0  0  0  0  0  0  0  0  0  0  0  0
    7.4464  -15.0107   21.2961 C   0  0  0  0  0  0  0  0  0  0  0  0
    6.4278  -15.6869   21.0339 O   0  0  0  0  0  0  0  0  0  0  0  0
    7.8959  -14.6626   22.5642 N   0  0  0  0  0  0  0  0  0  0  0  0
    7.3463  -15.2040   23.7904 C   0  0  1  0  0  0  0  0  0  0  0  0
    7.5940  -16.7085   23.6781 C   0  0  0  0  0  0  0  0  0  0  0  0
    7.2646  -17.5184   24.8366 C   0  0  0  0  0  0  0  0  0  0  0  0
    7.9232  -18.4008   25.3691 O   0  0  0  0  0  0  0  0  0  0  0  0
    8.0688  -14.5586   24.8934 C   0  0  0  0  0  0  0  0  0  0  0  0
    9.3303  -14.8168   25.0640 O   0  0  0  0  0  0  0  0  0  0  0  0
    6.0076  -17.2524   25.4355 O   0  0  0  0  0  0  0  0  0  0  0  0
    7.5621  -13.6395   25.8453 N   0  0  0  0  0  0  0  0  0  0  0  0
    6.1761  -13.1354   25.7722 C   0  0  0  0  0  0  0  0  0  0  0  0
    6.2265  -11.9023   26.6939 C   0  0  0  0  0  0  0  0  0  0  0  0
    7.0591  -12.4867   27.8064 C   0  0  0  0  0  0  0  0  0  0  0  0
    8.2101  -13.1474   27.0123 C   0  0  1  0  0  0  0  0  0  0  0  0
    8.7070  -14.2463   27.8953 C   0  0  0  0  0  0  0  0  0  0  0  0
    8.2831  -15.4007   27.7285 O   0  0  0  0  0  0  0  0  0  0  0  0
    9.6245  -13.9848   28.8836 O   0  0  0  0  0  0  0  0  0  0  0  0
  2  1  1  6
  2  5  1  0
  2  3  1  0
  4  3  1  0
  5  6  2  0
  7  5  1  0
  7  8  1  0
  8 12  1  0
  8  9  1  6
 10  9  1  0
 10 11  2  0
 12 13  2  0
 12 15  1  0
 14 10  1  0
 15 16  1  0
 15 19  1  0
 16 17  1  0
 17 18  1  0
 19 18  1  0
 19 20  1  1
 20 22  1  0
 21 20  2  0
M  END
$$$$
