CDP.pdb
     RDKit          3D

 22 22  0  0  1  0  0  0  0  0999 V2000
    7.7835  -15.6739   18.8396 N   0  0  0  0  0  0  0  0  0  0  0  0
    8.2555  -14.8503   19.9026 C   0  0  1  0  0  0  0  0  0  0  0  0
    8.0245  -13.3965   19.4998 C   0  0  0  0  0  0  0  0  0  0  0  0
    8.5345  -12.2962   20.8365 S   0  0  0  0  0  0  0  0  0  0  0  0
    7.3883  -15.0583   21.1275 C   0  0  0  0  0  0  0  0  0  0  0  0
    6.2200  -15.4217   20.8694 O   0  0  0  0  0  0  0  0  0  0  0  0
    7.9196  -14.8429   22.3935 N   0  0  0  0  0  0  0  0  0  0  0  0
    7.2737  -15.2630   23.6203 C   0  0  1  0  0  0  0  0  0  0  0  0
    7.4503  -16.7816   23.6340 C   0  0  0  0  0  0  0  0  0  0  0  0
    6.8797  -17.5007   24.7582 C   0  0  0  0  0  0  0  0  0  0  0  0
    7.0740  -18.6563   25.1092 O   0  0  0  0  0  0  0  0  0  0  0  0
    7.9638  -14.5697   24.7149 C   0  0  0  0  0  0  0  0  0  0  0  0
    9.2251  -14.8026   24.9196 O   0  0  0  0  0  0  0  0  0  0  0  0
    5.9723  -16.7656   25.5617 O   0  0  0  0  0  0  0  0  0  0  0  0
    7.4241  -13.6269   25.6247 N   0  0  0  0  0  0  0  0  0  0  0  0
    6.0188  -13.1823   25.5351 C   0  0  0  0  0  0  0  0  0  0  0  0
    6.0233  -11.9055   26.3966 C   0  0  0  0  0  0  0  0  0  0  0  0
    6.8824  -12.4024   27.5313 C   0  0  0  0  0  0  0  0  0  0  0  0
    8.0560  -13.0542   26.7633 C   0  0  1  0  0  0  0  0  0  0  0  0
    8.5995  -14.0889   27.6950 C   0  0  0  0  0  0  0  0  0  0  0  0
    8.2169  -15.2648   27.5897 O   0  0  0  0  0  0  0  0  0  0  0  0
    9.5143  -13.7455   28.6605 O   0  0  0  0  0  0  0  0  0  0  0  0
  2  1  1  6
  2  5  1  0
  2  3  1  0
  4  3  1  0
  5  6  2  0
  7  5  1  0
  7  8  1  0
  8 12  1  0
  8  9  1  1
 10  9  1  0
 10 11  2  0
 12 13  2  0
 12 15  1  0
 14 10  1  0
 15 16  1  0
 15 19  1  0
 16 17  1  0
 17 18  1  0
 19 18  1  0
 19 20  1  1
 20 22  1  0
 21 20  2  0
M  END
$$$$
