CDP.pdb
     RDKit          3D

 22 22  0  0  1  0  0  0  0  0999 V2000
    7.7357  -15.1363   18.7882 N   0  0  0  0  0  0  0  0  0  0  0  0
    8.2422  -14.5109   19.9644 C   0  0  1  0  0  0  0  0  0  0  0  0
    7.8919  -13.0276   19.8877 C   0  0  0  0  0  0  0  0  0  0  0  0
    9.1099  -12.1561   18.8803 S   0  0  0  0  0  0  0  0  0  0  0  0
    7.4917  -15.0269   21.1753 C   0  0  0  0  0  0  0  0  0  0  0  0
    6.4785  -15.7047   20.8966 O   0  0  0  0  0  0  0  0  0  0  0  0
    7.9537  -14.7292   22.4517 N   0  0  0  0  0  0  0  0  0  0  0  0
    7.3765  -15.2724   23.6644 C   0  0  1  0  0  0  0  0  0  0  0  0
    7.6388  -16.7751   23.5620 C   0  0  0  0  0  0  0  0  0  0  0  0
    7.2447  -17.5910   24.6959 C   0  0  0  0  0  0  0  0  0  0  0  0
    7.8691  -18.4821   25.2547 O   0  0  0  0  0  0  0  0  0  0  0  0
    8.0649  -14.6190   24.7843 C   0  0  0  0  0  0  0  0  0  0  0  0
    9.2988  -14.9324   25.0418 O   0  0  0  0  0  0  0  0  0  0  0  0
    5.9605  -17.3204   25.2314 O   0  0  0  0  0  0  0  0  0  0  0  0
    7.5512  -13.6374   25.6678 N   0  0  0  0  0  0  0  0  0  0  0  0
    6.1952  -13.0778   25.4982 C   0  0  0  0  0  0  0  0  0  0  0  0
    6.2532  -11.8083   26.3685 C   0  0  0  0  0  0  0  0  0  0  0  0
    6.9988  -12.3780   27.5483 C   0  0  0  0  0  0  0  0  0  0  0  0
    8.1587  -13.1224   26.8465 C   0  0  1  0  0  0  0  0  0  0  0  0
    8.5581  -14.2013   27.8007 C   0  0  0  0  0  0  0  0  0  0  0  0
    9.3508  -13.9396   28.7191 O   0  0  0  0  0  0  0  0  0  0  0  0
    8.0547  -15.4722   27.6658 O   0  0  0  0  0  0  0  0  0  0  0  0
  2  1  1  6
  2  5  1  0
  2  3  1  0
  4  3  1  0
  5  6  2  0
  7  5  1  0
  7  8  1  0
  8 12  1  0
  8  9  1  1
 10  9  1  0
 10 11  2  0
 12 13  2  0
 12 15  1  0
 14 10  1  0
 15 16  1  0
 15 19  1  0
 16 17  1  0
 17 18  1  0
 19 18  1  0
 19 20  1  1
 20 22  1  0
 21 20  2  0
M  END
$$$$
