CDP.pdb
     RDKit          3D

 22 22  0  0  1  0  0  0  0  0999 V2000
    7.5479  -15.1191   19.0677 N   0  0  0  0  0  0  0  0  0  0  0  0
    8.1791  -14.4441   20.1526 C   0  0  1  0  0  0  0  0  0  0  0  0
    7.9736  -12.9457   19.9483 C   0  0  0  0  0  0  0  0  0  0  0  0
    9.1987  -12.3063   18.7873 S   0  0  0  0  0  0  0  0  0  0  0  0
    7.4507  -14.7656   21.4416 C   0  0  0  0  0  0  0  0  0  0  0  0
    6.2107  -14.8659   21.3152 O   0  0  0  0  0  0  0  0  0  0  0  0
    8.1702  -14.9205   22.6205 N   0  0  0  0  0  0  0  0  0  0  0  0
    7.5732  -15.3010   23.8844 C   0  0  1  0  0  0  0  0  0  0  0  0
    7.8821  -16.7932   24.0089 C   0  0  0  0  0  0  0  0  0  0  0  0
    7.0533  -17.7035   23.2400 C   0  0  0  0  0  0  0  0  0  0  0  0
    5.8481  -17.8970   23.3186 O   0  0  0  0  0  0  0  0  0  0  0  0
    8.2088  -14.4698   24.9141 C   0  0  0  0  0  0  0  0  0  0  0  0
    9.5018  -14.4870   25.0361 O   0  0  0  0  0  0  0  0  0  0  0  0
    7.7306  -18.4755   22.2631 O   0  0  0  0  0  0  0  0  0  0  0  0
    7.5808  -13.5991   25.8391 N   0  0  0  0  0  0  0  0  0  0  0  0
    6.1565  -13.2312   25.7109 C   0  0  0  0  0  0  0  0  0  0  0  0
    6.0538  -11.9945   26.6233 C   0  0  0  0  0  0  0  0  0  0  0  0
    6.8965  -12.4906   27.7706 C   0  0  0  0  0  0  0  0  0  0  0  0
    8.1345  -13.0412   27.0248 C   0  0  1  0  0  0  0  0  0  0  0  0
    8.7014  -14.0827   27.9347 C   0  0  0  0  0  0  0  0  0  0  0  0
    8.3860  -15.2718   27.7709 O   0  0  0  0  0  0  0  0  0  0  0  0
    9.5639  -13.7311   28.9443 O   0  0  0  0  0  0  0  0  0  0  0  0
  2  1  1  6
  2  5  1  0
  2  3  1  0
  4  3  1  0
  5  6  2  0
  7  5  1  0
  7  8  1  0
  8 12  1  0
  8  9  1  1
 10  9  1  0
 10 11  2  0
 12 13  2  0
 12 15  1  0
 14 10  1  0
 15 16  1  0
 15 19  1  0
 16 17  1  0
 17 18  1  0
 19 18  1  0
 19 20  1  1
 20 22  1  0
 21 20  2  0
M  END
$$$$
