ERN.pdb
     RDKit          3D

 29 28  0  0  1  0  0  0  0  0999 V2000
   13.6650  -18.0240   17.3991 N   0  0  0  0  0  0  0  0  0  0  0  0
   12.6397  -18.6641   18.2866 C   0  0  1  0  0  0  0  0  0  0  0  0
   13.2186  -19.9831   18.6344 C   0  0  0  0  0  0  0  0  0  0  0  0
   14.7080  -20.0784   18.7078 C   0  0  0  0  0  0  0  0  0  0  0  0
   15.2220  -21.3145   19.3231 C   0  0  0  0  0  0  0  0  0  0  0  0
   16.4583  -21.4968   19.3965 O   0  0  0  0  0  0  0  0  0  0  0  0
   12.4611  -17.7053   19.3703 C   0  0  0  0  0  0  0  0  0  0  0  0
   13.3462  -16.9414   19.8301 O   0  0  0  0  0  0  0  0  0  0  0  0
   14.3767  -22.2712   19.8181 O   0  0  0  0  0  0  0  0  0  0  0  0
    6.7460  -13.5386   17.9695 N   0  0  0  0  0  0  0  0  0  0  0  0
    7.3225  -13.3076   19.2506 C   0  0  0  0  0  0  0  0  0  0  0  0
    7.7450  -12.1395   19.5299 N   0  0  0  0  0  0  0  0  0  0  0  0
    7.3960  -14.3940   20.1499 N   0  0  0  0  0  0  0  0  0  0  0  0
    7.8519  -14.1740   21.5236 C   0  0  0  0  0  0  0  0  0  0  0  0
    9.1213  -14.8980   21.7574 C   0  0  0  0  0  0  0  0  0  0  0  0
    9.5703  -15.9085   20.7759 C   0  0  0  0  0  0  0  0  0  0  0  0
   10.8836  -16.5959   20.9653 C   0  0  2  0  0  0  0  0  0  0  0  0
   11.1698  -17.5957   19.9891 N   0  0  0  0  0  0  0  0  0  0  0  0
   10.9980  -17.1775   22.3283 C   0  0  0  0  0  0  0  0  0  0  0  0
   10.4130  -18.2502   22.6254 O   0  0  0  0  0  0  0  0  0  0  0  0
    8.1268  -11.8918   20.4564 N   0  0  0  0  0  0  0  0  0  0  0  0
   15.1157  -15.6965   23.8377 C   0  0  0  0  0  0  0  0  0  0  0  0
   14.3741  -16.8224   24.3535 O   0  0  0  0  0  0  0  0  0  0  0  0
   14.7562  -17.9638   24.0294 C   0  0  0  0  0  0  0  0  0  0  0  0
   13.2131  -16.6012   25.2284 C   0  0  2  0  0  0  0  0  0  0  0  0
   11.9414  -17.1750   24.6765 N   0  0  0  0  0  0  0  0  0  0  0  0
   11.7642  -16.5569   23.3476 C   0  0  0  0  0  0  0  0  0  0  0  0
   10.7556  -17.0107   25.5005 O   0  0  0  0  0  0  0  0  0  0  0  0
   10.5331  -17.5898   26.7234 O   0  0  0  0  0  0  0  0  0  0  0  0
  2  1  1  6
  2  3  1  0
  3  4  1  0
  5  4  1  0
  5  9  1  0
  6  5  2  0
  7 18  1  0
  7  2  1  0
  8  7  2  0
 11 10  1  0
 11 13  1  0
 12 11  2  0
 13 14  1  0
 15 14  1  0
 17 16  1  6
 16 15  1  0
 17 18  1  0
 19 26  1  0
 19 17  1  0
 20 19  2  0
 22 21  1  0
 22 23  2  0
 25 24  1  6
 24 22  1  0
 25 27  1  0
 25 26  1  0
 27 28  1  0
 29 27  2  0
M  END
$$$$
