ERN.pdb
     RDKit          3D

 29 28  0  0  1  0  0  0  0  0999 V2000
    9.6682  -22.6604   20.8043 N   0  0  0  0  0  0  0  0  0  0  0  0
    8.6622  -21.9251   21.6386 C   0  0  1  0  0  0  0  0  0  0  0  0
    8.6488  -22.6493   22.9313 C   0  0  0  0  0  0  0  0  0  0  0  0
    9.9570  -23.1574   23.4442 C   0  0  0  0  0  0  0  0  0  0  0  0
    9.8831  -23.8818   24.7251 C   0  0  0  0  0  0  0  0  0  0  0  0
    9.3302  -23.3381   25.7079 O   0  0  0  0  0  0  0  0  0  0  0  0
    9.1467  -20.5500   21.6473 C   0  0  0  0  0  0  0  0  0  0  0  0
   10.3450  -20.1913   21.5301 O   0  0  0  0  0  0  0  0  0  0  0  0
   10.4063  -25.1391   24.8661 O   0  0  0  0  0  0  0  0  0  0  0  0
    7.5113  -13.3230   18.0737 N   0  0  0  0  0  0  0  0  0  0  0  0
    8.0094  -12.7800   19.2919 C   0  0  0  0  0  0  0  0  0  0  0  0
    8.3872  -11.5644   19.3107 N   0  0  0  0  0  0  0  0  0  0  0  0
    8.0586  -13.6245   20.4228 N   0  0  0  0  0  0  0  0  0  0  0  0
    7.5774  -15.0036   20.3247 C   0  0  0  0  0  0  0  0  0  0  0  0
    7.7530  -15.6941   21.6217 C   0  0  0  0  0  0  0  0  0  0  0  0
    7.4679  -17.1419   21.7163 C   0  0  0  0  0  0  0  0  0  0  0  0
    8.5960  -18.1155   21.8288 C   0  0  2  0  0  0  0  0  0  0  0  0
    8.1961  -19.4843   21.7991 N   0  0  0  0  0  0  0  0  0  0  0  0
    9.4139  -17.8575   23.0428 C   0  0  0  0  0  0  0  0  0  0  0  0
    9.1188  -18.3839   24.1459 O   0  0  0  0  0  0  0  0  0  0  0  0
    8.7017  -11.0919   20.1729 N   0  0  0  0  0  0  0  0  0  0  0  0
   14.4230  -17.4647   23.3480 C   0  0  0  0  0  0  0  0  0  0  0  0
   13.4096  -16.5692   22.8431 O   0  0  0  0  0  0  0  0  0  0  0  0
   13.3441  -16.4073   21.6088 C   0  0  0  0  0  0  0  0  0  0  0  0
   12.5002  -15.8858   23.7748 C   0  0  2  0  0  0  0  0  0  0  0  0
   11.3585  -16.7495   24.2240 N   0  0  0  0  0  0  0  0  0  0  0  0
   10.5539  -17.0143   23.0148 C   0  0  0  0  0  0  0  0  0  0  0  0
   10.5395  -16.2175   25.3003 O   0  0  0  0  0  0  0  0  0  0  0  0
   10.8652  -16.1995   26.6322 O   0  0  0  0  0  0  0  0  0  0  0  0
  2  1  1  6
  2  3  1  0
  3  4  1  0
  5  4  1  0
  5  9  1  0
  6  5  2  0
  7 18  1  0
  7  2  1  0
  8  7  2  0
 11 10  1  0
 11 13  1  0
 12 11  2  0
 13 14  1  0
 15 14  1  0
 17 16  1  1
 16 15  1  0
 17 18  1  0
 19 26  1  0
 19 17  1  0
 20 19  2  0
 22 21  1  0
 22 23  2  0
 25 24  1  6
 24 22  1  0
 25 27  1  0
 25 26  1  0
 27 28  1  0
 29 27  2  0
M  END
$$$$
