ERN.pdb
     RDKit          3D

 29 28  0  0  1  0  0  0  0  0999 V2000
   15.1444  -13.5174   16.7948 N   0  0  0  0  0  0  0  0  0  0  0  0
   14.3143  -14.7234   17.1192 C   0  0  1  0  0  0  0  0  0  0  0  0
   15.2354  -15.8699   16.9379 C   0  0  0  0  0  0  0  0  0  0  0  0
   16.6870  -15.6289   17.1974 C   0  0  0  0  0  0  0  0  0  0  0  0
   17.5560  -16.8030   17.0047 C   0  0  0  0  0  0  0  0  0  0  0  0
   17.7941  -17.5575   17.9747 O   0  0  0  0  0  0  0  0  0  0  0  0
   13.8259  -14.4647   18.4683 C   0  0  0  0  0  0  0  0  0  0  0  0
   14.4703  -13.9031   19.3890 O   0  0  0  0  0  0  0  0  0  0  0  0
   18.1107  -17.0889   15.7860 O   0  0  0  0  0  0  0  0  0  0  0  0
    6.3151  -13.2455   17.6368 N   0  0  0  0  0  0  0  0  0  0  0  0
    7.5013  -13.9121   17.2179 C   0  0  0  0  0  0  0  0  0  0  0  0
    7.5176  -14.4713   16.0743 N   0  0  0  0  0  0  0  0  0  0  0  0
    8.6047  -13.9181   18.0994 N   0  0  0  0  0  0  0  0  0  0  0  0
    8.4993  -13.2627   19.4042 C   0  0  0  0  0  0  0  0  0  0  0  0
    9.7880  -13.3609   20.1251 C   0  0  0  0  0  0  0  0  0  0  0  0
   10.4794  -14.6658   20.1989 C   0  0  0  0  0  0  0  0  0  0  0  0
   11.9710  -14.7214   20.1286 C   0  0  2  0  0  0  0  0  0  0  0  0
   12.4919  -14.8727   18.8094 N   0  0  0  0  0  0  0  0  0  0  0  0
   12.5145  -15.7888   21.0086 C   0  0  0  0  0  0  0  0  0  0  0  0
   12.5184  -16.9912   20.6409 O   0  0  0  0  0  0  0  0  0  0  0  0
    8.3307  -15.0033   15.7256 N   0  0  0  0  0  0  0  0  0  0  0  0
   16.6146  -15.0238   22.2397 C   0  0  0  0  0  0  0  0  0  0  0  0
   15.8307  -16.2054   22.5100 O   0  0  0  0  0  0  0  0  0  0  0  0
   15.9973  -17.1922   21.7669 C   0  0  0  0  0  0  0  0  0  0  0  0
   14.8771  -16.2163   23.6292 C   0  0  2  0  0  0  0  0  0  0  0  0
   13.4816  -16.5754   23.2109 N   0  0  0  0  0  0  0  0  0  0  0  0
   13.0489  -15.5047   22.2912 C   0  0  0  0  0  0  0  0  0  0  0  0
   12.5228  -16.7717   24.2854 O   0  0  0  0  0  0  0  0  0  0  0  0
   11.3339  -16.1064   24.4409 O   0  0  0  0  0  0  0  0  0  0  0  0
  2  1  1  1
  2  3  1  0
  3  4  1  0
  5  4  1  0
  5  9  1  0
  6  5  2  0
  7 18  1  0
  7  2  1  0
  8  7  2  0
 11 10  1  0
 11 13  1  0
 12 11  2  0
 13 14  1  0
 15 14  1  0
 17 16  1  6
 16 15  1  0
 17 18  1  0
 19 26  1  0
 19 17  1  0
 20 19  2  0
 22 21  1  0
 22 23  2  0
 25 24  1  6
 24 22  1  0
 25 27  1  0
 25 26  1  0
 27 28  1  0
 29 27  2  0
M  END
$$$$
