ERN.pdb
     RDKit          3D

 29 28  0  0  1  0  0  0  0  0999 V2000
   10.2966  -14.0774   18.5309 N   0  0  0  0  0  0  0  0  0  0  0  0
    9.1069  -13.2516   18.9199 C   0  0  1  0  0  0  0  0  0  0  0  0
    8.0973  -13.5356   17.8730 C   0  0  0  0  0  0  0  0  0  0  0  0
    8.3321  -14.7264   17.0015 C   0  0  0  0  0  0  0  0  0  0  0  0
    7.2492  -15.0209   16.0468 C   0  0  0  0  0  0  0  0  0  0  0  0
    7.3751  -14.6779   14.8494 O   0  0  0  0  0  0  0  0  0  0  0  0
    8.8027  -13.6863   20.2779 C   0  0  0  0  0  0  0  0  0  0  0  0
    8.2666  -12.9854   21.1721 O   0  0  0  0  0  0  0  0  0  0  0  0
    6.1054  -15.6628   16.4395 O   0  0  0  0  0  0  0  0  0  0  0  0
    7.7317  -20.1523   24.1848 N   0  0  0  0  0  0  0  0  0  0  0  0
    6.8918  -19.6177   25.2024 C   0  0  0  0  0  0  0  0  0  0  0  0
    6.8472  -20.2058   26.3307 N   0  0  0  0  0  0  0  0  0  0  0  0
    6.1471  -18.4554   24.9043 N   0  0  0  0  0  0  0  0  0  0  0  0
    6.2040  -17.8774   23.5605 C   0  0  0  0  0  0  0  0  0  0  0  0
    7.4470  -17.0903   23.4006 C   0  0  0  0  0  0  0  0  0  0  0  0
    7.6976  -16.3824   22.1269 C   0  0  0  0  0  0  0  0  0  0  0  0
    8.9050  -15.5135   21.9849 C   0  0  2  0  0  0  0  0  0  0  0  0
    9.1295  -15.0311   20.6615 N   0  0  0  0  0  0  0  0  0  0  0  0
   10.1261  -16.1988   22.4835 C   0  0  0  0  0  0  0  0  0  0  0  0
   10.0460  -17.2719   23.1340 O   0  0  0  0  0  0  0  0  0  0  0  0
    6.2775  -19.8582   27.1182 N   0  0  0  0  0  0  0  0  0  0  0  0
   15.0743  -14.2861   21.1746 C   0  0  0  0  0  0  0  0  0  0  0  0
   13.7877  -14.9284   21.0487 O   0  0  0  0  0  0  0  0  0  0  0  0
   12.8648  -14.2761   20.5227 C   0  0  0  0  0  0  0  0  0  0  0  0
   13.6010  -16.3044   21.5325 C   0  0  1  0  0  0  0  0  0  0  0  0
   12.6409  -16.3999   22.6816 N   0  0  0  0  0  0  0  0  0  0  0  0
   11.4256  -15.6803   22.2517 C   0  0  0  0  0  0  0  0  0  0  0  0
   13.1243  -15.9079   23.9609 O   0  0  0  0  0  0  0  0  0  0  0  0
   12.5081  -14.9748   24.7546 O   0  0  0  0  0  0  0  0  0  0  0  0
  2  1  1  6
  2  3  1  0
  3  4  1  0
  5  4  1  0
  5  9  1  0
  6  5  2  0
  7 18  1  0
  7  2  1  0
  8  7  2  0
 11 10  1  0
 11 13  1  0
 12 11  2  0
 13 14  1  0
 15 14  1  0
 17 16  1  6
 16 15  1  0
 17 18  1  0
 19 26  1  0
 19 17  1  0
 20 19  2  0
 22 21  1  0
 22 23  2  0
 25 24  1  6
 24 22  1  0
 25 27  1  0
 25 26  1  0
 27 28  1  0
 29 27  2  0
M  END
$$$$
