ERN.pdb
     RDKit          3D

 29 28  0  0  1  0  0  0  0  0999 V2000
   12.3362  -18.6643   16.8504 N   0  0  0  0  0  0  0  0  0  0  0  0
   13.7406  -18.3567   17.2768 C   0  0  1  0  0  0  0  0  0  0  0  0
   14.4204  -17.9200   16.0346 C   0  0  0  0  0  0  0  0  0  0  0  0
   13.9907  -16.6176   15.4414 C   0  0  0  0  0  0  0  0  0  0  0  0
   14.6696  -16.2527   14.1857 C   0  0  0  0  0  0  0  0  0  0  0  0
   14.0350  -15.6358   13.3005 O   0  0  0  0  0  0  0  0  0  0  0  0
   13.5807  -17.3667   18.3352 C   0  0  0  0  0  0  0  0  0  0  0  0
   14.5067  -16.7145   18.8785 O   0  0  0  0  0  0  0  0  0  0  0  0
   15.9821  -16.5732   13.9639 O   0  0  0  0  0  0  0  0  0  0  0  0
    6.9763  -13.3726   17.2593 N   0  0  0  0  0  0  0  0  0  0  0  0
    7.5157  -13.0061   18.5249 C   0  0  0  0  0  0  0  0  0  0  0  0
    6.9457  -12.0809   19.1883 N   0  0  0  0  0  0  0  0  0  0  0  0
    8.6625  -13.6928   18.9805 N   0  0  0  0  0  0  0  0  0  0  0  0
    9.1875  -13.4266   20.3209 C   0  0  0  0  0  0  0  0  0  0  0  0
   10.4214  -14.2119   20.5460 C   0  0  0  0  0  0  0  0  0  0  0  0
   10.7661  -15.3039   19.6106 C   0  0  0  0  0  0  0  0  0  0  0  0
   12.0188  -16.0919   19.8177 C   0  0  2  0  0  0  0  0  0  0  0  0
   12.2595  -17.0850   18.8227 N   0  0  0  0  0  0  0  0  0  0  0  0
   12.0488  -16.7150   21.1668 C   0  0  0  0  0  0  0  0  0  0  0  0
   11.3796  -17.7498   21.4168 O   0  0  0  0  0  0  0  0  0  0  0  0
    7.2903  -11.7606   20.1071 N   0  0  0  0  0  0  0  0  0  0  0  0
   14.9325  -18.6894   23.7677 C   0  0  0  0  0  0  0  0  0  0  0  0
   15.1980  -17.3555   24.2516 O   0  0  0  0  0  0  0  0  0  0  0  0
   16.3328  -17.1227   24.7120 C   0  0  0  0  0  0  0  0  0  0  0  0
   14.1482  -16.3276   24.1913 C   0  0  2  0  0  0  0  0  0  0  0  0
   12.8806  -16.8166   23.5547 N   0  0  0  0  0  0  0  0  0  0  0  0
   12.8254  -16.1778   22.2249 C   0  0  0  0  0  0  0  0  0  0  0  0
   11.6579  -16.5855   24.3056 O   0  0  0  0  0  0  0  0  0  0  0  0
   11.2042  -17.3314   25.3630 O   0  0  0  0  0  0  0  0  0  0  0  0
  2  1  1  6
  2  3  1  0
  3  4  1  0
  5  4  1  0
  5  9  1  0
  6  5  2  0
  7 18  1  0
  7  2  1  0
  8  7  2  0
 11 10  1  0
 11 13  1  0
 12 11  2  0
 13 14  1  0
 15 14  1  0
 17 16  1  6
 16 15  1  0
 17 18  1  0
 19 26  1  0
 19 17  1  0
 20 19  2  0
 22 21  1  0
 22 23  2  0
 25 24  1  6
 24 22  1  0
 25 27  1  0
 25 26  1  0
 27 28  1  0
 29 27  2  0
M  END
$$$$
