ERN.pdb
     RDKit          3D

 29 28  0  0  1  0  0  0  0  0999 V2000
   15.2776  -13.6631   15.6754 N   0  0  0  0  0  0  0  0  0  0  0  0
   14.3708  -14.7817   16.0937 C   0  0  1  0  0  0  0  0  0  0  0  0
   15.1288  -16.0149   15.7766 C   0  0  0  0  0  0  0  0  0  0  0  0
   16.1777  -16.4426   16.7510 C   0  0  0  0  0  0  0  0  0  0  0  0
   16.9147  -17.6618   16.3753 C   0  0  0  0  0  0  0  0  0  0  0  0
   18.1157  -17.5734   16.0334 O   0  0  0  0  0  0  0  0  0  0  0  0
   14.0960  -14.5083   17.4992 C   0  0  0  0  0  0  0  0  0  0  0  0
   14.8232  -13.8383   18.2742 O   0  0  0  0  0  0  0  0  0  0  0  0
   16.3152  -18.8926   16.3917 O   0  0  0  0  0  0  0  0  0  0  0  0
    6.9003  -12.8098   19.5246 N   0  0  0  0  0  0  0  0  0  0  0  0
    7.2403  -13.2791   18.2242 C   0  0  0  0  0  0  0  0  0  0  0  0
    6.8056  -12.6427   17.2109 N   0  0  0  0  0  0  0  0  0  0  0  0
    8.0472  -14.4341   18.1264 N   0  0  0  0  0  0  0  0  0  0  0  0
    9.5036  -14.3025   18.0573 C   0  0  0  0  0  0  0  0  0  0  0  0
   10.0699  -14.2258   19.4224 C   0  0  0  0  0  0  0  0  0  0  0  0
   11.1545  -15.1530   19.8100 C   0  0  0  0  0  0  0  0  0  0  0  0
   12.5700  -14.8298   19.4564 C   0  0  2  0  0  0  0  0  0  0  0  0
   12.8939  -15.0346   18.0825 N   0  0  0  0  0  0  0  0  0  0  0  0
   13.5259  -15.5774   20.3146 C   0  0  0  0  0  0  0  0  0  0  0  0
   13.9009  -16.7375   20.0072 O   0  0  0  0  0  0  0  0  0  0  0  0
    6.9712  -12.9576   16.2419 N   0  0  0  0  0  0  0  0  0  0  0  0
   18.4580  -15.6474   23.0650 C   0  0  0  0  0  0  0  0  0  0  0  0
   17.1398  -15.3333   23.5625 O   0  0  0  0  0  0  0  0  0  0  0  0
   16.9124  -15.5433   24.7700 C   0  0  0  0  0  0  0  0  0  0  0  0
   16.1210  -14.7861   22.6544 C   0  0  1  0  0  0  0  0  0  0  0  0
   15.0204  -15.7589   22.3487 N   0  0  0  0  0  0  0  0  0  0  0  0
   14.0549  -15.0235   21.5082 C   0  0  0  0  0  0  0  0  0  0  0  0
   14.3689  -16.3682   23.4961 O   0  0  0  0  0  0  0  0  0  0  0  0
   14.8939  -17.3477   24.2995 O   0  0  0  0  0  0  0  0  0  0  0  0
  2  1  1  1
  2  3  1  0
  3  4  1  0
  5  4  1  0
  5  9  1  0
  6  5  2  0
  7 18  1  0
  7  2  1  0
  8  7  2  0
 11 10  1  0
 11 13  1  0
 12 11  2  0
 13 14  1  0
 15 14  1  0
 17 16  1  6
 16 15  1  0
 17 18  1  0
 19 26  1  0
 19 17  1  0
 20 19  2  0
 22 21  1  0
 22 23  2  0
 25 24  1  6
 24 22  1  0
 25 27  1  0
 25 26  1  0
 27 28  1  0
 29 27  2  0
M  END
$$$$
