ERN.pdb
     RDKit          3D

 29 28  0  0  1  0  0  0  0  0999 V2000
   10.8727  -16.9644   16.6047 N   0  0  0  0  0  0  0  0  0  0  0  0
   10.4628  -17.9609   17.6476 C   0  0  1  0  0  0  0  0  0  0  0  0
   11.3025  -19.1513   17.3766 C   0  0  0  0  0  0  0  0  0  0  0  0
   12.7846  -18.9679   17.4235 C   0  0  0  0  0  0  0  0  0  0  0  0
   13.5699  -20.1947   17.2019 C   0  0  0  0  0  0  0  0  0  0  0  0
   12.9752  -21.2827   17.0297 O   0  0  0  0  0  0  0  0  0  0  0  0
   10.6795  -17.2627   18.9091 C   0  0  0  0  0  0  0  0  0  0  0  0
   11.5911  -16.4303   19.1421 O   0  0  0  0  0  0  0  0  0  0  0  0
   14.9387  -20.1726   17.1796 O   0  0  0  0  0  0  0  0  0  0  0  0
    7.4954  -11.5559   20.3567 N   0  0  0  0  0  0  0  0  0  0  0  0
    8.0285  -12.4789   19.4130 C   0  0  0  0  0  0  0  0  0  0  0  0
    8.5362  -12.0282   18.3359 N   0  0  0  0  0  0  0  0  0  0  0  0
    7.9653  -13.8551   19.7234 N   0  0  0  0  0  0  0  0  0  0  0  0
    7.5665  -14.2824   21.0657 C   0  0  0  0  0  0  0  0  0  0  0  0
    7.4614  -15.7577   21.1165 C   0  0  0  0  0  0  0  0  0  0  0  0
    8.4927  -16.5330   21.8385 C   0  0  0  0  0  0  0  0  0  0  0  0
    9.8285  -16.7600   21.2082 C   0  0  2  0  0  0  0  0  0  0  0  0
    9.7881  -17.5239   20.0044 N   0  0  0  0  0  0  0  0  0  0  0  0
   10.7798  -17.3820   22.1661 C   0  0  0  0  0  0  0  0  0  0  0  0
   10.6218  -18.5663   22.5581 O   0  0  0  0  0  0  0  0  0  0  0  0
    8.9328  -12.6424   17.6071 N   0  0  0  0  0  0  0  0  0  0  0  0
   16.4624  -16.3157   24.3556 C   0  0  0  0  0  0  0  0  0  0  0  0
   15.1405  -16.8798   24.4903 O   0  0  0  0  0  0  0  0  0  0  0  0
   14.9865  -17.8014   25.3153 C   0  0  0  0  0  0  0  0  0  0  0  0
   14.0333  -16.3656   23.6706 C   0  0  1  0  0  0  0  0  0  0  0  0
   12.8728  -17.3128   23.5868 N   0  0  0  0  0  0  0  0  0  0  0  0
   11.8987  -16.6769   22.6778 C   0  0  0  0  0  0  0  0  0  0  0  0
   12.2568  -17.6822   24.8503 O   0  0  0  0  0  0  0  0  0  0  0  0
   12.6218  -18.7329   25.6522 O   0  0  0  0  0  0  0  0  0  0  0  0
  2  1  1  6
  2  3  1  0
  3  4  1  0
  5  4  1  0
  5  9  1  0
  6  5  2  0
  7 18  1  0
  7  2  1  0
  8  7  2  0
 11 10  1  0
 11 13  1  0
 12 11  2  0
 13 14  1  0
 15 14  1  0
 17 16  1  1
 16 15  1  0
 17 18  1  0
 19 26  1  0
 19 17  1  0
 20 19  2  0
 22 21  1  0
 22 23  2  0
 25 24  1  6
 24 22  1  0
 25 27  1  0
 25 26  1  0
 27 28  1  0
 29 27  2  0
M  END
$$$$
