ERN.pdb
     RDKit          3D

 29 28  0  0  1  0  0  0  0  0999 V2000
    8.5057  -19.0705   15.8062 N   0  0  0  0  0  0  0  0  0  0  0  0
    9.4828  -20.1708   16.0947 C   0  0  1  0  0  0  0  0  0  0  0  0
   10.7493  -19.7176   15.4729 C   0  0  0  0  0  0  0  0  0  0  0  0
   10.8423  -19.7851   13.9832 C   0  0  0  0  0  0  0  0  0  0  0  0
   12.1102  -19.2926   13.4168 C   0  0  0  0  0  0  0  0  0  0  0  0
   13.0213  -20.1079   13.1481 O   0  0  0  0  0  0  0  0  0  0  0  0
    9.4578  -20.2949   17.5472 C   0  0  0  0  0  0  0  0  0  0  0  0
    9.1934  -19.3741   18.3598 O   0  0  0  0  0  0  0  0  0  0  0  0
   12.3158  -17.9604   13.1768 O   0  0  0  0  0  0  0  0  0  0  0  0
    6.2096  -25.6715   22.6946 N   0  0  0  0  0  0  0  0  0  0  0  0
    7.2463  -25.3621   23.6200 C   0  0  0  0  0  0  0  0  0  0  0  0
    6.9702  -25.3377   24.8626 N   0  0  0  0  0  0  0  0  0  0  0  0
    8.5351  -25.0965   23.1071 N   0  0  0  0  0  0  0  0  0  0  0  0
    8.7337  -24.9732   21.6620 C   0  0  0  0  0  0  0  0  0  0  0  0
    9.1026  -23.5816   21.3191 C   0  0  0  0  0  0  0  0  0  0  0  0
    9.3259  -23.2191   19.9032 C   0  0  0  0  0  0  0  0  0  0  0  0
    9.6282  -21.8020   19.5378 C   0  0  2  0  0  0  0  0  0  0  0  0
    9.7544  -21.5707   18.1360 N   0  0  0  0  0  0  0  0  0  0  0  0
   10.8426  -21.3099   20.2394 C   0  0  0  0  0  0  0  0  0  0  0  0
   11.9845  -21.4501   19.7321 O   0  0  0  0  0  0  0  0  0  0  0  0
    7.6547  -25.0509   25.5800 N   0  0  0  0  0  0  0  0  0  0  0  0
   13.0671  -17.1317   23.5710 C   0  0  0  0  0  0  0  0  0  0  0  0
   13.2046  -18.0113   22.4347 O   0  0  0  0  0  0  0  0  0  0  0  0
   14.3470  -18.1715   21.9625 C   0  0  0  0  0  0  0  0  0  0  0  0
   12.0216  -18.6815   21.8748 C   0  0  2  0  0  0  0  0  0  0  0  0
   11.9753  -20.1494   22.1821 N   0  0  0  0  0  0  0  0  0  0  0  0
   10.7716  -20.6657   21.5008 C   0  0  0  0  0  0  0  0  0  0  0  0
   11.9828  -20.5081   23.5905 O   0  0  0  0  0  0  0  0  0  0  0  0
   13.0777  -20.5243   24.4158 O   0  0  0  0  0  0  0  0  0  0  0  0
  2  1  1  1
  2  3  1  0
  3  4  1  0
  5  4  1  0
  5  9  1  0
  6  5  2  0
  7 18  1  0
  7  2  1  0
  8  7  2  0
 11 10  1  0
 11 13  1  0
 12 11  2  0
 13 14  1  0
 15 14  1  0
 17 16  1  6
 16 15  1  0
 17 18  1  0
 19 26  1  0
 19 17  1  0
 20 19  2  0
 22 21  1  0
 22 23  2  0
 25 24  1  6
 24 22  1  0
 25 27  1  0
 25 26  1  0
 27 28  1  0
 29 27  2  0
M  END
$$$$
