ERN.pdb
     RDKit          3D

 29 28  0  0  1  0  0  0  0  0999 V2000
   12.1482  -15.5108   18.4377 N   0  0  0  0  0  0  0  0  0  0  0  0
   12.9792  -15.9117   19.6199 C   0  0  1  0  0  0  0  0  0  0  0  0
   14.3411  -15.4218   19.3019 C   0  0  0  0  0  0  0  0  0  0  0  0
   14.7475  -15.4161   17.8641 C   0  0  0  0  0  0  0  0  0  0  0  0
   16.1239  -14.9563   17.6092 C   0  0  0  0  0  0  0  0  0  0  0  0
   16.9251  -15.7133   17.0157 O   0  0  0  0  0  0  0  0  0  0  0  0
   12.2973  -15.3021   20.7553 C   0  0  0  0  0  0  0  0  0  0  0  0
   12.6192  -14.2243   21.3147 O   0  0  0  0  0  0  0  0  0  0  0  0
   16.5484  -13.7170   18.0073 O   0  0  0  0  0  0  0  0  0  0  0  0
    8.2344  -14.6347   17.7558 N   0  0  0  0  0  0  0  0  0  0  0  0
    7.8551  -13.3306   18.1827 C   0  0  0  0  0  0  0  0  0  0  0  0
    8.2074  -12.3297   17.4790 N   0  0  0  0  0  0  0  0  0  0  0  0
    7.1033  -13.2152   19.3726 N   0  0  0  0  0  0  0  0  0  0  0  0
    7.2339  -14.2306   20.4191 C   0  0  0  0  0  0  0  0  0  0  0  0
    8.6033  -14.2061   20.9797 C   0  0  0  0  0  0  0  0  0  0  0  0
    8.9604  -15.1489   22.0613 C   0  0  0  0  0  0  0  0  0  0  0  0
   10.3979  -15.4021   22.3816 C   0  0  2  0  0  0  0  0  0  0  0  0
   11.1491  -15.9647   21.3075 N   0  0  0  0  0  0  0  0  0  0  0  0
   10.5405  -16.2513   23.5931 C   0  0  0  0  0  0  0  0  0  0  0  0
    9.9063  -15.9879   24.6464 O   0  0  0  0  0  0  0  0  0  0  0  0
    8.0102  -11.3555   17.7577 N   0  0  0  0  0  0  0  0  0  0  0  0
   10.5416  -20.6073   26.5497 C   0  0  0  0  0  0  0  0  0  0  0  0
   11.3923  -20.6605   25.3847 O   0  0  0  0  0  0  0  0  0  0  0  0
   12.2290  -21.5824   25.3214 C   0  0  0  0  0  0  0  0  0  0  0  0
   11.2548  -19.6499   24.3255 C   0  0  1  0  0  0  0  0  0  0  0  0
   11.5015  -18.2514   24.8098 N   0  0  0  0  0  0  0  0  0  0  0  0
   11.3896  -17.3870   23.6182 C   0  0  0  0  0  0  0  0  0  0  0  0
   12.7554  -18.0295   25.5104 O   0  0  0  0  0  0  0  0  0  0  0  0
   13.0238  -18.3595   26.8140 O   0  0  0  0  0  0  0  0  0  0  0  0
  2  1  1  6
  2  3  1  0
  3  4  1  0
  5  4  1  0
  5  9  1  0
  6  5  2  0
  7 18  1  0
  7  2  1  0
  8  7  2  0
 11 10  1  0
 11 13  1  0
 12 11  2  0
 13 14  1  0
 15 14  1  0
 17 16  1  6
 16 15  1  0
 17 18  1  0
 19 26  1  0
 19 17  1  0
 20 19  2  0
 22 21  1  0
 22 23  2  0
 25 24  1  1
 24 22  1  0
 25 27  1  0
 25 26  1  0
 27 28  1  0
 29 27  2  0
M  END
$$$$
