ERN.pdb
     RDKit          3D

 29 28  0  0  1  0  0  0  0  0999 V2000
   11.2309  -18.1771   19.9528 N   0  0  0  0  0  0  0  0  0  0  0  0
   12.1106  -18.2372   21.1658 C   0  0  1  0  0  0  0  0  0  0  0  0
   13.4756  -18.4423   20.6269 C   0  0  0  0  0  0  0  0  0  0  0  0
   13.8121  -17.7623   19.3396 C   0  0  0  0  0  0  0  0  0  0  0  0
   15.1075  -18.1481   18.7532 C   0  0  0  0  0  0  0  0  0  0  0  0
   16.1619  -17.9218   19.3888 O   0  0  0  0  0  0  0  0  0  0  0  0
   11.8464  -16.9812   21.8575 C   0  0  0  0  0  0  0  0  0  0  0  0
   12.6017  -15.9775   21.8743 O   0  0  0  0  0  0  0  0  0  0  0  0
   15.1852  -18.7501   17.5259 O   0  0  0  0  0  0  0  0  0  0  0  0
    6.5183  -12.3348   18.6996 N   0  0  0  0  0  0  0  0  0  0  0  0
    7.3286  -13.3334   18.0888 C   0  0  0  0  0  0  0  0  0  0  0  0
    7.3197  -13.4369   16.8199 N   0  0  0  0  0  0  0  0  0  0  0  0
    8.1045  -14.1623   18.9286 N   0  0  0  0  0  0  0  0  0  0  0  0
    8.0401  -13.9933   20.3814 C   0  0  0  0  0  0  0  0  0  0  0  0
    8.9530  -14.9518   21.0431 C   0  0  0  0  0  0  0  0  0  0  0  0
    9.0571  -14.9532   22.5180 C   0  0  0  0  0  0  0  0  0  0  0  0
   10.2287  -15.6034   23.1795 C   0  0  2  0  0  0  0  0  0  0  0  0
   10.6210  -16.8433   22.5936 N   0  0  0  0  0  0  0  0  0  0  0  0
    9.9939  -15.7880   24.6355 C   0  0  0  0  0  0  0  0  0  0  0  0
    8.8271  -15.8364   25.1018 O   0  0  0  0  0  0  0  0  0  0  0  0
    7.8550  -14.1617   16.3162 N   0  0  0  0  0  0  0  0  0  0  0  0
   10.9811  -15.6350   29.7480 C   0  0  0  0  0  0  0  0  0  0  0  0
   10.3588  -14.6156   28.9372 O   0  0  0  0  0  0  0  0  0  0  0  0
    9.9448  -13.5909   29.5139 C   0  0  0  0  0  0  0  0  0  0  0  0
   10.2313  -14.8057   27.4847 C   0  0  2  0  0  0  0  0  0  0  0  0
   10.8285  -16.0957   27.0046 N   0  0  0  0  0  0  0  0  0  0  0  0
   11.0632  -15.9170   25.5581 C   0  0  0  0  0  0  0  0  0  0  0  0
   10.0552  -17.2968   27.2724 O   0  0  0  0  0  0  0  0  0  0  0  0
   10.1699  -18.1045   28.3745 O   0  0  0  0  0  0  0  0  0  0  0  0
  2  1  1  6
  2  3  1  0
  3  4  1  0
  5  4  1  0
  5  9  1  0
  6  5  2  0
  7 18  1  0
  7  2  1  0
  8  7  2  0
 11 10  1  0
 11 13  1  0
 12 11  2  0
 13 14  1  0
 15 14  1  0
 17 16  1  6
 16 15  1  0
 17 18  1  0
 19 26  1  0
 19 17  1  0
 20 19  2  0
 22 21  1  0
 22 23  2  0
 25 24  1  1
 24 22  1  0
 25 27  1  0
 25 26  1  0
 27 28  1  0
 29 27  2  0
M  END
$$$$
