ASF.pdb
     RDKit          3D

 23 23  0  0  1  0  0  0  0  0999 V2000
   18.7770  -13.3173  -15.8793 C   0  0  0  0  0  0  0  0  0  0  0  0
   17.4966  -12.6022  -16.1923 C   0  0  2  0  0  0  0  0  0  0  0  0
   16.8560  -13.1463  -17.3919 N   0  0  0  0  0  0  0  0  0  0  0  0
   17.6667  -11.1410  -16.3153 C   0  0  0  0  0  0  0  0  0  0  0  0
   18.4663  -10.6707  -17.1630 O   0  0  0  0  0  0  0  0  0  0  0  0
   16.2156   -8.5521  -13.4276 O   0  0  0  0  0  0  0  0  0  0  0  0
   16.0592   -8.1258  -14.7368 C   0  0  0  0  0  0  0  0  0  0  0  0
   17.0549   -8.7726  -15.6696 C   0  0  2  0  0  0  0  0  0  0  0  0
   16.9618  -10.2056  -15.5111 N   0  0  0  0  0  0  0  0  0  0  0  0
   18.4160   -8.2627  -15.3951 C   0  0  0  0  0  0  0  0  0  0  0  0
   19.1596   -8.9269  -14.6292 O   0  0  0  0  0  0  0  0  0  0  0  0
   18.9473   -7.0636  -15.9415 N   0  0  0  0  0  0  0  0  0  0  0  0
   20.3124   -6.6304  -15.6942 C   0  0  1  0  0  0  0  0  0  0  0  0
   21.0427   -6.4322  -16.9800 C   0  0  0  0  0  0  0  0  0  0  0  0
   22.3321   -5.7695  -16.8315 C   0  0  0  0  0  0  0  0  0  0  0  0
   22.4712   -4.3836  -16.7435 C   0  0  0  0  0  0  0  0  0  0  0  0
   23.6766   -3.7536  -16.5927 C   0  0  0  0  0  0  0  0  0  0  0  0
   24.8306   -4.4955  -16.5205 C   0  0  0  0  0  0  0  0  0  0  0  0
   24.7432   -5.8574  -16.6021 C   0  0  0  0  0  0  0  0  0  0  0  0
   23.5114   -6.4866  -16.7554 C   0  0  0  0  0  0  0  0  0  0  0  0
   20.2630   -5.4230  -14.8474 C   0  0  0  0  0  0  0  0  0  0  0  0
   19.2092   -4.5088  -14.9670 O   0  0  0  0  0  0  0  0  0  0  0  0
   21.1878   -5.2303  -14.0157 O   0  0  0  0  0  0  0  0  0  0  0  0
  2  4  1  0
  2  3  1  0
  2  1  1  6
  4  5  2  0
  6  7  1  0
  8  7  1  1
  8 10  1  0
  9  8  1  0
  9  4  1  0
 10 12  1  0
 10 11  2  0
 12 13  1  0
 13 14  1  6
 14 15  1  0
 15 16  2  0
 15 20  1  0
 16 17  1  0
 17 18  2  0
 19 18  1  0
 20 19  2  0
 21 22  1  0
 21 13  1  0
 23 21  2  0
M  END
$$$$
