ASF.pdb
     RDKit          3D

 23 23  0  0  1  0  0  0  0  0999 V2000
   21.3409  -22.4290  -13.3488 C   0  0  0  0  0  0  0  0  0  0  0  0
   22.5254  -22.1050  -14.2093 C   0  0  2  0  0  0  0  0  0  0  0  0
   22.5141  -22.8781  -15.4533 N   0  0  0  0  0  0  0  0  0  0  0  0
   23.8128  -22.2754  -13.5071 C   0  0  0  0  0  0  0  0  0  0  0  0
   24.1742  -23.4169  -13.1257 O   0  0  0  0  0  0  0  0  0  0  0  0
   26.4981  -19.0860  -13.1491 O   0  0  0  0  0  0  0  0  0  0  0  0
   26.9506  -20.3956  -13.1393 C   0  0  0  0  0  0  0  0  0  0  0  0
   25.9475  -21.3407  -12.5224 C   0  0  2  0  0  0  0  0  0  0  0  0
   24.6946  -21.1972  -13.2274 N   0  0  0  0  0  0  0  0  0  0  0  0
   25.8138  -21.0679  -11.0747 C   0  0  0  0  0  0  0  0  0  0  0  0
   24.7425  -20.5573  -10.6594 O   0  0  0  0  0  0  0  0  0  0  0  0
   26.8205  -21.3453  -10.1112 N   0  0  0  0  0  0  0  0  0  0  0  0
   26.7486  -20.8573   -8.7441 C   0  0  1  0  0  0  0  0  0  0  0  0
   28.0479  -21.0676   -8.0414 C   0  0  0  0  0  0  0  0  0  0  0  0
   28.1031  -20.4753   -6.7111 C   0  0  0  0  0  0  0  0  0  0  0  0
   27.6876  -21.1464   -5.5601 C   0  0  0  0  0  0  0  0  0  0  0  0
   27.7464  -20.6023   -4.3058 C   0  0  0  0  0  0  0  0  0  0  0  0
   28.2353  -19.3297   -4.1357 C   0  0  0  0  0  0  0  0  0  0  0  0
   28.6543  -18.6336   -5.2352 C   0  0  0  0  0  0  0  0  0  0  0  0
   28.5896  -19.1978   -6.5057 C   0  0  0  0  0  0  0  0  0  0  0  0
   26.3167  -19.4470   -8.7837 C   0  0  0  0  0  0  0  0  0  0  0  0
   25.3328  -18.9760   -7.9058 O   0  0  0  0  0  0  0  0  0  0  0  0
   26.8494  -18.6755   -9.6232 O   0  0  0  0  0  0  0  0  0  0  0  0
  2  4  1  0
  2  3  1  0
  2  1  1  1
  4  5  2  0
  6  7  1  0
  8  7  1  6
  8 10  1  0
  9  8  1  0
  9  4  1  0
 10 12  1  0
 10 11  2  0
 12 13  1  0
 13 14  1  6
 14 15  1  0
 15 16  2  0
 15 20  1  0
 16 17  1  0
 17 18  2  0
 19 18  1  0
 20 19  2  0
 21 22  1  0
 21 13  1  0
 23 21  2  0
M  END
$$$$
