ASF.pdb
     RDKit          3D

 23 23  0  0  1  0  0  0  0  0999 V2000
   27.1914  -17.7187  -15.2250 C   0  0  0  0  0  0  0  0  0  0  0  0
   27.6913  -19.1291  -15.1270 C   0  0  2  0  0  0  0  0  0  0  0  0
   28.1611  -19.6246  -16.4228 N   0  0  0  0  0  0  0  0  0  0  0  0
   26.6970  -20.0551  -14.5497 C   0  0  0  0  0  0  0  0  0  0  0  0
   25.7393  -20.4662  -15.2518 O   0  0  0  0  0  0  0  0  0  0  0  0
   26.5600  -20.8840  -10.3852 O   0  0  0  0  0  0  0  0  0  0  0  0
   26.2909  -21.8909  -11.2983 C   0  0  0  0  0  0  0  0  0  0  0  0
   25.7428  -21.3507  -12.5974 C   0  0  2  0  0  0  0  0  0  0  0  0
   26.7573  -20.5243  -13.2100 N   0  0  0  0  0  0  0  0  0  0  0  0
   24.4860  -20.6105  -12.3517 C   0  0  0  0  0  0  0  0  0  0  0  0
   24.5598  -19.4500  -11.8737 O   0  0  0  0  0  0  0  0  0  0  0  0
   23.1887  -21.1237  -12.6205 N   0  0  0  0  0  0  0  0  0  0  0  0
   21.9863  -20.3191  -12.4819 C   0  0  1  0  0  0  0  0  0  0  0  0
   22.0660  -19.1017  -13.3407 C   0  0  0  0  0  0  0  0  0  0  0  0
   22.1119  -19.3878  -14.7689 C   0  0  0  0  0  0  0  0  0  0  0  0
   23.2632  -19.2290  -15.5415 C   0  0  0  0  0  0  0  0  0  0  0  0
   23.3185  -19.5059  -16.8805 C   0  0  0  0  0  0  0  0  0  0  0  0
   22.1984  -19.9663  -17.5294 C   0  0  0  0  0  0  0  0  0  0  0  0
   21.0468  -20.1374  -16.8129 C   0  0  0  0  0  0  0  0  0  0  0  0
   21.0031  -19.8524  -15.4514 C   0  0  0  0  0  0  0  0  0  0  0  0
   20.8239  -21.1787  -12.7770 C   0  0  0  0  0  0  0  0  0  0  0  0
   20.9993  -22.4520  -13.3325 O   0  0  0  0  0  0  0  0  0  0  0  0
   19.6709  -20.7443  -12.5206 O   0  0  0  0  0  0  0  0  0  0  0  0
  2  4  1  0
  2  3  1  0
  2  1  1  6
  4  5  2  0
  6  7  1  0
  8  7  1  1
  8 10  1  0
  9  8  1  0
  9  4  1  0
 10 12  1  0
 10 11  2  0
 12 13  1  0
 13 14  1  6
 14 15  1  0
 15 16  2  0
 15 20  1  0
 16 17  1  0
 17 18  2  0
 19 18  1  0
 20 19  2  0
 21 22  1  0
 21 13  1  0
 23 21  2  0
M  END
$$$$
