ASF.pdb
     RDKit          3D

 23 23  0  0  1  0  0  0  0  0999 V2000
   22.9291  -12.6278  -18.1445 C   0  0  0  0  0  0  0  0  0  0  0  0
   21.8859  -11.7809  -17.4788 C   0  0  2  0  0  0  0  0  0  0  0  0
   20.5330  -12.2287  -17.8174 N   0  0  0  0  0  0  0  0  0  0  0  0
   22.0408  -10.3414  -17.7673 C   0  0  0  0  0  0  0  0  0  0  0  0
   23.1642   -9.7926  -17.6410 O   0  0  0  0  0  0  0  0  0  0  0  0
   20.2046   -8.1239  -20.6654 O   0  0  0  0  0  0  0  0  0  0  0  0
   19.9854   -7.6747  -19.3730 C   0  0  0  0  0  0  0  0  0  0  0  0
   21.0875   -8.0935  -18.4295 C   0  0  2  0  0  0  0  0  0  0  0  0
   20.9671   -9.5134  -18.1916 N   0  0  0  0  0  0  0  0  0  0  0  0
   21.0159   -7.3048  -17.1802 C   0  0  0  0  0  0  0  0  0  0  0  0
   20.2456   -7.6991  -16.2681 O   0  0  0  0  0  0  0  0  0  0  0  0
   21.7637   -6.1217  -16.9360 N   0  0  0  0  0  0  0  0  0  0  0  0
   21.7275   -5.4239  -15.6615 C   0  0  1  0  0  0  0  0  0  0  0  0
   22.9721   -5.6871  -14.8821 C   0  0  0  0  0  0  0  0  0  0  0  0
   23.1344   -7.0781  -14.4793 C   0  0  0  0  0  0  0  0  0  0  0  0
   24.0761   -7.9332  -15.0537 C   0  0  0  0  0  0  0  0  0  0  0  0
   24.2430   -9.2372  -14.6740 C   0  0  0  0  0  0  0  0  0  0  0  0
   23.4580   -9.7640  -13.6771 C   0  0  0  0  0  0  0  0  0  0  0  0
   22.5214   -8.9634  -13.0849 C   0  0  0  0  0  0  0  0  0  0  0  0
   22.3611   -7.6385  -13.4798 C   0  0  0  0  0  0  0  0  0  0  0  0
   21.4864   -3.9932  -15.9298 C   0  0  0  0  0  0  0  0  0  0  0  0
   21.3205   -3.0864  -14.8758 O   0  0  0  0  0  0  0  0  0  0  0  0
   21.4318   -3.6037  -17.1253 O   0  0  0  0  0  0  0  0  0  0  0  0
  2  4  1  0
  2  3  1  0
  2  1  1  6
  4  5  2  0
  6  7  1  0
  8  7  1  6
  8 10  1  0
  9  8  1  0
  9  4  1  0
 10 12  1  0
 10 11  2  0
 12 13  1  0
 13 14  1  6
 14 15  1  0
 15 16  2  0
 15 20  1  0
 16 17  1  0
 17 18  2  0
 19 18  1  0
 20 19  2  0
 21 22  1  0
 21 13  1  0
 23 21  2  0
M  END
$$$$
