ASF.pdb
     RDKit          3D

 23 23  0  0  1  0  0  0  0  0999 V2000
   18.5945  -11.1258  -16.5074 C   0  0  0  0  0  0  0  0  0  0  0  0
   19.0334  -10.7308  -17.8858 C   0  0  2  0  0  0  0  0  0  0  0  0
   19.8274  -11.7854  -18.5205 N   0  0  0  0  0  0  0  0  0  0  0  0
   19.7627   -9.4476  -17.9137 C   0  0  0  0  0  0  0  0  0  0  0  0
   20.9755   -9.4069  -17.5870 O   0  0  0  0  0  0  0  0  0  0  0  0
   19.6470   -4.7444  -19.2492 O   0  0  0  0  0  0  0  0  0  0  0  0
   18.9993   -5.9554  -19.0654 C   0  0  0  0  0  0  0  0  0  0  0  0
   19.8552   -6.9525  -18.3216 C   0  0  2  0  0  0  0  0  0  0  0  0
   19.1610   -8.2194  -18.2983 N   0  0  0  0  0  0  0  0  0  0  0  0
   20.1581   -6.4510  -16.9634 C   0  0  0  0  0  0  0  0  0  0  0  0
   19.3752   -6.7523  -16.0269 O   0  0  0  0  0  0  0  0  0  0  0  0
   21.2825   -5.6450  -16.6396 N   0  0  0  0  0  0  0  0  0  0  0  0
   21.5333   -5.1591  -15.2930 C   0  0  1  0  0  0  0  0  0  0  0  0
   22.8955   -5.5590  -14.8345 C   0  0  0  0  0  0  0  0  0  0  0  0
   23.0568   -6.9945  -14.6420 C   0  0  0  0  0  0  0  0  0  0  0  0
   22.2826   -7.7354  -13.7478 C   0  0  0  0  0  0  0  0  0  0  0  0
   22.4195   -9.0851  -13.5689 C   0  0  0  0  0  0  0  0  0  0  0  0
   23.3597   -9.7780  -14.2923 C   0  0  0  0  0  0  0  0  0  0  0  0
   24.1416   -9.0938  -15.1808 C   0  0  0  0  0  0  0  0  0  0  0  0
   23.9929   -7.7209  -15.3540 C   0  0  0  0  0  0  0  0  0  0  0  0
   21.3080   -3.7009  -15.2833 C   0  0  0  0  0  0  0  0  0  0  0  0
   21.3853   -2.9738  -14.0892 O   0  0  0  0  0  0  0  0  0  0  0  0
   21.0437   -3.1234  -16.3698 O   0  0  0  0  0  0  0  0  0  0  0  0
  2  4  1  0
  2  3  1  0
  2  1  1  1
  4  5  2  0
  6  7  1  0
  8  7  1  1
  8 10  1  0
  9  8  1  0
  9  4  1  0
 10 12  1  0
 10 11  2  0
 12 13  1  0
 13 14  1  6
 14 15  1  0
 15 16  2  0
 15 20  1  0
 16 17  1  0
 17 18  2  0
 19 18  1  0
 20 19  2  0
 21 22  1  0
 21 13  1  0
 23 21  2  0
M  END
$$$$
