ASF.pdb
     RDKit          3D

 23 23  0  0  1  0  0  0  0  0999 V2000
   21.7279  -12.4254  -16.0113 C   0  0  0  0  0  0  0  0  0  0  0  0
   21.2143  -12.0098  -17.3575 C   0  0  2  0  0  0  0  0  0  0  0  0
   21.9772  -12.6344  -18.4406 N   0  0  0  0  0  0  0  0  0  0  0  0
   21.1738  -10.5445  -17.5326 C   0  0  0  0  0  0  0  0  0  0  0  0
   22.2392   -9.9039  -17.7154 O   0  0  0  0  0  0  0  0  0  0  0  0
   17.5183   -8.5234  -17.4892 O   0  0  0  0  0  0  0  0  0  0  0  0
   18.5539   -8.0078  -18.2519 C   0  0  0  0  0  0  0  0  0  0  0  0
   19.9087   -8.3589  -17.6851 C   0  0  2  0  0  0  0  0  0  0  0  0
   19.9694   -9.7914  -17.5065 N   0  0  0  0  0  0  0  0  0  0  0  0
   20.1390   -7.6236  -16.4224 C   0  0  0  0  0  0  0  0  0  0  0  0
   19.6608   -8.0962  -15.3600 O   0  0  0  0  0  0  0  0  0  0  0  0
   20.8698   -6.4090  -16.3249 N   0  0  0  0  0  0  0  0  0  0  0  0
   21.0347   -5.6954  -15.0695 C   0  0  1  0  0  0  0  0  0  0  0  0
   22.4640   -5.7063  -14.6419 C   0  0  0  0  0  0  0  0  0  0  0  0
   23.0225   -7.0424  -14.4800 C   0  0  0  0  0  0  0  0  0  0  0  0
   24.0091   -7.5630  -15.3188 C   0  0  0  0  0  0  0  0  0  0  0  0
   24.5473   -8.8120  -15.1674 C   0  0  0  0  0  0  0  0  0  0  0  0
   24.1156   -9.6223  -14.1453 C   0  0  0  0  0  0  0  0  0  0  0  0
   23.1500   -9.1545  -13.2981 C   0  0  0  0  0  0  0  0  0  0  0  0
   22.6104   -7.8823  -13.4623 C   0  0  0  0  0  0  0  0  0  0  0  0
   20.4753   -4.3403  -15.2365 C   0  0  0  0  0  0  0  0  0  0  0  0
   20.4375   -3.4451  -14.1605 O   0  0  0  0  0  0  0  0  0  0  0  0
   20.0315   -4.0050  -16.3654 O   0  0  0  0  0  0  0  0  0  0  0  0
  2  4  1  0
  2  3  1  0
  2  1  1  1
  4  5  2  0
  6  7  1  0
  8  7  1  1
  8 10  1  0
  9  8  1  0
  9  4  1  0
 10 12  1  0
 10 11  2  0
 12 13  1  0
 13 14  1  6
 14 15  1  0
 15 16  2  0
 15 20  1  0
 16 17  1  0
 17 18  2  0
 19 18  1  0
 20 19  2  0
 21 22  1  0
 21 13  1  0
 23 21  2  0
M  END
$$$$
