YSW.pdb
     RDKit          3D

 33 35  0  0  1  0  0  0  0  0999 V2000
    7.6603  -12.1461   16.6644 O   0  0  0  0  0  0  0  0  0  0  0  0
    7.7535  -12.7968   17.8909 C   0  0  0  0  0  0  0  0  0  0  0  0
    6.6710  -12.9645   18.7187 C   0  0  0  0  0  0  0  0  0  0  0  0
    6.8385  -13.6168   19.9139 C   0  0  0  0  0  0  0  0  0  0  0  0
    8.0603  -14.1234   20.3369 C   0  0  0  0  0  0  0  0  0  0  0  0
    8.2285  -14.8223   21.6217 C   0  0  0  0  0  0  0  0  0  0  0  0
    8.6988  -16.2510   21.4336 C   0  0  2  0  0  0  0  0  0  0  0  0
    7.5303  -16.9828   20.9178 N   0  0  0  0  0  0  0  0  0  0  0  0
    9.0724  -16.8915   22.6955 C   0  0  0  0  0  0  0  0  0  0  0  0
    8.1393  -17.3257   23.4544 O   0  0  0  0  0  0  0  0  0  0  0  0
    9.1282  -13.9474   19.4993 C   0  0  0  0  0  0  0  0  0  0  0  0
    8.9689  -13.2895   18.2897 C   0  0  0  0  0  0  0  0  0  0  0  0
   12.9417  -17.7791   23.7993 O   0  0  0  0  0  0  0  0  0  0  0  0
   11.9382  -18.4991   24.4602 C   0  0  0  0  0  0  0  0  0  0  0  0
   10.7079  -17.6294   24.4717 C   0  0  2  0  0  0  0  0  0  0  0  0
   10.3866  -17.0856   23.1755 N   0  0  0  0  0  0  0  0  0  0  0  0
   10.7510  -16.5837   25.5205 C   0  0  0  0  0  0  0  0  0  0  0  0
   11.2618  -15.4643   25.2864 O   0  0  0  0  0  0  0  0  0  0  0  0
   10.2126  -16.8568   26.7856 N   0  0  0  0  0  0  0  0  0  0  0  0
   10.4484  -16.0475   27.9621 C   0  0  1  0  0  0  0  0  0  0  0  0
    9.1202  -15.6738   28.5684 C   0  0  0  0  0  0  0  0  0  0  0  0
    8.0841  -15.3253   27.5983 C   0  0  0  0  0  0  0  0  0  0  0  0
    7.2216  -16.2167   26.9983 C   0  0  0  0  0  0  0  0  0  0  0  0
    6.4174  -15.5391   26.1710 N   0  0  0  0  0  0  0  0  0  0  0  0
    6.7478  -14.2290   26.2291 C   0  0  0  0  0  0  0  0  0  0  0  0
    6.2472  -13.1170   25.5908 C   0  0  0  0  0  0  0  0  0  0  0  0
    6.7750  -11.8433   25.8283 C   0  0  0  0  0  0  0  0  0  0  0  0
    7.8131  -11.7346   26.7220 C   0  0  0  0  0  0  0  0  0  0  0  0
    8.3373  -12.8246   27.3770 C   0  0  0  0  0  0  0  0  0  0  0  0
    7.7925  -14.0627   27.1182 C   0  0  0  0  0  0  0  0  0  0  0  0
   11.3501  -16.6992   28.9258 C   0  0  0  0  0  0  0  0  0  0  0  0
   11.7203  -18.0132   28.6750 O   0  0  0  0  0  0  0  0  0  0  0  0
   11.8095  -16.1558   29.9580 O   0  0  0  0  0  0  0  0  0  0  0  0
  2 12  2  0
  2  1  1  0
  3  2  1  0
  4  3  2  0
  5  4  1  0
  5 11  2  0
  6  5  1  0
  7  6  1  0
  7  9  1  0
  7  8  1  1
  9 10  2  0
 11 12  1  0
 13 14  1  0
 15 14  1  6
 16  9  1  0
 16 15  1  0
 17 15  1  0
 17 18  2  0
 19 17  1  0
 20 19  1  0
 20 21  1  1
 22 21  1  0
 22 30  1  0
 23 22  2  0
 24 23  1  0
 24 25  1  0
 25 26  1  0
 25 30  2  0
 26 27  2  0
 27 28  1  0
 29 28  2  0
 30 29  1  0
 31 32  1  0
 31 20  1  0
 33 31  2  0
M  END
$$$$
