YSW.pdb
     RDKit          3D

 33 35  0  0  1  0  0  0  0  0999 V2000
    8.3707  -22.2610   29.7609 O   0  0  0  0  0  0  0  0  0  0  0  0
    8.2359  -21.4591   28.6316 C   0  0  0  0  0  0  0  0  0  0  0  0
    7.0539  -21.3543   27.9408 C   0  0  0  0  0  0  0  0  0  0  0  0
    6.9956  -20.5436   26.8355 C   0  0  0  0  0  0  0  0  0  0  0  0
    8.0822  -19.8139   26.3719 C   0  0  0  0  0  0  0  0  0  0  0  0
    8.0082  -18.9465   25.1845 C   0  0  0  0  0  0  0  0  0  0  0  0
    7.3016  -19.6258   24.0283 C   0  0  2  0  0  0  0  0  0  0  0  0
    8.0061  -20.9039   23.8358 N   0  0  0  0  0  0  0  0  0  0  0  0
    7.4304  -18.8819   22.7744 C   0  0  0  0  0  0  0  0  0  0  0  0
    8.2480  -19.3170   21.8927 O   0  0  0  0  0  0  0  0  0  0  0  0
    9.2520  -19.9303   27.0725 C   0  0  0  0  0  0  0  0  0  0  0  0
    9.3208  -20.7469   28.1904 C   0  0  0  0  0  0  0  0  0  0  0  0
    5.4247  -15.3226   22.1368 O   0  0  0  0  0  0  0  0  0  0  0  0
    6.1977  -15.7396   21.0455 C   0  0  0  0  0  0  0  0  0  0  0  0
    7.2603  -16.6609   21.5859 C   0  0  2  0  0  0  0  0  0  0  0  0
    6.7302  -17.7054   22.4267 N   0  0  0  0  0  0  0  0  0  0  0  0
    8.3770  -15.9349   22.2349 C   0  0  0  0  0  0  0  0  0  0  0  0
    9.0279  -15.0692   21.6058 O   0  0  0  0  0  0  0  0  0  0  0  0
    8.7030  -16.2248   23.5671 N   0  0  0  0  0  0  0  0  0  0  0  0
    9.7782  -15.5893   24.2984 C   0  0  1  0  0  0  0  0  0  0  0  0
    9.3264  -15.3513   25.7163 C   0  0  0  0  0  0  0  0  0  0  0  0
    7.9694  -14.8237   25.8430 C   0  0  0  0  0  0  0  0  0  0  0  0
    6.8257  -15.5840   25.9544 C   0  0  0  0  0  0  0  0  0  0  0  0
    5.7751  -14.7608   26.0488 N   0  0  0  0  0  0  0  0  0  0  0  0
    6.2236  -13.4858   26.0001 C   0  0  0  0  0  0  0  0  0  0  0  0
    5.5764  -12.2723   26.0540 C   0  0  0  0  0  0  0  0  0  0  0  0
    6.2836  -11.0673   25.9809 C   0  0  0  0  0  0  0  0  0  0  0  0
    7.6503  -11.1315   25.8531 C   0  0  0  0  0  0  0  0  0  0  0  0
    8.3287  -12.3267   25.7962 C   0  0  0  0  0  0  0  0  0  0  0  0
    7.5995  -13.4926   25.8711 C   0  0  0  0  0  0  0  0  0  0  0  0
   11.0386  -16.3457   24.2225 C   0  0  0  0  0  0  0  0  0  0  0  0
   12.1770  -15.7559   24.7540 O   0  0  0  0  0  0  0  0  0  0  0  0
   11.1613  -17.4846   23.7129 O   0  0  0  0  0  0  0  0  0  0  0  0
  2 12  2  0
  2  1  1  0
  3  2  1  0
  4  3  2  0
  5  4  1  0
  5 11  2  0
  6  5  1  0
  7  6  1  0
  7  9  1  0
  7  8  1  6
  9 10  2  0
 11 12  1  0
 13 14  1  0
 15 14  1  1
 16  9  1  0
 16 15  1  0
 17 15  1  0
 17 18  2  0
 19 17  1  0
 20 19  1  0
 20 21  1  1
 22 21  1  0
 22 30  1  0
 23 22  2  0
 24 23  1  0
 24 25  1  0
 25 26  1  0
 25 30  2  0
 26 27  2  0
 27 28  1  0
 29 28  2  0
 30 29  1  0
 31 32  1  0
 31 20  1  0
 33 31  2  0
M  END
$$$$
