YSW.pdb
     RDKit          3D

 33 35  0  0  1  0  0  0  0  0999 V2000
    7.7941  -12.7611   16.2737 O   0  0  0  0  0  0  0  0  0  0  0  0
    7.8515  -13.2987   17.5560 C   0  0  0  0  0  0  0  0  0  0  0  0
    8.0134  -14.6432   17.7833 C   0  0  0  0  0  0  0  0  0  0  0  0
    8.0612  -15.1014   19.0755 C   0  0  0  0  0  0  0  0  0  0  0  0
    7.9532  -14.2674   20.1805 C   0  0  0  0  0  0  0  0  0  0  0  0
    8.0062  -14.7701   21.5633 C   0  0  0  0  0  0  0  0  0  0  0  0
    8.0374  -16.2846   21.6161 C   0  0  2  0  0  0  0  0  0  0  0  0
    6.6436  -16.7119   21.4120 N   0  0  0  0  0  0  0  0  0  0  0  0
    8.4456  -16.7940   22.9262 C   0  0  0  0  0  0  0  0  0  0  0  0
    7.5989  -16.7523   23.8835 O   0  0  0  0  0  0  0  0  0  0  0  0
    7.7924  -12.9307   19.9354 C   0  0  0  0  0  0  0  0  0  0  0  0
    7.7429  -12.4581   18.6333 C   0  0  0  0  0  0  0  0  0  0  0  0
   12.1606  -18.4855   23.7506 O   0  0  0  0  0  0  0  0  0  0  0  0
   11.0801  -18.9461   24.5141 C   0  0  0  0  0  0  0  0  0  0  0  0
   10.0672  -17.8316   24.5596 C   0  0  2  0  0  0  0  0  0  0  0  0
    9.7067  -17.3402   23.2528 N   0  0  0  0  0  0  0  0  0  0  0  0
   10.4554  -16.7372   25.4798 C   0  0  0  0  0  0  0  0  0  0  0  0
   11.0200  -15.7069   25.0456 O   0  0  0  0  0  0  0  0  0  0  0  0
   10.1847  -16.8626   26.8495 N   0  0  0  0  0  0  0  0  0  0  0  0
   10.9110  -16.1658   27.8896 C   0  0  1  0  0  0  0  0  0  0  0  0
   10.1168  -14.9555   28.3088 C   0  0  0  0  0  0  0  0  0  0  0  0
    8.7852  -14.8644   27.7133 C   0  0  0  0  0  0  0  0  0  0  0  0
    7.7622  -15.7670   27.9063 C   0  0  0  0  0  0  0  0  0  0  0  0
    6.6981  -15.3603   27.2045 N   0  0  0  0  0  0  0  0  0  0  0  0
    7.0193  -14.2130   26.5646 C   0  0  0  0  0  0  0  0  0  0  0  0
    6.3062  -13.3891   25.7236 C   0  0  0  0  0  0  0  0  0  0  0  0
    6.8789  -12.2344   25.1795 C   0  0  0  0  0  0  0  0  0  0  0  0
    8.1808  -11.9457   25.5110 C   0  0  0  0  0  0  0  0  0  0  0  0
    8.9220  -12.7469   26.3480 C   0  0  0  0  0  0  0  0  0  0  0  0
    8.3253  -13.8754   26.8648 C   0  0  0  0  0  0  0  0  0  0  0  0
   11.2555  -17.0403   29.0224 C   0  0  0  0  0  0  0  0  0  0  0  0
   10.7795  -18.3438   28.9981 O   0  0  0  0  0  0  0  0  0  0  0  0
   11.9475  -16.6954   30.0092 O   0  0  0  0  0  0  0  0  0  0  0  0
  2 12  2  0
  2  1  1  0
  3  2  1  0
  4  3  2  0
  5  4  1  0
  5 11  2  0
  6  5  1  0
  7  6  1  0
  7  9  1  0
  7  8  1  1
  9 10  2  0
 11 12  1  0
 13 14  1  0
 15 14  1  6
 16  9  1  0
 16 15  1  0
 17 15  1  0
 17 18  2  0
 19 17  1  0
 20 19  1  0
 20 21  1  1
 22 21  1  0
 22 30  1  0
 23 22  2  0
 24 23  1  0
 24 25  1  0
 25 26  1  0
 25 30  2  0
 26 27  2  0
 27 28  1  0
 29 28  2  0
 30 29  1  0
 31 32  1  0
 31 20  1  0
 33 31  2  0
M  END
$$$$
