YSW.pdb
     RDKit          3D

 33 35  0  0  1  0  0  0  0  0999 V2000
    7.2546  -12.2140   17.1917 O   0  0  0  0  0  0  0  0  0  0  0  0
    7.5787  -13.0005   18.2931 C   0  0  0  0  0  0  0  0  0  0  0  0
    6.7589  -13.1040   19.3897 C   0  0  0  0  0  0  0  0  0  0  0  0
    7.1441  -13.8990   20.4393 C   0  0  0  0  0  0  0  0  0  0  0  0
    8.3344  -14.6140   20.4523 C   0  0  0  0  0  0  0  0  0  0  0  0
    8.7378  -15.4647   21.5842 C   0  0  0  0  0  0  0  0  0  0  0  0
    8.7228  -16.9365   21.2221 C   0  0  2  0  0  0  0  0  0  0  0  0
    7.2999  -17.3062   21.1462 N   0  0  0  0  0  0  0  0  0  0  0  0
    9.3208  -17.7778   22.2598 C   0  0  0  0  0  0  0  0  0  0  0  0
    8.6947  -17.9122   23.3666 O   0  0  0  0  0  0  0  0  0  0  0  0
    9.1391  -14.4992   19.3513 C   0  0  0  0  0  0  0  0  0  0  0  0
    8.7584  -13.6983   18.2859 C   0  0  0  0  0  0  0  0  0  0  0  0
   12.9782  -19.5783   21.8213 O   0  0  0  0  0  0  0  0  0  0  0  0
   12.2224  -20.1365   22.8604 C   0  0  0  0  0  0  0  0  0  0  0  0
   11.2167  -19.0963   23.2804 C   0  0  2  0  0  0  0  0  0  0  0  0
   10.5463  -18.4739   22.1658 N   0  0  0  0  0  0  0  0  0  0  0  0
   11.7778  -18.0991   24.2217 C   0  0  0  0  0  0  0  0  0  0  0  0
   12.0421  -16.9363   23.8385 O   0  0  0  0  0  0  0  0  0  0  0  0
   12.0125  -18.4675   25.5537 N   0  0  0  0  0  0  0  0  0  0  0  0
   12.7429  -17.6576   26.5052 C   0  0  1  0  0  0  0  0  0  0  0  0
   12.2124  -16.2481   26.4510 C   0  0  0  0  0  0  0  0  0  0  0  0
   10.8607  -16.0849   26.9823 C   0  0  0  0  0  0  0  0  0  0  0  0
   10.0249  -17.1117   27.3640 C   0  0  0  0  0  0  0  0  0  0  0  0
    8.8735  -16.5846   27.7959 N   0  0  0  0  0  0  0  0  0  0  0  0
    8.9549  -15.2382   27.6986 C   0  0  0  0  0  0  0  0  0  0  0  0
    8.0672  -14.2309   28.0019 C   0  0  0  0  0  0  0  0  0  0  0  0
    8.3986  -12.8861   27.8048 C   0  0  0  0  0  0  0  0  0  0  0  0
    9.6427  -12.5990   27.2969 C   0  0  0  0  0  0  0  0  0  0  0  0
   10.5538  -13.5805   26.9831 C   0  0  0  0  0  0  0  0  0  0  0  0
   10.1928  -14.8933   27.1903 C   0  0  0  0  0  0  0  0  0  0  0  0
   12.7195  -18.2222   27.8644 C   0  0  0  0  0  0  0  0  0  0  0  0
   12.0092  -19.3982   28.0615 O   0  0  0  0  0  0  0  0  0  0  0  0
   13.2939  -17.7196   28.8591 O   0  0  0  0  0  0  0  0  0  0  0  0
  2 12  2  0
  2  1  1  0
  3  2  1  0
  4  3  2  0
  5  4  1  0
  5 11  2  0
  6  5  1  0
  7  6  1  0
  7  9  1  0
  7  8  1  1
  9 10  2  0
 11 12  1  0
 13 14  1  0
 15 14  1  6
 16  9  1  0
 16 15  1  0
 17 15  1  0
 17 18  2  0
 19 17  1  0
 20 19  1  0
 20 21  1  1
 22 21  1  0
 22 30  1  0
 23 22  2  0
 24 23  1  0
 24 25  1  0
 25 26  1  0
 25 30  2  0
 26 27  2  0
 27 28  1  0
 29 28  2  0
 30 29  1  0
 31 32  1  0
 31 20  1  0
 33 31  2  0
M  END
$$$$
