RSW.pdb
     RDKit          3D

 32 33  0  0  1  0  0  0  0  0999 V2000
   29.8885  -22.5834  -16.1068 N   0  0  0  0  0  0  0  0  0  0  0  0
   29.2524  -23.2159  -17.1857 C   0  0  0  0  0  0  0  0  0  0  0  0
   29.5222  -24.4391  -17.4795 N   0  0  0  0  0  0  0  0  0  0  0  0
   28.2853  -22.5714  -18.0176 N   0  0  0  0  0  0  0  0  0  0  0  0
   27.5145  -21.4368  -17.5157 C   0  0  0  0  0  0  0  0  0  0  0  0
   26.2731  -21.9117  -16.7871 C   0  0  0  0  0  0  0  0  0  0  0  0
   26.2770  -21.3170  -15.3978 C   0  0  0  0  0  0  0  0  0  0  0  0
   25.3727  -20.1371  -15.2581 C   0  0  2  0  0  0  0  0  0  0  0  0
   25.8700  -19.0741  -16.1088 N   0  0  0  0  0  0  0  0  0  0  0  0
   25.2202  -19.6916  -13.8510 C   0  0  0  0  0  0  0  0  0  0  0  0
   26.0077  -18.8165  -13.4114 O   0  0  0  0  0  0  0  0  0  0  0  0
   29.1010  -24.8999  -18.3218 O   0  0  0  0  0  0  0  0  0  0  0  0
   22.0527  -21.0457  -11.5169 C   0  0  0  0  0  0  0  0  0  0  0  0
   22.7309  -19.9010  -11.1390 C   0  0  1  0  0  0  0  0  0  0  0  0
   24.1789  -19.9350  -11.5692 N   0  0  0  0  0  0  0  0  0  0  0  0
   24.2404  -20.1922  -12.9705 C   0  0  0  0  0  0  0  0  0  0  0  0
   24.9385  -20.8993  -10.7409 O   0  0  0  0  0  0  0  0  0  0  0  0
   25.2323  -22.0221  -11.2013 N   0  0  0  0  0  0  0  0  0  0  0  0
   25.3452  -20.5828   -9.4323 C   0  0  1  0  0  0  0  0  0  0  0  0
   25.9923  -21.6348   -8.6322 C   0  0  0  0  0  0  0  0  0  0  0  0
   27.4092  -21.2253   -8.3180 C   0  0  0  0  0  0  0  0  0  0  0  0
   27.5449  -20.1742   -7.3032 C   0  0  0  0  0  0  0  0  0  0  0  0
   26.8498  -18.9763   -7.3990 N   0  0  0  0  0  0  0  0  0  0  0  0
   27.1260  -18.2584   -6.3190 C   0  0  0  0  0  0  0  0  0  0  0  0
   27.9706  -18.9115   -5.5047 C   0  0  0  0  0  0  0  0  0  0  0  0
   28.5416  -18.5654   -4.2933 C   0  0  0  0  0  0  0  0  0  0  0  0
   29.3981  -19.4743   -3.7160 C   0  0  0  0  0  0  0  0  0  0  0  0
   29.6853  -20.6709   -4.2980 C   0  0  0  0  0  0  0  0  0  0  0  0
   29.1055  -21.0051   -5.5120 C   0  0  0  0  0  0  0  0  0  0  0  0
   28.2331  -20.1237   -6.1342 C   0  0  0  0  0  0  0  0  0  0  0  0
   25.2106  -21.7880   -7.4019 O   0  0  0  0  0  0  0  0  0  0  0  0
   24.1960  -21.0988   -7.1286 O   0  0  0  0  0  0  0  0  0  0  0  0
  2  3  2  0
  2  1  1  0
  4  2  1  0
  5  4  1  0
  6  5  1  0
  7  6  1  0
  7  8  1  0
  8  9  1  6
 10  8  1  0
 10 11  2  0
 13 12  1  0
 14 13  1  6
 14 15  1  0
 15 10  1  0
 16 18  1  0
 16 14  1  0
 17 16  2  0
 19 18  1  0
 19 30  1  0
 20 21  1  0
 19 20  1  1
 21 29  1  0
 22 23  1  0
 22 21  2  0
 23 24  1  0
 24 29  2  0
 24 25  1  0
 25 26  2  0
 26 27  1  0
 28 27  2  0
 29 28  1  0
 30 31  2  0
 30 32  1  0
M  END
$$$$
