RSW.pdb
     RDKit          3D

 32 33  0  0  1  0  0  0  0  0999 V2000
   21.5158  -16.2302  -18.0178 N   0  0  0  0  0  0  0  0  0  0  0  0
   20.7314  -15.7402  -16.9626 C   0  0  0  0  0  0  0  0  0  0  0  0
   19.4861  -15.4715  -17.1421 N   0  0  0  0  0  0  0  0  0  0  0  0
   21.2381  -15.5077  -15.6467 N   0  0  0  0  0  0  0  0  0  0  0  0
   22.6522  -15.7203  -15.3488 C   0  0  0  0  0  0  0  0  0  0  0  0
   23.0018  -17.1930  -15.4282 C   0  0  0  0  0  0  0  0  0  0  0  0
   22.6586  -17.8381  -14.1054 C   0  0  0  0  0  0  0  0  0  0  0  0
   22.4250  -19.3092  -14.2089 C   0  0  2  0  0  0  0  0  0  0  0  0
   20.9980  -19.5415  -14.3113 N   0  0  0  0  0  0  0  0  0  0  0  0
   23.0282  -20.0686  -13.0860 C   0  0  0  0  0  0  0  0  0  0  0  0
   22.4741  -20.0127  -11.9594 O   0  0  0  0  0  0  0  0  0  0  0  0
   18.8922  -15.1052  -16.3596 O   0  0  0  0  0  0  0  0  0  0  0  0
   26.5787  -22.2830  -13.6079 C   0  0  0  0  0  0  0  0  0  0  0  0
   25.6050  -22.7241  -12.7302 C   0  0  1  0  0  0  0  0  0  0  0  0
   24.8124  -21.5788  -12.1446 N   0  0  0  0  0  0  0  0  0  0  0  0
   24.1920  -20.8544  -13.2047 C   0  0  0  0  0  0  0  0  0  0  0  0
   25.6739  -20.7530  -11.2678 O   0  0  0  0  0  0  0  0  0  0  0  0
   26.1980  -19.7098  -11.7106 N   0  0  0  0  0  0  0  0  0  0  0  0
   25.9223  -21.1141   -9.9313 C   0  0  1  0  0  0  0  0  0  0  0  0
   26.9186  -20.3383   -9.1756 C   0  0  0  0  0  0  0  0  0  0  0  0
   26.5800  -20.3835   -7.7069 C   0  0  0  0  0  0  0  0  0  0  0  0
   27.5538  -19.7351   -6.8213 C   0  0  0  0  0  0  0  0  0  0  0  0
   27.8637  -18.3875   -6.9434 N   0  0  0  0  0  0  0  0  0  0  0  0
   28.7196  -18.0781   -5.9792 C   0  0  0  0  0  0  0  0  0  0  0  0
   29.0007  -19.1477   -5.2177 C   0  0  0  0  0  0  0  0  0  0  0  0
   29.8325  -19.3130   -4.1250 C   0  0  0  0  0  0  0  0  0  0  0  0
   29.9101  -20.5716   -3.5747 C   0  0  0  0  0  0  0  0  0  0  0  0
   29.2052  -21.6249   -4.0716 C   0  0  0  0  0  0  0  0  0  0  0  0
   28.3749  -21.4449   -5.1669 C   0  0  0  0  0  0  0  0  0  0  0  0
   28.2601  -20.1943   -5.7568 C   0  0  0  0  0  0  0  0  0  0  0  0
   28.2269  -20.9495   -9.4265 O   0  0  0  0  0  0  0  0  0  0  0  0
   28.4273  -22.1900   -9.4397 O   0  0  0  0  0  0  0  0  0  0  0  0
  2  3  2  0
  2  1  1  0
  4  2  1  0
  5  4  1  0
  6  5  1  0
  7  6  1  0
  7  8  1  0
  8  9  1  1
 10  8  1  0
 10 11  2  0
 13 12  1  0
 14 13  1  1
 14 15  1  0
 15 10  1  0
 16 18  1  0
 16 14  1  0
 17 16  2  0
 19 18  1  0
 19 30  1  0
 20 21  1  0
 19 20  1  6
 21 29  1  0
 22 23  1  0
 22 21  2  0
 23 24  1  0
 24 29  2  0
 24 25  1  0
 25 26  2  0
 26 27  1  0
 28 27  2  0
 29 28  1  0
 30 31  2  0
 30 32  1  0
M  END
$$$$
