RSW.pdb
     RDKit          3D

 32 33  0  0  1  0  0  0  0  0999 V2000
   35.6890  -27.4931  -15.0025 N   0  0  0  0  0  0  0  0  0  0  0  0
   35.9306  -26.4468  -14.0994 C   0  0  0  0  0  0  0  0  0  0  0  0
   36.9537  -26.4775  -13.3198 N   0  0  0  0  0  0  0  0  0  0  0  0
   35.0857  -25.3005  -13.9778 N   0  0  0  0  0  0  0  0  0  0  0  0
   33.7427  -25.3055  -14.5522 C   0  0  0  0  0  0  0  0  0  0  0  0
   33.7888  -24.9607  -16.0274 C   0  0  0  0  0  0  0  0  0  0  0  0
   32.6397  -24.0294  -16.3371 C   0  0  0  0  0  0  0  0  0  0  0  0
   31.3156  -24.7182  -16.3772 C   0  0  2  0  0  0  0  0  0  0  0  0
   31.4293  -25.8821  -17.2336 N   0  0  0  0  0  0  0  0  0  0  0  0
   30.2133  -23.8230  -16.8069 C   0  0  0  0  0  0  0  0  0  0  0  0
   30.0888  -22.7101  -16.2365 O   0  0  0  0  0  0  0  0  0  0  0  0
   37.1086  -25.7320  -12.5991 O   0  0  0  0  0  0  0  0  0  0  0  0
   27.2241  -25.2470  -19.3721 C   0  0  0  0  0  0  0  0  0  0  0  0
   27.5578  -23.9071  -19.4529 C   0  0  1  0  0  0  0  0  0  0  0  0
   28.1280  -23.3882  -18.1536 N   0  0  0  0  0  0  0  0  0  0  0  0
   29.2905  -24.1448  -17.8222 C   0  0  0  0  0  0  0  0  0  0  0  0
   27.0865  -23.3831  -17.1009 O   0  0  0  0  0  0  0  0  0  0  0  0
   27.0848  -24.2680  -16.2200 N   0  0  0  0  0  0  0  0  0  0  0  0
   26.0849  -22.3965  -17.0634 C   0  0  1  0  0  0  0  0  0  0  0  0
   25.1039  -22.4435  -15.9675 C   0  0  0  0  0  0  0  0  0  0  0  0
   25.6368  -21.6749  -14.7846 C   0  0  0  0  0  0  0  0  0  0  0  0
   25.7696  -20.2279  -14.9886 C   0  0  0  0  0  0  0  0  0  0  0  0
   24.7165  -19.3584  -14.7396 N   0  0  0  0  0  0  0  0  0  0  0  0
   25.1490  -18.1237  -14.9548 C   0  0  0  0  0  0  0  0  0  0  0  0
   26.4365  -18.1196  -15.3360 C   0  0  0  0  0  0  0  0  0  0  0  0
   27.2976  -17.0922  -15.6769 C   0  0  0  0  0  0  0  0  0  0  0  0
   28.5769  -17.4369  -16.0475 C   0  0  0  0  0  0  0  0  0  0  0  0
   28.9974  -18.7311  -16.0842 C   0  0  0  0  0  0  0  0  0  0  0  0
   28.1240  -19.7509  -15.7395 C   0  0  0  0  0  0  0  0  0  0  0  0
   26.8235  -19.4555  -15.3566 C   0  0  0  0  0  0  0  0  0  0  0  0
   23.8659  -21.8376  -16.4661 O   0  0  0  0  0  0  0  0  0  0  0  0
   23.7953  -21.1622  -17.5235 O   0  0  0  0  0  0  0  0  0  0  0  0
  2  3  2  0
  2  1  1  0
  4  2  1  0
  5  4  1  0
  6  5  1  0
  7  6  1  0
  7  8  1  0
  8  9  1  6
 10  8  1  0
 10 11  2  0
 13 12  1  0
 14 13  1  6
 14 15  1  0
 15 10  1  0
 16 18  1  0
 16 14  1  0
 17 16  2  0
 19 18  1  0
 19 30  1  0
 20 21  1  0
 19 20  1  1
 21 29  1  0
 22 23  1  0
 22 21  2  0
 23 24  1  0
 24 29  2  0
 24 25  1  0
 25 26  2  0
 26 27  1  0
 28 27  2  0
 29 28  1  0
 30 31  2  0
 30 32  1  0
M  END
$$$$
