RSW.pdb
     RDKit          3D

 32 33  0  0  1  0  0  0  0  0999 V2000
   29.1420  -20.3179  -17.9740 N   0  0  0  0  0  0  0  0  0  0  0  0
   29.0611  -21.6339  -17.4939 C   0  0  0  0  0  0  0  0  0  0  0  0
   29.2162  -22.6324  -18.2903 N   0  0  0  0  0  0  0  0  0  0  0  0
   28.8074  -21.9587  -16.1254 N   0  0  0  0  0  0  0  0  0  0  0  0
   29.2507  -21.0663  -15.0574 C   0  0  0  0  0  0  0  0  0  0  0  0
   28.9552  -19.6216  -15.4081 C   0  0  0  0  0  0  0  0  0  0  0  0
   28.0108  -19.0610  -14.3700 C   0  0  0  0  0  0  0  0  0  0  0  0
   26.6239  -19.6033  -14.4792 C   0  0  2  0  0  0  0  0  0  0  0  0
   26.0207  -19.0811  -15.6892 N   0  0  0  0  0  0  0  0  0  0  0  0
   25.7967  -19.3148  -13.2818 C   0  0  0  0  0  0  0  0  0  0  0  0
   25.7746  -18.1392  -12.8383 O   0  0  0  0  0  0  0  0  0  0  0  0
   29.1813  -23.6186  -17.9363 O   0  0  0  0  0  0  0  0  0  0  0  0
   22.7213  -21.6492  -12.2937 C   0  0  0  0  0  0  0  0  0  0  0  0
   22.8433  -20.4328  -11.6467 C   0  0  1  0  0  0  0  0  0  0  0  0
   24.2885  -20.0636  -11.4068 N   0  0  0  0  0  0  0  0  0  0  0  0
   25.0286  -20.2839  -12.6057 C   0  0  0  0  0  0  0  0  0  0  0  0
   24.8147  -20.7873  -10.2269 O   0  0  0  0  0  0  0  0  0  0  0  0
   25.5009  -21.8189  -10.3820 N   0  0  0  0  0  0  0  0  0  0  0  0
   24.5611  -20.3403   -8.9177 C   0  0  1  0  0  0  0  0  0  0  0  0
   24.7009  -21.3045   -7.8149 C   0  0  0  0  0  0  0  0  0  0  0  0
   25.0660  -20.5694   -6.5499 C   0  0  0  0  0  0  0  0  0  0  0  0
   26.4109  -19.9830   -6.5345 C   0  0  0  0  0  0  0  0  0  0  0  0
   26.8809  -19.2128   -7.5895 N   0  0  0  0  0  0  0  0  0  0  0  0
   28.0908  -18.7766   -7.2673 C   0  0  0  0  0  0  0  0  0  0  0  0
   28.4572  -19.2147   -6.0520 C   0  0  0  0  0  0  0  0  0  0  0  0
   29.6123  -19.0345   -5.3127 C   0  0  0  0  0  0  0  0  0  0  0  0
   29.6777  -19.6485   -4.0832 C   0  0  0  0  0  0  0  0  0  0  0  0
   28.6577  -20.4074   -3.5966 C   0  0  0  0  0  0  0  0  0  0  0  0
   27.5056  -20.5793   -4.3480 C   0  0  0  0  0  0  0  0  0  0  0  0
   27.3895  -19.9792   -5.5936 C   0  0  0  0  0  0  0  0  0  0  0  0
   23.4113  -21.9853   -7.6667 O   0  0  0  0  0  0  0  0  0  0  0  0
   23.2181  -22.9538   -6.8897 O   0  0  0  0  0  0  0  0  0  0  0  0
  2  3  2  0
  2  1  1  0
  4  2  1  0
  5  4  1  0
  6  5  1  0
  7  6  1  0
  7  8  1  0
  8  9  1  6
 10  8  1  0
 10 11  2  0
 13 12  1  0
 14 13  1  6
 14 15  1  0
 15 10  1  0
 16 18  1  0
 16 14  1  0
 17 16  2  0
 19 18  1  0
 19 30  1  0
 20 21  1  0
 19 20  1  1
 21 29  1  0
 22 23  1  0
 22 21  2  0
 23 24  1  0
 24 29  2  0
 24 25  1  0
 25 26  2  0
 26 27  1  0
 28 27  2  0
 29 28  1  0
 30 31  2  0
 30 32  1  0
M  END
$$$$
