RSW.pdb
     RDKit          3D

 32 33  0  0  1  0  0  0  0  0999 V2000
   23.9698  -26.6559  -15.3309 N   0  0  0  0  0  0  0  0  0  0  0  0
   23.8618  -26.6953  -16.7293 C   0  0  0  0  0  0  0  0  0  0  0  0
   23.0442  -27.5080  -17.3005 N   0  0  0  0  0  0  0  0  0  0  0  0
   24.6276  -25.8621  -17.6021 N   0  0  0  0  0  0  0  0  0  0  0  0
   25.3896  -24.7348  -17.0709 C   0  0  0  0  0  0  0  0  0  0  0  0
   24.4704  -23.7359  -16.3967 C   0  0  0  0  0  0  0  0  0  0  0  0
   25.2056  -23.1226  -15.2276 C   0  0  0  0  0  0  0  0  0  0  0  0
   26.4096  -22.3380  -15.6330 C   0  0  2  0  0  0  0  0  0  0  0  0
   27.2284  -23.1665  -16.4956 N   0  0  0  0  0  0  0  0  0  0  0  0
   27.1777  -21.8213  -14.4736 C   0  0  0  0  0  0  0  0  0  0  0  0
   28.4190  -21.6686  -14.5977 O   0  0  0  0  0  0  0  0  0  0  0  0
   23.0451  -27.6358  -18.3411 O   0  0  0  0  0  0  0  0  0  0  0  0
   27.2321  -18.0214  -12.4016 C   0  0  0  0  0  0  0  0  0  0  0  0
   26.9707  -19.1270  -13.1905 C   0  0  1  0  0  0  0  0  0  0  0  0
   27.0041  -20.4099  -12.3931 N   0  0  0  0  0  0  0  0  0  0  0  0
   26.5982  -21.4886  -13.2328 C   0  0  0  0  0  0  0  0  0  0  0  0
   26.2015  -20.2676  -11.1568 O   0  0  0  0  0  0  0  0  0  0  0  0
   25.0427  -19.8062  -11.2144 N   0  0  0  0  0  0  0  0  0  0  0  0
   26.7132  -20.6426   -9.9016 C   0  0  2  0  0  0  0  0  0  0  0  0
   25.7577  -20.9659   -8.8301 C   0  0  0  0  0  0  0  0  0  0  0  0
   25.6826  -19.8131   -7.8610 C   0  0  0  0  0  0  0  0  0  0  0  0
   26.9736  -19.3530   -7.3367 C   0  0  0  0  0  0  0  0  0  0  0  0
   27.5471  -18.1612   -7.7586 N   0  0  0  0  0  0  0  0  0  0  0  0
   28.6684  -17.9847   -7.0735 C   0  0  0  0  0  0  0  0  0  0  0  0
   28.8775  -18.9959   -6.2152 C   0  0  0  0  0  0  0  0  0  0  0  0
   29.8986  -19.2522   -5.3180 C   0  0  0  0  0  0  0  0  0  0  0  0
   29.8187  -20.4137   -4.5850 C   0  0  0  0  0  0  0  0  0  0  0  0
   28.7850  -21.2887   -4.7231 C   0  0  0  0  0  0  0  0  0  0  0  0
   27.7682  -21.0191   -5.6258 C   0  0  0  0  0  0  0  0  0  0  0  0
   27.8011  -19.8599   -6.3875 C   0  0  0  0  0  0  0  0  0  0  0  0
   24.4565  -21.1980   -9.4636 O   0  0  0  0  0  0  0  0  0  0  0  0
   23.3704  -21.2409   -8.8330 O   0  0  0  0  0  0  0  0  0  0  0  0
  2  3  2  0
  2  1  1  0
  4  2  1  0
  5  4  1  0
  6  5  1  0
  7  6  1  0
  7  8  1  0
  8  9  1  1
 10  8  1  0
 10 11  2  0
 13 12  1  0
 14 13  1  6
 14 15  1  0
 15 10  1  0
 16 18  1  0
 16 14  1  0
 17 16  2  0
 19 18  1  0
 19 30  1  0
 20 21  1  0
 19 20  1  6
 21 29  1  0
 22 23  1  0
 22 21  2  0
 23 24  1  0
 24 29  2  0
 24 25  1  0
 25 26  2  0
 26 27  1  0
 28 27  2  0
 29 28  1  0
 30 31  2  0
 30 32  1  0
M  END
$$$$
