RSW.pdb
     RDKit          3D

 32 33  0  0  1  0  0  0  0  0999 V2000
   17.2326  -13.9187  -16.5813 N   0  0  0  0  0  0  0  0  0  0  0  0
   17.8669  -14.4057  -17.7343 C   0  0  0  0  0  0  0  0  0  0  0  0
   17.8806  -13.7112  -18.8172 N   0  0  0  0  0  0  0  0  0  0  0  0
   18.5266  -15.6721  -17.7948 N   0  0  0  0  0  0  0  0  0  0  0  0
   19.2282  -16.1988  -16.6270 C   0  0  0  0  0  0  0  0  0  0  0  0
   20.6179  -15.6030  -16.5220 C   0  0  0  0  0  0  0  0  0  0  0  0
   21.5983  -16.7207  -16.2519 C   0  0  0  0  0  0  0  0  0  0  0  0
   21.6609  -17.7298  -17.3507 C   0  0  2  0  0  0  0  0  0  0  0  0
   20.3796  -18.4028  -17.4296 N   0  0  0  0  0  0  0  0  0  0  0  0
   22.7794  -18.6908  -17.1873 C   0  0  0  0  0  0  0  0  0  0  0  0
   22.6682  -19.5980  -16.3247 O   0  0  0  0  0  0  0  0  0  0  0  0
   18.3086  -14.0875  -19.6972 O   0  0  0  0  0  0  0  0  0  0  0  0
   26.3434  -18.5890  -19.6039 C   0  0  0  0  0  0  0  0  0  0  0  0
   25.6674  -19.7356  -19.2282 C   0  0  1  0  0  0  0  0  0  0  0  0
   25.0321  -19.5949  -17.8646 N   0  0  0  0  0  0  0  0  0  0  0  0
   23.9673  -18.6497  -17.9444 C   0  0  0  0  0  0  0  0  0  0  0  0
   26.0599  -19.2675  -16.8501 O   0  0  0  0  0  0  0  0  0  0  0  0
   26.4743  -18.0951  -16.7370 N   0  0  0  0  0  0  0  0  0  0  0  0
   26.5903  -20.2524  -15.9975 C   0  0  1  0  0  0  0  0  0  0  0  0
   27.7654  -19.9060  -15.1822 C   0  0  0  0  0  0  0  0  0  0  0  0
   27.3202  -19.1428  -13.9603 C   0  0  0  0  0  0  0  0  0  0  0  0
   26.4463  -19.8850  -13.0446 C   0  0  0  0  0  0  0  0  0  0  0  0
   26.9465  -20.5197  -11.9158 N   0  0  0  0  0  0  0  0  0  0  0  0
   25.9232  -21.0497  -11.2602 C   0  0  0  0  0  0  0  0  0  0  0  0
   24.7632  -20.8046  -11.8905 C   0  0  0  0  0  0  0  0  0  0  0  0
   23.4585  -21.1601  -11.5994 C   0  0  0  0  0  0  0  0  0  0  0  0
   22.4821  -20.7564  -12.4806 C   0  0  0  0  0  0  0  0  0  0  0  0
   22.7682  -20.0361  -13.5998 C   0  0  0  0  0  0  0  0  0  0  0  0
   24.0802  -19.6863  -13.8791 C   0  0  0  0  0  0  0  0  0  0  0  0
   25.1013  -20.0675  -13.0206 C   0  0  0  0  0  0  0  0  0  0  0  0
   28.4161  -21.1630  -14.8015 O   0  0  0  0  0  0  0  0  0  0  0  0
   29.4940  -21.2247  -14.1585 O   0  0  0  0  0  0  0  0  0  0  0  0
  2  3  2  0
  2  1  1  0
  4  2  1  0
  5  4  1  0
  6  5  1  0
  7  6  1  0
  7  8  1  0
  8  9  1  1
 10  8  1  0
 10 11  2  0
 13 12  1  0
 14 13  1  6
 14 15  1  0
 15 10  1  0
 16 18  1  0
 16 14  1  0
 17 16  2  0
 19 18  1  0
 19 30  1  0
 20 21  1  0
 19 20  1  1
 21 29  1  0
 22 23  1  0
 22 21  2  0
 23 24  1  0
 24 29  2  0
 24 25  1  0
 25 26  2  0
 26 27  1  0
 28 27  2  0
 29 28  1  0
 30 31  2  0
 30 32  1  0
M  END
$$$$
