RSW.pdb
     RDKit          3D

 32 33  0  0  1  0  0  0  0  0999 V2000
   31.1587  -17.1876  -19.7285 N   0  0  0  0  0  0  0  0  0  0  0  0
   31.2959  -16.1777  -18.7641 C   0  0  0  0  0  0  0  0  0  0  0  0
   31.6662  -14.9934  -19.1040 N   0  0  0  0  0  0  0  0  0  0  0  0
   31.0435  -16.3788  -17.3718 N   0  0  0  0  0  0  0  0  0  0  0  0
   30.5518  -17.6656  -16.8861 C   0  0  0  0  0  0  0  0  0  0  0  0
   29.3720  -18.1361  -17.7132 C   0  0  0  0  0  0  0  0  0  0  0  0
   28.1294  -18.0681  -16.8559 C   0  0  0  0  0  0  0  0  0  0  0  0
   27.8394  -19.3426  -16.1342 C   0  0  2  0  0  0  0  0  0  0  0  0
   27.1875  -20.2533  -17.0545 N   0  0  0  0  0  0  0  0  0  0  0  0
   27.0392  -19.1376  -14.9018 C   0  0  0  0  0  0  0  0  0  0  0  0
   26.2459  -18.1638  -14.8580 O   0  0  0  0  0  0  0  0  0  0  0  0
   31.7619  -14.2300  -18.3917 O   0  0  0  0  0  0  0  0  0  0  0  0
   24.8567  -21.7059  -13.5416 C   0  0  0  0  0  0  0  0  0  0  0  0
   24.8520  -20.3904  -13.1141 C   0  0  1  0  0  0  0  0  0  0  0  0
   26.2203  -19.9405  -12.6579 N   0  0  0  0  0  0  0  0  0  0  0  0
   27.1135  -19.9726  -13.7690 C   0  0  0  0  0  0  0  0  0  0  0  0
   26.6656  -20.7455  -11.4975 O   0  0  0  0  0  0  0  0  0  0  0  0
   27.4074  -21.7347  -11.6716 N   0  0  0  0  0  0  0  0  0  0  0  0
   26.2722  -20.4239  -10.1860 C   0  0  1  0  0  0  0  0  0  0  0  0
   26.0460  -21.5267   -9.2382 C   0  0  0  0  0  0  0  0  0  0  0  0
   27.2471  -21.6676   -8.3375 C   0  0  0  0  0  0  0  0  0  0  0  0
   27.5605  -20.4865   -7.5252 C   0  0  0  0  0  0  0  0  0  0  0  0
   27.0301  -19.2383   -7.8213 N   0  0  0  0  0  0  0  0  0  0  0  0
   27.4401  -18.3904   -6.8880 C   0  0  0  0  0  0  0  0  0  0  0  0
   28.2184  -19.0043   -5.9823 C   0  0  0  0  0  0  0  0  0  0  0  0
   28.8750  -18.5374   -4.8580 C   0  0  0  0  0  0  0  0  0  0  0  0
   29.6218  -19.4433   -4.1407 C   0  0  0  0  0  0  0  0  0  0  0  0
   29.7235  -20.7505   -4.5067 C   0  0  0  0  0  0  0  0  0  0  0  0
   29.0597  -21.2051   -5.6356 C   0  0  0  0  0  0  0  0  0  0  0  0
   28.2917  -20.3315   -6.3920 C   0  0  0  0  0  0  0  0  0  0  0  0
   24.8494  -21.1928   -8.4604 O   0  0  0  0  0  0  0  0  0  0  0  0
   24.0599  -20.2616   -8.7585 O   0  0  0  0  0  0  0  0  0  0  0  0
  2  3  2  0
  2  1  1  0
  4  2  1  0
  5  4  1  0
  6  5  1  0
  7  6  1  0
  7  8  1  0
  8  9  1  6
 10  8  1  0
 10 11  2  0
 13 12  1  0
 14 13  1  6
 14 15  1  0
 15 10  1  0
 16 18  1  0
 16 14  1  0
 17 16  2  0
 19 18  1  0
 19 30  1  0
 20 21  1  0
 19 20  1  1
 21 29  1  0
 22 23  1  0
 22 21  2  0
 23 24  1  0
 24 29  2  0
 24 25  1  0
 25 26  2  0
 26 27  1  0
 28 27  2  0
 29 28  1  0
 30 31  2  0
 30 32  1  0
M  END
$$$$
