RSW.pdb
     RDKit          3D

 32 33  0  0  1  0  0  0  0  0999 V2000
   32.8227  -25.3907  -17.5955 N   0  0  0  0  0  0  0  0  0  0  0  0
   32.7265  -25.3185  -16.1975 C   0  0  0  0  0  0  0  0  0  0  0  0
   33.6827  -25.7489  -15.4520 N   0  0  0  0  0  0  0  0  0  0  0  0
   31.5942  -24.7784  -15.5129 N   0  0  0  0  0  0  0  0  0  0  0  0
   30.3869  -24.4140  -16.2500 C   0  0  0  0  0  0  0  0  0  0  0  0
   30.5688  -23.0838  -16.9534 C   0  0  0  0  0  0  0  0  0  0  0  0
   29.8368  -22.0221  -16.1657 C   0  0  0  0  0  0  0  0  0  0  0  0
   28.3578  -22.0505  -16.3689 C   0  0  2  0  0  0  0  0  0  0  0  0
   28.0813  -21.7882  -17.7673 N   0  0  0  0  0  0  0  0  0  0  0  0
   27.6357  -21.1091  -15.4780 C   0  0  0  0  0  0  0  0  0  0  0  0
   27.6930  -19.8799  -15.7333 O   0  0  0  0  0  0  0  0  0  0  0  0
   33.6021  -25.7381  -14.4068 O   0  0  0  0  0  0  0  0  0  0  0  0
   24.1906  -21.8173  -13.7493 C   0  0  0  0  0  0  0  0  0  0  0  0
   24.7754  -20.5639  -13.7424 C   0  0  1  0  0  0  0  0  0  0  0  0
   26.2514  -20.6316  -13.4271 N   0  0  0  0  0  0  0  0  0  0  0  0
   26.8842  -21.5100  -14.3553 C   0  0  0  0  0  0  0  0  0  0  0  0
   26.4573  -20.9982  -12.0071 O   0  0  0  0  0  0  0  0  0  0  0  0
   27.4650  -21.6547  -11.6716 N   0  0  0  0  0  0  0  0  0  0  0  0
   25.5382  -20.6227  -11.0109 C   0  0  1  0  0  0  0  0  0  0  0  0
   25.8079  -21.0373   -9.6249 C   0  0  0  0  0  0  0  0  0  0  0  0
   27.1132  -20.4369   -9.1672 C   0  0  0  0  0  0  0  0  0  0  0  0
   27.1817  -20.1060   -7.7393 C   0  0  0  0  0  0  0  0  0  0  0  0
   26.0358  -19.8783   -6.9895 N   0  0  0  0  0  0  0  0  0  0  0  0
   26.4069  -19.6634   -5.7349 C   0  0  0  0  0  0  0  0  0  0  0  0
   27.7414  -19.7339   -5.6043 C   0  0  0  0  0  0  0  0  0  0  0  0
   28.5744  -19.5701   -4.5122 C   0  0  0  0  0  0  0  0  0  0  0  0
   29.9280  -19.6923   -4.7262 C   0  0  0  0  0  0  0  0  0  0  0  0
   30.4462  -19.9625   -5.9557 C   0  0  0  0  0  0  0  0  0  0  0  0
   29.5997  -20.1247   -7.0413 C   0  0  0  0  0  0  0  0  0  0  0  0
   28.2265  -20.0133   -6.8776 C   0  0  0  0  0  0  0  0  0  0  0  0
   24.6959  -20.5525   -8.8021 O   0  0  0  0  0  0  0  0  0  0  0  0
   24.5028  -20.9046   -7.6114 O   0  0  0  0  0  0  0  0  0  0  0  0
  2  3  2  0
  2  1  1  0
  4  2  1  0
  5  4  1  0
  6  5  1  0
  7  6  1  0
  7  8  1  0
  8  9  1  6
 10  8  1  0
 10 11  2  0
 13 12  1  0
 14 13  1  6
 14 15  1  0
 15 10  1  0
 16 18  1  0
 16 14  1  0
 17 16  2  0
 19 18  1  0
 19 30  1  0
 20 21  1  0
 19 20  1  1
 21 29  1  0
 22 23  1  0
 22 21  2  0
 23 24  1  0
 24 29  2  0
 24 25  1  0
 25 26  2  0
 26 27  1  0
 28 27  2  0
 29 28  1  0
 30 31  2  0
 30 32  1  0
M  END
$$$$
