GDW.pdb
     RDKit          3D

 27 28  0  0  1  0  0  0  0  0999 V2000
   29.5292  -22.3376  -15.2650 N   0  0  0  0  0  0  0  0  0  0  0  0
   28.1928  -21.9532  -15.6811 C   0  0  0  0  0  0  0  0  0  0  0  0
   27.6072  -21.0441  -14.6687 C   0  0  0  0  0  0  0  0  0  0  0  0
   27.6843  -19.7803  -14.8328 O   0  0  0  0  0  0  0  0  0  0  0  0
   26.9489  -21.5093  -13.4973 N   0  0  0  0  0  0  0  0  0  0  0  0
   25.9728  -20.6792  -12.8196 C   0  0  1  0  0  0  0  0  0  0  0  0
   24.8068  -20.5385  -13.7832 C   0  0  0  0  0  0  0  0  0  0  0  0
   25.1858  -19.5028  -14.7624 C   0  0  0  0  0  0  0  0  0  0  0  0
   25.5078  -18.3686  -14.3536 O   0  0  0  0  0  0  0  0  0  0  0  0
   25.5544  -21.2698  -11.5293 C   0  0  0  0  0  0  0  0  0  0  0  0
   25.1843  -22.4508  -11.4631 O   0  0  0  0  0  0  0  0  0  0  0  0
   25.1852  -19.7815  -16.1127 O   0  0  0  0  0  0  0  0  0  0  0  0
   25.5735  -20.4883  -10.3555 N   0  0  0  0  0  0  0  0  0  0  0  0
   25.1720  -20.9705   -9.0470 C   0  0  1  0  0  0  0  0  0  0  0  0
   25.8184  -20.0684   -8.0303 C   0  0  0  0  0  0  0  0  0  0  0  0
   27.2417  -20.2862   -7.8427 C   0  0  0  0  0  0  0  0  0  0  0  0
   28.1262  -20.8436   -8.7372 C   0  0  0  0  0  0  0  0  0  0  0  0
   29.3641  -20.8801   -8.2043 N   0  0  0  0  0  0  0  0  0  0  0  0
   29.2798  -20.3397   -6.9493 C   0  0  0  0  0  0  0  0  0  0  0  0
   30.2339  -20.1343   -5.9794 C   0  0  0  0  0  0  0  0  0  0  0  0
   29.9296  -19.5661   -4.7707 C   0  0  0  0  0  0  0  0  0  0  0  0
   28.6205  -19.1949   -4.5371 C   0  0  0  0  0  0  0  0  0  0  0  0
   27.6452  -19.3893   -5.4909 C   0  0  0  0  0  0  0  0  0  0  0  0
   27.9594  -19.9633   -6.7084 C   0  0  0  0  0  0  0  0  0  0  0  0
   23.7132  -20.9700   -8.9895 C   0  0  0  0  0  0  0  0  0  0  0  0
   23.0038  -20.3777   -9.8787 O   0  0  0  0  0  0  0  0  0  0  0  0
   23.0591  -21.6192   -7.9580 O   0  0  0  0  0  0  0  0  0  0  0  0
  1  2  1  0
  3  2  1  0
  3  4  2  0
  5  3  1  0
  6  5  1  0
  6 10  1  0
  6  7  1  6
  8  7  1  0
  9  8  2  0
 10 11  2  0
 10 13  1  0
 12  8  1  0
 13 14  1  0
 14 25  1  0
 14 15  1  1
 16 17  2  0
 16 15  1  0
 18 17  1  0
 19 24  2  0
 19 18  1  0
 20 19  1  0
 21 22  1  0
 21 20  2  0
 22 23  2  0
 23 24  1  0
 24 16  1  0
 25 26  2  0
 25 27  1  0
M  END
$$$$
