GDW.pdb
     RDKit          3D

 27 28  0  0  1  0  0  0  0  0999 V2000
   30.0836  -24.6299  -16.5894 N   0  0  0  0  0  0  0  0  0  0  0  0
   29.4756  -23.5427  -17.3344 C   0  0  0  0  0  0  0  0  0  0  0  0
   28.8664  -22.5805  -16.3871 C   0  0  0  0  0  0  0  0  0  0  0  0
   29.3386  -22.4699  -15.2060 O   0  0  0  0  0  0  0  0  0  0  0  0
   27.7602  -21.7539  -16.7257 N   0  0  0  0  0  0  0  0  0  0  0  0
   27.2159  -20.8172  -15.7626 C   0  0  1  0  0  0  0  0  0  0  0  0
   26.6894  -19.6460  -16.5742 C   0  0  0  0  0  0  0  0  0  0  0  0
   27.8659  -18.9318  -17.1043 C   0  0  0  0  0  0  0  0  0  0  0  0
   28.2124  -19.1253  -18.2874 O   0  0  0  0  0  0  0  0  0  0  0  0
   26.1566  -21.4365  -14.9360 C   0  0  0  0  0  0  0  0  0  0  0  0
   25.3051  -22.1774  -15.4478 O   0  0  0  0  0  0  0  0  0  0  0  0
   28.5756  -18.0609  -16.3051 O   0  0  0  0  0  0  0  0  0  0  0  0
   26.1069  -21.1872  -13.5488 N   0  0  0  0  0  0  0  0  0  0  0  0
   25.1475  -21.7932  -12.6442 C   0  0  1  0  0  0  0  0  0  0  0  0
   25.9368  -22.4474  -11.5423 C   0  0  0  0  0  0  0  0  0  0  0  0
   26.3864  -21.5440  -10.4982 C   0  0  0  0  0  0  0  0  0  0  0  0
   25.6241  -20.6492   -9.7829 C   0  0  0  0  0  0  0  0  0  0  0  0
   26.3959  -19.9841   -8.8998 N   0  0  0  0  0  0  0  0  0  0  0  0
   27.6734  -20.4541   -9.0454 C   0  0  0  0  0  0  0  0  0  0  0  0
   28.8442  -20.1259   -8.4015 C   0  0  0  0  0  0  0  0  0  0  0  0
   30.0347  -20.7311   -8.7067 C   0  0  0  0  0  0  0  0  0  0  0  0
   30.0398  -21.6971   -9.6930 C   0  0  0  0  0  0  0  0  0  0  0  0
   28.8817  -22.0448  -10.3538 C   0  0  0  0  0  0  0  0  0  0  0  0
   27.6840  -21.4300  -10.0407 C   0  0  0  0  0  0  0  0  0  0  0  0
   24.2400  -20.7495  -12.1769 C   0  0  0  0  0  0  0  0  0  0  0  0
   23.1816  -21.0265  -11.5077 O   0  0  0  0  0  0  0  0  0  0  0  0
   24.5099  -19.4209  -12.4519 O   0  0  0  0  0  0  0  0  0  0  0  0
  1  2  1  0
  3  2  1  0
  3  4  2  0
  5  3  1  0
  6  5  1  0
  6 10  1  0
  6  7  1  6
  8  7  1  0
  9  8  2  0
 10 11  2  0
 10 13  1  0
 12  8  1  0
 13 14  1  0
 14 25  1  0
 14 15  1  1
 16 17  2  0
 16 15  1  0
 18 17  1  0
 19 24  2  0
 19 18  1  0
 20 19  1  0
 21 22  1  0
 21 20  2  0
 22 23  2  0
 23 24  1  0
 24 16  1  0
 25 26  2  0
 25 27  1  0
M  END
$$$$
