GDW.pdb
     RDKit          3D

 27 28  0  0  1  0  0  0  0  0999 V2000
   27.6132  -23.7916  -16.5585 N   0  0  0  0  0  0  0  0  0  0  0  0
   28.6684  -22.8346  -16.2801 C   0  0  0  0  0  0  0  0  0  0  0  0
   28.2263  -21.9176  -15.2039 C   0  0  0  0  0  0  0  0  0  0  0  0
   29.0953  -21.3368  -14.4706 O   0  0  0  0  0  0  0  0  0  0  0  0
   26.8579  -21.6407  -14.9346 N   0  0  0  0  0  0  0  0  0  0  0  0
   26.4853  -20.6842  -13.9111 C   0  0  1  0  0  0  0  0  0  0  0  0
   25.2892  -19.9287  -14.4645 C   0  0  0  0  0  0  0  0  0  0  0  0
   25.7754  -19.1453  -15.6156 C   0  0  0  0  0  0  0  0  0  0  0  0
   26.5446  -18.1835  -15.4149 O   0  0  0  0  0  0  0  0  0  0  0  0
   26.1718  -21.3507  -12.6280 C   0  0  0  0  0  0  0  0  0  0  0  0
   25.4228  -22.3376  -12.5927 O   0  0  0  0  0  0  0  0  0  0  0  0
   25.3866  -19.4694  -16.8981 O   0  0  0  0  0  0  0  0  0  0  0  0
   26.7267  -20.8653  -11.4258 N   0  0  0  0  0  0  0  0  0  0  0  0
   26.4683  -21.4377  -10.1176 C   0  0  1  0  0  0  0  0  0  0  0  0
   27.7184  -21.2477   -9.3014 C   0  0  0  0  0  0  0  0  0  0  0  0
   27.5918  -20.3015   -8.2073 C   0  0  0  0  0  0  0  0  0  0  0  0
   26.6879  -19.2702   -8.0957 C   0  0  0  0  0  0  0  0  0  0  0  0
   26.8799  -18.6081   -6.9370 N   0  0  0  0  0  0  0  0  0  0  0  0
   27.9211  -19.2184   -6.2907 C   0  0  0  0  0  0  0  0  0  0  0  0
   28.5255  -18.9533   -5.0834 C   0  0  0  0  0  0  0  0  0  0  0  0
   29.5718  -19.7035   -4.6153 C   0  0  0  0  0  0  0  0  0  0  0  0
   30.0193  -20.7529   -5.3927 C   0  0  0  0  0  0  0  0  0  0  0  0
   29.4323  -21.0402   -6.6058 C   0  0  0  0  0  0  0  0  0  0  0  0
   28.3769  -20.2791   -7.0719 C   0  0  0  0  0  0  0  0  0  0  0  0
   25.2938  -20.7773   -9.5556 C   0  0  0  0  0  0  0  0  0  0  0  0
   24.8478  -19.6739  -10.0334 O   0  0  0  0  0  0  0  0  0  0  0  0
   24.6298  -21.3391   -8.4800 O   0  0  0  0  0  0  0  0  0  0  0  0
  1  2  1  0
  3  2  1  0
  3  4  2  0
  5  3  1  0
  6  5  1  0
  6 10  1  0
  6  7  1  6
  8  7  1  0
  9  8  2  0
 10 11  2  0
 10 13  1  0
 12  8  1  0
 13 14  1  0
 14 25  1  0
 14 15  1  1
 16 17  2  0
 16 15  1  0
 18 17  1  0
 19 24  2  0
 19 18  1  0
 20 19  1  0
 21 22  1  0
 21 20  2  0
 22 23  2  0
 23 24  1  0
 24 16  1  0
 25 26  2  0
 25 27  1  0
M  END
$$$$
