GDW.pdb
     RDKit          3D

 27 28  0  0  1  0  0  0  0  0999 V2000
   26.9127  -22.7590  -16.5814 N   0  0  0  0  0  0  0  0  0  0  0  0
   26.7263  -22.2245  -17.9180 C   0  0  0  0  0  0  0  0  0  0  0  0
   26.9929  -20.7675  -17.9042 C   0  0  0  0  0  0  0  0  0  0  0  0
   26.2037  -19.9855  -17.2749 O   0  0  0  0  0  0  0  0  0  0  0  0
   28.1031  -20.1761  -18.5671 N   0  0  0  0  0  0  0  0  0  0  0  0
   28.2101  -18.7355  -18.6870 C   0  0  1  0  0  0  0  0  0  0  0  0
   29.6646  -18.4537  -19.0230 C   0  0  0  0  0  0  0  0  0  0  0  0
   29.8204  -16.9873  -19.0453 C   0  0  0  0  0  0  0  0  0  0  0  0
   28.8128  -16.2666  -18.8954 O   0  0  0  0  0  0  0  0  0  0  0  0
   27.2923  -18.2029  -19.7180 C   0  0  0  0  0  0  0  0  0  0  0  0
   27.2736  -18.6846  -20.8598 O   0  0  0  0  0  0  0  0  0  0  0  0
   31.0623  -16.4174  -19.2292 O   0  0  0  0  0  0  0  0  0  0  0  0
   26.4247  -17.1353  -19.4077 N   0  0  0  0  0  0  0  0  0  0  0  0
   25.4806  -16.5522  -20.3430 C   0  0  1  0  0  0  0  0  0  0  0  0
   24.1779  -17.2845  -20.1645 C   0  0  0  0  0  0  0  0  0  0  0  0
   23.2272  -16.6277  -19.2851 C   0  0  0  0  0  0  0  0  0  0  0  0
   22.7263  -15.3514  -19.4012 C   0  0  0  0  0  0  0  0  0  0  0  0
   21.8674  -15.0966  -18.3936 N   0  0  0  0  0  0  0  0  0  0  0  0
   21.8119  -16.2218  -17.6157 C   0  0  0  0  0  0  0  0  0  0  0  0
   21.1003  -16.5054  -16.4728 C   0  0  0  0  0  0  0  0  0  0  0  0
   21.1925  -17.7183  -15.8426 C   0  0  0  0  0  0  0  0  0  0  0  0
   22.0299  -18.6720  -16.3858 C   0  0  0  0  0  0  0  0  0  0  0  0
   22.7542  -18.4142  -17.5294 C   0  0  0  0  0  0  0  0  0  0  0  0
   22.6563  -17.1882  -18.1600 C   0  0  0  0  0  0  0  0  0  0  0  0
   25.3925  -15.1211  -20.0683 C   0  0  0  0  0  0  0  0  0  0  0  0
   25.7554  -14.6275  -18.9416 O   0  0  0  0  0  0  0  0  0  0  0  0
   24.9081  -14.2575  -21.0342 O   0  0  0  0  0  0  0  0  0  0  0  0
  1  2  1  0
  3  2  1  0
  3  4  2  0
  5  3  1  0
  6  5  1  0
  6 10  1  0
  6  7  1  6
  8  7  1  0
  9  8  2  0
 10 11  2  0
 10 13  1  0
 12  8  1  0
 13 14  1  0
 14 25  1  0
 14 15  1  1
 16 17  2  0
 16 15  1  0
 18 17  1  0
 19 24  2  0
 19 18  1  0
 20 19  1  0
 21 22  1  0
 21 20  2  0
 22 23  2  0
 23 24  1  0
 24 16  1  0
 25 26  2  0
 25 27  1  0
M  END
$$$$
