GDW.pdb
     RDKit          3D

 27 28  0  0  1  0  0  0  0  0999 V2000
   26.3598  -16.0422  -14.1394 N   0  0  0  0  0  0  0  0  0  0  0  0
   27.4321  -17.0200  -14.1704 C   0  0  0  0  0  0  0  0  0  0  0  0
   26.8855  -18.3568  -13.8411 C   0  0  0  0  0  0  0  0  0  0  0  0
   25.6375  -18.5839  -13.9873 O   0  0  0  0  0  0  0  0  0  0  0  0
   27.6896  -19.4265  -13.3607 N   0  0  0  0  0  0  0  0  0  0  0  0
   27.0947  -20.7054  -13.0263 C   0  0  1  0  0  0  0  0  0  0  0  0
   27.9733  -21.7564  -13.6828 C   0  0  0  0  0  0  0  0  0  0  0  0
   27.8619  -21.5555  -15.1396 C   0  0  0  0  0  0  0  0  0  0  0  0
   26.8462  -20.9956  -15.6000 O   0  0  0  0  0  0  0  0  0  0  0  0
   27.0021  -20.8993  -11.5624 C   0  0  0  0  0  0  0  0  0  0  0  0
   28.0207  -21.0900  -10.8826 O   0  0  0  0  0  0  0  0  0  0  0  0
   28.8656  -21.9799  -15.9842 O   0  0  0  0  0  0  0  0  0  0  0  0
   25.7450  -20.8683  -10.9240 N   0  0  0  0  0  0  0  0  0  0  0  0
   25.5548  -20.9802   -9.4896 C   0  0  1  0  0  0  0  0  0  0  0  0
   26.3032  -19.8374   -8.8579 C   0  0  0  0  0  0  0  0  0  0  0  0
   27.5369  -20.2139   -8.1910 C   0  0  0  0  0  0  0  0  0  0  0  0
   28.5922  -20.9186   -8.7230 C   0  0  0  0  0  0  0  0  0  0  0  0
   29.5594  -21.0753   -7.7968 N   0  0  0  0  0  0  0  0  0  0  0  0
   29.1247  -20.4647   -6.6512 C   0  0  0  0  0  0  0  0  0  0  0  0
   29.7105  -20.3252   -5.4141 C   0  0  0  0  0  0  0  0  0  0  0  0
   29.0901  -19.6631   -4.3878 C   0  0  0  0  0  0  0  0  0  0  0  0
   27.8397  -19.1264   -4.6210 C   0  0  0  0  0  0  0  0  0  0  0  0
   27.2301  -19.2517   -5.8505 C   0  0  0  0  0  0  0  0  0  0  0  0
   27.8619  -19.9211   -6.8815 C   0  0  0  0  0  0  0  0  0  0  0  0
   24.1204  -20.9646   -9.2180 C   0  0  0  0  0  0  0  0  0  0  0  0
   23.2831  -20.4568  -10.0460 O   0  0  0  0  0  0  0  0  0  0  0  0
   23.6306  -21.5065   -8.0432 O   0  0  0  0  0  0  0  0  0  0  0  0
  1  2  1  0
  3  2  1  0
  3  4  2  0
  5  3  1  0
  6  5  1  0
  6 10  1  0
  6  7  1  1
  8  7  1  0
  9  8  2  0
 10 11  2  0
 10 13  1  0
 12  8  1  0
 13 14  1  0
 14 25  1  0
 14 15  1  1
 16 17  2  0
 16 15  1  0
 18 17  1  0
 19 24  2  0
 19 18  1  0
 20 19  1  0
 21 22  1  0
 21 20  2  0
 22 23  2  0
 23 24  1  0
 24 16  1  0
 25 26  2  0
 25 27  1  0
M  END
$$$$
