GDW.pdb
     RDKit          3D

 27 28  0  0  1  0  0  0  0  0999 V2000
   27.1119  -21.8627  -16.4942 N   0  0  0  0  0  0  0  0  0  0  0  0
   28.0969  -21.4007  -15.5334 C   0  0  0  0  0  0  0  0  0  0  0  0
   27.4041  -20.9080  -14.3203 C   0  0  0  0  0  0  0  0  0  0  0  0
   28.0751  -20.3373  -13.3960 O   0  0  0  0  0  0  0  0  0  0  0  0
   26.0021  -21.0372  -14.1217 N   0  0  0  0  0  0  0  0  0  0  0  0
   25.3689  -20.4817  -12.9420 C   0  0  1  0  0  0  0  0  0  0  0  0
   23.8902  -20.3781  -13.2743 C   0  0  0  0  0  0  0  0  0  0  0  0
   23.7496  -19.2870  -14.2566 C   0  0  0  0  0  0  0  0  0  0  0  0
   24.4476  -18.2605  -14.1289 O   0  0  0  0  0  0  0  0  0  0  0  0
   25.6086  -21.3201  -11.7467 C   0  0  0  0  0  0  0  0  0  0  0  0
   25.4465  -22.5480  -11.7909 O   0  0  0  0  0  0  0  0  0  0  0  0
   22.8591  -19.3972  -15.3034 O   0  0  0  0  0  0  0  0  0  0  0  0
   26.0268  -20.7246  -10.5387 N   0  0  0  0  0  0  0  0  0  0  0  0
   26.2667  -21.4556   -9.3082 C   0  0  1  0  0  0  0  0  0  0  0  0
   27.6724  -21.1363   -8.8757 C   0  0  0  0  0  0  0  0  0  0  0  0
   27.7760  -20.1019   -7.8620 C   0  0  0  0  0  0  0  0  0  0  0  0
   27.2182  -18.8445   -7.8921 C   0  0  0  0  0  0  0  0  0  0  0  0
   27.5366  -18.1685   -6.7698 N   0  0  0  0  0  0  0  0  0  0  0  0
   28.3102  -18.9987   -6.0040 C   0  0  0  0  0  0  0  0  0  0  0  0
   28.8998  -18.8176   -4.7740 C   0  0  0  0  0  0  0  0  0  0  0  0
   29.6460  -19.7982   -4.1754 C   0  0  0  0  0  0  0  0  0  0  0  0
   29.7999  -20.9973   -4.8419 C   0  0  0  0  0  0  0  0  0  0  0  0
   29.2206  -21.2051   -6.0748 C   0  0  0  0  0  0  0  0  0  0  0  0
   28.4689  -20.2114   -6.6729 C   0  0  0  0  0  0  0  0  0  0  0  0
   25.2495  -21.0606   -8.3383 C   0  0  0  0  0  0  0  0  0  0  0  0
   25.1449  -21.6384   -7.1982 O   0  0  0  0  0  0  0  0  0  0  0  0
   24.3659  -20.0389   -8.6364 O   0  0  0  0  0  0  0  0  0  0  0  0
  1  2  1  0
  3  2  1  0
  3  4  2  0
  5  3  1  0
  6  5  1  0
  6 10  1  0
  6  7  1  6
  8  7  1  0
  9  8  2  0
 10 11  2  0
 10 13  1  0
 12  8  1  0
 13 14  1  0
 14 25  1  0
 14 15  1  1
 16 17  2  0
 16 15  1  0
 18 17  1  0
 19 24  2  0
 19 18  1  0
 20 19  1  0
 21 22  1  0
 21 20  2  0
 22 23  2  0
 23 24  1  0
 24 16  1  0
 25 26  2  0
 25 27  1  0
M  END
$$$$
