GDW.pdb
     RDKit          3D

 27 28  0  0  1  0  0  0  0  0999 V2000
   29.4515  -21.1157  -16.2197 N   0  0  0  0  0  0  0  0  0  0  0  0
   28.3674  -21.8503  -15.5938 C   0  0  0  0  0  0  0  0  0  0  0  0
   27.6392  -20.9533  -14.6667 C   0  0  0  0  0  0  0  0  0  0  0  0
   27.4603  -19.7288  -14.9808 O   0  0  0  0  0  0  0  0  0  0  0  0
   27.1158  -21.3882  -13.4182 N   0  0  0  0  0  0  0  0  0  0  0  0
   25.9153  -20.7875  -12.8711 C   0  0  1  0  0  0  0  0  0  0  0  0
   24.8195  -21.0469  -13.8908 C   0  0  0  0  0  0  0  0  0  0  0  0
   23.5855  -20.4445  -13.3526 C   0  0  0  0  0  0  0  0  0  0  0  0
   22.6674  -21.1911  -12.9566 O   0  0  0  0  0  0  0  0  0  0  0  0
   25.5788  -21.3491  -11.5443 C   0  0  0  0  0  0  0  0  0  0  0  0
   25.5206  -22.5749  -11.3710 O   0  0  0  0  0  0  0  0  0  0  0  0
   23.4456  -19.0745  -13.2869 O   0  0  0  0  0  0  0  0  0  0  0  0
   25.3200  -20.4879  -10.4579 N   0  0  0  0  0  0  0  0  0  0  0  0
   25.3231  -20.9038   -9.0676 C   0  0  1  0  0  0  0  0  0  0  0  0
   26.0651  -19.8462   -8.2955 C   0  0  0  0  0  0  0  0  0  0  0  0
   27.3918  -20.2359   -7.8524 C   0  0  0  0  0  0  0  0  0  0  0  0
   28.3316  -20.9509   -8.5586 C   0  0  0  0  0  0  0  0  0  0  0  0
   29.4431  -21.1183   -7.8142 N   0  0  0  0  0  0  0  0  0  0  0  0
   29.2200  -20.5041   -6.6112 C   0  0  0  0  0  0  0  0  0  0  0  0
   30.0130  -20.3716   -5.4946 C   0  0  0  0  0  0  0  0  0  0  0  0
   29.5869  -19.7039   -4.3769 C   0  0  0  0  0  0  0  0  0  0  0  0
   28.3206  -19.1542   -4.3902 C   0  0  0  0  0  0  0  0  0  0  0  0
   27.5056  -19.2723   -5.4951 C   0  0  0  0  0  0  0  0  0  0  0  0
   27.9420  -19.9474   -6.6195 C   0  0  0  0  0  0  0  0  0  0  0  0
   23.9378  -21.0789   -8.6416 C   0  0  0  0  0  0  0  0  0  0  0  0
   22.9615  -20.5653   -9.2956 O   0  0  0  0  0  0  0  0  0  0  0  0
   23.6484  -21.8143   -7.5062 O   0  0  0  0  0  0  0  0  0  0  0  0
  1  2  1  0
  3  2  1  0
  3  4  2  0
  5  3  1  0
  6  5  1  0
  6 10  1  0
  6  7  1  6
  8  7  1  0
  9  8  2  0
 10 11  2  0
 10 13  1  0
 12  8  1  0
 13 14  1  0
 14 25  1  0
 14 15  1  1
 16 17  2  0
 16 15  1  0
 18 17  1  0
 19 24  2  0
 19 18  1  0
 20 19  1  0
 21 22  1  0
 21 20  2  0
 22 23  2  0
 23 24  1  0
 24 16  1  0
 25 26  2  0
 25 27  1  0
M  END
$$$$
