GDW.pdb
     RDKit          3D

 27 28  0  0  1  0  0  0  0  0999 V2000
   29.4189  -18.3497  -15.8161 N   0  0  0  0  0  0  0  0  0  0  0  0
   28.6848  -19.5968  -15.7038 C   0  0  0  0  0  0  0  0  0  0  0  0
   27.5363  -19.4081  -14.7874 C   0  0  0  0  0  0  0  0  0  0  0  0
   27.1510  -18.2276  -14.4902 O   0  0  0  0  0  0  0  0  0  0  0  0
   26.8219  -20.4914  -14.2063 N   0  0  0  0  0  0  0  0  0  0  0  0
   25.7007  -20.2465  -13.3207 C   0  0  1  0  0  0  0  0  0  0  0  0
   24.4774  -20.7885  -14.0400 C   0  0  0  0  0  0  0  0  0  0  0  0
   23.3122  -20.4819  -13.1893 C   0  0  0  0  0  0  0  0  0  0  0  0
   23.2755  -19.3950  -12.5775 O   0  0  0  0  0  0  0  0  0  0  0  0
   25.8952  -20.8884  -12.0019 C   0  0  0  0  0  0  0  0  0  0  0  0
   26.2240  -22.0805  -11.9196 O   0  0  0  0  0  0  0  0  0  0  0  0
   22.2755  -21.3830  -13.0699 O   0  0  0  0  0  0  0  0  0  0  0  0
   25.7068  -20.1437  -10.8193 N   0  0  0  0  0  0  0  0  0  0  0  0
   25.8490  -20.6867   -9.4810 C   0  0  1  0  0  0  0  0  0  0  0  0
   26.6119  -19.6705   -8.6745 C   0  0  0  0  0  0  0  0  0  0  0  0
   27.7448  -20.2043   -7.9397 C   0  0  0  0  0  0  0  0  0  0  0  0
   28.6871  -21.0989   -8.3925 C   0  0  0  0  0  0  0  0  0  0  0  0
   29.5849  -21.3587   -7.4208 N   0  0  0  0  0  0  0  0  0  0  0  0
   29.2192  -20.6232   -6.3256 C   0  0  0  0  0  0  0  0  0  0  0  0
   29.7795  -20.5121   -5.0738 C   0  0  0  0  0  0  0  0  0  0  0  0
   29.2430  -19.7023   -4.1078 C   0  0  0  0  0  0  0  0  0  0  0  0
   28.1058  -18.9840   -4.4184 C   0  0  0  0  0  0  0  0  0  0  0  0
   27.5241  -19.0769   -5.6642 C   0  0  0  0  0  0  0  0  0  0  0  0
   28.0707  -19.8959   -6.6341 C   0  0  0  0  0  0  0  0  0  0  0  0
   24.5148  -20.9688   -8.9599 C   0  0  0  0  0  0  0  0  0  0  0  0
   23.4570  -20.5606   -9.5592 O   0  0  0  0  0  0  0  0  0  0  0  0
   24.3650  -21.6935   -7.7912 O   0  0  0  0  0  0  0  0  0  0  0  0
  1  2  1  0
  3  2  1  0
  3  4  2  0
  5  3  1  0
  6  5  1  0
  6 10  1  0
  6  7  1  6
  8  7  1  0
  9  8  2  0
 10 11  2  0
 10 13  1  0
 12  8  1  0
 13 14  1  0
 14 25  1  0
 14 15  1  1
 16 17  2  0
 16 15  1  0
 18 17  1  0
 19 24  2  0
 19 18  1  0
 20 19  1  0
 21 22  1  0
 21 20  2  0
 22 23  2  0
 23 24  1  0
 24 16  1  0
 25 26  2  0
 25 27  1  0
M  END
$$$$
