GDW.pdb
     RDKit          3D

 27 28  0  0  1  0  0  0  0  0999 V2000
   28.7809  -22.6757  -18.1211 N   0  0  0  0  0  0  0  0  0  0  0  0
   29.3595  -21.5537  -17.4048 C   0  0  0  0  0  0  0  0  0  0  0  0
   28.3464  -20.9843  -16.4862 C   0  0  0  0  0  0  0  0  0  0  0  0
   28.6960  -20.1149  -15.6189 O   0  0  0  0  0  0  0  0  0  0  0  0
   26.9752  -21.3591  -16.5157 N   0  0  0  0  0  0  0  0  0  0  0  0
   26.0173  -20.7265  -15.6306 C   0  0  1  0  0  0  0  0  0  0  0  0
   24.7851  -20.4565  -16.4770 C   0  0  0  0  0  0  0  0  0  0  0  0
   25.1919  -19.5093  -17.5318 C   0  0  0  0  0  0  0  0  0  0  0  0
   25.3722  -18.3106  -17.2357 O   0  0  0  0  0  0  0  0  0  0  0  0
   25.7078  -21.5784  -14.4612 C   0  0  0  0  0  0  0  0  0  0  0  0
   25.6323  -22.8101  -14.5765 O   0  0  0  0  0  0  0  0  0  0  0  0
   25.3714  -19.9401  -18.8292 O   0  0  0  0  0  0  0  0  0  0  0  0
   25.4948  -20.9917  -13.1965 N   0  0  0  0  0  0  0  0  0  0  0  0
   25.1858  -21.7389  -11.9915 C   0  0  1  0  0  0  0  0  0  0  0  0
   26.4382  -21.7622  -11.1571 C   0  0  0  0  0  0  0  0  0  0  0  0
   26.3864  -20.9416   -9.9604 C   0  0  0  0  0  0  0  0  0  0  0  0
   25.3050  -20.2449   -9.4718 C   0  0  0  0  0  0  0  0  0  0  0  0
   25.6434  -19.5982   -8.3382 N   0  0  0  0  0  0  0  0  0  0  0  0
   26.9599  -19.8797   -8.0900 C   0  0  0  0  0  0  0  0  0  0  0  0
   27.8008  -19.4845   -7.0752 C   0  0  0  0  0  0  0  0  0  0  0  0
   29.1077  -19.8909   -7.0158 C   0  0  0  0  0  0  0  0  0  0  0  0
   29.5770  -20.7219   -8.0134 C   0  0  0  0  0  0  0  0  0  0  0  0
   28.7564  -21.1326   -9.0414 C   0  0  0  0  0  0  0  0  0  0  0  0
   27.4387  -20.7186   -9.0951 C   0  0  0  0  0  0  0  0  0  0  0  0
   24.0535  -21.0937  -11.3335 C   0  0  0  0  0  0  0  0  0  0  0  0
   23.7497  -19.8688  -11.5618 O   0  0  0  0  0  0  0  0  0  0  0  0
   23.2749  -21.8037  -10.4372 O   0  0  0  0  0  0  0  0  0  0  0  0
  1  2  1  0
  3  2  1  0
  3  4  2  0
  5  3  1  0
  6  5  1  0
  6 10  1  0
  6  7  1  6
  8  7  1  0
  9  8  2  0
 10 11  2  0
 10 13  1  0
 12  8  1  0
 13 14  1  0
 14 25  1  0
 14 15  1  1
 16 17  2  0
 16 15  1  0
 18 17  1  0
 19 24  2  0
 19 18  1  0
 20 19  1  0
 21 22  1  0
 21 20  2  0
 22 23  2  0
 23 24  1  0
 24 16  1  0
 25 26  2  0
 25 27  1  0
M  END
$$$$
