GDW.pdb
     RDKit          3D

 27 28  0  0  1  0  0  0  0  0999 V2000
   24.1826  -25.9084  -15.2365 N   0  0  0  0  0  0  0  0  0  0  0  0
   23.6948  -24.5856  -14.8913 C   0  0  0  0  0  0  0  0  0  0  0  0
   24.7759  -23.8237  -14.2241 C   0  0  0  0  0  0  0  0  0  0  0  0
   25.6063  -24.4326  -13.4692 O   0  0  0  0  0  0  0  0  0  0  0  0
   24.9457  -22.4207  -14.3800 N   0  0  0  0  0  0  0  0  0  0  0  0
   25.9845  -21.7172  -13.6539 C   0  0  1  0  0  0  0  0  0  0  0  0
   26.1959  -20.4084  -14.3956 C   0  0  0  0  0  0  0  0  0  0  0  0
   27.3856  -19.7697  -13.8023 C   0  0  0  0  0  0  0  0  0  0  0  0
   28.4811  -20.3657  -13.8464 O   0  0  0  0  0  0  0  0  0  0  0  0
   25.6094  -21.4960  -12.2399 C   0  0  0  0  0  0  0  0  0  0  0  0
   24.4368  -21.2449  -11.9270 O   0  0  0  0  0  0  0  0  0  0  0  0
   27.2914  -18.5302  -13.2059 O   0  0  0  0  0  0  0  0  0  0  0  0
   26.5902  -21.5699  -11.2292 N   0  0  0  0  0  0  0  0  0  0  0  0
   26.3278  -21.3482   -9.8192 C   0  0  1  0  0  0  0  0  0  0  0  0
   27.6637  -21.1864   -9.1452 C   0  0  0  0  0  0  0  0  0  0  0  0
   27.6675  -20.2746   -8.0151 C   0  0  0  0  0  0  0  0  0  0  0  0
   26.8567  -19.1797   -7.8230 C   0  0  0  0  0  0  0  0  0  0  0  0
   27.1579  -18.5786   -6.6543 N   0  0  0  0  0  0  0  0  0  0  0  0
   28.1762  -19.2933   -6.0830 C   0  0  0  0  0  0  0  0  0  0  0  0
   28.8580  -19.1222   -4.9001 C   0  0  0  0  0  0  0  0  0  0  0  0
   29.8615  -19.9700   -4.5117 C   0  0  0  0  0  0  0  0  0  0  0  0
   30.1841  -21.0220   -5.3455 C   0  0  0  0  0  0  0  0  0  0  0  0
   29.5175  -21.2163   -6.5358 C   0  0  0  0  0  0  0  0  0  0  0  0
   28.5060  -20.3570   -6.9215 C   0  0  0  0  0  0  0  0  0  0  0  0
   25.4619  -20.1794   -9.6955 C   0  0  0  0  0  0  0  0  0  0  0  0
   25.7088  -19.0882  -10.3224 O   0  0  0  0  0  0  0  0  0  0  0  0
   24.3409  -20.2287   -8.8865 O   0  0  0  0  0  0  0  0  0  0  0  0
  1  2  1  0
  3  2  1  0
  3  4  2  0
  5  3  1  0
  6  5  1  0
  6 10  1  0
  6  7  1  6
  8  7  1  0
  9  8  2  0
 10 11  2  0
 10 13  1  0
 12  8  1  0
 13 14  1  0
 14 25  1  0
 14 15  1  1
 16 17  2  0
 16 15  1  0
 18 17  1  0
 19 24  2  0
 19 18  1  0
 20 19  1  0
 21 22  1  0
 21 20  2  0
 22 23  2  0
 23 24  1  0
 24 16  1  0
 25 26  2  0
 25 27  1  0
M  END
$$$$
