QNM.pdb
     RDKit          3D

 26 25  0  0  1  0  0  0  0  0999 V2000
   31.8190  -24.6511  -15.9724 N   0  0  0  0  0  0  0  0  0  0  0  0
   31.5434  -24.6269  -17.3746 C   0  0  0  0  0  0  0  0  0  0  0  0
   32.0044  -25.5365  -18.0863 O   0  0  0  0  0  0  0  0  0  0  0  0
   30.7311  -23.5405  -17.9116 C   0  0  0  0  0  0  0  0  0  0  0  0
   30.1533  -22.5864  -16.9390 C   0  0  0  0  0  0  0  0  0  0  0  0
   28.9252  -23.0051  -16.2145 C   0  0  2  0  0  0  0  0  0  0  0  0
   27.8296  -23.4447  -17.0108 N   0  0  0  0  0  0  0  0  0  0  0  0
   28.4400  -21.8800  -15.3159 C   0  0  0  0  0  0  0  0  0  0  0  0
   29.2818  -21.2422  -14.6254 O   0  0  0  0  0  0  0  0  0  0  0  0
   25.7205  -17.2467  -14.3679 N   0  0  0  0  0  0  0  0  0  0  0  0
   25.0513  -18.5212  -14.3011 C   0  0  0  0  0  0  0  0  0  0  0  0
   24.1360  -18.5838  -13.4469 O   0  0  0  0  0  0  0  0  0  0  0  0
   25.4577  -19.6356  -15.2036 C   0  0  0  0  0  0  0  0  0  0  0  0
   26.4759  -20.4978  -14.4514 C   0  0  2  0  0  0  0  0  0  0  0  0
   27.0783  -21.5292  -15.2331 N   0  0  0  0  0  0  0  0  0  0  0  0
   25.8961  -20.9485  -13.1955 C   0  0  0  0  0  0  0  0  0  0  0  0
   25.1119  -21.9207  -13.2138 O   0  0  0  0  0  0  0  0  0  0  0  0
   28.6099  -19.6271   -7.2798 C   0  0  0  0  0  0  0  0  0  0  0  0
   26.8532  -19.7154   -6.8994 S   0  0  0  0  0  0  0  0  0  0  0  0
   25.9317  -20.5334   -8.2118 C   0  0  0  0  0  0  0  0  0  0  0  0
   26.3924  -20.1254   -9.5798 C   0  0  0  0  0  0  0  0  0  0  0  0
   25.6866  -20.8445  -10.6909 C   0  0  2  0  0  0  0  0  0  0  0  0
   26.1852  -20.3284  -11.9705 N   0  0  0  0  0  0  0  0  0  0  0  0
   24.2225  -20.6619  -10.6865 C   0  0  0  0  0  0  0  0  0  0  0  0
   23.5891  -19.9703  -11.6886 O   0  0  0  0  0  0  0  0  0  0  0  0
   23.5063  -21.1389   -9.7562 O   0  0  0  0  0  0  0  0  0  0  0  0
  2  1  1  0
  2  4  1  0
  3  2  2  0
  5  4  1  0
  6  5  1  0
  6  7  1  6
  8  6  1  0
  8  9  2  0
 10 11  1  0
 11 12  2  0
 13 11  1  0
 14 13  1  6
 14 15  1  0
 15  8  1  0
 16 14  1  0
 16 23  1  0
 17 16  2  0
 19 20  1  0
 19 18  1  0
 20 21  1  0
 22 21  1  1
 22 23  1  0
 22 24  1  0
 24 26  2  0
 24 25  1  0
M  END
$$$$
