QNM.pdb
     RDKit          3D

 26 25  0  0  1  0  0  0  0  0999 V2000
   17.0851  -14.2802  -14.3663 N   0  0  0  0  0  0  0  0  0  0  0  0
   16.5940  -15.0735  -15.4490 C   0  0  0  0  0  0  0  0  0  0  0  0
   16.2427  -16.2435  -15.2165 O   0  0  0  0  0  0  0  0  0  0  0  0
   16.5215  -14.4780  -16.7789 C   0  0  0  0  0  0  0  0  0  0  0  0
   16.9488  -13.0672  -16.9101 C   0  0  0  0  0  0  0  0  0  0  0  0
   16.7352  -12.4053  -18.2234 C   0  0  2  0  0  0  0  0  0  0  0  0
   16.7893  -13.2381  -19.3772 N   0  0  0  0  0  0  0  0  0  0  0  0
   17.7319  -11.2730  -18.4056 C   0  0  0  0  0  0  0  0  0  0  0  0
   18.2958  -11.1285  -19.5251 O   0  0  0  0  0  0  0  0  0  0  0  0
   16.2378   -7.5184  -16.0423 N   0  0  0  0  0  0  0  0  0  0  0  0
   17.6668   -7.7003  -16.0847 C   0  0  0  0  0  0  0  0  0  0  0  0
   18.2286   -7.6681  -14.9646 O   0  0  0  0  0  0  0  0  0  0  0  0
   18.3630   -7.9090  -17.3860 C   0  0  0  0  0  0  0  0  0  0  0  0
   18.9849   -9.3085  -17.3635 C   0  0  2  0  0  0  0  0  0  0  0  0
   18.0427  -10.3808  -17.3609 N   0  0  0  0  0  0  0  0  0  0  0  0
   19.9859   -9.3776  -16.3100 C   0  0  0  0  0  0  0  0  0  0  0  0
   19.6363   -9.7747  -15.1783 O   0  0  0  0  0  0  0  0  0  0  0  0
   27.5493  -10.8018  -15.4132 C   0  0  0  0  0  0  0  0  0  0  0  0
   26.3226   -9.7907  -16.2564 S   0  0  0  0  0  0  0  0  0  0  0  0
   24.7335   -9.8353  -15.4115 C   0  0  0  0  0  0  0  0  0  0  0  0
   23.6941   -8.9969  -16.0948 C   0  0  0  0  0  0  0  0  0  0  0  0
   22.3369   -9.0896  -15.4629 C   0  0  2  0  0  0  0  0  0  0  0  0
   21.3240   -9.0122  -16.5214 N   0  0  0  0  0  0  0  0  0  0  0  0
   22.0491   -8.0072  -14.5024 C   0  0  0  0  0  0  0  0  0  0  0  0
   22.0412   -8.2402  -13.1498 O   0  0  0  0  0  0  0  0  0  0  0  0
   21.8004   -6.8295  -14.8987 O   0  0  0  0  0  0  0  0  0  0  0  0
  2  1  1  0
  2  4  1  0
  3  2  2  0
  5  4  1  0
  6  5  1  0
  6  7  1  6
  8  6  1  0
  8  9  2  0
 10 11  1  0
 11 12  2  0
 13 11  1  0
 14 13  1  1
 14 15  1  0
 15  8  1  0
 16 14  1  0
 16 23  1  0
 17 16  2  0
 19 20  1  0
 19 18  1  0
 20 21  1  0
 22 21  1  6
 22 23  1  0
 22 24  1  0
 24 26  2  0
 24 25  1  0
M  END
$$$$
