QNM.pdb
     RDKit          3D

 26 25  0  0  1  0  0  0  0  0999 V2000
   14.1986  -11.6892  -16.5346 N   0  0  0  0  0  0  0  0  0  0  0  0
   13.9396  -12.0457  -15.1751 C   0  0  0  0  0  0  0  0  0  0  0  0
   13.3852  -13.1341  -14.9417 O   0  0  0  0  0  0  0  0  0  0  0  0
   14.3387  -11.1217  -14.1190 C   0  0  0  0  0  0  0  0  0  0  0  0
   14.9677   -9.8495  -14.5383 C   0  0  0  0  0  0  0  0  0  0  0  0
   16.4180   -9.6781  -14.2632 C   0  0  2  0  0  0  0  0  0  0  0  0
   17.0314  -10.6538  -13.4270 N   0  0  0  0  0  0  0  0  0  0  0  0
   16.6771   -8.3061  -13.6641 C   0  0  0  0  0  0  0  0  0  0  0  0
   16.2738   -7.2825  -14.2818 O   0  0  0  0  0  0  0  0  0  0  0  0
   18.8375   -5.3627   -8.7724 N   0  0  0  0  0  0  0  0  0  0  0  0
   17.9515   -5.4487   -9.9057 C   0  0  0  0  0  0  0  0  0  0  0  0
   17.6804   -4.3469  -10.4386 O   0  0  0  0  0  0  0  0  0  0  0  0
   17.4351   -6.7704  -10.3616 C   0  0  0  0  0  0  0  0  0  0  0  0
   17.8170   -6.9377  -11.8354 C   0  0  2  0  0  0  0  0  0  0  0  0
   17.3536   -8.1454  -12.4390 N   0  0  0  0  0  0  0  0  0  0  0  0
   19.2402   -6.6845  -11.9995 C   0  0  0  0  0  0  0  0  0  0  0  0
   20.0504   -7.5546  -11.6160 O   0  0  0  0  0  0  0  0  0  0  0  0
   24.0740   -7.8146  -17.1159 C   0  0  0  0  0  0  0  0  0  0  0  0
   22.4945   -7.8063  -16.2537 S   0  0  0  0  0  0  0  0  0  0  0  0
   22.4205   -6.4978  -15.0194 C   0  0  0  0  0  0  0  0  0  0  0  0
   21.1163   -6.4777  -14.2787 C   0  0  0  0  0  0  0  0  0  0  0  0
   21.0459   -5.4231  -13.2145 C   0  0  2  0  0  0  0  0  0  0  0  0
   19.7305   -5.4997  -12.5691 N   0  0  0  0  0  0  0  0  0  0  0  0
   21.2035   -4.0475  -13.7241 C   0  0  0  0  0  0  0  0  0  0  0  0
   20.1464   -3.3683  -14.2764 O   0  0  0  0  0  0  0  0  0  0  0  0
   22.3208   -3.4524  -13.6668 O   0  0  0  0  0  0  0  0  0  0  0  0
  2  1  1  0
  2  4  1  0
  3  2  2  0
  5  4  1  0
  6  5  1  0
  6  7  1  1
  8  6  1  0
  8  9  2  0
 10 11  1  0
 11 12  2  0
 13 11  1  0
 14 13  1  1
 14 15  1  0
 15  8  1  0
 16 14  1  0
 16 23  1  0
 17 16  2  0
 19 20  1  0
 19 18  1  0
 20 21  1  0
 22 21  1  6
 22 23  1  0
 22 24  1  0
 24 26  2  0
 24 25  1  0
M  END
$$$$
