QNM.pdb
     RDKit          3D

 26 25  0  0  1  0  0  0  0  0999 V2000
   12.2493  -13.2241  -10.0205 N   0  0  0  0  0  0  0  0  0  0  0  0
   12.0626  -13.2320  -11.4374 C   0  0  0  0  0  0  0  0  0  0  0  0
   11.2151  -14.0033  -11.9206 O   0  0  0  0  0  0  0  0  0  0  0  0
   12.8695  -12.3343  -12.2568 C   0  0  0  0  0  0  0  0  0  0  0  0
   13.8612  -11.4894  -11.5548 C   0  0  0  0  0  0  0  0  0  0  0  0
   14.7190  -10.6047  -12.3856 C   0  0  2  0  0  0  0  0  0  0  0  0
   15.3750  -11.2074  -13.4964 N   0  0  0  0  0  0  0  0  0  0  0  0
   15.7701   -9.9325  -11.5185 C   0  0  0  0  0  0  0  0  0  0  0  0
   16.7401  -10.6172  -11.0914 O   0  0  0  0  0  0  0  0  0  0  0  0
   18.5011   -6.1458   -9.3791 N   0  0  0  0  0  0  0  0  0  0  0  0
   18.9819   -6.9013  -10.5082 C   0  0  0  0  0  0  0  0  0  0  0  0
   20.1880   -6.7064  -10.7889 O   0  0  0  0  0  0  0  0  0  0  0  0
   18.0712   -7.8264  -11.2405 C   0  0  0  0  0  0  0  0  0  0  0  0
   16.6928   -7.7464  -10.5776 C   0  0  2  0  0  0  0  0  0  0  0  0
   15.6921   -8.5676  -11.1793 N   0  0  0  0  0  0  0  0  0  0  0  0
   16.3143   -6.3515  -10.4122 C   0  0  0  0  0  0  0  0  0  0  0  0
   16.2520   -5.6246  -11.4263 O   0  0  0  0  0  0  0  0  0  0  0  0
   11.2812   -5.8232   -6.1877 C   0  0  0  0  0  0  0  0  0  0  0  0
   12.2754   -4.3453   -5.9318 S   0  0  0  0  0  0  0  0  0  0  0  0
   13.2511   -3.9428   -7.3902 C   0  0  0  0  0  0  0  0  0  0  0  0
   14.2629   -5.0011   -7.7164 C   0  0  0  0  0  0  0  0  0  0  0  0
   15.0258   -4.7340   -8.9799 C   0  0  2  0  0  0  0  0  0  0  0  0
   16.0208   -5.7975   -9.1569 N   0  0  0  0  0  0  0  0  0  0  0  0
   15.7532   -3.4504   -8.9796 C   0  0  0  0  0  0  0  0  0  0  0  0
   15.0922   -2.2584   -9.1408 O   0  0  0  0  0  0  0  0  0  0  0  0
   17.0110   -3.4110   -8.8304 O   0  0  0  0  0  0  0  0  0  0  0  0
  2  1  1  0
  2  4  1  0
  3  2  2  0
  5  4  1  0
  6  5  1  0
  6  7  1  6
  8  6  1  0
  8  9  2  0
 10 11  1  0
 11 12  2  0
 13 11  1  0
 14 13  1  6
 14 15  1  0
 15  8  1  0
 16 14  1  0
 16 23  1  0
 17 16  2  0
 19 20  1  0
 19 18  1  0
 20 21  1  0
 22 21  1  1
 22 23  1  0
 22 24  1  0
 24 26  2  0
 24 25  1  0
M  END
$$$$
