QNM.pdb
     RDKit          3D

 26 25  0  0  1  0  0  0  0  0999 V2000
   30.0650  -23.2404  -15.5113 N   0  0  0  0  0  0  0  0  0  0  0  0
   30.0436  -22.4735  -16.7171 C   0  0  0  0  0  0  0  0  0  0  0  0
   30.6259  -22.9252  -17.7188 O   0  0  0  0  0  0  0  0  0  0  0  0
   29.3380  -21.1966  -16.7243 C   0  0  0  0  0  0  0  0  0  0  0  0
   28.6346  -20.8080  -15.4816 C   0  0  0  0  0  0  0  0  0  0  0  0
   27.2075  -21.2011  -15.3498 C   0  0  2  0  0  0  0  0  0  0  0  0
   26.3419  -20.8412  -16.4216 N   0  0  0  0  0  0  0  0  0  0  0  0
   26.6286  -20.6413  -14.0612 C   0  0  0  0  0  0  0  0  0  0  0  0
   27.3890  -20.0223  -13.2670 O   0  0  0  0  0  0  0  0  0  0  0  0
   23.5039  -18.8242  -14.4260 N   0  0  0  0  0  0  0  0  0  0  0  0
   22.5781  -19.6102  -13.6502 C   0  0  0  0  0  0  0  0  0  0  0  0
   21.3741  -19.4530  -13.9617 O   0  0  0  0  0  0  0  0  0  0  0  0
   23.0735  -20.5212  -12.5796 C   0  0  0  0  0  0  0  0  0  0  0  0
   24.5995  -20.3988  -12.5317 C   0  0  2  0  0  0  0  0  0  0  0  0
   25.2681  -20.7934  -13.7296 N   0  0  0  0  0  0  0  0  0  0  0  0
   25.0992  -21.0322  -11.3211 C   0  0  0  0  0  0  0  0  0  0  0  0
   25.0753  -22.2789  -11.2449 O   0  0  0  0  0  0  0  0  0  0  0  0
   29.1660  -18.5941   -6.8303 C   0  0  0  0  0  0  0  0  0  0  0  0
   27.9280  -19.3228   -5.7464 S   0  0  0  0  0  0  0  0  0  0  0  0
   26.7816  -20.3684   -6.6593 C   0  0  0  0  0  0  0  0  0  0  0  0
   26.6359  -19.9495   -8.0923 C   0  0  0  0  0  0  0  0  0  0  0  0
   25.7746  -20.8715   -8.9032 C   0  0  2  0  0  0  0  0  0  0  0  0
   25.6022  -20.2924  -10.2402 N   0  0  0  0  0  0  0  0  0  0  0  0
   24.4269  -21.0807   -8.3404 C   0  0  0  0  0  0  0  0  0  0  0  0
   23.3344  -20.4228   -8.8475 O   0  0  0  0  0  0  0  0  0  0  0  0
   24.2386  -21.8750   -7.3710 O   0  0  0  0  0  0  0  0  0  0  0  0
  2  1  1  0
  2  4  1  0
  3  2  2  0
  5  4  1  0
  6  5  1  0
  6  7  1  6
  8  6  1  0
  8  9  2  0
 10 11  1  0
 11 12  2  0
 13 11  1  0
 14 13  1  6
 14 15  1  0
 15  8  1  0
 16 14  1  0
 16 23  1  0
 17 16  2  0
 19 20  1  0
 19 18  1  0
 20 21  1  0
 22 21  1  1
 22 23  1  0
 22 24  1  0
 24 26  2  0
 24 25  1  0
M  END
$$$$
