QNM.pdb
     RDKit          3D

 26 25  0  0  1  0  0  0  0  0999 V2000
   20.4303  -14.6209  -17.5671 N   0  0  0  0  0  0  0  0  0  0  0  0
   19.9584  -13.2912  -17.7949 C   0  0  0  0  0  0  0  0  0  0  0  0
   18.7314  -13.0886  -17.7973 O   0  0  0  0  0  0  0  0  0  0  0  0
   20.9335  -12.2278  -18.0110 C   0  0  0  0  0  0  0  0  0  0  0  0
   21.0571  -11.2011  -16.9524 C   0  0  0  0  0  0  0  0  0  0  0  0
   21.0971   -9.7780  -17.3787 C   0  0  2  0  0  0  0  0  0  0  0  0
   22.2737   -9.3438  -18.0530 N   0  0  0  0  0  0  0  0  0  0  0  0
   20.8698   -8.8683  -16.1831 C   0  0  0  0  0  0  0  0  0  0  0  0
   20.4126   -9.3629  -15.1161 O   0  0  0  0  0  0  0  0  0  0  0  0
   20.7472   -4.7880  -13.1457 N   0  0  0  0  0  0  0  0  0  0  0  0
   22.0121   -4.7394  -13.8344 C   0  0  0  0  0  0  0  0  0  0  0  0
   22.8073   -3.8728  -13.4009 O   0  0  0  0  0  0  0  0  0  0  0  0
   22.2943   -5.6728  -14.9616 C   0  0  0  0  0  0  0  0  0  0  0  0
   21.0412   -6.5240  -15.1878 C   0  0  2  0  0  0  0  0  0  0  0  0
   21.1560   -7.4900  -16.2325 N   0  0  0  0  0  0  0  0  0  0  0  0
   19.8774   -5.6569  -15.2882 C   0  0  0  0  0  0  0  0  0  0  0  0
   19.6510   -4.8503  -14.3615 O   0  0  0  0  0  0  0  0  0  0  0  0
   15.7575   -9.7047  -17.4265 C   0  0  0  0  0  0  0  0  0  0  0  0
   14.8036   -8.6773  -16.2984 S   0  0  0  0  0  0  0  0  0  0  0  0
   15.4703   -7.0080  -16.1985 C   0  0  0  0  0  0  0  0  0  0  0  0
   16.9586   -6.9702  -16.3822 C   0  0  0  0  0  0  0  0  0  0  0  0
   17.5475   -5.5986  -16.2348 C   0  0  2  0  0  0  0  0  0  0  0  0
   19.0035   -5.6982  -16.3852 N   0  0  0  0  0  0  0  0  0  0  0  0
   17.2851   -4.9726  -14.9248 C   0  0  0  0  0  0  0  0  0  0  0  0
   16.4190   -3.9148  -14.8029 O   0  0  0  0  0  0  0  0  0  0  0  0
   17.8525   -5.3937  -13.8729 O   0  0  0  0  0  0  0  0  0  0  0  0
  2  1  1  0
  2  4  1  0
  3  2  2  0
  5  4  1  0
  6  5  1  0
  6  7  1  1
  8  6  1  0
  8  9  2  0
 10 11  1  0
 11 12  2  0
 13 11  1  0
 14 13  1  6
 14 15  1  0
 15  8  1  0
 16 14  1  0
 16 23  1  0
 17 16  2  0
 19 20  1  0
 19 18  1  0
 20 21  1  0
 22 21  1  1
 22 23  1  0
 22 24  1  0
 24 26  2  0
 24 25  1  0
M  END
$$$$
