QNM.pdb
     RDKit          3D

 26 25  0  0  1  0  0  0  0  0999 V2000
   14.2190  -12.3965  -10.7621 N   0  0  0  0  0  0  0  0  0  0  0  0
   14.2527  -11.7765  -12.0494 C   0  0  0  0  0  0  0  0  0  0  0  0
   13.6989  -12.3540  -13.0015 O   0  0  0  0  0  0  0  0  0  0  0  0
   14.9307  -10.4927  -12.1926 C   0  0  0  0  0  0  0  0  0  0  0  0
   15.4992   -9.8901  -10.9664 C   0  0  0  0  0  0  0  0  0  0  0  0
   16.1567   -8.5636  -11.0956 C   0  0  2  0  0  0  0  0  0  0  0  0
   15.5630   -7.6396  -12.0019 N   0  0  0  0  0  0  0  0  0  0  0  0
   17.6157   -8.7393  -11.4815 C   0  0  0  0  0  0  0  0  0  0  0  0
   18.3098   -9.6004  -10.8743 O   0  0  0  0  0  0  0  0  0  0  0  0
   22.0944   -8.3514  -13.8141 N   0  0  0  0  0  0  0  0  0  0  0  0
   21.2942   -9.5445  -13.9281 C   0  0  0  0  0  0  0  0  0  0  0  0
   21.9123  -10.5459  -14.3599 O   0  0  0  0  0  0  0  0  0  0  0  0
   19.8541   -9.5271  -13.5444 C   0  0  0  0  0  0  0  0  0  0  0  0
   19.5152   -8.1118  -13.0671 C   0  0  2  0  0  0  0  0  0  0  0  0
   18.2139   -7.9690  -12.4979 N   0  0  0  0  0  0  0  0  0  0  0  0
   19.8248   -7.1573  -14.1204 C   0  0  0  0  0  0  0  0  0  0  0  0
   19.2516   -7.2778  -15.2238 O   0  0  0  0  0  0  0  0  0  0  0  0
   17.4954   -1.0044  -16.8091 C   0  0  0  0  0  0  0  0  0  0  0  0
   17.5913   -2.4824  -15.7870 S   0  0  0  0  0  0  0  0  0  0  0  0
   19.2781   -3.1012  -15.6741 C   0  0  0  0  0  0  0  0  0  0  0  0
   19.3706   -4.3839  -14.9020 C   0  0  0  0  0  0  0  0  0  0  0  0
   20.7655   -4.9263  -14.8028 C   0  0  2  0  0  0  0  0  0  0  0  0
   20.7438   -6.1125  -13.9397 N   0  0  0  0  0  0  0  0  0  0  0  0
   21.7355   -3.9795  -14.2203 C   0  0  0  0  0  0  0  0  0  0  0  0
   22.2341   -2.9314  -14.9529 O   0  0  0  0  0  0  0  0  0  0  0  0
   22.1371   -4.1065  -13.0251 O   0  0  0  0  0  0  0  0  0  0  0  0
  2  1  1  0
  2  4  1  0
  3  2  2  0
  5  4  1  0
  6  5  1  0
  6  7  1  6
  8  6  1  0
  8  9  2  0
 10 11  1  0
 11 12  2  0
 13 11  1  0
 14 13  1  6
 14 15  1  0
 15  8  1  0
 16 14  1  0
 16 23  1  0
 17 16  2  0
 19 20  1  0
 19 18  1  0
 20 21  1  0
 22 21  1  1
 22 23  1  0
 22 24  1  0
 24 26  2  0
 24 25  1  0
M  END
$$$$
