QNM.pdb
     RDKit          3D

 26 25  0  0  1  0  0  0  0  0999 V2000
   16.0365  -15.7307  -16.6303 N   0  0  0  0  0  0  0  0  0  0  0  0
   17.2824  -15.0310  -16.6014 C   0  0  0  0  0  0  0  0  0  0  0  0
   17.8235  -14.8266  -15.5005 O   0  0  0  0  0  0  0  0  0  0  0  0
   17.8689  -14.5896  -17.8622 C   0  0  0  0  0  0  0  0  0  0  0  0
   17.9742  -13.1300  -18.0823 C   0  0  0  0  0  0  0  0  0  0  0  0
   19.1357  -12.4273  -17.4776 C   0  0  2  0  0  0  0  0  0  0  0  0
   19.5290  -12.8438  -16.1741 N   0  0  0  0  0  0  0  0  0  0  0  0
   18.8795  -10.9300  -17.4425 C   0  0  0  0  0  0  0  0  0  0  0  0
   18.3144  -10.3826  -18.4289 O   0  0  0  0  0  0  0  0  0  0  0  0
   17.1560   -5.9998  -16.9493 N   0  0  0  0  0  0  0  0  0  0  0  0
   17.4866   -6.8687  -15.8482 C   0  0  0  0  0  0  0  0  0  0  0  0
   17.7029   -6.2762  -14.7649 O   0  0  0  0  0  0  0  0  0  0  0  0
   17.5474   -8.3451  -16.0434 C   0  0  0  0  0  0  0  0  0  0  0  0
   19.0235   -8.7439  -16.1325 C   0  0  2  0  0  0  0  0  0  0  0  0
   19.2542  -10.1373  -16.3401 N   0  0  0  0  0  0  0  0  0  0  0  0
   19.7499   -8.1691  -15.0107 C   0  0  0  0  0  0  0  0  0  0  0  0
   19.6101   -8.6838  -13.8811 O   0  0  0  0  0  0  0  0  0  0  0  0
   26.6912   -9.8359  -15.0145 C   0  0  0  0  0  0  0  0  0  0  0  0
   24.9780   -9.7370  -15.5562 S   0  0  0  0  0  0  0  0  0  0  0  0
   24.1500   -8.2914  -14.8739 C   0  0  0  0  0  0  0  0  0  0  0  0
   22.6949   -8.2373  -15.2345 C   0  0  0  0  0  0  0  0  0  0  0  0
   21.9767   -7.0534  -14.6581 C   0  0  2  0  0  0  0  0  0  0  0  0
   20.5961   -7.0592  -15.1546 N   0  0  0  0  0  0  0  0  0  0  0  0
   22.5697   -5.7547  -15.0302 C   0  0  0  0  0  0  0  0  0  0  0  0
   23.3944   -5.0763  -14.1679 O   0  0  0  0  0  0  0  0  0  0  0  0
   22.3345   -5.2270  -16.1581 O   0  0  0  0  0  0  0  0  0  0  0  0
  2  1  1  0
  2  4  1  0
  3  2  2  0
  5  4  1  0
  6  5  1  0
  6  7  1  1
  8  6  1  0
  8  9  2  0
 10 11  1  0
 11 12  2  0
 13 11  1  0
 14 13  1  1
 14 15  1  0
 15  8  1  0
 16 14  1  0
 16 23  1  0
 17 16  2  0
 19 20  1  0
 19 18  1  0
 20 21  1  0
 22 21  1  6
 22 23  1  0
 22 24  1  0
 24 26  2  0
 24 25  1  0
M  END
$$$$
