CAQ.pdb
     RDKit          3D

 21 20  0  0  1  0  0  0  0  0999 V2000
   14.9424  -12.9069  -13.6938 N   0  0  0  0  0  0  0  0  0  0  0  0
   15.3203  -11.5860  -14.1568 C   0  0  1  0  0  0  0  0  0  0  0  0
   14.0883  -10.9310  -14.7463 C   0  0  0  0  0  0  0  0  0  0  0  0
   13.7097  -11.6371  -16.3731 S   0  0  0  0  0  0  0  0  0  0  0  0
   15.8591  -10.8283  -13.0126 C   0  0  0  0  0  0  0  0  0  0  0  0
   15.3014  -10.8999  -11.8640 O   0  0  0  0  0  0  0  0  0  0  0  0
   18.8354   -8.6187  -12.2131 C   0  0  0  0  0  0  0  0  0  0  0  0
   17.5054   -9.3079  -11.9291 C   0  0  2  0  0  0  0  0  0  0  0  0
   16.9966   -9.9889  -13.0858 N   0  0  0  0  0  0  0  0  0  0  0  0
   16.5888   -8.2456  -11.4424 C   0  0  0  0  0  0  0  0  0  0  0  0
   15.9654   -7.5737  -12.3043 O   0  0  0  0  0  0  0  0  0  0  0  0
   12.1878   -8.7238   -7.3957 N   0  0  0  0  0  0  0  0  0  0  0  0
   12.3108   -7.3125   -7.3519 C   0  0  0  0  0  0  0  0  0  0  0  0
   11.5218   -6.6503   -6.6681 O   0  0  0  0  0  0  0  0  0  0  0  0
   13.3827   -6.6558   -8.1278 C   0  0  0  0  0  0  0  0  0  0  0  0
   14.3839   -7.5807   -8.7240 C   0  0  0  0  0  0  0  0  0  0  0  0
   15.3905   -6.9428   -9.6182 C   0  0  2  0  0  0  0  0  0  0  0  0
   16.3709   -7.9408  -10.0922 N   0  0  0  0  0  0  0  0  0  0  0  0
   16.1616   -5.9133   -8.9087 C   0  0  0  0  0  0  0  0  0  0  0  0
   17.3229   -6.1544   -8.5279 O   0  0  0  0  0  0  0  0  0  0  0  0
   15.6092   -4.6799   -8.6605 O   0  0  0  0  0  0  0  0  0  0  0  0
  2  5  1  0
  2  1  1  1
  3  2  1  0
  4  3  1  0
  5  6  2  0
  8  7  1  6
  8 10  1  0
  9  5  1  0
  9  8  1  0
 10 11  2  0
 12 13  1  0
 13 14  2  0
 15 13  1  0
 15 16  1  0
 17 16  1  1
 17 19  1  0
 18 17  1  0
 18 10  1  0
 19 20  2  0
 19 21  1  0
M  END
$$$$
