CAQ.pdb
     RDKit          3D

 21 20  0  0  1  0  0  0  0  0999 V2000
   25.9657  -11.7748  -18.0710 N   0  0  0  0  0  0  0  0  0  0  0  0
   25.8241  -11.3791  -16.6835 C   0  0  1  0  0  0  0  0  0  0  0  0
   27.0960  -10.6668  -16.2722 C   0  0  0  0  0  0  0  0  0  0  0  0
   28.4717  -11.8419  -16.1503 S   0  0  0  0  0  0  0  0  0  0  0  0
   24.6381  -10.5111  -16.5658 C   0  0  0  0  0  0  0  0  0  0  0  0
   24.4573   -9.5423  -17.3808 O   0  0  0  0  0  0  0  0  0  0  0  0
   21.4721  -10.2814  -14.4905 C   0  0  0  0  0  0  0  0  0  0  0  0
   22.4909   -9.8080  -15.5213 C   0  0  2  0  0  0  0  0  0  0  0  0
   23.6369  -10.6707  -15.5780 N   0  0  0  0  0  0  0  0  0  0  0  0
   22.8422   -8.4159  -15.1414 C   0  0  0  0  0  0  0  0  0  0  0  0
   23.8401   -8.2500  -14.3934 O   0  0  0  0  0  0  0  0  0  0  0  0
   21.8394   -3.2605  -18.5719 N   0  0  0  0  0  0  0  0  0  0  0  0
   22.3842   -2.6979  -17.3905 C   0  0  0  0  0  0  0  0  0  0  0  0
   22.6151   -1.4843  -17.3406 O   0  0  0  0  0  0  0  0  0  0  0  0
   22.6684   -3.5751  -16.2364 C   0  0  0  0  0  0  0  0  0  0  0  0
   22.3082   -5.0055  -16.4306 C   0  0  0  0  0  0  0  0  0  0  0  0
   22.5604   -5.8925  -15.2604 C   0  0  2  0  0  0  0  0  0  0  0  0
   22.1401   -7.2771  -15.5578 N   0  0  0  0  0  0  0  0  0  0  0  0
   21.7818   -5.4688  -14.0890 C   0  0  0  0  0  0  0  0  0  0  0  0
   20.6009   -5.8423  -13.9556 O   0  0  0  0  0  0  0  0  0  0  0  0
   22.3487   -4.6595  -13.1343 O   0  0  0  0  0  0  0  0  0  0  0  0
  2  5  1  0
  2  1  1  6
  3  2  1  0
  4  3  1  0
  5  6  2  0
  8  7  1  1
  8 10  1  0
  9  5  1  0
  9  8  1  0
 10 11  2  0
 12 13  1  0
 13 14  2  0
 15 13  1  0
 15 16  1  0
 17 16  1  6
 17 19  1  0
 18 17  1  0
 18 10  1  0
 19 20  2  0
 19 21  1  0
M  END
$$$$
