CAQ.pdb
     RDKit          3D

 21 20  0  0  1  0  0  0  0  0999 V2000
   23.8490  -15.4624  -16.6917 N   0  0  0  0  0  0  0  0  0  0  0  0
   24.1253  -14.2448  -17.4285 C   0  0  1  0  0  0  0  0  0  0  0  0
   23.0540  -14.0907  -18.4883 C   0  0  0  0  0  0  0  0  0  0  0  0
   23.1752  -15.4224  -19.7130 S   0  0  0  0  0  0  0  0  0  0  0  0
   24.1333  -13.1175  -16.4782 C   0  0  0  0  0  0  0  0  0  0  0  0
   23.1189  -12.8859  -15.7348 O   0  0  0  0  0  0  0  0  0  0  0  0
   26.4485  -10.3068  -15.4076 C   0  0  0  0  0  0  0  0  0  0  0  0
   25.1294  -11.0684  -15.4759 C   0  0  2  0  0  0  0  0  0  0  0  0
   25.2235  -12.2297  -16.3145 N   0  0  0  0  0  0  0  0  0  0  0  0
   24.1182  -10.0946  -15.9601 C   0  0  0  0  0  0  0  0  0  0  0  0
   23.8693  -10.0772  -17.1932 O   0  0  0  0  0  0  0  0  0  0  0  0
   18.9477  -10.4792  -17.0553 N   0  0  0  0  0  0  0  0  0  0  0  0
   18.8162   -9.0754  -16.9097 C   0  0  0  0  0  0  0  0  0  0  0  0
   17.7411   -8.5297  -17.1833 O   0  0  0  0  0  0  0  0  0  0  0  0
   19.9708   -8.2868  -16.4329 C   0  0  0  0  0  0  0  0  0  0  0  0
   21.1725   -9.0867  -16.0727 C   0  0  0  0  0  0  0  0  0  0  0  0
   22.3523   -8.2983  -15.6186 C   0  0  2  0  0  0  0  0  0  0  0  0
   23.4236   -9.1956  -15.1398 N   0  0  0  0  0  0  0  0  0  0  0  0
   22.0106   -7.4255  -14.4875 C   0  0  0  0  0  0  0  0  0  0  0  0
   22.2933   -7.7706  -13.3245 O   0  0  0  0  0  0  0  0  0  0  0  0
   21.3782   -6.2249  -14.7035 O   0  0  0  0  0  0  0  0  0  0  0  0
  2  5  1  0
  2  1  1  1
  3  2  1  0
  4  3  1  0
  5  6  2  0
  8  7  1  6
  8 10  1  0
  9  5  1  0
  9  8  1  0
 10 11  2  0
 12 13  1  0
 13 14  2  0
 15 13  1  0
 15 16  1  0
 17 16  1  1
 17 19  1  0
 18 17  1  0
 18 10  1  0
 19 20  2  0
 19 21  1  0
M  END
$$$$
