CAQ.pdb
     RDKit          3D

 21 20  0  0  1  0  0  0  0  0999 V2000
   15.2434  -13.4114  -14.0522 N   0  0  0  0  0  0  0  0  0  0  0  0
   15.1620  -12.1789  -14.8112 C   0  0  1  0  0  0  0  0  0  0  0  0
   14.4022  -11.1692  -13.9761 C   0  0  0  0  0  0  0  0  0  0  0  0
   12.6327  -11.5653  -13.9539 S   0  0  0  0  0  0  0  0  0  0  0  0
   16.5325  -11.7290  -15.1164 C   0  0  0  0  0  0  0  0  0  0  0  0
   17.4703  -11.8716  -14.2589 O   0  0  0  0  0  0  0  0  0  0  0  0
   18.5437  -10.7691  -18.1362 C   0  0  0  0  0  0  0  0  0  0  0  0
   18.2833  -10.8207  -16.6348 C   0  0  2  0  0  0  0  0  0  0  0  0
   16.9118  -11.1239  -16.3386 N   0  0  0  0  0  0  0  0  0  0  0  0
   18.7050   -9.5011  -16.0998 C   0  0  0  0  0  0  0  0  0  0  0  0
   17.8030   -8.6682  -15.8251 O   0  0  0  0  0  0  0  0  0  0  0  0
   21.5295   -7.3471  -12.2550 N   0  0  0  0  0  0  0  0  0  0  0  0
   22.1585   -6.3205  -13.0028 C   0  0  0  0  0  0  0  0  0  0  0  0
   22.4839   -5.2672  -12.4431 O   0  0  0  0  0  0  0  0  0  0  0  0
   22.4138   -6.5278  -14.4430 C   0  0  0  0  0  0  0  0  0  0  0  0
   21.8901   -7.8057  -14.9965 C   0  0  0  0  0  0  0  0  0  0  0  0
   20.4413   -7.8056  -15.3438 C   0  0  2  0  0  0  0  0  0  0  0  0
   20.0356   -9.1206  -15.8804 N   0  0  0  0  0  0  0  0  0  0  0  0
   20.1419   -6.8226  -16.3937 C   0  0  0  0  0  0  0  0  0  0  0  0
   20.2788   -7.1289  -17.5934 O   0  0  0  0  0  0  0  0  0  0  0  0
   19.7097   -5.5615  -16.0611 O   0  0  0  0  0  0  0  0  0  0  0  0
  2  5  1  0
  2  1  1  1
  3  2  1  0
  4  3  1  0
  5  6  2  0
  8  7  1  6
  8 10  1  0
  9  5  1  0
  9  8  1  0
 10 11  2  0
 12 13  1  0
 13 14  2  0
 15 13  1  0
 15 16  1  0
 17 16  1  6
 17 19  1  0
 18 17  1  0
 18 10  1  0
 19 20  2  0
 19 21  1  0
M  END
$$$$
