CAQ.pdb
     RDKit          3D

 21 20  0  0  1  0  0  0  0  0999 V2000
   20.9302  -15.2896  -18.8853 N   0  0  0  0  0  0  0  0  0  0  0  0
   21.0938  -14.0508  -19.6205 C   0  0  1  0  0  0  0  0  0  0  0  0
   19.7522  -13.6883  -20.2229 C   0  0  0  0  0  0  0  0  0  0  0  0
   19.4306  -14.6838  -21.7041 S   0  0  0  0  0  0  0  0  0  0  0  0
   21.5821  -13.0177  -18.6887 C   0  0  0  0  0  0  0  0  0  0  0  0
   21.1598  -12.9775  -17.4823 O   0  0  0  0  0  0  0  0  0  0  0  0
   24.2054  -10.2915  -18.5856 C   0  0  0  0  0  0  0  0  0  0  0  0
   22.9826  -11.0511  -18.0833 C   0  0  2  0  0  0  0  0  0  0  0  0
   22.5241  -12.0205  -19.0376 N   0  0  0  0  0  0  0  0  0  0  0  0
   21.9572  -10.0213  -17.7774 C   0  0  0  0  0  0  0  0  0  0  0  0
   21.1138   -9.7548  -18.6721 O   0  0  0  0  0  0  0  0  0  0  0  0
   18.6446   -9.4981  -12.7013 N   0  0  0  0  0  0  0  0  0  0  0  0
   18.2983   -8.2691  -13.3167 C   0  0  0  0  0  0  0  0  0  0  0  0
   17.3844   -7.5839  -12.8437 O   0  0  0  0  0  0  0  0  0  0  0  0
   19.0376   -7.8282  -14.5172 C   0  0  0  0  0  0  0  0  0  0  0  0
   20.0619   -8.7871  -15.0119 C   0  0  0  0  0  0  0  0  0  0  0  0
   20.7908   -8.3659  -16.2412 C   0  0  2  0  0  0  0  0  0  0  0  0
   21.8647   -9.3275  -16.5636 N   0  0  0  0  0  0  0  0  0  0  0  0
   21.4459   -7.0642  -16.0563 C   0  0  0  0  0  0  0  0  0  0  0  0
   22.6321   -7.0098  -15.6798 O   0  0  0  0  0  0  0  0  0  0  0  0
   20.7570   -5.8999  -16.2967 O   0  0  0  0  0  0  0  0  0  0  0  0
  2  5  1  0
  2  1  1  1
  3  2  1  0
  4  3  1  0
  5  6  2  0
  8  7  1  6
  8 10  1  0
  9  5  1  0
  9  8  1  0
 10 11  2  0
 12 13  1  0
 13 14  2  0
 15 13  1  0
 15 16  1  0
 17 16  1  1
 17 19  1  0
 18 17  1  0
 18 10  1  0
 19 20  2  0
 19 21  1  0
M  END
$$$$
