CAQ.pdb
     RDKit          3D

 21 20  0  0  1  0  0  0  0  0999 V2000
   25.6978  -21.8288  -11.9579 N   0  0  0  0  0  0  0  0  0  0  0  0
   25.1296  -22.0860  -13.2667 C   0  0  1  0  0  0  0  0  0  0  0  0
   24.0458  -23.1317  -13.1045 C   0  0  0  0  0  0  0  0  0  0  0  0
   24.7750  -24.7857  -12.9594 S   0  0  0  0  0  0  0  0  0  0  0  0
   24.6024  -20.8177  -13.8026 C   0  0  0  0  0  0  0  0  0  0  0  0
   23.8668  -20.0616  -13.0797 O   0  0  0  0  0  0  0  0  0  0  0  0
   24.9761  -18.6447  -16.8761 C   0  0  0  0  0  0  0  0  0  0  0  0
   24.3032  -19.1113  -15.5899 C   0  0  2  0  0  0  0  0  0  0  0  0
   24.8564  -20.3472  -15.1132 N   0  0  0  0  0  0  0  0  0  0  0  0
   22.8545  -19.2157  -15.8996 C   0  0  0  0  0  0  0  0  0  0  0  0
   22.3372  -20.3625  -15.8880 O   0  0  0  0  0  0  0  0  0  0  0  0
   18.6606  -21.0217  -14.4791 N   0  0  0  0  0  0  0  0  0  0  0  0
   17.9112  -19.8223  -14.3854 C   0  0  0  0  0  0  0  0  0  0  0  0
   16.8084  -19.8317  -13.8267 O   0  0  0  0  0  0  0  0  0  0  0  0
   18.4630  -18.5784  -14.9602 C   0  0  0  0  0  0  0  0  0  0  0  0
   19.9486  -18.5004  -14.9805 C   0  0  0  0  0  0  0  0  0  0  0  0
   20.5553  -18.2129  -16.3106 C   0  0  2  0  0  0  0  0  0  0  0  0
   22.0261  -18.1272  -16.2031 N   0  0  0  0  0  0  0  0  0  0  0  0
   20.1050  -16.9172  -16.8363 C   0  0  0  0  0  0  0  0  0  0  0  0
   20.8477  -15.9201  -16.7601 O   0  0  0  0  0  0  0  0  0  0  0  0
   18.8645  -16.7959  -17.4145 O   0  0  0  0  0  0  0  0  0  0  0  0
  2  5  1  0
  2  1  1  1
  3  2  1  0
  4  3  1  0
  5  6  2  0
  8  7  1  6
  8 10  1  0
  9  5  1  0
  9  8  1  0
 10 11  2  0
 12 13  1  0
 13 14  2  0
 15 13  1  0
 15 16  1  0
 17 16  1  1
 17 19  1  0
 18 17  1  0
 18 10  1  0
 19 20  2  0
 19 21  1  0
M  END
$$$$
