KWI.pdb
     RDKit          3D

 32 33  0  0  1  0  0  0  0  0999 V2000
    8.9674  -17.4455   19.8667 N   0  0  0  0  0  0  0  0  0  0  0  0
    9.2827  -16.0372   19.9999 C   0  0  1  0  0  0  0  0  0  0  0  0
    8.1692  -15.3041   19.2384 C   0  0  0  0  0  0  0  0  0  0  0  0
    8.6678  -15.1311   17.8172 C   0  0  0  0  0  0  0  0  0  0  0  0
    8.4808  -13.7090   17.3348 C   0  0  0  0  0  0  0  0  0  0  0  0
    8.9018  -13.6553   15.8831 C   0  0  0  0  0  0  0  0  0  0  0  0
    7.9850  -14.4625   15.1177 N   0  0  0  0  0  0  0  0  0  0  0  0
    9.1884  -15.6530   21.4089 C   0  0  0  0  0  0  0  0  0  0  0  0
    9.4977  -14.4940   21.7626 O   0  0  0  0  0  0  0  0  0  0  0  0
    8.7458  -16.5687   22.4325 N   0  0  0  0  0  0  0  0  0  0  0  0
    8.5446  -16.1284   23.7769 C   0  0  1  0  0  0  0  0  0  0  0  0
    7.3782  -16.8088   24.4559 C   0  0  0  0  0  0  0  0  0  0  0  0
    6.4221  -15.8193   24.9951 C   0  0  0  0  0  0  0  0  0  0  0  0
    5.0695  -15.9597   25.1992 C   0  0  0  0  0  0  0  0  0  0  0  0
    4.5692  -14.8213   25.7068 N   0  0  0  0  0  0  0  0  0  0  0  0
    5.5452  -13.9114   25.8531 C   0  0  0  0  0  0  0  0  0  0  0  0
    5.6016  -12.6099   26.3152 C   0  0  0  0  0  0  0  0  0  0  0  0
    6.7982  -11.8945   26.3495 C   0  0  0  0  0  0  0  0  0  0  0  0
    7.9407  -12.5191   25.9074 C   0  0  0  0  0  0  0  0  0  0  0  0
    7.8779  -13.8161   25.4481 C   0  0  0  0  0  0  0  0  0  0  0  0
    6.7045  -14.5293   25.4103 C   0  0  0  0  0  0  0  0  0  0  0  0
    9.7815  -16.4108   24.5487 C   0  0  0  0  0  0  0  0  0  0  0  0
   10.7893  -16.8606   23.9859 O   0  0  0  0  0  0  0  0  0  0  0  0
   10.0308  -13.8537   29.5184 C   0  0  0  0  0  0  0  0  0  0  0  0
   10.3474  -14.3801   28.1471 C   0  0  0  0  0  0  0  0  0  0  0  0
   10.8246  -15.8126   28.1539 C   0  0  2  0  0  0  0  0  0  0  0  0
   12.0865  -15.8953   28.9580 C   0  0  0  0  0  0  0  0  0  0  0  0
   11.0004  -16.3530   26.7521 C   0  0  2  0  0  0  0  0  0  0  0  0
    9.8211  -16.1671   25.9483 N   0  0  0  0  0  0  0  0  0  0  0  0
   11.3839  -17.8027   26.7981 C   0  0  0  0  0  0  0  0  0  0  0  0
   10.5214  -18.7132   26.8886 O   0  0  0  0  0  0  0  0  0  0  0  0
   12.7140  -18.1743   26.7412 O   0  0  0  0  0  0  0  0  0  0  0  0
  2  3  1  0
  2  1  1  1
  3  4  1  0
  5  4  1  0
  6  5  1  0
  7  6  1  0
  8  2  1  0
  8  9  2  0
 10  8  1  0
 11 10  1  0
 11 22  1  0
 11 12  1  1
 13 12  1  0
 13 14  2  0
 15 14  1  0
 16 15  1  0
 17 16  2  0
 18 17  1  0
 19 18  2  0
 19 20  1  0
 20 21  2  0
 21 16  1  0
 21 13  1  0
 22 23  2  0
 22 29  1  0
 24 25  1  0
 25 26  1  0
 26 28  1  0
 26 27  1  6
 28 30  1  0
 28 29  1  6
 30 31  2  0
 30 32  1  0
M  END
$$$$
