KWI.pdb
     RDKit          3D

 32 33  0  0  1  0  0  0  0  0999 V2000
    8.6897  -16.8613   19.7386 N   0  0  0  0  0  0  0  0  0  0  0  0
    9.4201  -15.6410   20.0171 C   0  0  1  0  0  0  0  0  0  0  0  0
    8.7071  -14.5529   19.2015 C   0  0  0  0  0  0  0  0  0  0  0  0
    8.7639  -14.9998   17.7539 C   0  0  0  0  0  0  0  0  0  0  0  0
    8.5075  -13.8463   16.8086 C   0  0  0  0  0  0  0  0  0  0  0  0
    8.7388  -14.3446   15.3995 C   0  0  0  0  0  0  0  0  0  0  0  0
    8.5366  -13.2424   14.4927 N   0  0  0  0  0  0  0  0  0  0  0  0
    9.2751  -15.3047   21.4340 C   0  0  0  0  0  0  0  0  0  0  0  0
    9.7937  -14.2595   21.8844 O   0  0  0  0  0  0  0  0  0  0  0  0
    8.5458  -16.1406   22.3568 N   0  0  0  0  0  0  0  0  0  0  0  0
    8.3929  -15.7650   23.7270 C   0  0  1  0  0  0  0  0  0  0  0  0
    7.2075  -16.4239   24.3941 C   0  0  0  0  0  0  0  0  0  0  0  0
    6.4133  -15.4430   25.1631 C   0  0  0  0  0  0  0  0  0  0  0  0
    5.2156  -15.6321   25.8115 C   0  0  0  0  0  0  0  0  0  0  0  0
    4.8301  -14.4835   26.3912 N   0  0  0  0  0  0  0  0  0  0  0  0
    5.7334  -13.5193   26.1540 C   0  0  0  0  0  0  0  0  0  0  0  0
    5.8460  -12.1850   26.4970 C   0  0  0  0  0  0  0  0  0  0  0  0
    6.9342  -11.4124   26.0922 C   0  0  0  0  0  0  0  0  0  0  0  0
    7.9100  -12.0136   25.3323 C   0  0  0  0  0  0  0  0  0  0  0  0
    7.7920  -13.3435   24.9939 C   0  0  0  0  0  0  0  0  0  0  0  0
    6.7243  -14.1129   25.3876 C   0  0  0  0  0  0  0  0  0  0  0  0
    9.6289  -16.1490   24.4551 C   0  0  0  0  0  0  0  0  0  0  0  0
   10.5154  -16.8072   23.8931 O   0  0  0  0  0  0  0  0  0  0  0  0
   10.6662  -13.1676   29.0661 C   0  0  0  0  0  0  0  0  0  0  0  0
   10.7191  -13.9030   27.7569 C   0  0  0  0  0  0  0  0  0  0  0  0
   11.0050  -15.3774   27.9124 C   0  0  2  0  0  0  0  0  0  0  0  0
   12.3163  -15.5410   28.6193 C   0  0  0  0  0  0  0  0  0  0  0  0
   10.9752  -16.0989   26.5833 C   0  0  2  0  0  0  0  0  0  0  0  0
    9.8078  -15.7634   25.8113 N   0  0  0  0  0  0  0  0  0  0  0  0
   11.0591  -17.5819   26.7947 C   0  0  0  0  0  0  0  0  0  0  0  0
   10.0495  -18.2649   27.1032 O   0  0  0  0  0  0  0  0  0  0  0  0
   12.2668  -18.2391   26.6528 O   0  0  0  0  0  0  0  0  0  0  0  0
  2  3  1  0
  2  1  1  1
  3  4  1  0
  5  4  1  0
  6  5  1  0
  7  6  1  0
  8  2  1  0
  8  9  2  0
 10  8  1  0
 11 10  1  0
 11 22  1  0
 11 12  1  1
 13 12  1  0
 13 14  2  0
 15 14  1  0
 16 15  1  0
 17 16  2  0
 18 17  1  0
 19 18  2  0
 19 20  1  0
 20 21  2  0
 21 16  1  0
 21 13  1  0
 22 23  2  0
 22 29  1  0
 24 25  1  0
 25 26  1  0
 26 28  1  0
 26 27  1  6
 28 30  1  0
 28 29  1  1
 30 31  2  0
 30 32  1  0
M  END
$$$$
