KWI.pdb
     RDKit          3D

 32 33  0  0  1  0  0  0  0  0999 V2000
    8.7185  -16.8872   20.2662 N   0  0  0  0  0  0  0  0  0  0  0  0
    9.3685  -15.6102   20.4834 C   0  0  1  0  0  0  0  0  0  0  0  0
    8.4714  -14.5801   19.7823 C   0  0  0  0  0  0  0  0  0  0  0  0
    8.4560  -14.9581   18.3142 C   0  0  0  0  0  0  0  0  0  0  0  0
    8.2589  -13.7439   17.4327 C   0  0  0  0  0  0  0  0  0  0  0  0
    8.1405  -14.2256   16.0039 C   0  0  0  0  0  0  0  0  0  0  0  0
    8.0126  -13.0724   15.1486 N   0  0  0  0  0  0  0  0  0  0  0  0
    9.3657  -15.3048   21.9147 C   0  0  0  0  0  0  0  0  0  0  0  0
    9.8124  -14.2095   22.3207 O   0  0  0  0  0  0  0  0  0  0  0  0
    8.8609  -16.2283   22.9018 N   0  0  0  0  0  0  0  0  0  0  0  0
    8.7328  -15.8436   24.2720 C   0  0  1  0  0  0  0  0  0  0  0  0
    7.5136  -16.4339   24.9426 C   0  0  0  0  0  0  0  0  0  0  0  0
    6.5318  -15.3841   25.2864 C   0  0  0  0  0  0  0  0  0  0  0  0
    5.1862  -15.5196   25.5348 C   0  0  0  0  0  0  0  0  0  0  0  0
    4.6550  -14.3174   25.8110 N   0  0  0  0  0  0  0  0  0  0  0  0
    5.6032  -13.3688   25.7568 C   0  0  0  0  0  0  0  0  0  0  0  0
    5.6229  -11.9998   25.9472 C   0  0  0  0  0  0  0  0  0  0  0  0
    6.7968  -11.2578   25.8190 C   0  0  0  0  0  0  0  0  0  0  0  0
    7.9543  -11.9254   25.4942 C   0  0  0  0  0  0  0  0  0  0  0  0
    7.9281  -13.2896   25.3058 C   0  0  0  0  0  0  0  0  0  0  0  0
    6.7773  -14.0294   25.4297 C   0  0  0  0  0  0  0  0  0  0  0  0
    9.9469  -16.2965   24.9975 C   0  0  0  0  0  0  0  0  0  0  0  0
   10.8807  -16.8392   24.3906 O   0  0  0  0  0  0  0  0  0  0  0  0
   10.8467  -13.7721   29.8364 C   0  0  0  0  0  0  0  0  0  0  0  0
   10.9510  -14.4172   28.4833 C   0  0  0  0  0  0  0  0  0  0  0  0
   11.2093  -15.9034   28.5497 C   0  0  2  0  0  0  0  0  0  0  0  0
   12.5083  -16.1344   29.2604 C   0  0  0  0  0  0  0  0  0  0  0  0
   11.1841  -16.5400   27.1779 C   0  0  2  0  0  0  0  0  0  0  0  0
   10.0497  -16.1112   26.4028 N   0  0  0  0  0  0  0  0  0  0  0  0
   11.2054  -18.0353   27.2981 C   0  0  0  0  0  0  0  0  0  0  0  0
   10.1625  -18.6952   27.5387 O   0  0  0  0  0  0  0  0  0  0  0  0
   12.3904  -18.7303   27.1449 O   0  0  0  0  0  0  0  0  0  0  0  0
  2  3  1  0
  2  1  1  1
  3  4  1  0
  5  4  1  0
  6  5  1  0
  7  6  1  0
  8  2  1  0
  8  9  2  0
 10  8  1  0
 11 10  1  0
 11 22  1  0
 11 12  1  1
 13 12  1  0
 13 14  2  0
 15 14  1  0
 16 15  1  0
 17 16  2  0
 18 17  1  0
 19 18  2  0
 19 20  1  0
 20 21  2  0
 21 16  1  0
 21 13  1  0
 22 23  2  0
 22 29  1  0
 24 25  1  0
 25 26  1  0
 26 28  1  0
 26 27  1  6
 28 30  1  0
 28 29  1  1
 30 31  2  0
 30 32  1  0
M  END
$$$$
