KWI.pdb
     RDKit          3D

 32 33  0  0  1  0  0  0  0  0999 V2000
   11.2583  -18.8748   19.5647 N   0  0  0  0  0  0  0  0  0  0  0  0
   10.3786  -19.1396   20.6856 C   0  0  1  0  0  0  0  0  0  0  0  0
   11.0996  -20.2112   21.5157 C   0  0  0  0  0  0  0  0  0  0  0  0
   10.8222  -21.5364   20.8335 C   0  0  0  0  0  0  0  0  0  0  0  0
    9.7768  -22.3351   21.5814 C   0  0  0  0  0  0  0  0  0  0  0  0
    9.6166  -23.6621   20.8735 C   0  0  0  0  0  0  0  0  0  0  0  0
   10.8562  -24.3883   20.9914 N   0  0  0  0  0  0  0  0  0  0  0  0
   10.2701  -17.9345   21.5088 C   0  0  0  0  0  0  0  0  0  0  0  0
   11.2510  -17.1673   21.6259 O   0  0  0  0  0  0  0  0  0  0  0  0
    9.0581  -17.5815   22.2077 N   0  0  0  0  0  0  0  0  0  0  0  0
    8.9926  -16.4086   23.0212 C   0  0  1  0  0  0  0  0  0  0  0  0
    7.6612  -15.6986   22.9326 C   0  0  0  0  0  0  0  0  0  0  0  0
    7.7546  -14.3200   23.4570 C   0  0  0  0  0  0  0  0  0  0  0  0
    8.4918  -13.2670   22.9686 C   0  0  0  0  0  0  0  0  0  0  0  0
    8.2966  -12.1840   23.7386 N   0  0  0  0  0  0  0  0  0  0  0  0
    7.4468  -12.4727   24.7367 C   0  0  0  0  0  0  0  0  0  0  0  0
    6.9066  -11.7616   25.7918 C   0  0  0  0  0  0  0  0  0  0  0  0
    6.0218  -12.3486   26.6960 C   0  0  0  0  0  0  0  0  0  0  0  0
    5.6912  -13.6711   26.5150 C   0  0  0  0  0  0  0  0  0  0  0  0
    6.2329  -14.3742   25.4617 C   0  0  0  0  0  0  0  0  0  0  0  0
    7.1050  -13.8052   24.5658 C   0  0  0  0  0  0  0  0  0  0  0  0
    9.2318  -16.8070   24.4317 C   0  0  0  0  0  0  0  0  0  0  0  0
    8.8047  -17.8862   24.8651 O   0  0  0  0  0  0  0  0  0  0  0  0
   10.1429  -13.3118   28.9071 C   0  0  0  0  0  0  0  0  0  0  0  0
    9.7378  -14.4568   28.0225 C   0  0  0  0  0  0  0  0  0  0  0  0
   10.9128  -15.1952   27.4275 C   0  0  2  0  0  0  0  0  0  0  0  0
   11.7520  -14.2219   26.6566 C   0  0  0  0  0  0  0  0  0  0  0  0
   10.4695  -16.3677   26.5809 C   0  0  2  0  0  0  0  0  0  0  0  0
    9.9564  -15.9493   25.3030 N   0  0  0  0  0  0  0  0  0  0  0  0
    9.4486  -17.1841   27.3172 C   0  0  0  0  0  0  0  0  0  0  0  0
    8.2348  -17.1791   26.9890 O   0  0  0  0  0  0  0  0  0  0  0  0
    9.8263  -17.9712   28.3888 O   0  0  0  0  0  0  0  0  0  0  0  0
  2  3  1  0
  2  1  1  6
  3  4  1  0
  5  4  1  0
  6  5  1  0
  7  6  1  0
  8  2  1  0
  8  9  2  0
 10  8  1  0
 11 10  1  0
 11 22  1  0
 11 12  1  1
 13 12  1  0
 13 14  2  0
 15 14  1  0
 16 15  1  0
 17 16  2  0
 18 17  1  0
 19 18  2  0
 19 20  1  0
 20 21  2  0
 21 16  1  0
 21 13  1  0
 22 23  2  0
 22 29  1  0
 24 25  1  0
 25 26  1  0
 26 28  1  0
 26 27  1  6
 28 30  1  0
 28 29  1  6
 30 31  2  0
 30 32  1  0
M  END
$$$$
