KWI.pdb
     RDKit          3D

 32 33  0  0  1  0  0  0  0  0999 V2000
    9.0814  -17.0109   19.4876 N   0  0  0  0  0  0  0  0  0  0  0  0
    9.6425  -15.6972   19.7319 C   0  0  1  0  0  0  0  0  0  0  0  0
    8.8213  -14.7418   18.8543 C   0  0  0  0  0  0  0  0  0  0  0  0
    9.0610  -15.1693   17.4196 C   0  0  0  0  0  0  0  0  0  0  0  0
    8.4710  -14.1771   16.4411 C   0  0  0  0  0  0  0  0  0  0  0  0
    8.7457  -14.6879   15.0443 C   0  0  0  0  0  0  0  0  0  0  0  0
    8.2378  -13.7216   14.1029 N   0  0  0  0  0  0  0  0  0  0  0  0
    9.4145  -15.3277   21.1295 C   0  0  0  0  0  0  0  0  0  0  0  0
    9.8217  -14.2258   21.5589 O   0  0  0  0  0  0  0  0  0  0  0  0
    8.7269  -16.1938   22.0564 N   0  0  0  0  0  0  0  0  0  0  0  0
    8.4946  -15.7898   23.4072 C   0  0  1  0  0  0  0  0  0  0  0  0
    7.3031  -16.4757   24.0351 C   0  0  0  0  0  0  0  0  0  0  0  0
    6.6072  -15.5786   24.9813 C   0  0  0  0  0  0  0  0  0  0  0  0
    5.6443  -15.8959   25.9102 C   0  0  0  0  0  0  0  0  0  0  0  0
    5.2717  -14.7873   26.5706 N   0  0  0  0  0  0  0  0  0  0  0  0
    5.9554  -13.7256   26.1155 C   0  0  0  0  0  0  0  0  0  0  0  0
    5.9778  -12.3778   26.4217 C   0  0  0  0  0  0  0  0  0  0  0  0
    6.8216  -11.4882   25.7574 C   0  0  0  0  0  0  0  0  0  0  0  0
    7.6452  -11.9857   24.7750 C   0  0  0  0  0  0  0  0  0  0  0  0
    7.6182  -13.3296   24.4745 C   0  0  0  0  0  0  0  0  0  0  0  0
    6.7909  -14.2139   25.1229 C   0  0  0  0  0  0  0  0  0  0  0  0
    9.7072  -16.1088   24.2030 C   0  0  0  0  0  0  0  0  0  0  0  0
   10.6257  -16.7813   23.7141 O   0  0  0  0  0  0  0  0  0  0  0  0
    9.8775  -13.7070   29.3128 C   0  0  0  0  0  0  0  0  0  0  0  0
   10.2785  -14.1603   27.9376 C   0  0  0  0  0  0  0  0  0  0  0  0
   10.5973  -15.6344   27.8650 C   0  0  2  0  0  0  0  0  0  0  0  0
   11.7549  -15.9213   28.7726 C   0  0  0  0  0  0  0  0  0  0  0  0
   10.8563  -16.0841   26.4443 C   0  0  2  0  0  0  0  0  0  0  0  0
    9.8262  -15.6437   25.5407 N   0  0  0  0  0  0  0  0  0  0  0  0
   11.0026  -17.5763   26.3898 C   0  0  0  0  0  0  0  0  0  0  0  0
   10.0035  -18.3395   26.3743 O   0  0  0  0  0  0  0  0  0  0  0  0
   12.2584  -18.1529   26.3550 O   0  0  0  0  0  0  0  0  0  0  0  0
  2  3  1  0
  2  1  1  1
  3  4  1  0
  5  4  1  0
  6  5  1  0
  7  6  1  0
  8  2  1  0
  8  9  2  0
 10  8  1  0
 11 10  1  0
 11 22  1  0
 11 12  1  1
 13 12  1  0
 13 14  2  0
 15 14  1  0
 16 15  1  0
 17 16  2  0
 18 17  1  0
 19 18  2  0
 19 20  1  0
 20 21  2  0
 21 16  1  0
 21 13  1  0
 22 23  2  0
 22 29  1  0
 24 25  1  0
 25 26  1  0
 26 28  1  0
 26 27  1  1
 28 30  1  0
 28 29  1  6
 30 31  2  0
 30 32  1  0
M  END
$$$$
