KWI.pdb
     RDKit          3D

 32 33  0  0  1  0  0  0  0  0999 V2000
   55.4845  -56.4208    9.3311 N   0  0  0  0  0  0  0  0  0  0  0  0
   55.5708  -56.7022   10.7501 C   0  0  1  0  0  0  0  0  0  0  0  0
   57.0731  -56.7035   11.0673 C   0  0  0  0  0  0  0  0  0  0  0  0
   57.7435  -57.4780    9.9497 C   0  0  0  0  0  0  0  0  0  0  0  0
   57.5744  -56.7827    8.6163 C   0  0  0  0  0  0  0  0  0  0  0  0
   56.2765  -56.0073    8.6618 C   0  0  0  0  0  0  0  0  0  0  0  0
   55.7549  -56.0802   10.0037 N   0  0  0  0  0  0  0  0  0  0  0  0
   54.9570  -55.6041   11.4979 C   0  0  0  0  0  0  0  0  0  0  0  0
   55.6562  -54.6391   11.8776 O   0  0  0  0  0  0  0  0  0  0  0  0
   53.5518  -55.5814   11.8252 N   0  0  0  0  0  0  0  0  0  0  0  0
   52.5946  -55.0246   10.9222 C   0  0  1  0  0  0  0  0  0  0  0  0
   51.8528  -56.0719   10.1238 C   0  0  0  0  0  0  0  0  0  0  0  0
   52.3611  -56.1473    8.7381 C   0  0  0  0  0  0  0  0  0  0  0  0
   53.4871  -56.7851    8.2735 C   0  0  0  0  0  0  0  0  0  0  0  0
   53.5890  -56.6107    6.9457 N   0  0  0  0  0  0  0  0  0  0  0  0
   52.5627  -55.8717    6.4958 C   0  0  0  0  0  0  0  0  0  0  0  0
   52.1732  -55.3985    5.2568 C   0  0  0  0  0  0  0  0  0  0  0  0
   51.0206  -54.6305    5.0937 C   0  0  0  0  0  0  0  0  0  0  0  0
   50.2659  -54.3480    6.2080 C   0  0  0  0  0  0  0  0  0  0  0  0
   50.6595  -54.8223    7.4397 C   0  0  0  0  0  0  0  0  0  0  0  0
   51.7927  -55.5795    7.6109 C   0  0  0  0  0  0  0  0  0  0  0  0
   51.6133  -54.2378   11.7116 C   0  0  0  0  0  0  0  0  0  0  0  0
   50.5194  -53.9199   11.2247 O   0  0  0  0  0  0  0  0  0  0  0  0
   50.7900  -49.4362   13.5191 C   0  0  0  0  0  0  0  0  0  0  0  0
   51.1838  -50.4077   12.4426 C   0  0  0  0  0  0  0  0  0  0  0  0
   50.6282  -51.7949   12.6591 C   0  0  2  0  0  0  0  0  0  0  0  0
   49.2072  -51.6771   13.1205 C   0  0  0  0  0  0  0  0  0  0  0  0
   51.4787  -52.5975   13.6184 C   0  0  2  0  0  0  0  0  0  0  0  0
   51.9215  -53.8391   13.0406 N   0  0  0  0  0  0  0  0  0  0  0  0
   50.7292  -52.8473   14.8938 C   0  0  0  0  0  0  0  0  0  0  0  0
   50.0096  -51.9625   15.4231 O   0  0  0  0  0  0  0  0  0  0  0  0
   50.8150  -54.0745   15.5241 O   0  0  0  0  0  0  0  0  0  0  0  0
  2  3  1  0
  2  1  1  6
  3  4  1  0
  5  4  1  0
  6  5  1  0
  7  6  1  0
  8  2  1  0
  8  9  2  0
 10  8  1  0
 11 10  1  0
 11 22  1  0
 11 12  1  1
 13 12  1  0
 13 14  2  0
 15 14  1  0
 16 15  1  0
 17 16  2  0
 18 17  1  0
 19 18  2  0
 19 20  1  0
 20 21  2  0
 21 16  1  0
 21 13  1  0
 22 23  2  0
 22 29  1  0
 24 25  1  0
 25 26  1  0
 26 28  1  0
 26 27  1  1
 28 30  1  0
 28 29  1  6
 30 31  2  0
 30 32  1  0
M  END
$$$$
