KWI.pdb
     RDKit          3D

 32 33  0  0  1  0  0  0  0  0999 V2000
    8.4979  -16.7690   19.8026 N   0  0  0  0  0  0  0  0  0  0  0  0
    9.3285  -15.6133   20.0762 C   0  0  1  0  0  0  0  0  0  0  0  0
    8.6135  -14.4367   19.3967 C   0  0  0  0  0  0  0  0  0  0  0  0
    8.5951  -14.7489   17.9132 C   0  0  0  0  0  0  0  0  0  0  0  0
    7.9661  -13.6246   17.1193 C   0  0  0  0  0  0  0  0  0  0  0  0
    8.0067  -14.0129   15.6581 C   0  0  0  0  0  0  0  0  0  0  0  0
    7.3012  -13.0067   14.9046 N   0  0  0  0  0  0  0  0  0  0  0  0
    9.3397  -15.3576   21.5171 C   0  0  0  0  0  0  0  0  0  0  0  0
    9.9924  -14.3944   21.9758 O   0  0  0  0  0  0  0  0  0  0  0  0
    8.6175  -16.1829   22.4549 N   0  0  0  0  0  0  0  0  0  0  0  0
    8.4686  -15.7881   23.8201 C   0  0  1  0  0  0  0  0  0  0  0  0
    7.2723  -16.4204   24.4936 C   0  0  0  0  0  0  0  0  0  0  0  0
    6.4098  -15.3977   25.1216 C   0  0  0  0  0  0  0  0  0  0  0  0
    5.1741  -15.5602   25.7023 C   0  0  0  0  0  0  0  0  0  0  0  0
    4.7291  -14.3767   26.1552 N   0  0  0  0  0  0  0  0  0  0  0  0
    5.6291  -13.4146   25.8978 C   0  0  0  0  0  0  0  0  0  0  0  0
    5.6939  -12.0539   26.1328 C   0  0  0  0  0  0  0  0  0  0  0  0
    6.7933  -11.2924   25.7373 C   0  0  0  0  0  0  0  0  0  0  0  0
    7.8295  -11.9317   25.0982 C   0  0  0  0  0  0  0  0  0  0  0  0
    7.7589  -13.2877   24.8670 C   0  0  0  0  0  0  0  0  0  0  0  0
    6.6807  -14.0465   25.2525 C   0  0  0  0  0  0  0  0  0  0  0  0
    9.6976  -16.1819   24.5548 C   0  0  0  0  0  0  0  0  0  0  0  0
   10.5295  -16.9390   24.0356 O   0  0  0  0  0  0  0  0  0  0  0  0
   10.8977  -13.0918   29.0637 C   0  0  0  0  0  0  0  0  0  0  0  0
   10.9691  -13.8707   27.7807 C   0  0  0  0  0  0  0  0  0  0  0  0
   11.1018  -15.3596   27.9939 C   0  0  2  0  0  0  0  0  0  0  0  0
   12.3720  -15.6267   28.7429 C   0  0  0  0  0  0  0  0  0  0  0  0
   11.0331  -16.1224   26.6895 C   0  0  2  0  0  0  0  0  0  0  0  0
    9.9325  -15.6920   25.8680 N   0  0  0  0  0  0  0  0  0  0  0  0
   10.9489  -17.5969   26.9533 C   0  0  0  0  0  0  0  0  0  0  0  0
    9.8832  -18.1406   27.3399 O   0  0  0  0  0  0  0  0  0  0  0  0
   12.0584  -18.4016   26.7743 O   0  0  0  0  0  0  0  0  0  0  0  0
  2  3  1  0
  2  1  1  1
  3  4  1  0
  5  4  1  0
  6  5  1  0
  7  6  1  0
  8  2  1  0
  8  9  2  0
 10  8  1  0
 11 10  1  0
 11 22  1  0
 11 12  1  1
 13 12  1  0
 13 14  2  0
 15 14  1  0
 16 15  1  0
 17 16  2  0
 18 17  1  0
 19 18  2  0
 19 20  1  0
 20 21  2  0
 21 16  1  0
 21 13  1  0
 22 23  2  0
 22 29  1  0
 24 25  1  0
 25 26  1  0
 26 28  1  0
 26 27  1  6
 28 30  1  0
 28 29  1  1
 30 31  2  0
 30 32  1  0
M  END
$$$$
