KWI.pdb
     RDKit          3D

 32 33  0  0  1  0  0  0  0  0999 V2000
    9.4992  -16.4681   19.0564 N   0  0  0  0  0  0  0  0  0  0  0  0
    9.9359  -17.2356   20.2056 C   0  0  1  0  0  0  0  0  0  0  0  0
   11.4681  -17.2622   20.1103 C   0  0  0  0  0  0  0  0  0  0  0  0
   11.8225  -18.4852   19.2874 C   0  0  0  0  0  0  0  0  0  0  0  0
   13.3199  -18.6938   19.2236 C   0  0  0  0  0  0  0  0  0  0  0  0
   13.5767  -19.9511   18.4231 C   0  0  0  0  0  0  0  0  0  0  0  0
   14.9995  -20.1799   18.3872 N   0  0  0  0  0  0  0  0  0  0  0  0
    9.5766  -16.5183   21.4296 C   0  0  0  0  0  0  0  0  0  0  0  0
    9.9998  -15.3570   21.6204 O   0  0  0  0  0  0  0  0  0  0  0  0
    8.7384  -17.1005   22.4497 N   0  0  0  0  0  0  0  0  0  0  0  0
    8.4622  -16.3995   23.6638 C   0  0  1  0  0  0  0  0  0  0  0  0
    7.2407  -16.9209   24.3853 C   0  0  0  0  0  0  0  0  0  0  0  0
    6.5070  -15.8262   25.0543 C   0  0  0  0  0  0  0  0  0  0  0  0
    5.3368  -15.8948   25.7730 C   0  0  0  0  0  0  0  0  0  0  0  0
    5.0063  -14.6703   26.2150 N   0  0  0  0  0  0  0  0  0  0  0  0
    5.9203  -13.7718   25.8160 C   0  0  0  0  0  0  0  0  0  0  0  0
    6.0807  -12.4084   25.9779 C   0  0  0  0  0  0  0  0  0  0  0  0
    7.1669  -11.7270   25.4296 C   0  0  0  0  0  0  0  0  0  0  0  0
    8.0915  -12.4495   24.7125 C   0  0  0  0  0  0  0  0  0  0  0  0
    7.9260  -13.8077   24.5548 C   0  0  0  0  0  0  0  0  0  0  0  0
    6.8598  -14.4882   25.0908 C   0  0  0  0  0  0  0  0  0  0  0  0
    9.6413  -16.5334   24.5566 C   0  0  0  0  0  0  0  0  0  0  0  0
   10.6856  -17.0616   24.1501 O   0  0  0  0  0  0  0  0  0  0  0  0
    9.4826  -13.2854   29.1187 C   0  0  0  0  0  0  0  0  0  0  0  0
    9.8651  -14.0056   27.8567 C   0  0  0  0  0  0  0  0  0  0  0  0
   10.4061  -15.3936   28.1031 C   0  0  2  0  0  0  0  0  0  0  0  0
   11.6197  -15.2887   28.9762 C   0  0  0  0  0  0  0  0  0  0  0  0
   10.6910  -16.1235   26.8092 C   0  0  2  0  0  0  0  0  0  0  0  0
    9.5828  -16.0547   25.8935 N   0  0  0  0  0  0  0  0  0  0  0  0
   11.0569  -17.5517   27.0877 C   0  0  0  0  0  0  0  0  0  0  0  0
   10.1878  -18.4141   27.3737 O   0  0  0  0  0  0  0  0  0  0  0  0
   12.3776  -17.9561   27.0350 O   0  0  0  0  0  0  0  0  0  0  0  0
  2  3  1  0
  2  1  1  6
  3  4  1  0
  5  4  1  0
  6  5  1  0
  7  6  1  0
  8  2  1  0
  8  9  2  0
 10  8  1  0
 11 10  1  0
 11 22  1  0
 11 12  1  1
 13 12  1  0
 13 14  2  0
 15 14  1  0
 16 15  1  0
 17 16  2  0
 18 17  1  0
 19 18  2  0
 19 20  1  0
 20 21  2  0
 21 16  1  0
 21 13  1  0
 22 23  2  0
 22 29  1  0
 24 25  1  0
 25 26  1  0
 26 28  1  0
 26 27  1  1
 28 30  1  0
 28 29  1  6
 30 31  2  0
 30 32  1  0
M  END
$$$$
