KWI.pdb
     RDKit          3D

 32 33  0  0  1  0  0  0  0  0999 V2000
    9.2237  -17.6790   19.6897 N   0  0  0  0  0  0  0  0  0  0  0  0
    9.7750  -16.3430   19.7977 C   0  0  1  0  0  0  0  0  0  0  0  0
    8.9728  -15.4971   18.7985 C   0  0  0  0  0  0  0  0  0  0  0  0
    9.3314  -16.0136   17.4190 C   0  0  0  0  0  0  0  0  0  0  0  0
    8.3630  -17.0818   16.9596 C   0  0  0  0  0  0  0  0  0  0  0  0
    8.7726  -17.5078   15.5673 C   0  0  0  0  0  0  0  0  0  0  0  0
    7.8498  -18.5189   15.1155 N   0  0  0  0  0  0  0  0  0  0  0  0
    9.5119  -15.8196   21.1388 C   0  0  0  0  0  0  0  0  0  0  0  0
    9.9025  -14.6729   21.4498 O   0  0  0  0  0  0  0  0  0  0  0  0
    8.8077  -16.5810   22.1420 N   0  0  0  0  0  0  0  0  0  0  0  0
    8.5397  -16.0281   23.4321 C   0  0  1  0  0  0  0  0  0  0  0  0
    7.2863  -16.5846   24.0675 C   0  0  0  0  0  0  0  0  0  0  0  0
    6.6382  -15.5821   24.9388 C   0  0  0  0  0  0  0  0  0  0  0  0
    5.5504  -15.7418   25.7646 C   0  0  0  0  0  0  0  0  0  0  0  0
    5.2804  -14.5815   26.3847 N   0  0  0  0  0  0  0  0  0  0  0  0
    6.1552  -13.6379   26.0026 C   0  0  0  0  0  0  0  0  0  0  0  0
    6.3448  -12.3037   26.3108 C   0  0  0  0  0  0  0  0  0  0  0  0
    7.3730  -11.5567   25.7366 C   0  0  0  0  0  0  0  0  0  0  0  0
    8.2093  -12.1833   24.8426 C   0  0  0  0  0  0  0  0  0  0  0  0
    8.0151  -13.5128   24.5397 C   0  0  0  0  0  0  0  0  0  0  0  0
    7.0056  -14.2572   25.0997 C   0  0  0  0  0  0  0  0  0  0  0  0
    9.6974  -16.3234   24.3141 C   0  0  0  0  0  0  0  0  0  0  0  0
   10.6297  -17.0360   23.9167 O   0  0  0  0  0  0  0  0  0  0  0  0
   10.5627  -12.7845   28.5413 C   0  0  0  0  0  0  0  0  0  0  0  0
   10.6257  -13.7219   27.3687 C   0  0  0  0  0  0  0  0  0  0  0  0
   10.7639  -15.1708   27.7705 C   0  0  2  0  0  0  0  0  0  0  0  0
   11.9817  -15.3170   28.6316 C   0  0  0  0  0  0  0  0  0  0  0  0
   10.7980  -16.0869   26.5673 C   0  0  2  0  0  0  0  0  0  0  0  0
    9.7472  -15.7889   25.6301 N   0  0  0  0  0  0  0  0  0  0  0  0
   10.7247  -17.5206   27.0032 C   0  0  0  0  0  0  0  0  0  0  0  0
    9.6409  -18.0502   27.3579 O   0  0  0  0  0  0  0  0  0  0  0  0
   11.8647  -18.3020   27.0245 O   0  0  0  0  0  0  0  0  0  0  0  0
  2  3  1  0
  2  1  1  1
  3  4  1  0
  5  4  1  0
  6  5  1  0
  7  6  1  0
  8  2  1  0
  8  9  2  0
 10  8  1  0
 11 10  1  0
 11 22  1  0
 11 12  1  1
 13 12  1  0
 13 14  2  0
 15 14  1  0
 16 15  1  0
 17 16  2  0
 18 17  1  0
 19 18  2  0
 19 20  1  0
 20 21  2  0
 21 16  1  0
 21 13  1  0
 22 23  2  0
 22 29  1  0
 24 25  1  0
 25 26  1  0
 26 28  1  0
 26 27  1  6
 28 30  1  0
 28 29  1  6
 30 31  2  0
 30 32  1  0
M  END
$$$$
