KWI.pdb
     RDKit          3D

 32 33  0  0  1  0  0  0  0  0999 V2000
    8.5810  -16.6469   19.6885 N   0  0  0  0  0  0  0  0  0  0  0  0
    9.1670  -15.3445   19.9350 C   0  0  1  0  0  0  0  0  0  0  0  0
    8.2446  -14.3485   19.2176 C   0  0  0  0  0  0  0  0  0  0  0  0
    7.9724  -14.9326   17.8453 C   0  0  0  0  0  0  0  0  0  0  0  0
    8.2733  -13.9332   16.7495 C   0  0  0  0  0  0  0  0  0  0  0  0
    7.9842  -14.6015   15.4238 C   0  0  0  0  0  0  0  0  0  0  0  0
    8.4004  -13.7106   14.3697 N   0  0  0  0  0  0  0  0  0  0  0  0
    9.1106  -15.0536   21.3681 C   0  0  0  0  0  0  0  0  0  0  0  0
    9.6399  -14.0126   21.8157 O   0  0  0  0  0  0  0  0  0  0  0  0
    8.4588  -15.9306   22.3105 N   0  0  0  0  0  0  0  0  0  0  0  0
    8.3508  -15.5779   23.6910 C   0  0  1  0  0  0  0  0  0  0  0  0
    7.1801  -16.2383   24.3823 C   0  0  0  0  0  0  0  0  0  0  0  0
    6.4016  -15.2585   25.1687 C   0  0  0  0  0  0  0  0  0  0  0  0
    5.2811  -15.4742   25.9359 C   0  0  0  0  0  0  0  0  0  0  0  0
    4.8817  -14.3162   26.4867 N   0  0  0  0  0  0  0  0  0  0  0  0
    5.7004  -13.3198   26.1144 C   0  0  0  0  0  0  0  0  0  0  0  0
    5.7636  -11.9634   26.3732 C   0  0  0  0  0  0  0  0  0  0  0  0
    6.7625  -11.1578   25.8272 C   0  0  0  0  0  0  0  0  0  0  0  0
    7.6996  -11.7485   25.0124 C   0  0  0  0  0  0  0  0  0  0  0  0
    7.6312  -13.1005   24.7584 C   0  0  0  0  0  0  0  0  0  0  0  0
    6.6515  -13.9026   25.2913 C   0  0  0  0  0  0  0  0  0  0  0  0
    9.6047  -15.9853   24.3745 C   0  0  0  0  0  0  0  0  0  0  0  0
   10.4971  -16.5818   23.7559 O   0  0  0  0  0  0  0  0  0  0  0  0
   10.1841  -13.7398   29.4440 C   0  0  0  0  0  0  0  0  0  0  0  0
   10.4207  -14.1849   28.0286 C   0  0  0  0  0  0  0  0  0  0  0  0
   10.9187  -15.6066   27.9261 C   0  0  2  0  0  0  0  0  0  0  0  0
   12.2541  -15.6981   28.6002 C   0  0  0  0  0  0  0  0  0  0  0  0
   10.9659  -16.0836   26.4914 C   0  0  2  0  0  0  0  0  0  0  0  0
    9.7940  -15.6937   25.7526 N   0  0  0  0  0  0  0  0  0  0  0  0
   11.1480  -17.5720   26.4441 C   0  0  0  0  0  0  0  0  0  0  0  0
   10.1856  -18.3627   26.6163 O   0  0  0  0  0  0  0  0  0  0  0  0
   12.3970  -18.1144   26.2065 O   0  0  0  0  0  0  0  0  0  0  0  0
  2  3  1  0
  2  1  1  1
  3  4  1  0
  5  4  1  0
  6  5  1  0
  7  6  1  0
  8  2  1  0
  8  9  2  0
 10  8  1  0
 11 10  1  0
 11 22  1  0
 11 12  1  1
 13 12  1  0
 13 14  2  0
 15 14  1  0
 16 15  1  0
 17 16  2  0
 18 17  1  0
 19 18  2  0
 19 20  1  0
 20 21  2  0
 21 16  1  0
 21 13  1  0
 22 23  2  0
 22 29  1  0
 24 25  1  0
 25 26  1  0
 26 28  1  0
 26 27  1  6
 28 30  1  0
 28 29  1  1
 30 31  2  0
 30 32  1  0
M  END
$$$$
