HMW.pdb
     RDKit          3D

 33 35  0  0  1  0  0  0  0  0999 V2000
    9.1947  -16.0252   20.0580 N   0  0  0  0  0  0  0  0  0  0  0  0
    8.2323  -16.2453   21.0892 C   0  0  1  0  0  0  0  0  0  0  0  0
    7.8809  -17.6901   21.3023 C   0  0  0  0  0  0  0  0  0  0  0  0
    7.0512  -18.2011   20.1776 C   0  0  0  0  0  0  0  0  0  0  0  0
    6.7429  -17.4911   19.0438 C   0  0  0  0  0  0  0  0  0  0  0  0
    5.9772  -18.2797   18.2599 N   0  0  0  0  0  0  0  0  0  0  0  0
    5.8082  -19.4483   18.8778 C   0  0  0  0  0  0  0  0  0  0  0  0
    6.4595  -19.4227   20.0585 N   0  0  0  0  0  0  0  0  0  0  0  0
    8.6597  -15.6585   22.3976 C   0  0  0  0  0  0  0  0  0  0  0  0
    9.8704  -15.7920   22.7636 O   0  0  0  0  0  0  0  0  0  0  0  0
    6.3662  -10.7086   26.0534 C   0  0  0  0  0  0  0  0  0  0  0  0
    6.8439  -11.9174   27.3160 S   0  0  0  0  0  0  0  0  0  0  0  0
    7.8746  -13.1969   26.5960 C   0  0  0  0  0  0  0  0  0  0  0  0
    7.3111  -13.5614   25.2369 C   0  0  0  0  0  0  0  0  0  0  0  0
    8.2106  -14.5855   24.5781 C   0  0  2  0  0  0  0  0  0  0  0  0
    7.7948  -14.9556   23.2661 N   0  0  0  0  0  0  0  0  0  0  0  0
    8.2753  -15.7525   25.4932 C   0  0  0  0  0  0  0  0  0  0  0  0
    7.1693  -16.2610   25.8180 O   0  0  0  0  0  0  0  0  0  0  0  0
    9.5013  -16.2708   25.9783 N   0  0  0  0  0  0  0  0  0  0  0  0
    9.4627  -17.1495   27.1081 C   0  0  1  0  0  0  0  0  0  0  0  0
    9.7939  -18.5804   26.7362 C   0  0  0  0  0  0  0  0  0  0  0  0
   10.6660  -18.5573   25.5394 C   0  0  0  0  0  0  0  0  0  0  0  0
   11.8991  -17.9234   25.3852 C   0  0  0  0  0  0  0  0  0  0  0  0
   12.3682  -18.1386   24.1422 N   0  0  0  0  0  0  0  0  0  0  0  0
   11.4942  -18.8974   23.4480 C   0  0  0  0  0  0  0  0  0  0  0  0
   11.4510  -19.4126   22.1717 C   0  0  0  0  0  0  0  0  0  0  0  0
   10.3989  -20.1808   21.7106 C   0  0  0  0  0  0  0  0  0  0  0  0
    9.3603  -20.4263   22.5887 C   0  0  0  0  0  0  0  0  0  0  0  0
    9.3650  -19.9291   23.8741 C   0  0  0  0  0  0  0  0  0  0  0  0
   10.4406  -19.1630   24.2959 C   0  0  0  0  0  0  0  0  0  0  0  0
   10.4382  -16.6625   28.1042 C   0  0  0  0  0  0  0  0  0  0  0  0
   10.5370  -17.2768   29.3314 O   0  0  0  0  0  0  0  0  0  0  0  0
   11.1774  -15.6954   27.8437 O   0  0  0  0  0  0  0  0  0  0  0  0
  2  1  1  6
  2  3  1  0
  3  4  1  0
  4  8  1  0
  5  4  2  0
  5  6  1  0
  6  7  1  0
  8  7  2  0
  9  2  1  0
  9 10  2  0
 11 12  1  0
 12 13  1  0
 13 14  1  0
 15 16  1  0
 15 14  1  1
 16  9  1  0
 17 15  1  0
 18 17  2  0
 19 17  1  0
 20 19  1  0
 20 21  1  6
 21 22  1  0
 22 30  1  0
 23 24  1  0
 23 22  2  0
 24 25  1  0
 25 30  2  0
 25 26  1  0
 26 27  2  0
 27 28  1  0
 29 28  2  0
 30 29  1  0
 31 32  1  0
 31 20  1  0
 33 31  2  0
M  END
$$$$
