HMW.pdb
     RDKit          3D

 33 35  0  0  1  0  0  0  0  0999 V2000
    9.2497  -18.2105   19.2225 N   0  0  0  0  0  0  0  0  0  0  0  0
   10.1592  -17.1565   19.5389 C   0  0  1  0  0  0  0  0  0  0  0  0
   10.2144  -16.0640   18.5095 C   0  0  0  0  0  0  0  0  0  0  0  0
    9.9359  -16.6059   17.1518 C   0  0  0  0  0  0  0  0  0  0  0  0
    8.7140  -16.5681   16.5270 C   0  0  0  0  0  0  0  0  0  0  0  0
    8.8518  -17.1529   15.3180 N   0  0  0  0  0  0  0  0  0  0  0  0
   10.1181  -17.5462   15.1840 C   0  0  0  0  0  0  0  0  0  0  0  0
   10.8030  -17.2203   16.2991 N   0  0  0  0  0  0  0  0  0  0  0  0
    9.8732  -16.5430   20.8734 C   0  0  0  0  0  0  0  0  0  0  0  0
   10.6366  -15.6197   21.3004 O   0  0  0  0  0  0  0  0  0  0  0  0
    7.3178  -13.1834   26.2629 C   0  0  0  0  0  0  0  0  0  0  0  0
    6.9209  -14.0741   24.7356 S   0  0  0  0  0  0  0  0  0  0  0  0
    7.2198  -15.8307   24.9425 C   0  0  0  0  0  0  0  0  0  0  0  0
    7.2581  -16.4776   23.5723 C   0  0  0  0  0  0  0  0  0  0  0  0
    8.6697  -16.4193   23.0283 C   0  0  2  0  0  0  0  0  0  0  0  0
    8.7958  -16.9273   21.7027 N   0  0  0  0  0  0  0  0  0  0  0  0
    9.5314  -17.1506   23.9907 C   0  0  0  0  0  0  0  0  0  0  0  0
    9.5716  -18.4025   23.8547 O   0  0  0  0  0  0  0  0  0  0  0  0
   10.2681  -16.4905   25.0049 N   0  0  0  0  0  0  0  0  0  0  0  0
   11.2654  -17.2378   25.7099 C   0  0  1  0  0  0  0  0  0  0  0  0
   12.1522  -16.3534   26.5624 C   0  0  0  0  0  0  0  0  0  0  0  0
   11.3368  -15.8172   27.6765 C   0  0  0  0  0  0  0  0  0  0  0  0
   11.2905  -16.2588   28.9990 C   0  0  0  0  0  0  0  0  0  0  0  0
   10.4182  -15.5090   29.6979 N   0  0  0  0  0  0  0  0  0  0  0  0
    9.8713  -14.5736   28.8934 C   0  0  0  0  0  0  0  0  0  0  0  0
    8.9476  -13.5657   29.0591 C   0  0  0  0  0  0  0  0  0  0  0  0
    8.5591  -12.7307   28.0287 C   0  0  0  0  0  0  0  0  0  0  0  0
    9.1380  -12.9387   26.7912 C   0  0  0  0  0  0  0  0  0  0  0  0
   10.0661  -13.9362   26.5836 C   0  0  0  0  0  0  0  0  0  0  0  0
   10.4276  -14.7513   27.6450 C   0  0  0  0  0  0  0  0  0  0  0  0
   10.5802  -18.2225   26.5712 C   0  0  0  0  0  0  0  0  0  0  0  0
   11.2970  -19.2327   27.1703 O   0  0  0  0  0  0  0  0  0  0  0  0
    9.3525  -18.1479   26.7626 O   0  0  0  0  0  0  0  0  0  0  0  0
  2  1  1  6
  2  3  1  0
  3  4  1  0
  4  8  1  0
  5  4  2  0
  5  6  1  0
  6  7  1  0
  8  7  2  0
  9  2  1  0
  9 10  2  0
 11 12  1  0
 12 13  1  0
 13 14  1  0
 15 16  1  0
 15 14  1  1
 16  9  1  0
 17 15  1  0
 18 17  2  0
 19 17  1  0
 20 19  1  0
 20 21  1  1
 21 22  1  0
 22 30  1  0
 23 24  1  0
 23 22  2  0
 24 25  1  0
 25 30  2  0
 25 26  1  0
 26 27  2  0
 27 28  1  0
 29 28  2  0
 30 29  1  0
 31 32  1  0
 31 20  1  0
 33 31  2  0
M  END
$$$$
