HMW.pdb
     RDKit          3D

 33 35  0  0  1  0  0  0  0  0999 V2000
   11.0322  -17.2448   20.6595 N   0  0  0  0  0  0  0  0  0  0  0  0
   10.5482  -16.2578   21.5704 C   0  0  1  0  0  0  0  0  0  0  0  0
    9.1579  -15.7749   21.2702 C   0  0  0  0  0  0  0  0  0  0  0  0
    9.0989  -15.1458   19.9229 C   0  0  0  0  0  0  0  0  0  0  0  0
    9.6521  -13.9319   19.5985 C   0  0  0  0  0  0  0  0  0  0  0  0
    9.3940  -13.6975   18.2942 N   0  0  0  0  0  0  0  0  0  0  0  0
    8.7016  -14.7288   17.8115 C   0  0  0  0  0  0  0  0  0  0  0  0
    8.5085  -15.6312   18.7949 N   0  0  0  0  0  0  0  0  0  0  0  0
   10.5964  -16.7258   22.9908 C   0  0  0  0  0  0  0  0  0  0  0  0
   10.5091  -17.9720   23.2295 O   0  0  0  0  0  0  0  0  0  0  0  0
   10.3093  -13.8108   29.2972 C   0  0  0  0  0  0  0  0  0  0  0  0
   10.4669  -13.0154   27.6766 S   0  0  0  0  0  0  0  0  0  0  0  0
   10.1322  -14.1954   26.3676 C   0  0  0  0  0  0  0  0  0  0  0  0
   11.1368  -15.3258   26.4697 C   0  0  0  0  0  0  0  0  0  0  0  0
   10.8186  -16.3766   25.4272 C   0  0  2  0  0  0  0  0  0  0  0  0
   10.7342  -15.8623   24.1007 N   0  0  0  0  0  0  0  0  0  0  0  0
    9.5580  -17.0352   25.8520 C   0  0  0  0  0  0  0  0  0  0  0  0
    9.5938  -17.6324   26.9608 O   0  0  0  0  0  0  0  0  0  0  0  0
    8.3802  -17.0008   25.0656 N   0  0  0  0  0  0  0  0  0  0  0  0
    7.2414  -17.7384   25.5229 C   0  0  1  0  0  0  0  0  0  0  0  0
    5.9468  -16.9745   25.3338 C   0  0  0  0  0  0  0  0  0  0  0  0
    6.2793  -15.5487   25.1101 C   0  0  0  0  0  0  0  0  0  0  0  0
    6.6393  -14.9263   23.9146 C   0  0  0  0  0  0  0  0  0  0  0  0
    6.8670  -13.6181   24.1342 N   0  0  0  0  0  0  0  0  0  0  0  0
    6.6734  -13.3324   25.4390 C   0  0  0  0  0  0  0  0  0  0  0  0
    6.7598  -12.1949   26.2103 C   0  0  0  0  0  0  0  0  0  0  0  0
    6.4989  -12.1902   27.5674 C   0  0  0  0  0  0  0  0  0  0  0  0
    6.1385  -13.3912   28.1482 C   0  0  0  0  0  0  0  0  0  0  0  0
    6.0408  -14.5521   27.4117 C   0  0  0  0  0  0  0  0  0  0  0  0
    6.3111  -14.5121   26.0526 C   0  0  0  0  0  0  0  0  0  0  0  0
    7.1791  -19.0055   24.7667 C   0  0  0  0  0  0  0  0  0  0  0  0
    6.2941  -19.9902   25.1414 O   0  0  0  0  0  0  0  0  0  0  0  0
    7.9237  -19.1935   23.7872 O   0  0  0  0  0  0  0  0  0  0  0  0
  2  1  1  6
  2  3  1  0
  3  4  1  0
  4  8  1  0
  5  4  2  0
  5  6  1  0
  6  7  1  0
  8  7  2  0
  9  2  1  0
  9 10  2  0
 11 12  1  0
 12 13  1  0
 13 14  1  0
 15 16  1  0
 15 14  1  1
 16  9  1  0
 17 15  1  0
 18 17  2  0
 19 17  1  0
 20 19  1  0
 20 21  1  6
 21 22  1  0
 22 30  1  0
 23 24  1  0
 23 22  2  0
 24 25  1  0
 25 30  2  0
 25 26  1  0
 26 27  2  0
 27 28  1  0
 29 28  2  0
 30 29  1  0
 31 32  1  0
 31 20  1  0
 33 31  2  0
M  END
$$$$
