HMW.pdb
     RDKit          3D

 33 35  0  0  1  0  0  0  0  0999 V2000
   10.6571  -15.4726   19.3761 N   0  0  0  0  0  0  0  0  0  0  0  0
    9.7236  -16.3255   20.0389 C   0  0  1  0  0  0  0  0  0  0  0  0
    9.9172  -17.7872   19.7523 C   0  0  0  0  0  0  0  0  0  0  0  0
    9.1764  -18.1852   18.5246 C   0  0  0  0  0  0  0  0  0  0  0  0
    9.3772  -17.6473   17.2776 C   0  0  0  0  0  0  0  0  0  0  0  0
    8.5254  -18.2559   16.4249 N   0  0  0  0  0  0  0  0  0  0  0  0
    7.8113  -19.1481   17.1106 C   0  0  0  0  0  0  0  0  0  0  0  0
    8.1944  -19.1220   18.4034 N   0  0  0  0  0  0  0  0  0  0  0  0
    9.7258  -16.1237   21.5215 C   0  0  0  0  0  0  0  0  0  0  0  0
   10.8176  -15.8170   22.0974 O   0  0  0  0  0  0  0  0  0  0  0  0
    6.0608  -12.3259   25.7803 C   0  0  0  0  0  0  0  0  0  0  0  0
    6.7766  -13.9862   25.9022 S   0  0  0  0  0  0  0  0  0  0  0  0
    6.6582  -14.8336   24.3255 C   0  0  0  0  0  0  0  0  0  0  0  0
    7.3266  -16.1878   24.4551 C   0  0  0  0  0  0  0  0  0  0  0  0
    8.6686  -16.1550   23.7551 C   0  0  2  0  0  0  0  0  0  0  0  0
    8.5787  -16.2535   22.3361 N   0  0  0  0  0  0  0  0  0  0  0  0
    9.4850  -17.2480   24.3400 C   0  0  0  0  0  0  0  0  0  0  0  0
    9.3732  -18.3757   23.7893 O   0  0  0  0  0  0  0  0  0  0  0  0
   10.3412  -17.0463   25.4505 N   0  0  0  0  0  0  0  0  0  0  0  0
   11.1273  -18.1528   25.9066 C   0  0  1  0  0  0  0  0  0  0  0  0
   12.3080  -17.7124   26.7476 C   0  0  0  0  0  0  0  0  0  0  0  0
   11.7902  -16.9627   27.9153 C   0  0  0  0  0  0  0  0  0  0  0  0
   11.5389  -17.4401   29.2018 C   0  0  0  0  0  0  0  0  0  0  0  0
   11.0681  -16.4422   29.9726 N   0  0  0  0  0  0  0  0  0  0  0  0
   10.9917  -15.3039   29.2517 C   0  0  0  0  0  0  0  0  0  0  0  0
   10.5939  -14.0113   29.5113 C   0  0  0  0  0  0  0  0  0  0  0  0
   10.6198  -13.0146   28.5544 C   0  0  0  0  0  0  0  0  0  0  0  0
   11.0684  -13.3576   27.2931 C   0  0  0  0  0  0  0  0  0  0  0  0
   11.4753  -14.6396   26.9924 C   0  0  0  0  0  0  0  0  0  0  0  0
   11.4332  -15.6092   27.9824 C   0  0  0  0  0  0  0  0  0  0  0  0
   10.2569  -19.0376   26.7069 C   0  0  0  0  0  0  0  0  0  0  0  0
    9.0008  -18.6172   27.0794 O   0  0  0  0  0  0  0  0  0  0  0  0
   10.6500  -20.1675   27.0505 O   0  0  0  0  0  0  0  0  0  0  0  0
  2  1  1  6
  2  3  1  0
  3  4  1  0
  4  8  1  0
  5  4  2  0
  5  6  1  0
  6  7  1  0
  8  7  2  0
  9  2  1  0
  9 10  2  0
 11 12  1  0
 12 13  1  0
 13 14  1  0
 15 16  1  0
 15 14  1  1
 16  9  1  0
 17 15  1  0
 18 17  2  0
 19 17  1  0
 20 19  1  0
 20 21  1  1
 21 22  1  0
 22 30  1  0
 23 24  1  0
 23 22  2  0
 24 25  1  0
 25 30  2  0
 25 26  1  0
 26 27  2  0
 27 28  1  0
 29 28  2  0
 30 29  1  0
 31 32  1  0
 31 20  1  0
 33 31  2  0
M  END
$$$$
