HMW.pdb
     RDKit          3D

 33 35  0  0  1  0  0  0  0  0999 V2000
    8.8867  -17.9928   19.5861 N   0  0  0  0  0  0  0  0  0  0  0  0
   10.1237  -17.3367   19.8642 C   0  0  1  0  0  0  0  0  0  0  0  0
   10.5493  -16.3566   18.8085 C   0  0  0  0  0  0  0  0  0  0  0  0
   10.3637  -16.9336   17.4495 C   0  0  0  0  0  0  0  0  0  0  0  0
   11.1151  -17.9534   16.9202 C   0  0  0  0  0  0  0  0  0  0  0  0
   10.6548  -18.2005   15.6753 N   0  0  0  0  0  0  0  0  0  0  0  0
    9.6465  -17.3651   15.4272 C   0  0  0  0  0  0  0  0  0  0  0  0
    9.4498  -16.5770   16.5038 N   0  0  0  0  0  0  0  0  0  0  0  0
   10.1097  -16.6389   21.1878 C   0  0  0  0  0  0  0  0  0  0  0  0
   11.1766  -16.0821   21.5991 O   0  0  0  0  0  0  0  0  0  0  0  0
    6.6284  -12.9476   27.0157 C   0  0  0  0  0  0  0  0  0  0  0  0
    6.4131  -14.2587   25.7836 S   0  0  0  0  0  0  0  0  0  0  0  0
    7.9998  -14.7331   25.0941 C   0  0  0  0  0  0  0  0  0  0  0  0
    7.7663  -15.7811   24.0242 C   0  0  0  0  0  0  0  0  0  0  0  0
    9.0879  -16.1490   23.3840 C   0  0  2  0  0  0  0  0  0  0  0  0
    8.9731  -16.5565   22.0231 N   0  0  0  0  0  0  0  0  0  0  0  0
    9.6976  -17.2031   24.2329 C   0  0  0  0  0  0  0  0  0  0  0  0
    9.4349  -18.3922   23.9100 O   0  0  0  0  0  0  0  0  0  0  0  0
   10.5262  -16.9012   25.3417 N   0  0  0  0  0  0  0  0  0  0  0  0
   11.4161  -17.9176   25.8159 C   0  0  1  0  0  0  0  0  0  0  0  0
   12.4799  -17.3649   26.7423 C   0  0  0  0  0  0  0  0  0  0  0  0
   11.8038  -16.7373   27.9010 C   0  0  0  0  0  0  0  0  0  0  0  0
   11.5713  -17.2858   29.1624 C   0  0  0  0  0  0  0  0  0  0  0  0
   10.9214  -16.3938   29.9328 N   0  0  0  0  0  0  0  0  0  0  0  0
   10.7053  -15.2585   29.2358 C   0  0  0  0  0  0  0  0  0  0  0  0
   10.1054  -14.0488   29.5061 C   0  0  0  0  0  0  0  0  0  0  0  0
   10.0222  -13.0309   28.5752 C   0  0  0  0  0  0  0  0  0  0  0  0
   10.5726  -13.2643   27.3292 C   0  0  0  0  0  0  0  0  0  0  0  0
   11.1818  -14.4609   27.0186 C   0  0  0  0  0  0  0  0  0  0  0  0
   11.2434  -15.4554   27.9824 C   0  0  0  0  0  0  0  0  0  0  0  0
   10.6173  -18.9309   26.5344 C   0  0  0  0  0  0  0  0  0  0  0  0
    9.2829  -18.7075   26.7849 O   0  0  0  0  0  0  0  0  0  0  0  0
   11.1418  -19.9925   26.9183 O   0  0  0  0  0  0  0  0  0  0  0  0
  2  1  1  6
  2  3  1  0
  3  4  1  0
  4  8  1  0
  5  4  2  0
  5  6  1  0
  6  7  1  0
  8  7  2  0
  9  2  1  0
  9 10  2  0
 11 12  1  0
 12 13  1  0
 13 14  1  0
 15 16  1  0
 15 14  1  1
 16  9  1  0
 17 15  1  0
 18 17  2  0
 19 17  1  0
 20 19  1  0
 20 21  1  1
 21 22  1  0
 22 30  1  0
 23 24  1  0
 23 22  2  0
 24 25  1  0
 25 30  2  0
 25 26  1  0
 26 27  2  0
 27 28  1  0
 29 28  2  0
 30 29  1  0
 31 32  1  0
 31 20  1  0
 33 31  2  0
M  END
$$$$
