HMW.pdb
     RDKit          3D

 33 35  0  0  1  0  0  0  0  0999 V2000
    8.7688  -17.9585   19.5947 N   0  0  0  0  0  0  0  0  0  0  0  0
    9.4774  -16.7516   19.8764 C   0  0  1  0  0  0  0  0  0  0  0  0
    9.0704  -15.5868   19.0197 C   0  0  0  0  0  0  0  0  0  0  0  0
    9.2410  -15.9098   17.5771 C   0  0  0  0  0  0  0  0  0  0  0  0
    8.2683  -16.4507   16.7734 C   0  0  0  0  0  0  0  0  0  0  0  0
    8.7917  -16.6006   15.5379 N   0  0  0  0  0  0  0  0  0  0  0  0
   10.0522  -16.1687   15.5610 C   0  0  0  0  0  0  0  0  0  0  0  0
   10.3502  -15.7394   16.8042 N   0  0  0  0  0  0  0  0  0  0  0  0
    9.3652  -16.3512   21.3138 C   0  0  0  0  0  0  0  0  0  0  0  0
   10.0344  -15.3513   21.7261 O   0  0  0  0  0  0  0  0  0  0  0  0
    5.7409  -13.1907   25.6489 C   0  0  0  0  0  0  0  0  0  0  0  0
    6.8507  -14.6232   25.6587 S   0  0  0  0  0  0  0  0  0  0  0  0
    6.4653  -15.7198   24.2923 C   0  0  0  0  0  0  0  0  0  0  0  0
    7.3433  -16.9507   24.4001 C   0  0  0  0  0  0  0  0  0  0  0  0
    8.6349  -16.7143   23.6467 C   0  0  2  0  0  0  0  0  0  0  0  0
    8.5533  -17.0201   22.2570 N   0  0  0  0  0  0  0  0  0  0  0  0
    9.6841  -17.5093   24.3326 C   0  0  0  0  0  0  0  0  0  0  0  0
    9.7797  -18.7158   23.9824 O   0  0  0  0  0  0  0  0  0  0  0  0
   10.5319  -16.9549   25.3230 N   0  0  0  0  0  0  0  0  0  0  0  0
   11.5903  -17.7698   25.8387 C   0  0  1  0  0  0  0  0  0  0  0  0
   12.5925  -16.9693   26.6452 C   0  0  0  0  0  0  0  0  0  0  0  0
   11.8696  -16.3069   27.7552 C   0  0  0  0  0  0  0  0  0  0  0  0
   11.7285  -16.7443   29.0724 C   0  0  0  0  0  0  0  0  0  0  0  0
   10.9928  -15.8582   29.7689 N   0  0  0  0  0  0  0  0  0  0  0  0
   10.6302  -14.8343   28.9679 C   0  0  0  0  0  0  0  0  0  0  0  0
    9.8966  -13.6807   29.1333 C   0  0  0  0  0  0  0  0  0  0  0  0
    9.6752  -12.7818   28.1073 C   0  0  0  0  0  0  0  0  0  0  0  0
   10.2248  -13.0784   26.8745 C   0  0  0  0  0  0  0  0  0  0  0  0
   10.9652  -14.2223   26.6673 C   0  0  0  0  0  0  0  0  0  0  0  0
   11.1631  -15.0971   27.7243 C   0  0  0  0  0  0  0  0  0  0  0  0
   10.9925  -18.8139   26.6952 C   0  0  0  0  0  0  0  0  0  0  0  0
    9.6553  -18.7621   27.0155 O   0  0  0  0  0  0  0  0  0  0  0  0
   11.6901  -19.7470   27.1334 O   0  0  0  0  0  0  0  0  0  0  0  0
  2  1  1  1
  2  3  1  0
  3  4  1  0
  4  8  1  0
  5  4  2  0
  5  6  1  0
  6  7  1  0
  8  7  2  0
  9  2  1  0
  9 10  2  0
 11 12  1  0
 12 13  1  0
 13 14  1  0
 15 16  1  0
 15 14  1  1
 16  9  1  0
 17 15  1  0
 18 17  2  0
 19 17  1  0
 20 19  1  0
 20 21  1  1
 21 22  1  0
 22 30  1  0
 23 24  1  0
 23 22  2  0
 24 25  1  0
 25 30  2  0
 25 26  1  0
 26 27  2  0
 27 28  1  0
 29 28  2  0
 30 29  1  0
 31 32  1  0
 31 20  1  0
 33 31  2  0
M  END
$$$$
