KAH.pdb
     RDKit          3D

 25 25  0  0  1  0  0  0  0  0999 V2000
   21.4470  -16.1595  -16.5723 N   0  0  0  0  0  0  0  0  0  0  0  0
   20.5093  -15.2979  -17.3192 C   0  0  1  0  0  0  0  0  0  0  0  0
   19.1045  -15.7257  -16.8995 C   0  0  0  0  0  0  0  0  0  0  0  0
   19.0120  -17.1827  -16.6780 C   0  0  0  0  0  0  0  0  0  0  0  0
   17.7232  -17.7064  -16.1415 C   0  0  0  0  0  0  0  0  0  0  0  0
   17.6202  -19.1766  -15.9994 C   0  0  0  0  0  0  0  0  0  0  0  0
   16.4917  -19.6170  -15.2436 N   0  0  0  0  0  0  0  0  0  0  0  0
   20.7935  -13.8873  -16.9960 C   0  0  0  0  0  0  0  0  0  0  0  0
   20.7886  -13.5268  -15.7929 O   0  0  0  0  0  0  0  0  0  0  0  0
   22.0461  -10.8688  -18.7582 C   0  0  0  0  0  0  0  0  0  0  0  0
   21.2579  -11.5529  -17.6495 C   0  0  2  0  0  0  0  0  0  0  0  0
   21.0752  -12.9196  -18.0278 N   0  0  0  0  0  0  0  0  0  0  0  0
   19.9887  -10.8324  -17.4263 C   0  0  0  0  0  0  0  0  0  0  0  0
   18.9271  -11.3670  -17.8347 O   0  0  0  0  0  0  0  0  0  0  0  0
   19.8908   -9.5732  -16.7791 N   0  0  0  0  0  0  0  0  0  0  0  0
   18.6402   -8.8509  -16.6618 C   0  0  1  0  0  0  0  0  0  0  0  0
   17.7120   -9.6763  -15.7883 C   0  0  0  0  0  0  0  0  0  0  0  0
   16.4303   -8.9461  -15.5136 C   0  0  0  0  0  0  0  0  0  0  0  0
   15.7292   -8.1721  -16.4084 C   0  0  0  0  0  0  0  0  0  0  0  0
   14.6371   -7.6831  -15.8026 N   0  0  0  0  0  0  0  0  0  0  0  0
   14.6734   -8.1572  -14.5459 C   0  0  0  0  0  0  0  0  0  0  0  0
   15.7551   -8.9221  -14.3631 N   0  0  0  0  0  0  0  0  0  0  0  0
   18.9160   -7.5475  -16.0354 C   0  0  0  0  0  0  0  0  0  0  0  0
   17.9684   -6.5225  -15.9653 O   0  0  0  0  0  0  0  0  0  0  0  0
   20.0423   -7.2860  -15.5214 O   0  0  0  0  0  0  0  0  0  0  0  0
  2  8  1  0
  2  1  1  1
  3  2  1  0
  4  3  1  0
  5  4  1  0
  5  6  1  0
  6  7  1  0
  8  9  2  0
 11 10  1  6
 12 11  1  0
 12  8  1  0
 13 14  2  0
 13 11  1  0
 15 13  1  0
 16 15  1  0
 16 23  1  0
 16 17  1  1
 18 19  2  0
 18 17  1  0
 20 19  1  0
 21 22  2  0
 21 20  1  0
 22 18  1  0
 23 24  1  0
 25 23  2  0
M  END
$$$$
