KAH.pdb
     RDKit          3D

 25 25  0  0  1  0  0  0  0  0999 V2000
   30.0838  -18.6691  -20.3617 N   0  0  0  0  0  0  0  0  0  0  0  0
   31.2545  -18.0985  -21.0569 C   0  0  1  0  0  0  0  0  0  0  0  0
   30.7373  -17.5348  -22.3788 C   0  0  0  0  0  0  0  0  0  0  0  0
   29.2716  -17.3556  -22.3691 C   0  0  0  0  0  0  0  0  0  0  0  0
   28.7575  -15.9894  -22.0652 C   0  0  0  0  0  0  0  0  0  0  0  0
   27.2888  -15.8120  -22.1259 C   0  0  0  0  0  0  0  0  0  0  0  0
   26.8431  -14.4891  -21.8259 N   0  0  0  0  0  0  0  0  0  0  0  0
   31.8647  -17.0656  -20.1992 C   0  0  0  0  0  0  0  0  0  0  0  0
   31.2042  -16.6107  -19.2325 O   0  0  0  0  0  0  0  0  0  0  0  0
   35.2189  -15.4505  -19.8660 C   0  0  0  0  0  0  0  0  0  0  0  0
   33.7329  -15.5837  -19.5620 C   0  0  2  0  0  0  0  0  0  0  0  0
   33.1966  -16.5705  -20.4469 N   0  0  0  0  0  0  0  0  0  0  0  0
   33.0804  -14.2656  -19.6902 C   0  0  0  0  0  0  0  0  0  0  0  0
   32.7431  -13.8835  -20.8390 O   0  0  0  0  0  0  0  0  0  0  0  0
   32.8095  -13.4013  -18.5977 N   0  0  0  0  0  0  0  0  0  0  0  0
   32.1260  -12.1336  -18.7561 C   0  0  1  0  0  0  0  0  0  0  0  0
   31.1315  -12.0011  -17.6163 C   0  0  0  0  0  0  0  0  0  0  0  0
   30.3596  -10.7182  -17.7133 C   0  0  0  0  0  0  0  0  0  0  0  0
   30.4572   -9.7861  -18.7199 C   0  0  0  0  0  0  0  0  0  0  0  0
   29.6145   -8.7748  -18.4634 N   0  0  0  0  0  0  0  0  0  0  0  0
   29.0073   -9.0897  -17.3070 C   0  0  0  0  0  0  0  0  0  0  0  0
   29.4525  -10.2638  -16.8467 N   0  0  0  0  0  0  0  0  0  0  0  0
   33.1283  -11.0570  -18.6949 C   0  0  0  0  0  0  0  0  0  0  0  0
   32.9076   -9.7824  -19.2242 O   0  0  0  0  0  0  0  0  0  0  0  0
   34.2573  -11.2348  -18.1518 O   0  0  0  0  0  0  0  0  0  0  0  0
  2  8  1  0
  2  1  1  1
  3  2  1  0
  4  3  1  0
  5  4  1  0
  5  6  1  0
  6  7  1  0
  8  9  2  0
 11 10  1  6
 12 11  1  0
 12  8  1  0
 13 14  2  0
 13 11  1  0
 15 13  1  0
 16 15  1  0
 16 23  1  0
 16 17  1  1
 18 19  2  0
 18 17  1  0
 20 19  1  0
 21 22  2  0
 21 20  1  0
 22 18  1  0
 23 24  1  0
 25 23  2  0
M  END
$$$$
