KAH.pdb
     RDKit          3D

 25 25  0  0  1  0  0  0  0  0999 V2000
   40.9224  -31.8188  -17.7366 N   0  0  0  0  0  0  0  0  0  0  0  0
   39.7177  -31.0174  -18.0297 C   0  0  1  0  0  0  0  0  0  0  0  0
   39.1938  -31.5056  -19.3786 C   0  0  0  0  0  0  0  0  0  0  0  0
   40.1549  -31.2526  -20.4708 C   0  0  0  0  0  0  0  0  0  0  0  0
   39.6997  -31.5550  -21.8581 C   0  0  0  0  0  0  0  0  0  0  0  0
   40.6839  -31.3175  -22.9385 C   0  0  0  0  0  0  0  0  0  0  0  0
   40.2146  -31.6499  -24.2454 N   0  0  0  0  0  0  0  0  0  0  0  0
   38.7414  -31.2038  -16.9402 C   0  0  0  0  0  0  0  0  0  0  0  0
   39.0552  -31.9234  -15.9598 O   0  0  0  0  0  0  0  0  0  0  0  0
   37.3726  -30.1427  -14.6360 C   0  0  0  0  0  0  0  0  0  0  0  0
   36.5989  -30.6891  -15.8281 C   0  0  2  0  0  0  0  0  0  0  0  0
   37.4414  -30.5801  -16.9781 N   0  0  0  0  0  0  0  0  0  0  0  0
   35.3220  -29.9610  -15.9664 C   0  0  0  0  0  0  0  0  0  0  0  0
   34.5009  -30.0243  -15.0170 O   0  0  0  0  0  0  0  0  0  0  0  0
   34.9621  -29.1932  -17.1044 N   0  0  0  0  0  0  0  0  0  0  0  0
   34.6736  -27.7753  -17.0299 C   0  0  1  0  0  0  0  0  0  0  0  0
   35.9277  -27.0755  -16.5366 C   0  0  0  0  0  0  0  0  0  0  0  0
   35.8659  -26.8249  -15.0586 C   0  0  0  0  0  0  0  0  0  0  0  0
   34.8947  -27.2803  -14.1979 C   0  0  0  0  0  0  0  0  0  0  0  0
   35.1755  -26.8560  -12.9569 N   0  0  0  0  0  0  0  0  0  0  0  0
   36.3114  -26.1463  -13.0619 C   0  0  0  0  0  0  0  0  0  0  0  0
   36.7356  -26.1227  -14.3301 N   0  0  0  0  0  0  0  0  0  0  0  0
   34.3158  -27.3048  -18.3782 C   0  0  0  0  0  0  0  0  0  0  0  0
   33.9500  -25.9834  -18.6497 O   0  0  0  0  0  0  0  0  0  0  0  0
   34.3215  -28.0854  -19.3741 O   0  0  0  0  0  0  0  0  0  0  0  0
  2  8  1  0
  2  1  1  1
  3  2  1  0
  4  3  1  0
  5  4  1  0
  5  6  1  0
  6  7  1  0
  8  9  2  0
 11 10  1  1
 12 11  1  0
 12  8  1  0
 13 14  2  0
 13 11  1  0
 15 13  1  0
 16 15  1  0
 16 23  1  0
 16 17  1  6
 18 19  2  0
 18 17  1  0
 20 19  1  0
 21 22  2  0
 21 20  1  0
 22 18  1  0
 23 24  1  0
 25 23  2  0
M  END
$$$$
