KAH.pdb
     RDKit          3D

 25 25  0  0  1  0  0  0  0  0999 V2000
   20.9535  -12.1001  -17.9762 N   0  0  0  0  0  0  0  0  0  0  0  0
   19.8413  -11.5514  -17.1754 C   0  0  1  0  0  0  0  0  0  0  0  0
   18.9992  -12.7462  -16.7330 C   0  0  0  0  0  0  0  0  0  0  0  0
   18.4933  -13.5234  -17.8822 C   0  0  0  0  0  0  0  0  0  0  0  0
   17.1270  -14.1071  -17.7572 C   0  0  0  0  0  0  0  0  0  0  0  0
   16.6474  -14.9080  -18.9065 C   0  0  0  0  0  0  0  0  0  0  0  0
   15.3953  -15.5586  -18.6887 N   0  0  0  0  0  0  0  0  0  0  0  0
   20.3973  -10.7962  -16.0372 C   0  0  0  0  0  0  0  0  0  0  0  0
   19.6087  -10.2850  -15.2040 O   0  0  0  0  0  0  0  0  0  0  0  0
   23.7609  -10.0484  -14.6095 C   0  0  0  0  0  0  0  0  0  0  0  0
   22.2854   -9.7510  -14.8394 C   0  0  2  0  0  0  0  0  0  0  0  0
   21.8200  -10.6341  -15.8630 N   0  0  0  0  0  0  0  0  0  0  0  0
   22.1137   -8.3235  -15.1748 C   0  0  0  0  0  0  0  0  0  0  0  0
   22.3551   -7.9613  -16.3539 O   0  0  0  0  0  0  0  0  0  0  0  0
   21.6930   -7.3330  -14.2497 N   0  0  0  0  0  0  0  0  0  0  0  0
   21.5489   -5.9375  -14.6120 C   0  0  1  0  0  0  0  0  0  0  0  0
   20.0938   -5.5560  -14.4051 C   0  0  0  0  0  0  0  0  0  0  0  0
   19.2267   -6.1005  -15.5019 C   0  0  0  0  0  0  0  0  0  0  0  0
   19.6557   -6.8089  -16.5999 C   0  0  0  0  0  0  0  0  0  0  0  0
   18.5955   -7.1267  -17.3574 N   0  0  0  0  0  0  0  0  0  0  0  0
   17.5272   -6.6146  -16.7238 C   0  0  0  0  0  0  0  0  0  0  0  0
   17.9005   -5.9922  -15.6005 N   0  0  0  0  0  0  0  0  0  0  0  0
   22.4219   -5.1396  -13.7354 C   0  0  0  0  0  0  0  0  0  0  0  0
   22.6985   -3.7888  -13.9643 O   0  0  0  0  0  0  0  0  0  0  0  0
   22.9741   -5.6448  -12.7151 O   0  0  0  0  0  0  0  0  0  0  0  0
  2  8  1  0
  2  1  1  6
  3  2  1  0
  4  3  1  0
  5  4  1  0
  5  6  1  0
  6  7  1  0
  8  9  2  0
 11 10  1  6
 12 11  1  0
 12  8  1  0
 13 14  2  0
 13 11  1  0
 15 13  1  0
 16 15  1  0
 16 23  1  0
 16 17  1  1
 18 19  2  0
 18 17  1  0
 20 19  1  0
 21 22  2  0
 21 20  1  0
 22 18  1  0
 23 24  1  0
 25 23  2  0
M  END
$$$$
