KAH.pdb
     RDKit          3D

 25 25  0  0  1  0  0  0  0  0999 V2000
   27.7893  -19.4379  -17.0037 N   0  0  0  0  0  0  0  0  0  0  0  0
   26.5411  -19.7650  -17.7209 C   0  0  1  0  0  0  0  0  0  0  0  0
   26.0319  -21.0749  -17.1231 C   0  0  0  0  0  0  0  0  0  0  0  0
   26.9852  -22.1842  -17.3263 C   0  0  0  0  0  0  0  0  0  0  0  0
   26.5856  -23.5247  -16.8101 C   0  0  0  0  0  0  0  0  0  0  0  0
   27.5847  -24.6080  -16.9533 C   0  0  0  0  0  0  0  0  0  0  0  0
   27.2335  -25.8236  -16.2917 N   0  0  0  0  0  0  0  0  0  0  0  0
   25.5858  -18.6544  -17.5512 C   0  0  0  0  0  0  0  0  0  0  0  0
   25.5478  -18.0483  -16.4518 O   0  0  0  0  0  0  0  0  0  0  0  0
   23.1058  -16.8389  -19.6848 C   0  0  0  0  0  0  0  0  0  0  0  0
   23.7455  -17.2202  -18.3567 C   0  0  2  0  0  0  0  0  0  0  0  0
   24.6997  -18.2529  -18.6162 N   0  0  0  0  0  0  0  0  0  0  0  0
   22.6965  -17.6197  -17.3976 C   0  0  0  0  0  0  0  0  0  0  0  0
   22.6192  -18.8331  -17.0794 O   0  0  0  0  0  0  0  0  0  0  0  0
   21.7687  -16.7199  -16.8115 N   0  0  0  0  0  0  0  0  0  0  0  0
   20.7946  -17.1369  -15.8233 C   0  0  1  0  0  0  0  0  0  0  0  0
   21.5560  -17.6300  -14.6056 C   0  0  0  0  0  0  0  0  0  0  0  0
   20.6196  -18.0611  -13.5154 C   0  0  0  0  0  0  0  0  0  0  0  0
   19.2458  -18.0166  -13.5606 C   0  0  0  0  0  0  0  0  0  0  0  0
   18.7543  -18.4836  -12.4034 N   0  0  0  0  0  0  0  0  0  0  0  0
   19.8233  -18.8105  -11.6580 C   0  0  0  0  0  0  0  0  0  0  0  0
   20.9555  -18.5579  -12.3235 N   0  0  0  0  0  0  0  0  0  0  0  0
   19.9615  -15.9739  -15.4757 C   0  0  0  0  0  0  0  0  0  0  0  0
   20.3194  -14.6607  -15.7935 O   0  0  0  0  0  0  0  0  0  0  0  0
   18.8628  -16.1073  -14.8623 O   0  0  0  0  0  0  0  0  0  0  0  0
  2  8  1  0
  2  1  1  1
  3  2  1  0
  4  3  1  0
  5  4  1  0
  5  6  1  0
  6  7  1  0
  8  9  2  0
 11 10  1  6
 12 11  1  0
 12  8  1  0
 13 14  2  0
 13 11  1  0
 15 13  1  0
 16 15  1  0
 16 23  1  0
 16 17  1  1
 18 19  2  0
 18 17  1  0
 20 19  1  0
 21 22  2  0
 21 20  1  0
 22 18  1  0
 23 24  1  0
 25 23  2  0
M  END
$$$$
