KAH.pdb
     RDKit          3D

 25 25  0  0  1  0  0  0  0  0999 V2000
   16.4967  -12.2597  -13.8693 N   0  0  0  0  0  0  0  0  0  0  0  0
   16.9612  -10.8948  -14.1864 C   0  0  1  0  0  0  0  0  0  0  0  0
   15.8511  -10.2423  -15.0076 C   0  0  0  0  0  0  0  0  0  0  0  0
   14.5346  -10.3555  -14.3483 C   0  0  0  0  0  0  0  0  0  0  0  0
   13.3922   -9.6429  -14.9886 C   0  0  0  0  0  0  0  0  0  0  0  0
   12.0883   -9.7342  -14.2930 C   0  0  0  0  0  0  0  0  0  0  0  0
   11.0244   -9.0389  -14.9435 N   0  0  0  0  0  0  0  0  0  0  0  0
   17.2331  -10.1766  -12.9274 C   0  0  0  0  0  0  0  0  0  0  0  0
   16.6968  -10.5842  -11.8674 O   0  0  0  0  0  0  0  0  0  0  0  0
   19.3519   -7.2866  -11.8431 C   0  0  0  0  0  0  0  0  0  0  0  0
   18.2728   -8.3423  -11.6441 C   0  0  2  0  0  0  0  0  0  0  0  0
   18.0975   -9.0224  -12.8895 N   0  0  0  0  0  0  0  0  0  0  0  0
   17.0385   -7.7022  -11.1476 C   0  0  0  0  0  0  0  0  0  0  0  0
   16.1960   -7.3098  -11.9936 O   0  0  0  0  0  0  0  0  0  0  0  0
   16.7423   -7.5016   -9.7743 N   0  0  0  0  0  0  0  0  0  0  0  0
   15.5461   -6.8182   -9.3255 C   0  0  1  0  0  0  0  0  0  0  0  0
   15.4404   -7.0135   -7.8234 C   0  0  0  0  0  0  0  0  0  0  0  0
   14.2754   -6.2569   -7.2564 C   0  0  0  0  0  0  0  0  0  0  0  0
   13.3577   -5.5239   -7.9719 C   0  0  0  0  0  0  0  0  0  0  0  0
   12.4647   -4.9926   -7.1239 N   0  0  0  0  0  0  0  0  0  0  0  0
   12.8371   -5.4000   -5.8989 C   0  0  0  0  0  0  0  0  0  0  0  0
   13.9316   -6.1652   -5.9704 N   0  0  0  0  0  0  0  0  0  0  0  0
   15.6797   -5.3890   -9.6525 C   0  0  0  0  0  0  0  0  0  0  0  0
   14.6063   -4.6046  -10.0839 O   0  0  0  0  0  0  0  0  0  0  0  0
   16.7904   -4.7902   -9.5580 O   0  0  0  0  0  0  0  0  0  0  0  0
  2  8  1  0
  2  1  1  1
  3  2  1  0
  4  3  1  0
  5  4  1  0
  5  6  1  0
  6  7  1  0
  8  9  2  0
 11 10  1  6
 12 11  1  0
 12  8  1  0
 13 14  2  0
 13 11  1  0
 15 13  1  0
 16 15  1  0
 16 23  1  0
 16 17  1  1
 18 19  2  0
 18 17  1  0
 20 19  1  0
 21 22  2  0
 21 20  1  0
 22 18  1  0
 23 24  1  0
 25 23  2  0
M  END
$$$$
