KAH.pdb
     RDKit          3D

 25 25  0  0  1  0  0  0  0  0999 V2000
   22.6873  -23.1507  -17.3945 N   0  0  0  0  0  0  0  0  0  0  0  0
   21.8620  -23.6987  -16.3000 C   0  0  1  0  0  0  0  0  0  0  0  0
   20.5759  -24.2104  -16.9455 C   0  0  0  0  0  0  0  0  0  0  0  0
   19.6263  -23.1164  -17.2317 C   0  0  0  0  0  0  0  0  0  0  0  0
   19.0354  -22.4077  -16.0605 C   0  0  0  0  0  0  0  0  0  0  0  0
   18.0112  -21.3818  -16.3620 C   0  0  0  0  0  0  0  0  0  0  0  0
   17.4084  -20.7954  -15.2081 N   0  0  0  0  0  0  0  0  0  0  0  0
   22.6179  -24.7653  -15.6175 C   0  0  0  0  0  0  0  0  0  0  0  0
   22.8597  -25.8305  -16.2374 O   0  0  0  0  0  0  0  0  0  0  0  0
   24.6068  -25.2048  -12.5276 C   0  0  0  0  0  0  0  0  0  0  0  0
   23.6783  -25.7360  -13.6111 C   0  0  2  0  0  0  0  0  0  0  0  0
   23.0823  -24.6103  -14.2607 N   0  0  0  0  0  0  0  0  0  0  0  0
   22.6916  -26.6560  -13.0113 C   0  0  0  0  0  0  0  0  0  0  0  0
   21.4846  -26.5185  -13.3336 O   0  0  0  0  0  0  0  0  0  0  0  0
   23.0195  -27.6870  -12.0928 N   0  0  0  0  0  0  0  0  0  0  0  0
   22.0338  -28.6149  -11.5764 C   0  0  1  0  0  0  0  0  0  0  0  0
   21.4746  -29.3948  -12.7531 C   0  0  0  0  0  0  0  0  0  0  0  0
   20.4820  -30.4253  -12.3013 C   0  0  0  0  0  0  0  0  0  0  0  0
   19.9613  -30.5503  -11.0345 C   0  0  0  0  0  0  0  0  0  0  0  0
   19.1076  -31.5845  -11.0122 N   0  0  0  0  0  0  0  0  0  0  0  0
   19.1089  -32.0862  -12.2586 C   0  0  0  0  0  0  0  0  0  0  0  0
   19.9377  -31.3905  -13.0445 N   0  0  0  0  0  0  0  0  0  0  0  0
   22.7031  -29.5201  -10.6278 C   0  0  0  0  0  0  0  0  0  0  0  0
   22.0678  -30.0406   -9.4968 O   0  0  0  0  0  0  0  0  0  0  0  0
   23.9059  -29.8776  -10.7915 O   0  0  0  0  0  0  0  0  0  0  0  0
  2  8  1  0
  2  1  1  6
  3  2  1  0
  4  3  1  0
  5  4  1  0
  5  6  1  0
  6  7  1  0
  8  9  2  0
 11 10  1  1
 12 11  1  0
 12  8  1  0
 13 14  2  0
 13 11  1  0
 15 13  1  0
 16 15  1  0
 16 23  1  0
 16 17  1  6
 18 19  2  0
 18 17  1  0
 20 19  1  0
 21 22  2  0
 21 20  1  0
 22 18  1  0
 23 24  1  0
 25 23  2  0
M  END
$$$$
