KAH.pdb
     RDKit          3D

 25 25  0  0  1  0  0  0  0  0999 V2000
   34.1606  -29.3791  -17.3329 N   0  0  0  0  0  0  0  0  0  0  0  0
   35.4419  -28.9859  -17.9520 C   0  0  1  0  0  0  0  0  0  0  0  0
   35.6930  -29.9761  -19.0873 C   0  0  0  0  0  0  0  0  0  0  0  0
   36.0343  -31.3216  -18.5836 C   0  0  0  0  0  0  0  0  0  0  0  0
   35.1884  -32.4561  -19.0532 C   0  0  0  0  0  0  0  0  0  0  0  0
   35.5797  -33.8049  -18.5844 C   0  0  0  0  0  0  0  0  0  0  0  0
   34.6958  -34.8492  -18.9929 N   0  0  0  0  0  0  0  0  0  0  0  0
   35.3377  -27.5933  -18.4260 C   0  0  0  0  0  0  0  0  0  0  0  0
   34.8147  -27.3703  -19.5459 O   0  0  0  0  0  0  0  0  0  0  0  0
   36.2223  -24.1999  -17.1049 C   0  0  0  0  0  0  0  0  0  0  0  0
   35.6373  -25.1612  -18.1306 C   0  0  2  0  0  0  0  0  0  0  0  0
   35.8215  -26.4892  -17.6339 N   0  0  0  0  0  0  0  0  0  0  0  0
   36.2737  -24.9334  -19.4432 C   0  0  0  0  0  0  0  0  0  0  0  0
   37.1823  -25.7234  -19.8033 O   0  0  0  0  0  0  0  0  0  0  0  0
   35.9243  -23.8780  -20.3252 N   0  0  0  0  0  0  0  0  0  0  0  0
   36.6196  -23.6422  -21.5744 C   0  0  1  0  0  0  0  0  0  0  0  0
   36.5167  -24.9093  -22.4049 C   0  0  0  0  0  0  0  0  0  0  0  0
   37.1341  -24.7240  -23.7598 C   0  0  0  0  0  0  0  0  0  0  0  0
   38.0640  -23.7714  -24.1048 C   0  0  0  0  0  0  0  0  0  0  0  0
   38.3794  -23.9164  -25.4003 N   0  0  0  0  0  0  0  0  0  0  0  0
   37.6454  -24.9517  -25.8413 C   0  0  0  0  0  0  0  0  0  0  0  0
   36.8893  -25.4458  -24.8549 N   0  0  0  0  0  0  0  0  0  0  0  0
   35.9644  -22.5182  -22.2634 C   0  0  0  0  0  0  0  0  0  0  0  0
   36.2681  -22.1514  -23.5774 O   0  0  0  0  0  0  0  0  0  0  0  0
   35.0798  -21.8173  -21.6913 O   0  0  0  0  0  0  0  0  0  0  0  0
  2  8  1  0
  2  1  1  6
  3  2  1  0
  4  3  1  0
  5  4  1  0
  5  6  1  0
  6  7  1  0
  8  9  2  0
 11 10  1  1
 12 11  1  0
 12  8  1  0
 13 14  2  0
 13 11  1  0
 15 13  1  0
 16 15  1  0
 16 23  1  0
 16 17  1  6
 18 19  2  0
 18 17  1  0
 20 19  1  0
 21 22  2  0
 21 20  1  0
 22 18  1  0
 23 24  1  0
 25 23  2  0
M  END
$$$$
