GVN.pdb
     RDKit          3D

 20 19  0  0  1  0  0  0  0  0999 V2000
   19.6443  -14.3556  -17.8383 N   0  0  0  0  0  0  0  0  0  0  0  0
   20.4283  -13.2341  -18.3147 C   0  0  0  0  0  0  0  0  0  0  0  0
   20.5853  -12.2725  -17.2222 C   0  0  0  0  0  0  0  0  0  0  0  0
   19.5996  -11.8781  -16.5579 O   0  0  0  0  0  0  0  0  0  0  0  0
   22.8497  -12.5258  -14.3371 C   0  0  0  0  0  0  0  0  0  0  0  0
   23.0568  -11.1313  -14.8777 C   0  0  1  0  0  0  0  0  0  0  0  0
   24.4317  -11.0007  -15.4810 C   0  0  0  0  0  0  0  0  0  0  0  0
   21.9593  -10.7185  -15.8295 C   0  0  2  0  0  0  0  0  0  0  0  0
   21.8533  -11.7207  -16.8381 N   0  0  0  0  0  0  0  0  0  0  0  0
   22.1014   -9.3568  -16.3315 C   0  0  0  0  0  0  0  0  0  0  0  0
   22.6277   -9.1338  -17.4493 O   0  0  0  0  0  0  0  0  0  0  0  0
   20.6567   -4.4356  -17.1809 N   0  0  0  0  0  0  0  0  0  0  0  0
   20.1414   -5.5949  -17.7992 C   0  0  0  0  0  0  0  0  0  0  0  0
   19.4390   -5.4733  -18.8214 O   0  0  0  0  0  0  0  0  0  0  0  0
   20.4203   -6.9368  -17.2571 C   0  0  0  0  0  0  0  0  0  0  0  0
   21.3505   -6.9571  -16.0937 C   0  0  2  0  0  0  0  0  0  0  0  0
   21.6515   -8.2509  -15.5758 N   0  0  0  0  0  0  0  0  0  0  0  0
   20.8906   -6.0237  -15.0407 C   0  0  0  0  0  0  0  0  0  0  0  0
   20.5928   -6.4666  -13.7603 O   0  0  0  0  0  0  0  0  0  0  0  0
   20.7663   -4.8187  -15.3006 O   0  0  0  0  0  0  0  0  0  0  0  0
  2  1  1  0
  3  9  1  0
  3  2  1  0
  4  3  2  0
  6  5  1  6
  6  8  1  0
  7  6  1  0
  8 10  1  0
  8  9  1  6
 10 11  2  0
 13 12  1  0
 14 13  2  0
 15 13  1  0
 16 15  1  6
 17 16  1  0
 17 10  1  0
 18 19  1  0
 18 16  1  0
 20 18  2  0
M  END
$$$$
