GVN.pdb
     RDKit          3D

 20 19  0  0  1  0  0  0  0  0999 V2000
   19.1315  -12.9374  -16.9940 N   0  0  0  0  0  0  0  0  0  0  0  0
   18.4425  -11.6796  -16.7877 C   0  0  0  0  0  0  0  0  0  0  0  0
   18.8698  -11.1141  -15.5069 C   0  0  0  0  0  0  0  0  0  0  0  0
   18.5795  -11.6697  -14.4228 O   0  0  0  0  0  0  0  0  0  0  0  0
   22.3243  -10.2686  -14.4193 C   0  0  0  0  0  0  0  0  0  0  0  0
   21.4792   -9.0415  -14.1747 C   0  0  1  0  0  0  0  0  0  0  0  0
   21.8139   -7.9654  -15.1754 C   0  0  0  0  0  0  0  0  0  0  0  0
   20.0040   -9.3624  -14.1329 C   0  0  2  0  0  0  0  0  0  0  0  0
   19.6374   -9.9061  -15.3990 N   0  0  0  0  0  0  0  0  0  0  0  0
   19.1758   -8.2509  -13.6804 C   0  0  0  0  0  0  0  0  0  0  0  0
   18.6125   -7.4897  -14.5048 O   0  0  0  0  0  0  0  0  0  0  0  0
   16.5070   -5.0072  -10.5629 N   0  0  0  0  0  0  0  0  0  0  0  0
   16.8751   -6.1273   -9.7874 C   0  0  0  0  0  0  0  0  0  0  0  0
   16.4504   -6.2197   -8.6194 O   0  0  0  0  0  0  0  0  0  0  0  0
   17.7480   -7.1811  -10.3352 C   0  0  0  0  0  0  0  0  0  0  0  0
   18.1564   -6.9761  -11.7530 C   0  0  2  0  0  0  0  0  0  0  0  0
   18.9835   -7.9987  -12.3035 N   0  0  0  0  0  0  0  0  0  0  0  0
   18.7333   -5.6257  -11.9406 C   0  0  0  0  0  0  0  0  0  0  0  0
   20.0505   -5.4498  -12.3384 O   0  0  0  0  0  0  0  0  0  0  0  0
   18.0305   -4.6252  -11.7399 O   0  0  0  0  0  0  0  0  0  0  0  0
  2  1  1  0
  3  9  1  0
  3  2  1  0
  4  3  2  0
  6  5  1  6
  6  8  1  0
  7  6  1  0
  8 10  1  0
  8  9  1  6
 10 11  2  0
 13 12  1  0
 14 13  2  0
 15 13  1  0
 16 15  1  1
 17 16  1  0
 17 10  1  0
 18 19  1  0
 18 16  1  0
 20 18  2  0
M  END
$$$$
