GVN.pdb
     RDKit          3D

 20 19  0  0  1  0  0  0  0  0999 V2000
   13.3901  -11.1811   -9.2171 N   0  0  0  0  0  0  0  0  0  0  0  0
   14.0043  -11.1905  -10.5294 C   0  0  0  0  0  0  0  0  0  0  0  0
   14.5089   -9.8479  -10.8219 C   0  0  0  0  0  0  0  0  0  0  0  0
   14.6803   -9.4613  -12.0007 O   0  0  0  0  0  0  0  0  0  0  0  0
   13.3906   -6.7976   -8.5413 C   0  0  0  0  0  0  0  0  0  0  0  0
   14.8456   -6.6852   -8.9288 C   0  0  1  0  0  0  0  0  0  0  0  0
   15.7286   -6.9571   -7.7381 C   0  0  0  0  0  0  0  0  0  0  0  0
   15.1882   -7.5483  -10.1198 C   0  0  2  0  0  0  0  0  0  0  0  0
   14.8384   -8.8935   -9.8019 N   0  0  0  0  0  0  0  0  0  0  0  0
   16.5530   -7.3674  -10.6005 C   0  0  0  0  0  0  0  0  0  0  0  0
   17.5335   -7.5357   -9.8346 O   0  0  0  0  0  0  0  0  0  0  0  0
   21.2798   -7.7184  -12.9324 N   0  0  0  0  0  0  0  0  0  0  0  0
   20.0768   -7.7871  -13.6670 C   0  0  0  0  0  0  0  0  0  0  0  0
   20.1150   -7.6437  -14.9043 O   0  0  0  0  0  0  0  0  0  0  0  0
   18.7858   -8.0244  -12.9964 C   0  0  0  0  0  0  0  0  0  0  0  0
   18.1007   -6.7934  -12.5120 C   0  0  2  0  0  0  0  0  0  0  0  0
   16.8110   -6.9983  -11.9397 N   0  0  0  0  0  0  0  0  0  0  0  0
   18.0888   -5.7532  -13.5653 C   0  0  0  0  0  0  0  0  0  0  0  0
   16.9274   -5.4314  -14.2522 O   0  0  0  0  0  0  0  0  0  0  0  0
   19.1353   -5.1521  -13.8455 O   0  0  0  0  0  0  0  0  0  0  0  0
  2  1  1  0
  3  9  1  0
  3  2  1  0
  4  3  2  0
  6  5  1  1
  6  8  1  0
  7  6  1  0
  8 10  1  0
  8  9  1  1
 10 11  2  0
 13 12  1  0
 14 13  2  0
 15 13  1  0
 16 15  1  6
 17 16  1  0
 17 10  1  0
 18 19  1  0
 18 16  1  0
 20 18  2  0
M  END
$$$$
