GVN.pdb
     RDKit          3D

 20 19  0  0  1  0  0  0  0  0999 V2000
   10.4351  -13.2842  -10.2036 N   0  0  0  0  0  0  0  0  0  0  0  0
   10.8685  -12.3302  -11.2044 C   0  0  0  0  0  0  0  0  0  0  0  0
   12.2130  -11.8653  -10.8596 C   0  0  0  0  0  0  0  0  0  0  0  0
   12.7680  -12.2169   -9.7934 O   0  0  0  0  0  0  0  0  0  0  0  0
   15.1003  -12.6533  -12.6184 C   0  0  0  0  0  0  0  0  0  0  0  0
   15.2251  -11.1574  -12.4560 C   0  0  1  0  0  0  0  0  0  0  0  0
   15.0223  -10.4666  -13.7800 C   0  0  0  0  0  0  0  0  0  0  0  0
   14.3189  -10.6225  -11.3727 C   0  0  2  0  0  0  0  0  0  0  0  0
   12.9805  -10.9902  -11.6993 N   0  0  0  0  0  0  0  0  0  0  0  0
   14.5139   -9.2045  -11.0937 C   0  0  0  0  0  0  0  0  0  0  0  0
   13.8243   -8.3323  -11.6768 O   0  0  0  0  0  0  0  0  0  0  0  0
   16.4117   -4.7635   -9.0721 N   0  0  0  0  0  0  0  0  0  0  0  0
   16.5467   -5.7844   -8.1071 C   0  0  0  0  0  0  0  0  0  0  0  0
   16.9727   -5.4917   -6.9731 O   0  0  0  0  0  0  0  0  0  0  0  0
   16.1937   -7.1809   -8.4193 C   0  0  0  0  0  0  0  0  0  0  0  0
   15.7693   -7.4156   -9.8278 C   0  0  2  0  0  0  0  0  0  0  0  0
   15.4827   -8.7720  -10.1606 N   0  0  0  0  0  0  0  0  0  0  0  0
   16.7263   -6.7958  -10.7721 C   0  0  0  0  0  0  0  0  0  0  0  0
   17.7611   -7.5262  -11.3378 O   0  0  0  0  0  0  0  0  0  0  0  0
   16.6072   -5.5988  -11.0687 O   0  0  0  0  0  0  0  0  0  0  0  0
  2  1  1  0
  3  9  1  0
  3  2  1  0
  4  3  2  0
  6  5  1  6
  6  8  1  0
  7  6  1  0
  8 10  1  0
  8  9  1  6
 10 11  2  0
 13 12  1  0
 14 13  2  0
 15 13  1  0
 16 15  1  1
 17 16  1  0
 17 10  1  0
 18 19  1  0
 18 16  1  0
 20 18  2  0
M  END
$$$$
