GVN.pdb
     RDKit          3D

 20 19  0  0  1  0  0  0  0  0999 V2000
   20.4762  -22.3069   -6.9410 N   0  0  0  0  0  0  0  0  0  0  0  0
   21.8344  -22.6196   -7.3371 C   0  0  0  0  0  0  0  0  0  0  0  0
   22.3960  -21.4661   -8.0419 C   0  0  0  0  0  0  0  0  0  0  0  0
   21.6588  -20.5633   -8.5001 O   0  0  0  0  0  0  0  0  0  0  0  0
   25.8172  -19.4005   -7.5892 C   0  0  0  0  0  0  0  0  0  0  0  0
   25.7206  -20.0639   -8.9421 C   0  0  1  0  0  0  0  0  0  0  0  0
   26.6727  -21.2292   -9.0248 C   0  0  0  0  0  0  0  0  0  0  0  0
   24.3013  -20.4427   -9.2929 C   0  0  2  0  0  0  0  0  0  0  0  0
   23.8036  -21.2862   -8.2567 N   0  0  0  0  0  0  0  0  0  0  0  0
   24.1545  -20.9773  -10.6416 C   0  0  0  0  0  0  0  0  0  0  0  0
   24.2333  -22.2115  -10.8576 O   0  0  0  0  0  0  0  0  0  0  0  0
   20.1676  -20.5031  -14.5906 N   0  0  0  0  0  0  0  0  0  0  0  0
   21.1398  -21.3357  -13.9963 C   0  0  0  0  0  0  0  0  0  0  0  0
   21.4167  -22.4235  -14.5378 O   0  0  0  0  0  0  0  0  0  0  0  0
   21.8270  -20.9398  -12.7539 C   0  0  0  0  0  0  0  0  0  0  0  0
   23.2315  -20.4794  -12.9393 C   0  0  2  0  0  0  0  0  0  0  0  0
   23.9196  -20.1232  -11.7424 N   0  0  0  0  0  0  0  0  0  0  0  0
   23.3012  -19.4144  -13.9652 C   0  0  0  0  0  0  0  0  0  0  0  0
   23.4514  -19.7144  -15.3112 O   0  0  0  0  0  0  0  0  0  0  0  0
   23.2246  -18.2264  -13.6222 O   0  0  0  0  0  0  0  0  0  0  0  0
  2  1  1  0
  3  9  1  0
  3  2  1  0
  4  3  2  0
  6  5  1  1
  6  8  1  0
  7  6  1  0
  8 10  1  0
  8  9  1  1
 10 11  2  0
 13 12  1  0
 14 13  2  0
 15 13  1  0
 16 15  1  1
 17 16  1  0
 17 10  1  0
 18 19  1  0
 18 16  1  0
 20 18  2  0
M  END
$$$$
