GVN.pdb
     RDKit          3D

 20 19  0  0  1  0  0  0  0  0999 V2000
   24.9958  -14.7607  -19.9470 N   0  0  0  0  0  0  0  0  0  0  0  0
   24.9104  -13.3235  -20.1102 C   0  0  0  0  0  0  0  0  0  0  0  0
   24.5938  -12.7213  -18.8141 C   0  0  0  0  0  0  0  0  0  0  0  0
   23.5956  -13.0895  -18.1536 O   0  0  0  0  0  0  0  0  0  0  0  0
   27.0790   -9.6577  -17.0435 C   0  0  0  0  0  0  0  0  0  0  0  0
   26.2506  -10.6486  -16.2614 C   0  0  1  0  0  0  0  0  0  0  0  0
   25.9701  -10.1220  -14.8774 C   0  0  0  0  0  0  0  0  0  0  0  0
   24.9960  -11.0525  -16.9985 C   0  0  2  0  0  0  0  0  0  0  0  0
   25.3865  -11.6855  -18.2150 N   0  0  0  0  0  0  0  0  0  0  0  0
   24.0334   -9.9681  -17.1537 C   0  0  0  0  0  0  0  0  0  0  0  0
   24.1345   -9.1471  -18.0982 O   0  0  0  0  0  0  0  0  0  0  0  0
   19.8219   -6.9528  -16.5456 N   0  0  0  0  0  0  0  0  0  0  0  0
   19.4958   -8.3251  -16.5014 C   0  0  0  0  0  0  0  0  0  0  0  0
   18.2979   -8.6640  -16.5590 O   0  0  0  0  0  0  0  0  0  0  0  0
   20.5441   -9.3552  -16.3889 C   0  0  0  0  0  0  0  0  0  0  0  0
   21.9350   -8.8245  -16.3367 C   0  0  2  0  0  0  0  0  0  0  0  0
   22.9611   -9.8103  -16.2473 N   0  0  0  0  0  0  0  0  0  0  0  0
   22.0596   -7.7876  -15.2874 C   0  0  0  0  0  0  0  0  0  0  0  0
   21.3977   -6.5727  -15.3878 O   0  0  0  0  0  0  0  0  0  0  0  0
   22.7689   -8.0020  -14.2944 O   0  0  0  0  0  0  0  0  0  0  0  0
  2  1  1  0
  3  9  1  0
  3  2  1  0
  4  3  2  0
  6  5  1  6
  6  8  1  0
  7  6  1  0
  8 10  1  0
  8  9  1  6
 10 11  2  0
 13 12  1  0
 14 13  2  0
 15 13  1  0
 16 15  1  1
 17 16  1  0
 17 10  1  0
 18 19  1  0
 18 16  1  0
 20 18  2  0
M  END
$$$$
