NLN.pdb
     RDKit          3D

 25 24  0  0  1  0  0  0  0  0999 V2000
    9.6370  -17.1936   17.4654 N   0  0  0  0  0  0  0  0  0  0  0  0
    8.6462  -16.3570   18.0195 C   0  0  0  0  0  0  0  0  0  0  0  0
    7.5009  -16.3320   17.5249 O   0  0  0  0  0  0  0  0  0  0  0  0
    8.9630  -15.5101   19.1857 C   0  0  0  0  0  0  0  0  0  0  0  0
    8.4195  -16.1882   20.4238 C   0  0  2  0  0  0  0  0  0  0  0  0
    6.9709  -16.2767   20.3880 N   0  0  0  0  0  0  0  0  0  0  0  0
    8.8575  -15.5295   21.6844 C   0  0  0  0  0  0  0  0  0  0  0  0
   10.0632  -15.2664   21.9399 O   0  0  0  0  0  0  0  0  0  0  0  0
    5.5859  -12.6088   26.0089 C   0  0  0  0  0  0  0  0  0  0  0  0
    6.9063  -13.2062   25.6704 C   0  0  2  0  0  0  0  0  0  0  0  0
    7.9480  -12.0698   25.7942 C   0  0  0  0  0  0  0  0  0  0  0  0
    7.0968  -13.7735   24.3322 C   0  0  0  0  0  0  0  0  0  0  0  0
    8.2745  -14.5956   23.9854 C   0  0  2  0  0  0  0  0  0  0  0  0
    7.9003  -15.1720   22.6508 N   0  0  0  0  0  0  0  0  0  0  0  0
    8.6233  -15.7456   24.7958 C   0  0  0  0  0  0  0  0  0  0  0  0
    7.7843  -16.6925   25.0023 O   0  0  0  0  0  0  0  0  0  0  0  0
   11.3813  -19.6816   26.7173 N   0  0  0  0  0  0  0  0  0  0  0  0
   12.1168  -18.8987   25.7962 C   0  0  0  0  0  0  0  0  0  0  0  0
   13.2153  -19.3352   25.3675 O   0  0  0  0  0  0  0  0  0  0  0  0
   11.6282  -17.5977   25.3306 C   0  0  0  0  0  0  0  0  0  0  0  0
   10.2651  -17.2497   25.9569 C   0  0  2  0  0  0  0  0  0  0  0  0
    9.8828  -15.9397   25.4115 N   0  0  0  0  0  0  0  0  0  0  0  0
   10.2888  -17.2893   27.4121 C   0  0  0  0  0  0  0  0  0  0  0  0
    9.9794  -16.1523   28.1347 O   0  0  0  0  0  0  0  0  0  0  0  0
   10.5816  -18.3327   28.0273 O   0  0  0  0  0  0  0  0  0  0  0  0
  2  1  1  0
  2  3  2  0
  4  2  1  0
  5  4  1  0
  5  6  1  6
  7  8  2  0
  7  5  1  0
 10  9  1  6
 10 11  1  0
 10 12  1  0
 13 12  1  1
 13 14  1  0
 14  7  1  0
 15 13  1  0
 15 16  2  0
 18 17  1  0
 18 20  1  0
 19 18  2  0
 21 22  1  0
 21 20  1  6
 22 15  1  0
 23 21  1  0
 24 23  1  0
 25 23  2  0
M  END
$$$$
