NLN.pdb
     RDKit          3D

 25 24  0  0  1  0  0  0  0  0999 V2000
    7.8255  -16.6115   17.7491 N   0  0  0  0  0  0  0  0  0  0  0  0
    8.4912  -16.9587   18.9428 C   0  0  0  0  0  0  0  0  0  0  0  0
    8.7604  -18.1531   19.1839 O   0  0  0  0  0  0  0  0  0  0  0  0
    8.8705  -15.9093   19.9085 C   0  0  0  0  0  0  0  0  0  0  0  0
    8.7376  -16.4800   21.3030 C   0  0  2  0  0  0  0  0  0  0  0  0
    7.3901  -16.9578   21.5548 N   0  0  0  0  0  0  0  0  0  0  0  0
    9.1422  -15.5175   22.3636 C   0  0  0  0  0  0  0  0  0  0  0  0
   10.2673  -14.9501   22.3845 O   0  0  0  0  0  0  0  0  0  0  0  0
    5.7729  -12.5829   26.6074 C   0  0  0  0  0  0  0  0  0  0  0  0
    7.1457  -12.8642   26.1062 C   0  0  2  0  0  0  0  0  0  0  0  0
    7.7564  -11.5005   25.7073 C   0  0  0  0  0  0  0  0  0  0  0  0
    7.3001  -13.7259   24.9304 C   0  0  0  0  0  0  0  0  0  0  0  0
    8.6049  -14.2974   24.5383 C   0  0  2  0  0  0  0  0  0  0  0  0
    8.2443  -15.2084   23.4010 N   0  0  0  0  0  0  0  0  0  0  0  0
    9.3380  -15.1392   25.4630 C   0  0  0  0  0  0  0  0  0  0  0  0
    9.8215  -14.6668   26.5520 O   0  0  0  0  0  0  0  0  0  0  0  0
   11.5125  -19.1143   28.0060 N   0  0  0  0  0  0  0  0  0  0  0  0
   10.2302  -19.4351   27.5009 C   0  0  0  0  0  0  0  0  0  0  0  0
    9.6872  -20.5114   27.8584 O   0  0  0  0  0  0  0  0  0  0  0  0
    9.5228  -18.5442   26.5768 C   0  0  0  0  0  0  0  0  0  0  0  0
   10.3605  -17.2957   26.2441 C   0  0  2  0  0  0  0  0  0  0  0  0
    9.5779  -16.5209   25.2711 N   0  0  0  0  0  0  0  0  0  0  0  0
   11.7011  -17.6253   25.7815 C   0  0  0  0  0  0  0  0  0  0  0  0
   12.0402  -17.4194   24.4574 O   0  0  0  0  0  0  0  0  0  0  0  0
   12.5582  -18.0906   26.5573 O   0  0  0  0  0  0  0  0  0  0  0  0
  2  1  1  0
  2  3  2  0
  4  2  1  0
  5  4  1  0
  5  6  1  1
  7  8  2  0
  7  5  1  0
 10  9  1  6
 10 11  1  0
 10 12  1  0
 13 12  1  1
 13 14  1  0
 14  7  1  0
 15 13  1  0
 15 16  2  0
 18 17  1  0
 18 20  1  0
 19 18  2  0
 21 22  1  0
 21 20  1  6
 22 15  1  0
 23 21  1  0
 24 23  1  0
 25 23  2  0
M  END
$$$$
