NLN.pdb
     RDKit          3D

 25 24  0  0  1  0  0  0  0  0999 V2000
   10.4087  -17.2245   18.1863 N   0  0  0  0  0  0  0  0  0  0  0  0
    9.2663  -16.7575   18.8686 C   0  0  0  0  0  0  0  0  0  0  0  0
    8.1361  -17.1904   18.5649 O   0  0  0  0  0  0  0  0  0  0  0  0
    9.4065  -15.7559   19.9433 C   0  0  0  0  0  0  0  0  0  0  0  0
    9.1414  -16.4412   21.2654 C   0  0  2  0  0  0  0  0  0  0  0  0
    7.7721  -16.9156   21.3523 N   0  0  0  0  0  0  0  0  0  0  0  0
    9.4564  -15.5799   22.4376 C   0  0  0  0  0  0  0  0  0  0  0  0
   10.5789  -15.0327   22.6070 O   0  0  0  0  0  0  0  0  0  0  0  0
    5.7119  -12.7504   26.4119 C   0  0  0  0  0  0  0  0  0  0  0  0
    7.1218  -13.1004   26.0886 C   0  0  2  0  0  0  0  0  0  0  0  0
    7.8607  -11.7647   25.8398 C   0  0  0  0  0  0  0  0  0  0  0  0
    7.3861  -13.9250   24.9058 C   0  0  0  0  0  0  0  0  0  0  0  0
    8.7190  -14.4982   24.6267 C   0  0  2  0  0  0  0  0  0  0  0  0
    8.4717  -15.3486   23.4147 N   0  0  0  0  0  0  0  0  0  0  0  0
    9.3401  -15.3943   25.5819 C   0  0  0  0  0  0  0  0  0  0  0  0
    9.8185  -14.9589   26.6884 O   0  0  0  0  0  0  0  0  0  0  0  0
    9.5104  -18.2469   29.0020 N   0  0  0  0  0  0  0  0  0  0  0  0
    9.0051  -19.0910   27.9850 C   0  0  0  0  0  0  0  0  0  0  0  0
    8.2336  -20.0319   28.3025 O   0  0  0  0  0  0  0  0  0  0  0  0
    9.3568  -18.8931   26.5760 C   0  0  0  0  0  0  0  0  0  0  0  0
   10.1957  -17.6171   26.3777 C   0  0  2  0  0  0  0  0  0  0  0  0
    9.4685  -16.7924   25.4026 N   0  0  0  0  0  0  0  0  0  0  0  0
   11.5693  -17.9025   25.9882 C   0  0  0  0  0  0  0  0  0  0  0  0
   11.9292  -17.8513   24.6546 O   0  0  0  0  0  0  0  0  0  0  0  0
   12.4362  -18.1923   26.8352 O   0  0  0  0  0  0  0  0  0  0  0  0
  2  1  1  0
  2  3  2  0
  4  2  1  0
  5  4  1  0
  5  6  1  6
  7  8  2  0
  7  5  1  0
 10  9  1  6
 10 11  1  0
 10 12  1  0
 13 12  1  1
 13 14  1  0
 14  7  1  0
 15 13  1  0
 15 16  2  0
 18 17  1  0
 18 20  1  0
 19 18  2  0
 21 22  1  0
 21 20  1  6
 22 15  1  0
 23 21  1  0
 24 23  1  0
 25 23  2  0
M  END
$$$$
