NLN.pdb
     RDKit          3D

 25 24  0  0  1  0  0  0  0  0999 V2000
   10.3645  -16.8186   19.2307 N   0  0  0  0  0  0  0  0  0  0  0  0
    9.2616  -16.1497   19.8007 C   0  0  0  0  0  0  0  0  0  0  0  0
    8.1440  -16.2039   19.2484 O   0  0  0  0  0  0  0  0  0  0  0  0
    9.4283  -15.3848   21.0516 C   0  0  0  0  0  0  0  0  0  0  0  0
    8.8038  -16.1787   22.1776 C   0  0  2  0  0  0  0  0  0  0  0  0
    7.3641  -16.2801   22.0207 N   0  0  0  0  0  0  0  0  0  0  0  0
    9.1313  -15.6321   23.5226 C   0  0  0  0  0  0  0  0  0  0  0  0
   10.3116  -15.4196   23.9098 O   0  0  0  0  0  0  0  0  0  0  0  0
    8.2780  -11.5343   25.9275 C   0  0  0  0  0  0  0  0  0  0  0  0
    7.2091  -12.4593   25.4620 C   0  0  2  0  0  0  0  0  0  0  0  0
    5.8650  -11.8402   25.9114 C   0  0  0  0  0  0  0  0  0  0  0  0
    7.2011  -13.8342   25.9705 C   0  0  0  0  0  0  0  0  0  0  0  0
    8.3451  -14.7501   25.7832 C   0  0  2  0  0  0  0  0  0  0  0  0
    8.0929  -15.3284   24.4211 N   0  0  0  0  0  0  0  0  0  0  0  0
    8.5027  -15.9036   26.6468 C   0  0  0  0  0  0  0  0  0  0  0  0
    8.9367  -15.7815   27.8467 O   0  0  0  0  0  0  0  0  0  0  0  0
    8.0923  -19.5817   24.7451 N   0  0  0  0  0  0  0  0  0  0  0  0
    7.0803  -19.8404   25.6997 C   0  0  0  0  0  0  0  0  0  0  0  0
    6.1297  -20.6020   25.3875 O   0  0  0  0  0  0  0  0  0  0  0  0
    7.1161  -19.2457   27.0387 C   0  0  0  0  0  0  0  0  0  0  0  0
    8.3502  -18.3432   27.2225 C   0  0  2  0  0  0  0  0  0  0  0  0
    8.1952  -17.2333   26.2718 N   0  0  0  0  0  0  0  0  0  0  0  0
    9.6039  -19.0678   27.0710 C   0  0  0  0  0  0  0  0  0  0  0  0
   10.4836  -18.7143   26.0651 O   0  0  0  0  0  0  0  0  0  0  0  0
    9.9067  -20.0056   27.8338 O   0  0  0  0  0  0  0  0  0  0  0  0
  2  1  1  0
  2  3  2  0
  4  2  1  0
  5  4  1  0
  5  6  1  6
  7  8  2  0
  7  5  1  0
 10  9  1  1
 10 11  1  0
 10 12  1  0
 13 12  1  1
 13 14  1  0
 14  7  1  0
 15 13  1  0
 15 16  2  0
 18 17  1  0
 18 20  1  0
 19 18  2  0
 21 22  1  0
 21 20  1  6
 22 15  1  0
 23 21  1  0
 24 23  1  0
 25 23  2  0
M  END
$$$$
