NLN.pdb
     RDKit          3D

 25 24  0  0  1  0  0  0  0  0999 V2000
    7.4059  -16.6485   18.6149 N   0  0  0  0  0  0  0  0  0  0  0  0
    8.0743  -15.4071   18.6481 C   0  0  0  0  0  0  0  0  0  0  0  0
    8.3663  -14.8256   17.5835 O   0  0  0  0  0  0  0  0  0  0  0  0
    8.4290  -14.7943   19.9429 C   0  0  0  0  0  0  0  0  0  0  0  0
    8.0883  -15.7779   21.0403 C   0  0  2  0  0  0  0  0  0  0  0  0
    6.6587  -16.0204   21.1109 N   0  0  0  0  0  0  0  0  0  0  0  0
    8.5990  -15.3578   22.3736 C   0  0  0  0  0  0  0  0  0  0  0  0
    9.8213  -15.1652   22.6123 O   0  0  0  0  0  0  0  0  0  0  0  0
    7.9549  -11.7401   25.6725 C   0  0  0  0  0  0  0  0  0  0  0  0
    6.8715  -12.6328   25.1782 C   0  0  2  0  0  0  0  0  0  0  0  0
    5.5859  -12.2251   25.9352 C   0  0  0  0  0  0  0  0  0  0  0  0
    7.0075  -14.0784   25.3795 C   0  0  0  0  0  0  0  0  0  0  0  0
    8.1441  -14.8467   24.8309 C   0  0  2  0  0  0  0  0  0  0  0  0
    7.6954  -15.1578   23.4326 N   0  0  0  0  0  0  0  0  0  0  0  0
    8.4933  -16.1342   25.3979 C   0  0  0  0  0  0  0  0  0  0  0  0
    7.6643  -17.1118   25.3886 O   0  0  0  0  0  0  0  0  0  0  0  0
    9.9714  -20.8763   25.6520 N   0  0  0  0  0  0  0  0  0  0  0  0
   10.6660  -19.8848   24.9193 C   0  0  0  0  0  0  0  0  0  0  0  0
   11.7288  -20.1997   24.3256 O   0  0  0  0  0  0  0  0  0  0  0  0
   10.1757  -18.5062   24.8349 C   0  0  0  0  0  0  0  0  0  0  0  0
   10.1553  -17.8289   26.2177 C   0  0  2  0  0  0  0  0  0  0  0  0
    9.7431  -16.4369   25.9893 N   0  0  0  0  0  0  0  0  0  0  0  0
   11.4235  -17.9516   26.9223 C   0  0  0  0  0  0  0  0  0  0  0  0
   12.3696  -16.9499   26.8120 O   0  0  0  0  0  0  0  0  0  0  0  0
   11.6781  -18.9451   27.6301 O   0  0  0  0  0  0  0  0  0  0  0  0
  2  1  1  0
  2  3  2  0
  4  2  1  0
  5  4  1  0
  5  6  1  1
  7  8  2  0
  7  5  1  0
 10  9  1  1
 10 11  1  0
 10 12  1  0
 13 12  1  1
 13 14  1  0
 14  7  1  0
 15 13  1  0
 15 16  2  0
 18 17  1  0
 18 20  1  0
 19 18  2  0
 21 22  1  0
 21 20  1  6
 22 15  1  0
 23 21  1  0
 24 23  1  0
 25 23  2  0
M  END
$$$$
