NLN.pdb
     RDKit          3D

 25 24  0  0  1  0  0  0  0  0999 V2000
    8.0049  -19.5279   20.0618 N   0  0  0  0  0  0  0  0  0  0  0  0
    7.3464  -18.5087   20.7804 C   0  0  0  0  0  0  0  0  0  0  0  0
    6.1966  -18.1539   20.4503 O   0  0  0  0  0  0  0  0  0  0  0  0
    8.0169  -17.8607   21.9242 C   0  0  0  0  0  0  0  0  0  0  0  0
    7.8046  -16.3673   21.8121 C   0  0  2  0  0  0  0  0  0  0  0  0
    8.2898  -15.8559   20.5430 N   0  0  0  0  0  0  0  0  0  0  0  0
    8.4207  -15.6089   22.9347 C   0  0  0  0  0  0  0  0  0  0  0  0
    9.6237  -15.2334   22.9325 O   0  0  0  0  0  0  0  0  0  0  0  0
    7.5032  -11.4320   25.2382 C   0  0  0  0  0  0  0  0  0  0  0  0
    6.5452  -12.5698   25.2884 C   0  0  2  0  0  0  0  0  0  0  0  0
    5.4009  -12.1399   26.2358 C   0  0  0  0  0  0  0  0  0  0  0  0
    7.0162  -13.8612   25.7976 C   0  0  0  0  0  0  0  0  0  0  0  0
    8.2039  -14.5415   25.2413 C   0  0  2  0  0  0  0  0  0  0  0  0
    7.6448  -15.2819   24.0611 N   0  0  0  0  0  0  0  0  0  0  0  0
    8.8916  -15.5550   26.0165 C   0  0  0  0  0  0  0  0  0  0  0  0
    9.5255  -15.2551   27.0895 O   0  0  0  0  0  0  0  0  0  0  0  0
    6.4643  -19.0994   26.5283 N   0  0  0  0  0  0  0  0  0  0  0  0
    7.7151  -19.1295   27.1893 C   0  0  0  0  0  0  0  0  0  0  0  0
    7.7408  -19.0825   28.4455 O   0  0  0  0  0  0  0  0  0  0  0  0
    8.9755  -19.2163   26.4464 C   0  0  0  0  0  0  0  0  0  0  0  0
    9.7355  -17.8771   26.4658 C   0  0  2  0  0  0  0  0  0  0  0  0
    8.9244  -16.9311   25.6868 N   0  0  0  0  0  0  0  0  0  0  0  0
   11.1047  -18.0011   25.9867 C   0  0  0  0  0  0  0  0  0  0  0  0
   11.4509  -17.4773   24.7552 O   0  0  0  0  0  0  0  0  0  0  0  0
   11.9801  -18.5708   26.6664 O   0  0  0  0  0  0  0  0  0  0  0  0
  2  1  1  0
  2  3  2  0
  4  2  1  0
  5  4  1  0
  5  6  1  6
  7  8  2  0
  7  5  1  0
 10  9  1  1
 10 11  1  0
 10 12  1  0
 13 12  1  1
 13 14  1  0
 14  7  1  0
 15 13  1  0
 15 16  2  0
 18 17  1  0
 18 20  1  0
 19 18  2  0
 21 22  1  0
 21 20  1  6
 22 15  1  0
 23 21  1  0
 24 23  1  0
 25 23  2  0
M  END
$$$$
