MWK.pdb
     RDKit          3D

 32 33  0  0  1  0  0  0  0  0999 V2000
    8.1532  -11.6587   19.4715 C   0  0  0  0  0  0  0  0  0  0  0  0
    6.8243  -12.8301   19.1408 S   0  0  0  0  0  0  0  0  0  0  0  0
    7.2918  -14.5349   19.5148 C   0  0  0  0  0  0  0  0  0  0  0  0
    8.1016  -14.6024   20.7793 C   0  0  0  0  0  0  0  0  0  0  0  0
    8.5595  -15.9890   21.1501 C   0  0  2  0  0  0  0  0  0  0  0  0
    7.3468  -16.8236   21.2325 N   0  0  0  0  0  0  0  0  0  0  0  0
    9.2667  -16.0081   22.4371 C   0  0  0  0  0  0  0  0  0  0  0  0
   10.3553  -15.3704   22.5440 O   0  0  0  0  0  0  0  0  0  0  0  0
    8.7661  -16.7226   23.5717 N   0  0  0  0  0  0  0  0  0  0  0  0
    9.4656  -16.6334   24.8104 C   0  0  1  0  0  0  0  0  0  0  0  0
    8.5394  -16.6537   26.0116 C   0  0  0  0  0  0  0  0  0  0  0  0
    7.4921  -15.6394   25.9207 C   0  0  0  0  0  0  0  0  0  0  0  0
    6.1701  -15.8199   25.5875 C   0  0  0  0  0  0  0  0  0  0  0  0
    5.5423  -14.6101   25.6241 N   0  0  0  0  0  0  0  0  0  0  0  0
    6.4152  -13.6509   25.9703 C   0  0  0  0  0  0  0  0  0  0  0  0
    6.2909  -12.2805   26.1472 C   0  0  0  0  0  0  0  0  0  0  0  0
    7.3535  -11.4856   26.5122 C   0  0  0  0  0  0  0  0  0  0  0  0
    8.5809  -12.1283   26.6995 C   0  0  0  0  0  0  0  0  0  0  0  0
    8.7028  -13.4786   26.5250 C   0  0  0  0  0  0  0  0  0  0  0  0
    7.6303  -14.2768   26.1573 C   0  0  0  0  0  0  0  0  0  0  0  0
   10.3326  -17.8656   24.9233 C   0  0  0  0  0  0  0  0  0  0  0  0
    9.8419  -18.9651   25.2827 O   0  0  0  0  0  0  0  0  0  0  0  0
   11.7163  -17.8147   24.6283 N   0  0  0  0  0  0  0  0  0  0  0  0
   12.6059  -18.9696   24.8283 C   0  0  1  0  0  0  0  0  0  0  0  0
   13.9542  -18.7102   24.2941 C   0  0  0  0  0  0  0  0  0  0  0  0
   14.9133  -19.8349   24.5245 C   0  0  0  0  0  0  0  0  0  0  0  0
   15.8527  -19.9493   23.3509 C   0  0  0  0  0  0  0  0  0  0  0  0
   16.8414  -21.0826   23.6088 C   0  0  0  0  0  0  0  0  0  0  0  0
   17.6286  -21.3109   22.4213 N   0  0  0  0  0  0  0  0  0  0  0  0
   12.6393  -19.3050   26.2712 C   0  0  0  0  0  0  0  0  0  0  0  0
   12.5678  -20.4602   26.7010 O   0  0  0  0  0  0  0  0  0  0  0  0
   12.7562  -18.2915   27.2361 O   0  0  0  0  0  0  0  0  0  0  0  0
  2  1  1  0
  3  2  1  0
  4  3  1  0
  5  7  1  0
  5  4  1  0
  5  6  1  1
  7  8  2  0
  9 10  1  0
  9  7  1  0
 10 11  1  1
 11 12  1  0
 12 13  2  0
 12 20  1  0
 13 14  1  0
 14 15  1  0
 15 16  2  0
 16 17  1  0
 18 17  2  0
 19 18  1  0
 20 19  2  0
 20 15  1  0
 21 10  1  0
 22 21  2  0
 23 21  1  0
 24 25  1  1
 24 23  1  0
 25 26  1  0
 26 27  1  0
 27 28  1  0
 28 29  1  0
 30 24  1  0
 30 32  1  0
 31 30  2  0
M  END
$$$$
