MWK.pdb
     RDKit          3D

 32 33  0  0  1  0  0  0  0  0999 V2000
    8.3189  -11.6828   19.4600 C   0  0  0  0  0  0  0  0  0  0  0  0
    6.8299  -12.6894   19.3280 S   0  0  0  0  0  0  0  0  0  0  0  0
    7.1096  -14.4095   19.8051 C   0  0  0  0  0  0  0  0  0  0  0  0
    8.2414  -14.5146   20.7885 C   0  0  0  0  0  0  0  0  0  0  0  0
    8.5814  -15.9249   21.1956 C   0  0  2  0  0  0  0  0  0  0  0  0
    7.2997  -16.6340   21.3632 N   0  0  0  0  0  0  0  0  0  0  0  0
    9.3424  -15.9659   22.4510 C   0  0  0  0  0  0  0  0  0  0  0  0
   10.4850  -15.4216   22.4893 O   0  0  0  0  0  0  0  0  0  0  0  0
    8.8351  -16.5996   23.6297 N   0  0  0  0  0  0  0  0  0  0  0  0
    9.5939  -16.5309   24.8344 C   0  0  1  0  0  0  0  0  0  0  0  0
    8.7239  -16.5011   26.0766 C   0  0  0  0  0  0  0  0  0  0  0  0
    7.6831  -15.4789   25.9994 C   0  0  0  0  0  0  0  0  0  0  0  0
    6.3545  -15.6502   25.6884 C   0  0  0  0  0  0  0  0  0  0  0  0
    5.7367  -14.4354   25.7313 N   0  0  0  0  0  0  0  0  0  0  0  0
    6.6226  -13.4820   26.0601 C   0  0  0  0  0  0  0  0  0  0  0  0
    6.5118  -12.1100   26.2345 C   0  0  0  0  0  0  0  0  0  0  0  0
    7.5864  -11.3223   26.5796 C   0  0  0  0  0  0  0  0  0  0  0  0
    8.8116  -11.9740   26.7489 C   0  0  0  0  0  0  0  0  0  0  0  0
    8.9202  -13.3257   26.5769 C   0  0  0  0  0  0  0  0  0  0  0  0
    7.8357  -14.1167   26.2293 C   0  0  0  0  0  0  0  0  0  0  0  0
   10.4111  -17.7989   24.9201 C   0  0  0  0  0  0  0  0  0  0  0  0
    9.8586  -18.9250   24.8458 O   0  0  0  0  0  0  0  0  0  0  0  0
   11.8163  -17.7525   25.0859 N   0  0  0  0  0  0  0  0  0  0  0  0
   12.6445  -18.9683   25.1207 C   0  0  1  0  0  0  0  0  0  0  0  0
   13.9805  -18.7268   24.5484 C   0  0  0  0  0  0  0  0  0  0  0  0
   14.9167  -19.8821   24.7117 C   0  0  0  0  0  0  0  0  0  0  0  0
   16.3025  -19.4777   24.2771 C   0  0  0  0  0  0  0  0  0  0  0  0
   17.2525  -20.6560   24.4708 C   0  0  0  0  0  0  0  0  0  0  0  0
   18.1840  -20.7062   23.3702 N   0  0  0  0  0  0  0  0  0  0  0  0
   12.7227  -19.4555   26.5179 C   0  0  0  0  0  0  0  0  0  0  0  0
   12.8847  -20.6431   26.8141 O   0  0  0  0  0  0  0  0  0  0  0  0
   12.6113  -18.5588   27.5927 O   0  0  0  0  0  0  0  0  0  0  0  0
  2  1  1  0
  3  2  1  0
  4  3  1  0
  5  7  1  0
  5  4  1  0
  5  6  1  1
  7  8  2  0
  9 10  1  0
  9  7  1  0
 10 11  1  1
 11 12  1  0
 12 13  2  0
 12 20  1  0
 13 14  1  0
 14 15  1  0
 15 16  2  0
 16 17  1  0
 18 17  2  0
 19 18  1  0
 20 19  2  0
 20 15  1  0
 21 10  1  0
 22 21  2  0
 23 21  1  0
 24 25  1  1
 24 23  1  0
 25 26  1  0
 26 27  1  0
 27 28  1  0
 28 29  1  0
 30 24  1  0
 30 32  1  0
 31 30  2  0
M  END
$$$$
