MWK.pdb
     RDKit          3D

 32 33  0  0  1  0  0  0  0  0999 V2000
    7.6573  -11.4226   20.1021 C   0  0  0  0  0  0  0  0  0  0  0  0
    7.3694  -12.6625   18.8264 S   0  0  0  0  0  0  0  0  0  0  0  0
    6.9705  -14.2857   19.5126 C   0  0  0  0  0  0  0  0  0  0  0  0
    7.3914  -14.3757   20.9527 C   0  0  0  0  0  0  0  0  0  0  0  0
    7.9907  -15.7020   21.3427 C   0  0  2  0  0  0  0  0  0  0  0  0
    6.8685  -16.6506   21.4630 N   0  0  0  0  0  0  0  0  0  0  0  0
    8.7165  -15.6233   22.6170 C   0  0  0  0  0  0  0  0  0  0  0  0
    9.4219  -14.5990   22.8546 O   0  0  0  0  0  0  0  0  0  0  0  0
    8.6521  -16.6647   23.5967 N   0  0  0  0  0  0  0  0  0  0  0  0
    9.4351  -16.5500   24.7822 C   0  0  1  0  0  0  0  0  0  0  0  0
    8.5946  -16.5543   26.0449 C   0  0  0  0  0  0  0  0  0  0  0  0
    7.5075  -15.5800   25.9899 C   0  0  0  0  0  0  0  0  0  0  0  0
    6.2013  -15.7943   25.6171 C   0  0  0  0  0  0  0  0  0  0  0  0
    5.5224  -14.6155   25.7102 N   0  0  0  0  0  0  0  0  0  0  0  0
    6.3471  -13.6437   26.1315 C   0  0  0  0  0  0  0  0  0  0  0  0
    6.1616  -12.2924   26.3855 C   0  0  0  0  0  0  0  0  0  0  0  0
    7.1822  -11.4778   26.8202 C   0  0  0  0  0  0  0  0  0  0  0  0
    8.4316  -12.0798   26.9972 C   0  0  0  0  0  0  0  0  0  0  0  0
    8.6137  -13.4112   26.7468 C   0  0  0  0  0  0  0  0  0  0  0  0
    7.5834  -14.2293   26.3089 C   0  0  0  0  0  0  0  0  0  0  0  0
   10.3160  -17.7754   24.8556 C   0  0  0  0  0  0  0  0  0  0  0  0
    9.8374  -18.9222   24.6688 O   0  0  0  0  0  0  0  0  0  0  0  0
   11.6993  -17.6650   25.1360 N   0  0  0  0  0  0  0  0  0  0  0  0
   12.5648  -18.8436   25.3002 C   0  0  1  0  0  0  0  0  0  0  0  0
   13.7525  -18.7651   24.4320 C   0  0  0  0  0  0  0  0  0  0  0  0
   13.4220  -18.5786   22.9851 C   0  0  0  0  0  0  0  0  0  0  0  0
   14.6920  -18.5588   22.1728 C   0  0  0  0  0  0  0  0  0  0  0  0
   14.3460  -18.3121   20.7072 C   0  0  0  0  0  0  0  0  0  0  0  0
   15.5547  -18.3325   19.9198 N   0  0  0  0  0  0  0  0  0  0  0  0
   12.9337  -18.9722   26.7295 C   0  0  0  0  0  0  0  0  0  0  0  0
   12.6858  -18.1070   27.5747 O   0  0  0  0  0  0  0  0  0  0  0  0
   13.6009  -20.1176   27.1931 O   0  0  0  0  0  0  0  0  0  0  0  0
  2  1  1  0
  3  2  1  0
  4  3  1  0
  5  7  1  0
  5  4  1  0
  5  6  1  1
  7  8  2  0
  9 10  1  0
  9  7  1  0
 10 11  1  1
 11 12  1  0
 12 13  2  0
 12 20  1  0
 13 14  1  0
 14 15  1  0
 15 16  2  0
 16 17  1  0
 18 17  2  0
 19 18  1  0
 20 19  2  0
 20 15  1  0
 21 10  1  0
 22 21  2  0
 23 21  1  0
 24 25  1  6
 24 23  1  0
 25 26  1  0
 26 27  1  0
 27 28  1  0
 28 29  1  0
 30 24  1  0
 30 32  1  0
 31 30  2  0
M  END
$$$$
