MWK.pdb
     RDKit          3D

 32 33  0  0  1  0  0  0  0  0999 V2000
    8.8885  -11.7432   19.5789 C   0  0  0  0  0  0  0  0  0  0  0  0
    7.3599  -12.6655   19.3333 S   0  0  0  0  0  0  0  0  0  0  0  0
    7.5369  -14.4205   19.7249 C   0  0  0  0  0  0  0  0  0  0  0  0
    8.3052  -14.6086   21.0030 C   0  0  0  0  0  0  0  0  0  0  0  0
    8.6406  -16.0427   21.3207 C   0  0  2  0  0  0  0  0  0  0  0  0
    7.3614  -16.7751   21.3554 N   0  0  0  0  0  0  0  0  0  0  0  0
    9.3257  -16.1733   22.6131 C   0  0  0  0  0  0  0  0  0  0  0  0
   10.4873  -15.6856   22.7394 O   0  0  0  0  0  0  0  0  0  0  0  0
    8.7239  -16.8324   23.7319 N   0  0  0  0  0  0  0  0  0  0  0  0
    9.3780  -16.7860   24.9975 C   0  0  1  0  0  0  0  0  0  0  0  0
    8.4084  -16.6518   26.1562 C   0  0  0  0  0  0  0  0  0  0  0  0
    7.4672  -15.5509   25.9662 C   0  0  0  0  0  0  0  0  0  0  0  0
    6.1607  -15.6221   25.5427 C   0  0  0  0  0  0  0  0  0  0  0  0
    5.6453  -14.3603   25.5055 N   0  0  0  0  0  0  0  0  0  0  0  0
    6.5761  -13.4733   25.8913 C   0  0  0  0  0  0  0  0  0  0  0  0
    6.5657  -12.0925   26.0267 C   0  0  0  0  0  0  0  0  0  0  0  0
    7.6685  -11.3856   26.4488 C   0  0  0  0  0  0  0  0  0  0  0  0
    8.8158  -12.1298   26.7392 C   0  0  0  0  0  0  0  0  0  0  0  0
    8.8254  -13.4902   26.6056 C   0  0  0  0  0  0  0  0  0  0  0  0
    7.7127  -14.1997   26.1802 C   0  0  0  0  0  0  0  0  0  0  0  0
   10.0816  -18.1099   25.1852 C   0  0  0  0  0  0  0  0  0  0  0  0
    9.4969  -19.1906   24.9221 O   0  0  0  0  0  0  0  0  0  0  0  0
   11.4138  -18.1682   25.6608 N   0  0  0  0  0  0  0  0  0  0  0  0
   12.1132  -19.4431   25.8857 C   0  0  1  0  0  0  0  0  0  0  0  0
   13.5554  -19.3225   25.6098 C   0  0  0  0  0  0  0  0  0  0  0  0
   14.3279  -20.5651   25.9214 C   0  0  0  0  0  0  0  0  0  0  0  0
   15.7840  -20.3533   25.5928 C   0  0  0  0  0  0  0  0  0  0  0  0
   16.5647  -21.6185   25.9365 C   0  0  0  0  0  0  0  0  0  0  0  0
   17.9696  -21.3947   25.6957 N   0  0  0  0  0  0  0  0  0  0  0  0
   11.8528  -19.8948   27.2727 C   0  0  0  0  0  0  0  0  0  0  0  0
   11.4534  -19.1433   28.1672 O   0  0  0  0  0  0  0  0  0  0  0  0
   12.0568  -21.2359   27.6358 O   0  0  0  0  0  0  0  0  0  0  0  0
  2  1  1  0
  3  2  1  0
  4  3  1  0
  5  7  1  0
  5  4  1  0
  5  6  1  1
  7  8  2  0
  9 10  1  0
  9  7  1  0
 10 11  1  1
 11 12  1  0
 12 13  2  0
 12 20  1  0
 13 14  1  0
 14 15  1  0
 15 16  2  0
 16 17  1  0
 18 17  2  0
 19 18  1  0
 20 19  2  0
 20 15  1  0
 21 10  1  0
 22 21  2  0
 23 21  1  0
 24 25  1  1
 24 23  1  0
 25 26  1  0
 26 27  1  0
 27 28  1  0
 28 29  1  0
 30 24  1  0
 30 32  1  0
 31 30  2  0
M  END
$$$$
