MWK.pdb
     RDKit          3D

 32 33  0  0  1  0  0  0  0  0999 V2000
    7.3419  -11.8863   18.2169 C   0  0  0  0  0  0  0  0  0  0  0  0
    7.6348  -13.1234   16.9396 S   0  0  0  0  0  0  0  0  0  0  0  0
    8.0644  -14.7398   17.6235 C   0  0  0  0  0  0  0  0  0  0  0  0
    8.5790  -14.6062   19.0294 C   0  0  0  0  0  0  0  0  0  0  0  0
    8.9487  -15.9129   19.6821 C   0  0  2  0  0  0  0  0  0  0  0  0
    7.7943  -16.8126   19.5037 N   0  0  0  0  0  0  0  0  0  0  0  0
    9.2379  -15.7498   21.1127 C   0  0  0  0  0  0  0  0  0  0  0  0
   10.3656  -15.2890   21.4580 O   0  0  0  0  0  0  0  0  0  0  0  0
    8.2883  -16.0939   22.1267 N   0  0  0  0  0  0  0  0  0  0  0  0
    8.5809  -15.7787   23.4856 C   0  0  1  0  0  0  0  0  0  0  0  0
    7.3503  -15.7993   24.3722 C   0  0  0  0  0  0  0  0  0  0  0  0
    7.6094  -15.2306   25.6926 C   0  0  0  0  0  0  0  0  0  0  0  0
    8.0722  -15.8787   26.8138 C   0  0  0  0  0  0  0  0  0  0  0  0
    8.1724  -14.9747   27.8296 N   0  0  0  0  0  0  0  0  0  0  0  0
    7.7892  -13.7611   27.4027 C   0  0  0  0  0  0  0  0  0  0  0  0
    7.7045  -12.5244   28.0259 C   0  0  0  0  0  0  0  0  0  0  0  0
    7.2721  -11.3959   27.3674 C   0  0  0  0  0  0  0  0  0  0  0  0
    6.9170  -11.5522   26.0242 C   0  0  0  0  0  0  0  0  0  0  0  0
    7.0007  -12.7709   25.4107 C   0  0  0  0  0  0  0  0  0  0  0  0
    7.4368  -13.9061   26.0769 C   0  0  0  0  0  0  0  0  0  0  0  0
    9.4971  -16.8608   24.0076 C   0  0  0  0  0  0  0  0  0  0  0  0
    9.2202  -18.0744   23.8359 O   0  0  0  0  0  0  0  0  0  0  0  0
   10.6879  -16.5377   24.7018 N   0  0  0  0  0  0  0  0  0  0  0  0
   11.6671  -17.5607   25.1018 C   0  0  1  0  0  0  0  0  0  0  0  0
   13.0433  -17.1438   24.7815 C   0  0  0  0  0  0  0  0  0  0  0  0
   14.0732  -18.1727   25.1254 C   0  0  0  0  0  0  0  0  0  0  0  0
   15.4406  -17.6727   24.7340 C   0  0  0  0  0  0  0  0  0  0  0  0
   16.4946  -18.6643   25.2183 C   0  0  0  0  0  0  0  0  0  0  0  0
   17.7970  -18.2369   24.7680 N   0  0  0  0  0  0  0  0  0  0  0  0
   11.4992  -17.8464   26.5460 C   0  0  0  0  0  0  0  0  0  0  0  0
   11.6534  -18.9683   27.0380 O   0  0  0  0  0  0  0  0  0  0  0  0
   11.1465  -16.8217   27.4390 O   0  0  0  0  0  0  0  0  0  0  0  0
  2  1  1  0
  3  2  1  0
  4  3  1  0
  5  7  1  0
  5  4  1  0
  5  6  1  1
  7  8  2  0
  9 10  1  0
  9  7  1  0
 10 11  1  1
 11 12  1  0
 12 13  2  0
 12 20  1  0
 13 14  1  0
 14 15  1  0
 15 16  2  0
 16 17  1  0
 18 17  2  0
 19 18  1  0
 20 19  2  0
 20 15  1  0
 21 10  1  0
 22 21  2  0
 23 21  1  0
 24 25  1  1
 24 23  1  0
 25 26  1  0
 26 27  1  0
 27 28  1  0
 28 29  1  0
 30 24  1  0
 30 32  1  0
 31 30  2  0
M  END
$$$$
