MWK.pdb
     RDKit          3D

 32 33  0  0  1  0  0  0  0  0999 V2000
    8.7174  -11.7670   19.3596 C   0  0  0  0  0  0  0  0  0  0  0  0
    7.2960  -12.7585   18.8654 S   0  0  0  0  0  0  0  0  0  0  0  0
    7.4742  -14.4999   19.3133 C   0  0  0  0  0  0  0  0  0  0  0  0
    8.2016  -14.6442   20.6207 C   0  0  0  0  0  0  0  0  0  0  0  0
    8.4936  -16.0688   21.0148 C   0  0  2  0  0  0  0  0  0  0  0  0
    7.1890  -16.7396   21.1619 N   0  0  0  0  0  0  0  0  0  0  0  0
    9.2403  -16.1475   22.2770 C   0  0  0  0  0  0  0  0  0  0  0  0
   10.4128  -15.6716   22.3224 O   0  0  0  0  0  0  0  0  0  0  0  0
    8.6865  -16.7431   23.4547 N   0  0  0  0  0  0  0  0  0  0  0  0
    9.4152  -16.6678   24.6774 C   0  0  1  0  0  0  0  0  0  0  0  0
    8.5174  -16.6973   25.8998 C   0  0  0  0  0  0  0  0  0  0  0  0
    7.4527  -15.6996   25.8292 C   0  0  0  0  0  0  0  0  0  0  0  0
    6.1254  -15.9025   25.5317 C   0  0  0  0  0  0  0  0  0  0  0  0
    5.4803  -14.7021   25.5764 N   0  0  0  0  0  0  0  0  0  0  0  0
    6.3471  -13.7274   25.8934 C   0  0  0  0  0  0  0  0  0  0  0  0
    6.2064  -12.3577   26.0643 C   0  0  0  0  0  0  0  0  0  0  0  0
    7.2658  -11.5443   26.3963 C   0  0  0  0  0  0  0  0  0  0  0  0
    8.5073  -12.1670   26.5560 C   0  0  0  0  0  0  0  0  0  0  0  0
    8.6453  -13.5165   26.3875 C   0  0  0  0  0  0  0  0  0  0  0  0
    7.5760  -14.3334   26.0530 C   0  0  0  0  0  0  0  0  0  0  0  0
   10.2810  -17.9033   24.7580 C   0  0  0  0  0  0  0  0  0  0  0  0
    9.7718  -19.0499   24.6869 O   0  0  0  0  0  0  0  0  0  0  0  0
   11.6844  -17.8029   24.9152 N   0  0  0  0  0  0  0  0  0  0  0  0
   12.5636  -18.9828   24.9014 C   0  0  1  0  0  0  0  0  0  0  0  0
   13.8094  -18.7178   24.1609 C   0  0  0  0  0  0  0  0  0  0  0  0
   14.7120  -19.9071   24.0679 C   0  0  0  0  0  0  0  0  0  0  0  0
   15.9557  -19.5414   23.2981 C   0  0  0  0  0  0  0  0  0  0  0  0
   16.7854  -20.7996   23.0589 C   0  0  0  0  0  0  0  0  0  0  0  0
   17.9279  -20.4715   22.2413 N   0  0  0  0  0  0  0  0  0  0  0  0
   12.8300  -19.3987   26.2984 C   0  0  0  0  0  0  0  0  0  0  0  0
   12.7259  -18.6370   27.2646 O   0  0  0  0  0  0  0  0  0  0  0  0
   13.2241  -20.7151   26.5873 O   0  0  0  0  0  0  0  0  0  0  0  0
  2  1  1  0
  3  2  1  0
  4  3  1  0
  5  7  1  0
  5  4  1  0
  5  6  1  1
  7  8  2  0
  9 10  1  0
  9  7  1  0
 10 11  1  1
 11 12  1  0
 12 13  2  0
 12 20  1  0
 13 14  1  0
 14 15  1  0
 15 16  2  0
 16 17  1  0
 18 17  2  0
 19 18  1  0
 20 19  2  0
 20 15  1  0
 21 10  1  0
 22 21  2  0
 23 21  1  0
 24 25  1  1
 24 23  1  0
 25 26  1  0
 26 27  1  0
 27 28  1  0
 28 29  1  0
 30 24  1  0
 30 32  1  0
 31 30  2  0
M  END
$$$$
