MWK.pdb
     RDKit          3D

 32 33  0  0  1  0  0  0  0  0999 V2000
    7.8388  -11.7304   18.4721 C   0  0  0  0  0  0  0  0  0  0  0  0
    7.7861  -13.0449   17.2404 S   0  0  0  0  0  0  0  0  0  0  0  0
    7.8090  -14.6926   17.9815 C   0  0  0  0  0  0  0  0  0  0  0  0
    8.8433  -14.7757   19.0690 C   0  0  0  0  0  0  0  0  0  0  0  0
    8.7746  -16.0328   19.8966 C   0  0  2  0  0  0  0  0  0  0  0  0
    7.4923  -16.6821   19.5682 N   0  0  0  0  0  0  0  0  0  0  0  0
    8.8351  -15.7470   21.3358 C   0  0  0  0  0  0  0  0  0  0  0  0
    9.2868  -14.6270   21.7165 O   0  0  0  0  0  0  0  0  0  0  0  0
    8.4008  -16.6913   22.3196 N   0  0  0  0  0  0  0  0  0  0  0  0
    8.5379  -16.3658   23.7006 C   0  0  1  0  0  0  0  0  0  0  0  0
    7.2028  -16.2132   24.4042 C   0  0  0  0  0  0  0  0  0  0  0  0
    7.3436  -15.6431   25.7418 C   0  0  0  0  0  0  0  0  0  0  0  0
    7.5099  -16.3136   26.9309 C   0  0  0  0  0  0  0  0  0  0  0  0
    7.6000  -15.3988   27.9381 N   0  0  0  0  0  0  0  0  0  0  0  0
    7.4974  -14.1566   27.4397 C   0  0  0  0  0  0  0  0  0  0  0  0
    7.5246  -12.8992   28.0255 C   0  0  0  0  0  0  0  0  0  0  0  0
    7.3961  -11.7420   27.2917 C   0  0  0  0  0  0  0  0  0  0  0  0
    7.2345  -11.8909   25.9109 C   0  0  0  0  0  0  0  0  0  0  0  0
    7.2077  -13.1299   25.3344 C   0  0  0  0  0  0  0  0  0  0  0  0
    7.3375  -14.2941   26.0765 C   0  0  0  0  0  0  0  0  0  0  0  0
    9.2369  -17.5283   24.3660 C   0  0  0  0  0  0  0  0  0  0  0  0
    8.7918  -18.6976   24.2484 O   0  0  0  0  0  0  0  0  0  0  0  0
   10.4078  -17.3323   25.1372 N   0  0  0  0  0  0  0  0  0  0  0  0
   11.1472  -18.4513   25.7424 C   0  0  1  0  0  0  0  0  0  0  0  0
   12.5071  -18.5620   25.1867 C   0  0  0  0  0  0  0  0  0  0  0  0
   13.2758  -19.7294   25.7197 C   0  0  0  0  0  0  0  0  0  0  0  0
   14.6379  -19.7770   25.0754 C   0  0  0  0  0  0  0  0  0  0  0  0
   15.4010  -20.9877   25.6051 C   0  0  0  0  0  0  0  0  0  0  0  0
   16.7397  -20.9830   25.0670 N   0  0  0  0  0  0  0  0  0  0  0  0
   11.1651  -18.2743   27.2135 C   0  0  0  0  0  0  0  0  0  0  0  0
   10.7764  -17.2474   27.7780 O   0  0  0  0  0  0  0  0  0  0  0  0
   11.6402  -19.2982   28.0488 O   0  0  0  0  0  0  0  0  0  0  0  0
  2  1  1  0
  3  2  1  0
  4  3  1  0
  5  7  1  0
  5  4  1  0
  5  6  1  1
  7  8  2  0
  9 10  1  0
  9  7  1  0
 10 11  1  1
 11 12  1  0
 12 13  2  0
 12 20  1  0
 13 14  1  0
 14 15  1  0
 15 16  2  0
 16 17  1  0
 18 17  2  0
 19 18  1  0
 20 19  2  0
 20 15  1  0
 21 10  1  0
 22 21  2  0
 23 21  1  0
 24 25  1  6
 24 23  1  0
 25 26  1  0
 26 27  1  0
 27 28  1  0
 28 29  1  0
 30 24  1  0
 30 32  1  0
 31 30  2  0
M  END
$$$$
