MPK.pdb
     RDKit          3D

 25 25  0  0  1  0  0  0  0  0999 V2000
   24.9429  -24.6722  -13.5986 C   0  0  0  0  0  0  0  0  0  0  0  0
   26.1752  -24.0818  -12.4349 S   0  0  0  0  0  0  0  0  0  0  0  0
   25.7188  -22.4726  -11.7329 C   0  0  0  0  0  0  0  0  0  0  0  0
   25.1569  -21.5490  -12.7868 C   0  0  0  0  0  0  0  0  0  0  0  0
   24.6948  -20.2765  -12.0574 C   0  0  2  0  0  0  0  0  0  0  0  0
   23.4682  -20.6816  -11.3416 N   0  0  0  0  0  0  0  0  0  0  0  0
   24.3790  -19.2078  -13.0367 C   0  0  0  0  0  0  0  0  0  0  0  0
   23.2436  -18.6783  -13.0003 O   0  0  0  0  0  0  0  0  0  0  0  0
   25.3169  -18.7878  -13.9844 N   0  0  0  0  0  0  0  0  0  0  0  0
   26.7333  -19.1804  -13.9558 C   0  0  0  0  0  0  0  0  0  0  0  0
   27.4085  -18.4170  -15.0501 C   0  0  0  0  0  0  0  0  0  0  0  0
   26.4588  -17.3198  -15.4200 C   0  0  0  0  0  0  0  0  0  0  0  0
   25.0883  -17.9560  -15.1277 C   0  0  1  0  0  0  0  0  0  0  0  0
   24.8023  -18.7783  -16.3547 C   0  0  0  0  0  0  0  0  0  0  0  0
   25.5951  -19.7132  -16.6271 O   0  0  0  0  0  0  0  0  0  0  0  0
   23.7108  -18.5550  -17.1951 N   0  0  0  0  0  0  0  0  0  0  0  0
   22.9310  -19.6369  -17.8296 C   0  0  1  0  0  0  0  0  0  0  0  0
   21.7274  -19.9604  -17.0038 C   0  0  0  0  0  0  0  0  0  0  0  0
   20.8524  -20.9762  -17.6410 C   0  0  0  0  0  0  0  0  0  0  0  0
   19.6234  -21.2999  -16.8160 C   0  0  0  0  0  0  0  0  0  0  0  0
   19.6206  -22.7471  -16.3755 C   0  0  0  0  0  0  0  0  0  0  0  0
   18.4348  -23.1099  -15.6623 N   0  0  0  0  0  0  0  0  0  0  0  0
   22.5791  -19.1574  -19.1747 C   0  0  0  0  0  0  0  0  0  0  0  0
   22.3141  -17.9526  -19.3606 O   0  0  0  0  0  0  0  0  0  0  0  0
   22.5327  -20.0157  -20.2550 O   0  0  0  0  0  0  0  0  0  0  0  0
  2  1  1  0
  3  2  1  0
  4  3  1  0
  4  5  1  0
  5  6  1  6
  7  5  1  0
  7  8  2  0
  9  7  1  0
 10  9  1  0
 11 12  1  0
 11 10  1  0
 12 13  1  0
 13  9  1  0
 14 16  1  0
 13 14  1  6
 15 14  2  0
 17 16  1  0
 17 23  1  0
 17 18  1  1
 19 18  1  0
 20 19  1  0
 21 20  1  0
 22 21  1  0
 23 24  2  0
 23 25  1  0
M  END
$$$$
