MPK.pdb
     RDKit          3D

 25 25  0  0  1  0  0  0  0  0999 V2000
   25.7981  -16.2806  -15.7864 C   0  0  0  0  0  0  0  0  0  0  0  0
   27.5589  -16.6236  -15.7274 S   0  0  0  0  0  0  0  0  0  0  0  0
   27.8911  -18.3624  -15.3314 C   0  0  0  0  0  0  0  0  0  0  0  0
   26.6547  -19.0574  -14.8139 C   0  0  0  0  0  0  0  0  0  0  0  0
   27.0660  -20.5021  -14.4843 C   0  0  2  0  0  0  0  0  0  0  0  0
   27.3827  -21.1075  -15.7936 N   0  0  0  0  0  0  0  0  0  0  0  0
   25.9369  -21.2273  -13.8519 C   0  0  0  0  0  0  0  0  0  0  0  0
   25.2803  -22.0371  -14.5474 O   0  0  0  0  0  0  0  0  0  0  0  0
   25.6010  -21.0244  -12.5102 N   0  0  0  0  0  0  0  0  0  0  0  0
   26.3698  -20.1621  -11.6011 C   0  0  0  0  0  0  0  0  0  0  0  0
   25.7632  -20.3265  -10.2442 C   0  0  0  0  0  0  0  0  0  0  0  0
   24.9251  -21.5649  -10.3259 C   0  0  0  0  0  0  0  0  0  0  0  0
   24.4824  -21.5681  -11.7999 C   0  0  1  0  0  0  0  0  0  0  0  0
   23.3077  -20.6285  -11.8267 C   0  0  0  0  0  0  0  0  0  0  0  0
   23.5400  -19.4015  -11.6938 O   0  0  0  0  0  0  0  0  0  0  0  0
   21.9873  -21.0496  -11.9904 N   0  0  0  0  0  0  0  0  0  0  0  0
   21.0446  -20.4357  -12.9473 C   0  0  1  0  0  0  0  0  0  0  0  0
   21.5978  -20.5032  -14.3347 C   0  0  0  0  0  0  0  0  0  0  0  0
   20.6652  -19.9527  -15.3499 C   0  0  0  0  0  0  0  0  0  0  0  0
   21.2024  -20.0534  -16.7631 C   0  0  0  0  0  0  0  0  0  0  0  0
   21.9030  -18.7787  -17.1787 C   0  0  0  0  0  0  0  0  0  0  0  0
   22.4804  -18.8610  -18.4849 N   0  0  0  0  0  0  0  0  0  0  0  0
   19.7788  -21.1717  -12.8089 C   0  0  0  0  0  0  0  0  0  0  0  0
   18.7064  -20.6465  -13.1699 O   0  0  0  0  0  0  0  0  0  0  0  0
   19.7424  -22.4475  -12.2825 O   0  0  0  0  0  0  0  0  0  0  0  0
  2  1  1  0
  3  2  1  0
  4  3  1  0
  4  5  1  0
  5  6  1  6
  7  5  1  0
  7  8  2  0
  9  7  1  0
 10  9  1  0
 11 12  1  0
 11 10  1  0
 12 13  1  0
 13  9  1  0
 14 16  1  0
 13 14  1  1
 15 14  2  0
 17 16  1  0
 17 23  1  0
 17 18  1  6
 19 18  1  0
 20 19  1  0
 21 20  1  0
 22 21  1  0
 23 24  2  0
 23 25  1  0
M  END
$$$$
