MPK.pdb
     RDKit          3D

 25 25  0  0  1  0  0  0  0  0999 V2000
   26.5031  -18.7793   -7.5100 C   0  0  0  0  0  0  0  0  0  0  0  0
   27.1937  -20.3785   -7.9423 S   0  0  0  0  0  0  0  0  0  0  0  0
   26.0187  -21.3824   -8.8920 C   0  0  0  0  0  0  0  0  0  0  0  0
   25.6506  -20.7168  -10.1962 C   0  0  0  0  0  0  0  0  0  0  0  0
   26.3274  -21.5293  -11.3127 C   0  0  2  0  0  0  0  0  0  0  0  0
   27.7735  -21.3073  -11.1113 N   0  0  0  0  0  0  0  0  0  0  0  0
   25.9178  -21.0165  -12.6432 C   0  0  0  0  0  0  0  0  0  0  0  0
   26.2430  -19.8486  -12.9612 O   0  0  0  0  0  0  0  0  0  0  0  0
   25.1866  -21.8067  -13.5349 N   0  0  0  0  0  0  0  0  0  0  0  0
   24.6472  -23.1310  -13.1936 C   0  0  0  0  0  0  0  0  0  0  0  0
   24.0588  -23.6875  -14.4507 C   0  0  0  0  0  0  0  0  0  0  0  0
   24.6187  -22.8525  -15.5607 C   0  0  0  0  0  0  0  0  0  0  0  0
   24.8146  -21.4860  -14.8803 C   0  0  1  0  0  0  0  0  0  0  0  0
   23.4496  -20.8557  -14.9355 C   0  0  0  0  0  0  0  0  0  0  0  0
   22.5416  -21.3704  -14.2372 O   0  0  0  0  0  0  0  0  0  0  0  0
   23.1470  -19.7393  -15.7162 N   0  0  0  0  0  0  0  0  0  0  0  0
   21.8012  -19.1365  -15.7965 C   0  0  1  0  0  0  0  0  0  0  0  0
   21.8725  -17.7966  -16.4559 C   0  0  0  0  0  0  0  0  0  0  0  0
   20.5354  -17.1802  -16.6452 C   0  0  0  0  0  0  0  0  0  0  0  0
   20.5891  -15.8742  -17.4117 C   0  0  0  0  0  0  0  0  0  0  0  0
   19.2188  -15.2427  -17.5214 C   0  0  0  0  0  0  0  0  0  0  0  0
   19.2129  -14.0615  -18.3282 N   0  0  0  0  0  0  0  0  0  0  0  0
   20.9666  -20.0890  -16.5445 C   0  0  0  0  0  0  0  0  0  0  0  0
   19.7709  -20.2550  -16.2302 O   0  0  0  0  0  0  0  0  0  0  0  0
   21.4764  -20.8163  -17.6013 O   0  0  0  0  0  0  0  0  0  0  0  0
  2  1  1  0
  3  2  1  0
  4  3  1  0
  4  5  1  0
  5  6  1  1
  7  5  1  0
  7  8  2  0
  9  7  1  0
 10  9  1  0
 11 12  1  0
 11 10  1  0
 12 13  1  0
 13  9  1  0
 14 16  1  0
 13 14  1  1
 15 14  2  0
 17 16  1  0
 17 23  1  0
 17 18  1  6
 19 18  1  0
 20 19  1  0
 21 20  1  0
 22 21  1  0
 23 24  2  0
 23 25  1  0
M  END
$$$$
