MPK.pdb
     RDKit          3D

 25 25  0  0  1  0  0  0  0  0999 V2000
   28.6659  -19.5567   -4.2823 C   0  0  0  0  0  0  0  0  0  0  0  0
   28.4103  -20.4911   -5.7933 S   0  0  0  0  0  0  0  0  0  0  0  0
   26.6816  -21.0088   -5.9779 C   0  0  0  0  0  0  0  0  0  0  0  0
   26.2168  -20.8839   -7.4089 C   0  0  0  0  0  0  0  0  0  0  0  0
   27.1591  -19.8793   -8.0928 C   0  0  2  0  0  0  0  0  0  0  0  0
   26.9735  -18.6222   -7.3403 N   0  0  0  0  0  0  0  0  0  0  0  0
   26.7630  -19.6839   -9.5090 C   0  0  0  0  0  0  0  0  0  0  0  0
   25.9358  -18.7824   -9.7809 O   0  0  0  0  0  0  0  0  0  0  0  0
   27.2930  -20.4783  -10.5299 N   0  0  0  0  0  0  0  0  0  0  0  0
   28.1565  -21.6433  -10.2884 C   0  0  0  0  0  0  0  0  0  0  0  0
   28.6099  -22.1222  -11.6304 C   0  0  0  0  0  0  0  0  0  0  0  0
   28.3230  -20.9976  -12.5767 C   0  0  0  0  0  0  0  0  0  0  0  0
   27.0874  -20.3367  -11.9403 C   0  0  1  0  0  0  0  0  0  0  0  0
   25.9390  -21.1854  -12.4141 C   0  0  0  0  0  0  0  0  0  0  0  0
   25.7309  -22.2700  -11.8164 O   0  0  0  0  0  0  0  0  0  0  0  0
   25.1034  -20.8297  -13.4736 N   0  0  0  0  0  0  0  0  0  0  0  0
   23.6301  -20.9165  -13.4194 C   0  0  1  0  0  0  0  0  0  0  0  0
   23.0163  -19.7415  -14.1106 C   0  0  0  0  0  0  0  0  0  0  0  0
   21.5325  -19.7741  -14.0860 C   0  0  0  0  0  0  0  0  0  0  0  0
   20.9027  -18.6184  -14.8369 C   0  0  0  0  0  0  0  0  0  0  0  0
   19.3929  -18.6645  -14.7539 C   0  0  0  0  0  0  0  0  0  0  0  0
   18.7642  -17.5735  -15.4327 N   0  0  0  0  0  0  0  0  0  0  0  0
   23.2687  -22.1943  -14.0518 C   0  0  0  0  0  0  0  0  0  0  0  0
   23.9715  -22.6583  -14.9721 O   0  0  0  0  0  0  0  0  0  0  0  0
   22.1564  -22.9065  -13.6500 O   0  0  0  0  0  0  0  0  0  0  0  0
  2  1  1  0
  3  2  1  0
  4  3  1  0
  4  5  1  0
  5  6  1  1
  7  5  1  0
  7  8  2  0
  9  7  1  0
 10  9  1  0
 11 12  1  0
 11 10  1  0
 12 13  1  0
 13  9  1  0
 14 16  1  0
 13 14  1  6
 15 14  2  0
 17 16  1  0
 17 23  1  0
 17 18  1  6
 19 18  1  0
 20 19  1  0
 21 20  1  0
 22 21  1  0
 23 24  2  0
 23 25  1  0
M  END
$$$$
