MPK.pdb
     RDKit          3D

 25 25  0  0  1  0  0  0  0  0999 V2000
   26.6487  -16.8793  -16.2863 C   0  0  0  0  0  0  0  0  0  0  0  0
   28.3650  -17.0682  -15.7960 S   0  0  0  0  0  0  0  0  0  0  0  0
   28.6886  -18.7145  -15.1065 C   0  0  0  0  0  0  0  0  0  0  0  0
   27.4061  -19.4706  -14.8552 C   0  0  0  0  0  0  0  0  0  0  0  0
   27.8007  -20.8004  -14.1914 C   0  0  2  0  0  0  0  0  0  0  0  0
   28.4613  -21.5711  -15.2641 N   0  0  0  0  0  0  0  0  0  0  0  0
   26.5914  -21.5207  -13.7229 C   0  0  0  0  0  0  0  0  0  0  0  0
   26.1697  -22.4872  -14.4002 O   0  0  0  0  0  0  0  0  0  0  0  0
   25.9264  -21.1432  -12.5526 N   0  0  0  0  0  0  0  0  0  0  0  0
   26.3960  -20.0742  -11.6594 C   0  0  0  0  0  0  0  0  0  0  0  0
   25.4876  -20.0827  -10.4716 C   0  0  0  0  0  0  0  0  0  0  0  0
   24.7718  -21.3971  -10.5222 C   0  0  0  0  0  0  0  0  0  0  0  0
   24.7034  -21.6786  -12.0337 C   0  0  1  0  0  0  0  0  0  0  0  0
   23.5158  -20.8795  -12.4971 C   0  0  0  0  0  0  0  0  0  0  0  0
   23.5794  -19.6294  -12.3954 O   0  0  0  0  0  0  0  0  0  0  0  0
   22.3602  -21.4536  -13.0284 N   0  0  0  0  0  0  0  0  0  0  0  0
   21.3311  -20.6918  -13.7643 C   0  0  1  0  0  0  0  0  0  0  0  0
   21.1589  -21.2500  -15.1405 C   0  0  0  0  0  0  0  0  0  0  0  0
   22.3588  -21.0531  -15.9920 C   0  0  0  0  0  0  0  0  0  0  0  0
   22.2442  -21.7317  -17.3420 C   0  0  0  0  0  0  0  0  0  0  0  0
   23.4669  -21.4733  -18.1944 C   0  0  0  0  0  0  0  0  0  0  0  0
   24.3812  -22.5734  -18.2047 N   0  0  0  0  0  0  0  0  0  0  0  0
   20.1011  -20.7795  -12.9627 C   0  0  0  0  0  0  0  0  0  0  0  0
   20.0145  -21.6121  -12.0378 O   0  0  0  0  0  0  0  0  0  0  0  0
   19.0222  -19.9539  -13.2082 O   0  0  0  0  0  0  0  0  0  0  0  0
  2  1  1  0
  3  2  1  0
  4  3  1  0
  4  5  1  0
  5  6  1  6
  7  5  1  0
  7  8  2  0
  9  7  1  0
 10  9  1  0
 11 12  1  0
 11 10  1  0
 12 13  1  0
 13  9  1  0
 14 16  1  0
 13 14  1  6
 15 14  2  0
 17 16  1  0
 17 23  1  0
 17 18  1  6
 19 18  1  0
 20 19  1  0
 21 20  1  0
 22 21  1  0
 23 24  2  0
 23 25  1  0
M  END
$$$$
