MPK.pdb
     RDKit          3D

 25 25  0  0  1  0  0  0  0  0999 V2000
   24.1993  -12.0780  -22.1749 C   0  0  0  0  0  0  0  0  0  0  0  0
   24.1755  -13.8297  -21.7845 S   0  0  0  0  0  0  0  0  0  0  0  0
   24.9363  -14.1686  -20.1730 C   0  0  0  0  0  0  0  0  0  0  0  0
   24.5087  -13.1579  -19.1362 C   0  0  0  0  0  0  0  0  0  0  0  0
   25.0240  -13.6708  -17.7811 C   0  0  2  0  0  0  0  0  0  0  0  0
   24.4689  -15.0342  -17.6629 N   0  0  0  0  0  0  0  0  0  0  0  0
   24.5116  -12.8192  -16.6797 C   0  0  0  0  0  0  0  0  0  0  0  0
   23.4755  -13.1814  -16.0747 O   0  0  0  0  0  0  0  0  0  0  0  0
   25.1598  -11.6367  -16.3113 N   0  0  0  0  0  0  0  0  0  0  0  0
   26.4298  -11.1881  -16.9006 C   0  0  0  0  0  0  0  0  0  0  0  0
   26.8421   -9.9665  -16.1431 C   0  0  0  0  0  0  0  0  0  0  0  0
   26.0163   -9.9702  -14.8939 C   0  0  0  0  0  0  0  0  0  0  0  0
   24.7225  -10.6647  -15.3546 C   0  0  1  0  0  0  0  0  0  0  0  0
   23.9359   -9.5640  -16.0129 C   0  0  0  0  0  0  0  0  0  0  0  0
   24.3141   -9.1747  -17.1453 O   0  0  0  0  0  0  0  0  0  0  0  0
   22.8189   -8.9615  -15.4325 N   0  0  0  0  0  0  0  0  0  0  0  0
   21.8907   -8.0781  -16.1669 C   0  0  1  0  0  0  0  0  0  0  0  0
   20.5866   -8.7726  -16.3953 C   0  0  0  0  0  0  0  0  0  0  0  0
   19.6458   -7.9682  -17.2147 C   0  0  0  0  0  0  0  0  0  0  0  0
   18.3525   -8.6973  -17.5175 C   0  0  0  0  0  0  0  0  0  0  0  0
   17.5127   -7.9369  -18.5201 C   0  0  0  0  0  0  0  0  0  0  0  0
   16.3027   -8.6181  -18.8636 N   0  0  0  0  0  0  0  0  0  0  0  0
   21.7465   -6.8625  -15.3516 C   0  0  0  0  0  0  0  0  0  0  0  0
   21.2648   -5.8264  -15.8522 O   0  0  0  0  0  0  0  0  0  0  0  0
   22.1351   -6.8343  -14.0272 O   0  0  0  0  0  0  0  0  0  0  0  0
  2  1  1  0
  3  2  1  0
  4  3  1  0
  4  5  1  0
  5  6  1  1
  7  5  1  0
  7  8  2  0
  9  7  1  0
 10  9  1  0
 11 12  1  0
 11 10  1  0
 12 13  1  0
 13  9  1  0
 14 16  1  0
 13 14  1  6
 15 14  2  0
 17 16  1  0
 17 23  1  0
 17 18  1  1
 19 18  1  0
 20 19  1  0
 21 20  1  0
 22 21  1  0
 23 24  2  0
 23 25  1  0
M  END
$$$$
