MPK.pdb
     RDKit          3D

 25 25  0  0  1  0  0  0  0  0999 V2000
   23.2077  -22.5402   -7.7148 C   0  0  0  0  0  0  0  0  0  0  0  0
   24.7452  -21.6501   -7.9703 S   0  0  0  0  0  0  0  0  0  0  0  0
   24.5391  -20.2754   -9.1357 C   0  0  0  0  0  0  0  0  0  0  0  0
   24.7485  -20.7237  -10.5622 C   0  0  0  0  0  0  0  0  0  0  0  0
   24.4077  -19.5207  -11.4573 C   0  0  2  0  0  0  0  0  0  0  0  0
   22.9647  -19.2922  -11.2416 N   0  0  0  0  0  0  0  0  0  0  0  0
   24.6597  -19.8510  -12.8815 C   0  0  0  0  0  0  0  0  0  0  0  0
   23.6771  -20.0584  -13.6314 O   0  0  0  0  0  0  0  0  0  0  0  0
   25.9587  -19.9313  -13.3918 N   0  0  0  0  0  0  0  0  0  0  0  0
   27.1620  -19.9784  -12.5486 C   0  0  0  0  0  0  0  0  0  0  0  0
   28.3337  -19.9232  -13.4761 C   0  0  0  0  0  0  0  0  0  0  0  0
   27.7865  -19.4506  -14.7875 C   0  0  0  0  0  0  0  0  0  0  0  0
   26.3517  -20.0068  -14.7671 C   0  0  1  0  0  0  0  0  0  0  0  0
   26.5110  -21.4348  -15.2133 C   0  0  0  0  0  0  0  0  0  0  0  0
   27.0220  -22.2452  -14.4014 O   0  0  0  0  0  0  0  0  0  0  0  0
   26.1227  -21.8971  -16.4714 N   0  0  0  0  0  0  0  0  0  0  0  0
   25.0185  -22.8538  -16.6874 C   0  0  1  0  0  0  0  0  0  0  0  0
   23.7858  -22.3901  -15.9799 C   0  0  0  0  0  0  0  0  0  0  0  0
   22.5911  -23.2031  -16.3193 C   0  0  0  0  0  0  0  0  0  0  0  0
   21.3210  -22.6867  -15.6742 C   0  0  0  0  0  0  0  0  0  0  0  0
   20.1207  -23.5123  -16.0817 C   0  0  0  0  0  0  0  0  0  0  0  0
   18.8825  -22.9545  -15.6321 N   0  0  0  0  0  0  0  0  0  0  0  0
   24.8316  -22.9461  -18.1433 C   0  0  0  0  0  0  0  0  0  0  0  0
   24.5187  -21.9327  -18.7999 O   0  0  0  0  0  0  0  0  0  0  0  0
   24.9950  -24.1410  -18.8151 O   0  0  0  0  0  0  0  0  0  0  0  0
  2  1  1  0
  3  2  1  0
  4  3  1  0
  4  5  1  0
  5  6  1  6
  7  5  1  0
  7  8  2  0
  9  7  1  0
 10  9  1  0
 11 12  1  0
 11 10  1  0
 12 13  1  0
 13  9  1  0
 14 16  1  0
 13 14  1  1
 15 14  2  0
 17 16  1  0
 17 23  1  0
 17 18  1  1
 19 18  1  0
 20 19  1  0
 21 20  1  0
 22 21  1  0
 23 24  2  0
 23 25  1  0
M  END
$$$$
