MPK.pdb
     RDKit          3D

 25 25  0  0  1  0  0  0  0  0999 V2000
   15.9083   -9.0415  -20.0279 C   0  0  0  0  0  0  0  0  0  0  0  0
   15.8720   -8.9357  -18.2365 S   0  0  0  0  0  0  0  0  0  0  0  0
   17.4151   -9.5382  -17.4973 C   0  0  0  0  0  0  0  0  0  0  0  0
   17.3045   -9.6432  -15.9952 C   0  0  0  0  0  0  0  0  0  0  0  0
   18.6436  -10.2080  -15.4926 C   0  0  2  0  0  0  0  0  0  0  0  0
   18.5710  -11.6541  -15.7834 N   0  0  0  0  0  0  0  0  0  0  0  0
   18.7769   -9.9925  -14.0308 C   0  0  0  0  0  0  0  0  0  0  0  0
   18.3197  -10.8622  -13.2528 O   0  0  0  0  0  0  0  0  0  0  0  0
   19.3981   -8.8506  -13.5165 N   0  0  0  0  0  0  0  0  0  0  0  0
   19.9910   -7.7997  -14.3563 C   0  0  0  0  0  0  0  0  0  0  0  0
   20.6615   -6.8398  -13.4261 C   0  0  0  0  0  0  0  0  0  0  0  0
   20.7786   -7.5616  -12.1193 C   0  0  0  0  0  0  0  0  0  0  0  0
   19.5476   -8.4850  -12.1398 C   0  0  1  0  0  0  0  0  0  0  0  0
   18.4219   -7.5971  -11.6838 C   0  0  0  0  0  0  0  0  0  0  0  0
   18.0061   -6.7251  -12.4861 O   0  0  0  0  0  0  0  0  0  0  0  0
   17.8241   -7.6946  -10.4266 N   0  0  0  0  0  0  0  0  0  0  0  0
   16.5071   -7.1124  -10.0986 C   0  0  1  0  0  0  0  0  0  0  0  0
   15.5535   -8.1878   -9.6872 C   0  0  0  0  0  0  0  0  0  0  0  0
   14.2045   -7.6618   -9.3597 C   0  0  0  0  0  0  0  0  0  0  0  0
   13.2223   -8.7498   -8.9756 C   0  0  0  0  0  0  0  0  0  0  0  0
   11.8561   -8.1764   -8.6706 C   0  0  0  0  0  0  0  0  0  0  0  0
   10.9111   -9.1724   -8.2689 N   0  0  0  0  0  0  0  0  0  0  0  0
   16.7448   -6.1307   -9.0295 C   0  0  0  0  0  0  0  0  0  0  0  0
   17.6453   -6.3264   -8.1887 O   0  0  0  0  0  0  0  0  0  0  0  0
   15.9881   -4.9806   -8.9278 O   0  0  0  0  0  0  0  0  0  0  0  0
  2  1  1  0
  3  2  1  0
  4  3  1  0
  4  5  1  0
  5  6  1  1
  7  5  1  0
  7  8  2  0
  9  7  1  0
 10  9  1  0
 11 12  1  0
 11 10  1  0
 12 13  1  0
 13  9  1  0
 14 16  1  0
 13 14  1  6
 15 14  2  0
 17 16  1  0
 17 23  1  0
 17 18  1  1
 19 18  1  0
 20 19  1  0
 21 20  1  0
 22 21  1  0
 23 24  2  0
 23 25  1  0
M  END
$$$$
