MPK.pdb
     RDKit          3D

 25 25  0  0  1  0  0  0  0  0999 V2000
   19.7058   -8.0739  -21.0917 C   0  0  0  0  0  0  0  0  0  0  0  0
   20.3805   -9.6834  -20.6719 S   0  0  0  0  0  0  0  0  0  0  0  0
   21.3731   -9.6201  -19.1550 C   0  0  0  0  0  0  0  0  0  0  0  0
   20.7740   -8.6752  -18.1412 C   0  0  0  0  0  0  0  0  0  0  0  0
   21.4694   -8.9671  -16.8010 C   0  0  2  0  0  0  0  0  0  0  0  0
   21.1271  -10.3722  -16.5016 N   0  0  0  0  0  0  0  0  0  0  0  0
   20.9347   -8.0794  -15.7395 C   0  0  0  0  0  0  0  0  0  0  0  0
   20.0006   -8.5024  -15.0189 O   0  0  0  0  0  0  0  0  0  0  0  0
   21.4518   -6.7970  -15.5334 N   0  0  0  0  0  0  0  0  0  0  0  0
   22.5426   -6.2220  -16.3338 C   0  0  0  0  0  0  0  0  0  0  0  0
   22.8805   -4.9061  -15.7091 C   0  0  0  0  0  0  0  0  0  0  0  0
   22.2570   -4.9353  -14.3479 C   0  0  0  0  0  0  0  0  0  0  0  0
   21.0239   -5.8295  -14.5679 C   0  0  1  0  0  0  0  0  0  0  0  0
   19.9978   -4.8943  -15.1477 C   0  0  0  0  0  0  0  0  0  0  0  0
   20.1148   -4.5790  -16.3577 O   0  0  0  0  0  0  0  0  0  0  0  0
   18.9345   -4.3662  -14.4144 N   0  0  0  0  0  0  0  0  0  0  0  0
   17.7997   -3.6426  -15.0226 C   0  0  1  0  0  0  0  0  0  0  0  0
   16.5109   -4.3180  -14.6786 C   0  0  0  0  0  0  0  0  0  0  0  0
   15.3299   -3.6192  -15.2447 C   0  0  0  0  0  0  0  0  0  0  0  0
   14.0237   -4.3255  -14.9431 C   0  0  0  0  0  0  0  0  0  0  0  0
   12.8553   -3.6305  -15.6067 C   0  0  0  0  0  0  0  0  0  0  0  0
   11.6190   -4.3282  -15.4302 N   0  0  0  0  0  0  0  0  0  0  0  0
   17.8677   -2.2650  -14.5120 C   0  0  0  0  0  0  0  0  0  0  0  0
   18.1227   -2.0548  -13.3092 O   0  0  0  0  0  0  0  0  0  0  0  0
   17.6540   -1.1802  -15.3388 O   0  0  0  0  0  0  0  0  0  0  0  0
  2  1  1  0
  3  2  1  0
  4  3  1  0
  4  5  1  0
  5  6  1  1
  7  5  1  0
  7  8  2  0
  9  7  1  0
 10  9  1  0
 11 12  1  0
 11 10  1  0
 12 13  1  0
 13  9  1  0
 14 16  1  0
 13 14  1  6
 15 14  2  0
 17 16  1  0
 17 23  1  0
 17 18  1  1
 19 18  1  0
 20 19  1  0
 21 20  1  0
 22 21  1  0
 23 24  2  0
 23 25  1  0
M  END
$$$$
