RPR.pdb
     RDKit          3D

 30 30  0  0  1  0  0  0  0  0999 V2000
    8.0650  -16.4093   12.6682 N   0  0  0  0  0  0  0  0  0  0  0  0
    6.9173  -17.2544   12.6748 C   0  0  0  0  0  0  0  0  0  0  0  0
    6.1239  -17.2530   11.6658 N   0  0  0  0  0  0  0  0  0  0  0  0
    6.6440  -18.0948   13.7835 N   0  0  0  0  0  0  0  0  0  0  0  0
    7.4577  -18.0824   14.9952 C   0  0  0  0  0  0  0  0  0  0  0  0
    7.5427  -16.6727   15.5017 C   0  0  0  0  0  0  0  0  0  0  0  0
    8.3483  -16.6047   16.7664 C   0  0  0  0  0  0  0  0  0  0  0  0
    9.3055  -15.4151   16.7521 C   0  0  2  0  0  0  0  0  0  0  0  0
   10.2991  -15.6790   15.7908 N   0  0  0  0  0  0  0  0  0  0  0  0
    9.6891  -15.1282   18.1289 C   0  0  0  0  0  0  0  0  0  0  0  0
   10.7193  -15.8186   18.5136 O   0  0  0  0  0  0  0  0  0  0  0  0
    5.2641  -17.8136   11.5999 N   0  0  0  0  0  0  0  0  0  0  0  0
    9.1394  -14.2526   19.0702 C   0  0  0  0  0  0  0  0  0  0  0  0
    8.7062  -12.8629   18.7248 C   0  0  0  0  0  0  0  0  0  0  0  0
    7.2992  -12.8767   19.3223 C   0  0  0  0  0  0  0  0  0  0  0  0
    7.3129  -13.9747   20.3918 C   0  0  2  0  0  0  0  0  0  0  0  0
    8.8089  -14.2917   20.4515 C   0  0  0  0  0  0  0  0  0  0  0  0
    9.1193  -15.4089   21.2926 O   0  0  0  0  0  0  0  0  0  0  0  0
    8.5843  -16.5224   21.2024 N   0  0  0  0  0  0  0  0  0  0  0  0
   14.0854  -18.9880   19.3392 C   0  0  0  0  0  0  0  0  0  0  0  0
   14.4270  -19.8339   20.4227 N   0  0  0  0  0  0  0  0  0  0  0  0
   14.7816  -21.0435   20.1274 N   0  0  0  0  0  0  0  0  0  0  0  0
   14.3946  -19.4127   21.7692 C   0  0  0  0  0  0  0  0  0  0  0  0
   13.9031  -18.0395   22.0150 C   0  0  0  0  0  0  0  0  0  0  0  0
   12.4896  -18.0417   22.4339 C   0  0  0  0  0  0  0  0  0  0  0  0
   11.8840  -16.7516   22.6856 C   0  0  2  0  0  0  0  0  0  0  0  0
   10.5059  -16.5099   23.1335 N   0  0  0  0  0  0  0  0  0  0  0  0
   10.1117  -15.2962   22.3337 C   0  0  0  0  0  0  0  0  0  0  0  0
   10.1849  -16.1786   24.5005 O   0  0  0  0  0  0  0  0  0  0  0  0
   10.0441  -14.9421   24.8422 O   0  0  0  0  0  0  0  0  0  0  0  0
  1  2  1  0
  2  4  1  0
  3  2  2  0
  4  5  1  0
  6  7  1  0
  6  5  1  0
  7  8  1  0
  8  9  1  6
 10 12  1  0
 10  8  1  0
 11 10  2  0
 12 16  1  0
 13 14  1  0
 13 12  1  0
 14 15  1  0
 16 15  1  0
 16 17  1  1
 17 27  1  0
 18 17  2  0
 20 19  1  0
 20 22  1  0
 21 20  2  0
 22 23  1  0
 23 24  1  0
 24 25  1  0
 26 27  1  0
 26 28  1  0
 26 25  1  6
 28 29  2  0
 28 30  1  0
M  END
$$$$
