RPR.pdb
     RDKit          3D

 30 30  0  0  1  0  0  0  0  0999 V2000
   15.4536  -14.1136   17.9248 N   0  0  0  0  0  0  0  0  0  0  0  0
   15.4246  -14.5610   19.2777 C   0  0  0  0  0  0  0  0  0  0  0  0
   16.3877  -14.2519   20.0679 N   0  0  0  0  0  0  0  0  0  0  0  0
   14.3440  -15.3432   19.7581 N   0  0  0  0  0  0  0  0  0  0  0  0
   13.1278  -15.5603   18.9808 C   0  0  0  0  0  0  0  0  0  0  0  0
   12.1787  -14.4296   19.2491 C   0  0  0  0  0  0  0  0  0  0  0  0
   10.9093  -14.5975   18.4659 C   0  0  0  0  0  0  0  0  0  0  0  0
    9.9146  -13.4806   18.7740 C   0  0  2  0  0  0  0  0  0  0  0  0
   10.5782  -12.2542   18.5833 N   0  0  0  0  0  0  0  0  0  0  0  0
    9.2911  -13.7736   20.0587 C   0  0  0  0  0  0  0  0  0  0  0  0
   10.1580  -13.8903   21.0185 O   0  0  0  0  0  0  0  0  0  0  0  0
   16.4481  -14.5399   21.0535 N   0  0  0  0  0  0  0  0  0  0  0  0
    7.9480  -13.9423   20.4087 C   0  0  0  0  0  0  0  0  0  0  0  0
    6.8547  -13.0851   19.8536 C   0  0  0  0  0  0  0  0  0  0  0  0
    5.8852  -14.1731   19.3915 C   0  0  0  0  0  0  0  0  0  0  0  0
    6.2291  -15.4154   20.2210 C   0  0  2  0  0  0  0  0  0  0  0  0
    7.1968  -14.8135   21.2425 C   0  0  0  0  0  0  0  0  0  0  0  0
    7.8069  -15.7926   22.0919 O   0  0  0  0  0  0  0  0  0  0  0  0
    8.8552  -16.3954   21.8238 N   0  0  0  0  0  0  0  0  0  0  0  0
   11.1898  -13.7394   29.5249 C   0  0  0  0  0  0  0  0  0  0  0  0
   10.6541  -15.0486   29.5958 N   0  0  0  0  0  0  0  0  0  0  0  0
   10.2880  -15.4651   30.7657 N   0  0  0  0  0  0  0  0  0  0  0  0
   10.5112  -15.8850   28.4682 C   0  0  0  0  0  0  0  0  0  0  0  0
    9.4962  -15.4761   27.4732 C   0  0  0  0  0  0  0  0  0  0  0  0
    9.4745  -16.3938   26.3195 C   0  0  0  0  0  0  0  0  0  0  0  0
    8.5345  -16.0878   25.2627 C   0  0  2  0  0  0  0  0  0  0  0  0
    7.9508  -17.0450   24.3132 N   0  0  0  0  0  0  0  0  0  0  0  0
    7.2115  -16.1460   23.3575 C   0  0  0  0  0  0  0  0  0  0  0  0
    6.9863  -18.0402   24.7141 O   0  0  0  0  0  0  0  0  0  0  0  0
    7.3768  -19.0807   25.3699 O   0  0  0  0  0  0  0  0  0  0  0  0
  1  2  1  0
  2  4  1  0
  3  2  2  0
  4  5  1  0
  6  7  1  0
  6  5  1  0
  7  8  1  0
  8  9  1  1
 10 12  1  0
 10  8  1  0
 11 10  2  0
 12 16  1  0
 13 14  1  0
 13 12  1  0
 14 15  1  0
 16 15  1  0
 16 17  1  6
 17 27  1  0
 18 17  2  0
 20 19  1  0
 20 22  1  0
 21 20  2  0
 22 23  1  0
 23 24  1  0
 24 25  1  0
 26 27  1  0
 26 28  1  0
 26 25  1  6
 28 29  2  0
 28 30  1  0
M  END
$$$$
