RPR.pdb
     RDKit          3D

 30 30  0  0  1  0  0  0  0  0999 V2000
   10.0346  -21.3362   18.4836 N   0  0  0  0  0  0  0  0  0  0  0  0
    9.4232  -21.3695   17.1966 C   0  0  0  0  0  0  0  0  0  0  0  0
    9.5016  -22.4352   16.4854 N   0  0  0  0  0  0  0  0  0  0  0  0
    8.7309  -20.2383   16.6950 N   0  0  0  0  0  0  0  0  0  0  0  0
    8.6849  -18.9672   17.4109 C   0  0  0  0  0  0  0  0  0  0  0  0
    7.8685  -17.9952   16.6110 C   0  0  0  0  0  0  0  0  0  0  0  0
    7.5576  -16.7666   17.4151 C   0  0  0  0  0  0  0  0  0  0  0  0
    8.6210  -15.6889   17.2166 C   0  0  2  0  0  0  0  0  0  0  0  0
    9.5019  -16.1385   16.2153 N   0  0  0  0  0  0  0  0  0  0  0  0
    9.1425  -15.3229   18.5278 C   0  0  0  0  0  0  0  0  0  0  0  0
   10.0921  -16.1144   18.9253 O   0  0  0  0  0  0  0  0  0  0  0  0
    9.1634  -22.5159   15.5174 N   0  0  0  0  0  0  0  0  0  0  0  0
    8.7922  -14.2851   19.3968 C   0  0  0  0  0  0  0  0  0  0  0  0
    8.5343  -12.8889   18.9252 C   0  0  0  0  0  0  0  0  0  0  0  0
    7.1872  -12.6343   19.6016 C   0  0  0  0  0  0  0  0  0  0  0  0
    7.1253  -13.6083   20.7836 C   0  0  2  0  0  0  0  0  0  0  0  0
    8.5623  -14.1349   20.7908 C   0  0  0  0  0  0  0  0  0  0  0  0
    8.7738  -15.1947   21.7310 O   0  0  0  0  0  0  0  0  0  0  0  0
    8.0517  -16.1962   21.8304 N   0  0  0  0  0  0  0  0  0  0  0  0
   15.2135  -20.0274   21.4919 C   0  0  0  0  0  0  0  0  0  0  0  0
   14.5313  -20.6465   22.5677 N   0  0  0  0  0  0  0  0  0  0  0  0
   14.9331  -21.8292   22.9082 N   0  0  0  0  0  0  0  0  0  0  0  0
   13.4633  -20.0340   23.2576 C   0  0  0  0  0  0  0  0  0  0  0  0
   13.0053  -18.7297   22.7317 C   0  0  0  0  0  0  0  0  0  0  0  0
   11.8218  -18.2413   23.4627 C   0  0  0  0  0  0  0  0  0  0  0  0
   11.2746  -16.9704   23.0391 C   0  0  2  0  0  0  0  0  0  0  0  0
   10.1059  -16.2910   23.6144 N   0  0  0  0  0  0  0  0  0  0  0  0
    9.8835  -15.1542   22.6519 C   0  0  0  0  0  0  0  0  0  0  0  0
   10.1342  -15.6772   24.9197 O   0  0  0  0  0  0  0  0  0  0  0  0
   10.4034  -14.4198   25.0288 O   0  0  0  0  0  0  0  0  0  0  0  0
  1  2  1  0
  2  4  1  0
  3  2  2  0
  4  5  1  0
  6  7  1  0
  6  5  1  0
  7  8  1  0
  8  9  1  6
 10 12  1  0
 10  8  1  0
 11 10  2  0
 12 16  1  0
 13 14  1  0
 13 12  1  0
 14 15  1  0
 16 15  1  0
 16 17  1  6
 17 27  1  0
 18 17  2  0
 20 19  1  0
 20 22  1  0
 21 20  2  0
 22 23  1  0
 23 24  1  0
 24 25  1  0
 26 27  1  0
 26 28  1  0
 26 25  1  6
 28 29  2  0
 28 30  1  0
M  END
$$$$
