RPR.pdb
     RDKit          3D

 30 30  0  0  1  0  0  0  0  0999 V2000
   11.4687  -16.6437   14.0737 N   0  0  0  0  0  0  0  0  0  0  0  0
   10.1725  -16.3737   13.5461 C   0  0  0  0  0  0  0  0  0  0  0  0
    9.7985  -16.9471   12.4603 N   0  0  0  0  0  0  0  0  0  0  0  0
    9.2939  -15.4790   14.2078 N   0  0  0  0  0  0  0  0  0  0  0  0
    8.8100  -15.7162   15.5642 C   0  0  0  0  0  0  0  0  0  0  0  0
    9.0981  -14.5010   16.3959 C   0  0  0  0  0  0  0  0  0  0  0  0
    9.3106  -14.8734   17.8343 C   0  0  0  0  0  0  0  0  0  0  0  0
    8.7289  -13.8187   18.7729 C   0  0  2  0  0  0  0  0  0  0  0  0
    9.3608  -12.5950   18.4830 N   0  0  0  0  0  0  0  0  0  0  0  0
    8.7698  -14.3505   20.1296 C   0  0  0  0  0  0  0  0  0  0  0  0
    9.9317  -14.1995   20.6894 O   0  0  0  0  0  0  0  0  0  0  0  0
    8.8801  -16.8131   12.0170 N   0  0  0  0  0  0  0  0  0  0  0  0
    7.7847  -14.9770   20.8989 C   0  0  0  0  0  0  0  0  0  0  0  0
    6.3657  -14.5043   20.9351 C   0  0  0  0  0  0  0  0  0  0  0  0
    5.6479  -15.8258   20.6605 C   0  0  0  0  0  0  0  0  0  0  0  0
    6.6317  -16.9264   21.0734 C   0  0  2  0  0  0  0  0  0  0  0  0
    7.7085  -16.0942   21.7734 C   0  0  0  0  0  0  0  0  0  0  0  0
    8.8571  -16.8593   22.1572 O   0  0  0  0  0  0  0  0  0  0  0  0
    9.6193  -17.4241   21.3608 N   0  0  0  0  0  0  0  0  0  0  0  0
   11.3688  -15.0523   30.1038 C   0  0  0  0  0  0  0  0  0  0  0  0
   10.5291  -14.3933   29.1728 N   0  0  0  0  0  0  0  0  0  0  0  0
    9.6810  -13.5421   29.6548 N   0  0  0  0  0  0  0  0  0  0  0  0
   10.5870  -14.6275   27.7824 C   0  0  0  0  0  0  0  0  0  0  0  0
   10.5801  -16.0435   27.3552 C   0  0  0  0  0  0  0  0  0  0  0  0
   10.5877  -16.1613   25.8856 C   0  0  0  0  0  0  0  0  0  0  0  0
   10.5971  -17.5020   25.3408 C   0  0  2  0  0  0  0  0  0  0  0  0
   10.3870  -17.8713   23.9345 N   0  0  0  0  0  0  0  0  0  0  0  0
    9.2050  -17.0219   23.5478 C   0  0  0  0  0  0  0  0  0  0  0  0
   10.0338  -19.2110   23.5321 O   0  0  0  0  0  0  0  0  0  0  0  0
   10.9611  -20.0411   23.1908 O   0  0  0  0  0  0  0  0  0  0  0  0
  1  2  1  0
  2  4  1  0
  3  2  2  0
  4  5  1  0
  6  7  1  0
  6  5  1  0
  7  8  1  0
  8  9  1  1
 10 12  1  0
 10  8  1  0
 11 10  2  0
 12 16  1  0
 13 14  1  0
 13 12  1  0
 14 15  1  0
 16 15  1  0
 16 17  1  6
 17 27  1  0
 18 17  2  0
 20 19  1  0
 20 22  1  0
 21 20  2  0
 22 23  1  0
 23 24  1  0
 24 25  1  0
 26 27  1  0
 26 28  1  0
 26 25  1  6
 28 29  2  0
 28 30  1  0
M  END
$$$$
