RPR.pdb
     RDKit          3D

 30 30  0  0  1  0  0  0  0  0999 V2000
    4.9170  -20.3648   22.5253 N   0  0  0  0  0  0  0  0  0  0  0  0
    6.1081  -21.1080   22.2795 C   0  0  0  0  0  0  0  0  0  0  0  0
    6.6792  -21.7276   23.2476 N   0  0  0  0  0  0  0  0  0  0  0  0
    6.6674  -21.1687   20.9780 N   0  0  0  0  0  0  0  0  0  0  0  0
    6.3821  -20.1672   19.9553 C   0  0  0  0  0  0  0  0  0  0  0  0
    7.5789  -19.2737   19.8116 C   0  0  0  0  0  0  0  0  0  0  0  0
    7.1662  -17.8807   19.4346 C   0  0  0  0  0  0  0  0  0  0  0  0
    8.3040  -17.1318   18.7444 C   0  0  2  0  0  0  0  0  0  0  0  0
    9.0742  -18.0787   18.0436 N   0  0  0  0  0  0  0  0  0  0  0  0
    8.9411  -16.2696   19.7323 C   0  0  0  0  0  0  0  0  0  0  0  0
    9.9876  -16.8175   20.2713 O   0  0  0  0  0  0  0  0  0  0  0  0
    7.5172  -22.3159   23.1493 N   0  0  0  0  0  0  0  0  0  0  0  0
    8.6127  -14.9849   20.1756 C   0  0  0  0  0  0  0  0  0  0  0  0
    7.9192  -13.9833   19.3072 C   0  0  0  0  0  0  0  0  0  0  0  0
    6.7890  -13.5665   20.2485 C   0  0  0  0  0  0  0  0  0  0  0  0
    7.2816  -13.8986   21.6615 C   0  0  2  0  0  0  0  0  0  0  0  0
    8.7465  -14.2383   21.3770 C   0  0  0  0  0  0  0  0  0  0  0  0
    9.4476  -14.7328   22.5241 O   0  0  0  0  0  0  0  0  0  0  0  0
   10.4035  -14.1570   23.0616 N   0  0  0  0  0  0  0  0  0  0  0  0
    4.9366  -11.1856   25.8316 C   0  0  0  0  0  0  0  0  0  0  0  0
    6.0933  -11.8112   26.3577 N   0  0  0  0  0  0  0  0  0  0  0  0
    7.0407  -11.0309   26.7697 N   0  0  0  0  0  0  0  0  0  0  0  0
    6.2397  -13.2122   26.4446 C   0  0  0  0  0  0  0  0  0  0  0  0
    7.6262  -13.7246   26.4938 C   0  0  0  0  0  0  0  0  0  0  0  0
    7.8640  -14.7326   25.4445 C   0  0  0  0  0  0  0  0  0  0  0  0
    9.2064  -15.2642   25.3457 C   0  0  1  0  0  0  0  0  0  0  0  0
    9.6444  -16.3659   24.4781 N   0  0  0  0  0  0  0  0  0  0  0  0
    9.0653  -15.9787   23.1428 C   0  0  0  0  0  0  0  0  0  0  0  0
    9.2226  -17.7294   24.6886 O   0  0  0  0  0  0  0  0  0  0  0  0
    9.7914  -18.4402   25.6033 O   0  0  0  0  0  0  0  0  0  0  0  0
  1  2  1  0
  2  4  1  0
  3  2  2  0
  4  5  1  0
  6  7  1  0
  6  5  1  0
  7  8  1  0
  8  9  1  1
 10 12  1  0
 10  8  1  0
 11 10  2  0
 12 16  1  0
 13 14  1  0
 13 12  1  0
 14 15  1  0
 16 15  1  0
 16 17  1  1
 17 27  1  0
 18 17  2  0
 20 19  1  0
 20 22  1  0
 21 20  2  0
 22 23  1  0
 23 24  1  0
 24 25  1  0
 26 27  1  0
 26 28  1  0
 26 25  1  6
 28 29  2  0
 28 30  1  0
M  END
$$$$
