RPR.pdb
     RDKit          3D

 30 30  0  0  1  0  0  0  0  0999 V2000
    9.1516  -15.7289   12.8771 N   0  0  0  0  0  0  0  0  0  0  0  0
    8.0529  -15.0193   13.4434 C   0  0  0  0  0  0  0  0  0  0  0  0
    7.6311  -13.9476   12.8767 N   0  0  0  0  0  0  0  0  0  0  0  0
    7.4227  -15.4850   14.6251 N   0  0  0  0  0  0  0  0  0  0  0  0
    7.7609  -16.7642   15.2412 C   0  0  0  0  0  0  0  0  0  0  0  0
    9.1466  -16.6718   15.8091 C   0  0  0  0  0  0  0  0  0  0  0  0
    9.1052  -16.3577   17.2763 C   0  0  0  0  0  0  0  0  0  0  0  0
   10.2484  -15.4284   17.6778 C   0  0  2  0  0  0  0  0  0  0  0  0
   11.4346  -15.9497   17.1284 N   0  0  0  0  0  0  0  0  0  0  0  0
   10.1575  -15.1960   19.1141 C   0  0  0  0  0  0  0  0  0  0  0  0
   10.9406  -15.9758   19.7958 O   0  0  0  0  0  0  0  0  0  0  0  0
    6.8058  -13.4141   13.1801 N   0  0  0  0  0  0  0  0  0  0  0  0
    9.3843  -14.2926   19.8495 C   0  0  0  0  0  0  0  0  0  0  0  0
    9.0360  -12.9284   19.3435 C   0  0  0  0  0  0  0  0  0  0  0  0
    7.5253  -12.9461   19.5770 C   0  0  0  0  0  0  0  0  0  0  0  0
    7.2859  -13.9965   20.6674 C   0  0  2  0  0  0  0  0  0  0  0  0
    8.7241  -14.2792   21.1075 C   0  0  0  0  0  0  0  0  0  0  0  0
    8.8287  -15.3524   22.0505 O   0  0  0  0  0  0  0  0  0  0  0  0
    8.0263  -16.2926   22.1321 N   0  0  0  0  0  0  0  0  0  0  0  0
   10.2829  -20.7490   20.9211 C   0  0  0  0  0  0  0  0  0  0  0  0
   11.6504  -20.6518   20.5649 N   0  0  0  0  0  0  0  0  0  0  0  0
   12.2257  -21.7396   20.1626 N   0  0  0  0  0  0  0  0  0  0  0  0
   12.3804  -19.4460   20.6318 C   0  0  0  0  0  0  0  0  0  0  0  0
   12.4366  -18.7862   21.9543 C   0  0  0  0  0  0  0  0  0  0  0  0
   11.1797  -18.0765   22.2546 C   0  0  0  0  0  0  0  0  0  0  0  0
   11.1426  -17.3106   23.4819 C   0  0  2  0  0  0  0  0  0  0  0  0
   10.0041  -16.5316   23.9873 N   0  0  0  0  0  0  0  0  0  0  0  0
    9.9172  -15.4012   22.9959 C   0  0  0  0  0  0  0  0  0  0  0  0
   10.0178  -15.8949   25.2819 O   0  0  0  0  0  0  0  0  0  0  0  0
    9.9877  -16.6182   26.3501 O   0  0  0  0  0  0  0  0  0  0  0  0
  1  2  1  0
  2  4  1  0
  3  2  2  0
  4  5  1  0
  6  7  1  0
  6  5  1  0
  7  8  1  0
  8  9  1  1
 10 12  1  0
 10  8  1  0
 11 10  2  0
 12 16  1  0
 13 14  1  0
 13 12  1  0
 14 15  1  0
 16 15  1  0
 16 17  1  1
 17 27  1  0
 18 17  2  0
 20 19  1  0
 20 22  1  0
 21 20  2  0
 22 23  1  0
 23 24  1  0
 24 25  1  0
 26 27  1  0
 26 28  1  0
 26 25  1  6
 28 29  2  0
 28 30  1  0
M  END
$$$$
