RPR.pdb
     RDKit          3D

 30 30  0  0  1  0  0  0  0  0999 V2000
    9.7675  -16.8785   14.8665 N   0  0  0  0  0  0  0  0  0  0  0  0
    8.6949  -15.9462   14.9746 C   0  0  0  0  0  0  0  0  0  0  0  0
    8.4468  -15.1501   13.9988 N   0  0  0  0  0  0  0  0  0  0  0  0
    7.9010  -15.8895   16.1480 N   0  0  0  0  0  0  0  0  0  0  0  0
    8.2527  -16.6106   17.3673 C   0  0  0  0  0  0  0  0  0  0  0  0
    7.9856  -18.0716   17.1547 C   0  0  0  0  0  0  0  0  0  0  0  0
    8.4054  -18.8735   18.3520 C   0  0  0  0  0  0  0  0  0  0  0  0
    7.1962  -19.4354   19.0961 C   0  0  2  0  0  0  0  0  0  0  0  0
    6.0437  -19.0626   18.3795 N   0  0  0  0  0  0  0  0  0  0  0  0
    7.3229  -19.0718   20.5022 C   0  0  0  0  0  0  0  0  0  0  0  0
    7.4064  -17.7882   20.6796 O   0  0  0  0  0  0  0  0  0  0  0  0
    7.6307  -14.5260   13.9489 N   0  0  0  0  0  0  0  0  0  0  0  0
    7.3662  -19.8638   21.6536 C   0  0  0  0  0  0  0  0  0  0  0  0
    6.4516  -21.0282   21.8681 C   0  0  0  0  0  0  0  0  0  0  0  0
    7.4792  -22.0955   22.2452 C   0  0  0  0  0  0  0  0  0  0  0  0
    8.7038  -21.3298   22.7587 C   0  0  2  0  0  0  0  0  0  0  0  0
    8.1332  -19.9126   22.8486 C   0  0  0  0  0  0  0  0  0  0  0  0
    9.1161  -18.9250   23.1809 O   0  0  0  0  0  0  0  0  0  0  0  0
   10.2199  -18.8229   22.6283 N   0  0  0  0  0  0  0  0  0  0  0  0
    7.7521  -12.4301   19.0138 C   0  0  0  0  0  0  0  0  0  0  0  0
    7.8773  -12.7726   20.3825 N   0  0  0  0  0  0  0  0  0  0  0  0
    7.4715  -11.8935   21.2420 N   0  0  0  0  0  0  0  0  0  0  0  0
    8.4120  -14.0019   20.8235 C   0  0  0  0  0  0  0  0  0  0  0  0
    8.7003  -14.1102   22.2701 C   0  0  0  0  0  0  0  0  0  0  0  0
    9.2080  -15.4498   22.6180 C   0  0  0  0  0  0  0  0  0  0  0  0
    9.4361  -15.7143   24.0224 C   0  0  2  0  0  0  0  0  0  0  0  0
    9.9376  -16.9678   24.6015 N   0  0  0  0  0  0  0  0  0  0  0  0
    8.8664  -17.9548   24.2190 C   0  0  0  0  0  0  0  0  0  0  0  0
   10.1200  -17.1440   26.0218 O   0  0  0  0  0  0  0  0  0  0  0  0
   11.1327  -16.6001   26.6083 O   0  0  0  0  0  0  0  0  0  0  0  0
  1  2  1  0
  2  4  1  0
  3  2  2  0
  4  5  1  0
  6  7  1  0
  6  5  1  0
  7  8  1  0
  8  9  1  6
 10 12  1  0
 10  8  1  0
 11 10  2  0
 12 16  1  0
 13 14  1  0
 13 12  1  0
 14 15  1  0
 16 15  1  0
 16 17  1  6
 17 27  1  0
 18 17  2  0
 20 19  1  0
 20 22  1  0
 21 20  2  0
 22 23  1  0
 23 24  1  0
 24 25  1  0
 26 27  1  0
 26 28  1  0
 26 25  1  6
 28 29  2  0
 28 30  1  0
M  END
$$$$
