RPR.pdb
     RDKit          3D

 30 30  0  0  1  0  0  0  0  0999 V2000
   11.5495  -21.2326   16.2084 N   0  0  0  0  0  0  0  0  0  0  0  0
   11.7390  -20.3276   17.2931 C   0  0  0  0  0  0  0  0  0  0  0  0
   12.9215  -19.9156   17.5750 N   0  0  0  0  0  0  0  0  0  0  0  0
   10.6357  -19.8793   18.0626 N   0  0  0  0  0  0  0  0  0  0  0  0
    9.7026  -18.8670   17.5780 C   0  0  0  0  0  0  0  0  0  0  0  0
   10.2646  -17.5101   17.8851 C   0  0  0  0  0  0  0  0  0  0  0  0
    9.5359  -16.4424   17.1221 C   0  0  0  0  0  0  0  0  0  0  0  0
   10.1004  -15.0571   17.4286 C   0  0  2  0  0  0  0  0  0  0  0  0
   11.3883  -14.9875   16.8654 N   0  0  0  0  0  0  0  0  0  0  0  0
    9.9186  -14.8008   18.8521 C   0  0  0  0  0  0  0  0  0  0  0  0
   10.7329  -15.4915   19.5910 O   0  0  0  0  0  0  0  0  0  0  0  0
   13.1508  -19.2998   18.3664 N   0  0  0  0  0  0  0  0  0  0  0  0
    9.0333  -13.9535   19.5253 C   0  0  0  0  0  0  0  0  0  0  0  0
    8.6151  -12.6244   18.9805 C   0  0  0  0  0  0  0  0  0  0  0  0
    7.0983  -12.7563   19.1184 C   0  0  0  0  0  0  0  0  0  0  0  0
    6.8705  -13.8130   20.2052 C   0  0  2  0  0  0  0  0  0  0  0  0
    8.2950  -13.9805   20.7389 C   0  0  0  0  0  0  0  0  0  0  0  0
    8.4206  -15.0347   21.7006 O   0  0  0  0  0  0  0  0  0  0  0  0
    8.2232  -16.2327   21.4552 N   0  0  0  0  0  0  0  0  0  0  0  0
   10.1175  -17.0754   29.6906 C   0  0  0  0  0  0  0  0  0  0  0  0
   10.7926  -15.8753   29.3587 N   0  0  0  0  0  0  0  0  0  0  0  0
   10.5198  -14.8353   30.0800 N   0  0  0  0  0  0  0  0  0  0  0  0
   11.7231  -15.7815   28.3018 C   0  0  0  0  0  0  0  0  0  0  0  0
   11.2811  -15.0360   27.1034 C   0  0  0  0  0  0  0  0  0  0  0  0
   10.4454  -15.8759   26.2261 C   0  0  0  0  0  0  0  0  0  0  0  0
    9.9168  -15.2470   25.0347 C   0  0  1  0  0  0  0  0  0  0  0  0
    9.0564  -15.8793   24.0257 N   0  0  0  0  0  0  0  0  0  0  0  0
    8.7989  -14.7499   23.0633 C   0  0  0  0  0  0  0  0  0  0  0  0
    7.7514  -16.4059   24.3438 O   0  0  0  0  0  0  0  0  0  0  0  0
    7.6496  -17.5563   24.9195 O   0  0  0  0  0  0  0  0  0  0  0  0
  1  2  1  0
  2  4  1  0
  3  2  2  0
  4  5  1  0
  6  7  1  0
  6  5  1  0
  7  8  1  0
  8  9  1  1
 10 12  1  0
 10  8  1  0
 11 10  2  0
 12 16  1  0
 13 14  1  0
 13 12  1  0
 14 15  1  0
 16 15  1  0
 16 17  1  6
 17 27  1  0
 18 17  2  0
 20 19  1  0
 20 22  1  0
 21 20  2  0
 22 23  1  0
 23 24  1  0
 24 25  1  0
 26 27  1  0
 26 28  1  0
 26 25  1  6
 28 29  2  0
 28 30  1  0
M  END
$$$$
