FKD.pdb
     RDKit          3D

 29 29  0  0  1  0  0  0  0  0999 V2000
   24.7801  -17.3125  -20.1947 N   0  0  0  0  0  0  0  0  0  0  0  0
   24.8040  -16.9083  -18.8021 C   0  0  1  0  0  0  0  0  0  0  0  0
   23.9491  -15.7100  -18.5412 C   0  0  0  0  0  0  0  0  0  0  0  0
   24.3532  -14.5076  -19.2699 C   0  0  0  0  0  0  0  0  0  0  0  0
   23.6290  -13.9532  -20.3091 C   0  0  0  0  0  0  0  0  0  0  0  0
   24.0345  -12.8138  -20.9813 C   0  0  0  0  0  0  0  0  0  0  0  0
   25.2180  -12.1996  -20.5981 C   0  0  0  0  0  0  0  0  0  0  0  0
   25.9646  -12.7258  -19.5661 C   0  0  0  0  0  0  0  0  0  0  0  0
   25.5243  -13.8789  -18.9089 C   0  0  0  0  0  0  0  0  0  0  0  0
   24.2716  -18.0220  -17.9733 C   0  0  0  0  0  0  0  0  0  0  0  0
   23.2263  -18.5965  -18.4129 O   0  0  0  0  0  0  0  0  0  0  0  0
   24.8932  -18.4161  -16.7686 N   0  0  0  0  0  0  0  0  0  0  0  0
   24.3501  -19.4976  -15.9764 C   0  0  1  0  0  0  0  0  0  0  0  0
   25.4849  -20.0106  -15.1198 C   0  0  0  0  0  0  0  0  0  0  0  0
   25.1286  -21.1716  -14.2552 C   0  0  0  0  0  0  0  0  0  0  0  0
   25.0099  -22.4655  -15.0279 C   0  0  0  0  0  0  0  0  0  0  0  0
   24.6766  -23.5628  -14.0144 C   0  0  0  0  0  0  0  0  0  0  0  0
   24.6127  -24.8388  -14.6861 N   0  0  0  0  0  0  0  0  0  0  0  0
   23.2015  -19.0076  -15.1807 C   0  0  0  0  0  0  0  0  0  0  0  0
   23.3416  -17.9950  -14.4602 O   0  0  0  0  0  0  0  0  0  0  0  0
   21.9320  -19.6222  -15.1824 N   0  0  0  0  0  0  0  0  0  0  0  0
   20.8443  -19.2567  -14.2861 C   0  0  1  0  0  0  0  0  0  0  0  0
   19.5119  -19.6323  -14.8413 C   0  0  0  0  0  0  0  0  0  0  0  0
   19.1987  -18.7871  -16.0112 C   0  0  0  0  0  0  0  0  0  0  0  0
   19.9137  -17.8088  -16.3332 O   0  0  0  0  0  0  0  0  0  0  0  0
   21.1150  -19.8159  -12.9670 C   0  0  0  0  0  0  0  0  0  0  0  0
   21.9835  -20.8903  -12.7809 O   0  0  0  0  0  0  0  0  0  0  0  0
   18.0825  -19.0328  -16.8273 O   0  0  0  0  0  0  0  0  0  0  0  0
   20.5322  -19.2992  -11.9541 O   0  0  0  0  0  0  0  0  0  0  0  0
  2  1  1  6
  2 10  1  0
  2  3  1  0
  3  4  1  0
  4  5  2  0
  4  9  1  0
  5  6  1  0
  6  7  2  0
  8  7  1  0
  9  8  2  0
 10 12  1  0
 11 10  2  0
 12 13  1  0
 13 14  1  1
 14 15  1  0
 15 16  1  0
 16 17  1  0
 17 18  1  0
 19 20  2  0
 19 13  1  0
 21 19  1  0
 22 26  1  0
 22 21  1  0
 22 23  1  6
 24 25  2  0
 24 23  1  0
 26 27  1  0
 28 24  1  0
 29 26  2  0
M  END
$$$$
