FKD.pdb
     RDKit          3D

 29 29  0  0  1  0  0  0  0  0999 V2000
   26.9025  -28.6351  -23.6018 N   0  0  0  0  0  0  0  0  0  0  0  0
   25.7744  -29.3084  -22.9875 C   0  0  1  0  0  0  0  0  0  0  0  0
   24.8014  -29.8277  -23.9967 C   0  0  0  0  0  0  0  0  0  0  0  0
   24.1065  -28.7895  -24.7579 C   0  0  0  0  0  0  0  0  0  0  0  0
   23.0530  -28.0427  -24.2637 C   0  0  0  0  0  0  0  0  0  0  0  0
   22.4137  -27.0656  -25.0059 C   0  0  0  0  0  0  0  0  0  0  0  0
   22.8462  -26.8230  -26.3016 C   0  0  0  0  0  0  0  0  0  0  0  0
   23.8937  -27.5492  -26.8256 C   0  0  0  0  0  0  0  0  0  0  0  0
   24.5167  -28.5293  -26.0467 C   0  0  0  0  0  0  0  0  0  0  0  0
   26.2782  -30.4751  -22.2158 C   0  0  0  0  0  0  0  0  0  0  0  0
   27.1935  -31.1604  -22.7712 O   0  0  0  0  0  0  0  0  0  0  0  0
   25.7676  -30.8002  -20.9403 N   0  0  0  0  0  0  0  0  0  0  0  0
   26.2793  -31.9376  -20.2077 C   0  0  1  0  0  0  0  0  0  0  0  0
   26.7258  -31.4128  -18.8623 C   0  0  0  0  0  0  0  0  0  0  0  0
   27.2882  -32.4502  -17.9515 C   0  0  0  0  0  0  0  0  0  0  0  0
   27.6271  -31.9085  -16.5814 C   0  0  0  0  0  0  0  0  0  0  0  0
   28.2609  -33.0555  -15.7910 C   0  0  0  0  0  0  0  0  0  0  0  0
   28.6820  -32.5764  -14.4962 N   0  0  0  0  0  0  0  0  0  0  0  0
   25.2313  -32.9783  -20.1029 C   0  0  0  0  0  0  0  0  0  0  0  0
   24.1125  -32.6773  -19.6318 O   0  0  0  0  0  0  0  0  0  0  0  0
   25.4167  -34.3164  -20.5086 N   0  0  0  0  0  0  0  0  0  0  0  0
   24.3763  -35.3343  -20.4732 C   0  0  1  0  0  0  0  0  0  0  0  0
   24.6000  -36.3984  -21.4941 C   0  0  0  0  0  0  0  0  0  0  0  0
   23.3788  -37.2152  -21.6443 C   0  0  0  0  0  0  0  0  0  0  0  0
   22.5912  -37.0600  -22.6074 O   0  0  0  0  0  0  0  0  0  0  0  0
   24.2580  -35.8374  -19.1097 C   0  0  0  0  0  0  0  0  0  0  0  0
   23.0286  -36.1823  -18.5504 O   0  0  0  0  0  0  0  0  0  0  0  0
   23.0326  -38.2109  -20.7164 O   0  0  0  0  0  0  0  0  0  0  0  0
   25.3207  -35.9620  -18.4112 O   0  0  0  0  0  0  0  0  0  0  0  0
  2  1  1  6
  2 10  1  0
  2  3  1  0
  3  4  1  0
  4  5  2  0
  4  9  1  0
  5  6  1  0
  6  7  2  0
  8  7  1  0
  9  8  2  0
 10 12  1  0
 11 10  2  0
 12 13  1  0
 13 14  1  1
 14 15  1  0
 15 16  1  0
 16 17  1  0
 17 18  1  0
 19 20  2  0
 19 13  1  0
 21 19  1  0
 22 26  1  0
 22 21  1  0
 22 23  1  6
 24 25  2  0
 24 23  1  0
 26 27  1  0
 28 24  1  0
 29 26  2  0
M  END
$$$$
