FKD.pdb
     RDKit          3D

 29 29  0  0  1  0  0  0  0  0999 V2000
   27.8400  -21.0611   -9.9186 N   0  0  0  0  0  0  0  0  0  0  0  0
   26.4157  -20.9064   -9.6929 C   0  0  1  0  0  0  0  0  0  0  0  0
   26.0980  -19.7130   -8.8504 C   0  0  0  0  0  0  0  0  0  0  0  0
   26.8140  -19.6637   -7.5757 C   0  0  0  0  0  0  0  0  0  0  0  0
   27.8135  -18.7537   -7.2849 C   0  0  0  0  0  0  0  0  0  0  0  0
   28.4744  -18.7290   -6.0696 C   0  0  0  0  0  0  0  0  0  0  0  0
   28.1210  -19.6560   -5.0997 C   0  0  0  0  0  0  0  0  0  0  0  0
   27.1288  -20.5774   -5.3564 C   0  0  0  0  0  0  0  0  0  0  0  0
   26.4819  -20.5732   -6.5961 C   0  0  0  0  0  0  0  0  0  0  0  0
   25.7433  -20.7149  -11.0050 C   0  0  0  0  0  0  0  0  0  0  0  0
   26.0521  -19.6599  -11.6434 O   0  0  0  0  0  0  0  0  0  0  0  0
   24.8160  -21.6522  -11.5098 N   0  0  0  0  0  0  0  0  0  0  0  0
   24.2987  -21.5287  -12.8549 C   0  0  1  0  0  0  0  0  0  0  0  0
   24.7645  -22.7554  -13.6054 C   0  0  0  0  0  0  0  0  0  0  0  0
   26.1897  -22.7081  -14.0400 C   0  0  0  0  0  0  0  0  0  0  0  0
   26.4363  -21.6990  -15.1384 C   0  0  0  0  0  0  0  0  0  0  0  0
   27.9074  -21.8262  -15.5407 C   0  0  0  0  0  0  0  0  0  0  0  0
   28.2416  -20.7893  -16.4876 N   0  0  0  0  0  0  0  0  0  0  0  0
   22.8240  -21.4016  -12.8146 C   0  0  0  0  0  0  0  0  0  0  0  0
   22.1844  -21.9646  -11.8992 O   0  0  0  0  0  0  0  0  0  0  0  0
   22.0774  -20.6708  -13.7623 N   0  0  0  0  0  0  0  0  0  0  0  0
   20.6329  -20.4969  -13.7086 C   0  0  1  0  0  0  0  0  0  0  0  0
   20.2410  -19.0583  -13.7452 C   0  0  0  0  0  0  0  0  0  0  0  0
   19.2369  -18.7843  -12.6975 C   0  0  0  0  0  0  0  0  0  0  0  0
   18.7846  -19.6908  -11.9588 O   0  0  0  0  0  0  0  0  0  0  0  0
   20.0237  -21.3034  -14.7596 C   0  0  0  0  0  0  0  0  0  0  0  0
   20.7837  -21.9501  -15.7330 O   0  0  0  0  0  0  0  0  0  0  0  0
   18.7335  -17.4929  -12.4709 O   0  0  0  0  0  0  0  0  0  0  0  0
   18.7510  -21.4147  -14.7827 O   0  0  0  0  0  0  0  0  0  0  0  0
  2  1  1  6
  2 10  1  0
  2  3  1  0
  3  4  1  0
  4  5  2  0
  4  9  1  0
  5  6  1  0
  6  7  2  0
  8  7  1  0
  9  8  2  0
 10 12  1  0
 11 10  2  0
 12 13  1  0
 13 14  1  6
 14 15  1  0
 15 16  1  0
 16 17  1  0
 17 18  1  0
 19 20  2  0
 19 13  1  0
 21 19  1  0
 22 26  1  0
 22 21  1  0
 22 23  1  6
 24 25  2  0
 24 23  1  0
 26 27  1  0
 28 24  1  0
 29 26  2  0
M  END
$$$$
