FKD.pdb
     RDKit          3D

 29 29  0  0  1  0  0  0  0  0999 V2000
   21.1108  -13.3194  -20.9004 N   0  0  0  0  0  0  0  0  0  0  0  0
   20.9798  -13.2972  -19.4562 C   0  0  1  0  0  0  0  0  0  0  0  0
   19.9214  -12.3480  -18.9940 C   0  0  0  0  0  0  0  0  0  0  0  0
   20.1364  -10.9583  -19.3968 C   0  0  0  0  0  0  0  0  0  0  0  0
   19.4248  -10.3246  -20.3988 C   0  0  0  0  0  0  0  0  0  0  0  0
   19.6486   -9.0077  -20.7594 C   0  0  0  0  0  0  0  0  0  0  0  0
   20.6284   -8.2902  -20.0884 C   0  0  0  0  0  0  0  0  0  0  0  0
   21.3564   -8.8911  -19.0844 C   0  0  0  0  0  0  0  0  0  0  0  0
   21.1033  -10.2242  -18.7463 C   0  0  0  0  0  0  0  0  0  0  0  0
   20.5914  -14.6552  -18.9920 C   0  0  0  0  0  0  0  0  0  0  0  0
   19.9319  -15.3615  -19.8179 O   0  0  0  0  0  0  0  0  0  0  0  0
   20.9366  -15.1297  -17.7079 N   0  0  0  0  0  0  0  0  0  0  0  0
   20.5207  -16.4439  -17.2696 C   0  0  1  0  0  0  0  0  0  0  0  0
   21.5590  -16.9102  -16.2748 C   0  0  0  0  0  0  0  0  0  0  0  0
   21.3443  -18.2935  -15.7623 C   0  0  0  0  0  0  0  0  0  0  0  0
   22.2222  -18.6240  -14.5767 C   0  0  0  0  0  0  0  0  0  0  0  0
   21.9445  -20.0830  -14.2074 C   0  0  0  0  0  0  0  0  0  0  0  0
   22.7554  -20.4580  -13.0737 N   0  0  0  0  0  0  0  0  0  0  0  0
   19.1591  -16.3716  -16.6922 C   0  0  0  0  0  0  0  0  0  0  0  0
   18.6459  -17.4004  -16.2000 O   0  0  0  0  0  0  0  0  0  0  0  0
   18.3863  -15.1920  -16.6607 N   0  0  0  0  0  0  0  0  0  0  0  0
   17.0242  -15.1191  -16.1516 C   0  0  1  0  0  0  0  0  0  0  0  0
   16.9811  -15.1615  -14.6613 C   0  0  0  0  0  0  0  0  0  0  0  0
   15.5914  -14.9846  -14.1937 C   0  0  0  0  0  0  0  0  0  0  0  0
   14.6179  -15.4916  -14.7998 O   0  0  0  0  0  0  0  0  0  0  0  0
   16.3688  -13.9520  -16.7300 C   0  0  0  0  0  0  0  0  0  0  0  0
   17.0647  -13.0082  -17.4838 O   0  0  0  0  0  0  0  0  0  0  0  0
   15.2840  -14.2387  -13.0442 O   0  0  0  0  0  0  0  0  0  0  0  0
   15.1159  -13.7963  -16.5337 O   0  0  0  0  0  0  0  0  0  0  0  0
  2  1  1  6
  2 10  1  0
  2  3  1  0
  3  4  1  0
  4  5  2  0
  4  9  1  0
  5  6  1  0
  6  7  2  0
  8  7  1  0
  9  8  2  0
 10 12  1  0
 11 10  2  0
 12 13  1  0
 13 14  1  1
 14 15  1  0
 15 16  1  0
 16 17  1  0
 17 18  1  0
 19 20  2  0
 19 13  1  0
 21 19  1  0
 22 26  1  0
 22 21  1  0
 22 23  1  1
 24 25  2  0
 24 23  1  0
 26 27  1  0
 28 24  1  0
 29 26  2  0
M  END
$$$$
