FKD.pdb
     RDKit          3D

 29 29  0  0  1  0  0  0  0  0999 V2000
   14.5935  -13.6225    5.4544 N   0  0  0  0  0  0  0  0  0  0  0  0
   16.0336  -13.5869    5.6221 C   0  0  1  0  0  0  0  0  0  0  0  0
   16.5218  -12.2498    6.0788 C   0  0  0  0  0  0  0  0  0  0  0  0
   17.9741  -12.1533    6.2260 C   0  0  0  0  0  0  0  0  0  0  0  0
   18.6288  -12.1419    7.4438 C   0  0  0  0  0  0  0  0  0  0  0  0
   20.0049  -12.0502    7.5543 C   0  0  0  0  0  0  0  0  0  0  0  0
   20.7625  -11.9662    6.3950 C   0  0  0  0  0  0  0  0  0  0  0  0
   20.1421  -11.9749    5.1644 C   0  0  0  0  0  0  0  0  0  0  0  0
   18.7489  -12.0687    5.0905 C   0  0  0  0  0  0  0  0  0  0  0  0
   16.4171  -14.5781    6.6618 C   0  0  0  0  0  0  0  0  0  0  0  0
   15.7625  -14.5288    7.7504 O   0  0  0  0  0  0  0  0  0  0  0  0
   17.4488  -15.5181    6.4493 N   0  0  0  0  0  0  0  0  0  0  0  0
   17.8373  -16.4378    7.4958 C   0  0  1  0  0  0  0  0  0  0  0  0
   17.4191  -17.8141    7.0313 C   0  0  0  0  0  0  0  0  0  0  0  0
   17.5476  -18.8796    8.0659 C   0  0  0  0  0  0  0  0  0  0  0  0
   17.2104  -20.2555    7.5380 C   0  0  0  0  0  0  0  0  0  0  0  0
   17.2880  -21.2207    8.7230 C   0  0  0  0  0  0  0  0  0  0  0  0
   16.9131  -22.5465    8.2927 N   0  0  0  0  0  0  0  0  0  0  0  0
   19.2932  -16.3292    7.7429 C   0  0  0  0  0  0  0  0  0  0  0  0
   20.0680  -16.1533    6.7771 O   0  0  0  0  0  0  0  0  0  0  0  0
   19.8757  -16.4130    9.0247 N   0  0  0  0  0  0  0  0  0  0  0  0
   21.3104  -16.4242    9.2729 C   0  0  1  0  0  0  0  0  0  0  0  0
   21.6601  -15.7613   10.5624 C   0  0  0  0  0  0  0  0  0  0  0  0
   21.7384  -14.2991   10.3707 C   0  0  0  0  0  0  0  0  0  0  0  0
   22.1480  -13.7914    9.2999 O   0  0  0  0  0  0  0  0  0  0  0  0
   21.7954  -17.7947    9.1610 C   0  0  0  0  0  0  0  0  0  0  0  0
   20.9343  -18.8907    9.1875 O   0  0  0  0  0  0  0  0  0  0  0  0
   21.3581  -13.3967   11.3774 O   0  0  0  0  0  0  0  0  0  0  0  0
   23.0521  -17.9887    9.0363 O   0  0  0  0  0  0  0  0  0  0  0  0
  2  1  1  1
  2 10  1  0
  2  3  1  0
  3  4  1  0
  4  5  2  0
  4  9  1  0
  5  6  1  0
  6  7  2  0
  8  7  1  0
  9  8  2  0
 10 12  1  0
 11 10  2  0
 12 13  1  0
 13 14  1  6
 14 15  1  0
 15 16  1  0
 16 17  1  0
 17 18  1  0
 19 20  2  0
 19 13  1  0
 21 19  1  0
 22 26  1  0
 22 21  1  0
 22 23  1  1
 24 25  2  0
 24 23  1  0
 26 27  1  0
 28 24  1  0
 29 26  2  0
M  END
$$$$
