FKD.pdb
     RDKit          3D

 29 29  0  0  1  0  0  0  0  0999 V2000
   27.5194  -21.6238   -8.4649 N   0  0  0  0  0  0  0  0  0  0  0  0
   26.5708  -20.5282   -8.4066 C   0  0  1  0  0  0  0  0  0  0  0  0
   27.1492  -19.3062   -7.7685 C   0  0  0  0  0  0  0  0  0  0  0  0
   27.7217  -19.5296   -6.4410 C   0  0  0  0  0  0  0  0  0  0  0  0
   26.9855  -19.9171   -5.3365 C   0  0  0  0  0  0  0  0  0  0  0  0
   27.5532  -20.1221   -4.0915 C   0  0  0  0  0  0  0  0  0  0  0  0
   28.9193  -19.9314   -3.9424 C   0  0  0  0  0  0  0  0  0  0  0  0
   29.6830  -19.5452   -5.0225 C   0  0  0  0  0  0  0  0  0  0  0  0
   29.0756  -19.3470   -6.2664 C   0  0  0  0  0  0  0  0  0  0  0  0
   26.1801  -20.1618   -9.7936 C   0  0  0  0  0  0  0  0  0  0  0  0
   25.4692  -19.1152   -9.9167 O   0  0  0  0  0  0  0  0  0  0  0  0
   26.5771  -20.9336  -10.9070 N   0  0  0  0  0  0  0  0  0  0  0  0
   26.1672  -20.5661  -12.2446 C   0  0  1  0  0  0  0  0  0  0  0  0
   27.3248  -20.9080  -13.1546 C   0  0  0  0  0  0  0  0  0  0  0  0
   27.1068  -20.5585  -14.5873 C   0  0  0  0  0  0  0  0  0  0  0  0
   27.3107  -19.0877  -14.8713 C   0  0  0  0  0  0  0  0  0  0  0  0
   27.0593  -18.8817  -16.3667 C   0  0  0  0  0  0  0  0  0  0  0  0
   27.2541  -17.4917  -16.7034 N   0  0  0  0  0  0  0  0  0  0  0  0
   24.9212  -21.2823  -12.6010 C   0  0  0  0  0  0  0  0  0  0  0  0
   24.7140  -22.4234  -12.1330 O   0  0  0  0  0  0  0  0  0  0  0  0
   23.9311  -20.7495  -13.4527 N   0  0  0  0  0  0  0  0  0  0  0  0
   22.5364  -21.1675  -13.4487 C   0  0  1  0  0  0  0  0  0  0  0  0
   21.8987  -20.9748  -12.1142 C   0  0  0  0  0  0  0  0  0  0  0  0
   20.4702  -21.3433  -12.1822 C   0  0  0  0  0  0  0  0  0  0  0  0
   20.0983  -22.5270  -12.3625 O   0  0  0  0  0  0  0  0  0  0  0  0
   21.8416  -20.4944  -14.5397 C   0  0  0  0  0  0  0  0  0  0  0  0
   22.0549  -19.1493  -14.8370 O   0  0  0  0  0  0  0  0  0  0  0  0
   19.4496  -20.3878  -12.0485 O   0  0  0  0  0  0  0  0  0  0  0  0
   21.0108  -21.1664  -15.2403 O   0  0  0  0  0  0  0  0  0  0  0  0
  2  1  1  6
  2 10  1  0
  2  3  1  0
  3  4  1  0
  4  5  2  0
  4  9  1  0
  5  6  1  0
  6  7  2  0
  8  7  1  0
  9  8  2  0
 10 12  1  0
 11 10  2  0
 12 13  1  0
 13 14  1  6
 14 15  1  0
 15 16  1  0
 16 17  1  0
 17 18  1  0
 19 20  2  0
 19 13  1  0
 21 19  1  0
 22 26  1  0
 22 21  1  0
 22 23  1  1
 24 25  2  0
 24 23  1  0
 26 27  1  0
 28 24  1  0
 29 26  2  0
M  END
$$$$
