FKD.pdb
     RDKit          3D

 29 29  0  0  1  0  0  0  0  0999 V2000
   28.5339  -20.6365   -9.1571 N   0  0  0  0  0  0  0  0  0  0  0  0
   27.1200  -20.8509   -8.9155 C   0  0  1  0  0  0  0  0  0  0  0  0
   26.5393  -19.8335   -7.9868 C   0  0  0  0  0  0  0  0  0  0  0  0
   27.1421  -19.8163   -6.6540 C   0  0  0  0  0  0  0  0  0  0  0  0
   27.0544  -20.8607   -5.7521 C   0  0  0  0  0  0  0  0  0  0  0  0
   27.6352  -20.8181   -4.4970 C   0  0  0  0  0  0  0  0  0  0  0  0
   28.3360  -19.6798   -4.1252 C   0  0  0  0  0  0  0  0  0  0  0  0
   28.4429  -18.6202   -4.9999 C   0  0  0  0  0  0  0  0  0  0  0  0
   27.8431  -18.6980   -6.2606 C   0  0  0  0  0  0  0  0  0  0  0  0
   26.3932  -20.7381  -10.2077 C   0  0  0  0  0  0  0  0  0  0  0  0
   26.4701  -19.6142  -10.7967 O   0  0  0  0  0  0  0  0  0  0  0  0
   25.6612  -21.8184  -10.7464 N   0  0  0  0  0  0  0  0  0  0  0  0
   24.9051  -21.6615  -11.9695 C   0  0  1  0  0  0  0  0  0  0  0  0
   24.8258  -23.0325  -12.6009 C   0  0  0  0  0  0  0  0  0  0  0  0
   24.4923  -23.0239  -14.0539 C   0  0  0  0  0  0  0  0  0  0  0  0
   25.7173  -22.9662  -14.9379 C   0  0  0  0  0  0  0  0  0  0  0  0
   25.2234  -22.9502  -16.3863 C   0  0  0  0  0  0  0  0  0  0  0  0
   26.3542  -22.9497  -17.2833 N   0  0  0  0  0  0  0  0  0  0  0  0
   23.5744  -21.0877  -11.6655 C   0  0  0  0  0  0  0  0  0  0  0  0
   23.4178  -20.4221  -10.6183 O   0  0  0  0  0  0  0  0  0  0  0  0
   22.4472  -21.2464  -12.4984 N   0  0  0  0  0  0  0  0  0  0  0  0
   21.5833  -20.1544  -12.9238 C   0  0  1  0  0  0  0  0  0  0  0  0
   22.2778  -19.2241  -13.8603 C   0  0  0  0  0  0  0  0  0  0  0  0
   21.4473  -18.0237  -14.0840 C   0  0  0  0  0  0  0  0  0  0  0  0
   20.3746  -17.8341  -13.4632 O   0  0  0  0  0  0  0  0  0  0  0  0
   20.3460  -20.7141  -13.4546 C   0  0  0  0  0  0  0  0  0  0  0  0
   19.2078  -20.8775  -12.6664 O   0  0  0  0  0  0  0  0  0  0  0  0
   21.8135  -17.0283  -15.0046 O   0  0  0  0  0  0  0  0  0  0  0  0
   20.3127  -21.0650  -14.6827 O   0  0  0  0  0  0  0  0  0  0  0  0
  2  1  1  6
  2 10  1  0
  2  3  1  0
  3  4  1  0
  4  5  2  0
  4  9  1  0
  5  6  1  0
  6  7  2  0
  8  7  1  0
  9  8  2  0
 10 12  1  0
 11 10  2  0
 12 13  1  0
 13 14  1  1
 14 15  1  0
 15 16  1  0
 16 17  1  0
 17 18  1  0
 19 20  2  0
 19 13  1  0
 21 19  1  0
 22 26  1  0
 22 21  1  0
 22 23  1  6
 24 25  2  0
 24 23  1  0
 26 27  1  0
 28 24  1  0
 29 26  2  0
M  END
$$$$
