FKD.pdb
     RDKit          3D

 29 29  0  0  1  0  0  0  0  0999 V2000
   27.5264  -20.1021  -11.6193 N   0  0  0  0  0  0  0  0  0  0  0  0
   26.5825  -21.1267  -11.2159 C   0  0  1  0  0  0  0  0  0  0  0  0
   25.9629  -20.8397   -9.8860 C   0  0  0  0  0  0  0  0  0  0  0  0
   26.9205  -20.5114   -8.8300 C   0  0  0  0  0  0  0  0  0  0  0  0
   28.0780  -21.2273   -8.5858 C   0  0  0  0  0  0  0  0  0  0  0  0
   28.9674  -20.8940   -7.5797 C   0  0  0  0  0  0  0  0  0  0  0  0
   28.6881  -19.7950   -6.7803 C   0  0  0  0  0  0  0  0  0  0  0  0
   27.5430  -19.0592   -6.9963 C   0  0  0  0  0  0  0  0  0  0  0  0
   26.6664  -19.4250   -8.0225 C   0  0  0  0  0  0  0  0  0  0  0  0
   25.4830  -21.1817  -12.2151 C   0  0  0  0  0  0  0  0  0  0  0  0
   24.9835  -20.0647  -12.5596 O   0  0  0  0  0  0  0  0  0  0  0  0
   25.0226  -22.4052  -12.7484 N   0  0  0  0  0  0  0  0  0  0  0  0
   24.1460  -22.4264  -13.8987 C   0  0  1  0  0  0  0  0  0  0  0  0
   24.5570  -23.6227  -14.7262 C   0  0  0  0  0  0  0  0  0  0  0  0
   25.7929  -23.4183  -15.5343 C   0  0  0  0  0  0  0  0  0  0  0  0
   26.2174  -24.6606  -16.2840 C   0  0  0  0  0  0  0  0  0  0  0  0
   27.4749  -24.2969  -17.0767 C   0  0  0  0  0  0  0  0  0  0  0  0
   27.9825  -25.4714  -17.7448 N   0  0  0  0  0  0  0  0  0  0  0  0
   22.7356  -22.4898  -13.4524 C   0  0  0  0  0  0  0  0  0  0  0  0
   22.4726  -22.9244  -12.3095 O   0  0  0  0  0  0  0  0  0  0  0  0
   21.6456  -22.0830  -14.2498 N   0  0  0  0  0  0  0  0  0  0  0  0
   20.3614  -21.6471  -13.7200 C   0  0  1  0  0  0  0  0  0  0  0  0
   20.3793  -20.2096  -13.3225 C   0  0  0  0  0  0  0  0  0  0  0  0
   19.0772  -19.8345  -12.7353 C   0  0  0  0  0  0  0  0  0  0  0  0
   18.1242  -20.6458  -12.6619 O   0  0  0  0  0  0  0  0  0  0  0  0
   19.3184  -21.9823  -14.6823 C   0  0  0  0  0  0  0  0  0  0  0  0
   18.0968  -22.5286  -14.2919 O   0  0  0  0  0  0  0  0  0  0  0  0
   18.8350  -18.5479  -12.2267 O   0  0  0  0  0  0  0  0  0  0  0  0
   19.5401  -21.7661  -15.9220 O   0  0  0  0  0  0  0  0  0  0  0  0
  2  1  1  6
  2 10  1  0
  2  3  1  0
  3  4  1  0
  4  5  2  0
  4  9  1  0
  5  6  1  0
  6  7  2  0
  8  7  1  0
  9  8  2  0
 10 12  1  0
 11 10  2  0
 12 13  1  0
 13 14  1  6
 14 15  1  0
 15 16  1  0
 16 17  1  0
 17 18  1  0
 19 20  2  0
 19 13  1  0
 21 19  1  0
 22 26  1  0
 22 21  1  0
 22 23  1  6
 24 25  2  0
 24 23  1  0
 26 27  1  0
 28 24  1  0
 29 26  2  0
M  END
$$$$
