FKD.pdb
     RDKit          3D

 29 29  0  0  1  0  0  0  0  0999 V2000
   19.8086  -13.3219  -15.5778 N   0  0  0  0  0  0  0  0  0  0  0  0
   18.7070  -12.4141  -15.8340 C   0  0  1  0  0  0  0  0  0  0  0  0
   17.4467  -12.8396  -15.1516 C   0  0  0  0  0  0  0  0  0  0  0  0
   16.8768  -14.0888  -15.6564 C   0  0  0  0  0  0  0  0  0  0  0  0
   17.1334  -15.3324  -15.1094 C   0  0  0  0  0  0  0  0  0  0  0  0
   16.5800  -16.4989  -15.6069 C   0  0  0  0  0  0  0  0  0  0  0  0
   15.7310  -16.4198  -16.7013 C   0  0  0  0  0  0  0  0  0  0  0  0
   15.4537  -15.1961  -17.2712 C   0  0  0  0  0  0  0  0  0  0  0  0
   16.0309  -14.0375  -16.7421 C   0  0  0  0  0  0  0  0  0  0  0  0
   19.0645  -11.0703  -15.3078 C   0  0  0  0  0  0  0  0  0  0  0  0
   19.6412  -11.0481  -14.1752 O   0  0  0  0  0  0  0  0  0  0  0  0
   18.7786   -9.8894  -16.0267 N   0  0  0  0  0  0  0  0  0  0  0  0
   19.2073   -8.6002  -15.5304 C   0  0  1  0  0  0  0  0  0  0  0  0
   19.3289   -7.6975  -16.7367 C   0  0  0  0  0  0  0  0  0  0  0  0
   19.6131   -6.2704  -16.4127 C   0  0  0  0  0  0  0  0  0  0  0  0
   21.0844   -5.9983  -16.1966 C   0  0  0  0  0  0  0  0  0  0  0  0
   21.2163   -4.5188  -15.8280 C   0  0  0  0  0  0  0  0  0  0  0  0
   22.5873   -4.2260  -15.4844 N   0  0  0  0  0  0  0  0  0  0  0  0
   18.2362   -8.1004  -14.5305 C   0  0  0  0  0  0  0  0  0  0  0  0
   17.0149   -8.1189  -14.7987 O   0  0  0  0  0  0  0  0  0  0  0  0
   18.6073   -7.5937  -13.2675 N   0  0  0  0  0  0  0  0  0  0  0  0
   17.6621   -7.1361  -12.2591 C   0  0  1  0  0  0  0  0  0  0  0  0
   18.2419   -7.1854  -10.8858 C   0  0  0  0  0  0  0  0  0  0  0  0
   17.2480   -6.7077   -9.9034 C   0  0  0  0  0  0  0  0  0  0  0  0
   16.0156   -6.8530  -10.0822 O   0  0  0  0  0  0  0  0  0  0  0  0
   17.1643   -5.8210  -12.6448 C   0  0  0  0  0  0  0  0  0  0  0  0
   15.8287   -5.4564  -12.4818 O   0  0  0  0  0  0  0  0  0  0  0  0
   17.6290   -6.0641   -8.7146 O   0  0  0  0  0  0  0  0  0  0  0  0
   17.9854   -4.9818  -13.1489 O   0  0  0  0  0  0  0  0  0  0  0  0
  2  1  1  1
  2 10  1  0
  2  3  1  0
  3  4  1  0
  4  5  2  0
  4  9  1  0
  5  6  1  0
  6  7  2  0
  8  7  1  0
  9  8  2  0
 10 12  1  0
 11 10  2  0
 12 13  1  0
 13 14  1  6
 14 15  1  0
 15 16  1  0
 16 17  1  0
 17 18  1  0
 19 20  2  0
 19 13  1  0
 21 19  1  0
 22 26  1  0
 22 21  1  0
 22 23  1  1
 24 25  2  0
 24 23  1  0
 26 27  1  0
 28 24  1  0
 29 26  2  0
M  END
$$$$
