NAC.pdb
     RDKit          3D

 20 19  0  0  1  0  0  0  0  0999 V2000
    9.8296  -16.7230   13.1402 N   0  0  0  0  0  0  0  0  0  0  0  0
    8.7701  -16.1478   13.8971 C   0  0  0  0  0  0  0  0  0  0  0  0
    7.5849  -16.4788   13.7347 O   0  0  0  0  0  0  0  0  0  0  0  0
    9.0771  -15.1144   14.9205 C   0  0  0  0  0  0  0  0  0  0  0  0
    9.2250  -15.7583   16.3029 C   0  0  2  0  0  0  0  0  0  0  0  0
    8.0799  -16.5878   16.5943 N   0  0  0  0  0  0  0  0  0  0  0  0
    9.2690  -14.6491   17.2771 C   0  0  0  0  0  0  0  0  0  0  0  0
   10.3176  -13.9709   17.3792 O   0  0  0  0  0  0  0  0  0  0  0  0
    6.9759  -12.9196   19.6743 C   0  0  0  0  0  0  0  0  0  0  0  0
    8.3288  -13.3186   19.1352 C   0  0  2  0  0  0  0  0  0  0  0  0
    8.1706  -14.3108   18.1111 N   0  0  0  0  0  0  0  0  0  0  0  0
    9.2411  -13.7901   20.2036 C   0  0  0  0  0  0  0  0  0  0  0  0
    9.3905  -13.0563   21.2251 O   0  0  0  0  0  0  0  0  0  0  0  0
    9.9526  -15.0024   20.1553 N   0  0  0  0  0  0  0  0  0  0  0  0
   10.5267  -15.5437   21.3480 C   0  0  1  0  0  0  0  0  0  0  0  0
    9.3925  -15.9944   22.2442 C   0  0  0  0  0  0  0  0  0  0  0  0
    9.2982  -14.7997   23.6139 S   0  0  0  0  0  0  0  0  0  0  0  0
   11.4640  -16.6541   21.1031 C   0  0  0  0  0  0  0  0  0  0  0  0
   11.6206  -17.2361   20.0000 O   0  0  0  0  0  0  0  0  0  0  0  0
   12.2356  -17.0953   22.1691 O   0  0  0  0  0  0  0  0  0  0  0  0
  2  4  1  0
  2  1  1  0
  3  2  2  0
  5  6  1  1
  5  7  1  0
  5  4  1  0
  7 11  1  0
  8  7  2  0
 10  9  1  1
 11 10  1  0
 12 14  1  0
 12 10  1  0
 13 12  2  0
 15 14  1  0
 15 18  1  0
 15 16  1  1
 17 16  1  0
 18 20  1  0
 19 18  2  0
M  END
$$$$
