NAC.pdb
     RDKit          3D

 20 19  0  0  1  0  0  0  0  0999 V2000
    6.2570  -19.9926   18.5980 N   0  0  0  0  0  0  0  0  0  0  0  0
    6.6776  -18.8834   17.8112 C   0  0  0  0  0  0  0  0  0  0  0  0
    6.2099  -18.6558   16.6843 O   0  0  0  0  0  0  0  0  0  0  0  0
    7.7114  -17.9571   18.3433 C   0  0  0  0  0  0  0  0  0  0  0  0
    7.8968  -16.7643   17.3998 C   0  0  2  0  0  0  0  0  0  0  0  0
    8.8055  -17.1069   16.3315 N   0  0  0  0  0  0  0  0  0  0  0  0
    8.4979  -15.6835   18.2072 C   0  0  0  0  0  0  0  0  0  0  0  0
    9.7132  -15.7506   18.5045 O   0  0  0  0  0  0  0  0  0  0  0  0
    7.4990  -12.3831   19.6633 C   0  0  0  0  0  0  0  0  0  0  0  0
    8.3786  -13.6039   19.5368 C   0  0  2  0  0  0  0  0  0  0  0  0
    7.7585  -14.5616   18.6670 N   0  0  0  0  0  0  0  0  0  0  0  0
    8.6991  -14.2028   20.8538 C   0  0  0  0  0  0  0  0  0  0  0  0
    7.8102  -14.1675   21.7555 O   0  0  0  0  0  0  0  0  0  0  0  0
    9.9292  -14.8087   21.1667 N   0  0  0  0  0  0  0  0  0  0  0  0
   10.1107  -15.4489   22.4325 C   0  0  1  0  0  0  0  0  0  0  0  0
    9.1952  -16.6543   22.4769 C   0  0  0  0  0  0  0  0  0  0  0  0
    7.7926  -16.2100   23.5481 S   0  0  0  0  0  0  0  0  0  0  0  0
   11.5036  -15.8482   22.7001 C   0  0  0  0  0  0  0  0  0  0  0  0
   11.9204  -16.3304   23.7835 O   0  0  0  0  0  0  0  0  0  0  0  0
   12.4309  -15.6811   21.6810 O   0  0  0  0  0  0  0  0  0  0  0  0
  2  4  1  0
  2  1  1  0
  3  2  2  0
  5  6  1  6
  5  7  1  0
  5  4  1  0
  7 11  1  0
  8  7  2  0
 10  9  1  1
 11 10  1  0
 12 14  1  0
 12 10  1  0
 13 12  2  0
 15 14  1  0
 15 18  1  0
 15 16  1  6
 17 16  1  0
 18 20  1  0
 19 18  2  0
M  END
$$$$
