NAC.pdb
     RDKit          3D

 20 19  0  0  1  0  0  0  0  0999 V2000
    6.1294  -20.5790   22.8417 N   0  0  0  0  0  0  0  0  0  0  0  0
    6.3438  -20.0675   21.5307 C   0  0  0  0  0  0  0  0  0  0  0  0
    6.2943  -20.7892   20.5221 O   0  0  0  0  0  0  0  0  0  0  0  0
    6.6380  -18.6220   21.3467 C   0  0  0  0  0  0  0  0  0  0  0  0
    6.7533  -17.9227   22.7051 C   0  0  2  0  0  0  0  0  0  0  0  0
    5.4425  -17.5890   23.2098 N   0  0  0  0  0  0  0  0  0  0  0  0
    7.5042  -16.6732   22.4685 C   0  0  0  0  0  0  0  0  0  0  0  0
    8.7476  -16.7291   22.3245 O   0  0  0  0  0  0  0  0  0  0  0  0
    6.9073  -13.1711   21.4804 C   0  0  0  0  0  0  0  0  0  0  0  0
    7.6797  -14.2182   22.2466 C   0  0  2  0  0  0  0  0  0  0  0  0
    6.8798  -15.3999   22.3957 N   0  0  0  0  0  0  0  0  0  0  0  0
    8.1499  -13.7186   23.5601 C   0  0  0  0  0  0  0  0  0  0  0  0
    8.9178  -12.7114   23.5733 O   0  0  0  0  0  0  0  0  0  0  0  0
    7.7973  -14.2927   24.7948 N   0  0  0  0  0  0  0  0  0  0  0  0
    8.3192  -13.7514   26.0112 C   0  0  1  0  0  0  0  0  0  0  0  0
    7.4605  -12.5649   26.3957 C   0  0  0  0  0  0  0  0  0  0  0  0
    5.7673  -13.1927   26.6216 S   0  0  0  0  0  0  0  0  0  0  0  0
    8.3787  -14.7253   27.1155 C   0  0  0  0  0  0  0  0  0  0  0  0
    7.9685  -15.9118   27.0538 O   0  0  0  0  0  0  0  0  0  0  0  0
    8.9290  -14.3053   28.3185 O   0  0  0  0  0  0  0  0  0  0  0  0
  2  4  1  0
  2  1  1  0
  3  2  2  0
  5  6  1  6
  5  7  1  0
  5  4  1  0
  7 11  1  0
  8  7  2  0
 10  9  1  1
 11 10  1  0
 12 14  1  0
 12 10  1  0
 13 12  2  0
 15 14  1  0
 15 18  1  0
 15 16  1  1
 17 16  1  0
 18 20  1  0
 19 18  2  0
M  END
$$$$
