NAC.pdb
     RDKit          3D

 20 19  0  0  1  0  0  0  0  0999 V2000
   14.2777  -17.3721   16.7552 N   0  0  0  0  0  0  0  0  0  0  0  0
   12.8691  -17.2219   16.8954 C   0  0  0  0  0  0  0  0  0  0  0  0
   12.0708  -17.6359   16.0399 O   0  0  0  0  0  0  0  0  0  0  0  0
   12.3200  -16.5486   18.1016 C   0  0  0  0  0  0  0  0  0  0  0  0
   11.9537  -15.0955   17.7826 C   0  0  2  0  0  0  0  0  0  0  0  0
   13.1486  -14.3032   17.6128 N   0  0  0  0  0  0  0  0  0  0  0  0
   11.2080  -14.5871   18.9516 C   0  0  0  0  0  0  0  0  0  0  0  0
   11.8047  -14.4629   20.0463 O   0  0  0  0  0  0  0  0  0  0  0  0
    7.8126  -13.1965   19.7007 C   0  0  0  0  0  0  0  0  0  0  0  0
    9.1764  -13.7306   20.0678 C   0  0  2  0  0  0  0  0  0  0  0  0
    9.8350  -14.2289   18.8947 N   0  0  0  0  0  0  0  0  0  0  0  0
    9.1067  -14.7662   21.1255 C   0  0  0  0  0  0  0  0  0  0  0  0
    9.8671  -15.7740   21.0224 O   0  0  0  0  0  0  0  0  0  0  0  0
    8.2486  -14.7011   22.2380 N   0  0  0  0  0  0  0  0  0  0  0  0
    8.4685  -15.5563   23.3629 C   0  0  1  0  0  0  0  0  0  0  0  0
    9.8551  -15.2683   23.8990 C   0  0  0  0  0  0  0  0  0  0  0  0
   10.1348  -16.4209   25.2794 S   0  0  0  0  0  0  0  0  0  0  0  0
    7.4614  -15.4051   24.4279 C   0  0  0  0  0  0  0  0  0  0  0  0
    6.7035  -14.4122   24.5684 O   0  0  0  0  0  0  0  0  0  0  0  0
    7.3357  -16.4353   25.3494 O   0  0  0  0  0  0  0  0  0  0  0  0
  2  4  1  0
  2  1  1  0
  3  2  2  0
  5  6  1  1
  5  7  1  0
  5  4  1  0
  7 11  1  0
  8  7  2  0
 10  9  1  6
 11 10  1  0
 12 14  1  0
 12 10  1  0
 13 12  2  0
 15 14  1  0
 15 18  1  0
 15 16  1  1
 17 16  1  0
 18 20  1  0
 19 18  2  0
M  END
$$$$
