NAC.pdb
     RDKit          3D

 20 19  0  0  1  0  0  0  0  0999 V2000
   12.7784  -16.9437   19.3153 N   0  0  0  0  0  0  0  0  0  0  0  0
   12.1973  -17.5411   20.4693 C   0  0  0  0  0  0  0  0  0  0  0  0
   12.4819  -18.6933   20.8328 O   0  0  0  0  0  0  0  0  0  0  0  0
   11.2147  -16.7719   21.2772 C   0  0  0  0  0  0  0  0  0  0  0  0
    9.8091  -17.3581   21.1094 C   0  0  2  0  0  0  0  0  0  0  0  0
    9.2996  -17.0683   19.7900 N   0  0  0  0  0  0  0  0  0  0  0  0
    8.9544  -16.6845   22.1079 C   0  0  0  0  0  0  0  0  0  0  0  0
    8.5040  -15.5436   21.8520 O   0  0  0  0  0  0  0  0  0  0  0  0
    6.9270  -17.6063   25.0418 C   0  0  0  0  0  0  0  0  0  0  0  0
    7.7154  -16.5953   24.2442 C   0  0  2  0  0  0  0  0  0  0  0  0
    8.6152  -17.2724   23.3552 N   0  0  0  0  0  0  0  0  0  0  0  0
    8.4384  -15.6368   25.1128 C   0  0  0  0  0  0  0  0  0  0  0  0
    9.6803  -15.8134   25.2890 O   0  0  0  0  0  0  0  0  0  0  0  0
    7.8325  -14.5419   25.7549 N   0  0  0  0  0  0  0  0  0  0  0  0
    8.6043  -13.6991   26.6147 C   0  0  1  0  0  0  0  0  0  0  0  0
    7.8019  -12.4409   26.8713 C   0  0  0  0  0  0  0  0  0  0  0  0
    6.1718  -12.9722   27.4816 S   0  0  0  0  0  0  0  0  0  0  0  0
    8.9828  -14.3388   27.8871 C   0  0  0  0  0  0  0  0  0  0  0  0
    8.5683  -15.4573   28.2837 O   0  0  0  0  0  0  0  0  0  0  0  0
    9.8645  -13.6582   28.7153 O   0  0  0  0  0  0  0  0  0  0  0  0
  2  4  1  0
  2  1  1  0
  3  2  2  0
  5  6  1  6
  5  7  1  0
  5  4  1  0
  7 11  1  0
  8  7  2  0
 10  9  1  1
 11 10  1  0
 12 14  1  0
 12 10  1  0
 13 12  2  0
 15 14  1  0
 15 18  1  0
 15 16  1  1
 17 16  1  0
 18 20  1  0
 19 18  2  0
M  END
$$$$
