NAC.pdb
     RDKit          3D

 20 19  0  0  1  0  0  0  0  0999 V2000
    8.3852  -18.5194   14.8200 N   0  0  0  0  0  0  0  0  0  0  0  0
    9.1729  -18.4135   16.0009 C   0  0  0  0  0  0  0  0  0  0  0  0
    9.6721  -19.4057   16.5549 O   0  0  0  0  0  0  0  0  0  0  0  0
    9.4150  -17.0763   16.6033 C   0  0  0  0  0  0  0  0  0  0  0  0
    9.0975  -17.0996   18.1020 C   0  0  2  0  0  0  0  0  0  0  0  0
    7.7696  -17.6204   18.3248 N   0  0  0  0  0  0  0  0  0  0  0  0
    9.1408  -15.6960   18.5594 C   0  0  0  0  0  0  0  0  0  0  0  0
   10.2515  -15.1267   18.6704 O   0  0  0  0  0  0  0  0  0  0  0  0
    6.7398  -13.0021   19.5711 C   0  0  0  0  0  0  0  0  0  0  0  0
    8.0949  -13.6645   19.5007 C   0  0  2  0  0  0  0  0  0  0  0  0
    7.9742  -14.9534   18.8823 N   0  0  0  0  0  0  0  0  0  0  0  0
    8.7393  -13.7653   20.8313 C   0  0  0  0  0  0  0  0  0  0  0  0
    8.8788  -12.7030   21.5068 O   0  0  0  0  0  0  0  0  0  0  0  0
    9.2067  -14.9674   21.3925 N   0  0  0  0  0  0  0  0  0  0  0  0
    9.5424  -15.0262   22.7814 C   0  0  1  0  0  0  0  0  0  0  0  0
    8.2765  -14.7784   23.5744 C   0  0  0  0  0  0  0  0  0  0  0  0
    8.7436  -14.8079   25.3331 S   0  0  0  0  0  0  0  0  0  0  0  0
   10.1651  -16.2987   23.1869 C   0  0  0  0  0  0  0  0  0  0  0  0
    9.8321  -17.4331   22.7600 O   0  0  0  0  0  0  0  0  0  0  0  0
   11.1993  -16.2464   24.1110 O   0  0  0  0  0  0  0  0  0  0  0  0
  2  4  1  0
  2  1  1  0
  3  2  2  0
  5  6  1  6
  5  7  1  0
  5  4  1  0
  7 11  1  0
  8  7  2  0
 10  9  1  1
 11 10  1  0
 12 14  1  0
 12 10  1  0
 13 12  2  0
 15 14  1  0
 15 18  1  0
 15 16  1  1
 17 16  1  0
 18 20  1  0
 19 18  2  0
M  END
$$$$
