YME.pdb
     RDKit          3D

 30 30  0  0  1  0  0  0  0  0999 V2000
   18.0120  -15.0855  -24.9939 O   0  0  0  0  0  0  0  0  0  0  0  0
   18.1700  -14.2743  -23.8570 C   0  0  0  0  0  0  0  0  0  0  0  0
   19.4142  -13.7984  -23.4847 C   0  0  0  0  0  0  0  0  0  0  0  0
   19.6115  -12.9964  -22.3714 C   0  0  0  0  0  0  0  0  0  0  0  0
   18.5197  -12.6485  -21.5870 C   0  0  0  0  0  0  0  0  0  0  0  0
   18.6987  -11.8019  -20.4112 C   0  0  0  0  0  0  0  0  0  0  0  0
   19.4228  -12.4754  -19.2568 C   0  0  2  0  0  0  0  0  0  0  0  0
   18.5937  -13.5746  -18.7324 N   0  0  0  0  0  0  0  0  0  0  0  0
   19.7095  -11.5883  -18.1297 C   0  0  0  0  0  0  0  0  0  0  0  0
   18.8525  -11.3698  -17.2073 O   0  0  0  0  0  0  0  0  0  0  0  0
   17.2834  -13.1210  -21.9562 C   0  0  0  0  0  0  0  0  0  0  0  0
   17.0944  -13.9225  -23.0709 C   0  0  0  0  0  0  0  0  0  0  0  0
   22.7400   -9.5432  -12.1791 C   0  0  0  0  0  0  0  0  0  0  0  0
   22.0805  -10.2425  -13.7005 S   0  0  0  0  0  0  0  0  0  0  0  0
   23.1213   -9.7569  -15.1398 C   0  0  0  0  0  0  0  0  0  0  0  0
   22.5778  -10.4779  -16.3159 C   0  0  0  0  0  0  0  0  0  0  0  0
   21.1950  -10.0464  -16.7651 C   0  0  2  0  0  0  0  0  0  0  0  0
   20.9496  -10.8987  -17.9554 N   0  0  0  0  0  0  0  0  0  0  0  0
   21.1385   -8.6487  -17.2300 C   0  0  0  0  0  0  0  0  0  0  0  0
   21.7754   -8.2679  -18.2800 O   0  0  0  0  0  0  0  0  0  0  0  0
   20.3691   -7.6678  -16.5324 N   0  0  0  0  0  0  0  0  0  0  0  0
   20.3837   -6.2776  -17.0168 C   0  0  1  0  0  0  0  0  0  0  0  0
   19.1443   -5.5679  -16.5352 C   0  0  0  0  0  0  0  0  0  0  0  0
   17.9281   -6.0670  -17.2579 C   0  0  0  0  0  0  0  0  0  0  0  0
   16.9803   -6.6053  -16.2442 C   0  0  0  0  0  0  0  0  0  0  0  0
   17.3161   -6.5586  -15.0406 O   0  0  0  0  0  0  0  0  0  0  0  0
   21.6477   -5.6112  -16.6458 C   0  0  0  0  0  0  0  0  0  0  0  0
   22.0439   -4.5109  -17.1078 O   0  0  0  0  0  0  0  0  0  0  0  0
   15.7795   -7.1305  -16.6591 O   0  0  0  0  0  0  0  0  0  0  0  0
   22.5402   -6.1804  -15.7085 O   0  0  0  0  0  0  0  0  0  0  0  0
  2  1  1  0
  3  2  2  0
  4  3  1  0
  5  4  2  0
  5 11  1  0
  6  5  1  0
  7  9  1  0
  7  6  1  0
  7  8  1  1
  9 10  2  0
 11 12  2  0
 12  2  1  0
 14 13  1  0
 15 14  1  0
 16 15  1  0
 17 16  1  6
 17 19  1  0
 18 17  1  0
 18  9  1  0
 19 20  2  0
 21 22  1  0
 21 19  1  0
 22 27  1  0
 22 23  1  1
 24 23  1  0
 24 25  1  0
 25 26  2  0
 27 28  2  0
 27 30  1  0
 29 25  1  0
M  END
$$$$
