YME.pdb
     RDKit          3D

 30 30  0  0  1  0  0  0  0  0999 V2000
   29.8138  -15.6980  -20.3557 O   0  0  0  0  0  0  0  0  0  0  0  0
   29.2574  -16.5941  -19.4268 C   0  0  0  0  0  0  0  0  0  0  0  0
   29.9826  -17.0344  -18.3343 C   0  0  0  0  0  0  0  0  0  0  0  0
   29.4700  -17.9171  -17.3964 C   0  0  0  0  0  0  0  0  0  0  0  0
   28.1724  -18.3875  -17.5493 C   0  0  0  0  0  0  0  0  0  0  0  0
   27.6065  -19.3149  -16.5742 C   0  0  0  0  0  0  0  0  0  0  0  0
   26.5390  -18.7089  -15.6775 C   0  0  2  0  0  0  0  0  0  0  0  0
   27.1644  -17.7513  -14.7488 N   0  0  0  0  0  0  0  0  0  0  0  0
   25.8205  -19.6841  -14.8576 C   0  0  0  0  0  0  0  0  0  0  0  0
   25.2873  -20.7294  -15.3634 O   0  0  0  0  0  0  0  0  0  0  0  0
   27.4515  -17.9506  -18.6344 C   0  0  0  0  0  0  0  0  0  0  0  0
   27.9712  -17.0678  -19.5679 C   0  0  0  0  0  0  0  0  0  0  0  0
   27.3072  -20.9765   -8.8378 C   0  0  0  0  0  0  0  0  0  0  0  0
   25.5266  -20.8247   -8.6263 S   0  0  0  0  0  0  0  0  0  0  0  0
   24.6562  -21.1526  -10.2155 C   0  0  0  0  0  0  0  0  0  0  0  0
   25.3608  -20.3621  -11.2533 C   0  0  0  0  0  0  0  0  0  0  0  0
   24.8696  -20.5638  -12.6739 C   0  0  2  0  0  0  0  0  0  0  0  0
   25.6526  -19.5642  -13.4429 N   0  0  0  0  0  0  0  0  0  0  0  0
   23.4488  -20.2170  -12.8584 C   0  0  0  0  0  0  0  0  0  0  0  0
   23.0312  -19.0101  -12.7096 O   0  0  0  0  0  0  0  0  0  0  0  0
   22.4854  -21.2099  -13.2142 N   0  0  0  0  0  0  0  0  0  0  0  0
   21.0747  -20.8127  -13.3543 C   0  0  1  0  0  0  0  0  0  0  0  0
   20.3863  -21.7457  -14.3173 C   0  0  0  0  0  0  0  0  0  0  0  0
   18.9255  -21.4212  -14.4232 C   0  0  0  0  0  0  0  0  0  0  0  0
   18.3082  -22.3874  -15.3724 C   0  0  0  0  0  0  0  0  0  0  0  0
   19.0252  -23.3047  -15.8286 O   0  0  0  0  0  0  0  0  0  0  0  0
   20.4270  -20.7201  -12.0308 C   0  0  0  0  0  0  0  0  0  0  0  0
   19.7056  -19.7641  -11.6478 O   0  0  0  0  0  0  0  0  0  0  0  0
   16.9843  -22.2422  -15.7131 O   0  0  0  0  0  0  0  0  0  0  0  0
   20.5739  -21.7368  -11.0593 O   0  0  0  0  0  0  0  0  0  0  0  0
  2  1  1  0
  3  2  2  0
  4  3  1  0
  5  4  2  0
  5 11  1  0
  6  5  1  0
  7  9  1  0
  7  6  1  0
  7  8  1  1
  9 10  2  0
 11 12  2  0
 12  2  1  0
 14 13  1  0
 15 14  1  0
 16 15  1  0
 17 16  1  1
 17 19  1  0
 18 17  1  0
 18  9  1  0
 19 20  2  0
 21 22  1  0
 21 19  1  0
 22 27  1  0
 22 23  1  6
 24 23  1  0
 24 25  1  0
 25 26  2  0
 27 28  2  0
 27 30  1  0
 29 25  1  0
M  END
$$$$
