YME.pdb
     RDKit          3D

 30 30  0  0  1  0  0  0  0  0999 V2000
   29.5785  -16.8582  -18.9994 O   0  0  0  0  0  0  0  0  0  0  0  0
   28.8462  -17.4716  -17.9684 C   0  0  0  0  0  0  0  0  0  0  0  0
   29.2863  -17.4337  -16.6577 C   0  0  0  0  0  0  0  0  0  0  0  0
   28.5934  -18.0258  -15.6133 C   0  0  0  0  0  0  0  0  0  0  0  0
   27.4035  -18.6894  -15.8818 C   0  0  0  0  0  0  0  0  0  0  0  0
   26.6516  -19.3183  -14.8000 C   0  0  0  0  0  0  0  0  0  0  0  0
   27.3253  -20.5387  -14.1939 C   0  0  2  0  0  0  0  0  0  0  0  0
   27.3975  -21.6104  -15.2024 N   0  0  0  0  0  0  0  0  0  0  0  0
   26.6271  -21.0956  -13.0356 C   0  0  0  0  0  0  0  0  0  0  0  0
   25.6514  -21.9108  -13.1629 O   0  0  0  0  0  0  0  0  0  0  0  0
   26.9657  -18.7274  -17.1837 C   0  0  0  0  0  0  0  0  0  0  0  0
   27.6644  -18.1328  -18.2225 C   0  0  0  0  0  0  0  0  0  0  0  0
   26.3597  -20.0890   -5.1538 C   0  0  0  0  0  0  0  0  0  0  0  0
   27.1420  -19.9753   -6.7705 S   0  0  0  0  0  0  0  0  0  0  0  0
   25.9717  -20.4962   -8.0933 C   0  0  0  0  0  0  0  0  0  0  0  0
   26.7404  -20.4952   -9.3611 C   0  0  0  0  0  0  0  0  0  0  0  0
   25.9935  -21.0051  -10.5786 C   0  0  2  0  0  0  0  0  0  0  0  0
   26.9646  -20.7895  -11.6804 N   0  0  0  0  0  0  0  0  0  0  0  0
   24.7982  -20.2087  -10.9099 C   0  0  0  0  0  0  0  0  0  0  0  0
   24.8798  -19.1545  -11.6414 O   0  0  0  0  0  0  0  0  0  0  0  0
   23.5046  -20.5832  -10.4333 N   0  0  0  0  0  0  0  0  0  0  0  0
   22.3257  -20.2675  -11.2567 C   0  0  1  0  0  0  0  0  0  0  0  0
   22.5121  -20.8429  -12.6373 C   0  0  0  0  0  0  0  0  0  0  0  0
   21.3533  -20.4919  -13.5231 C   0  0  0  0  0  0  0  0  0  0  0  0
   20.5151  -21.7109  -13.6872 C   0  0  0  0  0  0  0  0  0  0  0  0
   21.0800  -22.7721  -14.0313 O   0  0  0  0  0  0  0  0  0  0  0  0
   21.0876  -20.7022  -10.5800 C   0  0  0  0  0  0  0  0  0  0  0  0
   20.9791  -21.7358   -9.8721 O   0  0  0  0  0  0  0  0  0  0  0  0
   19.1619  -21.6320  -13.4577 O   0  0  0  0  0  0  0  0  0  0  0  0
   19.8873  -19.9617  -10.6800 O   0  0  0  0  0  0  0  0  0  0  0  0
  2  1  1  0
  3  2  2  0
  4  3  1  0
  5  4  2  0
  5 11  1  0
  6  5  1  0
  7  9  1  0
  7  6  1  0
  7  8  1  6
  9 10  2  0
 11 12  2  0
 12  2  1  0
 14 13  1  0
 15 14  1  0
 16 15  1  0
 17 16  1  1
 17 19  1  0
 18 17  1  0
 18  9  1  0
 19 20  2  0
 21 22  1  0
 21 19  1  0
 22 27  1  0
 22 23  1  6
 24 23  1  0
 24 25  1  0
 25 26  2  0
 27 28  2  0
 27 30  1  0
 29 25  1  0
M  END
$$$$
