YME.pdb
     RDKit          3D

 30 30  0  0  1  0  0  0  0  0999 V2000
   28.2798  -15.7722  -17.8093 O   0  0  0  0  0  0  0  0  0  0  0  0
   27.6139  -16.6576  -16.9443 C   0  0  0  0  0  0  0  0  0  0  0  0
   27.3439  -16.3095  -15.6331 C   0  0  0  0  0  0  0  0  0  0  0  0
   26.6899  -17.1537  -14.7493 C   0  0  0  0  0  0  0  0  0  0  0  0
   26.2827  -18.4069  -15.1877 C   0  0  0  0  0  0  0  0  0  0  0  0
   25.5883  -19.3143  -14.2789 C   0  0  0  0  0  0  0  0  0  0  0  0
   26.4729  -19.9251  -13.2041 C   0  0  2  0  0  0  0  0  0  0  0  0
   27.4502  -20.8324  -13.8306 N   0  0  0  0  0  0  0  0  0  0  0  0
   25.7478  -20.7102  -12.2056 C   0  0  0  0  0  0  0  0  0  0  0  0
   25.6263  -21.9786  -12.3020 O   0  0  0  0  0  0  0  0  0  0  0  0
   26.5506  -18.7533  -16.4901 C   0  0  0  0  0  0  0  0  0  0  0  0
   27.2052  -17.9034  -17.3676 C   0  0  0  0  0  0  0  0  0  0  0  0
   26.6516  -18.2993   -6.8526 C   0  0  0  0  0  0  0  0  0  0  0  0
   26.1990  -20.0050   -6.4998 S   0  0  0  0  0  0  0  0  0  0  0  0
   25.9696  -20.9499   -8.0635 C   0  0  0  0  0  0  0  0  0  0  0  0
   24.7835  -20.3690   -8.7373 C   0  0  0  0  0  0  0  0  0  0  0  0
   24.4124  -20.9998  -10.0657 C   0  0  2  0  0  0  0  0  0  0  0  0
   25.1221  -20.1457  -11.0507 N   0  0  0  0  0  0  0  0  0  0  0  0
   22.9759  -20.9009  -10.3815 C   0  0  0  0  0  0  0  0  0  0  0  0
   22.5429  -20.0809  -11.2721 O   0  0  0  0  0  0  0  0  0  0  0  0
   22.0136  -21.7170   -9.7116 N   0  0  0  0  0  0  0  0  0  0  0  0
   20.5987  -21.6150  -10.1056 C   0  0  1  0  0  0  0  0  0  0  0  0
   19.7354  -22.2198   -9.0283 C   0  0  0  0  0  0  0  0  0  0  0  0
   20.4659  -23.3166   -8.3115 C   0  0  0  0  0  0  0  0  0  0  0  0
   19.5843  -23.8205   -7.2232 C   0  0  0  0  0  0  0  0  0  0  0  0
   18.4446  -23.3189   -7.1086 O   0  0  0  0  0  0  0  0  0  0  0  0
   20.2539  -20.2210  -10.4486 C   0  0  0  0  0  0  0  0  0  0  0  0
   19.8722  -19.8319  -11.5817 O   0  0  0  0  0  0  0  0  0  0  0  0
   20.0460  -24.8104   -6.3883 O   0  0  0  0  0  0  0  0  0  0  0  0
   20.3291  -19.1809   -9.4938 O   0  0  0  0  0  0  0  0  0  0  0  0
  2  1  1  0
  3  2  2  0
  4  3  1  0
  5  4  2  0
  5 11  1  0
  6  5  1  0
  7  9  1  0
  7  6  1  0
  7  8  1  6
  9 10  2  0
 11 12  2  0
 12  2  1  0
 14 13  1  0
 15 14  1  0
 16 15  1  0
 17 16  1  1
 17 19  1  0
 18 17  1  0
 18  9  1  0
 19 20  2  0
 21 22  1  0
 21 19  1  0
 22 27  1  0
 22 23  1  1
 24 23  1  0
 24 25  1  0
 25 26  2  0
 27 28  2  0
 27 30  1  0
 29 25  1  0
M  END
$$$$
