YME.pdb
     RDKit          3D

 30 30  0  0  1  0  0  0  0  0999 V2000
   17.6051  -19.0724  -18.2870 O   0  0  0  0  0  0  0  0  0  0  0  0
   18.4055  -18.0384  -17.7716 C   0  0  0  0  0  0  0  0  0  0  0  0
   19.3753  -17.4297  -18.5476 C   0  0  0  0  0  0  0  0  0  0  0  0
   20.1844  -16.4073  -18.0767 C   0  0  0  0  0  0  0  0  0  0  0  0
   20.0241  -15.9659  -16.7698 C   0  0  0  0  0  0  0  0  0  0  0  0
   20.8601  -14.8882  -16.2496 C   0  0  0  0  0  0  0  0  0  0  0  0
   22.3340  -15.2396  -16.1281 C   0  0  2  0  0  0  0  0  0  0  0  0
   22.4922  -16.3783  -15.2067 N   0  0  0  0  0  0  0  0  0  0  0  0
   23.1677  -14.1564  -15.6074 C   0  0  0  0  0  0  0  0  0  0  0  0
   23.3096  -13.9568  -14.3532 O   0  0  0  0  0  0  0  0  0  0  0  0
   19.0609  -16.5703  -15.9984 C   0  0  0  0  0  0  0  0  0  0  0  0
   18.2558  -17.5920  -16.4767 C   0  0  0  0  0  0  0  0  0  0  0  0
   29.9362  -10.6331  -16.4925 C   0  0  0  0  0  0  0  0  0  0  0  0
   28.6787  -11.9077  -16.6735 S   0  0  0  0  0  0  0  0  0  0  0  0
   27.0536  -11.3059  -16.0510 C   0  0  0  0  0  0  0  0  0  0  0  0
   26.0746  -12.3884  -16.3122 C   0  0  0  0  0  0  0  0  0  0  0  0
   24.6577  -12.1145  -15.8457 C   0  0  2  0  0  0  0  0  0  0  0  0
   23.8892  -13.2400  -16.4341 N   0  0  0  0  0  0  0  0  0  0  0  0
   24.0847  -10.8767  -16.4046 C   0  0  0  0  0  0  0  0  0  0  0  0
   23.7707  -10.7883  -17.6483 O   0  0  0  0  0  0  0  0  0  0  0  0
   23.8534   -9.7318  -15.5821 N   0  0  0  0  0  0  0  0  0  0  0  0
   23.3695   -8.4917  -16.2111 C   0  0  1  0  0  0  0  0  0  0  0  0
   22.7331   -7.6154  -15.1629 C   0  0  0  0  0  0  0  0  0  0  0  0
   22.2322   -6.3372  -15.7676 C   0  0  0  0  0  0  0  0  0  0  0  0
   21.5469   -5.5609  -14.6984 C   0  0  0  0  0  0  0  0  0  0  0  0
   21.4818   -6.0637  -13.5553 O   0  0  0  0  0  0  0  0  0  0  0  0
   24.4525   -7.8384  -16.9727 C   0  0  0  0  0  0  0  0  0  0  0  0
   25.6317   -7.6887  -16.5628 O   0  0  0  0  0  0  0  0  0  0  0  0
   21.0137   -4.3298  -14.9983 O   0  0  0  0  0  0  0  0  0  0  0  0
   24.2374   -7.3133  -18.2678 O   0  0  0  0  0  0  0  0  0  0  0  0
  2  1  1  0
  3  2  2  0
  4  3  1  0
  5  4  2  0
  5 11  1  0
  6  5  1  0
  7  9  1  0
  7  6  1  0
  7  8  1  1
  9 10  2  0
 11 12  2  0
 12  2  1  0
 14 13  1  0
 15 14  1  0
 16 15  1  0
 17 16  1  6
 17 19  1  0
 18 17  1  0
 18  9  1  0
 19 20  2  0
 21 22  1  0
 21 19  1  0
 22 27  1  0
 22 23  1  1
 24 23  1  0
 24 25  1  0
 25 26  2  0
 27 28  2  0
 27 30  1  0
 29 25  1  0
M  END
$$$$
