YME.pdb
     RDKit          3D

 30 30  0  0  1  0  0  0  0  0999 V2000
   20.0648  -17.1156  -16.8533 O   0  0  0  0  0  0  0  0  0  0  0  0
   19.4330  -15.8817  -16.6213 C   0  0  0  0  0  0  0  0  0  0  0  0
   19.5577  -15.2311  -15.4071 C   0  0  0  0  0  0  0  0  0  0  0  0
   18.9510  -14.0138  -15.1392 C   0  0  0  0  0  0  0  0  0  0  0  0
   18.1813  -13.4108  -16.1252 C   0  0  0  0  0  0  0  0  0  0  0  0
   17.5344  -12.1270  -15.8711 C   0  0  0  0  0  0  0  0  0  0  0  0
   16.2240  -12.2245  -15.1068 C   0  0  2  0  0  0  0  0  0  0  0  0
   15.2621  -13.0263  -15.8831 N   0  0  0  0  0  0  0  0  0  0  0  0
   15.5848  -10.9351  -14.8457 C   0  0  0  0  0  0  0  0  0  0  0  0
   14.8372  -10.3645  -15.7108 O   0  0  0  0  0  0  0  0  0  0  0  0
   18.0570  -14.0566  -17.3317 C   0  0  0  0  0  0  0  0  0  0  0  0
   18.6669  -15.2737  -17.5917 C   0  0  0  0  0  0  0  0  0  0  0  0
   11.2737   -7.4312   -9.6514 C   0  0  0  0  0  0  0  0  0  0  0  0
   12.1623   -8.7673  -10.4663 S   0  0  0  0  0  0  0  0  0  0  0  0
   13.2325   -8.1064  -11.8111 C   0  0  0  0  0  0  0  0  0  0  0  0
   14.0383   -9.2473  -12.3083 C   0  0  0  0  0  0  0  0  0  0  0  0
   15.0291   -8.9175  -13.4080 C   0  0  2  0  0  0  0  0  0  0  0  0
   15.7305  -10.2079  -13.6235 N   0  0  0  0  0  0  0  0  0  0  0  0
   16.0572   -7.9434  -12.9990 C   0  0  0  0  0  0  0  0  0  0  0  0
   17.0800   -8.3026  -12.3077 O   0  0  0  0  0  0  0  0  0  0  0  0
   15.9556   -6.5652  -13.3608 N   0  0  0  0  0  0  0  0  0  0  0  0
   17.1007   -5.6768  -13.1017 C   0  0  1  0  0  0  0  0  0  0  0  0
   18.3521   -6.2965  -13.6690 C   0  0  0  0  0  0  0  0  0  0  0  0
   19.5247   -5.3748  -13.5081 C   0  0  0  0  0  0  0  0  0  0  0  0
   20.6992   -6.0063  -14.1694 C   0  0  0  0  0  0  0  0  0  0  0  0
   20.5305   -7.1015  -14.7489 O   0  0  0  0  0  0  0  0  0  0  0  0
   16.8220   -4.3129  -13.5935 C   0  0  0  0  0  0  0  0  0  0  0  0
   17.5825   -3.3233  -13.4407 O   0  0  0  0  0  0  0  0  0  0  0  0
   21.9182   -5.3723  -14.1226 O   0  0  0  0  0  0  0  0  0  0  0  0
   15.6362   -4.0059  -14.2997 O   0  0  0  0  0  0  0  0  0  0  0  0
  2  1  1  0
  3  2  2  0
  4  3  1  0
  5  4  2  0
  5 11  1  0
  6  5  1  0
  7  9  1  0
  7  6  1  0
  7  8  1  6
  9 10  2  0
 11 12  2  0
 12  2  1  0
 14 13  1  0
 15 14  1  0
 16 15  1  0
 17 16  1  1
 17 19  1  0
 18 17  1  0
 18  9  1  0
 19 20  2  0
 21 22  1  0
 21 19  1  0
 22 27  1  0
 22 23  1  6
 24 23  1  0
 24 25  1  0
 25 26  2  0
 27 28  2  0
 27 30  1  0
 29 25  1  0
M  END
$$$$
