YME.pdb
     RDKit          3D

 30 30  0  0  1  0  0  0  0  0999 V2000
   30.1066  -16.6512  -19.4273 O   0  0  0  0  0  0  0  0  0  0  0  0
   29.2558  -17.3245  -18.5337 C   0  0  0  0  0  0  0  0  0  0  0  0
   28.4811  -18.3921  -18.9501 C   0  0  0  0  0  0  0  0  0  0  0  0
   27.6304  -19.0818  -18.1003 C   0  0  0  0  0  0  0  0  0  0  0  0
   27.5430  -18.6933  -16.7700 C   0  0  0  0  0  0  0  0  0  0  0  0
   26.6579  -19.4048  -15.8525 C   0  0  0  0  0  0  0  0  0  0  0  0
   27.3343  -20.5105  -15.0583 C   0  0  2  0  0  0  0  0  0  0  0  0
   27.6448  -21.6381  -15.9543 N   0  0  0  0  0  0  0  0  0  0  0  0
   26.5212  -21.0491  -13.9683 C   0  0  0  0  0  0  0  0  0  0  0  0
   25.7131  -22.0229  -14.1461 O   0  0  0  0  0  0  0  0  0  0  0  0
   28.3122  -17.6328  -16.3557 C   0  0  0  0  0  0  0  0  0  0  0  0
   29.1605  -16.9483  -17.2117 C   0  0  0  0  0  0  0  0  0  0  0  0
   25.5438  -20.4006   -6.1174 C   0  0  0  0  0  0  0  0  0  0  0  0
   26.4575  -20.2426   -7.6597 S   0  0  0  0  0  0  0  0  0  0  0  0
   25.4168  -20.7684   -9.0848 C   0  0  0  0  0  0  0  0  0  0  0  0
   26.2455  -20.5897  -10.3012 C   0  0  0  0  0  0  0  0  0  0  0  0
   25.6078  -21.0463  -11.5993 C   0  0  2  0  0  0  0  0  0  0  0  0
   26.5547  -20.5498  -12.6290 N   0  0  0  0  0  0  0  0  0  0  0  0
   24.3112  -20.4014  -11.8748 C   0  0  0  0  0  0  0  0  0  0  0  0
   24.2460  -19.2384  -12.4191 O   0  0  0  0  0  0  0  0  0  0  0  0
   23.0797  -21.0489  -11.5508 N   0  0  0  0  0  0  0  0  0  0  0  0
   21.8395  -20.5753  -12.1874 C   0  0  1  0  0  0  0  0  0  0  0  0
   22.0041  -20.6050  -13.6853 C   0  0  0  0  0  0  0  0  0  0  0  0
   20.8072  -21.2272  -14.3418 C   0  0  0  0  0  0  0  0  0  0  0  0
   20.5294  -20.4760  -15.5964 C   0  0  0  0  0  0  0  0  0  0  0  0
   21.4882  -20.2314  -16.3610 O   0  0  0  0  0  0  0  0  0  0  0  0
   20.6764  -21.3360  -11.6892 C   0  0  0  0  0  0  0  0  0  0  0  0
   19.4756  -21.0638  -11.9442 O   0  0  0  0  0  0  0  0  0  0  0  0
   19.2421  -20.0796  -15.8715 O   0  0  0  0  0  0  0  0  0  0  0  0
   20.8308  -22.4695  -10.8583 O   0  0  0  0  0  0  0  0  0  0  0  0
  2  1  1  0
  3  2  2  0
  4  3  1  0
  5  4  2  0
  5 11  1  0
  6  5  1  0
  7  9  1  0
  7  6  1  0
  7  8  1  6
  9 10  2  0
 11 12  2  0
 12  2  1  0
 14 13  1  0
 15 14  1  0
 16 15  1  0
 17 16  1  1
 17 19  1  0
 18 17  1  0
 18  9  1  0
 19 20  2  0
 21 22  1  0
 21 19  1  0
 22 27  1  0
 22 23  1  6
 24 23  1  0
 24 25  1  0
 25 26  2  0
 27 28  2  0
 27 30  1  0
 29 25  1  0
M  END
$$$$
