YME.pdb
     RDKit          3D

 30 30  0  0  1  0  0  0  0  0999 V2000
   22.8356  -22.3399   -6.7555 O   0  0  0  0  0  0  0  0  0  0  0  0
   23.0307  -21.5913   -7.9290 C   0  0  0  0  0  0  0  0  0  0  0  0
   24.2953  -21.1892   -8.3193 C   0  0  0  0  0  0  0  0  0  0  0  0
   24.5292  -20.4506   -9.4688 C   0  0  0  0  0  0  0  0  0  0  0  0
   23.4548  -20.0923  -10.2723 C   0  0  0  0  0  0  0  0  0  0  0  0
   23.6733  -19.3180  -11.4905 C   0  0  0  0  0  0  0  0  0  0  0  0
   23.1980  -20.0012  -12.7625 C   0  0  2  0  0  0  0  0  0  0  0  0
   24.0121  -21.2048  -13.0063 N   0  0  0  0  0  0  0  0  0  0  0  0
   23.3008  -19.1718  -13.9629 C   0  0  0  0  0  0  0  0  0  0  0  0
   22.7401  -18.0264  -14.0423 O   0  0  0  0  0  0  0  0  0  0  0  0
   22.1983  -20.4914   -9.8852 C   0  0  0  0  0  0  0  0  0  0  0  0
   21.9727  -21.2298   -8.7342 C   0  0  0  0  0  0  0  0  0  0  0  0
   28.6637  -17.2293  -19.1932 C   0  0  0  0  0  0  0  0  0  0  0  0
   27.9881  -18.0456  -17.7386 S   0  0  0  0  0  0  0  0  0  0  0  0
   26.1591  -17.8424  -17.6739 C   0  0  0  0  0  0  0  0  0  0  0  0
   25.6903  -18.6136  -16.4976 C   0  0  0  0  0  0  0  0  0  0  0  0
   24.1900  -18.6201  -16.2762 C   0  0  2  0  0  0  0  0  0  0  0  0
   24.0250  -19.5545  -15.1347 N   0  0  0  0  0  0  0  0  0  0  0  0
   23.4329  -19.1950  -17.4028 C   0  0  0  0  0  0  0  0  0  0  0  0
   23.5083  -20.4463  -17.6887 O   0  0  0  0  0  0  0  0  0  0  0  0
   22.5840  -18.3821  -18.2147 N   0  0  0  0  0  0  0  0  0  0  0  0
   21.8595  -19.0080  -19.3332 C   0  0  1  0  0  0  0  0  0  0  0  0
   20.4819  -18.4050  -19.4357 C   0  0  0  0  0  0  0  0  0  0  0  0
   19.7609  -18.4940  -18.1232 C   0  0  0  0  0  0  0  0  0  0  0  0
   18.3927  -17.9394  -18.3124 C   0  0  0  0  0  0  0  0  0  0  0  0
   18.0589  -17.5738  -19.4607 O   0  0  0  0  0  0  0  0  0  0  0  0
   22.6518  -18.9264  -20.5763 C   0  0  0  0  0  0  0  0  0  0  0  0
   22.8370  -17.8774  -21.2443 O   0  0  0  0  0  0  0  0  0  0  0  0
   17.5490  -17.8481  -17.2307 O   0  0  0  0  0  0  0  0  0  0  0  0
   23.2858  -20.0631  -21.1288 O   0  0  0  0  0  0  0  0  0  0  0  0
  2  1  1  0
  3  2  2  0
  4  3  1  0
  5  4  2  0
  5 11  1  0
  6  5  1  0
  7  9  1  0
  7  6  1  0
  7  8  1  6
  9 10  2  0
 11 12  2  0
 12  2  1  0
 14 13  1  0
 15 14  1  0
 16 15  1  0
 17 16  1  6
 17 19  1  0
 18 17  1  0
 18  9  1  0
 19 20  2  0
 21 22  1  0
 21 19  1  0
 22 27  1  0
 22 23  1  6
 24 23  1  0
 24 25  1  0
 25 26  2  0
 27 28  2  0
 27 30  1  0
 29 25  1  0
M  END
$$$$
