YME.pdb
     RDKit          3D

 30 30  0  0  1  0  0  0  0  0999 V2000
   23.4359  -13.5023  -20.6927 O   0  0  0  0  0  0  0  0  0  0  0  0
   23.2603  -14.6900  -19.9620 C   0  0  0  0  0  0  0  0  0  0  0  0
   22.6088  -14.6898  -18.7419 C   0  0  0  0  0  0  0  0  0  0  0  0
   22.4155  -15.8391  -17.9913 C   0  0  0  0  0  0  0  0  0  0  0  0
   22.8924  -17.0504  -18.4748 C   0  0  0  0  0  0  0  0  0  0  0  0
   22.6990  -18.2765  -17.7066 C   0  0  0  0  0  0  0  0  0  0  0  0
   23.8616  -18.6370  -16.7960 C   0  0  2  0  0  0  0  0  0  0  0  0
   24.9830  -19.1402  -17.6085 N   0  0  0  0  0  0  0  0  0  0  0  0
   23.5536  -19.6752  -15.8128 C   0  0  0  0  0  0  0  0  0  0  0  0
   23.2240  -20.8594  -16.1620 O   0  0  0  0  0  0  0  0  0  0  0  0
   23.5397  -17.0512  -19.6868 C   0  0  0  0  0  0  0  0  0  0  0  0
   23.7290  -15.8977  -20.4314 C   0  0  0  0  0  0  0  0  0  0  0  0
   24.4150  -21.1289   -8.0869 C   0  0  0  0  0  0  0  0  0  0  0  0
   24.7747  -20.2953   -9.6408 S   0  0  0  0  0  0  0  0  0  0  0  0
   23.7624  -21.0056  -11.0051 C   0  0  0  0  0  0  0  0  0  0  0  0
   24.0485  -20.1913  -12.2107 C   0  0  0  0  0  0  0  0  0  0  0  0
   23.2605  -20.5627  -13.4521 C   0  0  2  0  0  0  0  0  0  0  0  0
   23.5939  -19.4689  -14.3987 N   0  0  0  0  0  0  0  0  0  0  0  0
   21.8002  -20.5179  -13.2556 C   0  0  0  0  0  0  0  0  0  0  0  0
   21.1856  -19.4045  -13.0668 O   0  0  0  0  0  0  0  0  0  0  0  0
   21.0149  -21.7111  -13.2728 N   0  0  0  0  0  0  0  0  0  0  0  0
   19.5639  -21.6094  -13.0453 C   0  0  1  0  0  0  0  0  0  0  0  0
   18.8901  -22.8590  -13.5516 C   0  0  0  0  0  0  0  0  0  0  0  0
   19.3839  -24.0683  -12.8139 C   0  0  0  0  0  0  0  0  0  0  0  0
   18.6460  -25.2537  -13.3294 C   0  0  0  0  0  0  0  0  0  0  0  0
   19.2987  -26.1447  -13.9157 O   0  0  0  0  0  0  0  0  0  0  0  0
   19.2802  -21.2976  -11.6304 C   0  0  0  0  0  0  0  0  0  0  0  0
   20.1115  -21.3922  -10.6918 O   0  0  0  0  0  0  0  0  0  0  0  0
   17.2856  -25.3303  -13.1464 O   0  0  0  0  0  0  0  0  0  0  0  0
   18.0061  -20.8521  -11.2090 O   0  0  0  0  0  0  0  0  0  0  0  0
  2  1  1  0
  3  2  2  0
  4  3  1  0
  5  4  2  0
  5 11  1  0
  6  5  1  0
  7  9  1  0
  7  6  1  0
  7  8  1  6
  9 10  2  0
 11 12  2  0
 12  2  1  0
 14 13  1  0
 15 14  1  0
 16 15  1  0
 17 16  1  1
 17 19  1  0
 18 17  1  0
 18  9  1  0
 19 20  2  0
 21 22  1  0
 21 19  1  0
 22 27  1  0
 22 23  1  1
 24 23  1  0
 24 25  1  0
 25 26  2  0
 27 28  2  0
 27 30  1  0
 29 25  1  0
M  END
$$$$
