RTS.pdb
     RDKit          3D

 25 24  0  0  1  0  0  0  0  0999 V2000
   20.5072  -21.0276   -9.7769 N   0  0  0  0  0  0  0  0  0  0  0  0
   20.8661  -21.8970   -8.6949 C   0  0  0  0  0  0  0  0  0  0  0  0
   19.9623  -22.6839   -8.2341 N   0  0  0  0  0  0  0  0  0  0  0  0
   22.1867  -21.8231   -8.2178 N   0  0  0  0  0  0  0  0  0  0  0  0
   23.1027  -20.8756   -8.8187 C   0  0  0  0  0  0  0  0  0  0  0  0
   23.2709  -21.2838  -10.2666 C   0  0  0  0  0  0  0  0  0  0  0  0
   24.2086  -20.3694  -10.9843 C   0  0  0  0  0  0  0  0  0  0  0  0
   25.1489  -21.1116  -11.9302 C   0  0  2  0  0  0  0  0  0  0  0  0
   26.2963  -21.4918  -11.1489 N   0  0  0  0  0  0  0  0  0  0  0  0
   25.5223  -20.0953  -12.9791 C   0  0  0  0  0  0  0  0  0  0  0  0
   26.4029  -19.2279  -12.7497 O   0  0  0  0  0  0  0  0  0  0  0  0
   20.1931  -23.3480   -7.4942 C   0  0  0  0  0  0  0  0  0  0  0  0
   27.5192  -20.5126  -15.5463 C   0  0  2  0  0  0  0  0  0  0  0  0
   26.3309  -19.9651  -16.2547 O   0  0  0  0  0  0  0  0  0  0  0  0
   25.6071  -21.0288  -16.7914 C   0  0  2  0  0  0  0  0  0  0  0  0
   25.3748  -19.2144  -15.3327 N   0  0  0  0  0  0  0  0  0  0  0  0
   24.9094  -20.0668  -14.2565 C   0  0  0  0  0  0  0  0  0  0  0  0
   24.2455  -18.6176  -16.0872 O   0  0  0  0  0  0  0  0  0  0  0  0
   23.0712  -19.0598  -16.0196 O   0  0  0  0  0  0  0  0  0  0  0  0
   22.5946  -14.9961  -18.8495 C   0  0  0  0  0  0  0  0  0  0  0  0
   23.7506  -15.5511  -18.3125 C   0  0  2  0  0  0  0  0  0  0  0  0
   23.3609  -16.8606  -17.6648 N   0  0  0  0  0  0  0  0  0  0  0  0
   24.4269  -17.4795  -16.9551 C   0  0  0  0  0  0  0  0  0  0  0  0
   22.8879  -17.7630  -18.7412 O   0  0  0  0  0  0  0  0  0  0  0  0
   23.7138  -18.5671  -19.2508 O   0  0  0  0  0  0  0  0  0  0  0  0
  2  1  1  0
  2  3  2  0
  4  2  1  0
  5  4  1  0
  6  5  1  0
  7  8  1  0
  7  6  1  0
  8  9  1  1
 10 16  1  0
 10  8  1  0
 11 10  2  0
 13 15  1  0
 13 12  1  6
 14 13  1  0
 15 16  1  6
 17 18  2  0
 17 15  1  0
 19 20  1  0
 21 20  1  1
 21 22  1  0
 22 17  1  0
 23 21  1  0
 24 23  2  0
 25 23  1  0
M  END
$$$$
