RTS.pdb
     RDKit          3D

 25 24  0  0  1  0  0  0  0  0999 V2000
   23.4661  -20.7988  -10.4820 N   0  0  0  0  0  0  0  0  0  0  0  0
   24.1893  -20.7994   -9.2441 C   0  0  0  0  0  0  0  0  0  0  0  0
   23.5389  -21.0698   -8.1708 N   0  0  0  0  0  0  0  0  0  0  0  0
   25.5629  -20.5033   -9.2985 N   0  0  0  0  0  0  0  0  0  0  0  0
   26.1438  -20.0750  -10.5543 C   0  0  0  0  0  0  0  0  0  0  0  0
   26.5627  -21.3268  -11.2951 C   0  0  0  0  0  0  0  0  0  0  0  0
   26.4919  -21.1330  -12.7743 C   0  0  0  0  0  0  0  0  0  0  0  0
   25.0801  -21.3111  -13.3263 C   0  0  2  0  0  0  0  0  0  0  0  0
   24.7559  -22.7052  -13.1744 N   0  0  0  0  0  0  0  0  0  0  0  0
   25.1852  -20.9366  -14.7828 C   0  0  0  0  0  0  0  0  0  0  0  0
   25.8582  -21.6376  -15.5803 O   0  0  0  0  0  0  0  0  0  0  0  0
   23.9869  -20.9570   -7.2607 C   0  0  0  0  0  0  0  0  0  0  0  0
   23.7275  -17.8822  -18.4825 C   0  0  2  0  0  0  0  0  0  0  0  0
   23.7029  -18.2638  -17.0447 O   0  0  0  0  0  0  0  0  0  0  0  0
   22.4232  -18.7184  -16.7297 C   0  0  1  0  0  0  0  0  0  0  0  0
   24.6602  -19.4033  -16.7090 N   0  0  0  0  0  0  0  0  0  0  0  0
   24.5407  -19.7937  -15.3181 C   0  0  0  0  0  0  0  0  0  0  0  0
   26.0596  -19.0628  -17.0648 O   0  0  0  0  0  0  0  0  0  0  0  0
   26.7978  -18.3593  -16.3305 O   0  0  0  0  0  0  0  0  0  0  0  0
   30.1509  -20.0691  -19.1227 C   0  0  0  0  0  0  0  0  0  0  0  0
   28.8563  -20.4866  -18.8353 C   0  0  2  0  0  0  0  0  0  0  0  0
   28.0155  -19.2444  -18.6459 N   0  0  0  0  0  0  0  0  0  0  0  0
   26.6670  -19.5232  -18.2897 C   0  0  0  0  0  0  0  0  0  0  0  0
   28.0489  -18.4889  -19.9206 O   0  0  0  0  0  0  0  0  0  0  0  0
   26.9798  -18.3844  -20.5796 O   0  0  0  0  0  0  0  0  0  0  0  0
  2  1  1  0
  2  3  2  0
  4  2  1  0
  5  4  1  0
  6  5  1  0
  7  8  1  0
  7  6  1  0
  8  9  1  6
 10 16  1  0
 10  8  1  0
 11 10  2  0
 13 15  1  0
 13 12  1  1
 14 13  1  0
 15 16  1  1
 17 18  2  0
 17 15  1  0
 19 20  1  0
 21 20  1  1
 21 22  1  0
 22 17  1  0
 23 21  1  0
 24 23  2  0
 25 23  1  0
M  END
$$$$
