RTS.pdb
     RDKit          3D

 25 24  0  0  1  0  0  0  0  0999 V2000
   19.0516  -16.9561  -18.1169 N   0  0  0  0  0  0  0  0  0  0  0  0
   17.8436  -16.9386  -17.3450 C   0  0  0  0  0  0  0  0  0  0  0  0
   17.2098  -18.0455  -17.1996 N   0  0  0  0  0  0  0  0  0  0  0  0
   17.4421  -15.7052  -16.8018 N   0  0  0  0  0  0  0  0  0  0  0  0
   17.8429  -14.4794  -17.4610 C   0  0  0  0  0  0  0  0  0  0  0  0
   17.3690  -13.3360  -16.5897 C   0  0  0  0  0  0  0  0  0  0  0  0
   17.6843  -12.0136  -17.2083 C   0  0  0  0  0  0  0  0  0  0  0  0
   19.1082  -11.5487  -16.9146 C   0  0  2  0  0  0  0  0  0  0  0  0
   19.5720  -12.3345  -15.8016 N   0  0  0  0  0  0  0  0  0  0  0  0
   18.9688  -10.0977  -16.5306 C   0  0  0  0  0  0  0  0  0  0  0  0
   18.5152   -9.2567  -17.3476 O   0  0  0  0  0  0  0  0  0  0  0  0
   16.3549  -18.0746  -16.6427 C   0  0  0  0  0  0  0  0  0  0  0  0
   16.8166   -8.4361  -14.0696 C   0  0  2  0  0  0  0  0  0  0  0  0
   18.2130   -8.0744  -13.7047 O   0  0  0  0  0  0  0  0  0  0  0  0
   18.6471   -8.9418  -12.7034 C   0  0  2  0  0  0  0  0  0  0  0  0
   19.1950   -8.2261  -14.8624 N   0  0  0  0  0  0  0  0  0  0  0  0
   19.3360   -9.6158  -15.2495 C   0  0  0  0  0  0  0  0  0  0  0  0
   20.5068   -7.6080  -14.5493 O   0  0  0  0  0  0  0  0  0  0  0  0
   21.4502   -8.2443  -14.0162 O   0  0  0  0  0  0  0  0  0  0  0  0
   22.8760   -5.8652  -16.7363 C   0  0  0  0  0  0  0  0  0  0  0  0
   22.6290   -4.8979  -15.7688 C   0  0  2  0  0  0  0  0  0  0  0  0
   22.0358   -5.6029  -14.5701 N   0  0  0  0  0  0  0  0  0  0  0  0
   20.7845   -6.2226  -14.8408 C   0  0  0  0  0  0  0  0  0  0  0  0
   21.8706   -4.5918  -13.4992 O   0  0  0  0  0  0  0  0  0  0  0  0
   20.7006   -4.2649  -13.1634 O   0  0  0  0  0  0  0  0  0  0  0  0
  2  1  1  0
  2  3  2  0
  4  2  1  0
  5  4  1  0
  6  5  1  0
  7  8  1  0
  7  6  1  0
  8  9  1  1
 10 16  1  0
 10  8  1  0
 11 10  2  0
 13 15  1  0
 13 12  1  1
 14 13  1  0
 15 16  1  6
 17 18  2  0
 17 15  1  0
 19 20  1  0
 21 20  1  6
 21 22  1  0
 22 17  1  0
 23 21  1  0
 24 23  2  0
 25 23  1  0
M  END
$$$$
