RTS.pdb
     RDKit          3D

 25 24  0  0  1  0  0  0  0  0999 V2000
   19.8430  -23.5758   -8.1950 N   0  0  0  0  0  0  0  0  0  0  0  0
   19.0744  -22.5625   -8.8569 C   0  0  0  0  0  0  0  0  0  0  0  0
   17.8058  -22.5493   -8.6604 N   0  0  0  0  0  0  0  0  0  0  0  0
   19.7707  -21.6546   -9.6744 N   0  0  0  0  0  0  0  0  0  0  0  0
   21.1873  -21.8523   -9.9021 C   0  0  0  0  0  0  0  0  0  0  0  0
   21.3181  -22.7154  -11.1387 C   0  0  0  0  0  0  0  0  0  0  0  0
   22.1045  -22.0242  -12.2039 C   0  0  0  0  0  0  0  0  0  0  0  0
   23.6121  -22.1598  -12.0067 C   0  0  2  0  0  0  0  0  0  0  0  0
   23.8388  -22.1594  -10.5854 N   0  0  0  0  0  0  0  0  0  0  0  0
   24.1973  -20.9271  -12.6474 C   0  0  0  0  0  0  0  0  0  0  0  0
   24.4045  -19.8875  -11.9717 O   0  0  0  0  0  0  0  0  0  0  0  0
   17.2286  -21.8328   -9.1023 C   0  0  0  0  0  0  0  0  0  0  0  0
   27.3770  -20.2900  -13.3828 C   0  0  2  0  0  0  0  0  0  0  0  0
   26.7444  -20.0504  -14.7080 O   0  0  0  0  0  0  0  0  0  0  0  0
   26.8783  -21.2052  -15.4773 C   0  0  2  0  0  0  0  0  0  0  0  0
   25.2486  -19.7639  -14.6168 N   0  0  0  0  0  0  0  0  0  0  0  0
   24.5383  -20.8787  -14.0220 C   0  0  0  0  0  0  0  0  0  0  0  0
   24.6825  -19.3946  -15.9375 O   0  0  0  0  0  0  0  0  0  0  0  0
   23.6898  -19.9779  -16.4408 O   0  0  0  0  0  0  0  0  0  0  0  0
   22.6790  -16.0282  -17.8517 C   0  0  0  0  0  0  0  0  0  0  0  0
   23.4221  -16.6931  -16.8830 C   0  0  2  0  0  0  0  0  0  0  0  0
   24.4669  -17.5144  -17.6039 N   0  0  0  0  0  0  0  0  0  0  0  0
   25.2426  -18.3309  -16.7352 C   0  0  0  0  0  0  0  0  0  0  0  0
   25.3531  -16.5694  -18.3239 O   0  0  0  0  0  0  0  0  0  0  0  0
   24.8997  -15.9883  -19.3462 O   0  0  0  0  0  0  0  0  0  0  0  0
  2  1  1  0
  2  3  2  0
  4  2  1  0
  5  4  1  0
  6  5  1  0
  7  8  1  0
  7  6  1  0
  8  9  1  1
 10 16  1  0
 10  8  1  0
 11 10  2  0
 13 15  1  0
 13 12  1  6
 14 13  1  0
 15 16  1  6
 17 18  2  0
 17 15  1  0
 19 20  1  0
 21 20  1  6
 21 22  1  0
 22 17  1  0
 23 21  1  0
 24 23  2  0
 25 23  1  0
M  END
$$$$
