RTS.pdb
     RDKit          3D

 25 24  0  0  1  0  0  0  0  0999 V2000
   25.6614  -25.2628  -15.6107 N   0  0  0  0  0  0  0  0  0  0  0  0
   26.8595  -25.0847  -16.3777 C   0  0  0  0  0  0  0  0  0  0  0  0
   27.6105  -26.1096  -16.5618 N   0  0  0  0  0  0  0  0  0  0  0  0
   27.1231  -23.7957  -16.8738 N   0  0  0  0  0  0  0  0  0  0  0  0
   26.1388  -22.7505  -16.6824 C   0  0  0  0  0  0  0  0  0  0  0  0
   26.2551  -22.2946  -15.2437 C   0  0  0  0  0  0  0  0  0  0  0  0
   25.2250  -21.2644  -14.9145 C   0  0  0  0  0  0  0  0  0  0  0  0
   25.2506  -20.0765  -15.8727 C   0  0  2  0  0  0  0  0  0  0  0  0
   26.4800  -19.3731  -15.6170 N   0  0  0  0  0  0  0  0  0  0  0  0
   24.0586  -19.2403  -15.4824 C   0  0  0  0  0  0  0  0  0  0  0  0
   24.0487  -18.5992  -14.4011 O   0  0  0  0  0  0  0  0  0  0  0  0
   28.4144  -26.0472  -17.1875 C   0  0  0  0  0  0  0  0  0  0  0  0
   20.2490  -16.4550  -16.5818 C   0  0  2  0  0  0  0  0  0  0  0  0
   21.4062  -17.3097  -16.9616 O   0  0  0  0  0  0  0  0  0  0  0  0
   22.5364  -16.5008  -17.0707 C   0  0  1  0  0  0  0  0  0  0  0  0
   21.7359  -18.3729  -15.9183 N   0  0  0  0  0  0  0  0  0  0  0  0
   22.9071  -19.1361  -16.3019 C   0  0  0  0  0  0  0  0  0  0  0  0
   20.5720  -19.2526  -15.6494 O   0  0  0  0  0  0  0  0  0  0  0  0
   20.1690  -20.1187  -16.4658 O   0  0  0  0  0  0  0  0  0  0  0  0
   17.2945  -20.8870  -12.4779 C   0  0  0  0  0  0  0  0  0  0  0  0
   18.2642  -19.9107  -12.6763 C   0  0  2  0  0  0  0  0  0  0  0  0
   18.7308  -20.0260  -14.1098 N   0  0  0  0  0  0  0  0  0  0  0  0
   19.8218  -19.1677  -14.4200 C   0  0  0  0  0  0  0  0  0  0  0  0
   17.5756  -19.6985  -14.9787 O   0  0  0  0  0  0  0  0  0  0  0  0
   17.3911  -18.4928  -15.2957 O   0  0  0  0  0  0  0  0  0  0  0  0
  2  1  1  0
  2  3  2  0
  4  2  1  0
  5  4  1  0
  6  5  1  0
  7  8  1  0
  7  6  1  0
  8  9  1  1
 10 16  1  0
 10  8  1  0
 11 10  2  0
 13 15  1  0
 13 12  1  6
 14 13  1  0
 15 16  1  6
 17 18  2  0
 17 15  1  0
 19 20  1  0
 21 20  1  1
 21 22  1  0
 22 17  1  0
 23 21  1  0
 24 23  2  0
 25 23  1  0
M  END
$$$$
