RTS.pdb
     RDKit          3D

 25 24  0  0  1  0  0  0  0  0999 V2000
   11.4014   -8.4176   -8.0885 N   0  0  0  0  0  0  0  0  0  0  0  0
   10.6759   -9.6047   -8.4347 C   0  0  0  0  0  0  0  0  0  0  0  0
    9.5019   -9.7553   -7.9376 N   0  0  0  0  0  0  0  0  0  0  0  0
   11.3069  -10.5186   -9.2973 N   0  0  0  0  0  0  0  0  0  0  0  0
   11.5850  -10.1242  -10.6629 C   0  0  0  0  0  0  0  0  0  0  0  0
   12.9595   -9.4902  -10.6666 C   0  0  0  0  0  0  0  0  0  0  0  0
   13.7354   -9.8804  -11.8816 C   0  0  0  0  0  0  0  0  0  0  0  0
   14.2305   -8.6761  -12.6780 C   0  0  2  0  0  0  0  0  0  0  0  0
   13.9713   -8.9690  -14.0632 N   0  0  0  0  0  0  0  0  0  0  0  0
   15.7122   -8.6167  -12.4066 C   0  0  0  0  0  0  0  0  0  0  0  0
   16.1521   -8.6432  -11.2292 O   0  0  0  0  0  0  0  0  0  0  0  0
    8.9558  -10.5879   -8.1619 C   0  0  0  0  0  0  0  0  0  0  0  0
   18.6045  -10.3148  -14.8017 C   0  0  2  0  0  0  0  0  0  0  0  0
   18.8931   -8.9074  -14.4147 O   0  0  0  0  0  0  0  0  0  0  0  0
   18.5263   -8.0744  -15.4706 C   0  0  2  0  0  0  0  0  0  0  0  0
   18.0945   -8.4422  -13.2008 N   0  0  0  0  0  0  0  0  0  0  0  0
   16.6689   -8.5295  -13.4483 C   0  0  0  0  0  0  0  0  0  0  0  0
   18.4948   -7.0788  -12.7746 O   0  0  0  0  0  0  0  0  0  0  0  0
   18.0215   -6.0362  -13.2924 O   0  0  0  0  0  0  0  0  0  0  0  0
   18.7599   -5.6035   -9.3271 C   0  0  0  0  0  0  0  0  0  0  0  0
   20.0274   -5.3822   -9.8538 C   0  0  2  0  0  0  0  0  0  0  0  0
   19.9313   -5.5731  -11.3505 N   0  0  0  0  0  0  0  0  0  0  0  0
   19.4630   -6.8623  -11.7271 C   0  0  0  0  0  0  0  0  0  0  0  0
   21.2844   -5.3499  -11.9127 O   0  0  0  0  0  0  0  0  0  0  0  0
   21.8615   -6.3168  -12.4788 O   0  0  0  0  0  0  0  0  0  0  0  0
  2  1  1  0
  2  3  2  0
  4  2  1  0
  5  4  1  0
  6  5  1  0
  7  8  1  0
  7  6  1  0
  8  9  1  6
 10 16  1  0
 10  8  1  0
 11 10  2  0
 13 15  1  0
 13 12  1  6
 14 13  1  0
 15 16  1  1
 17 18  2  0
 17 15  1  0
 19 20  1  0
 21 20  1  1
 21 22  1  0
 22 17  1  0
 23 21  1  0
 24 23  2  0
 25 23  1  0
M  END
$$$$
