RTS.pdb
     RDKit          3D

 25 24  0  0  1  0  0  0  0  0999 V2000
   13.0890  -13.5458  -13.4825 N   0  0  0  0  0  0  0  0  0  0  0  0
   13.1308  -14.4991  -14.5524 C   0  0  0  0  0  0  0  0  0  0  0  0
   12.1831  -15.3624  -14.6225 N   0  0  0  0  0  0  0  0  0  0  0  0
   14.2107  -14.4164  -15.4493 N   0  0  0  0  0  0  0  0  0  0  0  0
   15.2565  -13.4440  -15.2075 C   0  0  0  0  0  0  0  0  0  0  0  0
   16.3010  -13.6441  -16.2847 C   0  0  0  0  0  0  0  0  0  0  0  0
   17.4587  -12.7190  -16.0986 C   0  0  0  0  0  0  0  0  0  0  0  0
   18.5757  -12.9599  -17.1105 C   0  0  2  0  0  0  0  0  0  0  0  0
   18.8950  -14.3615  -17.0391 N   0  0  0  0  0  0  0  0  0  0  0  0
   19.7269  -12.1181  -16.6221 C   0  0  0  0  0  0  0  0  0  0  0  0
   20.4416  -12.5008  -15.6613 O   0  0  0  0  0  0  0  0  0  0  0  0
   12.1467  -16.0176  -15.4043 C   0  0  0  0  0  0  0  0  0  0  0  0
   22.8188  -11.3640  -18.2396 C   0  0  2  0  0  0  0  0  0  0  0  0
   22.2571  -10.0292  -17.8980 O   0  0  0  0  0  0  0  0  0  0  0  0
   21.6227   -9.5143  -19.0275 C   0  0  2  0  0  0  0  0  0  0  0  0
   21.2013  -10.0853  -16.7982 N   0  0  0  0  0  0  0  0  0  0  0  0
   20.0566  -10.8725  -17.2121 C   0  0  0  0  0  0  0  0  0  0  0  0
   20.8016   -8.7267  -16.3560 O   0  0  0  0  0  0  0  0  0  0  0  0
   19.7953   -8.1293  -16.8139 O   0  0  0  0  0  0  0  0  0  0  0  0
   21.0235   -7.3586  -12.6566 C   0  0  0  0  0  0  0  0  0  0  0  0
   21.6376   -6.4238  -13.4824 C   0  0  2  0  0  0  0  0  0  0  0  0
   21.1824   -6.7061  -14.8963 N   0  0  0  0  0  0  0  0  0  0  0  0
   21.5516   -7.9985  -15.3617 C   0  0  0  0  0  0  0  0  0  0  0  0
   21.7839   -5.6707  -15.7697 O   0  0  0  0  0  0  0  0  0  0  0  0
   22.6511   -6.0305  -16.6104 O   0  0  0  0  0  0  0  0  0  0  0  0
  2  1  1  0
  2  3  2  0
  4  2  1  0
  5  4  1  0
  6  5  1  0
  7  8  1  0
  7  6  1  0
  8  9  1  1
 10 16  1  0
 10  8  1  0
 11 10  2  0
 13 15  1  0
 13 12  1  6
 14 13  1  0
 15 16  1  1
 17 18  2  0
 17 15  1  0
 19 20  1  0
 21 20  1  1
 21 22  1  0
 22 17  1  0
 23 21  1  0
 24 23  2  0
 25 23  1  0
M  END
$$$$
