RTS.pdb
     RDKit          3D

 25 24  0  0  1  0  0  0  0  0999 V2000
   25.5522  -23.0995  -14.5201 N   0  0  0  0  0  0  0  0  0  0  0  0
   24.8748  -22.5112  -13.4019 C   0  0  0  0  0  0  0  0  0  0  0  0
   24.5611  -23.2777  -12.4209 N   0  0  0  0  0  0  0  0  0  0  0  0
   24.6043  -21.1326  -13.4631 N   0  0  0  0  0  0  0  0  0  0  0  0
   24.9233  -20.4035  -14.6732 C   0  0  0  0  0  0  0  0  0  0  0  0
   23.6118  -20.1132  -15.3708 C   0  0  0  0  0  0  0  0  0  0  0  0
   23.7583  -19.0114  -16.3684 C   0  0  0  0  0  0  0  0  0  0  0  0
   24.4111  -17.7639  -15.7788 C   0  0  2  0  0  0  0  0  0  0  0  0
   23.6997  -17.4676  -14.5632 N   0  0  0  0  0  0  0  0  0  0  0  0
   24.1889  -16.6878  -16.8108 C   0  0  0  0  0  0  0  0  0  0  0  0
   24.7123  -16.7716  -17.9507 O   0  0  0  0  0  0  0  0  0  0  0  0
   24.0206  -22.9087  -11.6377 C   0  0  0  0  0  0  0  0  0  0  0  0
   21.8850  -12.4316  -18.0851 C   0  0  2  0  0  0  0  0  0  0  0  0
   22.1453  -13.4978  -17.0805 O   0  0  0  0  0  0  0  0  0  0  0  0
   20.9992  -14.2825  -16.9614 C   0  0  1  0  0  0  0  0  0  0  0  0
   23.2740  -14.4414  -17.4845 N   0  0  0  0  0  0  0  0  0  0  0  0
   23.3913  -15.5453  -16.5523 C   0  0  0  0  0  0  0  0  0  0  0  0
   24.5595  -13.7180  -17.6424 O   0  0  0  0  0  0  0  0  0  0  0  0
   25.4739  -13.7569  -16.7813 O   0  0  0  0  0  0  0  0  0  0  0  0
   28.4008  -12.6456  -19.4419 C   0  0  0  0  0  0  0  0  0  0  0  0
   27.2320  -13.3457  -19.1651 C   0  0  1  0  0  0  0  0  0  0  0  0
   26.1149  -12.3320  -19.0630 N   0  0  0  0  0  0  0  0  0  0  0  0
   24.8433  -12.9157  -18.8074 C   0  0  0  0  0  0  0  0  0  0  0  0
   26.0740  -11.5883  -20.3444 O   0  0  0  0  0  0  0  0  0  0  0  0
   25.3824  -12.0609  -21.2860 O   0  0  0  0  0  0  0  0  0  0  0  0
  2  1  1  0
  2  3  2  0
  4  2  1  0
  5  4  1  0
  6  5  1  0
  7  8  1  0
  7  6  1  0
  8  9  1  1
 10 16  1  0
 10  8  1  0
 11 10  2  0
 13 15  1  0
 13 12  1  1
 14 13  1  0
 15 16  1  1
 17 18  2  0
 17 15  1  0
 19 20  1  0
 21 20  1  1
 21 22  1  0
 22 17  1  0
 23 21  1  0
 24 23  2  0
 25 23  1  0
M  END
$$$$
