RTS.pdb
     RDKit          3D

 25 24  0  0  1  0  0  0  0  0999 V2000
   16.7481  -25.0792   -8.6348 N   0  0  0  0  0  0  0  0  0  0  0  0
   17.9310  -25.2210   -7.8373 C   0  0  0  0  0  0  0  0  0  0  0  0
   19.0642  -25.2161   -8.4408 N   0  0  0  0  0  0  0  0  0  0  0  0
   17.7610  -25.3546   -6.4479 N   0  0  0  0  0  0  0  0  0  0  0  0
   16.4213  -25.4579   -5.9071 C   0  0  0  0  0  0  0  0  0  0  0  0
   15.9512  -24.0472   -5.6238 C   0  0  0  0  0  0  0  0  0  0  0  0
   15.6564  -23.8531   -4.1725 C   0  0  0  0  0  0  0  0  0  0  0  0
   14.2763  -24.3706   -3.7759 C   0  0  2  0  0  0  0  0  0  0  0  0
   13.3783  -23.9884   -4.8337 N   0  0  0  0  0  0  0  0  0  0  0  0
   13.9448  -23.6445   -2.4971 C   0  0  0  0  0  0  0  0  0  0  0  0
   13.4832  -22.4754   -2.5222 O   0  0  0  0  0  0  0  0  0  0  0  0
   19.9292  -25.2760   -7.9024 C   0  0  0  0  0  0  0  0  0  0  0  0
   11.8198  -25.2398    0.2972 C   0  0  2  0  0  0  0  0  0  0  0  0
   13.0042  -24.5957    0.9265 O   0  0  0  0  0  0  0  0  0  0  0  0
   13.9409  -25.5851    1.2217 C   0  0  2  0  0  0  0  0  0  0  0  0
   13.7047  -23.5988    0.0083 N   0  0  0  0  0  0  0  0  0  0  0  0
   14.1337  -24.2336   -1.2222 C   0  0  0  0  0  0  0  0  0  0  0  0
   14.8303  -22.9207    0.6970 O   0  0  0  0  0  0  0  0  0  0  0  0
   16.0350  -23.1538    0.4260 O   0  0  0  0  0  0  0  0  0  0  0  0
   15.1035  -19.0418    2.2257 C   0  0  0  0  0  0  0  0  0  0  0  0
   15.2271  -20.0526    3.1722 C   0  0  2  0  0  0  0  0  0  0  0  0
   15.6645  -21.3015    2.4408 N   0  0  0  0  0  0  0  0  0  0  0  0
   14.6096  -21.9404    1.7322 C   0  0  0  0  0  0  0  0  0  0  0  0
   16.2232  -22.2323    3.4498 O   0  0  0  0  0  0  0  0  0  0  0  0
   15.6954  -23.3707    3.5673 O   0  0  0  0  0  0  0  0  0  0  0  0
  2  1  1  0
  2  3  2  0
  4  2  1  0
  5  4  1  0
  6  5  1  0
  7  8  1  0
  7  6  1  0
  8  9  1  6
 10 16  1  0
 10  8  1  0
 11 10  2  0
 13 15  1  0
 13 12  1  1
 14 13  1  0
 15 16  1  1
 17 18  2  0
 17 15  1  0
 19 20  1  0
 21 20  1  6
 21 22  1  0
 22 17  1  0
 23 21  1  0
 24 23  2  0
 25 23  1  0
M  END
$$$$
