RTS.pdb
     RDKit          3D

 25 24  0  0  1  0  0  0  0  0999 V2000
   19.3315  -23.8904   -8.1825 N   0  0  0  0  0  0  0  0  0  0  0  0
   17.9811  -23.6244   -8.5838 C   0  0  0  0  0  0  0  0  0  0  0  0
   17.1510  -24.6039   -8.5789 N   0  0  0  0  0  0  0  0  0  0  0  0
   17.6651  -22.3050   -8.9533 N   0  0  0  0  0  0  0  0  0  0  0  0
   18.4823  -21.6340   -9.9431 C   0  0  0  0  0  0  0  0  0  0  0  0
   19.0087  -22.7026  -10.8769 C   0  0  0  0  0  0  0  0  0  0  0  0
   19.9176  -22.1225  -11.9104 C   0  0  0  0  0  0  0  0  0  0  0  0
   19.1660  -21.6014  -13.1324 C   0  0  2  0  0  0  0  0  0  0  0  0
   18.2639  -22.6488  -13.5333 N   0  0  0  0  0  0  0  0  0  0  0  0
   20.2319  -21.3783  -14.1747 C   0  0  0  0  0  0  0  0  0  0  0  0
   20.6035  -22.3153  -14.9259 O   0  0  0  0  0  0  0  0  0  0  0  0
   16.1949  -24.4640   -8.9076 C   0  0  0  0  0  0  0  0  0  0  0  0
   22.4806  -18.3219  -17.2683 C   0  0  2  0  0  0  0  0  0  0  0  0
   21.4974  -18.6203  -16.1922 O   0  0  0  0  0  0  0  0  0  0  0  0
   20.2553  -18.8541  -16.7804 C   0  0  1  0  0  0  0  0  0  0  0  0
   21.8406  -19.8756  -15.3959 N   0  0  0  0  0  0  0  0  0  0  0  0
   20.8591  -20.1207  -14.3578 C   0  0  0  0  0  0  0  0  0  0  0  0
   23.2170  -19.8132  -14.8457 O   0  0  0  0  0  0  0  0  0  0  0  0
   23.5863  -18.9300  -14.0317 O   0  0  0  0  0  0  0  0  0  0  0  0
   25.6456  -22.5635  -13.3096 C   0  0  0  0  0  0  0  0  0  0  0  0
   26.1781  -22.0792  -14.4990 C   0  0  2  0  0  0  0  0  0  0  0  0
   25.5688  -20.7170  -14.7420 N   0  0  0  0  0  0  0  0  0  0  0  0
   24.2285  -20.7734  -15.2149 C   0  0  0  0  0  0  0  0  0  0  0  0
   26.4201  -20.0226  -15.7369 O   0  0  0  0  0  0  0  0  0  0  0  0
   25.8943  -19.6647  -16.8249 O   0  0  0  0  0  0  0  0  0  0  0  0
  2  1  1  0
  2  3  2  0
  4  2  1  0
  5  4  1  0
  6  5  1  0
  7  8  1  0
  7  6  1  0
  8  9  1  6
 10 16  1  0
 10  8  1  0
 11 10  2  0
 13 15  1  0
 13 12  1  1
 14 13  1  0
 15 16  1  1
 17 18  2  0
 17 15  1  0
 19 20  1  0
 21 20  1  1
 21 22  1  0
 22 17  1  0
 23 21  1  0
 24 23  2  0
 25 23  1  0
M  END
$$$$
