PGP.pdb
     RDKit          3D

 19 20  0  0  1  0  0  0  0  0999 V2000
    7.0800  -14.4722   19.5792 N   0  0  0  0  0  0  0  0  0  0  0  0
    7.4956  -13.6082   18.4586 C   0  0  0  0  0  0  0  0  0  0  0  0
    8.3999  -12.6299   19.1744 C   0  0  0  0  0  0  0  0  0  0  0  0
    9.1872  -13.5051   20.1047 C   0  0  0  0  0  0  0  0  0  0  0  0
    8.3218  -14.7224   20.2826 C   0  0  1  0  0  0  0  0  0  0  0  0
    8.0729  -14.9529   21.7187 C   0  0  0  0  0  0  0  0  0  0  0  0
    9.0074  -15.3714   22.4903 O   0  0  0  0  0  0  0  0  0  0  0  0
    6.8255  -14.7426   22.3542 N   0  0  0  0  0  0  0  0  0  0  0  0
    6.6407  -15.1124   23.7473 C   0  0  0  0  0  0  0  0  0  0  0  0
    7.5498  -14.3575   24.6377 C   0  0  0  0  0  0  0  0  0  0  0  0
    8.7989  -14.5228   24.4584 O   0  0  0  0  0  0  0  0  0  0  0  0
    7.0731  -13.4925   25.6413 N   0  0  0  0  0  0  0  0  0  0  0  0
    5.7235  -12.9099   25.6186 C   0  0  0  0  0  0  0  0  0  0  0  0
    5.8126  -11.7539   26.5999 C   0  0  0  0  0  0  0  0  0  0  0  0
    6.7308  -12.3532   27.6369 C   0  0  0  0  0  0  0  0  0  0  0  0
    7.7865  -13.0371   26.8062 C   0  0  1  0  0  0  0  0  0  0  0  0
    8.4380  -14.1408   27.5641 C   0  0  0  0  0  0  0  0  0  0  0  0
    9.3857  -13.8233   28.3204 O   0  0  0  0  0  0  0  0  0  0  0  0
    8.0396  -15.4431   27.4572 O   0  0  0  0  0  0  0  0  0  0  0  0
  1  2  1  0
  3  2  1  0
  4  5  1  0
  4  3  1  0
  5  1  1  0
  5  6  1  1
  7  6  2  0
  8  6  1  0
  9  8  1  0
 10  9  1  0
 10 12  1  0
 11 10  2  0
 12 16  1  0
 13 12  1  0
 13 14  1  0
 14 15  1  0
 16 17  1  1
 16 15  1  0
 17 19  1  0
 18 17  2  0
M  END
$$$$
