PGP.pdb
     RDKit          3D

 19 20  0  0  1  0  0  0  0  0999 V2000
   -1.2381  -26.4590   26.8129 N   0  0  0  0  0  0  0  0  0  0  0  0
    0.0217  -27.1871   27.0529 C   0  0  0  0  0  0  0  0  0  0  0  0
   -0.2838  -27.8558   28.3745 C   0  0  0  0  0  0  0  0  0  0  0  0
   -1.6952  -28.3343   28.2007 C   0  0  0  0  0  0  0  0  0  0  0  0
   -2.2542  -27.4436   27.1253 C   0  0  1  0  0  0  0  0  0  0  0  0
   -3.4859  -26.7900   27.6081 C   0  0  0  0  0  0  0  0  0  0  0  0
   -4.5103  -27.4830   27.9461 O   0  0  0  0  0  0  0  0  0  0  0  0
   -3.6458  -25.3894   27.7369 N   0  0  0  0  0  0  0  0  0  0  0  0
   -4.8541  -24.8406   28.3290 C   0  0  0  0  0  0  0  0  0  0  0  0
   -4.5440  -23.8661   29.3983 C   0  0  0  0  0  0  0  0  0  0  0  0
   -3.3683  -23.9003   29.8845 O   0  0  0  0  0  0  0  0  0  0  0  0
   -5.4925  -22.9376   29.8683 N   0  0  0  0  0  0  0  0  0  0  0  0
   -6.8268  -22.7867   29.2698 C   0  0  0  0  0  0  0  0  0  0  0  0
   -7.3002  -21.4360   29.7789 C   0  0  0  0  0  0  0  0  0  0  0  0
   -6.7190  -21.4561   31.1715 C   0  0  0  0  0  0  0  0  0  0  0  0
   -5.3331  -22.0087   30.9570 C   0  0  1  0  0  0  0  0  0  0  0  0
   -4.8074  -22.6430   32.1973 C   0  0  0  0  0  0  0  0  0  0  0  0
   -5.1903  -23.8116   32.4394 O   0  0  0  0  0  0  0  0  0  0  0  0
   -3.9485  -22.0028   33.0451 O   0  0  0  0  0  0  0  0  0  0  0  0
  1  2  1  0
  3  2  1  0
  4  5  1  0
  4  3  1  0
  5  1  1  0
  5  6  1  1
  7  6  2  0
  8  6  1  0
  9  8  1  0
 10  9  1  0
 10 12  1  0
 11 10  2  0
 12 16  1  0
 13 12  1  0
 13 14  1  0
 14 15  1  0
 16 17  1  1
 16 15  1  0
 17 19  1  0
 18 17  2  0
M  END
$$$$
