PGP.pdb
     RDKit          3D

 19 20  0  0  1  0  0  0  0  0999 V2000
    8.2702  -15.2973   19.6036 N   0  0  0  0  0  0  0  0  0  0  0  0
    8.3011  -14.9764   18.1645 C   0  0  0  0  0  0  0  0  0  0  0  0
    7.5239  -13.6793   18.1459 C   0  0  0  0  0  0  0  0  0  0  0  0
    8.0503  -12.9446   19.3435 C   0  0  0  0  0  0  0  0  0  0  0  0
    8.5901  -14.0316   20.2320 C   0  0  1  0  0  0  0  0  0  0  0  0
    7.9702  -13.9387   21.5679 C   0  0  0  0  0  0  0  0  0  0  0  0
    8.1067  -12.8851   22.2856 O   0  0  0  0  0  0  0  0  0  0  0  0
    7.1972  -14.9663   22.1599 N   0  0  0  0  0  0  0  0  0  0  0  0
    6.5387  -14.7457   23.4364 C   0  0  0  0  0  0  0  0  0  0  0  0
    7.5036  -14.3560   24.4882 C   0  0  0  0  0  0  0  0  0  0  0  0
    8.6368  -14.9350   24.4723 O   0  0  0  0  0  0  0  0  0  0  0  0
    7.1994  -13.3920   25.4684 N   0  0  0  0  0  0  0  0  0  0  0  0
    5.9855  -12.5639   25.4245 C   0  0  0  0  0  0  0  0  0  0  0  0
    6.2923  -11.4225   26.3787 C   0  0  0  0  0  0  0  0  0  0  0  0
    7.0786  -12.1603   27.4346 C   0  0  0  0  0  0  0  0  0  0  0  0
    7.9855  -13.0526   26.6262 C   0  0  1  0  0  0  0  0  0  0  0  0
    8.4141  -14.2415   27.4136 C   0  0  0  0  0  0  0  0  0  0  0  0
    7.7276  -15.2819   27.2834 O   0  0  0  0  0  0  0  0  0  0  0  0
    9.4993  -14.2233   28.2433 O   0  0  0  0  0  0  0  0  0  0  0  0
  1  2  1  0
  3  2  1  0
  4  5  1  0
  4  3  1  0
  5  1  1  0
  5  6  1  1
  7  6  2  0
  8  6  1  0
  9  8  1  0
 10  9  1  0
 10 12  1  0
 11 10  2  0
 12 16  1  0
 13 12  1  0
 13 14  1  0
 14 15  1  0
 16 17  1  1
 16 15  1  0
 17 19  1  0
 18 17  2  0
M  END
$$$$
