PGP.pdb
     RDKit          3D

 19 20  0  0  1  0  0  0  0  0999 V2000
   -1.6567  -28.0658   25.2879 N   0  0  0  0  0  0  0  0  0  0  0  0
   -0.9901  -29.0828   24.4534 C   0  0  0  0  0  0  0  0  0  0  0  0
   -0.3870  -28.2131   23.3732 C   0  0  0  0  0  0  0  0  0  0  0  0
    0.1520  -27.0391   24.1364 C   0  0  0  0  0  0  0  0  0  0  0  0
   -0.6549  -27.0256   25.4056 C   0  0  1  0  0  0  0  0  0  0  0  0
   -1.2895  -25.7049   25.5802 C   0  0  0  0  0  0  0  0  0  0  0  0
   -0.5830  -24.6598   25.8094 O   0  0  0  0  0  0  0  0  0  0  0  0
   -2.6851  -25.4774   25.5149 N   0  0  0  0  0  0  0  0  0  0  0  0
   -3.2142  -24.1286   25.6264 C   0  0  0  0  0  0  0  0  0  0  0  0
   -3.6561  -23.8280   27.0062 C   0  0  0  0  0  0  0  0  0  0  0  0
   -3.6163  -24.7849   27.8443 O   0  0  0  0  0  0  0  0  0  0  0  0
   -4.1025  -22.5493   27.3915 N   0  0  0  0  0  0  0  0  0  0  0  0
   -3.9796  -21.3665   26.5270 C   0  0  0  0  0  0  0  0  0  0  0  0
   -4.1655  -20.2002   27.4824 C   0  0  0  0  0  0  0  0  0  0  0  0
   -5.2070  -20.7771   28.4097 C   0  0  0  0  0  0  0  0  0  0  0  0
   -4.7191  -22.1845   28.6405 C   0  0  1  0  0  0  0  0  0  0  0  0
   -5.8386  -23.0867   29.0278 C   0  0  0  0  0  0  0  0  0  0  0  0
   -6.1120  -23.1544   30.2491 O   0  0  0  0  0  0  0  0  0  0  0  0
   -6.5477  -23.8146   28.1148 O   0  0  0  0  0  0  0  0  0  0  0  0
  1  2  1  0
  3  2  1  0
  4  5  1  0
  4  3  1  0
  5  1  1  0
  5  6  1  6
  7  6  2  0
  8  6  1  0
  9  8  1  0
 10  9  1  0
 10 12  1  0
 11 10  2  0
 12 16  1  0
 13 12  1  0
 13 14  1  0
 14 15  1  0
 16 17  1  6
 16 15  1  0
 17 19  1  0
 18 17  2  0
M  END
$$$$
