PGP.pdb
     RDKit          3D

 19 20  0  0  1  0  0  0  0  0999 V2000
    7.0840  -14.3730   19.6447 N   0  0  0  0  0  0  0  0  0  0  0  0
    7.4558  -13.3978   18.6028 C   0  0  0  0  0  0  0  0  0  0  0  0
    8.3459  -12.4641   19.3922 C   0  0  0  0  0  0  0  0  0  0  0  0
    9.1733  -13.3984   20.2251 C   0  0  0  0  0  0  0  0  0  0  0  0
    8.3446  -14.6513   20.3027 C   0  0  1  0  0  0  0  0  0  0  0  0
    8.1280  -15.0203   21.7149 C   0  0  0  0  0  0  0  0  0  0  0  0
    9.0930  -15.4574   22.4370 O   0  0  0  0  0  0  0  0  0  0  0  0
    6.8809  -14.9308   22.3787 N   0  0  0  0  0  0  0  0  0  0  0  0
    6.7795  -15.2438   23.7941 C   0  0  0  0  0  0  0  0  0  0  0  0
    7.6718  -14.3886   24.6076 C   0  0  0  0  0  0  0  0  0  0  0  0
    8.9226  -14.5037   24.4028 O   0  0  0  0  0  0  0  0  0  0  0  0
    7.1779  -13.4845   25.5675 N   0  0  0  0  0  0  0  0  0  0  0  0
    5.8126  -12.9409   25.5245 C   0  0  0  0  0  0  0  0  0  0  0  0
    5.8762  -11.7321   26.4422 C   0  0  0  0  0  0  0  0  0  0  0  0
    6.8172  -12.2500   27.5023 C   0  0  0  0  0  0  0  0  0  0  0  0
    7.8860  -12.9483   26.7009 C   0  0  1  0  0  0  0  0  0  0  0  0
    8.5725  -13.9919   27.5113 C   0  0  0  0  0  0  0  0  0  0  0  0
    8.1631  -15.1690   27.3790 O   0  0  0  0  0  0  0  0  0  0  0  0
    9.6008  -13.7047   28.3635 O   0  0  0  0  0  0  0  0  0  0  0  0
  1  2  1  0
  3  2  1  0
  4  5  1  0
  4  3  1  0
  5  1  1  0
  5  6  1  1
  7  6  2  0
  8  6  1  0
  9  8  1  0
 10  9  1  0
 10 12  1  0
 11 10  2  0
 12 16  1  0
 13 12  1  0
 13 14  1  0
 14 15  1  0
 16 17  1  1
 16 15  1  0
 17 19  1  0
 18 17  2  0
M  END
$$$$
