PGP.pdb
     RDKit          3D

 19 20  0  0  1  0  0  0  0  0999 V2000
    7.1428  -14.3236   19.4910 N   0  0  0  0  0  0  0  0  0  0  0  0
    7.5984  -13.3920   18.4425 C   0  0  0  0  0  0  0  0  0  0  0  0
    8.5450  -12.5162   19.2324 C   0  0  0  0  0  0  0  0  0  0  0  0
    9.2908  -13.4979   20.0876 C   0  0  0  0  0  0  0  0  0  0  0  0
    8.3710  -14.6853   20.1692 C   0  0  1  0  0  0  0  0  0  0  0  0
    8.1101  -15.0189   21.5827 C   0  0  0  0  0  0  0  0  0  0  0  0
    9.0204  -15.5497   22.3131 O   0  0  0  0  0  0  0  0  0  0  0  0
    6.8763  -14.7937   22.2391 N   0  0  0  0  0  0  0  0  0  0  0  0
    6.7282  -15.1081   23.6501 C   0  0  0  0  0  0  0  0  0  0  0  0
    7.6414  -14.3000   24.4881 C   0  0  0  0  0  0  0  0  0  0  0  0
    8.8889  -14.4386   24.2781 O   0  0  0  0  0  0  0  0  0  0  0  0
    7.1700  -13.4142   25.4761 N   0  0  0  0  0  0  0  0  0  0  0  0
    5.8206  -12.8315   25.4480 C   0  0  0  0  0  0  0  0  0  0  0  0
    5.9151  -11.6556   26.4049 C   0  0  0  0  0  0  0  0  0  0  0  0
    6.8381  -12.2340   27.4495 C   0  0  0  0  0  0  0  0  0  0  0  0
    7.8894  -12.9354   26.6279 C   0  0  1  0  0  0  0  0  0  0  0  0
    8.5440  -14.0238   27.4051 C   0  0  0  0  0  0  0  0  0  0  0  0
    8.0704  -15.1764   27.2711 O   0  0  0  0  0  0  0  0  0  0  0  0
    9.6101  -13.8013   28.2299 O   0  0  0  0  0  0  0  0  0  0  0  0
  1  2  1  0
  3  2  1  0
  4  5  1  0
  4  3  1  0
  5  1  1  0
  5  6  1  1
  7  6  2  0
  8  6  1  0
  9  8  1  0
 10  9  1  0
 10 12  1  0
 11 10  2  0
 12 16  1  0
 13 12  1  0
 13 14  1  0
 14 15  1  0
 16 17  1  1
 16 15  1  0
 17 19  1  0
 18 17  2  0
M  END
$$$$
