PGP.pdb
     RDKit          3D

 19 20  0  0  1  0  0  0  0  0999 V2000
    8.2091  -15.2550   19.1236 N   0  0  0  0  0  0  0  0  0  0  0  0
    8.3010  -14.3291   17.9794 C   0  0  0  0  0  0  0  0  0  0  0  0
    7.5743  -13.1230   18.5309 C   0  0  0  0  0  0  0  0  0  0  0  0
    8.0871  -13.0247   19.9375 C   0  0  0  0  0  0  0  0  0  0  0  0
    8.5550  -14.4185   20.2550 C   0  0  1  0  0  0  0  0  0  0  0  0
    7.8940  -14.8997   21.4835 C   0  0  0  0  0  0  0  0  0  0  0  0
    7.3027  -16.0370   21.5111 O   0  0  0  0  0  0  0  0  0  0  0  0
    7.8515  -14.1769   22.6999 N   0  0  0  0  0  0  0  0  0  0  0  0
    7.4590  -14.8385   23.9327 C   0  0  0  0  0  0  0  0  0  0  0  0
    8.5576  -14.8424   24.9238 C   0  0  0  0  0  0  0  0  0  0  0  0
    9.5321  -15.6295   24.6992 O   0  0  0  0  0  0  0  0  0  0  0  0
    8.5423  -14.0208   26.0672 N   0  0  0  0  0  0  0  0  0  0  0  0
    7.4816  -13.0371   26.3296 C   0  0  0  0  0  0  0  0  0  0  0  0
    8.0892  -12.1224   27.3792 C   0  0  0  0  0  0  0  0  0  0  0  0
    8.8776  -13.1258   28.1848 C   0  0  0  0  0  0  0  0  0  0  0  0
    9.5165  -13.9890   27.1270 C   0  0  1  0  0  0  0  0  0  0  0  0
    9.8478  -15.3392   27.6603 C   0  0  0  0  0  0  0  0  0  0  0  0
    9.0088  -16.2477   27.4566 O   0  0  0  0  0  0  0  0  0  0  0  0
   11.0033  -15.5993   28.3409 O   0  0  0  0  0  0  0  0  0  0  0  0
  1  2  1  0
  3  2  1  0
  4  5  1  0
  4  3  1  0
  5  1  1  0
  5  6  1  1
  7  6  2  0
  8  6  1  0
  9  8  1  0
 10  9  1  0
 10 12  1  0
 11 10  2  0
 12 16  1  0
 13 12  1  0
 13 14  1  0
 14 15  1  0
 16 17  1  1
 16 15  1  0
 17 19  1  0
 18 17  2  0
M  END
$$$$
