WHD.pdb
     RDKit          3D

 33 35  0  0  1  0  0  0  0  0999 V2000
   24.2650  -16.1816  -17.9666 N   0  0  0  0  0  0  0  0  0  0  0  0
   24.1517  -16.4195  -16.5387 C   0  0  1  0  0  0  0  0  0  0  0  0
   23.4187  -15.2213  -15.9257 C   0  0  0  0  0  0  0  0  0  0  0  0
   24.2548  -14.0268  -16.1799 C   0  0  0  0  0  0  0  0  0  0  0  0
   23.8400  -12.8526  -16.7641 C   0  0  0  0  0  0  0  0  0  0  0  0
   24.8650  -11.9857  -16.8391 N   0  0  0  0  0  0  0  0  0  0  0  0
   25.9191  -12.5870  -16.3146 C   0  0  0  0  0  0  0  0  0  0  0  0
   27.2345  -12.1770  -16.1255 C   0  0  0  0  0  0  0  0  0  0  0  0
   28.1487  -13.0248  -15.5369 C   0  0  0  0  0  0  0  0  0  0  0  0
   27.8181  -14.2828  -15.1183 C   0  0  0  0  0  0  0  0  0  0  0  0
   26.5045  -14.7057  -15.3019 C   0  0  0  0  0  0  0  0  0  0  0  0
   25.5849  -13.8720  -15.8862 C   0  0  0  0  0  0  0  0  0  0  0  0
   23.4613  -17.6909  -16.2585 C   0  0  0  0  0  0  0  0  0  0  0  0
   22.7387  -18.1866  -17.1588 O   0  0  0  0  0  0  0  0  0  0  0  0
   23.6346  -18.3073  -14.9918 N   0  0  0  0  0  0  0  0  0  0  0  0
   23.0571  -19.5929  -14.6995 C   0  0  1  0  0  0  0  0  0  0  0  0
   24.0097  -20.4621  -13.8925 C   0  0  0  0  0  0  0  0  0  0  0  0
   25.1963  -20.8315  -14.7225 C   0  0  0  0  0  0  0  0  0  0  0  0
   25.3566  -21.9925  -15.4644 C   0  0  0  0  0  0  0  0  0  0  0  0
   26.5565  -21.9623  -16.0761 N   0  0  0  0  0  0  0  0  0  0  0  0
   27.1528  -20.8121  -15.7368 C   0  0  0  0  0  0  0  0  0  0  0  0
   26.3350  -20.1371  -14.9258 N   0  0  0  0  0  0  0  0  0  0  0  0
   21.7620  -19.4219  -14.0023 C   0  0  0  0  0  0  0  0  0  0  0  0
   21.6828  -18.8275  -12.8965 O   0  0  0  0  0  0  0  0  0  0  0  0
   20.5774  -19.9386  -14.5893 N   0  0  0  0  0  0  0  0  0  0  0  0
   19.3156  -19.8101  -13.8579 C   0  0  1  0  0  0  0  0  0  0  0  0
   18.2785  -19.1501  -14.7225 C   0  0  0  0  0  0  0  0  0  0  0  0
   18.4302  -17.7008  -14.8896 C   0  0  0  0  0  0  0  0  0  0  0  0
   18.9546  -17.1549  -15.8818 O   0  0  0  0  0  0  0  0  0  0  0  0
   18.9560  -21.1912  -13.4580 C   0  0  0  0  0  0  0  0  0  0  0  0
   18.0490  -21.4944  -12.4661 O   0  0  0  0  0  0  0  0  0  0  0  0
   17.9659  -16.8418  -13.8858 O   0  0  0  0  0  0  0  0  0  0  0  0
   19.4789  -22.2232  -14.0230 O   0  0  0  0  0  0  0  0  0  0  0  0
  2  1  1  6
  2  3  1  0
  3  4  1  0
  4  5  2  0
  6  5  1  0
  7  6  1  0
  8  7  2  0
  9  8  1  0
 10 11  1  0
 10  9  2  0
 11 12  2  0
 12  7  1  0
 12  4  1  0
 13 14  2  0
 13  2  1  0
 15 13  1  0
 16 15  1  0
 16 17  1  1
 18 17  1  0
 18 22  1  0
 19 20  1  0
 19 18  2  0
 20 21  1  0
 21 22  2  0
 23 16  1  0
 24 23  2  0
 25 23  1  0
 26 25  1  0
 26 27  1  6
 27 28  1  0
 28 29  2  0
 30 26  1  0
 30 31  1  0
 32 28  1  0
 33 30  2  0
M  END
$$$$
