WHD.pdb
     RDKit          3D

 33 35  0  0  1  0  0  0  0  0999 V2000
   23.0919  -22.2449  -15.8363 N   0  0  0  0  0  0  0  0  0  0  0  0
   23.4621  -22.2880  -14.4329 C   0  0  1  0  0  0  0  0  0  0  0  0
   24.6731  -21.3680  -14.2442 C   0  0  0  0  0  0  0  0  0  0  0  0
   25.7279  -21.8475  -15.1650 C   0  0  0  0  0  0  0  0  0  0  0  0
   26.5175  -21.0656  -15.9757 C   0  0  0  0  0  0  0  0  0  0  0  0
   27.3653  -21.8365  -16.6789 N   0  0  0  0  0  0  0  0  0  0  0  0
   27.1284  -23.0895  -16.3300 C   0  0  0  0  0  0  0  0  0  0  0  0
   27.6956  -24.2960  -16.7260 C   0  0  0  0  0  0  0  0  0  0  0  0
   27.2487  -25.4839  -16.1871 C   0  0  0  0  0  0  0  0  0  0  0  0
   26.2486  -25.5368  -15.2575 C   0  0  0  0  0  0  0  0  0  0  0  0
   25.6722  -24.3360  -14.8525 C   0  0  0  0  0  0  0  0  0  0  0  0
   26.1076  -23.1471  -15.3808 C   0  0  0  0  0  0  0  0  0  0  0  0
   22.3343  -21.9002  -13.5671 C   0  0  0  0  0  0  0  0  0  0  0  0
   22.5653  -21.6808  -12.3518 O   0  0  0  0  0  0  0  0  0  0  0  0
   21.0365  -21.7885  -14.1307 N   0  0  0  0  0  0  0  0  0  0  0  0
   19.8834  -21.5290  -13.3092 C   0  0  1  0  0  0  0  0  0  0  0  0
   18.9758  -20.4815  -13.9365 C   0  0  0  0  0  0  0  0  0  0  0  0
   19.4309  -19.1109  -13.5522 C   0  0  0  0  0  0  0  0  0  0  0  0
   20.4614  -18.7971  -12.6783 C   0  0  0  0  0  0  0  0  0  0  0  0
   20.5706  -17.4574  -12.5887 N   0  0  0  0  0  0  0  0  0  0  0  0
   19.6348  -16.9229  -13.3839 C   0  0  0  0  0  0  0  0  0  0  0  0
   18.9540  -17.9164  -13.9596 N   0  0  0  0  0  0  0  0  0  0  0  0
   19.1513  -22.7891  -13.0476 C   0  0  0  0  0  0  0  0  0  0  0  0
   18.7666  -23.5342  -13.9853 O   0  0  0  0  0  0  0  0  0  0  0  0
   18.8730  -23.1721  -11.7095 N   0  0  0  0  0  0  0  0  0  0  0  0
   18.1889  -24.4442  -11.4692 C   0  0  1  0  0  0  0  0  0  0  0  0
   18.3894  -24.8813  -10.0454 C   0  0  0  0  0  0  0  0  0  0  0  0
   17.7031  -26.1211   -9.6666 C   0  0  0  0  0  0  0  0  0  0  0  0
   17.0431  -26.8317  -10.4521 O   0  0  0  0  0  0  0  0  0  0  0  0
   16.7694  -24.1928  -11.8133 C   0  0  0  0  0  0  0  0  0  0  0  0
   15.9788  -25.0767  -12.5150 O   0  0  0  0  0  0  0  0  0  0  0  0
   17.7728  -26.5668   -8.3409 O   0  0  0  0  0  0  0  0  0  0  0  0
   16.1663  -23.1075  -11.4722 O   0  0  0  0  0  0  0  0  0  0  0  0
  2  1  1  6
  2  3  1  0
  3  4  1  0
  4  5  2  0
  6  5  1  0
  7  6  1  0
  8  7  2  0
  9  8  1  0
 10 11  1  0
 10  9  2  0
 11 12  2  0
 12  7  1  0
 12  4  1  0
 13 14  2  0
 13  2  1  0
 15 13  1  0
 16 15  1  0
 16 17  1  6
 18 17  1  0
 18 22  1  0
 19 20  1  0
 19 18  2  0
 20 21  1  0
 21 22  2  0
 23 16  1  0
 24 23  2  0
 25 23  1  0
 26 25  1  0
 26 27  1  1
 27 28  1  0
 28 29  2  0
 30 26  1  0
 30 31  1  0
 32 28  1  0
 33 30  2  0
M  END
$$$$
