WHD.pdb
     RDKit          3D

 33 35  0  0  1  0  0  0  0  0999 V2000
   24.7158  -22.6915  -14.2659 N   0  0  0  0  0  0  0  0  0  0  0  0
   24.0569  -21.4018  -14.3708 C   0  0  1  0  0  0  0  0  0  0  0  0
   24.0342  -21.0119  -15.8528 C   0  0  0  0  0  0  0  0  0  0  0  0
   25.3850  -20.5087  -16.1881 C   0  0  0  0  0  0  0  0  0  0  0  0
   26.4012  -21.2307  -16.7697 C   0  0  0  0  0  0  0  0  0  0  0  0
   27.4889  -20.4560  -16.9258 N   0  0  0  0  0  0  0  0  0  0  0  0
   27.1819  -19.2593  -16.4552 C   0  0  0  0  0  0  0  0  0  0  0  0
   27.9058  -18.0756  -16.3599 C   0  0  0  0  0  0  0  0  0  0  0  0
   27.3268  -16.9491  -15.8152 C   0  0  0  0  0  0  0  0  0  0  0  0
   26.0415  -16.9368  -15.3513 C   0  0  0  0  0  0  0  0  0  0  0  0
   25.3059  -18.1153  -15.4407 C   0  0  0  0  0  0  0  0  0  0  0  0
   25.8701  -19.2433  -15.9806 C   0  0  0  0  0  0  0  0  0  0  0  0
   22.7032  -21.4407  -13.7896 C   0  0  0  0  0  0  0  0  0  0  0  0
   22.1886  -22.5625  -13.5546 O   0  0  0  0  0  0  0  0  0  0  0  0
   22.0323  -20.2200  -13.5173 N   0  0  0  0  0  0  0  0  0  0  0  0
   20.7300  -20.2019  -12.9047 C   0  0  1  0  0  0  0  0  0  0  0  0
   20.4643  -18.8816  -12.1972 C   0  0  0  0  0  0  0  0  0  0  0  0
   20.6864  -17.7412  -13.1372 C   0  0  0  0  0  0  0  0  0  0  0  0
   19.7164  -17.0742  -13.8709 C   0  0  0  0  0  0  0  0  0  0  0  0
   20.3039  -16.1063  -14.6008 N   0  0  0  0  0  0  0  0  0  0  0  0
   21.6176  -16.1493  -14.3438 C   0  0  0  0  0  0  0  0  0  0  0  0
   21.8431  -17.1299  -13.4665 N   0  0  0  0  0  0  0  0  0  0  0  0
   19.6880  -20.4902  -13.9164 C   0  0  0  0  0  0  0  0  0  0  0  0
   19.8705  -20.2483  -15.1372 O   0  0  0  0  0  0  0  0  0  0  0  0
   18.4509  -21.0527  -13.5065 N   0  0  0  0  0  0  0  0  0  0  0  0
   17.4402  -21.3477  -14.5240 C   0  0  1  0  0  0  0  0  0  0  0  0
   16.7899  -22.6728  -14.2417 C   0  0  0  0  0  0  0  0  0  0  0  0
   17.6760  -23.8384  -14.3291 C   0  0  0  0  0  0  0  0  0  0  0  0
   18.4597  -24.0609  -15.2746 O   0  0  0  0  0  0  0  0  0  0  0  0
   16.4958  -20.2065  -14.4756 C   0  0  0  0  0  0  0  0  0  0  0  0
   15.6344  -19.8757  -15.4990 O   0  0  0  0  0  0  0  0  0  0  0  0
   17.6672  -24.7863  -13.2984 O   0  0  0  0  0  0  0  0  0  0  0  0
   16.4153  -19.4302  -13.4515 O   0  0  0  0  0  0  0  0  0  0  0  0
  2  1  1  6
  2  3  1  0
  3  4  1  0
  4  5  2  0
  6  5  1  0
  7  6  1  0
  8  7  2  0
  9  8  1  0
 10 11  1  0
 10  9  2  0
 11 12  2  0
 12  7  1  0
 12  4  1  0
 13 14  2  0
 13  2  1  0
 15 13  1  0
 16 15  1  0
 16 17  1  6
 18 17  1  0
 18 22  1  0
 19 20  1  0
 19 18  2  0
 20 21  1  0
 21 22  2  0
 23 16  1  0
 24 23  2  0
 25 23  1  0
 26 25  1  0
 26 27  1  1
 27 28  1  0
 28 29  2  0
 30 26  1  0
 30 31  1  0
 32 28  1  0
 33 30  2  0
M  END
$$$$
