WHD.pdb
     RDKit          3D

 33 35  0  0  1  0  0  0  0  0999 V2000
   19.4048  -11.3999  -15.7615 N   0  0  0  0  0  0  0  0  0  0  0  0
   19.4423  -10.1815  -16.5506 C   0  0  1  0  0  0  0  0  0  0  0  0
   17.9944   -9.7801  -16.8528 C   0  0  0  0  0  0  0  0  0  0  0  0
   17.5225  -10.6564  -17.9481 C   0  0  0  0  0  0  0  0  0  0  0  0
   17.9741  -11.9254  -18.2269 C   0  0  0  0  0  0  0  0  0  0  0  0
   17.3248  -12.4238  -19.2936 N   0  0  0  0  0  0  0  0  0  0  0  0
   16.4723  -11.4966  -19.6951 C   0  0  0  0  0  0  0  0  0  0  0  0
   15.5503  -11.4586  -20.7356 C   0  0  0  0  0  0  0  0  0  0  0  0
   14.7685  -10.3397  -20.9306 C   0  0  0  0  0  0  0  0  0  0  0  0
   14.8567   -9.2353  -20.1307 C   0  0  0  0  0  0  0  0  0  0  0  0
   15.7759   -9.2604  -19.0855 C   0  0  0  0  0  0  0  0  0  0  0  0
   16.5598  -10.3675  -18.8804 C   0  0  0  0  0  0  0  0  0  0  0  0
   20.1774   -9.1115  -15.8531 C   0  0  0  0  0  0  0  0  0  0  0  0
   19.8600   -8.8476  -14.6664 O   0  0  0  0  0  0  0  0  0  0  0  0
   21.2102   -8.4213  -16.5395 N   0  0  0  0  0  0  0  0  0  0  0  0
   21.8283   -7.2487  -15.9785 C   0  0  1  0  0  0  0  0  0  0  0  0
   23.3257   -7.2251  -16.2457 C   0  0  0  0  0  0  0  0  0  0  0  0
   23.9866   -8.3821  -15.5691 C   0  0  0  0  0  0  0  0  0  0  0  0
   23.3778   -9.3115  -14.7386 C   0  0  0  0  0  0  0  0  0  0  0  0
   24.2996  -10.2018  -14.3232 N   0  0  0  0  0  0  0  0  0  0  0  0
   25.4710   -9.8545  -14.8719 C   0  0  0  0  0  0  0  0  0  0  0  0
   25.2797   -8.7640  -15.6177 N   0  0  0  0  0  0  0  0  0  0  0  0
   21.1691   -6.0286  -16.4976 C   0  0  0  0  0  0  0  0  0  0  0  0
   20.8860   -5.9009  -17.7165 O   0  0  0  0  0  0  0  0  0  0  0  0
   20.8461   -4.9737  -15.6046 N   0  0  0  0  0  0  0  0  0  0  0  0
   20.1195   -3.8121  -16.1209 C   0  0  1  0  0  0  0  0  0  0  0  0
   19.1370   -3.3165  -15.0973 C   0  0  0  0  0  0  0  0  0  0  0  0
   18.4282   -2.0826  -15.4532 C   0  0  0  0  0  0  0  0  0  0  0  0
   17.7819   -1.9181  -16.5081 O   0  0  0  0  0  0  0  0  0  0  0  0
   21.1660   -2.8192  -16.4611 C   0  0  0  0  0  0  0  0  0  0  0  0
   21.0023   -1.8155  -17.3909 O   0  0  0  0  0  0  0  0  0  0  0  0
   18.4583   -0.9950  -14.5716 O   0  0  0  0  0  0  0  0  0  0  0  0
   22.3241   -2.8282  -15.8983 O   0  0  0  0  0  0  0  0  0  0  0  0
  2  1  1  1
  2  3  1  0
  3  4  1  0
  4  5  2  0
  6  5  1  0
  7  6  1  0
  8  7  2  0
  9  8  1  0
 10 11  1  0
 10  9  2  0
 11 12  2  0
 12  7  1  0
 12  4  1  0
 13 14  2  0
 13  2  1  0
 15 13  1  0
 16 15  1  0
 16 17  1  6
 18 17  1  0
 18 22  1  0
 19 20  1  0
 19 18  2  0
 20 21  1  0
 21 22  2  0
 23 16  1  0
 24 23  2  0
 25 23  1  0
 26 25  1  0
 26 27  1  1
 27 28  1  0
 28 29  2  0
 30 26  1  0
 30 31  1  0
 32 28  1  0
 33 30  2  0
M  END
$$$$
