WHD.pdb
     RDKit          3D

 33 35  0  0  1  0  0  0  0  0999 V2000
   27.0556  -20.3878  -16.6992 N   0  0  0  0  0  0  0  0  0  0  0  0
   26.4776  -20.6559  -15.3944 C   0  0  1  0  0  0  0  0  0  0  0  0
   26.6236  -19.3838  -14.5523 C   0  0  0  0  0  0  0  0  0  0  0  0
   27.7105  -19.6321  -13.5790 C   0  0  0  0  0  0  0  0  0  0  0  0
   29.0263  -19.2545  -13.7146 C   0  0  0  0  0  0  0  0  0  0  0  0
   29.7335  -19.6470  -12.6406 N   0  0  0  0  0  0  0  0  0  0  0  0
   28.8927  -20.2649  -11.8288 C   0  0  0  0  0  0  0  0  0  0  0  0
   29.0611  -20.8681  -10.5871 C   0  0  0  0  0  0  0  0  0  0  0  0
   27.9879  -21.4493   -9.9457 C   0  0  0  0  0  0  0  0  0  0  0  0
   26.7319  -21.4630  -10.4838 C   0  0  0  0  0  0  0  0  0  0  0  0
   26.5497  -20.8626  -11.7266 C   0  0  0  0  0  0  0  0  0  0  0  0
   27.6092  -20.2807  -12.3754 C   0  0  0  0  0  0  0  0  0  0  0  0
   25.0722  -21.0850  -15.5067 C   0  0  0  0  0  0  0  0  0  0  0  0
   24.4251  -20.7418  -16.5274 O   0  0  0  0  0  0  0  0  0  0  0  0
   24.5023  -21.8649  -14.4669 N   0  0  0  0  0  0  0  0  0  0  0  0
   23.1936  -22.4492  -14.6005 C   0  0  1  0  0  0  0  0  0  0  0  0
   23.1402  -23.8432  -13.9938 C   0  0  0  0  0  0  0  0  0  0  0  0
   23.8355  -24.8192  -14.8868 C   0  0  0  0  0  0  0  0  0  0  0  0
   23.3361  -25.3678  -16.0589 C   0  0  0  0  0  0  0  0  0  0  0  0
   24.2552  -26.2030  -16.5810 N   0  0  0  0  0  0  0  0  0  0  0  0
   25.3182  -26.1923  -15.7664 C   0  0  0  0  0  0  0  0  0  0  0  0
   25.0633  -25.3621  -14.7525 N   0  0  0  0  0  0  0  0  0  0  0  0
   22.1754  -21.5596  -13.9970 C   0  0  0  0  0  0  0  0  0  0  0  0
   22.1789  -21.2936  -12.7675 O   0  0  0  0  0  0  0  0  0  0  0  0
   21.1681  -20.9897  -14.8188 N   0  0  0  0  0  0  0  0  0  0  0  0
   20.1720  -20.1103  -14.2038 C   0  0  1  0  0  0  0  0  0  0  0  0
   19.9136  -18.9211  -15.0857 C   0  0  0  0  0  0  0  0  0  0  0  0
   19.3756  -17.7390  -14.4039 C   0  0  0  0  0  0  0  0  0  0  0  0
   19.1751  -17.6625  -13.1746 O   0  0  0  0  0  0  0  0  0  0  0  0
   18.9763  -20.9615  -13.9985 C   0  0  0  0  0  0  0  0  0  0  0  0
   18.7023  -22.0949  -14.7328 O   0  0  0  0  0  0  0  0  0  0  0  0
   19.0543  -16.6010  -15.1540 O   0  0  0  0  0  0  0  0  0  0  0  0
   18.0935  -20.6930  -13.1005 O   0  0  0  0  0  0  0  0  0  0  0  0
  2  1  1  6
  2  3  1  0
  3  4  1  0
  4  5  2  0
  6  5  1  0
  7  6  1  0
  8  7  2  0
  9  8  1  0
 10 11  1  0
 10  9  2  0
 11 12  2  0
 12  7  1  0
 12  4  1  0
 13 14  2  0
 13  2  1  0
 15 13  1  0
 16 15  1  0
 16 17  1  1
 18 17  1  0
 18 22  1  0
 19 20  1  0
 19 18  2  0
 20 21  1  0
 21 22  2  0
 23 16  1  0
 24 23  2  0
 25 23  1  0
 26 25  1  0
 26 27  1  6
 27 28  1  0
 28 29  2  0
 30 26  1  0
 30 31  1  0
 32 28  1  0
 33 30  2  0
M  END
$$$$
