WHD.pdb
     RDKit          3D

 33 35  0  0  1  0  0  0  0  0999 V2000
   26.3786   -7.9594  -19.4733 N   0  0  0  0  0  0  0  0  0  0  0  0
   26.1508   -9.2654  -18.8808 C   0  0  1  0  0  0  0  0  0  0  0  0
   26.1805   -9.0952  -17.3580 C   0  0  0  0  0  0  0  0  0  0  0  0
   27.6003   -8.9477  -16.9671 C   0  0  0  0  0  0  0  0  0  0  0  0
   28.1709   -7.8451  -16.3748 C   0  0  0  0  0  0  0  0  0  0  0  0
   29.4813   -8.0593  -16.1636 N   0  0  0  0  0  0  0  0  0  0  0  0
   29.7513   -9.2741  -16.6098 C   0  0  0  0  0  0  0  0  0  0  0  0
   30.9253  -10.0186  -16.6495 C   0  0  0  0  0  0  0  0  0  0  0  0
   30.9233  -11.2913  -17.1800 C   0  0  0  0  0  0  0  0  0  0  0  0
   29.7943  -11.8741  -17.6828 C   0  0  0  0  0  0  0  0  0  0  0  0
   28.6123  -11.1394  -17.6493 C   0  0  0  0  0  0  0  0  0  0  0  0
   28.6005   -9.8721  -17.1240 C   0  0  0  0  0  0  0  0  0  0  0  0
   24.8818   -9.8529  -19.3457 C   0  0  0  0  0  0  0  0  0  0  0  0
   23.9931   -9.0798  -19.7829 O   0  0  0  0  0  0  0  0  0  0  0  0
   24.7080  -11.2601  -19.2846 N   0  0  0  0  0  0  0  0  0  0  0  0
   23.5171  -11.8901  -19.7912 C   0  0  1  0  0  0  0  0  0  0  0  0
   23.7407  -13.3704  -20.0617 C   0  0  0  0  0  0  0  0  0  0  0  0
   22.5072  -13.9778  -20.6472 C   0  0  0  0  0  0  0  0  0  0  0  0
   21.6969  -14.9356  -20.0554 C   0  0  0  0  0  0  0  0  0  0  0  0
   20.6823  -15.2315  -20.8908 N   0  0  0  0  0  0  0  0  0  0  0  0
   20.8355  -14.4838  -21.9913 C   0  0  0  0  0  0  0  0  0  0  0  0
   21.9298  -13.7339  -21.8418 N   0  0  0  0  0  0  0  0  0  0  0  0
   22.3911  -11.6779  -18.8534 C   0  0  0  0  0  0  0  0  0  0  0  0
   22.5529  -11.7321  -17.6071 O   0  0  0  0  0  0  0  0  0  0  0  0
   21.0953  -11.4067  -19.3653 N   0  0  0  0  0  0  0  0  0  0  0  0
   20.0797  -10.8663  -18.4596 C   0  0  1  0  0  0  0  0  0  0  0  0
   20.6182   -9.6674  -17.7308 C   0  0  0  0  0  0  0  0  0  0  0  0
   20.6193   -9.7702  -16.2676 C   0  0  0  0  0  0  0  0  0  0  0  0
   20.2430  -10.7746  -15.6296 O   0  0  0  0  0  0  0  0  0  0  0  0
   18.9152  -10.5563  -19.3224 C   0  0  0  0  0  0  0  0  0  0  0  0
   18.8856  -10.7722  -20.6830 O   0  0  0  0  0  0  0  0  0  0  0  0
   21.0667   -8.6853  -15.5035 O   0  0  0  0  0  0  0  0  0  0  0  0
   17.8291  -10.0531  -18.8481 O   0  0  0  0  0  0  0  0  0  0  0  0
  2  1  1  6
  2  3  1  0
  3  4  1  0
  4  5  2  0
  6  5  1  0
  7  6  1  0
  8  7  2  0
  9  8  1  0
 10 11  1  0
 10  9  2  0
 11 12  2  0
 12  7  1  0
 12  4  1  0
 13 14  2  0
 13  2  1  0
 15 13  1  0
 16 15  1  0
 16 17  1  1
 18 17  1  0
 18 22  1  0
 19 20  1  0
 19 18  2  0
 20 21  1  0
 21 22  2  0
 23 16  1  0
 24 23  2  0
 25 23  1  0
 26 25  1  0
 26 27  1  6
 27 28  1  0
 28 29  2  0
 30 26  1  0
 30 31  1  0
 32 28  1  0
 33 30  2  0
M  END
$$$$
