WHD.pdb
     RDKit          3D

 33 35  0  0  1  0  0  0  0  0999 V2000
   23.9045  -20.1385  -15.7030 N   0  0  0  0  0  0  0  0  0  0  0  0
   22.6268  -19.6473  -15.2187 C   0  0  1  0  0  0  0  0  0  0  0  0
   21.6906  -19.5221  -16.4256 C   0  0  0  0  0  0  0  0  0  0  0  0
   22.1598  -18.3638  -17.2183 C   0  0  0  0  0  0  0  0  0  0  0  0
   23.1052  -18.3907  -18.2172 C   0  0  0  0  0  0  0  0  0  0  0  0
   23.2854  -17.1557  -18.7173 N   0  0  0  0  0  0  0  0  0  0  0  0
   22.4739  -16.3485  -18.0557 C   0  0  0  0  0  0  0  0  0  0  0  0
   22.2339  -14.9816  -18.1449 C   0  0  0  0  0  0  0  0  0  0  0  0
   21.3101  -14.3827  -17.3148 C   0  0  0  0  0  0  0  0  0  0  0  0
   20.5985  -15.0844  -16.3829 C   0  0  0  0  0  0  0  0  0  0  0  0
   20.8294  -16.4537  -16.2832 C   0  0  0  0  0  0  0  0  0  0  0  0
   21.7458  -17.0619  -17.1032 C   0  0  0  0  0  0  0  0  0  0  0  0
   22.0706  -20.5303  -14.1782 C   0  0  0  0  0  0  0  0  0  0  0  0
   21.9151  -21.7468  -14.4510 O   0  0  0  0  0  0  0  0  0  0  0  0
   21.7324  -19.9814  -12.9138 N   0  0  0  0  0  0  0  0  0  0  0  0
   21.1670  -20.7964  -11.8708 C   0  0  1  0  0  0  0  0  0  0  0  0
   21.3058  -20.1343  -10.5082 C   0  0  0  0  0  0  0  0  0  0  0  0
   20.8172  -21.0552   -9.4374 C   0  0  0  0  0  0  0  0  0  0  0  0
   20.2169  -22.2921   -9.6218 C   0  0  0  0  0  0  0  0  0  0  0  0
   19.9175  -22.8202   -8.4191 N   0  0  0  0  0  0  0  0  0  0  0  0
   20.3146  -21.9462   -7.4852 C   0  0  0  0  0  0  0  0  0  0  0  0
   20.8532  -20.8901   -8.0989 N   0  0  0  0  0  0  0  0  0  0  0  0
   19.7519  -21.1058  -12.1778 C   0  0  0  0  0  0  0  0  0  0  0  0
   18.9189  -20.1976  -12.4300 O   0  0  0  0  0  0  0  0  0  0  0  0
   19.3175  -22.4571  -12.1895 N   0  0  0  0  0  0  0  0  0  0  0  0
   17.9479  -22.7524  -12.6149 C   0  0  1  0  0  0  0  0  0  0  0  0
   17.8483  -24.1724  -13.0970 C   0  0  0  0  0  0  0  0  0  0  0  0
   18.2123  -25.1968  -12.1123 C   0  0  0  0  0  0  0  0  0  0  0  0
   18.5264  -24.9587  -10.9282 O   0  0  0  0  0  0  0  0  0  0  0  0
   17.1041  -22.4730  -11.4291 C   0  0  0  0  0  0  0  0  0  0  0  0
   17.5995  -22.0625  -10.2106 O   0  0  0  0  0  0  0  0  0  0  0  0
   18.2182  -26.5441  -12.4937 O   0  0  0  0  0  0  0  0  0  0  0  0
   15.8229  -22.5983  -11.4583 O   0  0  0  0  0  0  0  0  0  0  0  0
  2  1  1  6
  2  3  1  0
  3  4  1  0
  4  5  2  0
  6  5  1  0
  7  6  1  0
  8  7  2  0
  9  8  1  0
 10 11  1  0
 10  9  2  0
 11 12  2  0
 12  7  1  0
 12  4  1  0
 13 14  2  0
 13  2  1  0
 15 13  1  0
 16 15  1  0
 16 17  1  1
 18 17  1  0
 18 22  1  0
 19 20  1  0
 19 18  2  0
 20 21  1  0
 21 22  2  0
 23 16  1  0
 24 23  2  0
 25 23  1  0
 26 25  1  0
 26 27  1  1
 27 28  1  0
 28 29  2  0
 30 26  1  0
 30 31  1  0
 32 28  1  0
 33 30  2  0
M  END
$$$$
