WHD.pdb
     RDKit          3D

 33 35  0  0  1  0  0  0  0  0999 V2000
   16.2764  -17.0752    4.9934 N   0  0  0  0  0  0  0  0  0  0  0  0
   17.4815  -17.0375    5.8026 C   0  0  1  0  0  0  0  0  0  0  0  0
   17.3362  -15.8806    6.7971 C   0  0  0  0  0  0  0  0  0  0  0  0
   17.6860  -14.6395    6.0706 C   0  0  0  0  0  0  0  0  0  0  0  0
   16.9029  -13.9905    5.1445 C   0  0  0  0  0  0  0  0  0  0  0  0
   17.5380  -12.8979    4.6857 N   0  0  0  0  0  0  0  0  0  0  0  0
   18.7062  -12.8424    5.3021 C   0  0  0  0  0  0  0  0  0  0  0  0
   19.7635  -11.9421    5.2274 C   0  0  0  0  0  0  0  0  0  0  0  0
   20.8892  -12.1265    6.0020 C   0  0  0  0  0  0  0  0  0  0  0  0
   21.0219  -13.1789    6.8634 C   0  0  0  0  0  0  0  0  0  0  0  0
   19.9706  -14.0877    6.9476 C   0  0  0  0  0  0  0  0  0  0  0  0
   18.8449  -13.9157    6.1824 C   0  0  0  0  0  0  0  0  0  0  0  0
   17.7129  -18.3242    6.4829 C   0  0  0  0  0  0  0  0  0  0  0  0
   16.7258  -18.9181    6.9843 O   0  0  0  0  0  0  0  0  0  0  0  0
   19.0317  -18.8445    6.5481 N   0  0  0  0  0  0  0  0  0  0  0  0
   19.3360  -20.0184    7.3234 C   0  0  1  0  0  0  0  0  0  0  0  0
   20.3788  -20.8866    6.6356 C   0  0  0  0  0  0  0  0  0  0  0  0
   19.7159  -21.8301    5.6850 C   0  0  0  0  0  0  0  0  0  0  0  0
   18.3524  -21.9595    5.4652 C   0  0  0  0  0  0  0  0  0  0  0  0
   18.1444  -22.9124    4.5360 N   0  0  0  0  0  0  0  0  0  0  0  0
   19.3425  -23.3841    4.1675 C   0  0  0  0  0  0  0  0  0  0  0  0
   20.2816  -22.7333    4.8578 N   0  0  0  0  0  0  0  0  0  0  0  0
   19.7708  -19.6303    8.6846 C   0  0  0  0  0  0  0  0  0  0  0  0
   20.0118  -18.4322    8.9824 O   0  0  0  0  0  0  0  0  0  0  0  0
   19.9217  -20.6285    9.6824 N   0  0  0  0  0  0  0  0  0  0  0  0
   20.3732  -20.2276   11.0163 C   0  0  1  0  0  0  0  0  0  0  0  0
   19.3681  -19.3077   11.6505 C   0  0  0  0  0  0  0  0  0  0  0  0
   19.6088  -18.9926   13.0627 C   0  0  0  0  0  0  0  0  0  0  0  0
   20.5871  -19.4011   13.7211 O   0  0  0  0  0  0  0  0  0  0  0  0
   20.5616  -21.4957   11.7600 C   0  0  0  0  0  0  0  0  0  0  0  0
   21.5211  -21.6840   12.7308 O   0  0  0  0  0  0  0  0  0  0  0  0
   18.6980  -18.1805   13.7497 O   0  0  0  0  0  0  0  0  0  0  0  0
   19.8252  -22.5296   11.5437 O   0  0  0  0  0  0  0  0  0  0  0  0
  2  1  1  1
  2  3  1  0
  3  4  1  0
  4  5  2  0
  6  5  1  0
  7  6  1  0
  8  7  2  0
  9  8  1  0
 10 11  1  0
 10  9  2  0
 11 12  2  0
 12  7  1  0
 12  4  1  0
 13 14  2  0
 13  2  1  0
 15 13  1  0
 16 15  1  0
 16 17  1  6
 18 17  1  0
 18 22  1  0
 19 20  1  0
 19 18  2  0
 20 21  1  0
 21 22  2  0
 23 16  1  0
 24 23  2  0
 25 23  1  0
 26 25  1  0
 26 27  1  1
 27 28  1  0
 28 29  2  0
 30 26  1  0
 30 31  1  0
 32 28  1  0
 33 30  2  0
M  END
$$$$
