WHD.pdb
     RDKit          3D

 33 35  0  0  1  0  0  0  0  0999 V2000
   22.5667  -35.1369   -8.4234 N   0  0  0  0  0  0  0  0  0  0  0  0
   23.4647  -34.2217   -7.7419 C   0  0  1  0  0  0  0  0  0  0  0  0
   22.6167  -33.3455   -6.8134 C   0  0  0  0  0  0  0  0  0  0  0  0
   21.8374  -32.4296   -7.6759 C   0  0  0  0  0  0  0  0  0  0  0  0
   20.4732  -32.4416   -7.8524 C   0  0  0  0  0  0  0  0  0  0  0  0
   20.1086  -31.4705   -8.7078 N   0  0  0  0  0  0  0  0  0  0  0  0
   21.2134  -30.8447   -9.0758 C   0  0  0  0  0  0  0  0  0  0  0  0
   21.4426  -29.7724   -9.9314 C   0  0  0  0  0  0  0  0  0  0  0  0
   22.7250  -29.3096  -10.1372 C   0  0  0  0  0  0  0  0  0  0  0  0
   23.8125  -29.8671   -9.5260 C   0  0  0  0  0  0  0  0  0  0  0  0
   23.5969  -30.9414   -8.6671 C   0  0  0  0  0  0  0  0  0  0  0  0
   22.3259  -31.4116   -8.4535 C   0  0  0  0  0  0  0  0  0  0  0  0
   24.5164  -34.9472   -7.0075 C   0  0  0  0  0  0  0  0  0  0  0  0
   24.2804  -36.1250   -6.6393 O   0  0  0  0  0  0  0  0  0  0  0  0
   25.7497  -34.2965   -6.7434 N   0  0  0  0  0  0  0  0  0  0  0  0
   26.8243  -34.9747   -6.0673 C   0  0  1  0  0  0  0  0  0  0  0  0
   28.1733  -34.6353   -6.6831 C   0  0  0  0  0  0  0  0  0  0  0  0
   28.3646  -35.3983   -7.9538 C   0  0  0  0  0  0  0  0  0  0  0  0
   27.4931  -36.3309   -8.4968 C   0  0  0  0  0  0  0  0  0  0  0  0
   28.0119  -36.8008   -9.6478 N   0  0  0  0  0  0  0  0  0  0  0  0
   29.1865  -36.1869   -9.8405 C   0  0  0  0  0  0  0  0  0  0  0  0
   29.3945  -35.3473   -8.8238 N   0  0  0  0  0  0  0  0  0  0  0  0
   26.7967  -34.6566   -4.6215 C   0  0  0  0  0  0  0  0  0  0  0  0
   26.4863  -33.5109   -4.2050 O   0  0  0  0  0  0  0  0  0  0  0  0
   27.1274  -35.6631   -3.6768 N   0  0  0  0  0  0  0  0  0  0  0  0
   27.1231  -35.3210   -2.2532 C   0  0  1  0  0  0  0  0  0  0  0  0
   26.5762  -36.4644   -1.4456 C   0  0  0  0  0  0  0  0  0  0  0  0
   26.6533  -36.2985    0.0098 C   0  0  0  0  0  0  0  0  0  0  0  0
   26.5762  -37.2337    0.8326 O   0  0  0  0  0  0  0  0  0  0  0  0
   28.5312  -34.9917   -1.9286 C   0  0  0  0  0  0  0  0  0  0  0  0
   29.5947  -35.2465   -2.7668 O   0  0  0  0  0  0  0  0  0  0  0  0
   26.8246  -35.0165    0.5465 O   0  0  0  0  0  0  0  0  0  0  0  0
   28.8626  -34.4334   -0.8167 O   0  0  0  0  0  0  0  0  0  0  0  0
  2  1  1  1
  2  3  1  0
  3  4  1  0
  4  5  2  0
  6  5  1  0
  7  6  1  0
  8  7  2  0
  9  8  1  0
 10 11  1  0
 10  9  2  0
 11 12  2  0
 12  7  1  0
 12  4  1  0
 13 14  2  0
 13  2  1  0
 15 13  1  0
 16 15  1  0
 16 17  1  6
 18 17  1  0
 18 22  1  0
 19 20  1  0
 19 18  2  0
 20 21  1  0
 21 22  2  0
 23 16  1  0
 24 23  2  0
 25 23  1  0
 26 25  1  0
 26 27  1  1
 27 28  1  0
 28 29  2  0
 30 26  1  0
 30 31  1  0
 32 28  1  0
 33 30  2  0
M  END
$$$$
