WHD.pdb
     RDKit          3D

 33 35  0  0  1  0  0  0  0  0999 V2000
   26.7703  -22.7474  -12.9422 N   0  0  0  0  0  0  0  0  0  0  0  0
   25.9006  -21.6834  -12.4734 C   0  0  1  0  0  0  0  0  0  0  0  0
   26.7550  -20.4205  -12.3184 C   0  0  0  0  0  0  0  0  0  0  0  0
   27.7392  -20.6932  -11.2474 C   0  0  0  0  0  0  0  0  0  0  0  0
   29.0817  -20.9391  -11.4193 C   0  0  0  0  0  0  0  0  0  0  0  0
   29.6702  -21.1478  -10.2285 N   0  0  0  0  0  0  0  0  0  0  0  0
   28.7281  -21.0390   -9.3074 C   0  0  0  0  0  0  0  0  0  0  0  0
   28.7548  -21.1526   -7.9216 C   0  0  0  0  0  0  0  0  0  0  0  0
   27.5991  -20.9855   -7.1884 C   0  0  0  0  0  0  0  0  0  0  0  0
   26.3952  -20.7061   -7.7713 C   0  0  0  0  0  0  0  0  0  0  0  0
   26.3547  -20.5900   -9.1580 C   0  0  0  0  0  0  0  0  0  0  0  0
   27.4975  -20.7539   -9.8993 C   0  0  0  0  0  0  0  0  0  0  0  0
   24.7661  -21.4730  -13.3901 C   0  0  0  0  0  0  0  0  0  0  0  0
   25.0036  -21.3877  -14.6209 O   0  0  0  0  0  0  0  0  0  0  0  0
   23.4547  -21.3748  -12.8563 N   0  0  0  0  0  0  0  0  0  0  0  0
   22.2955  -21.3967  -13.7092 C   0  0  1  0  0  0  0  0  0  0  0  0
   21.5739  -22.7339  -13.6357 C   0  0  0  0  0  0  0  0  0  0  0  0
   22.3598  -23.7821  -14.3549 C   0  0  0  0  0  0  0  0  0  0  0  0
   22.4270  -23.9678  -15.7279 C   0  0  0  0  0  0  0  0  0  0  0  0
   23.2369  -25.0115  -15.9921 N   0  0  0  0  0  0  0  0  0  0  0  0
   23.6791  -25.4851  -14.8200 C   0  0  0  0  0  0  0  0  0  0  0  0
   23.1517  -24.7461  -13.8414 N   0  0  0  0  0  0  0  0  0  0  0  0
   21.3903  -20.2764  -13.3661 C   0  0  0  0  0  0  0  0  0  0  0  0
   21.1401  -19.9742  -12.1709 O   0  0  0  0  0  0  0  0  0  0  0  0
   20.7863  -19.5210  -14.4050 N   0  0  0  0  0  0  0  0  0  0  0  0
   19.8590  -18.4463  -14.0461 C   0  0  1  0  0  0  0  0  0  0  0  0
   19.5773  -17.5817  -15.2428 C   0  0  0  0  0  0  0  0  0  0  0  0
   18.5853  -16.5219  -15.0321 C   0  0  0  0  0  0  0  0  0  0  0  0
   18.0481  -16.2648  -13.9354 O   0  0  0  0  0  0  0  0  0  0  0  0
   18.6553  -19.1317  -13.5190 C   0  0  0  0  0  0  0  0  0  0  0  0
   18.0248  -18.7859  -12.3437 O   0  0  0  0  0  0  0  0  0  0  0  0
   18.1914  -15.7255  -16.1144 O   0  0  0  0  0  0  0  0  0  0  0  0
   18.1061  -20.1184  -14.1376 O   0  0  0  0  0  0  0  0  0  0  0  0
  2  1  1  6
  2  3  1  0
  3  4  1  0
  4  5  2  0
  6  5  1  0
  7  6  1  0
  8  7  2  0
  9  8  1  0
 10 11  1  0
 10  9  2  0
 11 12  2  0
 12  7  1  0
 12  4  1  0
 13 14  2  0
 13  2  1  0
 15 13  1  0
 16 15  1  0
 16 17  1  1
 18 17  1  0
 18 22  1  0
 19 20  1  0
 19 18  2  0
 20 21  1  0
 21 22  2  0
 23 16  1  0
 24 23  2  0
 25 23  1  0
 26 25  1  0
 26 27  1  6
 27 28  1  0
 28 29  2  0
 30 26  1  0
 30 31  1  0
 32 28  1  0
 33 30  2  0
M  END
$$$$
