WHD.pdb
     RDKit          3D

 33 35  0  0  1  0  0  0  0  0999 V2000
   21.5028   -9.9143  -14.5205 N   0  0  0  0  0  0  0  0  0  0  0  0
   20.9602   -8.5854  -14.3008 C   0  0  1  0  0  0  0  0  0  0  0  0
   20.7790   -7.9260  -15.6723 C   0  0  0  0  0  0  0  0  0  0  0  0
   22.1178   -7.4791  -16.1174 C   0  0  0  0  0  0  0  0  0  0  0  0
   22.9535   -8.1481  -16.9813 C   0  0  0  0  0  0  0  0  0  0  0  0
   24.0897   -7.4514  -17.1588 N   0  0  0  0  0  0  0  0  0  0  0  0
   23.9900   -6.3560  -16.4253 C   0  0  0  0  0  0  0  0  0  0  0  0
   24.8501   -5.2821  -16.2229 C   0  0  0  0  0  0  0  0  0  0  0  0
   24.4853   -4.2476  -15.3875 C   0  0  0  0  0  0  0  0  0  0  0  0
   23.2877   -4.2239  -14.7300 C   0  0  0  0  0  0  0  0  0  0  0  0
   22.4174   -5.2931  -14.9238 C   0  0  0  0  0  0  0  0  0  0  0  0
   22.7682   -6.3287  -15.7525 C   0  0  0  0  0  0  0  0  0  0  0  0
   19.6974   -8.6387  -13.5430 C   0  0  0  0  0  0  0  0  0  0  0  0
   18.7860   -9.3973  -13.9581 O   0  0  0  0  0  0  0  0  0  0  0  0
   19.5548   -7.8381  -12.3798 N   0  0  0  0  0  0  0  0  0  0  0  0
   18.2661   -7.6116  -11.7802 C   0  0  1  0  0  0  0  0  0  0  0  0
   18.3223   -7.7530  -10.2665 C   0  0  0  0  0  0  0  0  0  0  0  0
   16.9683   -7.5205   -9.6782 C   0  0  0  0  0  0  0  0  0  0  0  0
   15.8864   -8.3874   -9.7266 C   0  0  0  0  0  0  0  0  0  0  0  0
   14.8435   -7.8266   -9.0842 N   0  0  0  0  0  0  0  0  0  0  0  0
   15.2435   -6.6302   -8.6343 C   0  0  0  0  0  0  0  0  0  0  0  0
   16.5169   -6.4503   -8.9919 N   0  0  0  0  0  0  0  0  0  0  0  0
   17.7461   -6.2837  -12.1783 C   0  0  0  0  0  0  0  0  0  0  0  0
   18.4914   -5.2714  -12.2245 O   0  0  0  0  0  0  0  0  0  0  0  0
   16.3751   -6.1416  -12.5172 N   0  0  0  0  0  0  0  0  0  0  0  0
   15.8643   -4.8078  -12.8396 C   0  0  1  0  0  0  0  0  0  0  0  0
   16.0785   -4.5075  -14.2965 C   0  0  0  0  0  0  0  0  0  0  0  0
   15.4914   -3.2500  -14.7713 C   0  0  0  0  0  0  0  0  0  0  0  0
   14.9143   -2.4192  -14.0404 O   0  0  0  0  0  0  0  0  0  0  0  0
   14.4351   -4.8341  -12.4482 C   0  0  0  0  0  0  0  0  0  0  0  0
   13.7566   -3.7495  -11.9366 O   0  0  0  0  0  0  0  0  0  0  0  0
   15.5656   -2.9284  -16.1322 O   0  0  0  0  0  0  0  0  0  0  0  0
   13.7157   -5.8959  -12.5622 O   0  0  0  0  0  0  0  0  0  0  0  0
  2  1  1  6
  2  3  1  0
  3  4  1  0
  4  5  2  0
  6  5  1  0
  7  6  1  0
  8  7  2  0
  9  8  1  0
 10 11  1  0
 10  9  2  0
 11 12  2  0
 12  7  1  0
 12  4  1  0
 13 14  2  0
 13  2  1  0
 15 13  1  0
 16 15  1  0
 16 17  1  1
 18 17  1  0
 18 22  1  0
 19 20  1  0
 19 18  2  0
 20 21  1  0
 21 22  2  0
 23 16  1  0
 24 23  2  0
 25 23  1  0
 26 25  1  0
 26 27  1  6
 27 28  1  0
 28 29  2  0
 30 26  1  0
 30 31  1  0
 32 28  1  0
 33 30  2  0
M  END
$$$$
