WHD.pdb
     RDKit          3D

 33 35  0  0  1  0  0  0  0  0999 V2000
   27.4033  -17.5791  -18.1969 N   0  0  0  0  0  0  0  0  0  0  0  0
   26.7593  -17.1117  -16.9822 C   0  0  1  0  0  0  0  0  0  0  0  0
   25.6408  -16.1474  -17.3920 C   0  0  0  0  0  0  0  0  0  0  0  0
   26.2907  -14.8897  -17.8232 C   0  0  0  0  0  0  0  0  0  0  0  0
   26.2618  -14.3510  -19.0886 C   0  0  0  0  0  0  0  0  0  0  0  0
   26.9617  -13.2034  -19.1192 N   0  0  0  0  0  0  0  0  0  0  0  0
   27.4325  -13.0051  -17.8999 C   0  0  0  0  0  0  0  0  0  0  0  0
   28.2120  -11.9936  -17.3492 C   0  0  0  0  0  0  0  0  0  0  0  0
   28.5644  -12.0352  -16.0168 C   0  0  0  0  0  0  0  0  0  0  0  0
   28.1754  -13.0488  -15.1870 C   0  0  0  0  0  0  0  0  0  0  0  0
   27.3948  -14.0679  -15.7259 C   0  0  0  0  0  0  0  0  0  0  0  0
   27.0372  -14.0384  -17.0500 C   0  0  0  0  0  0  0  0  0  0  0  0
   26.2509  -18.2359  -16.1763 C   0  0  0  0  0  0  0  0  0  0  0  0
   25.7405  -19.2149  -16.7759 O   0  0  0  0  0  0  0  0  0  0  0  0
   26.3544  -18.1752  -14.7621 N   0  0  0  0  0  0  0  0  0  0  0  0
   25.7998  -19.2072  -13.9259 C   0  0  1  0  0  0  0  0  0  0  0  0
   26.4378  -19.2093  -12.5449 C   0  0  0  0  0  0  0  0  0  0  0  0
   25.7996  -20.2523  -11.6857 C   0  0  0  0  0  0  0  0  0  0  0  0
   26.1251  -21.6001  -11.6428 C   0  0  0  0  0  0  0  0  0  0  0  0
   25.3308  -22.2169  -10.7465 N   0  0  0  0  0  0  0  0  0  0  0  0
   24.5154  -21.2905  -10.2261 C   0  0  0  0  0  0  0  0  0  0  0  0
   24.7992  -20.1148  -10.7911 N   0  0  0  0  0  0  0  0  0  0  0  0
   24.3294  -19.0568  -13.8399 C   0  0  0  0  0  0  0  0  0  0  0  0
   23.7893  -17.9283  -13.7086 O   0  0  0  0  0  0  0  0  0  0  0  0
   23.5027  -20.2088  -13.9062 N   0  0  0  0  0  0  0  0  0  0  0  0
   22.0501  -20.0374  -13.8421 C   0  0  1  0  0  0  0  0  0  0  0  0
   21.4223  -20.4288  -15.1503 C   0  0  0  0  0  0  0  0  0  0  0  0
   19.9628  -20.2965  -15.2108 C   0  0  0  0  0  0  0  0  0  0  0  0
   19.2577  -19.8224  -14.2967 O   0  0  0  0  0  0  0  0  0  0  0  0
   21.6097  -20.8777  -12.7034 C   0  0  0  0  0  0  0  0  0  0  0  0
   20.8094  -20.4256  -11.6769 O   0  0  0  0  0  0  0  0  0  0  0  0
   19.2820  -20.7217  -16.3583 O   0  0  0  0  0  0  0  0  0  0  0  0
   21.9533  -22.1138  -12.5945 O   0  0  0  0  0  0  0  0  0  0  0  0
  2  1  1  6
  2  3  1  0
  3  4  1  0
  4  5  2  0
  6  5  1  0
  7  6  1  0
  8  7  2  0
  9  8  1  0
 10 11  1  0
 10  9  2  0
 11 12  2  0
 12  7  1  0
 12  4  1  0
 13 14  2  0
 13  2  1  0
 15 13  1  0
 16 15  1  0
 16 17  1  1
 18 17  1  0
 18 22  1  0
 19 20  1  0
 19 18  2  0
 20 21  1  0
 21 22  2  0
 23 16  1  0
 24 23  2  0
 25 23  1  0
 26 25  1  0
 26 27  1  6
 27 28  1  0
 28 29  2  0
 30 26  1  0
 30 31  1  0
 32 28  1  0
 33 30  2  0
M  END
$$$$
