IHL.pdb
     RDKit          3D

 27 27  0  0  1  0  0  0  0  0999 V2000
    6.9920  -11.7540   27.0605 C   0  0  0  0  0  0  0  0  0  0  0  0
    6.3720  -13.0844   26.7507 C   0  0  0  0  0  0  0  0  0  0  0  0
    7.0167  -13.7421   25.5621 C   0  0  2  0  0  0  0  0  0  0  0  0
    7.0750  -12.7545   24.3950 C   0  0  0  0  0  0  0  0  0  0  0  0
    6.4296  -15.0494   25.1505 C   0  0  2  0  0  0  0  0  0  0  0  0
    6.6303  -15.9591   26.3033 N   0  0  0  0  0  0  0  0  0  0  0  0
    7.1624  -15.7100   24.0219 C   0  0  0  0  0  0  0  0  0  0  0  0
    6.8235  -15.4872   22.8309 O   0  0  0  0  0  0  0  0  0  0  0  0
    8.2370  -16.5864   24.2240 N   0  0  0  0  0  0  0  0  0  0  0  0
    9.5833  -16.5790   23.8284 C   0  0  1  0  0  0  0  0  0  0  0  0
   10.0293  -15.6628   22.7351 C   0  0  0  0  0  0  0  0  0  0  0  0
    9.2040  -15.6872   21.5133 C   0  0  0  0  0  0  0  0  0  0  0  0
    8.7589  -14.5111   20.8972 C   0  0  0  0  0  0  0  0  0  0  0  0
    8.0377  -14.7924   19.8218 N   0  0  0  0  0  0  0  0  0  0  0  0
    8.0093  -16.1375   19.7323 C   0  0  0  0  0  0  0  0  0  0  0  0
    8.7105  -16.6663   20.7497 N   0  0  0  0  0  0  0  0  0  0  0  0
   10.5026  -16.5612   24.9476 C   0  0  0  0  0  0  0  0  0  0  0  0
   11.7401  -16.3886   24.7126 O   0  0  0  0  0  0  0  0  0  0  0  0
    8.9438  -14.3025   29.2972 C   0  0  0  0  0  0  0  0  0  0  0  0
    9.7601  -14.8160   28.1630 C   0  0  1  0  0  0  0  0  0  0  0  0
   10.6485  -13.6766   27.6820 C   0  0  0  0  0  0  0  0  0  0  0  0
   10.6111  -15.9868   28.4974 C   0  0  0  0  0  0  0  0  0  0  0  0
   11.0591  -16.8234   27.3490 C   0  0  2  0  0  0  0  0  0  0  0  0
   10.0965  -16.7232   26.2765 N   0  0  0  0  0  0  0  0  0  0  0  0
   11.4182  -18.2056   27.6855 C   0  0  0  0  0  0  0  0  0  0  0  0
   12.3036  -18.4223   28.5388 O   0  0  0  0  0  0  0  0  0  0  0  0
   10.8098  -19.3243   27.0885 O   0  0  0  0  0  0  0  0  0  0  0  0
  2  1  1  0
  3  2  1  0
  3  5  1  0
  3  4  1  6
  5  6  1  1
  7  5  1  0
  7  8  2  0
  9  7  1  0
 10  9  1  0
 10 11  1  6
 12 11  1  0
 12 16  1  0
 13 14  1  0
 13 12  2  0
 14 15  1  0
 15 16  2  0
 17 10  1  0
 18 17  2  0
 20 22  1  0
 20 19  1  1
 21 20  1  0
 23 24  1  0
 23 22  1  1
 24 17  1  0
 25 23  1  0
 26 25  2  0
 27 25  1  0
M  END
$$$$
