IHL.pdb
     RDKit          3D

 27 27  0  0  1  0  0  0  0  0999 V2000
    8.2216  -11.9801   18.9454 C   0  0  0  0  0  0  0  0  0  0  0  0
    8.0236  -13.4671   18.9517 C   0  0  0  0  0  0  0  0  0  0  0  0
    7.7912  -13.9976   20.3393 C   0  0  2  0  0  0  0  0  0  0  0  0
    8.9078  -13.5175   21.2686 C   0  0  0  0  0  0  0  0  0  0  0  0
    7.5832  -15.4705   20.4407 C   0  0  2  0  0  0  0  0  0  0  0  0
    6.4242  -15.7723   19.5675 N   0  0  0  0  0  0  0  0  0  0  0  0
    7.1528  -15.9255   21.8026 C   0  0  0  0  0  0  0  0  0  0  0  0
    6.1175  -15.4454   22.3324 O   0  0  0  0  0  0  0  0  0  0  0  0
    7.8581  -16.8854   22.5408 N   0  0  0  0  0  0  0  0  0  0  0  0
    7.7964  -17.3240   23.8723 C   0  0  1  0  0  0  0  0  0  0  0  0
    8.0408  -18.7639   24.1900 C   0  0  0  0  0  0  0  0  0  0  0  0
    7.7164  -19.1710   25.5698 C   0  0  0  0  0  0  0  0  0  0  0  0
    7.1176  -18.2909   26.4796 C   0  0  0  0  0  0  0  0  0  0  0  0
    6.9278  -18.8863   27.6481 N   0  0  0  0  0  0  0  0  0  0  0  0
    7.3965  -20.1428   27.5076 C   0  0  0  0  0  0  0  0  0  0  0  0
    7.8673  -20.3054   26.2593 N   0  0  0  0  0  0  0  0  0  0  0  0
    8.4962  -16.4490   24.7901 C   0  0  0  0  0  0  0  0  0  0  0  0
    9.7014  -16.1381   24.5310 O   0  0  0  0  0  0  0  0  0  0  0  0
    5.5531  -12.8198   27.6217 C   0  0  0  0  0  0  0  0  0  0  0  0
    6.5411  -13.5703   26.7988 C   0  0  1  0  0  0  0  0  0  0  0  0
    7.1287  -12.5982   25.7846 C   0  0  0  0  0  0  0  0  0  0  0  0
    7.6463  -14.1881   27.5756 C   0  0  0  0  0  0  0  0  0  0  0  0
    8.6236  -14.9995   26.7971 C   0  0  2  0  0  0  0  0  0  0  0  0
    7.9112  -15.9265   25.9485 N   0  0  0  0  0  0  0  0  0  0  0  0
    9.6848  -15.6297   27.5904 C   0  0  0  0  0  0  0  0  0  0  0  0
   10.4453  -14.9179   28.2788 O   0  0  0  0  0  0  0  0  0  0  0  0
    9.8995  -17.0193   27.6197 O   0  0  0  0  0  0  0  0  0  0  0  0
  2  1  1  0
  3  2  1  0
  3  5  1  0
  3  4  1  1
  5  6  1  6
  7  5  1  0
  7  8  2  0
  9  7  1  0
 10  9  1  0
 10 11  1  6
 12 11  1  0
 12 16  1  0
 13 14  1  0
 13 12  2  0
 14 15  1  0
 15 16  2  0
 17 10  1  0
 18 17  2  0
 20 22  1  0
 20 19  1  1
 21 20  1  0
 23 24  1  0
 23 22  1  1
 24 17  1  0
 25 23  1  0
 26 25  2  0
 27 25  1  0
M  END
$$$$
