IHL.pdb
     RDKit          3D

 27 27  0  0  1  0  0  0  0  0999 V2000
    8.3795  -11.9943   18.2312 C   0  0  0  0  0  0  0  0  0  0  0  0
    8.5964  -13.4777   18.2831 C   0  0  0  0  0  0  0  0  0  0  0  0
    8.2509  -14.0497   19.6301 C   0  0  2  0  0  0  0  0  0  0  0  0
    8.9567  -13.2495   20.7266 C   0  0  0  0  0  0  0  0  0  0  0  0
    8.4744  -15.5157   19.7854 C   0  0  2  0  0  0  0  0  0  0  0  0
    7.7178  -16.1550   18.6829 N   0  0  0  0  0  0  0  0  0  0  0  0
    7.8714  -16.0879   21.0327 C   0  0  0  0  0  0  0  0  0  0  0  0
    6.6281  -16.2635   21.1117 O   0  0  0  0  0  0  0  0  0  0  0  0
    8.6369  -16.4511   22.1489 N   0  0  0  0  0  0  0  0  0  0  0  0
    8.3238  -16.9794   23.4106 C   0  0  1  0  0  0  0  0  0  0  0  0
    8.4542  -18.4486   23.6519 C   0  0  0  0  0  0  0  0  0  0  0  0
    8.0075  -18.9139   24.9780 C   0  0  0  0  0  0  0  0  0  0  0  0
    6.6616  -18.8717   25.3624 C   0  0  0  0  0  0  0  0  0  0  0  0
    6.5132  -19.3412   26.5926 N   0  0  0  0  0  0  0  0  0  0  0  0
    7.7472  -19.6879   27.0114 C   0  0  0  0  0  0  0  0  0  0  0  0
    8.6370  -19.4287   26.0381 N   0  0  0  0  0  0  0  0  0  0  0  0
    8.8817  -16.2080   24.5022 C   0  0  0  0  0  0  0  0  0  0  0  0
   10.1038  -15.8632   24.4380 O   0  0  0  0  0  0  0  0  0  0  0  0
    5.6354  -12.8852   27.3619 C   0  0  0  0  0  0  0  0  0  0  0  0
    6.7306  -13.5424   26.5970 C   0  0  1  0  0  0  0  0  0  0  0  0
    7.4894  -12.4530   25.8511 C   0  0  0  0  0  0  0  0  0  0  0  0
    7.6864  -14.3151   27.4314 C   0  0  0  0  0  0  0  0  0  0  0  0
    8.7448  -15.0632   26.6967 C   0  0  2  0  0  0  0  0  0  0  0  0
    8.1419  -15.8212   25.6248 N   0  0  0  0  0  0  0  0  0  0  0  0
    9.6476  -15.8565   27.5383 C   0  0  0  0  0  0  0  0  0  0  0  0
    9.5660  -17.1024   27.5262 O   0  0  0  0  0  0  0  0  0  0  0  0
   10.6198  -15.2816   28.3763 O   0  0  0  0  0  0  0  0  0  0  0  0
  2  1  1  0
  3  2  1  0
  3  5  1  0
  3  4  1  1
  5  6  1  6
  7  5  1  0
  7  8  2  0
  9  7  1  0
 10  9  1  0
 10 11  1  6
 12 11  1  0
 12 16  1  0
 13 14  1  0
 13 12  2  0
 14 15  1  0
 15 16  2  0
 17 10  1  0
 18 17  2  0
 20 22  1  0
 20 19  1  1
 21 20  1  0
 23 24  1  0
 23 22  1  1
 24 17  1  0
 25 23  1  0
 26 25  2  0
 27 25  1  0
M  END
$$$$
