IHL.pdb
     RDKit          3D

 27 27  0  0  1  0  0  0  0  0999 V2000
    7.2555  -11.5902   19.1611 C   0  0  0  0  0  0  0  0  0  0  0  0
    7.6213  -13.0295   18.9493 C   0  0  0  0  0  0  0  0  0  0  0  0
    7.7564  -13.7725   20.2495 C   0  0  2  0  0  0  0  0  0  0  0  0
    8.7103  -13.0181   21.1779 C   0  0  0  0  0  0  0  0  0  0  0  0
    8.1221  -15.2135   20.1345 C   0  0  2  0  0  0  0  0  0  0  0  0
    7.0793  -15.8238   19.2762 N   0  0  0  0  0  0  0  0  0  0  0  0
    8.0267  -15.9640   21.4285 C   0  0  0  0  0  0  0  0  0  0  0  0
    6.9042  -16.3157   21.8749 O   0  0  0  0  0  0  0  0  0  0  0  0
    9.1507  -16.3084   22.1914 N   0  0  0  0  0  0  0  0  0  0  0  0
    9.3458  -17.1140   23.3236 C   0  0  1  0  0  0  0  0  0  0  0  0
   10.2264  -18.3182   23.2332 C   0  0  0  0  0  0  0  0  0  0  0  0
   10.3454  -19.1092   24.4721 C   0  0  0  0  0  0  0  0  0  0  0  0
   10.8513  -18.5586   25.6561 C   0  0  0  0  0  0  0  0  0  0  0  0
   10.8594  -19.4629   26.6245 N   0  0  0  0  0  0  0  0  0  0  0  0
   10.3646  -20.5944   26.0832 C   0  0  0  0  0  0  0  0  0  0  0  0
   10.0590  -20.3741   24.7931 N   0  0  0  0  0  0  0  0  0  0  0  0
    9.6098  -16.3489   24.5247 C   0  0  0  0  0  0  0  0  0  0  0  0
   10.7136  -15.7244   24.6149 O   0  0  0  0  0  0  0  0  0  0  0  0
    6.1174  -12.9657   26.6757 C   0  0  0  0  0  0  0  0  0  0  0  0
    7.3584  -13.6710   26.2526 C   0  0  1  0  0  0  0  0  0  0  0  0
    8.4523  -12.6236   26.0946 C   0  0  0  0  0  0  0  0  0  0  0  0
    7.8230  -14.7193   27.1970 C   0  0  0  0  0  0  0  0  0  0  0  0
    9.0222  -15.4974   26.7775 C   0  0  2  0  0  0  0  0  0  0  0  0
    8.7094  -16.2612   25.5918 N   0  0  0  0  0  0  0  0  0  0  0  0
    9.6525  -16.2934   27.8366 C   0  0  0  0  0  0  0  0  0  0  0  0
   10.0285  -15.7338   28.8875 O   0  0  0  0  0  0  0  0  0  0  0  0
    9.8625  -17.6802   27.7333 O   0  0  0  0  0  0  0  0  0  0  0  0
  2  1  1  0
  3  2  1  0
  3  5  1  0
  3  4  1  1
  5  6  1  6
  7  5  1  0
  7  8  2  0
  9  7  1  0
 10  9  1  0
 10 11  1  6
 12 11  1  0
 12 16  1  0
 13 14  1  0
 13 12  2  0
 14 15  1  0
 15 16  2  0
 17 10  1  0
 18 17  2  0
 20 22  1  0
 20 19  1  1
 21 20  1  0
 23 24  1  0
 23 22  1  1
 24 17  1  0
 25 23  1  0
 26 25  2  0
 27 25  1  0
M  END
$$$$
