IHL.pdb
     RDKit          3D

 27 27  0  0  1  0  0  0  0  0999 V2000
    7.4583  -12.0439   18.4705 C   0  0  0  0  0  0  0  0  0  0  0  0
    8.2276  -13.3236   18.6148 C   0  0  0  0  0  0  0  0  0  0  0  0
    7.9249  -14.0182   19.9136 C   0  0  2  0  0  0  0  0  0  0  0  0
    8.2260  -13.0787   21.0831 C   0  0  0  0  0  0  0  0  0  0  0  0
    8.5663  -15.3516   20.0972 C   0  0  2  0  0  0  0  0  0  0  0  0
    8.1099  -16.1762   18.9533 N   0  0  0  0  0  0  0  0  0  0  0  0
    8.0816  -16.0915   21.3075 C   0  0  0  0  0  0  0  0  0  0  0  0
    6.9628  -16.6668   21.2915 O   0  0  0  0  0  0  0  0  0  0  0  0
    8.8269  -16.1831   22.4906 N   0  0  0  0  0  0  0  0  0  0  0  0
    8.5405  -16.6423   23.7853 C   0  0  1  0  0  0  0  0  0  0  0  0
    8.6608  -18.0988   24.0983 C   0  0  0  0  0  0  0  0  0  0  0  0
    9.7426  -18.8101   23.3923 C   0  0  0  0  0  0  0  0  0  0  0  0
    9.9725  -18.6349   22.0221 C   0  0  0  0  0  0  0  0  0  0  0  0
   10.9935  -19.3786   21.6219 N   0  0  0  0  0  0  0  0  0  0  0  0
   11.4293  -20.0348   22.7163 C   0  0  0  0  0  0  0  0  0  0  0  0
   10.6744  -19.6887   23.7730 N   0  0  0  0  0  0  0  0  0  0  0  0
    9.1347  -15.8231   24.8214 C   0  0  0  0  0  0  0  0  0  0  0  0
   10.3628  -15.5111   24.7175 O   0  0  0  0  0  0  0  0  0  0  0  0
    6.2343  -11.9512   26.9083 C   0  0  0  0  0  0  0  0  0  0  0  0
    7.3191  -12.8247   26.3823 C   0  0  1  0  0  0  0  0  0  0  0  0
    8.2428  -11.9551   25.5399 C   0  0  0  0  0  0  0  0  0  0  0  0
    8.1195  -13.5103   27.4292 C   0  0  0  0  0  0  0  0  0  0  0  0
    9.0643  -14.5592   26.9528 C   0  0  2  0  0  0  0  0  0  0  0  0
    8.4238  -15.3557   25.9320 N   0  0  0  0  0  0  0  0  0  0  0  0
    9.6944  -15.3589   28.0093 C   0  0  0  0  0  0  0  0  0  0  0  0
   10.3682  -14.7908   28.8937 O   0  0  0  0  0  0  0  0  0  0  0  0
    9.5809  -16.7587   28.0839 O   0  0  0  0  0  0  0  0  0  0  0  0
  2  1  1  0
  3  2  1  0
  3  5  1  0
  3  4  1  1
  5  6  1  6
  7  5  1  0
  7  8  2  0
  9  7  1  0
 10  9  1  0
 10 11  1  6
 12 11  1  0
 12 16  1  0
 13 14  1  0
 13 12  2  0
 14 15  1  0
 15 16  2  0
 17 10  1  0
 18 17  2  0
 20 22  1  0
 20 19  1  1
 21 20  1  0
 23 24  1  0
 23 22  1  1
 24 17  1  0
 25 23  1  0
 26 25  2  0
 27 25  1  0
M  END
$$$$
