IHL.pdb
     RDKit          3D

 27 27  0  0  1  0  0  0  0  0999 V2000
    7.4471  -11.6419   18.8384 C   0  0  0  0  0  0  0  0  0  0  0  0
    8.1586  -12.9556   18.7029 C   0  0  0  0  0  0  0  0  0  0  0  0
    8.2477  -13.6847   20.0149 C   0  0  2  0  0  0  0  0  0  0  0  0
    8.8221  -12.7534   21.0843 C   0  0  0  0  0  0  0  0  0  0  0  0
    8.9631  -14.9924   19.9793 C   0  0  2  0  0  0  0  0  0  0  0  0
    8.3004  -15.7824   18.9147 N   0  0  0  0  0  0  0  0  0  0  0  0
    8.7809  -15.8124   21.2208 C   0  0  0  0  0  0  0  0  0  0  0  0
    7.6842  -16.3869   21.4445 O   0  0  0  0  0  0  0  0  0  0  0  0
    9.7938  -15.9822   22.1743 N   0  0  0  0  0  0  0  0  0  0  0  0
    9.8806  -16.6900   23.3828 C   0  0  1  0  0  0  0  0  0  0  0  0
   10.8806  -17.7916   23.5260 C   0  0  0  0  0  0  0  0  0  0  0  0
   10.7829  -18.8688   22.5236 C   0  0  0  0  0  0  0  0  0  0  0  0
    9.5760  -19.5292   22.2623 C   0  0  0  0  0  0  0  0  0  0  0  0
    9.7430  -20.4528   21.3269 N   0  0  0  0  0  0  0  0  0  0  0  0
   11.0444  -20.3997   20.9778 C   0  0  0  0  0  0  0  0  0  0  0  0
   11.6606  -19.4480   21.6995 N   0  0  0  0  0  0  0  0  0  0  0  0
    9.8662  -15.8280   24.5466 C   0  0  0  0  0  0  0  0  0  0  0  0
   10.8829  -15.0991   24.7734 O   0  0  0  0  0  0  0  0  0  0  0  0
    5.4822  -13.3299   26.5190 C   0  0  0  0  0  0  0  0  0  0  0  0
    6.8763  -13.6912   26.1417 C   0  0  1  0  0  0  0  0  0  0  0  0
    7.6613  -12.3957   25.9850 C   0  0  0  0  0  0  0  0  0  0  0  0
    7.5723  -14.5648   27.1210 C   0  0  0  0  0  0  0  0  0  0  0  0
    8.9063  -15.0835   26.7075 C   0  0  2  0  0  0  0  0  0  0  0  0
    8.7875  -15.7559   25.4345 N   0  0  0  0  0  0  0  0  0  0  0  0
    9.6115  -15.8737   27.7229 C   0  0  0  0  0  0  0  0  0  0  0  0
    9.6956  -17.1125   27.5913 O   0  0  0  0  0  0  0  0  0  0  0  0
   10.2103  -15.3036   28.8606 O   0  0  0  0  0  0  0  0  0  0  0  0
  2  1  1  0
  3  2  1  0
  3  5  1  0
  3  4  1  1
  5  6  1  6
  7  5  1  0
  7  8  2  0
  9  7  1  0
 10  9  1  0
 10 11  1  6
 12 11  1  0
 12 16  1  0
 13 14  1  0
 13 12  2  0
 14 15  1  0
 15 16  2  0
 17 10  1  0
 18 17  2  0
 20 22  1  0
 20 19  1  1
 21 20  1  0
 23 24  1  0
 23 22  1  1
 24 17  1  0
 25 23  1  0
 26 25  2  0
 27 25  1  0
M  END
$$$$
