IHL.pdb
     RDKit          3D

 27 27  0  0  1  0  0  0  0  0999 V2000
    7.9810  -11.6862   18.5492 C   0  0  0  0  0  0  0  0  0  0  0  0
    8.4798  -13.0999   18.4956 C   0  0  0  0  0  0  0  0  0  0  0  0
    8.0972  -13.8781   19.7240 C   0  0  2  0  0  0  0  0  0  0  0  0
    8.5250  -13.1090   20.9756 C   0  0  0  0  0  0  0  0  0  0  0  0
    8.5606  -15.2948   19.7609 C   0  0  2  0  0  0  0  0  0  0  0  0
    7.9849  -15.9358   18.5549 N   0  0  0  0  0  0  0  0  0  0  0  0
    7.9992  -16.0823   20.9062 C   0  0  0  0  0  0  0  0  0  0  0  0
    6.7871  -16.4197   20.9084 O   0  0  0  0  0  0  0  0  0  0  0  0
    8.7713  -16.4776   22.0068 N   0  0  0  0  0  0  0  0  0  0  0  0
    8.4694  -17.0764   23.2395 C   0  0  1  0  0  0  0  0  0  0  0  0
    8.7954  -18.5179   23.4625 C   0  0  0  0  0  0  0  0  0  0  0  0
    8.3708  -19.0685   24.7629 C   0  0  0  0  0  0  0  0  0  0  0  0
    9.2087  -19.8889   25.5283 C   0  0  0  0  0  0  0  0  0  0  0  0
    8.6047  -20.2560   26.6491 N   0  0  0  0  0  0  0  0  0  0  0  0
    7.3842  -19.6834   26.6204 C   0  0  0  0  0  0  0  0  0  0  0  0
    7.2519  -18.9735   25.4868 N   0  0  0  0  0  0  0  0  0  0  0  0
    8.8517  -16.2613   24.3740 C   0  0  0  0  0  0  0  0  0  0  0  0
   10.0574  -15.8667   24.4579 O   0  0  0  0  0  0  0  0  0  0  0  0
    6.0712  -12.1280   26.4904 C   0  0  0  0  0  0  0  0  0  0  0  0
    7.1245  -13.0808   26.0440 C   0  0  1  0  0  0  0  0  0  0  0  0
    8.4104  -12.2884   25.8507 C   0  0  0  0  0  0  0  0  0  0  0  0
    7.3813  -14.2002   26.9862 C   0  0  0  0  0  0  0  0  0  0  0  0
    8.4127  -15.1897   26.5659 C   0  0  2  0  0  0  0  0  0  0  0  0
    7.9592  -15.8844   25.3833 N   0  0  0  0  0  0  0  0  0  0  0  0
    8.8862  -16.0870   27.6258 C   0  0  0  0  0  0  0  0  0  0  0  0
    8.3586  -17.2101   27.7642 O   0  0  0  0  0  0  0  0  0  0  0  0
    9.9218  -15.7467   28.5144 O   0  0  0  0  0  0  0  0  0  0  0  0
  2  1  1  0
  3  2  1  0
  3  5  1  0
  3  4  1  1
  5  6  1  6
  7  5  1  0
  7  8  2  0
  9  7  1  0
 10  9  1  0
 10 11  1  1
 12 11  1  0
 12 16  1  0
 13 14  1  0
 13 12  2  0
 14 15  1  0
 15 16  2  0
 17 10  1  0
 18 17  2  0
 20 22  1  0
 20 19  1  1
 21 20  1  0
 23 24  1  0
 23 22  1  1
 24 17  1  0
 25 23  1  0
 26 25  2  0
 27 25  1  0
M  END
$$$$
