IHL.pdb
     RDKit          3D

 27 27  0  0  1  0  0  0  0  0999 V2000
    7.3724  -12.1244   18.4535 C   0  0  0  0  0  0  0  0  0  0  0  0
    7.8746  -13.5365   18.3906 C   0  0  0  0  0  0  0  0  0  0  0  0
    8.0636  -14.1277   19.7601 C   0  0  2  0  0  0  0  0  0  0  0  0
    9.0191  -13.2514   20.5726 C   0  0  0  0  0  0  0  0  0  0  0  0
    8.4668  -15.5628   19.7936 C   0  0  2  0  0  0  0  0  0  0  0  0
    7.4333  -16.2872   19.0166 N   0  0  0  0  0  0  0  0  0  0  0  0
    8.4029  -16.1744   21.1607 C   0  0  0  0  0  0  0  0  0  0  0  0
    7.2915  -16.4727   21.6692 O   0  0  0  0  0  0  0  0  0  0  0  0
    9.5453  -16.4426   21.9268 N   0  0  0  0  0  0  0  0  0  0  0  0
    9.7506  -16.9523   23.2180 C   0  0  1  0  0  0  0  0  0  0  0  0
   10.8303  -17.9584   23.4544 C   0  0  0  0  0  0  0  0  0  0  0  0
   10.5730  -19.3030   22.9062 C   0  0  0  0  0  0  0  0  0  0  0  0
    9.3563  -19.6333   22.2966 C   0  0  0  0  0  0  0  0  0  0  0  0
    9.3669  -20.8935   21.8874 N   0  0  0  0  0  0  0  0  0  0  0  0
   10.5764  -21.3854   22.2241 C   0  0  0  0  0  0  0  0  0  0  0  0
   11.2931  -20.4260   22.8342 N   0  0  0  0  0  0  0  0  0  0  0  0
    9.7448  -15.9259   24.2399 C   0  0  0  0  0  0  0  0  0  0  0  0
   10.7039  -15.0917   24.2662 O   0  0  0  0  0  0  0  0  0  0  0  0
    8.3113  -11.8690   27.2518 C   0  0  0  0  0  0  0  0  0  0  0  0
    7.4081  -13.0450   27.3851 C   0  0  1  0  0  0  0  0  0  0  0  0
    5.9774  -12.5249   27.4226 C   0  0  0  0  0  0  0  0  0  0  0  0
    7.5328  -14.0440   26.2927 C   0  0  0  0  0  0  0  0  0  0  0  0
    8.8084  -14.8123   26.2469 C   0  0  2  0  0  0  0  0  0  0  0  0
    8.7346  -15.8051   25.2001 N   0  0  0  0  0  0  0  0  0  0  0  0
    9.2590  -15.3524   27.5345 C   0  0  0  0  0  0  0  0  0  0  0  0
    8.8555  -16.4733   27.9081 O   0  0  0  0  0  0  0  0  0  0  0  0
   10.1376  -14.6645   28.3907 O   0  0  0  0  0  0  0  0  0  0  0  0
  2  1  1  0
  3  2  1  0
  3  5  1  0
  3  4  1  6
  5  6  1  6
  7  5  1  0
  7  8  2  0
  9  7  1  0
 10  9  1  0
 10 11  1  6
 12 11  1  0
 12 16  1  0
 13 14  1  0
 13 12  2  0
 14 15  1  0
 15 16  2  0
 17 10  1  0
 18 17  2  0
 20 22  1  0
 20 19  1  6
 21 20  1  0
 23 24  1  0
 23 22  1  1
 24 17  1  0
 25 23  1  0
 26 25  2  0
 27 25  1  0
M  END
$$$$
