IHL.pdb
     RDKit          3D

 27 27  0  0  1  0  0  0  0  0999 V2000
    5.8881  -11.4389   26.8912 C   0  0  0  0  0  0  0  0  0  0  0  0
    5.5081  -12.6421   26.0798 C   0  0  0  0  0  0  0  0  0  0  0  0
    6.7147  -13.3822   25.5726 C   0  0  2  0  0  0  0  0  0  0  0  0
    7.6295  -12.4185   24.8141 C   0  0  0  0  0  0  0  0  0  0  0  0
    6.4311  -14.6132   24.7805 C   0  0  2  0  0  0  0  0  0  0  0  0
    5.5624  -15.4512   25.6406 N   0  0  0  0  0  0  0  0  0  0  0  0
    7.6415  -15.4621   24.5329 C   0  0  0  0  0  0  0  0  0  0  0  0
    7.9404  -16.3866   25.3321 O   0  0  0  0  0  0  0  0  0  0  0  0
    8.4833  -15.2802   23.4274 N   0  0  0  0  0  0  0  0  0  0  0  0
    9.6623  -15.9043   22.9920 C   0  0  1  0  0  0  0  0  0  0  0  0
   10.1855  -15.6245   21.6202 C   0  0  0  0  0  0  0  0  0  0  0  0
    9.1796  -15.6500   20.5422 C   0  0  0  0  0  0  0  0  0  0  0  0
    8.5809  -14.4792   20.0608 C   0  0  0  0  0  0  0  0  0  0  0  0
    7.7145  -14.7604   19.0985 N   0  0  0  0  0  0  0  0  0  0  0  0
    7.7437  -16.1002   18.9493 C   0  0  0  0  0  0  0  0  0  0  0  0
    8.6242  -16.6258   19.8181 N   0  0  0  0  0  0  0  0  0  0  0  0
   10.7186  -15.8738   23.9824 C   0  0  0  0  0  0  0  0  0  0  0  0
   11.4822  -14.8580   24.0229 O   0  0  0  0  0  0  0  0  0  0  0  0
   11.3564  -14.3685   28.4338 C   0  0  0  0  0  0  0  0  0  0  0  0
   10.2554  -15.3546   28.2556 C   0  0  1  0  0  0  0  0  0  0  0  0
    8.9650  -14.6930   28.7206 C   0  0  0  0  0  0  0  0  0  0  0  0
   10.0791  -15.8351   26.8610 C   0  0  0  0  0  0  0  0  0  0  0  0
   11.2031  -16.6307   26.2927 C   0  0  2  0  0  0  0  0  0  0  0  0
   10.9407  -16.9069   24.8992 N   0  0  0  0  0  0  0  0  0  0  0  0
   11.5788  -17.8209   27.0642 C   0  0  0  0  0  0  0  0  0  0  0  0
   10.7763  -18.7726   27.1593 O   0  0  0  0  0  0  0  0  0  0  0  0
   12.8173  -17.9534   27.7173 O   0  0  0  0  0  0  0  0  0  0  0  0
  2  1  1  0
  3  2  1  0
  3  5  1  0
  3  4  1  6
  5  6  1  1
  7  5  1  0
  7  8  2  0
  9  7  1  0
 10  9  1  0
 10 11  1  6
 12 11  1  0
 12 16  1  0
 13 14  1  0
 13 12  2  0
 14 15  1  0
 15 16  2  0
 17 10  1  0
 18 17  2  0
 20 22  1  0
 20 19  1  6
 21 20  1  0
 23 24  1  0
 23 22  1  1
 24 17  1  0
 25 23  1  0
 26 25  2  0
 27 25  1  0
M  END
$$$$
