IHL.pdb
     RDKit          3D

 27 27  0  0  1  0  0  0  0  0999 V2000
    7.4061  -11.7842   18.5862 C   0  0  0  0  0  0  0  0  0  0  0  0
    7.9445  -13.1698   18.3853 C   0  0  0  0  0  0  0  0  0  0  0  0
    8.1052  -13.9049   19.6871 C   0  0  2  0  0  0  0  0  0  0  0  0
    8.9018  -13.0446   20.6702 C   0  0  0  0  0  0  0  0  0  0  0  0
    8.6608  -15.2848   19.5849 C   0  0  2  0  0  0  0  0  0  0  0  0
    7.7766  -16.0031   18.6368 N   0  0  0  0  0  0  0  0  0  0  0  0
    8.5598  -16.0703   20.8576 C   0  0  0  0  0  0  0  0  0  0  0  0
    7.4326  -16.3423   21.3457 O   0  0  0  0  0  0  0  0  0  0  0  0
    9.6834  -16.5346   21.5547 N   0  0  0  0  0  0  0  0  0  0  0  0
    9.8729  -17.0971   22.8262 C   0  0  1  0  0  0  0  0  0  0  0  0
   11.0024  -18.0488   23.0544 C   0  0  0  0  0  0  0  0  0  0  0  0
   10.9761  -19.2711   22.2298 C   0  0  0  0  0  0  0  0  0  0  0  0
    9.7742  -19.8734   21.8374 C   0  0  0  0  0  0  0  0  0  0  0  0
   10.0107  -20.9532   21.1068 N   0  0  0  0  0  0  0  0  0  0  0  0
   11.3522  -21.0592   21.0201 C   0  0  0  0  0  0  0  0  0  0  0  0
   11.9233  -20.0473   21.6957 N   0  0  0  0  0  0  0  0  0  0  0  0
    9.7685  -16.1266   23.8963 C   0  0  0  0  0  0  0  0  0  0  0  0
   10.7301  -15.3140   24.0733 O   0  0  0  0  0  0  0  0  0  0  0  0
    7.8899  -12.1149   26.7548 C   0  0  0  0  0  0  0  0  0  0  0  0
    7.0807  -13.3598   26.8650 C   0  0  1  0  0  0  0  0  0  0  0  0
    5.6123  -12.9563   26.8620 C   0  0  0  0  0  0  0  0  0  0  0  0
    7.3156  -14.3449   25.7782 C   0  0  0  0  0  0  0  0  0  0  0  0
    8.6141  -15.0739   25.8209 C   0  0  2  0  0  0  0  0  0  0  0  0
    8.6604  -16.0374   24.7456 N   0  0  0  0  0  0  0  0  0  0  0  0
    8.9711  -15.6380   27.1275 C   0  0  0  0  0  0  0  0  0  0  0  0
    9.6464  -14.9588   27.9285 O   0  0  0  0  0  0  0  0  0  0  0  0
    8.5888  -16.9278   27.5376 O   0  0  0  0  0  0  0  0  0  0  0  0
  2  1  1  0
  3  2  1  0
  3  5  1  0
  3  4  1  1
  5  6  1  6
  7  5  1  0
  7  8  2  0
  9  7  1  0
 10  9  1  0
 10 11  1  6
 12 11  1  0
 12 16  1  0
 13 14  1  0
 13 12  2  0
 14 15  1  0
 15 16  2  0
 17 10  1  0
 18 17  2  0
 20 22  1  0
 20 19  1  6
 21 20  1  0
 23 24  1  0
 23 22  1  1
 24 17  1  0
 25 23  1  0
 26 25  2  0
 27 25  1  0
M  END
$$$$
