IHL.pdb
     RDKit          3D

 27 27  0  0  1  0  0  0  0  0999 V2000
    7.4680  -11.8201   18.6382 C   0  0  0  0  0  0  0  0  0  0  0  0
    8.0055  -13.2021   18.4115 C   0  0  0  0  0  0  0  0  0  0  0  0
    8.1334  -13.9734   19.6959 C   0  0  2  0  0  0  0  0  0  0  0  0
    8.9591  -13.1679   20.7011 C   0  0  0  0  0  0  0  0  0  0  0  0
    8.6358  -15.3709   19.5623 C   0  0  2  0  0  0  0  0  0  0  0  0
    7.6902  -16.0503   18.6453 N   0  0  0  0  0  0  0  0  0  0  0  0
    8.5579  -16.1628   20.8326 C   0  0  0  0  0  0  0  0  0  0  0  0
    7.4409  -16.5205   21.2879 O   0  0  0  0  0  0  0  0  0  0  0  0
    9.6927  -16.5405   21.5630 N   0  0  0  0  0  0  0  0  0  0  0  0
    9.8847  -17.1501   22.8122 C   0  0  1  0  0  0  0  0  0  0  0  0
   10.9906  -18.1393   22.9917 C   0  0  0  0  0  0  0  0  0  0  0  0
   10.9791  -19.2779   22.0546 C   0  0  0  0  0  0  0  0  0  0  0  0
   10.1798  -20.4071   22.2717 C   0  0  0  0  0  0  0  0  0  0  0  0
   10.3438  -21.2887   21.2962 N   0  0  0  0  0  0  0  0  0  0  0  0
   11.2402  -20.7452   20.4482 C   0  0  0  0  0  0  0  0  0  0  0  0
   11.6160  -19.5402   20.9098 N   0  0  0  0  0  0  0  0  0  0  0  0
    9.8223  -16.2136   23.9153 C   0  0  0  0  0  0  0  0  0  0  0  0
   10.8115  -15.4387   24.1089 O   0  0  0  0  0  0  0  0  0  0  0  0
    8.2072  -12.1591   26.7381 C   0  0  0  0  0  0  0  0  0  0  0  0
    7.2573  -13.3038   26.8005 C   0  0  1  0  0  0  0  0  0  0  0  0
    5.8478  -12.7393   26.6847 C   0  0  0  0  0  0  0  0  0  0  0  0
    7.4579  -14.3285   25.7439 C   0  0  0  0  0  0  0  0  0  0  0  0
    8.6968  -15.1490   25.8505 C   0  0  2  0  0  0  0  0  0  0  0  0
    8.7261  -16.1175   24.7790 N   0  0  0  0  0  0  0  0  0  0  0  0
    8.9480  -15.7323   27.1732 C   0  0  0  0  0  0  0  0  0  0  0  0
    8.3360  -16.7645   27.5181 O   0  0  0  0  0  0  0  0  0  0  0  0
    9.8574  -15.1830   28.0947 O   0  0  0  0  0  0  0  0  0  0  0  0
  2  1  1  0
  3  2  1  0
  3  5  1  0
  3  4  1  1
  5  6  1  6
  7  5  1  0
  7  8  2  0
  9  7  1  0
 10  9  1  0
 10 11  1  6
 12 11  1  0
 12 16  1  0
 13 14  1  0
 13 12  2  0
 14 15  1  0
 15 16  2  0
 17 10  1  0
 18 17  2  0
 20 22  1  0
 20 19  1  6
 21 20  1  0
 23 24  1  0
 23 22  1  1
 24 17  1  0
 25 23  1  0
 26 25  2  0
 27 25  1  0
M  END
$$$$
