EID.pdb
     RDKit          3D

 26 25  0  0  1  0  0  0  0  0999 V2000
    8.1335  -14.7588   20.2400 N   0  0  0  0  0  0  0  0  0  0  0  0
    7.4732  -15.2660   21.4007 C   0  0  1  0  0  0  0  0  0  0  0  0
    7.1158  -16.7199   21.3087 C   0  0  0  0  0  0  0  0  0  0  0  0
    6.5527  -17.0103   19.9397 C   0  0  0  0  0  0  0  0  0  0  0  0
    5.9938  -18.3851   19.8518 C   0  0  0  0  0  0  0  0  0  0  0  0
    4.7671  -18.6412   19.9279 O   0  0  0  0  0  0  0  0  0  0  0  0
    8.2013  -14.9359   22.6524 C   0  0  0  0  0  0  0  0  0  0  0  0
    9.4575  -14.9040   22.5974 O   0  0  0  0  0  0  0  0  0  0  0  0
    6.9052  -19.4205   19.6758 O   0  0  0  0  0  0  0  0  0  0  0  0
    5.9961  -11.5458   26.2729 C   0  0  0  0  0  0  0  0  0  0  0  0
    7.0273  -12.2730   25.4676 C   0  0  0  0  0  0  0  0  0  0  0  0
    7.4152  -13.6129   26.0834 C   0  0  2  0  0  0  0  0  0  0  0  0
    8.2055  -13.3878   27.3539 C   0  0  0  0  0  0  0  0  0  0  0  0
    8.2763  -14.3893   25.1265 C   0  0  2  0  0  0  0  0  0  0  0  0
    7.5759  -14.6613   23.8772 N   0  0  0  0  0  0  0  0  0  0  0  0
    8.7144  -15.6862   25.6538 C   0  0  0  0  0  0  0  0  0  0  0  0
    7.8393  -16.5354   25.9525 O   0  0  0  0  0  0  0  0  0  0  0  0
   10.0704  -16.0529   25.8522 N   0  0  0  0  0  0  0  0  0  0  0  0
   10.4531  -17.3959   26.3401 C   0  0  1  0  0  0  0  0  0  0  0  0
   11.7796  -17.7753   25.7178 C   0  0  0  0  0  0  0  0  0  0  0  0
   12.3759  -19.0032   26.2862 C   0  0  0  0  0  0  0  0  0  0  0  0
   13.3489  -19.0480   27.0691 O   0  0  0  0  0  0  0  0  0  0  0  0
   10.5820  -17.2806   27.8306 C   0  0  0  0  0  0  0  0  0  0  0  0
   10.7905  -18.3455   28.5065 O   0  0  0  0  0  0  0  0  0  0  0  0
   11.8278  -20.2528   25.9392 O   0  0  0  0  0  0  0  0  0  0  0  0
   10.4925  -16.1036   28.5338 O   0  0  0  0  0  0  0  0  0  0  0  0
  2  1  1  6
  2  7  1  0
  3  2  1  0
  4  3  1  0
  5  4  1  0
  6  5  2  0
  7  8  2  0
  9  5  1  0
 10 11  1  0
 12 11  1  0
 12 14  1  0
 12 13  1  1
 14 15  1  6
 15  7  1  0
 16 17  2  0
 16 14  1  0
 18 16  1  0
 19 18  1  0
 19 23  1  0
 19 20  1  6
 21 20  1  0
 21 22  2  0
 23 26  1  0
 24 23  2  0
 25 21  1  0
M  END
$$$$
