EID.pdb
     RDKit          3D

 26 25  0  0  1  0  0  0  0  0999 V2000
    6.5662  -16.2683   21.5329 N   0  0  0  0  0  0  0  0  0  0  0  0
    7.9811  -16.4649   21.5272 C   0  0  1  0  0  0  0  0  0  0  0  0
    8.6497  -16.0247   20.2586 C   0  0  0  0  0  0  0  0  0  0  0  0
    7.6861  -16.1754   19.1078 C   0  0  0  0  0  0  0  0  0  0  0  0
    8.3188  -15.8291   17.8078 C   0  0  0  0  0  0  0  0  0  0  0  0
    7.6900  -15.7775   16.7224 O   0  0  0  0  0  0  0  0  0  0  0  0
    8.6325  -15.9053   22.7389 C   0  0  0  0  0  0  0  0  0  0  0  0
    9.8838  -15.7801   22.7152 O   0  0  0  0  0  0  0  0  0  0  0  0
    9.6815  -15.5529   17.8295 O   0  0  0  0  0  0  0  0  0  0  0  0
    6.2030  -12.0928   25.4676 C   0  0  0  0  0  0  0  0  0  0  0  0
    7.3468  -12.9059   24.9468 C   0  0  0  0  0  0  0  0  0  0  0  0
    7.6998  -14.0748   25.8601 C   0  0  2  0  0  0  0  0  0  0  0  0
    8.4639  -13.5749   27.0665 C   0  0  0  0  0  0  0  0  0  0  0  0
    8.5708  -15.0564   25.1267 C   0  0  2  0  0  0  0  0  0  0  0  0
    7.9405  -15.5132   23.8940 N   0  0  0  0  0  0  0  0  0  0  0  0
    8.8852  -16.2574   25.9082 C   0  0  0  0  0  0  0  0  0  0  0  0
    7.9669  -17.0854   26.1254 O   0  0  0  0  0  0  0  0  0  0  0  0
   10.1663  -16.5528   26.4414 N   0  0  0  0  0  0  0  0  0  0  0  0
   10.4733  -17.8625   27.0565 C   0  0  1  0  0  0  0  0  0  0  0  0
   11.6549  -18.4706   26.3320 C   0  0  0  0  0  0  0  0  0  0  0  0
   12.1649  -19.7097   26.9573 C   0  0  0  0  0  0  0  0  0  0  0  0
   11.7084  -20.8592   26.7791 O   0  0  0  0  0  0  0  0  0  0  0  0
   10.8184  -17.5833   28.4898 C   0  0  0  0  0  0  0  0  0  0  0  0
   11.1210  -16.3858   28.8196 O   0  0  0  0  0  0  0  0  0  0  0  0
   13.2607  -19.6298   27.8376 O   0  0  0  0  0  0  0  0  0  0  0  0
   10.8340  -18.5275   29.4878 O   0  0  0  0  0  0  0  0  0  0  0  0
  2  1  1  6
  2  7  1  0
  3  2  1  0
  4  3  1  0
  5  4  1  0
  6  5  2  0
  7  8  2  0
  9  5  1  0
 10 11  1  0
 12 11  1  0
 12 14  1  0
 12 13  1  1
 14 15  1  6
 15  7  1  0
 16 17  2  0
 16 14  1  0
 18 16  1  0
 19 18  1  0
 19 23  1  0
 19 20  1  6
 21 20  1  0
 21 22  2  0
 23 26  1  0
 24 23  2  0
 25 21  1  0
M  END
$$$$
