EID.pdb
     RDKit          3D

 26 25  0  0  1  0  0  0  0  0999 V2000
    7.5808  -14.6379   20.2648 N   0  0  0  0  0  0  0  0  0  0  0  0
    7.0308  -15.0900   21.5032 C   0  0  1  0  0  0  0  0  0  0  0  0
    6.5864  -16.5225   21.4827 C   0  0  0  0  0  0  0  0  0  0  0  0
    6.6914  -17.0581   20.0764 C   0  0  0  0  0  0  0  0  0  0  0  0
    6.5077  -18.5327   20.0310 C   0  0  0  0  0  0  0  0  0  0  0  0
    7.0135  -19.3207   20.8674 O   0  0  0  0  0  0  0  0  0  0  0  0
    7.9140  -14.7834   22.6572 C   0  0  0  0  0  0  0  0  0  0  0  0
    9.1464  -14.6790   22.4284 O   0  0  0  0  0  0  0  0  0  0  0  0
    5.7285  -19.0340   18.9942 O   0  0  0  0  0  0  0  0  0  0  0  0
    5.9640  -11.5369   26.3263 C   0  0  0  0  0  0  0  0  0  0  0  0
    7.0354  -12.1833   25.5048 C   0  0  0  0  0  0  0  0  0  0  0  0
    7.5646  -13.4667   26.1356 C   0  0  2  0  0  0  0  0  0  0  0  0
    8.5227  -13.1334   27.2582 C   0  0  0  0  0  0  0  0  0  0  0  0
    8.3075  -14.2764   25.1095 C   0  0  2  0  0  0  0  0  0  0  0  0
    7.4579  -14.6059   23.9715 N   0  0  0  0  0  0  0  0  0  0  0  0
    8.8252  -15.5466   25.6294 C   0  0  0  0  0  0  0  0  0  0  0  0
    8.0050  -16.4531   25.9153 O   0  0  0  0  0  0  0  0  0  0  0  0
   10.2009  -15.8265   25.8342 N   0  0  0  0  0  0  0  0  0  0  0  0
   10.6614  -17.1199   26.3847 C   0  0  1  0  0  0  0  0  0  0  0  0
   12.0876  -17.3548   25.9359 C   0  0  0  0  0  0  0  0  0  0  0  0
   12.2207  -17.6266   24.4886 C   0  0  0  0  0  0  0  0  0  0  0  0
   11.2766  -17.7778   23.6839 O   0  0  0  0  0  0  0  0  0  0  0  0
   10.5915  -16.9900   27.8779 C   0  0  0  0  0  0  0  0  0  0  0  0
   10.7647  -18.0390   28.5877 O   0  0  0  0  0  0  0  0  0  0  0  0
   13.5081  -17.7318   23.9286 O   0  0  0  0  0  0  0  0  0  0  0  0
   10.3531  -15.8153   28.5496 O   0  0  0  0  0  0  0  0  0  0  0  0
  2  1  1  6
  2  7  1  0
  3  2  1  0
  4  3  1  0
  5  4  1  0
  6  5  2  0
  7  8  2  0
  9  5  1  0
 10 11  1  0
 12 11  1  0
 12 14  1  0
 12 13  1  1
 14 15  1  6
 15  7  1  0
 16 17  2  0
 16 14  1  0
 18 16  1  0
 19 18  1  0
 19 23  1  0
 19 20  1  1
 21 20  1  0
 21 22  2  0
 23 26  1  0
 24 23  2  0
 25 21  1  0
M  END
$$$$
