EID.pdb
     RDKit          3D

 26 25  0  0  1  0  0  0  0  0999 V2000
    9.5266  -18.4657   18.4661 N   0  0  0  0  0  0  0  0  0  0  0  0
   10.5885  -17.5617   18.1564 C   0  0  1  0  0  0  0  0  0  0  0  0
   10.6893  -17.2206   16.6992 C   0  0  0  0  0  0  0  0  0  0  0  0
    9.7113  -18.0642   15.9199 C   0  0  0  0  0  0  0  0  0  0  0  0
    9.7615  -17.7665   14.4641 C   0  0  0  0  0  0  0  0  0  0  0  0
    8.7693  -17.8659   13.7013 O   0  0  0  0  0  0  0  0  0  0  0  0
   10.5735  -16.3567   19.0244 C   0  0  0  0  0  0  0  0  0  0  0  0
   11.5032  -15.5236   18.8704 O   0  0  0  0  0  0  0  0  0  0  0  0
   10.9880  -17.3585   13.9513 O   0  0  0  0  0  0  0  0  0  0  0  0
    6.4977  -13.0915   19.5515 C   0  0  0  0  0  0  0  0  0  0  0  0
    7.9109  -13.5793   19.6266 C   0  0  0  0  0  0  0  0  0  0  0  0
    8.2115  -14.3084   20.9316 C   0  0  2  0  0  0  0  0  0  0  0  0
    8.1906  -13.3305   22.0860 C   0  0  0  0  0  0  0  0  0  0  0  0
    9.5779  -14.9323   20.8699 C   0  0  2  0  0  0  0  0  0  0  0  0
    9.5941  -16.0979   19.9943 N   0  0  0  0  0  0  0  0  0  0  0  0
   10.0762  -15.3801   22.1750 C   0  0  0  0  0  0  0  0  0  0  0  0
    9.5478  -14.9057   23.2103 O   0  0  0  0  0  0  0  0  0  0  0  0
   11.1234  -16.3206   22.3522 N   0  0  0  0  0  0  0  0  0  0  0  0
   11.3674  -16.9822   23.6524 C   0  0  1  0  0  0  0  0  0  0  0  0
   10.1520  -17.8114   24.0073 C   0  0  0  0  0  0  0  0  0  0  0  0
   10.3267  -18.6371   25.2214 C   0  0  0  0  0  0  0  0  0  0  0  0
   11.3563  -18.6885   25.9279 O   0  0  0  0  0  0  0  0  0  0  0  0
   12.5684  -17.8605   23.4584 C   0  0  0  0  0  0  0  0  0  0  0  0
   12.8683  -18.2259   22.2707 O   0  0  0  0  0  0  0  0  0  0  0  0
    9.2625  -19.4516   25.6528 O   0  0  0  0  0  0  0  0  0  0  0  0
   13.3812  -18.3075   24.4720 O   0  0  0  0  0  0  0  0  0  0  0  0
  2  1  1  6
  2  7  1  0
  3  2  1  0
  4  3  1  0
  5  4  1  0
  6  5  2  0
  7  8  2  0
  9  5  1  0
 10 11  1  0
 12 11  1  0
 12 14  1  0
 12 13  1  1
 14 15  1  6
 15  7  1  0
 16 17  2  0
 16 14  1  0
 18 16  1  0
 19 18  1  0
 19 23  1  0
 19 20  1  6
 21 20  1  0
 21 22  2  0
 23 26  1  0
 24 23  2  0
 25 21  1  0
M  END
$$$$
