EID.pdb
     RDKit          3D

 26 25  0  0  1  0  0  0  0  0999 V2000
    8.9539  -15.2003   20.5096 N   0  0  0  0  0  0  0  0  0  0  0  0
    8.1314  -15.5958   21.6085 C   0  0  1  0  0  0  0  0  0  0  0  0
    7.8292  -17.0647   21.6423 C   0  0  0  0  0  0  0  0  0  0  0  0
    7.6720  -17.5750   20.2315 C   0  0  0  0  0  0  0  0  0  0  0  0
    7.3017  -19.0146   20.2020 C   0  0  0  0  0  0  0  0  0  0  0  0
    7.0850  -19.6534   19.1432 O   0  0  0  0  0  0  0  0  0  0  0  0
    8.6441  -15.0891   22.9070 C   0  0  0  0  0  0  0  0  0  0  0  0
    9.8918  -15.0015   23.0396 O   0  0  0  0  0  0  0  0  0  0  0  0
    7.1981  -19.6587   21.4300 O   0  0  0  0  0  0  0  0  0  0  0  0
    5.7362  -11.5962   25.9645 C   0  0  0  0  0  0  0  0  0  0  0  0
    6.8928  -12.3092   25.3364 C   0  0  0  0  0  0  0  0  0  0  0  0
    7.2727  -13.5831   26.0834 C   0  0  2  0  0  0  0  0  0  0  0  0
    7.8557  -13.2345   27.4353 C   0  0  0  0  0  0  0  0  0  0  0  0
    8.3106  -14.3450   25.3072 C   0  0  2  0  0  0  0  0  0  0  0  0
    7.8265  -14.7076   23.9807 N   0  0  0  0  0  0  0  0  0  0  0  0
    8.7292  -15.5916   25.9572 C   0  0  0  0  0  0  0  0  0  0  0  0
    8.4678  -16.6790   25.3868 O   0  0  0  0  0  0  0  0  0  0  0  0
    9.4153  -15.6566   27.1973 N   0  0  0  0  0  0  0  0  0  0  0  0
   10.4307  -16.6958   27.4747 C   0  0  1  0  0  0  0  0  0  0  0  0
   11.5957  -16.4965   26.5291 C   0  0  0  0  0  0  0  0  0  0  0  0
   11.8514  -17.6538   25.6451 C   0  0  0  0  0  0  0  0  0  0  0  0
   12.8787  -17.8343   24.9568 O   0  0  0  0  0  0  0  0  0  0  0  0
   10.8632  -16.4919   28.8969 C   0  0  0  0  0  0  0  0  0  0  0  0
   10.9718  -15.2953   29.3333 O   0  0  0  0  0  0  0  0  0  0  0  0
   10.8757  -18.6634   25.5417 O   0  0  0  0  0  0  0  0  0  0  0  0
   11.1548  -17.5054   29.7777 O   0  0  0  0  0  0  0  0  0  0  0  0
  2  1  1  6
  2  7  1  0
  3  2  1  0
  4  3  1  0
  5  4  1  0
  6  5  2  0
  7  8  2  0
  9  5  1  0
 10 11  1  0
 12 11  1  0
 12 14  1  0
 12 13  1  1
 14 15  1  6
 15  7  1  0
 16 17  2  0
 16 14  1  0
 18 16  1  0
 19 18  1  0
 19 23  1  0
 19 20  1  6
 21 20  1  0
 21 22  2  0
 23 26  1  0
 24 23  2  0
 25 21  1  0
M  END
$$$$
