EID.pdb
     RDKit          3D

 26 25  0  0  1  0  0  0  0  0999 V2000
    7.9971  -14.7418   19.8357 N   0  0  0  0  0  0  0  0  0  0  0  0
    7.2850  -15.1135   21.0170 C   0  0  1  0  0  0  0  0  0  0  0  0
    6.7824  -16.5267   21.0030 C   0  0  0  0  0  0  0  0  0  0  0  0
    6.8429  -17.0646   19.5950 C   0  0  0  0  0  0  0  0  0  0  0  0
    6.2915  -18.4423   19.5051 C   0  0  0  0  0  0  0  0  0  0  0  0
    5.0765  -18.6918   19.3110 O   0  0  0  0  0  0  0  0  0  0  0  0
    8.0386  -14.7885   22.2548 C   0  0  0  0  0  0  0  0  0  0  0  0
    9.2942  -14.7770   22.1792 O   0  0  0  0  0  0  0  0  0  0  0  0
    7.1965  -19.4884   19.6479 O   0  0  0  0  0  0  0  0  0  0  0  0
    5.9214  -11.3582   25.8567 C   0  0  0  0  0  0  0  0  0  0  0  0
    6.9529  -12.0950   25.0607 C   0  0  0  0  0  0  0  0  0  0  0  0
    7.3352  -13.4307   25.6890 C   0  0  2  0  0  0  0  0  0  0  0  0
    8.1576  -13.1976   26.9375 C   0  0  0  0  0  0  0  0  0  0  0  0
    8.1627  -14.2349   24.7254 C   0  0  2  0  0  0  0  0  0  0  0  0
    7.4378  -14.4974   23.4881 N   0  0  0  0  0  0  0  0  0  0  0  0
    8.5756  -15.5390   25.2554 C   0  0  0  0  0  0  0  0  0  0  0  0
    7.6931  -16.4104   25.4506 O   0  0  0  0  0  0  0  0  0  0  0  0
    9.9148  -15.8891   25.5663 N   0  0  0  0  0  0  0  0  0  0  0  0
   10.2815  -17.2480   26.0211 C   0  0  1  0  0  0  0  0  0  0  0  0
   11.4901  -17.7098   25.2358 C   0  0  0  0  0  0  0  0  0  0  0  0
   12.0871  -18.9641   25.7422 C   0  0  0  0  0  0  0  0  0  0  0  0
   11.4545  -19.9692   26.1313 O   0  0  0  0  0  0  0  0  0  0  0  0
   10.6128  -17.1280   27.4796 C   0  0  0  0  0  0  0  0  0  0  0  0
   10.9333  -18.1876   28.1189 O   0  0  0  0  0  0  0  0  0  0  0  0
   13.4890  -19.0759   25.8077 O   0  0  0  0  0  0  0  0  0  0  0  0
   10.5986  -15.9519   28.1898 O   0  0  0  0  0  0  0  0  0  0  0  0
  2  1  1  6
  2  7  1  0
  3  2  1  0
  4  3  1  0
  5  4  1  0
  6  5  2  0
  7  8  2  0
  9  5  1  0
 10 11  1  0
 12 11  1  0
 12 14  1  0
 12 13  1  1
 14 15  1  6
 15  7  1  0
 16 17  2  0
 16 14  1  0
 18 16  1  0
 19 18  1  0
 19 23  1  0
 19 20  1  6
 21 20  1  0
 21 22  2  0
 23 26  1  0
 24 23  2  0
 25 21  1  0
M  END
$$$$
