EID.pdb
     RDKit          3D

 26 25  0  0  1  0  0  0  0  0999 V2000
    7.7445  -14.2137   20.4016 N   0  0  0  0  0  0  0  0  0  0  0  0
    7.5286  -15.1293   21.4766 C   0  0  1  0  0  0  0  0  0  0  0  0
    7.8254  -16.5573   21.1261 C   0  0  0  0  0  0  0  0  0  0  0  0
    7.0646  -16.9341   19.8792 C   0  0  0  0  0  0  0  0  0  0  0  0
    7.2566  -18.3653   19.5255 C   0  0  0  0  0  0  0  0  0  0  0  0
    6.3321  -19.2145   19.5446 O   0  0  0  0  0  0  0  0  0  0  0  0
    8.2018  -14.6976   22.7281 C   0  0  0  0  0  0  0  0  0  0  0  0
    9.3086  -14.1106   22.6146 O   0  0  0  0  0  0  0  0  0  0  0  0
    8.5409  -18.7516   19.1582 O   0  0  0  0  0  0  0  0  0  0  0  0
    5.9429  -11.8993   26.5468 C   0  0  0  0  0  0  0  0  0  0  0  0
    7.0012  -12.5368   25.7018 C   0  0  0  0  0  0  0  0  0  0  0  0
    7.4336  -13.8995   26.2319 C   0  0  2  0  0  0  0  0  0  0  0  0
    8.1675  -13.7337   27.5446 C   0  0  0  0  0  0  0  0  0  0  0  0
    8.3648  -14.5606   25.2541 C   0  0  2  0  0  0  0  0  0  0  0  0
    7.6806  -14.9045   24.0135 N   0  0  0  0  0  0  0  0  0  0  0  0
    8.9629  -15.8000   25.7618 C   0  0  0  0  0  0  0  0  0  0  0  0
    8.2027  -16.7607   26.0365 O   0  0  0  0  0  0  0  0  0  0  0  0
   10.3534  -15.9924   25.9668 N   0  0  0  0  0  0  0  0  0  0  0  0
   10.9018  -17.2805   26.4442 C   0  0  1  0  0  0  0  0  0  0  0  0
   12.3427  -17.3881   25.9935 C   0  0  0  0  0  0  0  0  0  0  0  0
   12.5333  -17.1609   24.5449 C   0  0  0  0  0  0  0  0  0  0  0  0
   11.8063  -17.6103   23.6332 O   0  0  0  0  0  0  0  0  0  0  0  0
   10.8176  -17.2441   27.9419 C   0  0  0  0  0  0  0  0  0  0  0  0
   10.6551  -16.1124   28.5138 O   0  0  0  0  0  0  0  0  0  0  0  0
   13.6183  -16.3742   24.1136 O   0  0  0  0  0  0  0  0  0  0  0  0
   10.9023  -18.3475   28.7562 O   0  0  0  0  0  0  0  0  0  0  0  0
  2  1  1  6
  2  7  1  0
  3  2  1  0
  4  3  1  0
  5  4  1  0
  6  5  2  0
  7  8  2  0
  9  5  1  0
 10 11  1  0
 12 11  1  0
 12 14  1  0
 12 13  1  1
 14 15  1  6
 15  7  1  0
 16 17  2  0
 16 14  1  0
 18 16  1  0
 19 18  1  0
 19 23  1  0
 19 20  1  1
 21 20  1  0
 21 22  2  0
 23 26  1  0
 24 23  2  0
 25 21  1  0
M  END
$$$$
