EID.pdb
     RDKit          3D

 26 25  0  0  1  0  0  0  0  0999 V2000
    6.2520  -16.2520   21.7273 N   0  0  0  0  0  0  0  0  0  0  0  0
    7.6731  -16.2583   21.5822 C   0  0  1  0  0  0  0  0  0  0  0  0
    8.1567  -15.6105   20.3187 C   0  0  0  0  0  0  0  0  0  0  0  0
    7.5765  -16.3371   19.1309 C   0  0  0  0  0  0  0  0  0  0  0  0
    8.5607  -16.4610   18.0235 C   0  0  0  0  0  0  0  0  0  0  0  0
    9.5281  -17.2611   18.0416 O   0  0  0  0  0  0  0  0  0  0  0  0
    8.3650  -15.7400   22.7898 C   0  0  0  0  0  0  0  0  0  0  0  0
    9.6211  -15.6843   22.7554 O   0  0  0  0  0  0  0  0  0  0  0  0
    8.3715  -15.6320   16.9232 O   0  0  0  0  0  0  0  0  0  0  0  0
    5.8853  -11.9511   25.5748 C   0  0  0  0  0  0  0  0  0  0  0  0
    7.0012  -12.7509   24.9784 C   0  0  0  0  0  0  0  0  0  0  0  0
    7.4924  -13.8562   25.9069 C   0  0  2  0  0  0  0  0  0  0  0  0
    8.3067  -13.2597   27.0340 C   0  0  0  0  0  0  0  0  0  0  0  0
    8.3703  -14.8129   25.1491 C   0  0  2  0  0  0  0  0  0  0  0  0
    7.7059  -15.3143   23.9522 N   0  0  0  0  0  0  0  0  0  0  0  0
    8.7682  -15.9876   25.9323 C   0  0  0  0  0  0  0  0  0  0  0  0
    7.8810  -16.8105   26.2666 O   0  0  0  0  0  0  0  0  0  0  0  0
   10.0980  -16.2628   26.3432 N   0  0  0  0  0  0  0  0  0  0  0  0
   10.4547  -17.5130   27.0487 C   0  0  1  0  0  0  0  0  0  0  0  0
   11.6949  -18.0936   26.4041 C   0  0  0  0  0  0  0  0  0  0  0  0
   12.2586  -19.2515   27.1306 C   0  0  0  0  0  0  0  0  0  0  0  0
   11.6105  -20.2287   27.5627 O   0  0  0  0  0  0  0  0  0  0  0  0
   10.7295  -17.1284   28.4728 C   0  0  0  0  0  0  0  0  0  0  0  0
   11.1209  -15.9359   28.7152 O   0  0  0  0  0  0  0  0  0  0  0  0
   13.6440  -19.2947   27.3775 O   0  0  0  0  0  0  0  0  0  0  0  0
   10.5906  -17.9699   29.5500 O   0  0  0  0  0  0  0  0  0  0  0  0
  2  1  1  1
  2  7  1  0
  3  2  1  0
  4  3  1  0
  5  4  1  0
  6  5  2  0
  7  8  2  0
  9  5  1  0
 10 11  1  0
 12 11  1  0
 12 14  1  0
 12 13  1  1
 14 15  1  6
 15  7  1  0
 16 17  2  0
 16 14  1  0
 18 16  1  0
 19 18  1  0
 19 23  1  0
 19 20  1  6
 21 20  1  0
 21 22  2  0
 23 26  1  0
 24 23  2  0
 25 21  1  0
M  END
$$$$
