EID.pdb
     RDKit          3D

 26 25  0  0  1  0  0  0  0  0999 V2000
    8.1179  -13.8935   19.9919 N   0  0  0  0  0  0  0  0  0  0  0  0
    7.3399  -14.4412   21.0574 C   0  0  1  0  0  0  0  0  0  0  0  0
    6.8368  -15.8288   20.7900 C   0  0  0  0  0  0  0  0  0  0  0  0
    7.6233  -16.4353   19.6547 C   0  0  0  0  0  0  0  0  0  0  0  0
    7.1766  -17.8202   19.3501 C   0  0  0  0  0  0  0  0  0  0  0  0
    7.8674  -18.8405   19.5908 O   0  0  0  0  0  0  0  0  0  0  0  0
    8.0232  -14.3257   22.3710 C   0  0  0  0  0  0  0  0  0  0  0  0
    9.2774  -14.4199   22.3788 O   0  0  0  0  0  0  0  0  0  0  0  0
    5.9215  -17.9584   18.7677 O   0  0  0  0  0  0  0  0  0  0  0  0
    5.7108  -11.2885   26.2444 C   0  0  0  0  0  0  0  0  0  0  0  0
    6.7918  -11.9238   25.4269 C   0  0  0  0  0  0  0  0  0  0  0  0
    7.1295  -13.3350   25.8957 C   0  0  2  0  0  0  0  0  0  0  0  0
    7.8736  -13.2777   27.2119 C   0  0  0  0  0  0  0  0  0  0  0  0
    8.0125  -14.0152   24.8868 C   0  0  2  0  0  0  0  0  0  0  0  0
    7.3579  -14.1201   23.5883 N   0  0  0  0  0  0  0  0  0  0  0  0
    8.4014  -15.3760   25.2727 C   0  0  0  0  0  0  0  0  0  0  0  0
    7.8784  -16.3414   24.6640 O   0  0  0  0  0  0  0  0  0  0  0  0
    9.3360  -15.6818   26.2953 N   0  0  0  0  0  0  0  0  0  0  0  0
   10.0078  -16.9974   26.3715 C   0  0  1  0  0  0  0  0  0  0  0  0
   10.9070  -17.1505   25.1637 C   0  0  0  0  0  0  0  0  0  0  0  0
   11.7566  -18.3601   25.2019 C   0  0  0  0  0  0  0  0  0  0  0  0
   11.7017  -19.2645   26.0626 O   0  0  0  0  0  0  0  0  0  0  0  0
   10.8171  -16.9836   27.6350 C   0  0  0  0  0  0  0  0  0  0  0  0
   11.5006  -18.0227   27.9299 O   0  0  0  0  0  0  0  0  0  0  0  0
   12.7253  -18.5467   24.1975 O   0  0  0  0  0  0  0  0  0  0  0  0
   10.8812  -15.9263   28.5101 O   0  0  0  0  0  0  0  0  0  0  0  0
  2  1  1  6
  2  7  1  0
  3  2  1  0
  4  3  1  0
  5  4  1  0
  6  5  2  0
  7  8  2  0
  9  5  1  0
 10 11  1  0
 12 11  1  0
 12 14  1  0
 12 13  1  1
 14 15  1  6
 15  7  1  0
 16 17  2  0
 16 14  1  0
 18 16  1  0
 19 18  1  0
 19 23  1  0
 19 20  1  6
 21 20  1  0
 21 22  2  0
 23 26  1  0
 24 23  2  0
 25 21  1  0
M  END
$$$$
