EID.pdb
     RDKit          3D

 26 25  0  0  1  0  0  0  0  0999 V2000
    6.3775  -16.3338   21.8152 N   0  0  0  0  0  0  0  0  0  0  0  0
    7.7930  -16.2622   21.6371 C   0  0  1  0  0  0  0  0  0  0  0  0
    8.2115  -15.5567   20.3812 C   0  0  0  0  0  0  0  0  0  0  0  0
    7.6931  -16.3159   19.1853 C   0  0  0  0  0  0  0  0  0  0  0  0
    8.1769  -15.7312   17.9068 C   0  0  0  0  0  0  0  0  0  0  0  0
    9.0172  -14.8006   17.8439 O   0  0  0  0  0  0  0  0  0  0  0  0
    8.4867  -15.7407   22.8423 C   0  0  0  0  0  0  0  0  0  0  0  0
    9.7434  -15.6977   22.8109 O   0  0  0  0  0  0  0  0  0  0  0  0
    7.6508  -16.2662   16.7361 O   0  0  0  0  0  0  0  0  0  0  0  0
    5.8917  -12.0617   25.6644 C   0  0  0  0  0  0  0  0  0  0  0  0
    7.1057  -12.7373   25.1072 C   0  0  0  0  0  0  0  0  0  0  0  0
    7.5926  -13.8858   25.9841 C   0  0  2  0  0  0  0  0  0  0  0  0
    8.3796  -13.3424   27.1566 C   0  0  0  0  0  0  0  0  0  0  0  0
    8.4948  -14.7912   25.1927 C   0  0  2  0  0  0  0  0  0  0  0  0
    7.8288  -15.2991   23.9994 N   0  0  0  0  0  0  0  0  0  0  0  0
    8.9566  -15.9617   25.9466 C   0  0  0  0  0  0  0  0  0  0  0  0
    8.1126  -16.8313   26.2748 O   0  0  0  0  0  0  0  0  0  0  0  0
   10.3028  -16.1832   26.3355 N   0  0  0  0  0  0  0  0  0  0  0  0
   10.7171  -17.4086   27.0530 C   0  0  1  0  0  0  0  0  0  0  0  0
   12.0400  -17.8760   26.4853 C   0  0  0  0  0  0  0  0  0  0  0  0
   12.6425  -19.0042   27.2273 C   0  0  0  0  0  0  0  0  0  0  0  0
   12.0661  -19.7035   28.0878 O   0  0  0  0  0  0  0  0  0  0  0  0
   10.8678  -17.0210   28.4947 C   0  0  0  0  0  0  0  0  0  0  0  0
   11.0315  -17.9484   29.3591 O   0  0  0  0  0  0  0  0  0  0  0  0
   13.9821  -19.3532   26.9706 O   0  0  0  0  0  0  0  0  0  0  0  0
   10.8436  -15.7296   28.9630 O   0  0  0  0  0  0  0  0  0  0  0  0
  2  1  1  1
  2  7  1  0
  3  2  1  0
  4  3  1  0
  5  4  1  0
  6  5  2  0
  7  8  2  0
  9  5  1  0
 10 11  1  0
 12 11  1  0
 12 14  1  0
 12 13  1  1
 14 15  1  6
 15  7  1  0
 16 17  2  0
 16 14  1  0
 18 16  1  0
 19 18  1  0
 19 23  1  0
 19 20  1  6
 21 20  1  0
 21 22  2  0
 23 26  1  0
 24 23  2  0
 25 21  1  0
M  END
$$$$
