EID.pdb
     RDKit          3D

 26 25  0  0  1  0  0  0  0  0999 V2000
    8.8125  -15.2589   19.7828 N   0  0  0  0  0  0  0  0  0  0  0  0
    8.0666  -15.6710   20.9293 C   0  0  1  0  0  0  0  0  0  0  0  0
    7.7884  -17.1443   20.9747 C   0  0  0  0  0  0  0  0  0  0  0  0
    7.1778  -17.5779   19.6653 C   0  0  0  0  0  0  0  0  0  0  0  0
    6.7122  -18.9891   19.7126 C   0  0  0  0  0  0  0  0  0  0  0  0
    6.8855  -19.7438   20.7008 O   0  0  0  0  0  0  0  0  0  0  0  0
    8.6529  -15.1621   22.1954 C   0  0  0  0  0  0  0  0  0  0  0  0
    9.9048  -15.0512   22.2476 O   0  0  0  0  0  0  0  0  0  0  0  0
    6.0529  -19.4680   18.5858 O   0  0  0  0  0  0  0  0  0  0  0  0
    7.3543  -11.6959   27.1474 C   0  0  0  0  0  0  0  0  0  0  0  0
    8.2094  -12.7168   26.4639 C   0  0  0  0  0  0  0  0  0  0  0  0
    7.5371  -13.3168   25.2338 C   0  0  2  0  0  0  0  0  0  0  0  0
    6.2764  -14.0484   25.6396 C   0  0  0  0  0  0  0  0  0  0  0  0
    8.4594  -14.3027   24.5724 C   0  0  2  0  0  0  0  0  0  0  0  0
    7.8997  -14.8027   23.3225 N   0  0  0  0  0  0  0  0  0  0  0  0
    8.7524  -15.4770   25.4013 C   0  0  0  0  0  0  0  0  0  0  0  0
    7.8889  -16.3852   25.4760 O   0  0  0  0  0  0  0  0  0  0  0  0
    9.9544  -15.6612   26.1320 N   0  0  0  0  0  0  0  0  0  0  0  0
   10.2833  -16.9480   26.7831 C   0  0  1  0  0  0  0  0  0  0  0  0
   11.6888  -17.3445   26.3853 C   0  0  0  0  0  0  0  0  0  0  0  0
   11.7420  -18.3195   25.2750 C   0  0  0  0  0  0  0  0  0  0  0  0
   10.7554  -18.8033   24.6797 O   0  0  0  0  0  0  0  0  0  0  0  0
   10.2010  -16.7043   28.2614 C   0  0  0  0  0  0  0  0  0  0  0  0
   10.1541  -17.7155   29.0421 O   0  0  0  0  0  0  0  0  0  0  0  0
   12.9963  -18.7675   24.8185 O   0  0  0  0  0  0  0  0  0  0  0  0
   10.1724  -15.4622   28.8480 O   0  0  0  0  0  0  0  0  0  0  0  0
  2  1  1  6
  2  7  1  0
  3  2  1  0
  4  3  1  0
  5  4  1  0
  6  5  2  0
  7  8  2  0
  9  5  1  0
 10 11  1  0
 12 11  1  0
 12 14  1  0
 12 13  1  1
 14 15  1  6
 15  7  1  0
 16 17  2  0
 16 14  1  0
 18 16  1  0
 19 18  1  0
 19 23  1  0
 19 20  1  1
 21 20  1  0
 21 22  2  0
 23 26  1  0
 24 23  2  0
 25 21  1  0
M  END
$$$$
