KMQ.pdb
     RDKit          3D

 27 26  0  0  1  0  0  0  0  0999 V2000
    7.1655  -15.9370   21.1019 N   0  0  0  0  0  0  0  0  0  0  0  0
    8.4507  -15.3267   20.9024 C   0  0  1  0  0  0  0  0  0  0  0  0
    8.4505  -14.1532   19.9859 C   0  0  0  0  0  0  0  0  0  0  0  0
    8.0878  -14.4680   18.5783 C   0  0  0  0  0  0  0  0  0  0  0  0
    8.5879  -13.5231   17.5433 C   0  0  0  0  0  0  0  0  0  0  0  0
    8.0182  -13.9610   16.1899 C   0  0  0  0  0  0  0  0  0  0  0  0
    8.4507  -12.9760   15.2173 N   0  0  0  0  0  0  0  0  0  0  0  0
    8.9792  -14.9228   22.2386 C   0  0  0  0  0  0  0  0  0  0  0  0
   10.1049  -14.3523   22.2569 O   0  0  0  0  0  0  0  0  0  0  0  0
    6.2794  -12.0419   27.2097 C   0  0  0  0  0  0  0  0  0  0  0  0
    5.8843  -11.9666   25.4560 S   0  0  0  0  0  0  0  0  0  0  0  0
    6.9161  -13.1368   24.5300 C   0  0  0  0  0  0  0  0  0  0  0  0
    7.8614  -13.8724   25.4438 C   0  0  0  0  0  0  0  0  0  0  0  0
    8.7387  -14.8515   24.7094 C   0  0  2  0  0  0  0  0  0  0  0  0
    8.2324  -15.1803   23.4063 N   0  0  0  0  0  0  0  0  0  0  0  0
    8.9202  -16.1182   25.5039 C   0  0  0  0  0  0  0  0  0  0  0  0
    9.0148  -16.0929   26.7521 O   0  0  0  0  0  0  0  0  0  0  0  0
   12.3793  -18.1380   21.6331 N   0  0  0  0  0  0  0  0  0  0  0  0
   13.1763  -18.2663   22.8000 C   0  0  0  0  0  0  0  0  0  0  0  0
   14.3489  -18.7219   22.6625 O   0  0  0  0  0  0  0  0  0  0  0  0
   12.6432  -17.8785   24.1278 C   0  0  0  0  0  0  0  0  0  0  0  0
   11.2529  -17.3669   24.0745 C   0  0  0  0  0  0  0  0  0  0  0  0
   10.2531  -18.1143   24.9325 C   0  0  2  0  0  0  0  0  0  0  0  0
    8.9895  -17.3742   24.8685 N   0  0  0  0  0  0  0  0  0  0  0  0
   10.6840  -18.0836   26.3421 C   0  0  0  0  0  0  0  0  0  0  0  0
   11.7528  -18.8398   26.7580 O   0  0  0  0  0  0  0  0  0  0  0  0
   10.0855  -17.3752   27.1675 O   0  0  0  0  0  0  0  0  0  0  0  0
  2  3  1  0
  2  1  1  1
  4  3  1  0
  5  4  1  0
  5  6  1  0
  6  7  1  0
  8  9  2  0
  8  2  1  0
 10 11  1  0
 11 12  1  0
 12 13  1  0
 14 13  1  1
 14 15  1  0
 15  8  1  0
 16 17  2  0
 16 14  1  0
 18 19  1  0
 19 20  2  0
 21 19  1  0
 21 22  1  0
 23 22  1  6
 23 24  1  0
 24 16  1  0
 25 23  1  0
 26 25  1  0
 27 25  2  0
M  END
$$$$
