KMQ.pdb
     RDKit          3D

 27 26  0  0  1  0  0  0  0  0999 V2000
    9.3654  -15.7454   19.3586 N   0  0  0  0  0  0  0  0  0  0  0  0
    8.2965  -15.9330   20.3001 C   0  0  1  0  0  0  0  0  0  0  0  0
    7.7052  -17.2994   20.3109 C   0  0  0  0  0  0  0  0  0  0  0  0
    8.6917  -18.3988   20.4844 C   0  0  0  0  0  0  0  0  0  0  0  0
    8.1705  -19.7825   20.3179 C   0  0  0  0  0  0  0  0  0  0  0  0
    9.3388  -20.7539   20.5163 C   0  0  0  0  0  0  0  0  0  0  0  0
    8.7899  -22.0924   20.4137 N   0  0  0  0  0  0  0  0  0  0  0  0
    8.8173  -15.5982   21.6582 C   0  0  0  0  0  0  0  0  0  0  0  0
   10.0454  -15.8039   21.8636 O   0  0  0  0  0  0  0  0  0  0  0  0
    5.4977  -12.1004   26.9055 C   0  0  0  0  0  0  0  0  0  0  0  0
    7.2913  -12.1426   26.7694 S   0  0  0  0  0  0  0  0  0  0  0  0
    7.8384  -13.7745   26.1960 C   0  0  0  0  0  0  0  0  0  0  0  0
    7.3789  -14.0396   24.7859 C   0  0  0  0  0  0  0  0  0  0  0  0
    8.4334  -14.7101   23.9454 C   0  0  2  0  0  0  0  0  0  0  0  0
    7.9529  -15.0783   22.6431 N   0  0  0  0  0  0  0  0  0  0  0  0
    8.9797  -15.9326   24.6353 C   0  0  0  0  0  0  0  0  0  0  0  0
    8.3643  -17.0225   24.6071 O   0  0  0  0  0  0  0  0  0  0  0  0
   14.4474  -16.6805   24.0779 N   0  0  0  0  0  0  0  0  0  0  0  0
   13.7577  -17.8991   23.8481 C   0  0  0  0  0  0  0  0  0  0  0  0
   14.1912  -18.6545   22.9300 O   0  0  0  0  0  0  0  0  0  0  0  0
   12.5721  -18.2631   24.6601 C   0  0  0  0  0  0  0  0  0  0  0  0
   12.1811  -17.2127   25.6302 C   0  0  0  0  0  0  0  0  0  0  0  0
   10.6999  -17.1308   25.9363 C   0  0  2  0  0  0  0  0  0  0  0  0
   10.2020  -15.8900   25.3353 N   0  0  0  0  0  0  0  0  0  0  0  0
   10.4975  -17.0007   27.3908 C   0  0  0  0  0  0  0  0  0  0  0  0
   10.7916  -18.0486   28.2292 O   0  0  0  0  0  0  0  0  0  0  0  0
   10.0588  -15.9442   27.8728 O   0  0  0  0  0  0  0  0  0  0  0  0
  2  3  1  0
  2  1  1  6
  4  3  1  0
  5  4  1  0
  5  6  1  0
  6  7  1  0
  8  9  2  0
  8  2  1  0
 10 11  1  0
 11 12  1  0
 12 13  1  0
 14 13  1  1
 14 15  1  0
 15  8  1  0
 16 17  2  0
 16 14  1  0
 18 19  1  0
 19 20  2  0
 21 19  1  0
 21 22  1  0
 23 22  1  1
 23 24  1  0
 24 16  1  0
 25 23  1  0
 26 25  1  0
 27 25  2  0
M  END
$$$$
