KMQ.pdb
     RDKit          3D

 27 26  0  0  1  0  0  0  0  0999 V2000
    7.9724  -16.9121   20.7650 N   0  0  0  0  0  0  0  0  0  0  0  0
    9.3841  -16.7341   20.9643 C   0  0  1  0  0  0  0  0  0  0  0  0
   10.0872  -16.0254   19.8595 C   0  0  0  0  0  0  0  0  0  0  0  0
   10.0016  -16.7018   18.5377 C   0  0  0  0  0  0  0  0  0  0  0  0
   11.2390  -17.3794   18.0645 C   0  0  0  0  0  0  0  0  0  0  0  0
   10.9065  -18.1120   16.7603 C   0  0  0  0  0  0  0  0  0  0  0  0
   12.1165  -18.7961   16.3465 N   0  0  0  0  0  0  0  0  0  0  0  0
    9.5766  -15.9900   22.2437 C   0  0  0  0  0  0  0  0  0  0  0  0
   10.7606  -15.6744   22.5461 O   0  0  0  0  0  0  0  0  0  0  0  0
    6.9330  -10.9250   26.8386 C   0  0  0  0  0  0  0  0  0  0  0  0
    6.2512  -12.5698   26.5798 S   0  0  0  0  0  0  0  0  0  0  0  0
    7.5780  -13.7447   26.1918 C   0  0  0  0  0  0  0  0  0  0  0  0
    7.4485  -14.2691   24.7854 C   0  0  0  0  0  0  0  0  0  0  0  0
    8.6336  -15.0950   24.3596 C   0  0  2  0  0  0  0  0  0  0  0  0
    8.4682  -15.6698   23.0540 N   0  0  0  0  0  0  0  0  0  0  0  0
    8.9133  -16.1931   25.3520 C   0  0  0  0  0  0  0  0  0  0  0  0
    8.0317  -17.0257   25.6634 O   0  0  0  0  0  0  0  0  0  0  0  0
   13.2312  -20.0325   23.5706 N   0  0  0  0  0  0  0  0  0  0  0  0
   13.0851  -19.2311   24.7326 C   0  0  0  0  0  0  0  0  0  0  0  0
   14.1074  -19.0580   25.4582 O   0  0  0  0  0  0  0  0  0  0  0  0
   11.7764  -18.6247   25.0748 C   0  0  0  0  0  0  0  0  0  0  0  0
   11.7229  -18.0864   26.4549 C   0  0  0  0  0  0  0  0  0  0  0  0
   10.4037  -17.4594   26.8562 C   0  0  2  0  0  0  0  0  0  0  0  0
   10.1770  -16.3197   25.9627 N   0  0  0  0  0  0  0  0  0  0  0  0
   10.5080  -16.9071   28.2191 C   0  0  0  0  0  0  0  0  0  0  0  0
   10.5639  -15.5485   28.4153 O   0  0  0  0  0  0  0  0  0  0  0  0
   10.5471  -17.6631   29.2030 O   0  0  0  0  0  0  0  0  0  0  0  0
  2  3  1  0
  2  1  1  6
  4  3  1  0
  5  4  1  0
  5  6  1  0
  6  7  1  0
  8  9  2  0
  8  2  1  0
 10 11  1  0
 11 12  1  0
 12 13  1  0
 14 13  1  1
 14 15  1  0
 15  8  1  0
 16 17  2  0
 16 14  1  0
 18 19  1  0
 19 20  2  0
 21 19  1  0
 21 22  1  0
 23 22  1  6
 23 24  1  0
 24 16  1  0
 25 23  1  0
 26 25  1  0
 27 25  2  0
M  END
$$$$
