KMQ.pdb
     RDKit          3D

 27 26  0  0  1  0  0  0  0  0999 V2000
    7.7739  -18.0783   18.1600 N   0  0  0  0  0  0  0  0  0  0  0  0
    9.1810  -17.9910   17.8837 C   0  0  1  0  0  0  0  0  0  0  0  0
    9.5216  -17.6387   16.4777 C   0  0  0  0  0  0  0  0  0  0  0  0
    8.3821  -17.1153   15.6779 C   0  0  0  0  0  0  0  0  0  0  0  0
    8.6765  -16.7715   14.2605 C   0  0  0  0  0  0  0  0  0  0  0  0
    7.4316  -16.1020   13.6689 C   0  0  0  0  0  0  0  0  0  0  0  0
    7.6976  -15.9008   12.2575 N   0  0  0  0  0  0  0  0  0  0  0  0
    9.7694  -16.9821   18.8130 C   0  0  0  0  0  0  0  0  0  0  0  0
   11.0110  -16.7764   18.7180 O   0  0  0  0  0  0  0  0  0  0  0  0
    6.7791  -12.3818   22.6021 C   0  0  0  0  0  0  0  0  0  0  0  0
    7.1989  -11.9921   20.8965 S   0  0  0  0  0  0  0  0  0  0  0  0
    8.2690  -13.2829   20.2035 C   0  0  0  0  0  0  0  0  0  0  0  0
    8.5027  -14.3900   21.1982 C   0  0  0  0  0  0  0  0  0  0  0  0
    9.5025  -15.4070   20.7145 C   0  0  2  0  0  0  0  0  0  0  0  0
    8.9505  -16.3077   19.7415 N   0  0  0  0  0  0  0  0  0  0  0  0
   10.0646  -16.2031   21.8630 C   0  0  0  0  0  0  0  0  0  0  0  0
    9.5239  -17.2674   22.2404 O   0  0  0  0  0  0  0  0  0  0  0  0
   16.0434  -15.7007   23.6789 N   0  0  0  0  0  0  0  0  0  0  0  0
   15.5814  -16.7925   24.4587 C   0  0  0  0  0  0  0  0  0  0  0  0
   16.4197  -17.3760   25.2059 O   0  0  0  0  0  0  0  0  0  0  0  0
   14.1655  -17.2260   24.3912 C   0  0  0  0  0  0  0  0  0  0  0  0
   13.3389  -16.3899   23.4883 C   0  0  0  0  0  0  0  0  0  0  0  0
   11.8593  -16.7141   23.4771 C   0  0  2  0  0  0  0  0  0  0  0  0
   11.2180  -15.7762   22.5509 N   0  0  0  0  0  0  0  0  0  0  0  0
   11.2805  -16.4492   24.8068 C   0  0  0  0  0  0  0  0  0  0  0  0
   11.4042  -17.3746   25.8148 O   0  0  0  0  0  0  0  0  0  0  0  0
   10.6750  -15.3886   25.0294 O   0  0  0  0  0  0  0  0  0  0  0  0
  2  3  1  0
  2  1  1  6
  4  3  1  0
  5  4  1  0
  5  6  1  0
  6  7  1  0
  8  9  2  0
  8  2  1  0
 10 11  1  0
 11 12  1  0
 12 13  1  0
 14 13  1  1
 14 15  1  0
 15  8  1  0
 16 17  2  0
 16 14  1  0
 18 19  1  0
 19 20  2  0
 21 19  1  0
 21 22  1  0
 23 22  1  1
 23 24  1  0
 24 16  1  0
 25 23  1  0
 26 25  1  0
 27 25  2  0
M  END
$$$$
