KMQ.pdb
     RDKit          3D

 27 26  0  0  1  0  0  0  0  0999 V2000
    7.4392  -16.1568   20.8549 N   0  0  0  0  0  0  0  0  0  0  0  0
    8.7037  -15.4749   20.8495 C   0  0  1  0  0  0  0  0  0  0  0  0
    8.7228  -14.1985   20.0830 C   0  0  0  0  0  0  0  0  0  0  0  0
    8.1673  -14.2954   18.7067 C   0  0  0  0  0  0  0  0  0  0  0  0
    8.6147  -13.2543   17.7422 C   0  0  0  0  0  0  0  0  0  0  0  0
    7.9061  -13.5114   16.4081 C   0  0  0  0  0  0  0  0  0  0  0  0
    8.3086  -12.4457   15.5104 N   0  0  0  0  0  0  0  0  0  0  0  0
    9.0922  -15.2174   22.2674 C   0  0  0  0  0  0  0  0  0  0  0  0
   10.2165  -14.6776   22.4606 O   0  0  0  0  0  0  0  0  0  0  0  0
    7.2285  -11.4262   27.3286 C   0  0  0  0  0  0  0  0  0  0  0  0
    6.1965  -12.3006   26.1422 S   0  0  0  0  0  0  0  0  0  0  0  0
    7.2307  -13.2257   24.9735 C   0  0  0  0  0  0  0  0  0  0  0  0
    7.4692  -14.6341   25.4525 C   0  0  0  0  0  0  0  0  0  0  0  0
    8.5667  -15.3306   24.6919 C   0  0  2  0  0  0  0  0  0  0  0  0
    8.2224  -15.5719   23.3187 N   0  0  0  0  0  0  0  0  0  0  0  0
    8.9353  -16.6361   25.3466 C   0  0  0  0  0  0  0  0  0  0  0  0
    8.1967  -17.6422   25.2481 O   0  0  0  0  0  0  0  0  0  0  0  0
   14.8471  -19.1849   26.6439 N   0  0  0  0  0  0  0  0  0  0  0  0
   13.7605  -20.0032   26.2399 C   0  0  0  0  0  0  0  0  0  0  0  0
   14.0132  -20.9776   25.4730 O   0  0  0  0  0  0  0  0  0  0  0  0
   12.3825  -19.7164   26.7050 C   0  0  0  0  0  0  0  0  0  0  0  0
   11.8345  -18.4482   26.1674 C   0  0  0  0  0  0  0  0  0  0  0  0
   10.4471  -18.0831   26.6535 C   0  0  2  0  0  0  0  0  0  0  0  0
   10.1241  -16.7683   26.0917 N   0  0  0  0  0  0  0  0  0  0  0  0
   10.4589  -17.9195   28.1186 C   0  0  0  0  0  0  0  0  0  0  0  0
   10.6439  -19.0072   28.9372 O   0  0  0  0  0  0  0  0  0  0  0  0
   10.3011  -16.7983   28.6277 O   0  0  0  0  0  0  0  0  0  0  0  0
  2  3  1  0
  2  1  1  1
  4  3  1  0
  5  4  1  0
  5  6  1  0
  6  7  1  0
  8  9  2  0
  8  2  1  0
 10 11  1  0
 11 12  1  0
 12 13  1  0
 14 13  1  1
 14 15  1  0
 15  8  1  0
 16 17  2  0
 16 14  1  0
 18 19  1  0
 19 20  2  0
 21 19  1  0
 21 22  1  0
 23 22  1  6
 23 24  1  0
 24 16  1  0
 25 23  1  0
 26 25  1  0
 27 25  2  0
M  END
$$$$
