KMQ.pdb
     RDKit          3D

 27 26  0  0  1  0  0  0  0  0999 V2000
    8.4322  -15.1232   19.4354 N   0  0  0  0  0  0  0  0  0  0  0  0
    7.5394  -15.4273   20.5191 C   0  0  1  0  0  0  0  0  0  0  0  0
    6.9578  -16.7975   20.4847 C   0  0  0  0  0  0  0  0  0  0  0  0
    6.9867  -17.4481   19.1476 C   0  0  0  0  0  0  0  0  0  0  0  0
    6.2615  -18.7421   19.0300 C   0  0  0  0  0  0  0  0  0  0  0  0
    6.4639  -19.2688   17.6054 C   0  0  0  0  0  0  0  0  0  0  0  0
    5.6623  -20.4717   17.4880 N   0  0  0  0  0  0  0  0  0  0  0  0
    8.2842  -15.2276   21.7970 C   0  0  0  0  0  0  0  0  0  0  0  0
    9.5360  -15.3836   21.7568 O   0  0  0  0  0  0  0  0  0  0  0  0
    6.3748  -12.3284   27.5391 C   0  0  0  0  0  0  0  0  0  0  0  0
    6.4371  -11.4054   25.9959 S   0  0  0  0  0  0  0  0  0  0  0  0
    7.1522  -12.4303   24.6808 C   0  0  0  0  0  0  0  0  0  0  0  0
    7.4642  -13.8175   25.1788 C   0  0  0  0  0  0  0  0  0  0  0  0
    8.2896  -14.6151   24.2038 C   0  0  2  0  0  0  0  0  0  0  0  0
    7.5933  -14.8816   22.9763 N   0  0  0  0  0  0  0  0  0  0  0  0
    8.7371  -15.9184   24.8120 C   0  0  0  0  0  0  0  0  0  0  0  0
    7.9617  -16.8984   24.8886 O   0  0  0  0  0  0  0  0  0  0  0  0
   14.3559  -18.8764   24.9810 N   0  0  0  0  0  0  0  0  0  0  0  0
   13.3549  -19.1472   24.0124 C   0  0  0  0  0  0  0  0  0  0  0  0
   13.6662  -19.8954   23.0404 O   0  0  0  0  0  0  0  0  0  0  0  0
   11.9969  -18.5677   24.1443 C   0  0  0  0  0  0  0  0  0  0  0  0
   11.8649  -17.6388   25.2920 C   0  0  0  0  0  0  0  0  0  0  0  0
   10.4498  -17.4073   25.7801 C   0  0  2  0  0  0  0  0  0  0  0  0
   10.0438  -16.0779   25.3150 N   0  0  0  0  0  0  0  0  0  0  0  0
   10.4322  -17.3575   27.2534 C   0  0  0  0  0  0  0  0  0  0  0  0
   10.6054  -18.5048   27.9890 O   0  0  0  0  0  0  0  0  0  0  0  0
   10.2600  -16.2794   27.8443 O   0  0  0  0  0  0  0  0  0  0  0  0
  2  3  1  0
  2  1  1  6
  4  3  1  0
  5  4  1  0
  5  6  1  0
  6  7  1  0
  8  9  2  0
  8  2  1  0
 10 11  1  0
 11 12  1  0
 12 13  1  0
 14 13  1  1
 14 15  1  0
 15  8  1  0
 16 17  2  0
 16 14  1  0
 18 19  1  0
 19 20  2  0
 21 19  1  0
 21 22  1  0
 23 22  1  1
 23 24  1  0
 24 16  1  0
 25 23  1  0
 26 25  1  0
 27 25  2  0
M  END
$$$$
