IHE.pdb
     RDKit          3D

 28 28  0  0  1  0  0  0  0  0999 V2000
    8.6650  -12.5297   27.7309 C   0  0  0  0  0  0  0  0  0  0  0  0
    7.8414  -13.4854   26.9448 C   0  0  0  0  0  0  0  0  0  0  0  0
    7.1357  -12.8626   25.7804 C   0  0  2  0  0  0  0  0  0  0  0  0
    6.1988  -11.8038   26.2825 C   0  0  0  0  0  0  0  0  0  0  0  0
    6.4693  -13.9372   24.9494 C   0  0  2  0  0  0  0  0  0  0  0  0
    5.8217  -14.8441   25.9427 N   0  0  0  0  0  0  0  0  0  0  0  0
    7.5098  -14.7890   24.3248 C   0  0  0  0  0  0  0  0  0  0  0  0
    7.7539  -15.9067   24.7662 O   0  0  0  0  0  0  0  0  0  0  0  0
    8.2863  -14.3946   23.1888 N   0  0  0  0  0  0  0  0  0  0  0  0
    9.2929  -15.1511   22.5550 C   0  0  1  0  0  0  0  0  0  0  0  0
    9.9189  -14.5988   21.3292 C   0  0  0  0  0  0  0  0  0  0  0  0
    8.8980  -14.4146   20.2466 C   0  0  0  0  0  0  0  0  0  0  0  0
    7.5632  -14.7666   20.3072 C   0  0  0  0  0  0  0  0  0  0  0  0
    6.9335  -14.4593   19.1588 N   0  0  0  0  0  0  0  0  0  0  0  0
    7.8739  -13.9016   18.3447 C   0  0  0  0  0  0  0  0  0  0  0  0
    9.0539  -13.8781   19.0062 N   0  0  0  0  0  0  0  0  0  0  0  0
   10.3341  -15.5509   23.5298 C   0  0  0  0  0  0  0  0  0  0  0  0
   10.9514  -14.7640   24.2649 O   0  0  0  0  0  0  0  0  0  0  0  0
   10.6806  -16.9368   23.6612 N   0  0  0  0  0  0  0  0  0  0  0  0
   11.6795  -17.4097   24.6393 C   0  0  1  0  0  0  0  0  0  0  0  0
   10.9862  -18.4494   25.4671 C   0  0  0  0  0  0  0  0  0  0  0  0
   11.7596  -19.1642   26.4926 C   0  0  0  0  0  0  0  0  0  0  0  0
   11.0184  -20.1702   27.2432 C   0  0  0  0  0  0  0  0  0  0  0  0
    9.7972  -20.3825   26.9948 O   0  0  0  0  0  0  0  0  0  0  0  0
   12.9387  -17.7328   24.0188 C   0  0  0  0  0  0  0  0  0  0  0  0
   12.9788  -18.0462   22.7870 O   0  0  0  0  0  0  0  0  0  0  0  0
   11.6319  -20.9206   28.2398 O   0  0  0  0  0  0  0  0  0  0  0  0
   14.1480  -17.7166   24.6925 O   0  0  0  0  0  0  0  0  0  0  0  0
  2  1  1  0
  3  2  1  0
  3  4  1  1
  5  7  1  0
  5  3  1  0
  5  6  1  1
  7  8  2  0
  9 10  1  0
  9  7  1  0
 10 11  1  6
 11 12  1  0
 12 13  2  0
 13 14  1  0
 15 14  1  0
 16 12  1  0
 16 15  2  0
 17 19  1  0
 17 10  1  0
 18 17  2  0
 20 19  1  0
 20 21  1  6
 22 21  1  0
 22 23  1  0
 23 24  2  0
 25 20  1  0
 26 25  2  0
 27 23  1  0
 28 25  1  0
M  END
$$$$
