IHE.pdb
     RDKit          3D

 28 28  0  0  1  0  0  0  0  0999 V2000
   16.5801  -17.5763   16.2455 C   0  0  0  0  0  0  0  0  0  0  0  0
   15.8296  -16.3065   16.0607 C   0  0  0  0  0  0  0  0  0  0  0  0
   14.7793  -16.0662   17.1004 C   0  0  2  0  0  0  0  0  0  0  0  0
   13.9105  -17.2842   17.2122 C   0  0  0  0  0  0  0  0  0  0  0  0
   14.0251  -14.7932   16.7836 C   0  0  2  0  0  0  0  0  0  0  0  0
   15.0396  -13.7051   16.9084 N   0  0  0  0  0  0  0  0  0  0  0  0
   13.0678  -14.5057   17.8785 C   0  0  0  0  0  0  0  0  0  0  0  0
   13.4569  -14.3748   19.0340 O   0  0  0  0  0  0  0  0  0  0  0  0
   11.6575  -14.3554   17.6850 N   0  0  0  0  0  0  0  0  0  0  0  0
   10.6804  -14.2206   18.6922 C   0  0  1  0  0  0  0  0  0  0  0  0
    9.2778  -13.9704   18.2803 C   0  0  0  0  0  0  0  0  0  0  0  0
    8.3837  -13.8543   19.4782 C   0  0  0  0  0  0  0  0  0  0  0  0
    8.1422  -12.7111   20.2159 C   0  0  0  0  0  0  0  0  0  0  0  0
    7.2881  -12.9625   21.2244 N   0  0  0  0  0  0  0  0  0  0  0  0
    6.9735  -14.2861   21.1378 C   0  0  0  0  0  0  0  0  0  0  0  0
    7.6367  -14.8162   20.0845 N   0  0  0  0  0  0  0  0  0  0  0  0
   10.7447  -15.3615   19.6348 C   0  0  0  0  0  0  0  0  0  0  0  0
   10.7236  -16.5561   19.2986 O   0  0  0  0  0  0  0  0  0  0  0  0
   10.8380  -15.1065   21.0435 N   0  0  0  0  0  0  0  0  0  0  0  0
   10.8025  -16.1906   22.0442 C   0  0  1  0  0  0  0  0  0  0  0  0
   12.1955  -16.2963   22.5875 C   0  0  0  0  0  0  0  0  0  0  0  0
   12.4752  -17.3075   23.6170 C   0  0  0  0  0  0  0  0  0  0  0  0
   13.8696  -17.4061   24.0306 C   0  0  0  0  0  0  0  0  0  0  0  0
   14.1855  -17.2837   25.2485 O   0  0  0  0  0  0  0  0  0  0  0  0
    9.7011  -16.0488   22.9618 C   0  0  0  0  0  0  0  0  0  0  0  0
    9.3372  -17.0360   23.6760 O   0  0  0  0  0  0  0  0  0  0  0  0
   14.8795  -17.6413   23.1046 O   0  0  0  0  0  0  0  0  0  0  0  0
    8.9948  -14.8700   23.1300 O   0  0  0  0  0  0  0  0  0  0  0  0
  2  1  1  0
  3  2  1  0
  3  4  1  6
  5  7  1  0
  5  3  1  0
  5  6  1  1
  7  8  2  0
  9 10  1  0
  9  7  1  0
 10 11  1  6
 11 12  1  0
 12 13  2  0
 13 14  1  0
 15 14  1  0
 16 12  1  0
 16 15  2  0
 17 19  1  0
 17 10  1  0
 18 17  2  0
 20 19  1  0
 20 21  1  1
 22 21  1  0
 22 23  1  0
 23 24  2  0
 25 20  1  0
 26 25  2  0
 27 23  1  0
 28 25  1  0
M  END
$$$$
