IHE.pdb
     RDKit          3D

 28 28  0  0  1  0  0  0  0  0999 V2000
    6.0690  -11.6929   27.4132 C   0  0  0  0  0  0  0  0  0  0  0  0
    5.7191  -12.8260   26.5169 C   0  0  0  0  0  0  0  0  0  0  0  0
    6.8950  -13.4259   25.8105 C   0  0  2  0  0  0  0  0  0  0  0  0
    7.7402  -12.3250   25.2406 C   0  0  0  0  0  0  0  0  0  0  0  0
    6.4199  -14.4356   24.7887 C   0  0  2  0  0  0  0  0  0  0  0  0
    5.7415  -15.4992   25.5870 N   0  0  0  0  0  0  0  0  0  0  0  0
    7.5922  -15.1308   24.2053 C   0  0  0  0  0  0  0  0  0  0  0  0
    8.1174  -16.0729   24.7886 O   0  0  0  0  0  0  0  0  0  0  0  0
    8.1858  -14.7772   22.9516 N   0  0  0  0  0  0  0  0  0  0  0  0
    9.2136  -15.4722   22.2824 C   0  0  1  0  0  0  0  0  0  0  0  0
    9.6581  -14.9660   20.9612 C   0  0  0  0  0  0  0  0  0  0  0  0
    8.4838  -14.5440   20.1300 C   0  0  0  0  0  0  0  0  0  0  0  0
    8.3151  -13.3229   19.5055 C   0  0  0  0  0  0  0  0  0  0  0  0
    7.1457  -13.2810   18.8418 N   0  0  0  0  0  0  0  0  0  0  0  0
    6.5502  -14.4911   19.0401 C   0  0  0  0  0  0  0  0  0  0  0  0
    7.3614  -15.2459   19.8164 N   0  0  0  0  0  0  0  0  0  0  0  0
   10.3776  -15.6672   23.1775 C   0  0  0  0  0  0  0  0  0  0  0  0
   10.8856  -14.7772   23.8778 O   0  0  0  0  0  0  0  0  0  0  0  0
   10.9876  -16.9626   23.2672 N   0  0  0  0  0  0  0  0  0  0  0  0
   12.0003  -17.2871   24.2906 C   0  0  1  0  0  0  0  0  0  0  0  0
   11.2520  -17.9177   25.4260 C   0  0  0  0  0  0  0  0  0  0  0  0
   12.0089  -18.3779   26.5991 C   0  0  0  0  0  0  0  0  0  0  0  0
   11.2044  -18.9319   27.6812 C   0  0  0  0  0  0  0  0  0  0  0  0
   11.7602  -19.4117   28.7102 O   0  0  0  0  0  0  0  0  0  0  0  0
   13.1371  -17.9740   23.7330 C   0  0  0  0  0  0  0  0  0  0  0  0
   14.3125  -17.6687   24.1103 O   0  0  0  0  0  0  0  0  0  0  0  0
    9.8159  -18.9416   27.6127 O   0  0  0  0  0  0  0  0  0  0  0  0
   13.0326  -18.9821   22.7899 O   0  0  0  0  0  0  0  0  0  0  0  0
  2  1  1  0
  3  2  1  0
  3  4  1  6
  5  7  1  0
  5  3  1  0
  5  6  1  1
  7  8  2  0
  9 10  1  0
  9  7  1  0
 10 11  1  6
 11 12  1  0
 12 13  2  0
 13 14  1  0
 15 14  1  0
 16 12  1  0
 16 15  2  0
 17 19  1  0
 17 10  1  0
 18 17  2  0
 20 19  1  0
 20 21  1  1
 22 21  1  0
 22 23  1  0
 23 24  2  0
 25 20  1  0
 26 25  2  0
 27 23  1  0
 28 25  1  0
M  END
$$$$
