IHE.pdb
     RDKit          3D

 28 28  0  0  1  0  0  0  0  0999 V2000
    6.6559  -11.8576   27.5472 C   0  0  0  0  0  0  0  0  0  0  0  0
    6.1674  -12.8364   26.5408 C   0  0  0  0  0  0  0  0  0  0  0  0
    7.2377  -13.7292   25.9940 C   0  0  2  0  0  0  0  0  0  0  0  0
    8.4375  -12.8999   25.6424 C   0  0  0  0  0  0  0  0  0  0  0  0
    6.6883  -14.5443   24.8437 C   0  0  2  0  0  0  0  0  0  0  0  0
    5.6540  -15.4277   25.4589 N   0  0  0  0  0  0  0  0  0  0  0  0
    7.7264  -15.4944   24.3769 C   0  0  0  0  0  0  0  0  0  0  0  0
    8.0250  -16.4768   25.0473 O   0  0  0  0  0  0  0  0  0  0  0  0
    8.4388  -15.3535   23.1433 N   0  0  0  0  0  0  0  0  0  0  0  0
    9.4775  -16.1825   22.6730 C   0  0  1  0  0  0  0  0  0  0  0  0
    9.9061  -16.0376   21.2607 C   0  0  0  0  0  0  0  0  0  0  0  0
    8.7687  -16.3246   20.3269 C   0  0  0  0  0  0  0  0  0  0  0  0
    7.5035  -16.7535   20.6802 C   0  0  0  0  0  0  0  0  0  0  0  0
    6.7294  -16.9124   19.5914 N   0  0  0  0  0  0  0  0  0  0  0  0
    7.5047  -16.5822   18.5199 C   0  0  0  0  0  0  0  0  0  0  0  0
    8.7307  -16.2295   18.9703 N   0  0  0  0  0  0  0  0  0  0  0  0
   10.6490  -16.1111   23.5767 C   0  0  0  0  0  0  0  0  0  0  0  0
   11.2503  -15.0658   23.8706 O   0  0  0  0  0  0  0  0  0  0  0  0
   11.1529  -17.3148   24.1728 N   0  0  0  0  0  0  0  0  0  0  0  0
   12.3854  -17.3359   24.9842 C   0  0  1  0  0  0  0  0  0  0  0  0
   12.1101  -18.2639   26.1287 C   0  0  0  0  0  0  0  0  0  0  0  0
   10.9397  -18.0051   26.9795 C   0  0  0  0  0  0  0  0  0  0  0  0
   10.7129  -18.9792   28.0400 C   0  0  0  0  0  0  0  0  0  0  0  0
   10.6600  -20.2138   27.7738 O   0  0  0  0  0  0  0  0  0  0  0  0
   13.5628  -17.5439   24.1807 C   0  0  0  0  0  0  0  0  0  0  0  0
   13.4526  -17.9860   22.9935 O   0  0  0  0  0  0  0  0  0  0  0  0
   10.5561  -18.5792   29.3622 O   0  0  0  0  0  0  0  0  0  0  0  0
   14.8468  -17.2785   24.6252 O   0  0  0  0  0  0  0  0  0  0  0  0
  2  1  1  0
  3  2  1  0
  3  4  1  6
  5  7  1  0
  5  3  1  0
  5  6  1  1
  7  8  2  0
  9 10  1  0
  9  7  1  0
 10 11  1  6
 11 12  1  0
 12 13  2  0
 13 14  1  0
 15 14  1  0
 16 12  1  0
 16 15  2  0
 17 19  1  0
 17 10  1  0
 18 17  2  0
 20 19  1  0
 20 21  1  1
 22 21  1  0
 22 23  1  0
 23 24  2  0
 25 20  1  0
 26 25  2  0
 27 23  1  0
 28 25  1  0
M  END
$$$$
