IHE.pdb
     RDKit          3D

 28 28  0  0  1  0  0  0  0  0999 V2000
    6.5648  -11.7803   27.7650 C   0  0  0  0  0  0  0  0  0  0  0  0
    6.0498  -12.6688   26.6903 C   0  0  0  0  0  0  0  0  0  0  0  0
    7.1190  -13.4246   25.9641 C   0  0  2  0  0  0  0  0  0  0  0  0
    8.1705  -12.4618   25.4968 C   0  0  0  0  0  0  0  0  0  0  0  0
    6.5015  -14.2534   24.8591 C   0  0  2  0  0  0  0  0  0  0  0  0
    5.6769  -15.2792   25.5638 N   0  0  0  0  0  0  0  0  0  0  0  0
    7.5601  -15.0517   24.1956 C   0  0  0  0  0  0  0  0  0  0  0  0
    7.8992  -16.1411   24.6451 O   0  0  0  0  0  0  0  0  0  0  0  0
    8.2479  -14.6354   23.0113 N   0  0  0  0  0  0  0  0  0  0  0  0
    9.2913  -15.3234   22.3593 C   0  0  1  0  0  0  0  0  0  0  0  0
    9.8134  -14.7652   21.0883 C   0  0  0  0  0  0  0  0  0  0  0  0
    8.7044  -14.5651   20.0993 C   0  0  0  0  0  0  0  0  0  0  0  0
    7.3744  -14.8946   20.2779 C   0  0  0  0  0  0  0  0  0  0  0  0
    6.6513  -14.5781   19.1886 N   0  0  0  0  0  0  0  0  0  0  0  0
    7.5256  -14.0371   18.2935 C   0  0  0  0  0  0  0  0  0  0  0  0
    8.7594  -14.0327   18.8486 N   0  0  0  0  0  0  0  0  0  0  0  0
   10.4040  -15.5920   23.2994 C   0  0  0  0  0  0  0  0  0  0  0  0
   10.7870  -14.8071   24.1814 O   0  0  0  0  0  0  0  0  0  0  0  0
   11.1126  -16.8365   23.2146 N   0  0  0  0  0  0  0  0  0  0  0  0
   12.0098  -17.3069   24.2879 C   0  0  1  0  0  0  0  0  0  0  0  0
   11.1210  -17.6712   25.4385 C   0  0  0  0  0  0  0  0  0  0  0  0
   11.7250  -18.2924   26.6259 C   0  0  0  0  0  0  0  0  0  0  0  0
   10.7985  -18.5951   27.7099 C   0  0  0  0  0  0  0  0  0  0  0  0
    9.5622  -18.3671   27.5769 O   0  0  0  0  0  0  0  0  0  0  0  0
   12.9703  -18.2691   23.8119 C   0  0  0  0  0  0  0  0  0  0  0  0
   14.0593  -18.4469   24.4440 O   0  0  0  0  0  0  0  0  0  0  0  0
   11.2461  -19.1435   28.9064 O   0  0  0  0  0  0  0  0  0  0  0  0
   12.7779  -19.0445   22.6812 O   0  0  0  0  0  0  0  0  0  0  0  0
  2  1  1  0
  3  2  1  0
  3  4  1  6
  5  7  1  0
  5  3  1  0
  5  6  1  1
  7  8  2  0
  9 10  1  0
  9  7  1  0
 10 11  1  6
 11 12  1  0
 12 13  2  0
 13 14  1  0
 15 14  1  0
 16 12  1  0
 16 15  2  0
 17 19  1  0
 17 10  1  0
 18 17  2  0
 20 19  1  0
 20 21  1  1
 22 21  1  0
 22 23  1  0
 23 24  2  0
 25 20  1  0
 26 25  2  0
 27 23  1  0
 28 25  1  0
M  END
$$$$
