IHE.pdb
     RDKit          3D

 28 28  0  0  1  0  0  0  0  0999 V2000
    6.7320  -12.2717   18.4490 C   0  0  0  0  0  0  0  0  0  0  0  0
    7.6744  -13.4007   18.6657 C   0  0  0  0  0  0  0  0  0  0  0  0
    7.9255  -13.7126   20.1084 C   0  0  2  0  0  0  0  0  0  0  0  0
    8.5175  -12.5066   20.7762 C   0  0  0  0  0  0  0  0  0  0  0  0
    8.7698  -14.9629   20.2240 C   0  0  2  0  0  0  0  0  0  0  0  0
    7.9344  -16.0466   19.6268 N   0  0  0  0  0  0  0  0  0  0  0  0
    8.8776  -15.3510   21.6508 C   0  0  0  0  0  0  0  0  0  0  0  0
    9.6342  -14.7531   22.4083 O   0  0  0  0  0  0  0  0  0  0  0  0
    8.1284  -16.4158   22.2458 N   0  0  0  0  0  0  0  0  0  0  0  0
    8.2913  -16.9335   23.5469 C   0  0  1  0  0  0  0  0  0  0  0  0
    7.1467  -17.6427   24.1684 C   0  0  0  0  0  0  0  0  0  0  0  0
    7.5000  -18.1197   25.5452 C   0  0  0  0  0  0  0  0  0  0  0  0
    7.7565  -17.3284   26.6486 C   0  0  0  0  0  0  0  0  0  0  0  0
    8.0407  -18.0837   27.7250 N   0  0  0  0  0  0  0  0  0  0  0  0
    7.9673  -19.3807   27.3118 C   0  0  0  0  0  0  0  0  0  0  0  0
    7.6415  -19.3945   25.9988 N   0  0  0  0  0  0  0  0  0  0  0  0
    9.5160  -17.7630   23.6267 C   0  0  0  0  0  0  0  0  0  0  0  0
    9.7356  -18.7653   22.9283 O   0  0  0  0  0  0  0  0  0  0  0  0
   10.5427  -17.4142   24.5661 N   0  0  0  0  0  0  0  0  0  0  0  0
   11.6699  -18.3163   24.8720 C   0  0  1  0  0  0  0  0  0  0  0  0
   12.9145  -17.5445   24.5524 C   0  0  0  0  0  0  0  0  0  0  0  0
   13.1783  -17.1817   23.1526 C   0  0  0  0  0  0  0  0  0  0  0  0
   14.4431  -16.4972   22.9143 C   0  0  0  0  0  0  0  0  0  0  0  0
   14.7042  -15.4115   23.5067 O   0  0  0  0  0  0  0  0  0  0  0  0
   11.5395  -18.9304   26.1685 C   0  0  0  0  0  0  0  0  0  0  0  0
   12.3492  -19.8444   26.5237 O   0  0  0  0  0  0  0  0  0  0  0  0
   15.3901  -17.0196   22.0407 O   0  0  0  0  0  0  0  0  0  0  0  0
   10.5660  -18.5754   27.0867 O   0  0  0  0  0  0  0  0  0  0  0  0
  2  1  1  0
  3  2  1  0
  3  4  1  6
  5  7  1  0
  5  3  1  0
  5  6  1  6
  7  8  2  0
  9 10  1  0
  9  7  1  0
 10 11  1  6
 11 12  1  0
 12 13  2  0
 13 14  1  0
 15 14  1  0
 16 12  1  0
 16 15  2  0
 17 19  1  0
 17 10  1  0
 18 17  2  0
 20 19  1  0
 20 21  1  1
 22 21  1  0
 22 23  1  0
 23 24  2  0
 25 20  1  0
 26 25  2  0
 27 23  1  0
 28 25  1  0
M  END
$$$$
