IHE.pdb
     RDKit          3D

 28 28  0  0  1  0  0  0  0  0999 V2000
    6.8296  -11.9913   19.4088 C   0  0  0  0  0  0  0  0  0  0  0  0
    6.9534  -13.3820   19.9191 C   0  0  0  0  0  0  0  0  0  0  0  0
    8.2143  -13.6368   20.6852 C   0  0  2  0  0  0  0  0  0  0  0  0
    9.3926  -13.3276   19.8095 C   0  0  0  0  0  0  0  0  0  0  0  0
    8.2040  -15.0457   21.2369 C   0  0  2  0  0  0  0  0  0  0  0  0
    6.7598  -15.4146   21.3203 N   0  0  0  0  0  0  0  0  0  0  0  0
    8.6405  -15.0201   22.6536 C   0  0  0  0  0  0  0  0  0  0  0  0
    9.3035  -14.0852   23.0892 O   0  0  0  0  0  0  0  0  0  0  0  0
    8.3298  -16.0465   23.6018 N   0  0  0  0  0  0  0  0  0  0  0  0
    8.7465  -16.1020   24.9473 C   0  0  1  0  0  0  0  0  0  0  0  0
    7.7107  -16.0301   26.0063 C   0  0  0  0  0  0  0  0  0  0  0  0
    6.9988  -14.7111   25.9660 C   0  0  0  0  0  0  0  0  0  0  0  0
    7.5732  -13.4624   26.1077 C   0  0  0  0  0  0  0  0  0  0  0  0
    6.6438  -12.4939   26.0189 N   0  0  0  0  0  0  0  0  0  0  0  0
    5.4523  -13.1250   25.8176 C   0  0  0  0  0  0  0  0  0  0  0  0
    5.6739  -14.4593   25.7869 N   0  0  0  0  0  0  0  0  0  0  0  0
    9.6305  -17.2696   25.1700 C   0  0  0  0  0  0  0  0  0  0  0  0
    9.2946  -18.4518   24.9962 O   0  0  0  0  0  0  0  0  0  0  0  0
   10.9767  -17.0581   25.6186 N   0  0  0  0  0  0  0  0  0  0  0  0
   11.8636  -18.1737   26.0021 C   0  0  1  0  0  0  0  0  0  0  0  0
   13.2524  -17.7386   25.6435 C   0  0  0  0  0  0  0  0  0  0  0  0
   13.4972  -17.2035   24.2965 C   0  0  0  0  0  0  0  0  0  0  0  0
   14.8840  -16.8624   24.0043 C   0  0  0  0  0  0  0  0  0  0  0  0
   15.2940  -15.6751   24.1457 O   0  0  0  0  0  0  0  0  0  0  0  0
   11.5994  -18.6448   27.3375 C   0  0  0  0  0  0  0  0  0  0  0  0
   10.8886  -17.9480   28.1289 O   0  0  0  0  0  0  0  0  0  0  0  0
   15.7861  -17.8278   23.5717 O   0  0  0  0  0  0  0  0  0  0  0  0
   12.0756  -19.8477   27.8306 O   0  0  0  0  0  0  0  0  0  0  0  0
  2  1  1  0
  3  2  1  0
  3  4  1  6
  5  7  1  0
  5  3  1  0
  5  6  1  1
  7  8  2  0
  9 10  1  0
  9  7  1  0
 10 11  1  1
 11 12  1  0
 12 13  2  0
 13 14  1  0
 15 14  1  0
 16 12  1  0
 16 15  2  0
 17 19  1  0
 17 10  1  0
 18 17  2  0
 20 19  1  0
 20 21  1  1
 22 21  1  0
 22 23  1  0
 23 24  2  0
 25 20  1  0
 26 25  2  0
 27 23  1  0
 28 25  1  0
M  END
$$$$
