IHE.pdb
     RDKit          3D

 28 28  0  0  1  0  0  0  0  0999 V2000
    6.4440  -11.2738   27.2081 C   0  0  0  0  0  0  0  0  0  0  0  0
    5.9726  -12.3342   26.2791 C   0  0  0  0  0  0  0  0  0  0  0  0
    7.0616  -13.2344   25.7839 C   0  0  2  0  0  0  0  0  0  0  0  0
    8.2180  -12.3983   25.3205 C   0  0  0  0  0  0  0  0  0  0  0  0
    6.5132  -14.1725   24.7309 C   0  0  2  0  0  0  0  0  0  0  0  0
    5.5789  -15.0733   25.4688 N   0  0  0  0  0  0  0  0  0  0  0  0
    7.5913  -15.0835   24.2771 C   0  0  0  0  0  0  0  0  0  0  0  0
    7.8986  -16.0701   24.9372 O   0  0  0  0  0  0  0  0  0  0  0  0
    8.3348  -14.8980   23.0680 N   0  0  0  0  0  0  0  0  0  0  0  0
    9.3157  -15.7638   22.5432 C   0  0  1  0  0  0  0  0  0  0  0  0
    9.8200  -15.5045   21.1728 C   0  0  0  0  0  0  0  0  0  0  0  0
    8.7263  -14.9751   20.2943 C   0  0  0  0  0  0  0  0  0  0  0  0
    7.5238  -15.5956   20.0146 C   0  0  0  0  0  0  0  0  0  0  0  0
    6.7749  -14.8411   19.1902 N   0  0  0  0  0  0  0  0  0  0  0  0
    7.5033  -13.7178   18.9332 C   0  0  0  0  0  0  0  0  0  0  0  0
    8.6765  -13.8056   19.6011 N   0  0  0  0  0  0  0  0  0  0  0  0
   10.4462  -15.9034   23.4902 C   0  0  0  0  0  0  0  0  0  0  0  0
   11.2896  -15.0212   23.7164 O   0  0  0  0  0  0  0  0  0  0  0  0
   10.6104  -17.1306   24.2147 N   0  0  0  0  0  0  0  0  0  0  0  0
   11.6735  -17.3146   25.2218 C   0  0  1  0  0  0  0  0  0  0  0  0
   10.9956  -17.8603   26.4422 C   0  0  0  0  0  0  0  0  0  0  0  0
   11.2119  -19.2703   26.7970 C   0  0  0  0  0  0  0  0  0  0  0  0
   10.5802  -19.7046   28.0369 C   0  0  0  0  0  0  0  0  0  0  0  0
   10.7164  -20.8944   28.4414 O   0  0  0  0  0  0  0  0  0  0  0  0
   12.8169  -18.0077   24.6860 C   0  0  0  0  0  0  0  0  0  0  0  0
   12.7228  -18.6313   23.5817 O   0  0  0  0  0  0  0  0  0  0  0  0
    9.8223  -18.8268   28.8036 O   0  0  0  0  0  0  0  0  0  0  0  0
   14.0535  -18.0347   25.3080 O   0  0  0  0  0  0  0  0  0  0  0  0
  2  1  1  0
  3  2  1  0
  3  4  1  6
  5  7  1  0
  5  3  1  0
  5  6  1  1
  7  8  2  0
  9 10  1  0
  9  7  1  0
 10 11  1  6
 11 12  1  0
 12 13  2  0
 13 14  1  0
 15 14  1  0
 16 12  1  0
 16 15  2  0
 17 19  1  0
 17 10  1  0
 18 17  2  0
 20 19  1  0
 20 21  1  1
 22 21  1  0
 22 23  1  0
 23 24  2  0
 25 20  1  0
 26 25  2  0
 27 23  1  0
 28 25  1  0
M  END
$$$$
