RWK.pdb
     RDKit          3D

 35 36  0  0  1  0  0  0  0  0999 V2000
   26.2432  -22.5139  -19.6879 N   0  0  0  0  0  0  0  0  0  0  0  0
   27.0631  -23.4343  -20.3959 C   0  0  0  0  0  0  0  0  0  0  0  0
   27.5303  -23.1738  -21.5638 N   0  0  0  0  0  0  0  0  0  0  0  0
   27.3897  -24.6981  -19.8061 N   0  0  0  0  0  0  0  0  0  0  0  0
   26.9988  -25.1312  -18.5034 C   0  0  0  0  0  0  0  0  0  0  0  0
   27.9311  -24.6208  -17.4635 C   0  0  0  0  0  0  0  0  0  0  0  0
   27.3686  -24.1030  -16.2057 C   0  0  0  0  0  0  0  0  0  0  0  0
   26.2540  -23.1310  -16.2571 C   0  0  2  0  0  0  0  0  0  0  0  0
   26.4230  -21.9458  -16.9983 N   0  0  0  0  0  0  0  0  0  0  0  0
   25.7254  -22.8281  -14.8856 C   0  0  0  0  0  0  0  0  0  0  0  0
   25.5798  -23.7836  -14.0550 O   0  0  0  0  0  0  0  0  0  0  0  0
   28.1627  -23.8373  -22.0314 N   0  0  0  0  0  0  0  0  0  0  0  0
   25.3921  -21.5021  -14.5190 C   0  0  1  0  0  0  0  0  0  0  0  0
   24.8639  -21.1428  -13.2566 C   0  0  0  0  0  0  0  0  0  0  0  0
   25.5595  -20.0228  -12.5628 C   0  0  0  0  0  0  0  0  0  0  0  0
   26.7724  -20.4385  -11.8365 C   0  0  0  0  0  0  0  0  0  0  0  0
   27.9686  -20.8018  -12.4325 N   0  0  0  0  0  0  0  0  0  0  0  0
   28.8679  -21.0975  -11.4655 C   0  0  0  0  0  0  0  0  0  0  0  0
   28.3052  -20.9419  -10.2596 C   0  0  0  0  0  0  0  0  0  0  0  0
   28.8178  -21.1258   -9.0054 C   0  0  0  0  0  0  0  0  0  0  0  0
   27.9814  -20.8882   -7.9279 C   0  0  0  0  0  0  0  0  0  0  0  0
   26.6854  -20.4836   -8.0932 C   0  0  0  0  0  0  0  0  0  0  0  0
   26.2113  -20.3103   -9.3916 C   0  0  0  0  0  0  0  0  0  0  0  0
   26.9946  -20.5302  -10.4899 C   0  0  0  0  0  0  0  0  0  0  0  0
   23.3723  -21.0298  -13.2661 O   0  0  0  0  0  0  0  0  0  0  0  0
   22.7560  -20.5133  -14.2310 N   0  0  0  0  0  0  0  0  0  0  0  0
   22.5882  -21.4963  -12.1976 C   0  0  1  0  0  0  0  0  0  0  0  0
   21.0638  -21.3614  -12.2463 C   0  0  0  0  0  0  0  0  0  0  0  0
   20.5203  -22.4205  -11.3845 C   0  0  0  0  0  0  0  0  0  0  0  0
   19.1273  -22.7896  -11.2746 C   0  0  0  0  0  0  0  0  0  0  0  0
   18.5487  -23.8964  -10.5364 C   0  0  0  0  0  0  0  0  0  0  0  0
   17.0359  -23.9701  -10.4836 N   0  0  0  0  0  0  0  0  0  0  0  0
   16.5806  -25.1410   -9.7688 C   0  0  0  0  0  0  0  0  0  0  0  0
   20.8621  -19.9760  -11.6849 O   0  0  0  0  0  0  0  0  0  0  0  0
   19.6477  -19.3287  -11.9946 O   0  0  0  0  0  0  0  0  0  0  0  0
  2  1  1  0
  3  2  2  0
  4  2  1  0
  5  4  1  0
  6  5  1  0
  7  6  1  0
  8 10  1  0
  8  7  1  0
  8  9  1  1
 10 12  1  0
 11 10  2  0
 12 13  1  0
 13 24  1  0
 14 15  1  0
 13 14  1  1
 15 23  1  0
 16 15  2  0
 16 17  1  0
 17 18  1  0
 18 19  1  0
 19 20  2  0
 21 20  1  0
 22 21  2  0
 23 18  2  0
 23 22  1  0
 24 26  1  0
 24 25  2  0
 26 27  1  0
 27 28  1  1
 27 33  1  0
 29 30  1  0
 29 28  1  0
 31 32  1  0
 31 30  1  0
 33 34  1  0
 35 33  2  0
M  END
$$$$
