RWK.pdb
     RDKit          3D

 35 36  0  0  1  0  0  0  0  0999 V2000
   30.2851  -25.7092  -16.5748 N   0  0  0  0  0  0  0  0  0  0  0  0
   31.1216  -25.0401  -17.5093 C   0  0  0  0  0  0  0  0  0  0  0  0
   31.3556  -25.5164  -18.6792 N   0  0  0  0  0  0  0  0  0  0  0  0
   31.7332  -23.7944  -17.1545 N   0  0  0  0  0  0  0  0  0  0  0  0
   31.4030  -23.0039  -16.0127 C   0  0  0  0  0  0  0  0  0  0  0  0
   31.1777  -23.8553  -14.8147 C   0  0  0  0  0  0  0  0  0  0  0  0
   30.8420  -23.2022  -13.5390 C   0  0  0  0  0  0  0  0  0  0  0  0
   29.9647  -22.0105  -13.5446 C   0  0  2  0  0  0  0  0  0  0  0  0
   30.5423  -20.7458  -13.7671 N   0  0  0  0  0  0  0  0  0  0  0  0
   29.0706  -21.9808  -12.3397 C   0  0  0  0  0  0  0  0  0  0  0  0
   28.1249  -22.8304  -12.2514 O   0  0  0  0  0  0  0  0  0  0  0  0
   31.9644  -25.0092  -19.3356 N   0  0  0  0  0  0  0  0  0  0  0  0
   29.2726  -21.0235  -11.3167 C   0  0  1  0  0  0  0  0  0  0  0  0
   28.4291  -20.8854  -10.1891 C   0  0  0  0  0  0  0  0  0  0  0  0
   29.0336  -20.1988   -9.0132 C   0  0  0  0  0  0  0  0  0  0  0  0
   28.1348  -20.1180   -7.8482 C   0  0  0  0  0  0  0  0  0  0  0  0
   26.7562  -20.2398   -7.9000 N   0  0  0  0  0  0  0  0  0  0  0  0
   26.2600  -20.1401   -6.6449 C   0  0  0  0  0  0  0  0  0  0  0  0
   27.2618  -19.9573   -5.7742 C   0  0  0  0  0  0  0  0  0  0  0  0
   27.2460  -19.8016   -4.4159 C   0  0  0  0  0  0  0  0  0  0  0  0
   28.4603  -19.6216   -3.7754 C   0  0  0  0  0  0  0  0  0  0  0  0
   29.6436  -19.5974   -4.4609 C   0  0  0  0  0  0  0  0  0  0  0  0
   29.6057  -19.7610   -5.8438 C   0  0  0  0  0  0  0  0  0  0  0  0
   28.4348  -19.9428   -6.5253 C   0  0  0  0  0  0  0  0  0  0  0  0
   27.0601  -20.4014  -10.5484 O   0  0  0  0  0  0  0  0  0  0  0  0
   26.8331  -19.1921  -10.8010 N   0  0  0  0  0  0  0  0  0  0  0  0
   25.9620  -21.2749  -10.6217 C   0  0  1  0  0  0  0  0  0  0  0  0
   24.6722  -20.8319  -11.3177 C   0  0  0  0  0  0  0  0  0  0  0  0
   24.3773  -21.8450  -12.3407 C   0  0  0  0  0  0  0  0  0  0  0  0
   24.0787  -21.5817  -13.7301 C   0  0  0  0  0  0  0  0  0  0  0  0
   23.8353  -22.5399  -14.7920 C   0  0  0  0  0  0  0  0  0  0  0  0
   23.6371  -21.9826  -16.1872 N   0  0  0  0  0  0  0  0  0  0  0  0
   23.5492  -23.0327  -17.1767 C   0  0  0  0  0  0  0  0  0  0  0  0
   23.6899  -20.8393  -10.1731 O   0  0  0  0  0  0  0  0  0  0  0  0
   24.0682  -21.5376   -9.0073 O   0  0  0  0  0  0  0  0  0  0  0  0
  2  1  1  0
  3  2  2  0
  4  2  1  0
  5  4  1  0
  6  5  1  0
  7  6  1  0
  8 10  1  0
  8  7  1  0
  8  9  1  1
 10 12  1  0
 11 10  2  0
 12 13  1  0
 13 24  1  0
 14 15  1  0
 13 14  1  6
 15 23  1  0
 16 15  2  0
 16 17  1  0
 17 18  1  0
 18 19  1  0
 19 20  2  0
 21 20  1  0
 22 21  2  0
 23 18  2  0
 23 22  1  0
 24 26  1  0
 24 25  2  0
 26 27  1  0
 27 28  1  1
 27 33  1  0
 29 30  1  0
 29 28  1  0
 31 32  1  0
 31 30  1  0
 33 34  1  0
 35 33  2  0
M  END
$$$$
