RWK.pdb
     RDKit          3D

 35 36  0  0  1  0  0  0  0  0999 V2000
   30.6181  -25.4343  -16.3192 N   0  0  0  0  0  0  0  0  0  0  0  0
   29.3189  -25.6827  -16.8396 C   0  0  0  0  0  0  0  0  0  0  0  0
   28.7692  -26.8422  -16.7779 N   0  0  0  0  0  0  0  0  0  0  0  0
   28.5829  -24.6203  -17.4570 N   0  0  0  0  0  0  0  0  0  0  0  0
   28.8752  -23.2285  -17.3344 C   0  0  0  0  0  0  0  0  0  0  0  0
   28.9475  -22.8167  -15.9074 C   0  0  0  0  0  0  0  0  0  0  0  0
   27.6910  -22.6200  -15.1662 C   0  0  0  0  0  0  0  0  0  0  0  0
   27.4388  -21.3228  -14.5003 C   0  0  2  0  0  0  0  0  0  0  0  0
   28.4708  -20.3654  -14.4701 N   0  0  0  0  0  0  0  0  0  0  0  0
   26.8509  -21.5125  -13.1326 C   0  0  0  0  0  0  0  0  0  0  0  0
   25.8119  -22.2388  -13.0022 O   0  0  0  0  0  0  0  0  0  0  0  0
   27.8138  -26.9848  -17.1326 N   0  0  0  0  0  0  0  0  0  0  0  0
   27.4397  -20.8937  -12.0038 C   0  0  1  0  0  0  0  0  0  0  0  0
   26.8863  -20.9389  -10.7023 C   0  0  0  0  0  0  0  0  0  0  0  0
   27.8338  -20.6500   -9.5895 C   0  0  0  0  0  0  0  0  0  0  0  0
   27.1788  -20.5005   -8.2780 C   0  0  0  0  0  0  0  0  0  0  0  0
   25.8296  -20.7007   -8.0377 N   0  0  0  0  0  0  0  0  0  0  0  0
   25.5846  -20.5018   -6.7217 C   0  0  0  0  0  0  0  0  0  0  0  0
   26.7224  -20.1787   -6.0922 C   0  0  0  0  0  0  0  0  0  0  0  0
   26.9634  -19.8881   -4.7780 C   0  0  0  0  0  0  0  0  0  0  0  0
   28.2636  -19.5797   -4.4159 C   0  0  0  0  0  0  0  0  0  0  0  0
   29.2837  -19.5612   -5.3269 C   0  0  0  0  0  0  0  0  0  0  0  0
   28.9859  -19.8651   -6.6534 C   0  0  0  0  0  0  0  0  0  0  0  0
   27.7201  -20.1771   -7.0642 C   0  0  0  0  0  0  0  0  0  0  0  0
   25.5816  -20.2136  -10.6045 O   0  0  0  0  0  0  0  0  0  0  0  0
   25.4883  -18.9869  -10.8574 N   0  0  0  0  0  0  0  0  0  0  0  0
   24.3976  -20.8686  -10.2261 C   0  0  1  0  0  0  0  0  0  0  0  0
   23.0395  -20.2080  -10.4776 C   0  0  0  0  0  0  0  0  0  0  0  0
   22.4654  -20.8643  -11.6606 C   0  0  0  0  0  0  0  0  0  0  0  0
   21.1897  -20.5534  -12.2646 C   0  0  0  0  0  0  0  0  0  0  0  0
   20.5545  -21.1966  -13.3993 C   0  0  0  0  0  0  0  0  0  0  0  0
   19.1727  -20.7058  -13.7816 N   0  0  0  0  0  0  0  0  0  0  0  0
   18.6298  -21.4471  -14.8974 C   0  0  0  0  0  0  0  0  0  0  0  0
   22.3022  -20.5309   -9.2020 O   0  0  0  0  0  0  0  0  0  0  0  0
   21.2444  -19.6720   -8.8371 O   0  0  0  0  0  0  0  0  0  0  0  0
  2  1  1  0
  3  2  2  0
  4  2  1  0
  5  4  1  0
  6  5  1  0
  7  6  1  0
  8 10  1  0
  8  7  1  0
  8  9  1  1
 10 12  1  0
 11 10  2  0
 12 13  1  0
 13 24  1  0
 14 15  1  0
 13 14  1  1
 15 23  1  0
 16 15  2  0
 16 17  1  0
 17 18  1  0
 18 19  1  0
 19 20  2  0
 21 20  1  0
 22 21  2  0
 23 18  2  0
 23 22  1  0
 24 26  1  0
 24 25  2  0
 26 27  1  0
 27 28  1  1
 27 33  1  0
 29 30  1  0
 29 28  1  0
 31 32  1  0
 31 30  1  0
 33 34  1  0
 35 33  2  0
M  END
$$$$
