RWK.pdb
     RDKit          3D

 35 36  0  0  1  0  0  0  0  0999 V2000
   28.1189  -16.1172  -18.4397 N   0  0  0  0  0  0  0  0  0  0  0  0
   29.4733  -16.5445  -18.3793 C   0  0  0  0  0  0  0  0  0  0  0  0
   30.4515  -15.7495  -18.6270 N   0  0  0  0  0  0  0  0  0  0  0  0
   29.7783  -17.9008  -18.0339 N   0  0  0  0  0  0  0  0  0  0  0  0
   28.8925  -18.8095  -17.3805 C   0  0  0  0  0  0  0  0  0  0  0  0
   28.4777  -18.2940  -16.0488 C   0  0  0  0  0  0  0  0  0  0  0  0
   27.6191  -19.1385  -15.2024 C   0  0  0  0  0  0  0  0  0  0  0  0
   28.0870  -20.4880  -14.8153 C   0  0  2  0  0  0  0  0  0  0  0  0
   28.2923  -21.4485  -15.8242 N   0  0  0  0  0  0  0  0  0  0  0  0
   27.2589  -21.0579  -13.7009 C   0  0  0  0  0  0  0  0  0  0  0  0
   26.1931  -21.6952  -13.9871 O   0  0  0  0  0  0  0  0  0  0  0  0
   31.4174  -16.1036  -18.6486 N   0  0  0  0  0  0  0  0  0  0  0  0
   27.6538  -20.8898  -12.3521 C   0  0  2  0  0  0  0  0  0  0  0  0
   26.8882  -21.3293  -11.2463 C   0  0  0  0  0  0  0  0  0  0  0  0
   27.6538  -21.5852   -9.9941 C   0  0  0  0  0  0  0  0  0  0  0  0
   27.0777  -20.9339   -8.8044 C   0  0  0  0  0  0  0  0  0  0  0  0
   25.7227  -20.7949   -8.5540 N   0  0  0  0  0  0  0  0  0  0  0  0
   25.5587  -20.1736   -7.3631 C   0  0  0  0  0  0  0  0  0  0  0  0
   26.7550  -19.9005   -6.8252 C   0  0  0  0  0  0  0  0  0  0  0  0
   27.0851  -19.2858   -5.6493 C   0  0  0  0  0  0  0  0  0  0  0  0
   28.4304  -19.1362   -5.3578 C   0  0  0  0  0  0  0  0  0  0  0  0
   29.4082  -19.5811   -6.2044 C   0  0  0  0  0  0  0  0  0  0  0  0
   29.0195  -20.2011   -7.3897 C   0  0  0  0  0  0  0  0  0  0  0  0
   27.7060  -20.3750   -7.7256 C   0  0  0  0  0  0  0  0  0  0  0  0
   25.6408  -20.5267  -11.0526 O   0  0  0  0  0  0  0  0  0  0  0  0
   25.6807  -19.3094  -10.7454 N   0  0  0  0  0  0  0  0  0  0  0  0
   24.3646  -21.0942  -11.2054 C   0  0  1  0  0  0  0  0  0  0  0  0
   23.1291  -20.1946  -11.2971 C   0  0  0  0  0  0  0  0  0  0  0  0
   23.2191  -19.4866  -12.5819 C   0  0  0  0  0  0  0  0  0  0  0  0
   23.3554  -20.1056  -13.8808 C   0  0  0  0  0  0  0  0  0  0  0  0
   23.4982  -19.4589  -15.1716 C   0  0  0  0  0  0  0  0  0  0  0  0
   23.6753  -20.3617  -16.3758 N   0  0  0  0  0  0  0  0  0  0  0  0
   23.7688  -19.6054  -17.6040 C   0  0  0  0  0  0  0  0  0  0  0  0
   22.0112  -21.2062  -11.2527 O   0  0  0  0  0  0  0  0  0  0  0  0
   22.3326  -22.5337  -11.6051 O   0  0  0  0  0  0  0  0  0  0  0  0
  2  1  1  0
  3  2  2  0
  4  2  1  0
  5  4  1  0
  6  5  1  0
  7  6  1  0
  8 10  1  0
  8  7  1  0
  8  9  1  6
 10 12  1  0
 11 10  2  0
 12 13  1  0
 13 24  1  0
 14 15  1  0
 13 14  1  1
 15 23  1  0
 16 15  2  0
 16 17  1  0
 17 18  1  0
 18 19  1  0
 19 20  2  0
 21 20  1  0
 22 21  2  0
 23 18  2  0
 23 22  1  0
 24 26  1  0
 24 25  2  0
 26 27  1  0
 27 28  1  1
 27 33  1  0
 29 30  1  0
 29 28  1  0
 31 32  1  0
 31 30  1  0
 33 34  1  0
 35 33  2  0
M  END
$$$$
