RWK.pdb
     RDKit          3D

 35 36  0  0  1  0  0  0  0  0999 V2000
   24.4564  -25.2008  -14.2364 N   0  0  0  0  0  0  0  0  0  0  0  0
   23.3727  -25.3007  -15.1509 C   0  0  0  0  0  0  0  0  0  0  0  0
   22.9849  -26.4282  -15.6291 N   0  0  0  0  0  0  0  0  0  0  0  0
   22.6782  -24.1185  -15.5654 N   0  0  0  0  0  0  0  0  0  0  0  0
   22.7216  -22.8555  -14.9017 C   0  0  0  0  0  0  0  0  0  0  0  0
   21.8647  -22.8556  -13.6864 C   0  0  0  0  0  0  0  0  0  0  0  0
   22.5102  -22.7352  -12.3690 C   0  0  0  0  0  0  0  0  0  0  0  0
   22.6889  -21.3938  -11.7702 C   0  0  2  0  0  0  0  0  0  0  0  0
   21.6087  -20.4911  -11.7971 N   0  0  0  0  0  0  0  0  0  0  0  0
   23.9436  -20.7346  -12.2637 C   0  0  0  0  0  0  0  0  0  0  0  0
   23.8524  -19.6443  -12.9171 O   0  0  0  0  0  0  0  0  0  0  0  0
   22.2042  -26.4690  -16.2982 N   0  0  0  0  0  0  0  0  0  0  0  0
   25.2095  -21.3145  -12.0091 C   0  0  2  0  0  0  0  0  0  0  0  0
   26.4114  -20.8808  -12.6168 C   0  0  0  0  0  0  0  0  0  0  0  0
   27.5828  -20.7499  -11.7055 C   0  0  0  0  0  0  0  0  0  0  0  0
   27.2273  -20.3155  -10.3430 C   0  0  0  0  0  0  0  0  0  0  0  0
   26.0300  -19.7165   -9.9884 N   0  0  0  0  0  0  0  0  0  0  0  0
   26.0373  -19.4772   -8.6565 C   0  0  0  0  0  0  0  0  0  0  0  0
   27.1942  -19.8966   -8.1266 C   0  0  0  0  0  0  0  0  0  0  0  0
   27.6499  -19.8610   -6.8379 C   0  0  0  0  0  0  0  0  0  0  0  0
   28.9120  -20.3727   -6.5882 C   0  0  0  0  0  0  0  0  0  0  0  0
   29.6896  -20.8987   -7.5829 C   0  0  0  0  0  0  0  0  0  0  0  0
   29.1791  -20.9119   -8.8789 C   0  0  0  0  0  0  0  0  0  0  0  0
   27.9396  -20.4206   -9.1800 C   0  0  0  0  0  0  0  0  0  0  0  0
   26.7033  -21.5993  -13.8960 O   0  0  0  0  0  0  0  0  0  0  0  0
   26.2302  -22.7378  -14.1359 N   0  0  0  0  0  0  0  0  0  0  0  0
   27.5195  -21.0361  -14.8913 C   0  0  1  0  0  0  0  0  0  0  0  0
   27.6239  -21.7001  -16.2669 C   0  0  0  0  0  0  0  0  0  0  0  0
   28.0075  -20.6449  -17.2151 C   0  0  0  0  0  0  0  0  0  0  0  0
   28.1056  -20.7918  -18.6495 C   0  0  0  0  0  0  0  0  0  0  0  0
   28.5581  -19.8148  -19.6219 C   0  0  0  0  0  0  0  0  0  0  0  0
   28.6170  -20.2626  -21.0685 N   0  0  0  0  0  0  0  0  0  0  0  0
   29.1930  -19.2474  -21.9212 C   0  0  0  0  0  0  0  0  0  0  0  0
   28.7148  -22.7153  -16.0337 O   0  0  0  0  0  0  0  0  0  0  0  0
   28.7250  -23.8503  -16.8712 O   0  0  0  0  0  0  0  0  0  0  0  0
  2  1  1  0
  3  2  2  0
  4  2  1  0
  5  4  1  0
  6  5  1  0
  7  6  1  0
  8 10  1  0
  8  7  1  0
  8  9  1  6
 10 12  1  0
 11 10  2  0
 12 13  1  0
 13 24  1  0
 14 15  1  0
 13 14  1  1
 15 23  1  0
 16 15  2  0
 16 17  1  0
 17 18  1  0
 18 19  1  0
 19 20  2  0
 21 20  1  0
 22 21  2  0
 23 18  2  0
 23 22  1  0
 24 26  1  0
 24 25  2  0
 26 27  1  0
 27 28  1  1
 27 33  1  0
 29 30  1  0
 29 28  1  0
 31 32  1  0
 31 30  1  0
 33 34  1  0
 35 33  2  0
M  END
$$$$
