RWK.pdb
     RDKit          3D

 35 36  0  0  1  0  0  0  0  0999 V2000
   24.2250  -22.6822  -15.1154 N   0  0  0  0  0  0  0  0  0  0  0  0
   24.9641  -23.8372  -15.4899 C   0  0  0  0  0  0  0  0  0  0  0  0
   24.5270  -25.0262  -15.2763 N   0  0  0  0  0  0  0  0  0  0  0  0
   26.2392  -23.6924  -16.1263 N   0  0  0  0  0  0  0  0  0  0  0  0
   26.8065  -22.4624  -16.5763 C   0  0  0  0  0  0  0  0  0  0  0  0
   26.8297  -21.4495  -15.4879 C   0  0  0  0  0  0  0  0  0  0  0  0
   27.1918  -20.0627  -15.8233 C   0  0  0  0  0  0  0  0  0  0  0  0
   26.2334  -19.2271  -16.5802 C   0  0  2  0  0  0  0  0  0  0  0  0
   26.7076  -18.0691  -17.2257 N   0  0  0  0  0  0  0  0  0  0  0  0
   25.0116  -18.9176  -15.7656 C   0  0  0  0  0  0  0  0  0  0  0  0
   25.0610  -17.9715  -14.9132 O   0  0  0  0  0  0  0  0  0  0  0  0
   25.1177  -25.8429  -15.4831 N   0  0  0  0  0  0  0  0  0  0  0  0
   23.8221  -19.6650  -15.9393 C   0  0  2  0  0  0  0  0  0  0  0  0
   22.6161  -19.3983  -15.2491 C   0  0  0  0  0  0  0  0  0  0  0  0
   21.4443  -19.0640  -16.1062 C   0  0  0  0  0  0  0  0  0  0  0  0
   21.6203  -17.8320  -16.8954 C   0  0  0  0  0  0  0  0  0  0  0  0
   22.2493  -16.6838  -16.4438 N   0  0  0  0  0  0  0  0  0  0  0  0
   22.2517  -15.7656  -17.4379 C   0  0  0  0  0  0  0  0  0  0  0  0
   21.6476  -16.2696  -18.5225 C   0  0  0  0  0  0  0  0  0  0  0  0
   21.4123  -15.7164  -19.7506 C   0  0  0  0  0  0  0  0  0  0  0  0
   20.7484  -16.4901  -20.6875 C   0  0  0  0  0  0  0  0  0  0  0  0
   20.3351  -17.7645  -20.4118 C   0  0  0  0  0  0  0  0  0  0  0  0
   20.5996  -18.2820  -19.1459 C   0  0  0  0  0  0  0  0  0  0  0  0
   21.2519  -17.5616  -18.1846 C   0  0  0  0  0  0  0  0  0  0  0  0
   22.3296  -20.4030  -14.1785 O   0  0  0  0  0  0  0  0  0  0  0  0
   22.4435  -21.6369  -14.3842 N   0  0  0  0  0  0  0  0  0  0  0  0
   21.9201  -20.0162  -12.8913 C   0  0  1  0  0  0  0  0  0  0  0  0
   21.6420  -21.0761  -11.8220 C   0  0  0  0  0  0  0  0  0  0  0  0
   22.0232  -20.4826  -10.5327 C   0  0  0  0  0  0  0  0  0  0  0  0
   22.0584  -21.1709   -9.2624 C   0  0  0  0  0  0  0  0  0  0  0  0
   21.0062  -21.2734   -8.2687 C   0  0  0  0  0  0  0  0  0  0  0  0
   21.3223  -22.0603   -7.0129 N   0  0  0  0  0  0  0  0  0  0  0  0
   20.1691  -22.1787   -6.1495 C   0  0  0  0  0  0  0  0  0  0  0  0
   20.1540  -21.2744  -11.9686 O   0  0  0  0  0  0  0  0  0  0  0  0
   19.6507  -22.5673  -11.7141 O   0  0  0  0  0  0  0  0  0  0  0  0
  2  1  1  0
  3  2  2  0
  4  2  1  0
  5  4  1  0
  6  5  1  0
  7  6  1  0
  8 10  1  0
  8  7  1  0
  8  9  1  1
 10 12  1  0
 11 10  2  0
 12 13  1  0
 13 24  1  0
 14 15  1  0
 13 14  1  6
 15 23  1  0
 16 15  2  0
 16 17  1  0
 17 18  1  0
 18 19  1  0
 19 20  2  0
 21 20  1  0
 22 21  2  0
 23 18  2  0
 23 22  1  0
 24 26  1  0
 24 25  2  0
 26 27  1  0
 27 28  1  6
 27 33  1  0
 29 30  1  0
 29 28  1  0
 31 32  1  0
 31 30  1  0
 33 34  1  0
 35 33  2  0
M  END
$$$$
