RWK.pdb
     RDKit          3D

 35 36  0  0  1  0  0  0  0  0999 V2000
   27.1087  -26.5128  -15.9857 N   0  0  0  0  0  0  0  0  0  0  0  0
   28.2654  -26.5384  -16.8116 C   0  0  0  0  0  0  0  0  0  0  0  0
   28.9476  -27.6109  -16.9976 N   0  0  0  0  0  0  0  0  0  0  0  0
   28.7011  -25.3409  -17.4656 N   0  0  0  0  0  0  0  0  0  0  0  0
   28.1053  -24.0521  -17.3191 C   0  0  0  0  0  0  0  0  0  0  0  0
   29.0402  -23.0971  -16.6671 C   0  0  0  0  0  0  0  0  0  0  0  0
   28.6704  -22.5303  -15.3599 C   0  0  0  0  0  0  0  0  0  0  0  0
   27.6276  -21.4824  -15.2941 C   0  0  2  0  0  0  0  0  0  0  0  0
   28.0169  -20.1329  -15.3918 N   0  0  0  0  0  0  0  0  0  0  0  0
   26.7157  -21.6879  -14.1200 C   0  0  0  0  0  0  0  0  0  0  0  0
   26.2433  -22.8510  -13.9010 O   0  0  0  0  0  0  0  0  0  0  0  0
   29.7366  -27.6180  -17.6581 N   0  0  0  0  0  0  0  0  0  0  0  0
   26.3836  -20.6068  -13.2686 C   0  0  1  0  0  0  0  0  0  0  0  0
   25.4868  -20.7089  -12.1789 C   0  0  0  0  0  0  0  0  0  0  0  0
   25.8737  -19.9541  -10.9540 C   0  0  0  0  0  0  0  0  0  0  0  0
   27.0562  -20.5044  -10.2683 C   0  0  0  0  0  0  0  0  0  0  0  0
   28.0825  -21.1968  -10.8890 N   0  0  0  0  0  0  0  0  0  0  0  0
   29.0105  -21.5292   -9.9618 C   0  0  0  0  0  0  0  0  0  0  0  0
   28.6298  -21.0807   -8.7580 C   0  0  0  0  0  0  0  0  0  0  0  0
   29.2357  -21.1805   -7.5363 C   0  0  0  0  0  0  0  0  0  0  0  0
   28.5900  -20.6141   -6.4504 C   0  0  0  0  0  0  0  0  0  0  0  0
   27.3880  -19.9736   -6.5764 C   0  0  0  0  0  0  0  0  0  0  0  0
   26.8126  -19.8988   -7.8428 C   0  0  0  0  0  0  0  0  0  0  0  0
   27.4077  -20.4400   -8.9480 C   0  0  0  0  0  0  0  0  0  0  0  0
   24.0591  -20.5296  -12.5878 O   0  0  0  0  0  0  0  0  0  0  0  0
   23.6873  -19.5428  -13.2701 N   0  0  0  0  0  0  0  0  0  0  0  0
   23.0651  -21.4558  -12.2297 C   0  0  1  0  0  0  0  0  0  0  0  0
   21.6129  -21.2295  -12.6588 C   0  0  0  0  0  0  0  0  0  0  0  0
   20.9303  -22.5248  -12.5316 C   0  0  0  0  0  0  0  0  0  0  0  0
   19.5432  -22.7839  -12.8441 C   0  0  0  0  0  0  0  0  0  0  0  0
   18.8195  -24.0369  -12.7391 C   0  0  0  0  0  0  0  0  0  0  0  0
   17.3805  -24.0404  -13.2141 N   0  0  0  0  0  0  0  0  0  0  0  0
   16.7501  -25.3244  -13.0062 C   0  0  0  0  0  0  0  0  0  0  0  0
   21.1506  -20.2117  -11.6462 O   0  0  0  0  0  0  0  0  0  0  0  0
   20.0647  -19.3894  -12.0126 O   0  0  0  0  0  0  0  0  0  0  0  0
  2  1  1  0
  3  2  2  0
  4  2  1  0
  5  4  1  0
  6  5  1  0
  7  6  1  0
  8 10  1  0
  8  7  1  0
  8  9  1  1
 10 12  1  0
 11 10  2  0
 12 13  1  0
 13 24  1  0
 14 15  1  0
 13 14  1  1
 15 23  1  0
 16 15  2  0
 16 17  1  0
 17 18  1  0
 18 19  1  0
 19 20  2  0
 21 20  1  0
 22 21  2  0
 23 18  2  0
 23 22  1  0
 24 26  1  0
 24 25  2  0
 26 27  1  0
 27 28  1  1
 27 33  1  0
 29 30  1  0
 29 28  1  0
 31 32  1  0
 31 30  1  0
 33 34  1  0
 35 33  2  0
M  END
$$$$
