MKH.pdb
     RDKit          3D

 28 28  0  0  1  0  0  0  0  0999 V2000
   27.2307  -17.8192   -7.3534 C   0  0  0  0  0  0  0  0  0  0  0  0
   27.8700  -19.3323   -6.6130 S   0  0  0  0  0  0  0  0  0  0  0  0
   27.4656  -20.7037   -7.7633 C   0  0  0  0  0  0  0  0  0  0  0  0
   26.6663  -20.0970   -8.8827 C   0  0  0  0  0  0  0  0  0  0  0  0
   26.1681  -21.1176   -9.8804 C   0  0  2  0  0  0  0  0  0  0  0  0
   27.1693  -22.0614  -10.2644 N   0  0  0  0  0  0  0  0  0  0  0  0
   25.5790  -20.3938  -11.0280 C   0  0  0  0  0  0  0  0  0  0  0  0
   24.8500  -19.4043  -10.8004 O   0  0  0  0  0  0  0  0  0  0  0  0
   25.8146  -20.7893  -12.4077 N   0  0  0  0  0  0  0  0  0  0  0  0
   25.2918  -20.0505  -13.4952 C   0  0  1  0  0  0  0  0  0  0  0  0
   25.7915  -20.2240  -14.8553 C   0  0  0  0  0  0  0  0  0  0  0  0
   27.1958  -19.9574  -15.1657 C   0  0  0  0  0  0  0  0  0  0  0  0
   27.6056  -20.1201  -16.5734 C   0  0  0  0  0  0  0  0  0  0  0  0
   29.0829  -19.8060  -16.7390 C   0  0  0  0  0  0  0  0  0  0  0  0
   29.5279  -20.0458  -18.0911 N   0  0  0  0  0  0  0  0  0  0  0  0
   23.7994  -20.2592  -13.5155 C   0  0  0  0  0  0  0  0  0  0  0  0
   23.3251  -21.4265  -13.3905 O   0  0  0  0  0  0  0  0  0  0  0  0
   22.8670  -19.2199  -13.6676 N   0  0  0  0  0  0  0  0  0  0  0  0
   21.4298  -19.4958  -13.6805 C   0  0  1  0  0  0  0  0  0  0  0  0
   20.6551  -18.2262  -13.4647 C   0  0  0  0  0  0  0  0  0  0  0  0
   19.2005  -18.4702  -13.4675 C   0  0  0  0  0  0  0  0  0  0  0  0
   18.4433  -18.7895  -12.3635 C   0  0  0  0  0  0  0  0  0  0  0  0
   17.1722  -18.9395  -12.7397 N   0  0  0  0  0  0  0  0  0  0  0  0
   17.1309  -18.7187  -14.0551 C   0  0  0  0  0  0  0  0  0  0  0  0
   18.3794  -18.4287  -14.5097 N   0  0  0  0  0  0  0  0  0  0  0  0
   21.0421  -20.1528  -14.9589 C   0  0  0  0  0  0  0  0  0  0  0  0
   21.5750  -19.7899  -16.0551 O   0  0  0  0  0  0  0  0  0  0  0  0
   20.1100  -21.1615  -15.0163 O   0  0  0  0  0  0  0  0  0  0  0  0
  1  2  1  0
  3  4  1  0
  3  2  1  0
  5  4  1  0
  5  6  1  6
  7  5  1  0
  8  7  2  0
  9  7  1  0
 10  9  1  0
 11 12  1  0
 10 11  1  6
 13 12  1  0
 14 13  1  0
 15 14  1  0
 16 10  1  0
 16 18  1  0
 17 16  2  0
 19 18  1  0
 19 20  1  6
 21 20  1  0
 21 25  1  0
 22 23  1  0
 22 21  2  0
 23 24  1  0
 24 25  2  0
 26 19  1  0
 27 26  2  0
 28 26  1  0
M  END
$$$$
