MKH.pdb
     RDKit          3D

 28 28  0  0  1  0  0  0  0  0999 V2000
   40.1832  -28.7402  -18.2323 C   0  0  0  0  0  0  0  0  0  0  0  0
   39.2073  -29.4454  -19.5727 S   0  0  0  0  0  0  0  0  0  0  0  0
   37.5434  -28.6766  -19.4856 C   0  0  0  0  0  0  0  0  0  0  0  0
   36.8263  -29.3445  -18.3455 C   0  0  0  0  0  0  0  0  0  0  0  0
   35.3821  -28.9164  -18.2172 C   0  0  2  0  0  0  0  0  0  0  0  0
   35.2298  -27.5100  -18.0194 N   0  0  0  0  0  0  0  0  0  0  0  0
   34.7522  -29.7263  -17.1518 C   0  0  0  0  0  0  0  0  0  0  0  0
   34.5859  -29.2085  -16.0263 O   0  0  0  0  0  0  0  0  0  0  0  0
   34.3208  -31.0991  -17.3633 N   0  0  0  0  0  0  0  0  0  0  0  0
   33.5556  -31.7974  -16.3997 C   0  0  1  0  0  0  0  0  0  0  0  0
   32.2860  -32.4327  -16.7375 C   0  0  0  0  0  0  0  0  0  0  0  0
   31.0267  -31.8733  -16.2469 C   0  0  0  0  0  0  0  0  0  0  0  0
   29.7995  -32.6305  -16.5579 C   0  0  0  0  0  0  0  0  0  0  0  0
   28.5774  -31.9167  -16.0054 C   0  0  0  0  0  0  0  0  0  0  0  0
   27.3621  -32.6350  -16.3068 N   0  0  0  0  0  0  0  0  0  0  0  0
   34.4472  -32.8388  -15.7736 C   0  0  0  0  0  0  0  0  0  0  0  0
   35.1761  -33.5679  -16.5087 O   0  0  0  0  0  0  0  0  0  0  0  0
   34.5310  -33.0663  -14.3902 N   0  0  0  0  0  0  0  0  0  0  0  0
   35.3356  -34.1665  -13.8571 C   0  0  1  0  0  0  0  0  0  0  0  0
   35.3269  -34.1358  -12.3545 C   0  0  0  0  0  0  0  0  0  0  0  0
   36.1455  -35.2222  -11.7843 C   0  0  0  0  0  0  0  0  0  0  0  0
   37.0423  -35.9966  -12.4845 C   0  0  0  0  0  0  0  0  0  0  0  0
   37.5977  -36.8766  -11.6497 N   0  0  0  0  0  0  0  0  0  0  0  0
   37.0603  -36.6597  -10.4476 C   0  0  0  0  0  0  0  0  0  0  0  0
   36.1637  -35.6401  -10.5246 N   0  0  0  0  0  0  0  0  0  0  0  0
   34.8332  -35.4697  -14.3723 C   0  0  0  0  0  0  0  0  0  0  0  0
   35.4241  -36.5530  -14.0646 O   0  0  0  0  0  0  0  0  0  0  0  0
   33.7305  -35.5644  -15.1876 O   0  0  0  0  0  0  0  0  0  0  0  0
  1  2  1  0
  3  4  1  0
  3  2  1  0
  5  4  1  0
  5  6  1  1
  7  5  1  0
  8  7  2  0
  9  7  1  0
 10  9  1  0
 11 12  1  0
 10 11  1  6
 13 12  1  0
 14 13  1  0
 15 14  1  0
 16 10  1  0
 16 18  1  0
 17 16  2  0
 19 18  1  0
 19 20  1  1
 21 20  1  0
 21 25  1  0
 22 23  1  0
 22 21  2  0
 23 24  1  0
 24 25  2  0
 26 19  1  0
 27 26  2  0
 28 26  1  0
M  END
$$$$
