MKH.pdb
     RDKit          3D

 28 28  0  0  1  0  0  0  0  0999 V2000
   16.8706  -17.4001  -18.3363 C   0  0  0  0  0  0  0  0  0  0  0  0
   17.4409  -15.8633  -17.5885 S   0  0  0  0  0  0  0  0  0  0  0  0
   19.2069  -15.6676  -18.0472 C   0  0  0  0  0  0  0  0  0  0  0  0
   19.6533  -14.3547  -17.4666 C   0  0  0  0  0  0  0  0  0  0  0  0
   21.0871  -14.0119  -17.8011 C   0  0  2  0  0  0  0  0  0  0  0  0
   22.0181  -15.0000  -17.3568 N   0  0  0  0  0  0  0  0  0  0  0  0
   21.3753  -12.6606  -17.2731 C   0  0  0  0  0  0  0  0  0  0  0  0
   21.6829  -12.5428  -16.0673 O   0  0  0  0  0  0  0  0  0  0  0  0
   21.3136  -11.4666  -18.1015 N   0  0  0  0  0  0  0  0  0  0  0  0
   21.6565  -10.1901  -17.5969 C   0  0  1  0  0  0  0  0  0  0  0  0
   22.0082   -9.0822  -18.4793 C   0  0  0  0  0  0  0  0  0  0  0  0
   23.0366   -9.2530  -19.5053 C   0  0  0  0  0  0  0  0  0  0  0  0
   23.2774   -8.1050  -20.3997 C   0  0  0  0  0  0  0  0  0  0  0  0
   24.2762   -8.4731  -21.4837 C   0  0  0  0  0  0  0  0  0  0  0  0
   24.4325   -7.4077  -22.4451 N   0  0  0  0  0  0  0  0  0  0  0  0
   20.5339   -9.7351  -16.7002 C   0  0  0  0  0  0  0  0  0  0  0  0
   19.3325   -9.8794  -17.0730 O   0  0  0  0  0  0  0  0  0  0  0  0
   20.7299   -9.1443  -15.4412 N   0  0  0  0  0  0  0  0  0  0  0  0
   19.5918   -8.7152  -14.6273 C   0  0  1  0  0  0  0  0  0  0  0  0
   19.5310   -9.5150  -13.3564 C   0  0  0  0  0  0  0  0  0  0  0  0
   18.4459   -9.0491  -12.4727 C   0  0  0  0  0  0  0  0  0  0  0  0
   17.4956   -8.1102  -12.8037 C   0  0  0  0  0  0  0  0  0  0  0  0
   16.6783   -7.9371  -11.7635 N   0  0  0  0  0  0  0  0  0  0  0  0
   17.1065   -8.7516  -10.7971 C   0  0  0  0  0  0  0  0  0  0  0  0
   18.1968   -9.4402  -11.2289 N   0  0  0  0  0  0  0  0  0  0  0  0
   19.6823   -7.2568  -14.3422 C   0  0  0  0  0  0  0  0  0  0  0  0
   20.8115   -6.6720  -14.3372 O   0  0  0  0  0  0  0  0  0  0  0  0
   18.5745   -6.4875  -14.0764 O   0  0  0  0  0  0  0  0  0  0  0  0
  1  2  1  0
  3  4  1  0
  3  2  1  0
  5  4  1  0
  5  6  1  1
  7  5  1  0
  8  7  2  0
  9  7  1  0
 10  9  1  0
 11 12  1  0
 10 11  1  6
 13 12  1  0
 14 13  1  0
 15 14  1  0
 16 10  1  0
 16 18  1  0
 17 16  2  0
 19 18  1  0
 19 20  1  1
 21 20  1  0
 21 25  1  0
 22 23  1  0
 22 21  2  0
 23 24  1  0
 24 25  2  0
 26 19  1  0
 27 26  2  0
 28 26  1  0
M  END
$$$$
