MKH.pdb
     RDKit          3D

 28 28  0  0  1  0  0  0  0  0999 V2000
   18.4088  -15.5659  -13.9078 C   0  0  0  0  0  0  0  0  0  0  0  0
   18.3426  -13.7987  -13.5629 S   0  0  0  0  0  0  0  0  0  0  0  0
   16.9044  -13.1269  -14.4836 C   0  0  0  0  0  0  0  0  0  0  0  0
   16.8652  -11.6524  -14.1925 C   0  0  0  0  0  0  0  0  0  0  0  0
   16.0552  -11.3090  -12.9632 C   0  0  2  0  0  0  0  0  0  0  0  0
   14.7123  -11.7920  -13.0236 N   0  0  0  0  0  0  0  0  0  0  0  0
   16.1399   -9.8483  -12.7463 C   0  0  0  0  0  0  0  0  0  0  0  0
   15.3490   -9.1049  -13.3661 O   0  0  0  0  0  0  0  0  0  0  0  0
   17.1067   -9.2456  -11.8421 N   0  0  0  0  0  0  0  0  0  0  0  0
   17.1774   -7.8456  -11.6508 C   0  0  1  0  0  0  0  0  0  0  0  0
   16.8752   -7.2279  -10.3636 C   0  0  0  0  0  0  0  0  0  0  0  0
   15.4872   -7.0131   -9.9553 C   0  0  0  0  0  0  0  0  0  0  0  0
   15.2739   -6.2904   -8.6871 C   0  0  0  0  0  0  0  0  0  0  0  0
   13.7920   -6.0535   -8.4504 C   0  0  0  0  0  0  0  0  0  0  0  0
   13.0867   -7.2919   -8.2211 N   0  0  0  0  0  0  0  0  0  0  0  0
   18.5513   -7.3941  -12.0748 C   0  0  0  0  0  0  0  0  0  0  0  0
   19.5536   -7.6605  -11.3484 O   0  0  0  0  0  0  0  0  0  0  0  0
   18.8087   -6.6767  -13.2546 N   0  0  0  0  0  0  0  0  0  0  0  0
   20.1775   -6.3304  -13.6398 C   0  0  1  0  0  0  0  0  0  0  0  0
   20.4443   -6.7629  -15.0541 C   0  0  0  0  0  0  0  0  0  0  0  0
   20.4380   -8.2322  -15.1833 C   0  0  0  0  0  0  0  0  0  0  0  0
   20.2809   -9.1232  -14.1462 C   0  0  0  0  0  0  0  0  0  0  0  0
   20.3290  -10.3648  -14.6319 N   0  0  0  0  0  0  0  0  0  0  0  0
   20.5128  -10.2565  -15.9492 C   0  0  0  0  0  0  0  0  0  0  0  0
   20.5808   -8.9430  -16.2952 N   0  0  0  0  0  0  0  0  0  0  0  0
   20.4069   -4.8692  -13.4708 C   0  0  0  0  0  0  0  0  0  0  0  0
   19.4281   -4.0857  -13.2578 O   0  0  0  0  0  0  0  0  0  0  0  0
   21.6598   -4.3074  -13.5352 O   0  0  0  0  0  0  0  0  0  0  0  0
  1  2  1  0
  3  4  1  0
  3  2  1  0
  5  4  1  0
  5  6  1  6
  7  5  1  0
  8  7  2  0
  9  7  1  0
 10  9  1  0
 11 12  1  0
 10 11  1  1
 13 12  1  0
 14 13  1  0
 15 14  1  0
 16 10  1  0
 16 18  1  0
 17 16  2  0
 19 18  1  0
 19 20  1  6
 21 20  1  0
 21 25  1  0
 22 23  1  0
 22 21  2  0
 23 24  1  0
 24 25  2  0
 26 19  1  0
 27 26  2  0
 28 26  1  0
M  END
$$$$
