MKH.pdb
     RDKit          3D

 28 28  0  0  1  0  0  0  0  0999 V2000
   29.7566  -20.4540   -9.5258 C   0  0  0  0  0  0  0  0  0  0  0  0
   30.7686  -21.7018  -10.3414 S   0  0  0  0  0  0  0  0  0  0  0  0
   30.8726  -21.2329  -12.1125 C   0  0  0  0  0  0  0  0  0  0  0  0
   29.6667  -20.3818  -12.3979 C   0  0  0  0  0  0  0  0  0  0  0  0
   28.4572  -21.1844  -12.8202 C   0  0  2  0  0  0  0  0  0  0  0  0
   28.7949  -22.4539  -13.3812 N   0  0  0  0  0  0  0  0  0  0  0  0
   27.6387  -20.3472  -13.7240 C   0  0  0  0  0  0  0  0  0  0  0  0
   27.3249  -19.1959  -13.3519 O   0  0  0  0  0  0  0  0  0  0  0  0
   27.1856  -20.8118  -15.0256 N   0  0  0  0  0  0  0  0  0  0  0  0
   26.2866  -20.0573  -15.8156 C   0  0  1  0  0  0  0  0  0  0  0  0
   26.4583  -19.9191  -17.2583 C   0  0  0  0  0  0  0  0  0  0  0  0
   27.7441  -19.4951  -17.8117 C   0  0  0  0  0  0  0  0  0  0  0  0
   27.8857  -19.5537  -19.2788 C   0  0  0  0  0  0  0  0  0  0  0  0
   29.2829  -19.1286  -19.6977 C   0  0  0  0  0  0  0  0  0  0  0  0
   29.4368  -19.1524  -21.1328 N   0  0  0  0  0  0  0  0  0  0  0  0
   24.8980  -20.5835  -15.5586 C   0  0  0  0  0  0  0  0  0  0  0  0
   24.7390  -21.7796  -15.1749 O   0  0  0  0  0  0  0  0  0  0  0  0
   23.7305  -19.8192  -15.7187 N   0  0  0  0  0  0  0  0  0  0  0  0
   22.7748  -19.6685  -14.6206 C   0  0  1  0  0  0  0  0  0  0  0  0
   23.4578  -19.0902  -13.4132 C   0  0  0  0  0  0  0  0  0  0  0  0
   23.5899  -20.0871  -12.3343 C   0  0  0  0  0  0  0  0  0  0  0  0
   23.1909  -21.4021  -12.4104 C   0  0  0  0  0  0  0  0  0  0  0  0
   23.4629  -22.0042  -11.2514 N   0  0  0  0  0  0  0  0  0  0  0  0
   24.0221  -21.0853  -10.4616 C   0  0  0  0  0  0  0  0  0  0  0  0
   24.1030  -19.9005  -11.1244 N   0  0  0  0  0  0  0  0  0  0  0  0
   21.6275  -18.8214  -15.0480 C   0  0  0  0  0  0  0  0  0  0  0  0
   20.4428  -19.1183  -14.6938 O   0  0  0  0  0  0  0  0  0  0  0  0
   21.7886  -17.7017  -15.8289 O   0  0  0  0  0  0  0  0  0  0  0  0
  1  2  1  0
  3  4  1  0
  3  2  1  0
  5  4  1  0
  5  6  1  6
  7  5  1  0
  8  7  2  0
  9  7  1  0
 10  9  1  0
 11 12  1  0
 10 11  1  6
 13 12  1  0
 14 13  1  0
 15 14  1  0
 16 10  1  0
 16 18  1  0
 17 16  2  0
 19 18  1  0
 19 20  1  1
 21 20  1  0
 21 25  1  0
 22 23  1  0
 22 21  2  0
 23 24  1  0
 24 25  2  0
 26 19  1  0
 27 26  2  0
 28 26  1  0
M  END
$$$$
