MKH.pdb
     RDKit          3D

 28 28  0  0  1  0  0  0  0  0999 V2000
   11.3636   -9.7771  -17.2077 C   0  0  0  0  0  0  0  0  0  0  0  0
   12.4162   -9.0371  -15.9465 S   0  0  0  0  0  0  0  0  0  0  0  0
   13.3605  -10.4042  -15.1676 C   0  0  0  0  0  0  0  0  0  0  0  0
   14.2378  -10.9812  -16.2435 C   0  0  0  0  0  0  0  0  0  0  0  0
   15.4672  -11.6746  -15.7022 C   0  0  2  0  0  0  0  0  0  0  0  0
   15.2284  -12.3588  -14.4711 N   0  0  0  0  0  0  0  0  0  0  0  0
   16.5584  -10.6801  -15.6139 C   0  0  0  0  0  0  0  0  0  0  0  0
   16.5183   -9.8278  -14.7004 O   0  0  0  0  0  0  0  0  0  0  0  0
   17.6732  -10.6558  -16.5479 N   0  0  0  0  0  0  0  0  0  0  0  0
   18.7632   -9.7685  -16.3855 C   0  0  1  0  0  0  0  0  0  0  0  0
   20.0239   -9.9594  -17.0953 C   0  0  0  0  0  0  0  0  0  0  0  0
   20.6545  -11.2785  -17.1389 C   0  0  0  0  0  0  0  0  0  0  0  0
   21.1269  -11.7439  -18.4565 C   0  0  0  0  0  0  0  0  0  0  0  0
   21.8469  -13.0754  -18.3258 C   0  0  0  0  0  0  0  0  0  0  0  0
   22.4514  -13.4765  -19.5737 N   0  0  0  0  0  0  0  0  0  0  0  0
   18.2679   -8.3758  -16.6790 C   0  0  0  0  0  0  0  0  0  0  0  0
   17.3949   -8.1944  -17.5780 O   0  0  0  0  0  0  0  0  0  0  0  0
   18.7186   -7.2281  -16.0064 N   0  0  0  0  0  0  0  0  0  0  0  0
   18.2537   -5.8967  -16.3977 C   0  0  1  0  0  0  0  0  0  0  0  0
   16.8528   -5.6695  -15.9032 C   0  0  0  0  0  0  0  0  0  0  0  0
   16.3934   -4.2965  -16.1847 C   0  0  0  0  0  0  0  0  0  0  0  0
   16.1091   -3.7909  -17.4328 C   0  0  0  0  0  0  0  0  0  0  0  0
   15.7244   -2.5197  -17.3070 N   0  0  0  0  0  0  0  0  0  0  0  0
   15.7659   -2.2315  -16.0046 C   0  0  0  0  0  0  0  0  0  0  0  0
   16.1780   -3.3240  -15.3073 N   0  0  0  0  0  0  0  0  0  0  0  0
   19.1828   -4.8539  -15.8824 C   0  0  0  0  0  0  0  0  0  0  0  0
   18.9422   -3.6218  -16.0859 O   0  0  0  0  0  0  0  0  0  0  0  0
   20.3210   -5.1642  -15.1768 O   0  0  0  0  0  0  0  0  0  0  0  0
  1  2  1  0
  3  4  1  0
  3  2  1  0
  5  4  1  0
  5  6  1  1
  7  5  1  0
  8  7  2  0
  9  7  1  0
 10  9  1  0
 11 12  1  0
 10 11  1  6
 13 12  1  0
 14 13  1  0
 15 14  1  0
 16 10  1  0
 16 18  1  0
 17 16  2  0
 19 18  1  0
 19 20  1  1
 21 20  1  0
 21 25  1  0
 22 23  1  0
 22 21  2  0
 23 24  1  0
 24 25  2  0
 26 19  1  0
 27 26  2  0
 28 26  1  0
M  END
$$$$
