MKH.pdb
     RDKit          3D

 28 28  0  0  1  0  0  0  0  0999 V2000
   26.7314  -19.3177   -5.8914 C   0  0  0  0  0  0  0  0  0  0  0  0
   27.5518  -18.7170   -7.3788 S   0  0  0  0  0  0  0  0  0  0  0  0
   27.7207  -20.1497   -8.5129 C   0  0  0  0  0  0  0  0  0  0  0  0
   26.3716  -20.3525   -9.1444 C   0  0  0  0  0  0  0  0  0  0  0  0
   26.3160  -21.5557  -10.0580 C   0  0  2  0  0  0  0  0  0  0  0  0
   27.6083  -22.0340  -10.4342 N   0  0  0  0  0  0  0  0  0  0  0  0
   25.4597  -21.2185  -11.2159 C   0  0  0  0  0  0  0  0  0  0  0  0
   25.9738  -21.2019  -12.3552 O   0  0  0  0  0  0  0  0  0  0  0  0
   24.0458  -20.9055  -11.0795 N   0  0  0  0  0  0  0  0  0  0  0  0
   23.1419  -21.0521  -12.1579 C   0  0  1  0  0  0  0  0  0  0  0  0
   21.7068  -20.8443  -11.9937 C   0  0  0  0  0  0  0  0  0  0  0  0
   20.7974  -21.0470  -13.1213 C   0  0  0  0  0  0  0  0  0  0  0  0
   19.3588  -20.8601  -12.8541 C   0  0  0  0  0  0  0  0  0  0  0  0
   18.5424  -21.1447  -14.1035 C   0  0  0  0  0  0  0  0  0  0  0  0
   17.1251  -21.0771  -13.8380 N   0  0  0  0  0  0  0  0  0  0  0  0
   23.6175  -20.1634  -13.2784 C   0  0  0  0  0  0  0  0  0  0  0  0
   23.9643  -18.9708  -13.0321 O   0  0  0  0  0  0  0  0  0  0  0  0
   23.7069  -20.5752  -14.6182 N   0  0  0  0  0  0  0  0  0  0  0  0
   24.1431  -19.6467  -15.6620 C   0  0  1  0  0  0  0  0  0  0  0  0
   25.4129  -20.1390  -16.2976 C   0  0  0  0  0  0  0  0  0  0  0  0
   25.8477  -19.2566  -17.3966 C   0  0  0  0  0  0  0  0  0  0  0  0
   26.5045  -18.0568  -17.2437 C   0  0  0  0  0  0  0  0  0  0  0  0
   26.7378  -17.5350  -18.4491 N   0  0  0  0  0  0  0  0  0  0  0  0
   26.2373  -18.3902  -19.3429 C   0  0  0  0  0  0  0  0  0  0  0  0
   25.6869  -19.4544  -18.6993 N   0  0  0  0  0  0  0  0  0  0  0  0
   23.0674  -19.4678  -16.6756 C   0  0  0  0  0  0  0  0  0  0  0  0
   22.8745  -18.3319  -17.2138 O   0  0  0  0  0  0  0  0  0  0  0  0
   22.2482  -20.4984  -17.0708 O   0  0  0  0  0  0  0  0  0  0  0  0
  1  2  1  0
  3  4  1  0
  3  2  1  0
  5  4  1  0
  5  6  1  6
  7  5  1  0
  8  7  2  0
  9  7  1  0
 10  9  1  0
 11 12  1  0
 10 11  1  1
 13 12  1  0
 14 13  1  0
 15 14  1  0
 16 10  1  0
 16 18  1  0
 17 16  2  0
 19 18  1  0
 19 20  1  6
 21 20  1  0
 21 25  1  0
 22 23  1  0
 22 21  2  0
 23 24  1  0
 24 25  2  0
 26 19  1  0
 27 26  2  0
 28 26  1  0
M  END
$$$$
