MWS.pdb
     RDKit          3D

 29 30  0  0  1  0  0  0  0  0999 V2000
   10.2251  -18.3145   18.0834 C   0  0  0  0  0  0  0  0  0  0  0  0
    8.6369  -17.9809   17.2990 S   0  0  0  0  0  0  0  0  0  0  0  0
    7.5114  -17.2728   18.5311 C   0  0  0  0  0  0  0  0  0  0  0  0
    8.2686  -16.5782   19.6441 C   0  0  0  0  0  0  0  0  0  0  0  0
    7.3216  -15.9926   20.6718 C   0  0  2  0  0  0  0  0  0  0  0  0
    6.5925  -14.8575   20.1329 N   0  0  0  0  0  0  0  0  0  0  0  0
    8.1395  -15.5774   21.8427 C   0  0  0  0  0  0  0  0  0  0  0  0
    8.6356  -14.4170   21.8184 O   0  0  0  0  0  0  0  0  0  0  0  0
    8.3660  -16.4300   22.9505 N   0  0  0  0  0  0  0  0  0  0  0  0
    9.3484  -16.0267   23.9905 C   0  0  1  0  0  0  0  0  0  0  0  0
    8.6974  -16.2424   25.3097 C   0  0  0  0  0  0  0  0  0  0  0  0
    7.6190  -15.2984   25.6110 C   0  0  0  0  0  0  0  0  0  0  0  0
    6.2472  -15.5001   25.5877 C   0  0  0  0  0  0  0  0  0  0  0  0
    5.6310  -14.3518   25.8935 N   0  0  0  0  0  0  0  0  0  0  0  0
    6.5692  -13.4086   26.1150 C   0  0  0  0  0  0  0  0  0  0  0  0
    6.4246  -12.0822   26.4551 C   0  0  0  0  0  0  0  0  0  0  0  0
    7.5854  -11.3233   26.6234 C   0  0  0  0  0  0  0  0  0  0  0  0
    8.8252  -11.8658   26.4593 C   0  0  0  0  0  0  0  0  0  0  0  0
    8.9662  -13.2146   26.1135 C   0  0  0  0  0  0  0  0  0  0  0  0
    7.8093  -13.9699   25.9462 C   0  0  0  0  0  0  0  0  0  0  0  0
   10.5772  -16.7989   23.8092 C   0  0  0  0  0  0  0  0  0  0  0  0
   10.5148  -18.0703   23.6957 O   0  0  0  0  0  0  0  0  0  0  0  0
   14.2277  -15.2149   22.8792 O   0  0  0  0  0  0  0  0  0  0  0  0
   13.9964  -16.5524   22.5444 C   0  0  0  0  0  0  0  0  0  0  0  0
   13.0534  -17.0943   23.6075 C   0  0  2  0  0  0  0  0  0  0  0  0
   11.8745  -16.2649   23.7349 N   0  0  0  0  0  0  0  0  0  0  0  0
   13.7681  -17.3308   24.8583 C   0  0  0  0  0  0  0  0  0  0  0  0
   14.8990  -18.1249   24.8730 O   0  0  0  0  0  0  0  0  0  0  0  0
   13.3376  -16.7974   25.9398 O   0  0  0  0  0  0  0  0  0  0  0  0
  2  1  1  0
  3  2  1  0
  4  3  1  0
  4  5  1  0
  5  7  1  0
  5  6  1  6
  7  8  2  0
  9 10  1  0
  9  7  1  0
 10 11  1  1
 12 11  1  0
 13 12  2  0
 14 13  1  0
 15 14  1  0
 15 20  2  0
 16 15  1  0
 17 16  2  0
 17 18  1  0
 18 19  2  0
 19 20  1  0
 20 12  1  0
 21 22  2  0
 21 10  1  0
 23 24  1  0
 25 24  1  6
 25 27  1  0
 25 26  1  0
 26 21  1  0
 27 28  1  0
 29 27  2  0
M  END
$$$$
