MWS.pdb
     RDKit          3D

 29 30  0  0  1  0  0  0  0  0999 V2000
    7.8578  -11.8637   20.8566 C   0  0  0  0  0  0  0  0  0  0  0  0
    7.5569  -12.8072   19.3505 S   0  0  0  0  0  0  0  0  0  0  0  0
    6.9461  -14.4533   19.8018 C   0  0  0  0  0  0  0  0  0  0  0  0
    8.0549  -15.4851   19.7788 C   0  0  0  0  0  0  0  0  0  0  0  0
    7.9228  -16.4607   20.9307 C   0  0  2  0  0  0  0  0  0  0  0  0
    6.5451  -16.5655   21.3795 N   0  0  0  0  0  0  0  0  0  0  0  0
    8.7926  -15.9673   22.0317 C   0  0  0  0  0  0  0  0  0  0  0  0
    9.4295  -14.8966   21.8290 O   0  0  0  0  0  0  0  0  0  0  0  0
    8.9170  -16.6521   23.2650 N   0  0  0  0  0  0  0  0  0  0  0  0
    9.8716  -16.1457   24.2857 C   0  0  1  0  0  0  0  0  0  0  0  0
    9.2147  -16.3024   25.6103 C   0  0  0  0  0  0  0  0  0  0  0  0
    7.9648  -15.5530   25.7555 C   0  0  0  0  0  0  0  0  0  0  0  0
    6.6596  -15.9834   25.5704 C   0  0  0  0  0  0  0  0  0  0  0  0
    5.8271  -14.9546   25.7714 N   0  0  0  0  0  0  0  0  0  0  0  0
    6.5598  -13.8659   26.0824 C   0  0  0  0  0  0  0  0  0  0  0  0
    6.1546  -12.5817   26.3705 C   0  0  0  0  0  0  0  0  0  0  0  0
    7.1423  -11.6373   26.6603 C   0  0  0  0  0  0  0  0  0  0  0  0
    8.4660  -11.9633   26.6612 C   0  0  0  0  0  0  0  0  0  0  0  0
    8.8721  -13.2701   26.3676 C   0  0  0  0  0  0  0  0  0  0  0  0
    7.8875  -14.2103   26.0792 C   0  0  0  0  0  0  0  0  0  0  0  0
   11.1310  -16.8794   24.1647 C   0  0  0  0  0  0  0  0  0  0  0  0
   11.1260  -18.1567   24.2077 O   0  0  0  0  0  0  0  0  0  0  0  0
   14.9674  -15.1878   23.9510 O   0  0  0  0  0  0  0  0  0  0  0  0
   14.7200  -16.3440   23.2048 C   0  0  0  0  0  0  0  0  0  0  0  0
   13.6138  -17.0876   23.9370 C   0  0  2  0  0  0  0  0  0  0  0  0
   12.3997  -16.3020   23.9899 N   0  0  0  0  0  0  0  0  0  0  0  0
   14.0849  -17.5663   25.2332 C   0  0  0  0  0  0  0  0  0  0  0  0
   15.1763  -18.4107   25.3073 O   0  0  0  0  0  0  0  0  0  0  0  0
   13.4779  -17.1979   26.2987 O   0  0  0  0  0  0  0  0  0  0  0  0
  2  1  1  0
  3  2  1  0
  4  3  1  0
  4  5  1  0
  5  7  1  0
  5  6  1  1
  7  8  2  0
  9 10  1  0
  9  7  1  0
 10 11  1  1
 12 11  1  0
 13 12  2  0
 14 13  1  0
 15 14  1  0
 15 20  2  0
 16 15  1  0
 17 16  2  0
 17 18  1  0
 18 19  2  0
 19 20  1  0
 20 12  1  0
 21 22  2  0
 21 10  1  0
 23 24  1  0
 25 24  1  1
 25 27  1  0
 25 26  1  0
 26 21  1  0
 27 28  1  0
 29 27  2  0
M  END
$$$$
