MWS.pdb
     RDKit          3D

 29 30  0  0  1  0  0  0  0  0999 V2000
    8.4527  -11.6271   18.7532 C   0  0  0  0  0  0  0  0  0  0  0  0
    7.5068  -13.0184   18.1062 S   0  0  0  0  0  0  0  0  0  0  0  0
    7.9791  -14.5186   19.0077 C   0  0  0  0  0  0  0  0  0  0  0  0
    9.4585  -14.8117   18.8661 C   0  0  0  0  0  0  0  0  0  0  0  0
    9.8423  -16.0762   19.6076 C   0  0  2  0  0  0  0  0  0  0  0  0
    8.9408  -17.1701   19.2894 N   0  0  0  0  0  0  0  0  0  0  0  0
    9.7948  -15.7692   21.0622 C   0  0  0  0  0  0  0  0  0  0  0  0
   10.6364  -14.9393   21.5051 O   0  0  0  0  0  0  0  0  0  0  0  0
    8.8538  -16.3694   21.9338 N   0  0  0  0  0  0  0  0  0  0  0  0
    8.8008  -15.9390   23.3556 C   0  0  1  0  0  0  0  0  0  0  0  0
    7.3650  -15.8706   23.7354 C   0  0  0  0  0  0  0  0  0  0  0  0
    7.1225  -15.3556   25.0849 C   0  0  0  0  0  0  0  0  0  0  0  0
    6.7378  -16.0410   26.2273 C   0  0  0  0  0  0  0  0  0  0  0  0
    6.5925  -15.1691   27.2325 N   0  0  0  0  0  0  0  0  0  0  0  0
    6.8733  -13.9334   26.7709 C   0  0  0  0  0  0  0  0  0  0  0  0
    6.8613  -12.7223   27.4259 C   0  0  0  0  0  0  0  0  0  0  0  0
    7.1983  -11.5823   26.6923 C   0  0  0  0  0  0  0  0  0  0  0  0
    7.5298  -11.6530   25.3718 C   0  0  0  0  0  0  0  0  0  0  0  0
    7.5403  -12.8867   24.7111 C   0  0  0  0  0  0  0  0  0  0  0  0
    7.2046  -14.0219   25.4428 C   0  0  0  0  0  0  0  0  0  0  0  0
    9.5782  -16.8762   24.1657 C   0  0  0  0  0  0  0  0  0  0  0  0
    9.5205  -18.1282   23.9153 O   0  0  0  0  0  0  0  0  0  0  0  0
   12.5916  -15.7723   26.6836 O   0  0  0  0  0  0  0  0  0  0  0  0
   12.6517  -17.0468   26.1120 C   0  0  0  0  0  0  0  0  0  0  0  0
   11.2100  -17.5049   25.9549 C   0  0  2  0  0  0  0  0  0  0  0  0
   10.4253  -16.5282   25.2311 N   0  0  0  0  0  0  0  0  0  0  0  0
   10.6509  -17.8988   27.2447 C   0  0  0  0  0  0  0  0  0  0  0  0
   11.2548  -18.8942   27.9891 O   0  0  0  0  0  0  0  0  0  0  0  0
    9.5970  -17.3151   27.6785 O   0  0  0  0  0  0  0  0  0  0  0  0
  2  1  1  0
  3  2  1  0
  4  3  1  0
  4  5  1  0
  5  7  1  0
  5  6  1  1
  7  8  2  0
  9 10  1  0
  9  7  1  0
 10 11  1  1
 12 11  1  0
 13 12  2  0
 14 13  1  0
 15 14  1  0
 15 20  2  0
 16 15  1  0
 17 16  2  0
 17 18  1  0
 18 19  2  0
 19 20  1  0
 20 12  1  0
 21 22  2  0
 21 10  1  0
 23 24  1  0
 25 24  1  1
 25 27  1  0
 25 26  1  0
 26 21  1  0
 27 28  1  0
 29 27  2  0
M  END
$$$$
