MWS.pdb
     RDKit          3D

 29 30  0  0  1  0  0  0  0  0999 V2000
    7.7465  -13.7745   15.6471 C   0  0  0  0  0  0  0  0  0  0  0  0
    8.3842  -13.3688   17.2834 S   0  0  0  0  0  0  0  0  0  0  0  0
    7.5508  -14.4089   18.5122 C   0  0  0  0  0  0  0  0  0  0  0  0
    8.0688  -14.1438   19.9107 C   0  0  0  0  0  0  0  0  0  0  0  0
    7.4618  -15.1039   20.9136 C   0  0  2  0  0  0  0  0  0  0  0  0
    6.0589  -14.8076   21.1470 N   0  0  0  0  0  0  0  0  0  0  0  0
    8.2378  -14.9756   22.1760 C   0  0  0  0  0  0  0  0  0  0  0  0
    8.3985  -13.8128   22.6396 O   0  0  0  0  0  0  0  0  0  0  0  0
    8.7829  -16.0964   22.8485 N   0  0  0  0  0  0  0  0  0  0  0  0
    9.6866  -15.8804   24.0088 C   0  0  1  0  0  0  0  0  0  0  0  0
    8.9614  -16.3526   25.2178 C   0  0  0  0  0  0  0  0  0  0  0  0
    7.7926  -15.5447   25.5733 C   0  0  0  0  0  0  0  0  0  0  0  0
    6.4462  -15.8581   25.4644 C   0  0  0  0  0  0  0  0  0  0  0  0
    5.7189  -14.8094   25.8685 N   0  0  0  0  0  0  0  0  0  0  0  0
    6.5603  -13.8220   26.2373 C   0  0  0  0  0  0  0  0  0  0  0  0
    6.2854  -12.5610   26.7172 C   0  0  0  0  0  0  0  0  0  0  0  0
    7.3667  -11.7310   27.0228 C   0  0  0  0  0  0  0  0  0  0  0  0
    8.6552  -12.1436   26.8560 C   0  0  0  0  0  0  0  0  0  0  0  0
    8.9288  -13.4264   26.3678 C   0  0  0  0  0  0  0  0  0  0  0  0
    7.8510  -14.2527   26.0638 C   0  0  0  0  0  0  0  0  0  0  0  0
   10.9463  -16.5835   23.7680 C   0  0  0  0  0  0  0  0  0  0  0  0
   10.9339  -17.8371   23.5191 O   0  0  0  0  0  0  0  0  0  0  0  0
   15.3697  -15.4773   23.7459 O   0  0  0  0  0  0  0  0  0  0  0  0
   14.4637  -15.9348   22.7844 C   0  0  0  0  0  0  0  0  0  0  0  0
   13.4314  -16.7586   23.5387 C   0  0  2  0  0  0  0  0  0  0  0  0
   12.2232  -15.9978   23.7734 N   0  0  0  0  0  0  0  0  0  0  0  0
   14.0195  -17.3502   24.7368 C   0  0  0  0  0  0  0  0  0  0  0  0
   15.1175  -18.1829   24.6333 O   0  0  0  0  0  0  0  0  0  0  0  0
   13.5088  -17.0916   25.8821 O   0  0  0  0  0  0  0  0  0  0  0  0
  2  1  1  0
  3  2  1  0
  4  3  1  0
  4  5  1  0
  5  7  1  0
  5  6  1  1
  7  8  2  0
  9 10  1  0
  9  7  1  0
 10 11  1  1
 12 11  1  0
 13 12  2  0
 14 13  1  0
 15 14  1  0
 15 20  2  0
 16 15  1  0
 17 16  2  0
 17 18  1  0
 18 19  2  0
 19 20  1  0
 20 12  1  0
 21 22  2  0
 21 10  1  0
 23 24  1  0
 25 24  1  1
 25 27  1  0
 25 26  1  0
 26 21  1  0
 27 28  1  0
 29 27  2  0
M  END
$$$$
