MWS.pdb
     RDKit          3D

 29 30  0  0  1  0  0  0  0  0999 V2000
    8.3370  -11.7235   19.4781 C   0  0  0  0  0  0  0  0  0  0  0  0
    6.8884  -12.7739   19.2605 S   0  0  0  0  0  0  0  0  0  0  0  0
    7.3088  -14.4642   19.7630 C   0  0  0  0  0  0  0  0  0  0  0  0
    8.2797  -14.4751   20.9256 C   0  0  0  0  0  0  0  0  0  0  0  0
    8.7094  -15.8867   21.2704 C   0  0  2  0  0  0  0  0  0  0  0  0
    7.5740  -16.7924   21.3016 N   0  0  0  0  0  0  0  0  0  0  0  0
    9.3714  -15.8361   22.6014 C   0  0  0  0  0  0  0  0  0  0  0  0
   10.3126  -15.0079   22.7473 O   0  0  0  0  0  0  0  0  0  0  0  0
    8.9796  -16.6716   23.6756 N   0  0  0  0  0  0  0  0  0  0  0  0
    9.6833  -16.5582   24.9800 C   0  0  1  0  0  0  0  0  0  0  0  0
    8.6470  -16.6511   26.0420 C   0  0  0  0  0  0  0  0  0  0  0  0
    7.5554  -15.6842   25.9050 C   0  0  0  0  0  0  0  0  0  0  0  0
    6.2444  -15.8951   25.5054 C   0  0  0  0  0  0  0  0  0  0  0  0
    5.5994  -14.7223   25.4842 N   0  0  0  0  0  0  0  0  0  0  0  0
    6.4598  -13.7542   25.8603 C   0  0  0  0  0  0  0  0  0  0  0  0
    6.2612  -12.3977   25.9890 C   0  0  0  0  0  0  0  0  0  0  0  0
    7.3445  -11.6176   26.4007 C   0  0  0  0  0  0  0  0  0  0  0  0
    8.5622  -12.1686   26.6691 C   0  0  0  0  0  0  0  0  0  0  0  0
    8.7583  -13.5480   26.5366 C   0  0  0  0  0  0  0  0  0  0  0  0
    7.6786  -14.3244   26.1265 C   0  0  0  0  0  0  0  0  0  0  0  0
   10.7036  -17.6028   25.0627 C   0  0  0  0  0  0  0  0  0  0  0  0
   10.3517  -18.8314   25.0770 O   0  0  0  0  0  0  0  0  0  0  0  0
   14.7648  -16.9137   24.9567 O   0  0  0  0  0  0  0  0  0  0  0  0
   14.3220  -18.1351   24.4403 C   0  0  0  0  0  0  0  0  0  0  0  0
   13.0457  -18.4723   25.1956 C   0  0  2  0  0  0  0  0  0  0  0  0
   12.0906  -17.3878   25.1218 N   0  0  0  0  0  0  0  0  0  0  0  0
   13.3520  -18.9212   26.5506 C   0  0  0  0  0  0  0  0  0  0  0  0
   14.2336  -19.9659   26.7539 O   0  0  0  0  0  0  0  0  0  0  0  0
   12.7964  -18.3399   27.5470 O   0  0  0  0  0  0  0  0  0  0  0  0
  2  1  1  0
  3  2  1  0
  4  3  1  0
  4  5  1  0
  5  7  1  0
  5  6  1  1
  7  8  2  0
  9 10  1  0
  9  7  1  0
 10 11  1  1
 12 11  1  0
 13 12  2  0
 14 13  1  0
 15 14  1  0
 15 20  2  0
 16 15  1  0
 17 16  2  0
 17 18  1  0
 18 19  2  0
 19 20  1  0
 20 12  1  0
 21 22  2  0
 21 10  1  0
 23 24  1  0
 25 24  1  1
 25 27  1  0
 25 26  1  0
 26 21  1  0
 27 28  1  0
 29 27  2  0
M  END
$$$$
