MWS.pdb
     RDKit          3D

 29 30  0  0  1  0  0  0  0  0999 V2000
    6.2537  -14.6390   17.0116 C   0  0  0  0  0  0  0  0  0  0  0  0
    6.8338  -15.2179   18.6171 S   0  0  0  0  0  0  0  0  0  0  0  0
    8.6365  -15.4004   18.5585 C   0  0  0  0  0  0  0  0  0  0  0  0
    9.2115  -15.6994   19.9276 C   0  0  0  0  0  0  0  0  0  0  0  0
    8.5126  -14.8956   21.0054 C   0  0  2  0  0  0  0  0  0  0  0  0
    8.6097  -13.4692   20.7480 N   0  0  0  0  0  0  0  0  0  0  0  0
    9.1586  -15.2357   22.3013 C   0  0  0  0  0  0  0  0  0  0  0  0
   10.1928  -14.5858   22.6192 O   0  0  0  0  0  0  0  0  0  0  0  0
    8.6529  -16.2419   23.1600 N   0  0  0  0  0  0  0  0  0  0  0  0
    9.2528  -16.4170   24.5086 C   0  0  1  0  0  0  0  0  0  0  0  0
    8.1275  -16.5795   25.4667 C   0  0  0  0  0  0  0  0  0  0  0  0
    7.2436  -15.4156   25.5612 C   0  0  0  0  0  0  0  0  0  0  0  0
    5.9080  -15.2998   25.2065 C   0  0  0  0  0  0  0  0  0  0  0  0
    5.5049  -14.0421   25.4250 N   0  0  0  0  0  0  0  0  0  0  0  0
    6.5464  -13.3378   25.9129 C   0  0  0  0  0  0  0  0  0  0  0  0
    6.6202  -12.0141   26.2850 C   0  0  0  0  0  0  0  0  0  0  0  0
    7.8442  -11.5397   26.7628 C   0  0  0  0  0  0  0  0  0  0  0  0
    8.9361  -12.3497   26.8622 C   0  0  0  0  0  0  0  0  0  0  0  0
    8.8554  -13.6943   26.4825 C   0  0  0  0  0  0  0  0  0  0  0  0
    7.6356  -14.1661   26.0068 C   0  0  0  0  0  0  0  0  0  0  0  0
   10.1672  -17.5580   24.4782 C   0  0  0  0  0  0  0  0  0  0  0  0
    9.8155  -18.6353   23.8872 O   0  0  0  0  0  0  0  0  0  0  0  0
   13.7544  -17.5500   26.3858 O   0  0  0  0  0  0  0  0  0  0  0  0
   13.6992  -18.5101   25.3710 C   0  0  0  0  0  0  0  0  0  0  0  0
   12.2238  -18.8106   25.1571 C   0  0  2  0  0  0  0  0  0  0  0  0
   11.4509  -17.5921   25.0479 N   0  0  0  0  0  0  0  0  0  0  0  0
   11.7381  -19.7503   26.1632 C   0  0  0  0  0  0  0  0  0  0  0  0
   12.3399  -20.9859   26.3079 O   0  0  0  0  0  0  0  0  0  0  0  0
   10.7504  -19.4201   26.9082 O   0  0  0  0  0  0  0  0  0  0  0  0
  2  1  1  0
  3  2  1  0
  4  3  1  0
  4  5  1  0
  5  7  1  0
  5  6  1  6
  7  8  2  0
  9 10  1  0
  9  7  1  0
 10 11  1  1
 12 11  1  0
 13 12  2  0
 14 13  1  0
 15 14  1  0
 15 20  2  0
 16 15  1  0
 17 16  2  0
 17 18  1  0
 18 19  2  0
 19 20  1  0
 20 12  1  0
 21 22  2  0
 21 10  1  0
 23 24  1  0
 25 24  1  1
 25 27  1  0
 25 26  1  0
 26 21  1  0
 27 28  1  0
 29 27  2  0
M  END
$$$$
