MWS.pdb
     RDKit          3D

 29 30  0  0  1  0  0  0  0  0999 V2000
    7.6477  -11.7490   19.8541 C   0  0  0  0  0  0  0  0  0  0  0  0
    6.8710  -13.0281   18.8493 S   0  0  0  0  0  0  0  0  0  0  0  0
    7.3374  -14.6527   19.5046 C   0  0  0  0  0  0  0  0  0  0  0  0
    8.2754  -14.5284   20.6875 C   0  0  0  0  0  0  0  0  0  0  0  0
    8.7447  -15.8885   21.1629 C   0  0  2  0  0  0  0  0  0  0  0  0
    7.6316  -16.8105   21.3094 N   0  0  0  0  0  0  0  0  0  0  0  0
    9.4308  -15.6898   22.4675 C   0  0  0  0  0  0  0  0  0  0  0  0
   10.3803  -14.8589   22.5001 O   0  0  0  0  0  0  0  0  0  0  0  0
    9.0526  -16.3914   23.6381 N   0  0  0  0  0  0  0  0  0  0  0  0
    9.8644  -16.2369   24.8736 C   0  0  1  0  0  0  0  0  0  0  0  0
    8.9348  -16.3812   26.0250 C   0  0  0  0  0  0  0  0  0  0  0  0
    7.7413  -15.5362   25.9454 C   0  0  0  0  0  0  0  0  0  0  0  0
    6.4526  -15.8755   25.5618 C   0  0  0  0  0  0  0  0  0  0  0  0
    5.6829  -14.7808   25.5978 N   0  0  0  0  0  0  0  0  0  0  0  0
    6.4403  -13.7383   25.9954 C   0  0  0  0  0  0  0  0  0  0  0  0
    6.0975  -12.4175   26.1802 C   0  0  0  0  0  0  0  0  0  0  0  0
    7.0978  -11.5384   26.6022 C   0  0  0  0  0  0  0  0  0  0  0  0
    8.3742  -11.9613   26.8268 C   0  0  0  0  0  0  0  0  0  0  0  0
    8.7170  -13.3049   26.6374 C   0  0  0  0  0  0  0  0  0  0  0  0
    7.7198  -14.1800   26.2172 C   0  0  0  0  0  0  0  0  0  0  0  0
   10.9419  -17.2258   24.8617 C   0  0  0  0  0  0  0  0  0  0  0  0
   10.6932  -18.4367   25.1863 O   0  0  0  0  0  0  0  0  0  0  0  0
   14.8214  -16.3597   23.8852 O   0  0  0  0  0  0  0  0  0  0  0  0
   14.4237  -17.6549   23.5403 C   0  0  0  0  0  0  0  0  0  0  0  0
   13.2875  -18.0111   24.4864 C   0  0  2  0  0  0  0  0  0  0  0  0
   12.2778  -16.9747   24.5070 N   0  0  0  0  0  0  0  0  0  0  0  0
   13.8069  -18.3798   25.8000 C   0  0  0  0  0  0  0  0  0  0  0  0
   13.3339  -17.7507   26.9358 O   0  0  0  0  0  0  0  0  0  0  0  0
   14.7038  -19.2892   25.8896 O   0  0  0  0  0  0  0  0  0  0  0  0
  2  1  1  0
  3  2  1  0
  4  3  1  0
  4  5  1  0
  5  7  1  0
  5  6  1  1
  7  8  2  0
  9 10  1  0
  9  7  1  0
 10 11  1  1
 12 11  1  0
 13 12  2  0
 14 13  1  0
 15 14  1  0
 15 20  2  0
 16 15  1  0
 17 16  2  0
 17 18  1  0
 18 19  2  0
 19 20  1  0
 20 12  1  0
 21 22  2  0
 21 10  1  0
 23 24  1  0
 25 24  1  6
 25 27  1  0
 25 26  1  0
 26 21  1  0
 27 28  1  0
 29 27  2  0
M  END
$$$$
