MWS.pdb
     RDKit          3D

 29 30  0  0  1  0  0  0  0  0999 V2000
    7.6873  -13.9153   15.4654 C   0  0  0  0  0  0  0  0  0  0  0  0
    8.1624  -13.3989   17.1257 S   0  0  0  0  0  0  0  0  0  0  0  0
    7.4567  -14.5601   18.3256 C   0  0  0  0  0  0  0  0  0  0  0  0
    7.8232  -14.1849   19.7467 C   0  0  0  0  0  0  0  0  0  0  0  0
    7.3837  -15.2523   20.7283 C   0  0  2  0  0  0  0  0  0  0  0  0
    5.9618  -15.1579   21.0107 N   0  0  0  0  0  0  0  0  0  0  0  0
    8.1751  -15.0626   21.9734 C   0  0  0  0  0  0  0  0  0  0  0  0
    8.3211  -13.8804   22.3905 O   0  0  0  0  0  0  0  0  0  0  0  0
    8.7501  -16.1473   22.6792 N   0  0  0  0  0  0  0  0  0  0  0  0
    9.5709  -15.8756   23.8884 C   0  0  1  0  0  0  0  0  0  0  0  0
    8.8109  -16.3966   25.0552 C   0  0  0  0  0  0  0  0  0  0  0  0
    7.6388  -15.5964   25.4169 C   0  0  0  0  0  0  0  0  0  0  0  0
    6.2939  -15.9190   25.3166 C   0  0  0  0  0  0  0  0  0  0  0  0
    5.5619  -14.8749   25.7239 N   0  0  0  0  0  0  0  0  0  0  0  0
    6.3987  -13.8813   26.0864 C   0  0  0  0  0  0  0  0  0  0  0  0
    6.1181  -12.6216   26.5666 C   0  0  0  0  0  0  0  0  0  0  0  0
    7.1955  -11.7839   26.8646 C   0  0  0  0  0  0  0  0  0  0  0  0
    8.4858  -12.1879   26.6904 C   0  0  0  0  0  0  0  0  0  0  0  0
    8.7652  -13.4694   26.2021 C   0  0  0  0  0  0  0  0  0  0  0  0
    7.6913  -14.3034   25.9056 C   0  0  0  0  0  0  0  0  0  0  0  0
   10.8852  -16.4948   23.7202 C   0  0  0  0  0  0  0  0  0  0  0  0
   10.9712  -17.6788   23.2466 O   0  0  0  0  0  0  0  0  0  0  0  0
   15.6776  -16.3291   23.4881 O   0  0  0  0  0  0  0  0  0  0  0  0
   14.5177  -15.5690   23.6657 C   0  0  0  0  0  0  0  0  0  0  0  0
   13.3833  -16.5676   23.8361 C   0  0  2  0  0  0  0  0  0  0  0  0
   12.1171  -15.8947   24.0301 N   0  0  0  0  0  0  0  0  0  0  0  0
   13.7125  -17.5513   24.8633 C   0  0  0  0  0  0  0  0  0  0  0  0
   14.7689  -18.4227   24.6778 O   0  0  0  0  0  0  0  0  0  0  0  0
   13.0140  -17.5996   25.9353 O   0  0  0  0  0  0  0  0  0  0  0  0
  2  1  1  0
  3  2  1  0
  4  3  1  0
  4  5  1  0
  5  7  1  0
  5  6  1  1
  7  8  2  0
  9 10  1  0
  9  7  1  0
 10 11  1  1
 12 11  1  0
 13 12  2  0
 14 13  1  0
 15 14  1  0
 15 20  2  0
 16 15  1  0
 17 16  2  0
 17 18  1  0
 18 19  2  0
 19 20  1  0
 20 12  1  0
 21 22  2  0
 21 10  1  0
 23 24  1  0
 25 24  1  1
 25 27  1  0
 25 26  1  0
 26 21  1  0
 27 28  1  0
 29 27  2  0
M  END
$$$$
