MWS.pdb
     RDKit          3D

 29 30  0  0  1  0  0  0  0  0999 V2000
   12.0546  -17.7842   16.6506 C   0  0  0  0  0  0  0  0  0  0  0  0
   10.3295  -18.2068   16.3433 S   0  0  0  0  0  0  0  0  0  0  0  0
    9.2899  -16.7909   16.7914 C   0  0  0  0  0  0  0  0  0  0  0  0
    9.4481  -16.4231   18.2523 C   0  0  0  0  0  0  0  0  0  0  0  0
    8.5753  -15.2401   18.6196 C   0  0  2  0  0  0  0  0  0  0  0  0
    8.9411  -14.0571   17.8599 N   0  0  0  0  0  0  0  0  0  0  0  0
    8.7483  -14.9969   20.0767 C   0  0  0  0  0  0  0  0  0  0  0  0
    9.8088  -14.4195   20.4440 O   0  0  0  0  0  0  0  0  0  0  0  0
    7.7777  -15.3870   21.0313 N   0  0  0  0  0  0  0  0  0  0  0  0
    8.0460  -15.1619   22.4759 C   0  0  1  0  0  0  0  0  0  0  0  0
    6.7258  -15.0538   23.1511 C   0  0  0  0  0  0  0  0  0  0  0  0
    6.8040  -14.8838   24.6037 C   0  0  0  0  0  0  0  0  0  0  0  0
    6.6240  -15.8250   25.6061 C   0  0  0  0  0  0  0  0  0  0  0  0
    6.7476  -15.2254   26.7965 N   0  0  0  0  0  0  0  0  0  0  0  0
    7.0035  -13.9171   26.5920 C   0  0  0  0  0  0  0  0  0  0  0  0
    7.2056  -12.9041   27.5025 C   0  0  0  0  0  0  0  0  0  0  0  0
    7.4533  -11.6223   27.0054 C   0  0  0  0  0  0  0  0  0  0  0  0
    7.4962  -11.3697   25.6665 C   0  0  0  0  0  0  0  0  0  0  0  0
    7.2901  -12.4032   24.7456 C   0  0  0  0  0  0  0  0  0  0  0  0
    7.0435  -13.6799   25.2416 C   0  0  0  0  0  0  0  0  0  0  0  0
    8.8760  -16.2548   22.9816 C   0  0  0  0  0  0  0  0  0  0  0  0
    8.5920  -17.4614   22.6704 O   0  0  0  0  0  0  0  0  0  0  0  0
   12.6711  -16.0962   23.7591 O   0  0  0  0  0  0  0  0  0  0  0  0
   12.1043  -17.3735   23.7182 C   0  0  0  0  0  0  0  0  0  0  0  0
   10.7258  -17.2415   24.3469 C   0  0  2  0  0  0  0  0  0  0  0  0
   10.0071  -16.1099   23.8021 N   0  0  0  0  0  0  0  0  0  0  0  0
   10.8200  -17.2574   25.8037 C   0  0  0  0  0  0  0  0  0  0  0  0
   11.4612  -18.2988   26.4472 O   0  0  0  0  0  0  0  0  0  0  0  0
   10.3031  -16.2998   26.4784 O   0  0  0  0  0  0  0  0  0  0  0  0
  2  1  1  0
  3  2  1  0
  4  3  1  0
  4  5  1  0
  5  7  1  0
  5  6  1  6
  7  8  2  0
  9 10  1  0
  9  7  1  0
 10 11  1  1
 12 11  1  0
 13 12  2  0
 14 13  1  0
 15 14  1  0
 15 20  2  0
 16 15  1  0
 17 16  2  0
 17 18  1  0
 18 19  2  0
 19 20  1  0
 20 12  1  0
 21 22  2  0
 21 10  1  0
 23 24  1  0
 25 24  1  6
 25 27  1  0
 25 26  1  0
 26 21  1  0
 27 28  1  0
 29 27  2  0
M  END
$$$$
