MWS.pdb
     RDKit          3D

 29 30  0  0  1  0  0  0  0  0999 V2000
    7.6974  -11.6913   19.2899 C   0  0  0  0  0  0  0  0  0  0  0  0
    7.0627  -13.0593   18.3027 S   0  0  0  0  0  0  0  0  0  0  0  0
    7.0704  -14.5646   19.3129 C   0  0  0  0  0  0  0  0  0  0  0  0
    8.0527  -14.4606   20.4612 C   0  0  0  0  0  0  0  0  0  0  0  0
    8.0630  -15.7271   21.2929 C   0  0  2  0  0  0  0  0  0  0  0  0
    6.7136  -16.1746   21.5917 N   0  0  0  0  0  0  0  0  0  0  0  0
    8.8017  -15.4271   22.5486 C   0  0  0  0  0  0  0  0  0  0  0  0
    9.1365  -14.2268   22.7490 O   0  0  0  0  0  0  0  0  0  0  0  0
    9.1269  -16.4289   23.4952 N   0  0  0  0  0  0  0  0  0  0  0  0
    9.9942  -16.0834   24.6519 C   0  0  1  0  0  0  0  0  0  0  0  0
    9.2024  -16.3468   25.8824 C   0  0  0  0  0  0  0  0  0  0  0  0
    7.9186  -15.6440   25.9348 C   0  0  0  0  0  0  0  0  0  0  0  0
    6.6405  -16.1389   25.7235 C   0  0  0  0  0  0  0  0  0  0  0  0
    5.7598  -15.1366   25.8319 N   0  0  0  0  0  0  0  0  0  0  0  0
    6.4347  -14.0022   26.1085 C   0  0  0  0  0  0  0  0  0  0  0  0
    5.9669  -12.7223   26.3060 C   0  0  0  0  0  0  0  0  0  0  0  0
    6.9031  -11.7222   26.5796 C   0  0  0  0  0  0  0  0  0  0  0  0
    8.2375  -11.9913   26.6515 C   0  0  0  0  0  0  0  0  0  0  0  0
    8.7074  -13.2941   26.4499 C   0  0  0  0  0  0  0  0  0  0  0  0
    7.7741  -14.2898   26.1775 C   0  0  0  0  0  0  0  0  0  0  0  0
   11.2289  -16.8631   24.5704 C   0  0  0  0  0  0  0  0  0  0  0  0
   11.1770  -18.1388   24.6301 O   0  0  0  0  0  0  0  0  0  0  0  0
   15.0968  -15.3006   24.3462 O   0  0  0  0  0  0  0  0  0  0  0  0
   14.8257  -16.4476   23.5942 C   0  0  0  0  0  0  0  0  0  0  0  0
   13.6993  -17.1682   24.3188 C   0  0  2  0  0  0  0  0  0  0  0  0
   12.5212  -16.3338   24.4179 N   0  0  0  0  0  0  0  0  0  0  0  0
   14.1684  -17.7109   25.5902 C   0  0  0  0  0  0  0  0  0  0  0  0
   15.2027  -18.6271   25.6154 O   0  0  0  0  0  0  0  0  0  0  0  0
   13.6131  -17.3315   26.6798 O   0  0  0  0  0  0  0  0  0  0  0  0
  2  1  1  0
  3  2  1  0
  4  3  1  0
  4  5  1  0
  5  7  1  0
  5  6  1  1
  7  8  2  0
  9 10  1  0
  9  7  1  0
 10 11  1  1
 12 11  1  0
 13 12  2  0
 14 13  1  0
 15 14  1  0
 15 20  2  0
 16 15  1  0
 17 16  2  0
 17 18  1  0
 18 19  2  0
 19 20  1  0
 20 12  1  0
 21 22  2  0
 21 10  1  0
 23 24  1  0
 25 24  1  1
 25 27  1  0
 25 26  1  0
 26 21  1  0
 27 28  1  0
 29 27  2  0
M  END
$$$$
