QEM.pdb
     RDKit          3D

 27 26  0  0  1  0  0  0  0  0999 V2000
    8.5665  -12.4055   17.5320 N   0  0  0  0  0  0  0  0  0  0  0  0
    7.8812  -13.3768   16.7700 C   0  0  0  0  0  0  0  0  0  0  0  0
    7.9078  -13.3215   15.5261 O   0  0  0  0  0  0  0  0  0  0  0  0
    7.1408  -14.4464   17.4493 C   0  0  0  0  0  0  0  0  0  0  0  0
    7.2127  -14.4333   18.9340 C   0  0  0  0  0  0  0  0  0  0  0  0
    8.5838  -14.6627   19.5156 C   0  0  2  0  0  0  0  0  0  0  0  0
    9.2603  -15.5560   18.5580 N   0  0  0  0  0  0  0  0  0  0  0  0
    8.4523  -15.3287   20.8372 C   0  0  0  0  0  0  0  0  0  0  0  0
    7.7420  -14.7840   21.7204 O   0  0  0  0  0  0  0  0  0  0  0  0
    9.0777  -16.5415   21.1671 N   0  0  0  0  0  0  0  0  0  0  0  0
    8.8979  -17.1118   22.5128 C   0  0  1  0  0  0  0  0  0  0  0  0
    9.2790  -18.5639   22.3729 C   0  0  0  0  0  0  0  0  0  0  0  0
   10.6917  -18.8179   21.9873 C   0  0  0  0  0  0  0  0  0  0  0  0
   10.9007  -20.2906   21.8889 C   0  0  0  0  0  0  0  0  0  0  0  0
   10.7747  -20.8680   20.8054 O   0  0  0  0  0  0  0  0  0  0  0  0
    9.7462  -16.3858   23.4914 C   0  0  0  0  0  0  0  0  0  0  0  0
   10.5604  -15.5500   23.0525 O   0  0  0  0  0  0  0  0  0  0  0  0
   11.2360  -20.9819   23.0349 O   0  0  0  0  0  0  0  0  0  0  0  0
    6.6578  -11.3019   27.5069 C   0  0  0  0  0  0  0  0  0  0  0  0
    6.6880  -12.6067   26.2509 S   0  0  0  0  0  0  0  0  0  0  0  0
    8.1532  -13.6328   26.5464 C   0  0  0  0  0  0  0  0  0  0  0  0
    8.2840  -14.7213   25.5366 C   0  0  0  0  0  0  0  0  0  0  0  0
    9.4946  -15.5548   25.8012 C   0  0  2  0  0  0  0  0  0  0  0  0
    9.6068  -16.6589   24.8564 N   0  0  0  0  0  0  0  0  0  0  0  0
    9.4797  -16.0844   27.1769 C   0  0  0  0  0  0  0  0  0  0  0  0
    9.1757  -17.2458   27.5198 O   0  0  0  0  0  0  0  0  0  0  0  0
    9.8348  -15.2365   28.2561 O   0  0  0  0  0  0  0  0  0  0  0  0
  1  2  1  0
  2  4  1  0
  2  3  2  0
  4  5  1  0
  5  6  1  0
  6  7  1  6
  8  6  1  0
  8 10  1  0
  9  8  2  0
 10 11  1  0
 11 16  1  0
 11 12  1  6
 13 12  1  0
 13 14  1  0
 14 15  2  0
 16 17  2  0
 16 24  1  0
 18 14  1  0
 19 20  1  0
 20 21  1  0
 22 21  1  0
 23 22  1  6
 23 25  1  0
 24 23  1  0
 25 26  2  0
 25 27  1  0
M  END
$$$$
