QEM.pdb
     RDKit          3D

 27 26  0  0  1  0  0  0  0  0999 V2000
    9.4489  -13.5150   18.0674 N   0  0  0  0  0  0  0  0  0  0  0  0
    8.1270  -13.0518   17.8895 C   0  0  0  0  0  0  0  0  0  0  0  0
    7.8170  -12.4457   16.8467 O   0  0  0  0  0  0  0  0  0  0  0  0
    7.1255  -13.2875   18.9361 C   0  0  0  0  0  0  0  0  0  0  0  0
    7.6087  -14.0274   20.1314 C   0  0  0  0  0  0  0  0  0  0  0  0
    7.9350  -15.4807   19.9023 C   0  0  2  0  0  0  0  0  0  0  0  0
    6.6483  -16.1110   19.5566 N   0  0  0  0  0  0  0  0  0  0  0  0
    8.4756  -16.0668   21.1560 C   0  0  0  0  0  0  0  0  0  0  0  0
    7.6727  -16.5667   21.9847 O   0  0  0  0  0  0  0  0  0  0  0  0
    9.8416  -16.0986   21.4784 N   0  0  0  0  0  0  0  0  0  0  0  0
   10.2778  -16.7160   22.7421 C   0  0  1  0  0  0  0  0  0  0  0  0
   11.7530  -16.9702   22.5607 C   0  0  0  0  0  0  0  0  0  0  0  0
   12.4588  -17.5069   23.7534 C   0  0  0  0  0  0  0  0  0  0  0  0
   13.8838  -17.7536   23.3921 C   0  0  0  0  0  0  0  0  0  0  0  0
   14.7771  -17.0347   23.8486 O   0  0  0  0  0  0  0  0  0  0  0  0
    9.9859  -15.8081   23.8801 C   0  0  0  0  0  0  0  0  0  0  0  0
    9.8577  -14.5917   23.6396 O   0  0  0  0  0  0  0  0  0  0  0  0
   14.1710  -18.8001   22.5401 O   0  0  0  0  0  0  0  0  0  0  0  0
    7.0161  -11.9218   25.3418 C   0  0  0  0  0  0  0  0  0  0  0  0
    7.7016  -12.3923   26.9511 S   0  0  0  0  0  0  0  0  0  0  0  0
    7.5036  -14.1846   27.1402 C   0  0  0  0  0  0  0  0  0  0  0  0
    8.0354  -14.9310   25.9648 C   0  0  0  0  0  0  0  0  0  0  0  0
    9.3899  -15.4901   26.2534 C   0  0  2  0  0  0  0  0  0  0  0  0
    9.8656  -16.3395   25.1688 N   0  0  0  0  0  0  0  0  0  0  0  0
    9.3865  -16.2563   27.5128 C   0  0  0  0  0  0  0  0  0  0  0  0
    9.1706  -15.8017   28.6554 O   0  0  0  0  0  0  0  0  0  0  0  0
    9.6494  -17.6490   27.4842 O   0  0  0  0  0  0  0  0  0  0  0  0
  1  2  1  0
  2  4  1  0
  2  3  2  0
  4  5  1  0
  5  6  1  0
  6  7  1  1
  8  6  1  0
  8 10  1  0
  9  8  2  0
 10 11  1  0
 11 16  1  0
 11 12  1  6
 13 12  1  0
 13 14  1  0
 14 15  2  0
 16 17  2  0
 16 24  1  0
 18 14  1  0
 19 20  1  0
 20 21  1  0
 22 21  1  0
 23 22  1  6
 23 25  1  0
 24 23  1  0
 25 26  2  0
 25 27  1  0
M  END
$$$$
