QEM.pdb
     RDKit          3D

 27 26  0  0  1  0  0  0  0  0999 V2000
    9.5588  -13.3718   18.2721 N   0  0  0  0  0  0  0  0  0  0  0  0
    8.2083  -13.1367   17.9339 C   0  0  0  0  0  0  0  0  0  0  0  0
    7.9296  -12.4817   16.9119 O   0  0  0  0  0  0  0  0  0  0  0  0
    7.1402  -13.6660   18.7898 C   0  0  0  0  0  0  0  0  0  0  0  0
    7.5927  -14.3894   20.0071 C   0  0  0  0  0  0  0  0  0  0  0  0
    8.2060  -15.7439   19.7620 C   0  0  2  0  0  0  0  0  0  0  0  0
    7.1221  -16.5537   19.1773 N   0  0  0  0  0  0  0  0  0  0  0  0
    8.6439  -16.3268   21.0566 C   0  0  0  0  0  0  0  0  0  0  0  0
    7.7734  -16.7951   21.8338 O   0  0  0  0  0  0  0  0  0  0  0  0
    9.9833  -16.3890   21.4726 N   0  0  0  0  0  0  0  0  0  0  0  0
   10.3205  -17.0423   22.7485 C   0  0  1  0  0  0  0  0  0  0  0  0
   11.7412  -17.5175   22.5775 C   0  0  0  0  0  0  0  0  0  0  0  0
   11.9380  -18.5874   21.5649 C   0  0  0  0  0  0  0  0  0  0  0  0
   13.2462  -18.3650   20.8856 C   0  0  0  0  0  0  0  0  0  0  0  0
   13.3062  -18.2919   19.6550 O   0  0  0  0  0  0  0  0  0  0  0  0
   10.1661  -16.0811   23.8696 C   0  0  0  0  0  0  0  0  0  0  0  0
   10.4156  -14.8800   23.6483 O   0  0  0  0  0  0  0  0  0  0  0  0
   14.3770  -18.2445   21.6668 O   0  0  0  0  0  0  0  0  0  0  0  0
    7.1594  -11.2822   26.1596 C   0  0  0  0  0  0  0  0  0  0  0  0
    6.5613  -12.8452   26.8526 S   0  0  0  0  0  0  0  0  0  0  0  0
    7.9974  -13.9132   27.1433 C   0  0  0  0  0  0  0  0  0  0  0  0
    8.3083  -14.7634   25.9592 C   0  0  0  0  0  0  0  0  0  0  0  0
    9.5237  -15.5965   26.2022 C   0  0  2  0  0  0  0  0  0  0  0  0
    9.7510  -16.5476   25.1216 N   0  0  0  0  0  0  0  0  0  0  0  0
    9.4187  -16.3215   27.4815 C   0  0  0  0  0  0  0  0  0  0  0  0
    9.2470  -17.5499   27.6243 O   0  0  0  0  0  0  0  0  0  0  0  0
    9.5133  -15.6048   28.7009 O   0  0  0  0  0  0  0  0  0  0  0  0
  1  2  1  0
  2  4  1  0
  2  3  2  0
  4  5  1  0
  5  6  1  0
  6  7  1  1
  8  6  1  0
  8 10  1  0
  9  8  2  0
 10 11  1  0
 11 16  1  0
 11 12  1  6
 13 12  1  0
 13 14  1  0
 14 15  2  0
 16 17  2  0
 16 24  1  0
 18 14  1  0
 19 20  1  0
 20 21  1  0
 22 21  1  0
 23 22  1  6
 23 25  1  0
 24 23  1  0
 25 26  2  0
 25 27  1  0
M  END
$$$$
