QEM.pdb
     RDKit          3D

 27 26  0  0  1  0  0  0  0  0999 V2000
    8.6541  -12.9474   17.1948 N   0  0  0  0  0  0  0  0  0  0  0  0
    8.2245  -13.8577   16.2046 C   0  0  0  0  0  0  0  0  0  0  0  0
    8.2932  -13.5436   15.0014 O   0  0  0  0  0  0  0  0  0  0  0  0
    7.6989  -15.1696   16.5999 C   0  0  0  0  0  0  0  0  0  0  0  0
    7.6408  -15.4229   18.0635 C   0  0  0  0  0  0  0  0  0  0  0  0
    8.9065  -15.1171   18.8220 C   0  0  2  0  0  0  0  0  0  0  0  0
    9.9820  -15.7583   18.0444 N   0  0  0  0  0  0  0  0  0  0  0  0
    8.8238  -15.7166   20.1789 C   0  0  0  0  0  0  0  0  0  0  0  0
    7.7949  -15.5064   20.8707 O   0  0  0  0  0  0  0  0  0  0  0  0
    9.8326  -16.5121   20.7448 N   0  0  0  0  0  0  0  0  0  0  0  0
    9.6330  -17.1019   22.0793 C   0  0  1  0  0  0  0  0  0  0  0  0
   10.7522  -18.1005   22.2335 C   0  0  0  0  0  0  0  0  0  0  0  0
   10.6309  -19.3271   21.4031 C   0  0  0  0  0  0  0  0  0  0  0  0
   11.8180  -20.1925   21.6563 C   0  0  0  0  0  0  0  0  0  0  0  0
   12.9173  -19.9001   21.1775 O   0  0  0  0  0  0  0  0  0  0  0  0
    9.6631  -16.0391   23.1157 C   0  0  0  0  0  0  0  0  0  0  0  0
   10.6349  -15.2583   23.1243 O   0  0  0  0  0  0  0  0  0  0  0  0
   11.6520  -21.3195   22.4347 O   0  0  0  0  0  0  0  0  0  0  0  0
    5.8290  -10.9896   27.5064 C   0  0  0  0  0  0  0  0  0  0  0  0
    5.7306  -12.2038   26.1658 S   0  0  0  0  0  0  0  0  0  0  0  0
    7.2806  -13.1444   26.1492 C   0  0  0  0  0  0  0  0  0  0  0  0
    7.3214  -14.1313   25.0330 C   0  0  0  0  0  0  0  0  0  0  0  0
    8.6160  -14.8758   25.0234 C   0  0  2  0  0  0  0  0  0  0  0  0
    8.6142  -15.9489   24.0371 N   0  0  0  0  0  0  0  0  0  0  0  0
    8.9138  -15.4327   26.3555 C   0  0  0  0  0  0  0  0  0  0  0  0
    8.8586  -16.6360   26.6841 O   0  0  0  0  0  0  0  0  0  0  0  0
    9.3046  -14.5635   27.4049 O   0  0  0  0  0  0  0  0  0  0  0  0
  1  2  1  0
  2  4  1  0
  2  3  2  0
  4  5  1  0
  5  6  1  0
  6  7  1  6
  8  6  1  0
  8 10  1  0
  9  8  2  0
 10 11  1  0
 11 16  1  0
 11 12  1  1
 13 12  1  0
 13 14  1  0
 14 15  2  0
 16 17  2  0
 16 24  1  0
 18 14  1  0
 19 20  1  0
 20 21  1  0
 22 21  1  0
 23 22  1  1
 23 25  1  0
 24 23  1  0
 25 26  2  0
 25 27  1  0
M  END
$$$$
