QEM.pdb
     RDKit          3D

 27 26  0  0  1  0  0  0  0  0999 V2000
    9.5896  -13.0237   18.2343 N   0  0  0  0  0  0  0  0  0  0  0  0
    8.4944  -13.3460   17.4036 C   0  0  0  0  0  0  0  0  0  0  0  0
    8.3240  -12.7299   16.3347 O   0  0  0  0  0  0  0  0  0  0  0  0
    7.5623  -14.4060   17.8054 C   0  0  0  0  0  0  0  0  0  0  0  0
    7.8077  -15.0021   19.1449 C   0  0  0  0  0  0  0  0  0  0  0  0
    8.6406  -16.2579   19.1495 C   0  0  2  0  0  0  0  0  0  0  0  0
    7.8284  -17.2574   18.4327 N   0  0  0  0  0  0  0  0  0  0  0  0
    8.8703  -16.6905   20.5522 C   0  0  0  0  0  0  0  0  0  0  0  0
    7.9413  -17.2775   21.1634 O   0  0  0  0  0  0  0  0  0  0  0  0
   10.0724  -16.4832   21.2472 N   0  0  0  0  0  0  0  0  0  0  0  0
   10.2509  -17.0710   22.5856 C   0  0  1  0  0  0  0  0  0  0  0  0
   11.6992  -17.4874   22.6363 C   0  0  0  0  0  0  0  0  0  0  0  0
   12.0673  -18.6234   21.7514 C   0  0  0  0  0  0  0  0  0  0  0  0
   13.5272  -18.8869   21.8975 C   0  0  0  0  0  0  0  0  0  0  0  0
   14.3513  -18.0177   21.5997 O   0  0  0  0  0  0  0  0  0  0  0  0
    9.9014  -16.0753   23.6300 C   0  0  0  0  0  0  0  0  0  0  0  0
   10.3419  -14.9160   23.5033 O   0  0  0  0  0  0  0  0  0  0  0  0
   13.9253  -20.1200   22.3711 O   0  0  0  0  0  0  0  0  0  0  0  0
    6.8630  -11.5149   27.9818 C   0  0  0  0  0  0  0  0  0  0  0  0
    7.4063  -12.4541   26.5314 S   0  0  0  0  0  0  0  0  0  0  0  0
    6.9553  -14.1911   26.7896 C   0  0  0  0  0  0  0  0  0  0  0  0
    7.3381  -15.0446   25.6291 C   0  0  0  0  0  0  0  0  0  0  0  0
    8.7594  -15.4901   25.7377 C   0  0  2  0  0  0  0  0  0  0  0  0
    9.0998  -16.4644   24.7086 N   0  0  0  0  0  0  0  0  0  0  0  0
    9.0317  -16.0643   27.0678 C   0  0  0  0  0  0  0  0  0  0  0  0
    8.9111  -15.4806   28.1649 O   0  0  0  0  0  0  0  0  0  0  0  0
    9.4781  -17.4057   27.1719 O   0  0  0  0  0  0  0  0  0  0  0  0
  1  2  1  0
  2  4  1  0
  2  3  2  0
  4  5  1  0
  5  6  1  0
  6  7  1  6
  8  6  1  0
  8 10  1  0
  9  8  2  0
 10 11  1  0
 11 16  1  0
 11 12  1  1
 13 12  1  0
 13 14  1  0
 14 15  2  0
 16 17  2  0
 16 24  1  0
 18 14  1  0
 19 20  1  0
 20 21  1  0
 22 21  1  0
 23 22  1  1
 23 25  1  0
 24 23  1  0
 25 26  2  0
 25 27  1  0
M  END
$$$$
