QEM.pdb
     RDKit          3D

 27 26  0  0  1  0  0  0  0  0999 V2000
    8.0369  -15.3473   16.3402 N   0  0  0  0  0  0  0  0  0  0  0  0
    7.9176  -13.9496   16.1795 C   0  0  0  0  0  0  0  0  0  0  0  0
    8.0381  -13.4426   15.0483 O   0  0  0  0  0  0  0  0  0  0  0  0
    7.6522  -13.1020   17.3477 C   0  0  0  0  0  0  0  0  0  0  0  0
    7.4230  -13.8251   18.6261 C   0  0  0  0  0  0  0  0  0  0  0  0
    8.3843  -13.4913   19.7375 C   0  0  2  0  0  0  0  0  0  0  0  0
    9.7081  -13.4314   19.0923 N   0  0  0  0  0  0  0  0  0  0  0  0
    8.3552  -14.5740   20.7546 C   0  0  0  0  0  0  0  0  0  0  0  0
    7.2816  -14.7958   21.3706 O   0  0  0  0  0  0  0  0  0  0  0  0
    9.4627  -15.3747   21.0758 N   0  0  0  0  0  0  0  0  0  0  0  0
    9.3685  -16.3373   22.1863 C   0  0  1  0  0  0  0  0  0  0  0  0
   10.5252  -17.2821   21.9798 C   0  0  0  0  0  0  0  0  0  0  0  0
   10.7419  -18.2718   23.0673 C   0  0  0  0  0  0  0  0  0  0  0  0
   11.8626  -19.1728   22.6744 C   0  0  0  0  0  0  0  0  0  0  0  0
   12.8984  -19.2096   23.3445 O   0  0  0  0  0  0  0  0  0  0  0  0
    9.4334  -15.6232   23.4864 C   0  0  0  0  0  0  0  0  0  0  0  0
   10.3975  -14.8585   23.6858 O   0  0  0  0  0  0  0  0  0  0  0  0
   11.7083  -19.9568   21.5496 O   0  0  0  0  0  0  0  0  0  0  0  0
    6.8380  -11.0385   27.0534 C   0  0  0  0  0  0  0  0  0  0  0  0
    6.1484  -12.5600   27.7538 S   0  0  0  0  0  0  0  0  0  0  0  0
    7.3352  -13.8987   27.4592 C   0  0  0  0  0  0  0  0  0  0  0  0
    7.3410  -14.3344   26.0338 C   0  0  0  0  0  0  0  0  0  0  0  0
    8.5276  -15.1927   25.7409 C   0  0  2  0  0  0  0  0  0  0  0  0
    8.4243  -15.8284   24.4335 N   0  0  0  0  0  0  0  0  0  0  0  0
    8.6996  -16.2262   26.7780 C   0  0  0  0  0  0  0  0  0  0  0  0
    8.9361  -16.0286   27.9880 O   0  0  0  0  0  0  0  0  0  0  0  0
    8.5985  -17.5951   26.4241 O   0  0  0  0  0  0  0  0  0  0  0  0
  1  2  1  0
  2  4  1  0
  2  3  2  0
  4  5  1  0
  5  6  1  0
  6  7  1  6
  8  6  1  0
  8 10  1  0
  9  8  2  0
 10 11  1  0
 11 16  1  0
 11 12  1  1
 13 12  1  0
 13 14  1  0
 14 15  2  0
 16 17  2  0
 16 24  1  0
 18 14  1  0
 19 20  1  0
 20 21  1  0
 22 21  1  0
 23 22  1  1
 23 25  1  0
 24 23  1  0
 25 26  2  0
 25 27  1  0
M  END
$$$$
