QEM.pdb
     RDKit          3D

 27 26  0  0  1  0  0  0  0  0999 V2000
    8.8065  -12.8627   17.8289 N   0  0  0  0  0  0  0  0  0  0  0  0
    9.1837  -12.7775   19.1869 C   0  0  0  0  0  0  0  0  0  0  0  0
   10.3709  -12.5514   19.4880 O   0  0  0  0  0  0  0  0  0  0  0  0
    8.1734  -12.9562   20.2362 C   0  0  0  0  0  0  0  0  0  0  0  0
    7.0735  -13.9025   19.9131 C   0  0  0  0  0  0  0  0  0  0  0  0
    7.4673  -15.3561   19.8612 C   0  0  2  0  0  0  0  0  0  0  0  0
    6.2788  -16.0553   19.3406 N   0  0  0  0  0  0  0  0  0  0  0  0
    7.7837  -15.8292   21.2336 C   0  0  0  0  0  0  0  0  0  0  0  0
    6.9163  -15.6947   22.1342 O   0  0  0  0  0  0  0  0  0  0  0  0
    9.0034  -16.4237   21.5937 N   0  0  0  0  0  0  0  0  0  0  0  0
    9.1454  -17.0506   22.9187 C   0  0  1  0  0  0  0  0  0  0  0  0
   10.2679  -18.0446   22.7592 C   0  0  0  0  0  0  0  0  0  0  0  0
   11.6307  -17.4583   22.6693 C   0  0  0  0  0  0  0  0  0  0  0  0
   12.6099  -18.5611   22.4527 C   0  0  0  0  0  0  0  0  0  0  0  0
   13.6069  -18.6613   23.1734 O   0  0  0  0  0  0  0  0  0  0  0  0
    9.4340  -16.0159   23.9436 C   0  0  0  0  0  0  0  0  0  0  0  0
   10.1362  -15.0417   23.6092 O   0  0  0  0  0  0  0  0  0  0  0  0
   12.3703  -19.4578   21.4319 O   0  0  0  0  0  0  0  0  0  0  0  0
    5.7739  -12.2156   26.0998 C   0  0  0  0  0  0  0  0  0  0  0  0
    7.2066  -11.8046   27.1290 S   0  0  0  0  0  0  0  0  0  0  0  0
    8.5695  -12.9016   26.6531 C   0  0  0  0  0  0  0  0  0  0  0  0
    8.1613  -14.3350   26.6657 C   0  0  0  0  0  0  0  0  0  0  0  0
    9.2995  -15.2196   26.2752 C   0  0  2  0  0  0  0  0  0  0  0  0
    8.9159  -16.1651   25.2346 N   0  0  0  0  0  0  0  0  0  0  0  0
    9.8190  -15.9562   27.4418 C   0  0  0  0  0  0  0  0  0  0  0  0
    9.7577  -17.1895   27.6258 O   0  0  0  0  0  0  0  0  0  0  0  0
   10.4591  -15.2460   28.4884 O   0  0  0  0  0  0  0  0  0  0  0  0
  1  2  1  0
  2  4  1  0
  2  3  2  0
  4  5  1  0
  5  6  1  0
  6  7  1  1
  8  6  1  0
  8 10  1  0
  9  8  2  0
 10 11  1  0
 11 16  1  0
 11 12  1  6
 13 12  1  0
 13 14  1  0
 14 15  2  0
 16 17  2  0
 16 24  1  0
 18 14  1  0
 19 20  1  0
 20 21  1  0
 22 21  1  0
 23 22  1  1
 23 25  1  0
 24 23  1  0
 25 26  2  0
 25 27  1  0
M  END
$$$$
