QEM.pdb
     RDKit          3D

 27 26  0  0  1  0  0  0  0  0999 V2000
    9.8598  -12.4433   18.8149 N   0  0  0  0  0  0  0  0  0  0  0  0
    8.6339  -12.9997   18.3895 C   0  0  0  0  0  0  0  0  0  0  0  0
    8.4454  -13.2349   17.1810 O   0  0  0  0  0  0  0  0  0  0  0  0
    7.5880  -13.2976   19.3750 C   0  0  0  0  0  0  0  0  0  0  0  0
    7.1568  -14.7185   19.4432 C   0  0  0  0  0  0  0  0  0  0  0  0
    8.2642  -15.7348   19.3340 C   0  0  2  0  0  0  0  0  0  0  0  0
    7.7345  -16.7824   18.4427 N   0  0  0  0  0  0  0  0  0  0  0  0
    8.5490  -16.2980   20.6791 C   0  0  0  0  0  0  0  0  0  0  0  0
    7.5851  -16.5394   21.4497 O   0  0  0  0  0  0  0  0  0  0  0  0
    9.8407  -16.5812   21.1504 N   0  0  0  0  0  0  0  0  0  0  0  0
   10.0174  -17.1385   22.5020 C   0  0  1  0  0  0  0  0  0  0  0  0
   11.3874  -17.7680   22.4860 C   0  0  0  0  0  0  0  0  0  0  0  0
   11.5118  -19.0036   21.6694 C   0  0  0  0  0  0  0  0  0  0  0  0
   12.9507  -19.3869   21.6024 C   0  0  0  0  0  0  0  0  0  0  0  0
   13.6464  -19.0360   20.6451 O   0  0  0  0  0  0  0  0  0  0  0  0
    9.8901  -16.0627   23.5173 C   0  0  0  0  0  0  0  0  0  0  0  0
   10.5409  -15.0139   23.3425 O   0  0  0  0  0  0  0  0  0  0  0  0
   13.4763  -20.1387   22.6330 O   0  0  0  0  0  0  0  0  0  0  0  0
    6.6396  -10.9563   27.6065 C   0  0  0  0  0  0  0  0  0  0  0  0
    6.2142  -12.5736   26.9107 S   0  0  0  0  0  0  0  0  0  0  0  0
    7.7154  -13.5903   26.9019 C   0  0  0  0  0  0  0  0  0  0  0  0
    7.7816  -14.4759   25.7048 C   0  0  0  0  0  0  0  0  0  0  0  0
    9.0451  -15.2720   25.6967 C   0  0  2  0  0  0  0  0  0  0  0  0
    9.0552  -16.2575   24.6229 N   0  0  0  0  0  0  0  0  0  0  0  0
    9.2487  -15.9511   26.9892 C   0  0  0  0  0  0  0  0  0  0  0  0
    9.2667  -15.4106   28.1146 O   0  0  0  0  0  0  0  0  0  0  0  0
    9.4501  -17.3540   27.0176 O   0  0  0  0  0  0  0  0  0  0  0  0
  1  2  1  0
  2  4  1  0
  2  3  2  0
  4  5  1  0
  5  6  1  0
  6  7  1  6
  8  6  1  0
  8 10  1  0
  9  8  2  0
 10 11  1  0
 11 16  1  0
 11 12  1  6
 13 12  1  0
 13 14  1  0
 14 15  2  0
 16 17  2  0
 16 24  1  0
 18 14  1  0
 19 20  1  0
 20 21  1  0
 22 21  1  0
 23 22  1  1
 23 25  1  0
 24 23  1  0
 25 26  2  0
 25 27  1  0
M  END
$$$$
