QEM.pdb
     RDKit          3D

 27 26  0  0  1  0  0  0  0  0999 V2000
    9.3982  -12.0035   19.1069 N   0  0  0  0  0  0  0  0  0  0  0  0
    8.3872  -12.9366   18.7896 C   0  0  0  0  0  0  0  0  0  0  0  0
    8.4607  -13.5967   17.7361 O   0  0  0  0  0  0  0  0  0  0  0  0
    7.2546  -13.1227   19.7040 C   0  0  0  0  0  0  0  0  0  0  0  0
    7.5193  -13.9847   20.8858 C   0  0  0  0  0  0  0  0  0  0  0  0
    8.0956  -15.3426   20.5779 C   0  0  2  0  0  0  0  0  0  0  0  0
    7.0047  -16.0788   19.9143 N   0  0  0  0  0  0  0  0  0  0  0  0
    8.4739  -16.0156   21.8474 C   0  0  0  0  0  0  0  0  0  0  0  0
    7.5632  -16.4776   22.5812 O   0  0  0  0  0  0  0  0  0  0  0  0
    9.7987  -16.1704   22.2852 N   0  0  0  0  0  0  0  0  0  0  0  0
   10.0723  -16.8962   23.5370 C   0  0  1  0  0  0  0  0  0  0  0  0
   11.3058  -17.7143   23.2493 C   0  0  0  0  0  0  0  0  0  0  0  0
   11.8619  -18.4587   24.4093 C   0  0  0  0  0  0  0  0  0  0  0  0
   13.0641  -19.2153   23.9572 C   0  0  0  0  0  0  0  0  0  0  0  0
   13.0139  -19.9208   22.9458 O   0  0  0  0  0  0  0  0  0  0  0  0
   10.2664  -15.9347   24.6516 C   0  0  0  0  0  0  0  0  0  0  0  0
   11.1439  -15.0588   24.5219 O   0  0  0  0  0  0  0  0  0  0  0  0
   14.2236  -19.1041   24.6968 O   0  0  0  0  0  0  0  0  0  0  0  0
    6.7657  -10.8386   25.8199 C   0  0  0  0  0  0  0  0  0  0  0  0
    6.8587  -12.2776   26.9161 S   0  0  0  0  0  0  0  0  0  0  0  0
    8.2976  -13.2640   26.4223 C   0  0  0  0  0  0  0  0  0  0  0  0
    8.5371  -14.4042   27.3519 C   0  0  0  0  0  0  0  0  0  0  0  0
    9.7432  -15.1843   26.9433 C   0  0  2  0  0  0  0  0  0  0  0  0
    9.4691  -16.0407   25.7963 N   0  0  0  0  0  0  0  0  0  0  0  0
   10.2441  -16.0047   28.0610 C   0  0  0  0  0  0  0  0  0  0  0  0
   10.1247  -17.2415   28.1831 O   0  0  0  0  0  0  0  0  0  0  0  0
   10.9352  -15.3816   29.1305 O   0  0  0  0  0  0  0  0  0  0  0  0
  1  2  1  0
  2  4  1  0
  2  3  2  0
  4  5  1  0
  5  6  1  0
  6  7  1  1
  8  6  1  0
  8 10  1  0
  9  8  2  0
 10 11  1  0
 11 16  1  0
 11 12  1  6
 13 12  1  0
 13 14  1  0
 14 15  2  0
 16 17  2  0
 16 24  1  0
 18 14  1  0
 19 20  1  0
 20 21  1  0
 22 21  1  0
 23 22  1  1
 23 25  1  0
 24 23  1  0
 25 26  2  0
 25 27  1  0
M  END
$$$$
