QEM.pdb
     RDKit          3D

 27 26  0  0  1  0  0  0  0  0999 V2000
    7.5394  -12.5882   16.2865 N   0  0  0  0  0  0  0  0  0  0  0  0
    7.5456  -13.9335   15.8579 C   0  0  0  0  0  0  0  0  0  0  0  0
    6.6672  -14.3388   15.0735 O   0  0  0  0  0  0  0  0  0  0  0  0
    8.5881  -14.8469   16.3401 C   0  0  0  0  0  0  0  0  0  0  0  0
    8.3446  -15.4496   17.6770 C   0  0  0  0  0  0  0  0  0  0  0  0
    9.0406  -14.7698   18.8277 C   0  0  2  0  0  0  0  0  0  0  0  0
   10.4397  -14.6154   18.3903 N   0  0  0  0  0  0  0  0  0  0  0  0
    8.9694  -15.6408   20.0293 C   0  0  0  0  0  0  0  0  0  0  0  0
    7.8402  -15.9218   20.5059 O   0  0  0  0  0  0  0  0  0  0  0  0
   10.0955  -16.1763   20.6743 N   0  0  0  0  0  0  0  0  0  0  0  0
    9.9286  -16.9191   21.9349 C   0  0  1  0  0  0  0  0  0  0  0  0
   11.1671  -17.7714   22.0497 C   0  0  0  0  0  0  0  0  0  0  0  0
   11.3172  -18.5084   23.3316 C   0  0  0  0  0  0  0  0  0  0  0  0
   12.6036  -19.2609   23.3001 C   0  0  0  0  0  0  0  0  0  0  0  0
   12.6131  -20.4713   23.0590 O   0  0  0  0  0  0  0  0  0  0  0  0
    9.7747  -15.9719   23.0679 C   0  0  0  0  0  0  0  0  0  0  0  0
   10.5825  -15.0263   23.1532 O   0  0  0  0  0  0  0  0  0  0  0  0
   13.7721  -18.5698   23.5464 O   0  0  0  0  0  0  0  0  0  0  0  0
    6.8563  -10.8891   27.0412 C   0  0  0  0  0  0  0  0  0  0  0  0
    7.1577  -11.9130   25.5778 S   0  0  0  0  0  0  0  0  0  0  0  0
    6.8550  -13.6416   26.0334 C   0  0  0  0  0  0  0  0  0  0  0  0
    7.1326  -14.5726   24.9030 C   0  0  0  0  0  0  0  0  0  0  0  0
    8.4989  -15.1643   25.0195 C   0  0  2  0  0  0  0  0  0  0  0  0
    8.7419  -16.1680   23.9911 N   0  0  0  0  0  0  0  0  0  0  0  0
    8.7015  -15.7649   26.3505 C   0  0  0  0  0  0  0  0  0  0  0  0
    8.6471  -15.1703   27.4470 O   0  0  0  0  0  0  0  0  0  0  0  0
    8.9907  -17.1486   26.4561 O   0  0  0  0  0  0  0  0  0  0  0  0
  1  2  1  0
  2  4  1  0
  2  3  2  0
  4  5  1  0
  5  6  1  0
  6  7  1  6
  8  6  1  0
  8 10  1  0
  9  8  2  0
 10 11  1  0
 11 16  1  0
 11 12  1  1
 13 12  1  0
 13 14  1  0
 14 15  2  0
 16 17  2  0
 16 24  1  0
 18 14  1  0
 19 20  1  0
 20 21  1  0
 22 21  1  0
 23 22  1  1
 23 25  1  0
 24 23  1  0
 25 26  2  0
 25 27  1  0
M  END
$$$$
