LAD.pdb
     RDKit          3D

 22 21  0  0  1  0  0  0  0  0999 V2000
   22.7283  -14.7342  -20.2257 C   0  0  0  0  0  0  0  0  0  0  0  0
   22.3258  -14.7639  -18.7613 C   0  0  2  0  0  0  0  0  0  0  0  0
   21.0961  -15.6232  -18.6021 C   0  0  0  0  0  0  0  0  0  0  0  0
   22.1434  -13.3859  -18.2079 C   0  0  0  0  0  0  0  0  0  0  0  0
   23.3243  -12.5002  -18.3884 C   0  0  2  0  0  0  0  0  0  0  0  0
   24.4200  -12.8427  -17.4961 N   0  0  0  0  0  0  0  0  0  0  0  0
   23.0571  -11.0572  -18.2278 C   0  0  0  0  0  0  0  0  0  0  0  0
   22.7373  -10.5410  -17.1351 O   0  0  0  0  0  0  0  0  0  0  0  0
   23.2815   -7.9626  -20.4508 C   0  0  0  0  0  0  0  0  0  0  0  0
   22.8801   -8.7374  -19.2443 C   0  0  2  0  0  0  0  0  0  0  0  0
   23.1480  -10.1375  -19.3290 N   0  0  0  0  0  0  0  0  0  0  0  0
   21.4767   -8.4300  -18.8900 C   0  0  0  0  0  0  0  0  0  0  0  0
   20.5004   -9.1015  -19.2796 O   0  0  0  0  0  0  0  0  0  0  0  0
   21.2296   -7.3045  -18.0580 N   0  0  0  0  0  0  0  0  0  0  0  0
   19.9200   -6.8846  -17.6434 C   0  0  1  0  0  0  0  0  0  0  0  0
   19.2979   -7.8813  -16.7181 C   0  0  0  0  0  0  0  0  0  0  0  0
   17.9429   -7.5155  -16.2886 C   0  0  0  0  0  0  0  0  0  0  0  0
   17.3490   -6.6058  -16.9291 O   0  0  0  0  0  0  0  0  0  0  0  0
   19.8523   -5.5094  -17.1659 C   0  0  0  0  0  0  0  0  0  0  0  0
   18.9784   -4.6238  -17.7498 O   0  0  0  0  0  0  0  0  0  0  0  0
   17.2982   -8.1054  -15.2384 O   0  0  0  0  0  0  0  0  0  0  0  0
   20.5776   -5.1246  -16.2333 O   0  0  0  0  0  0  0  0  0  0  0  0
  2  3  1  6
  2  1  1  0
  4  2  1  0
  4  5  1  0
  5  7  1  0
  5  6  1  1
  7  8  2  0
 10  9  1  6
 10 12  1  0
 11  7  1  0
 11 10  1  0
 12 13  2  0
 14 12  1  0
 14 15  1  0
 15 19  1  0
 16 17  1  0
 15 16  1  1
 17 21  1  0
 17 18  2  0
 19 22  2  0
 19 20  1  0
M  END
$$$$
