LAD.pdb
     RDKit          3D

 22 21  0  0  1  0  0  0  0  0999 V2000
   18.7769  -16.9317  -14.8924 C   0  0  0  0  0  0  0  0  0  0  0  0
   18.1722  -16.2968  -16.1328 C   0  0  2  0  0  0  0  0  0  0  0  0
   18.4700  -17.1651  -17.3300 C   0  0  0  0  0  0  0  0  0  0  0  0
   18.6326  -14.8849  -16.3142 C   0  0  0  0  0  0  0  0  0  0  0  0
   18.1107  -13.9420  -15.2895 C   0  0  2  0  0  0  0  0  0  0  0  0
   16.7448  -14.2466  -14.8952 N   0  0  0  0  0  0  0  0  0  0  0  0
   18.1545  -12.5158  -15.6685 C   0  0  0  0  0  0  0  0  0  0  0  0
   19.1738  -11.9671  -16.1401 O   0  0  0  0  0  0  0  0  0  0  0  0
   15.5778   -9.7625  -16.1287 C   0  0  0  0  0  0  0  0  0  0  0  0
   16.9582  -10.2960  -15.9646 C   0  0  2  0  0  0  0  0  0  0  0  0
   17.0152  -11.6517  -15.5195 N   0  0  0  0  0  0  0  0  0  0  0  0
   17.7615   -9.3723  -15.1332 C   0  0  0  0  0  0  0  0  0  0  0  0
   17.8608   -9.4644  -13.8931 O   0  0  0  0  0  0  0  0  0  0  0  0
   18.4589   -8.3209  -15.7874 N   0  0  0  0  0  0  0  0  0  0  0  0
   19.2923   -7.3669  -15.1101 C   0  0  1  0  0  0  0  0  0  0  0  0
   20.6271   -7.2448  -15.7732 C   0  0  0  0  0  0  0  0  0  0  0  0
   21.4943   -6.2306  -15.1616 C   0  0  0  0  0  0  0  0  0  0  0  0
   21.6331   -6.2549  -13.9084 O   0  0  0  0  0  0  0  0  0  0  0  0
   18.6460   -6.0893  -14.8386 C   0  0  0  0  0  0  0  0  0  0  0  0
   18.9025   -5.4285  -13.6611 O   0  0  0  0  0  0  0  0  0  0  0  0
   22.1525   -5.2695  -15.8755 O   0  0  0  0  0  0  0  0  0  0  0  0
   17.8621   -5.5867  -15.6612 O   0  0  0  0  0  0  0  0  0  0  0  0
  2  3  1  6
  2  1  1  0
  4  2  1  0
  4  5  1  0
  5  7  1  0
  5  6  1  6
  7  8  2  0
 10  9  1  1
 10 12  1  0
 11  7  1  0
 11 10  1  0
 12 13  2  0
 14 12  1  0
 14 15  1  0
 15 19  1  0
 16 17  1  0
 15 16  1  6
 17 21  1  0
 17 18  2  0
 19 22  2  0
 19 20  1  0
M  END
$$$$
