LAD.pdb
     RDKit          3D

 22 21  0  0  1  0  0  0  0  0999 V2000
   13.9222  -11.4911  -16.7874 C   0  0  0  0  0  0  0  0  0  0  0  0
   14.2157  -11.7239  -15.3154 C   0  0  2  0  0  0  0  0  0  0  0  0
   13.0998  -11.1354  -14.4879 C   0  0  0  0  0  0  0  0  0  0  0  0
   15.5616  -11.1979  -14.9278 C   0  0  0  0  0  0  0  0  0  0  0  0
   16.6873  -11.7898  -15.6984 C   0  0  2  0  0  0  0  0  0  0  0  0
   17.0073  -13.1416  -15.2692 N   0  0  0  0  0  0  0  0  0  0  0  0
   17.9409  -11.0103  -15.6774 C   0  0  0  0  0  0  0  0  0  0  0  0
   18.6770  -10.9308  -14.6702 O   0  0  0  0  0  0  0  0  0  0  0  0
   20.1226   -9.2594  -18.2451 C   0  0  0  0  0  0  0  0  0  0  0  0
   19.6079   -9.5128  -16.8710 C   0  0  2  0  0  0  0  0  0  0  0  0
   18.4055  -10.2819  -16.8265 N   0  0  0  0  0  0  0  0  0  0  0  0
   19.5168   -8.2395  -16.1226 C   0  0  0  0  0  0  0  0  0  0  0  0
   18.4529   -7.6118  -15.9496 O   0  0  0  0  0  0  0  0  0  0  0  0
   20.7115   -7.7032  -15.5702 N   0  0  0  0  0  0  0  0  0  0  0  0
   20.7823   -6.4468  -14.8777 C   0  0  1  0  0  0  0  0  0  0  0  0
   21.9033   -6.4349  -13.8879 C   0  0  0  0  0  0  0  0  0  0  0  0
   21.9824   -5.1943  -13.1073 C   0  0  0  0  0  0  0  0  0  0  0  0
   22.9633   -5.0524  -12.3276 O   0  0  0  0  0  0  0  0  0  0  0  0
   20.7467   -5.2778  -15.7472 C   0  0  0  0  0  0  0  0  0  0  0  0
   19.9248   -4.2200  -15.4395 O   0  0  0  0  0  0  0  0  0  0  0  0
   21.0544   -4.1945  -13.1818 O   0  0  0  0  0  0  0  0  0  0  0  0
   21.4527   -5.2241  -16.7682 O   0  0  0  0  0  0  0  0  0  0  0  0
  2  3  1  1
  2  1  1  0
  4  2  1  0
  4  5  1  0
  5  7  1  0
  5  6  1  1
  7  8  2  0
 10  9  1  6
 10 12  1  0
 11  7  1  0
 11 10  1  0
 12 13  2  0
 14 12  1  0
 14 15  1  0
 15 19  1  0
 16 17  1  0
 15 16  1  6
 17 21  1  0
 17 18  2  0
 19 22  2  0
 19 20  1  0
M  END
$$$$
