LAD.pdb
     RDKit          3D

 22 21  0  0  1  0  0  0  0  0999 V2000
   27.5195  -13.1321  -15.1569 C   0  0  0  0  0  0  0  0  0  0  0  0
   26.9758  -13.0680  -16.5738 C   0  0  2  0  0  0  0  0  0  0  0  0
   28.1281  -13.0599  -17.5475 C   0  0  0  0  0  0  0  0  0  0  0  0
   26.0523  -11.9059  -16.7619 C   0  0  0  0  0  0  0  0  0  0  0  0
   24.8664  -11.9243  -15.8649 C   0  0  2  0  0  0  0  0  0  0  0  0
   24.1562  -13.1924  -15.9049 N   0  0  0  0  0  0  0  0  0  0  0  0
   23.8778  -10.8554  -16.1092 C   0  0  0  0  0  0  0  0  0  0  0  0
   24.1981   -9.6632  -16.3063 O   0  0  0  0  0  0  0  0  0  0  0  0
   20.0764  -10.6683  -16.4606 C   0  0  0  0  0  0  0  0  0  0  0  0
   21.4582  -10.1248  -16.3506 C   0  0  2  0  0  0  0  0  0  0  0  0
   22.4642  -11.1158  -16.1377 N   0  0  0  0  0  0  0  0  0  0  0  0
   21.4934   -9.0312  -15.3544 C   0  0  0  0  0  0  0  0  0  0  0  0
   21.7450   -9.2031  -14.1448 O   0  0  0  0  0  0  0  0  0  0  0  0
   21.2247   -7.7100  -15.8042 N   0  0  0  0  0  0  0  0  0  0  0  0
   21.1990   -6.5590  -14.9451 C   0  0  1  0  0  0  0  0  0  0  0  0
   22.4144   -5.7096  -15.1392 C   0  0  0  0  0  0  0  0  0  0  0  0
   22.4404   -4.5195  -14.2804 C   0  0  0  0  0  0  0  0  0  0  0  0
   22.0100   -3.4369  -14.7635 O   0  0  0  0  0  0  0  0  0  0  0  0
   19.9457   -5.8159  -14.9723 C   0  0  0  0  0  0  0  0  0  0  0  0
   19.5202   -5.1492  -13.8483 O   0  0  0  0  0  0  0  0  0  0  0  0
   22.9039   -4.5252  -12.9953 O   0  0  0  0  0  0  0  0  0  0  0  0
   19.2529   -5.7768  -16.0030 O   0  0  0  0  0  0  0  0  0  0  0  0
  2  3  1  6
  2  1  1  0
  4  2  1  0
  4  5  1  0
  5  7  1  0
  5  6  1  6
  7  8  2  0
 10  9  1  1
 10 12  1  0
 11  7  1  0
 11 10  1  0
 12 13  2  0
 14 12  1  0
 14 15  1  0
 15 19  1  0
 16 17  1  0
 15 16  1  6
 17 21  1  0
 17 18  2  0
 19 22  2  0
 19 20  1  0
M  END
$$$$
