LAD.pdb
     RDKit          3D

 22 21  0  0  1  0  0  0  0  0999 V2000
   17.8264  -27.5932   -2.0057 C   0  0  0  0  0  0  0  0  0  0  0  0
   18.9919  -26.7806   -1.4686 C   0  0  2  0  0  0  0  0  0  0  0  0
   20.0893  -26.7433   -2.5032 C   0  0  0  0  0  0  0  0  0  0  0  0
   19.4632  -27.2941   -0.1447 C   0  0  0  0  0  0  0  0  0  0  0  0
   18.4530  -27.1842    0.9411 C   0  0  2  0  0  0  0  0  0  0  0  0
   17.6291  -25.9926    0.8182 N   0  0  0  0  0  0  0  0  0  0  0  0
   19.0002  -27.2045    2.3121 C   0  0  0  0  0  0  0  0  0  0  0  0
   19.7159  -28.1329    2.7464 O   0  0  0  0  0  0  0  0  0  0  0  0
   18.8529  -24.8913    5.3534 C   0  0  0  0  0  0  0  0  0  0  0  0
   19.2196  -26.1207    4.5976 C   0  0  2  0  0  0  0  0  0  0  0  0
   18.7448  -26.1462    3.2511 N   0  0  0  0  0  0  0  0  0  0  0  0
   18.8431  -27.3226    5.3743 C   0  0  0  0  0  0  0  0  0  0  0  0
   17.9164  -28.0934    5.0530 O   0  0  0  0  0  0  0  0  0  0  0  0
   19.5812  -27.6134    6.5536 N   0  0  0  0  0  0  0  0  0  0  0  0
   19.3336  -28.7503    7.3959 C   0  0  1  0  0  0  0  0  0  0  0  0
   19.3095  -30.0182    6.6033 C   0  0  0  0  0  0  0  0  0  0  0  0
   19.0792  -31.2155    7.4206 C   0  0  0  0  0  0  0  0  0  0  0  0
   18.5380  -31.0611    8.5492 O   0  0  0  0  0  0  0  0  0  0  0  0
   20.1721  -28.8109    8.5863 C   0  0  0  0  0  0  0  0  0  0  0  0
   19.9115  -29.7443    9.5609 O   0  0  0  0  0  0  0  0  0  0  0  0
   19.4192  -32.4778    7.0240 O   0  0  0  0  0  0  0  0  0  0  0  0
   21.1243  -28.0263    8.7330 O   0  0  0  0  0  0  0  0  0  0  0  0
  2  3  1  6
  2  1  1  0
  4  2  1  0
  4  5  1  0
  5  7  1  0
  5  6  1  6
  7  8  2  0
 10  9  1  1
 10 12  1  0
 11  7  1  0
 11 10  1  0
 12 13  2  0
 14 12  1  0
 14 15  1  0
 15 19  1  0
 16 17  1  0
 15 16  1  6
 17 21  1  0
 17 18  2  0
 19 22  2  0
 19 20  1  0
M  END
$$$$
