LAD.pdb
     RDKit          3D

 22 21  0  0  1  0  0  0  0  0999 V2000
   27.1883  -13.8566  -16.0897 C   0  0  0  0  0  0  0  0  0  0  0  0
   26.2433  -13.7637  -17.2752 C   0  0  2  0  0  0  0  0  0  0  0  0
   26.9774  -14.1730  -18.5281 C   0  0  0  0  0  0  0  0  0  0  0  0
   25.6236  -12.4064  -17.3860 C   0  0  0  0  0  0  0  0  0  0  0  0
   24.7588  -12.0403  -16.2330 C   0  0  2  0  0  0  0  0  0  0  0  0
   23.8642  -13.1179  -15.8422 N   0  0  0  0  0  0  0  0  0  0  0  0
   23.9361  -10.8296  -16.4247 C   0  0  0  0  0  0  0  0  0  0  0  0
   24.4101   -9.7369  -16.8043 O   0  0  0  0  0  0  0  0  0  0  0  0
   20.2172   -9.9823  -16.1704 C   0  0  0  0  0  0  0  0  0  0  0  0
   21.6630   -9.6992  -16.3862 C   0  0  2  0  0  0  0  0  0  0  0  0
   22.5185  -10.8249  -16.1856 N   0  0  0  0  0  0  0  0  0  0  0  0
   22.0673   -8.5097  -15.6044 C   0  0  0  0  0  0  0  0  0  0  0  0
   22.5077   -8.5632  -14.4386 O   0  0  0  0  0  0  0  0  0  0  0  0
   21.9458   -7.2341  -16.2194 N   0  0  0  0  0  0  0  0  0  0  0  0
   22.4179   -6.0113  -15.6319 C   0  0  1  0  0  0  0  0  0  0  0  0
   22.8225   -5.0256  -16.6812 C   0  0  0  0  0  0  0  0  0  0  0  0
   23.3313   -3.7625  -16.1332 C   0  0  0  0  0  0  0  0  0  0  0  0
   22.4929   -2.8611  -15.8591 O   0  0  0  0  0  0  0  0  0  0  0  0
   21.5420   -5.4594  -14.6061 C   0  0  0  0  0  0  0  0  0  0  0  0
   20.2454   -5.9030  -14.5013 O   0  0  0  0  0  0  0  0  0  0  0  0
   24.6560   -3.5160  -15.9077 O   0  0  0  0  0  0  0  0  0  0  0  0
   21.9535   -4.5887  -13.8210 O   0  0  0  0  0  0  0  0  0  0  0  0
  2  3  1  6
  2  1  1  0
  4  2  1  0
  4  5  1  0
  5  7  1  0
  5  6  1  6
  7  8  2  0
 10  9  1  1
 10 12  1  0
 11  7  1  0
 11 10  1  0
 12 13  2  0
 14 12  1  0
 14 15  1  0
 15 19  1  0
 16 17  1  0
 15 16  1  6
 17 21  1  0
 17 18  2  0
 19 22  2  0
 19 20  1  0
M  END
$$$$
