LAD.pdb
     RDKit          3D

 22 21  0  0  1  0  0  0  0  0999 V2000
   18.4003  -15.8582    0.7102 C   0  0  0  0  0  0  0  0  0  0  0  0
   18.6092  -14.8874    1.8595 C   0  0  2  0  0  0  0  0  0  0  0  0
   20.0545  -14.4559    1.8879 C   0  0  0  0  0  0  0  0  0  0  0  0
   18.1524  -15.4634    3.1626 C   0  0  0  0  0  0  0  0  0  0  0  0
   16.7026  -15.7915    3.2039 C   0  0  2  0  0  0  0  0  0  0  0  0
   15.8660  -14.6085    3.3252 N   0  0  0  0  0  0  0  0  0  0  0  0
   16.3012  -16.7288    4.2716 C   0  0  0  0  0  0  0  0  0  0  0  0
   16.3270  -16.4304    5.4852 O   0  0  0  0  0  0  0  0  0  0  0  0
   15.0203  -20.3285    4.4176 C   0  0  0  0  0  0  0  0  0  0  0  0
   15.5250  -19.0423    4.9726 C   0  0  2  0  0  0  0  0  0  0  0  0
   15.8482  -18.0627    3.9850 N   0  0  0  0  0  0  0  0  0  0  0  0
   16.6284  -19.3008    5.9241 C   0  0  0  0  0  0  0  0  0  0  0  0
   17.8357  -19.1766    5.6360 O   0  0  0  0  0  0  0  0  0  0  0  0
   16.2905  -19.7141    7.2414 N   0  0  0  0  0  0  0  0  0  0  0  0
   17.2559  -19.9939    8.2675 C   0  0  1  0  0  0  0  0  0  0  0  0
   16.8320  -19.4213    9.5824 C   0  0  0  0  0  0  0  0  0  0  0  0
   17.7956  -19.6608   10.6634 C   0  0  0  0  0  0  0  0  0  0  0  0
   18.6127  -20.6111   10.5222 O   0  0  0  0  0  0  0  0  0  0  0  0
   17.6748  -21.3880    8.3353 C   0  0  0  0  0  0  0  0  0  0  0  0
   16.9548  -22.3527    7.6720 O   0  0  0  0  0  0  0  0  0  0  0  0
   17.8511  -18.9130   11.8054 O   0  0  0  0  0  0  0  0  0  0  0  0
   18.6792  -21.7183    8.9879 O   0  0  0  0  0  0  0  0  0  0  0  0
  2  3  1  1
  2  1  1  0
  4  2  1  0
  4  5  1  0
  5  7  1  0
  5  6  1  1
  7  8  2  0
 10  9  1  6
 10 12  1  0
 11  7  1  0
 11 10  1  0
 12 13  2  0
 14 12  1  0
 14 15  1  0
 15 19  1  0
 16 17  1  0
 15 16  1  1
 17 21  1  0
 17 18  2  0
 19 22  2  0
 19 20  1  0
M  END
$$$$
