LAD.pdb
     RDKit          3D

 22 21  0  0  1  0  0  0  0  0999 V2000
   18.5851  -14.1536    2.3885 C   0  0  0  0  0  0  0  0  0  0  0  0
   18.0238  -13.1942    3.4237 C   0  0  2  0  0  0  0  0  0  0  0  0
   18.9411  -12.0026    3.5445 C   0  0  0  0  0  0  0  0  0  0  0  0
   17.7816  -13.8723    4.7352 C   0  0  0  0  0  0  0  0  0  0  0  0
   16.8964  -15.0638    4.6458 C   0  0  2  0  0  0  0  0  0  0  0  0
   15.5686  -14.7366    4.1519 N   0  0  0  0  0  0  0  0  0  0  0  0
   16.7273  -15.8162    5.9047 C   0  0  0  0  0  0  0  0  0  0  0  0
   17.6841  -16.1250    6.6476 O   0  0  0  0  0  0  0  0  0  0  0  0
   13.7763  -17.2059    7.8948 C   0  0  0  0  0  0  0  0  0  0  0  0
   15.2123  -17.0235    7.5458 C   0  0  2  0  0  0  0  0  0  0  0  0
   15.4368  -16.2493    6.3670 N   0  0  0  0  0  0  0  0  0  0  0  0
   15.8978  -18.3347    7.5247 C   0  0  0  0  0  0  0  0  0  0  0  0
   16.3069  -18.8864    6.4834 O   0  0  0  0  0  0  0  0  0  0  0  0
   16.1004  -19.0018    8.7633 N   0  0  0  0  0  0  0  0  0  0  0  0
   16.9585  -20.1415    8.9303 C   0  0  1  0  0  0  0  0  0  0  0  0
   18.3478  -19.8486    8.4608 C   0  0  0  0  0  0  0  0  0  0  0  0
   19.2836  -20.9597    8.6710 C   0  0  0  0  0  0  0  0  0  0  0  0
   18.8201  -22.0394    9.1291 O   0  0  0  0  0  0  0  0  0  0  0  0
   16.8958  -20.7532   10.2516 C   0  0  0  0  0  0  0  0  0  0  0  0
   17.3379  -22.0421   10.4315 O   0  0  0  0  0  0  0  0  0  0  0  0
   20.6201  -20.8837    8.3982 O   0  0  0  0  0  0  0  0  0  0  0  0
   16.4458  -20.1221   11.2228 O   0  0  0  0  0  0  0  0  0  0  0  0
  2  3  1  1
  2  1  1  0
  4  2  1  0
  4  5  1  0
  5  7  1  0
  5  6  1  1
  7  8  2  0
 10  9  1  6
 10 12  1  0
 11  7  1  0
 11 10  1  0
 12 13  2  0
 14 12  1  0
 14 15  1  0
 15 19  1  0
 16 17  1  0
 15 16  1  1
 17 21  1  0
 17 18  2  0
 19 22  2  0
 19 20  1  0
M  END
$$$$
