LAD.pdb
     RDKit          3D

 22 21  0  0  1  0  0  0  0  0999 V2000
   21.9229  -14.3249  -18.9856 C   0  0  0  0  0  0  0  0  0  0  0  0
   20.5126  -13.7675  -18.8984 C   0  0  2  0  0  0  0  0  0  0  0  0
   19.7231  -14.2249  -20.0998 C   0  0  0  0  0  0  0  0  0  0  0  0
   20.5127  -12.2798  -18.7393 C   0  0  0  0  0  0  0  0  0  0  0  0
   20.5662  -11.8226  -17.3253 C   0  0  2  0  0  0  0  0  0  0  0  0
   19.9401  -12.7635  -16.4106 N   0  0  0  0  0  0  0  0  0  0  0  0
   19.9707  -10.4957  -17.0715 C   0  0  0  0  0  0  0  0  0  0  0  0
   20.3602   -9.4538  -17.6419 O   0  0  0  0  0  0  0  0  0  0  0  0
   17.0523   -9.1147  -15.0462 C   0  0  0  0  0  0  0  0  0  0  0  0
   18.3622   -9.0419  -15.7504 C   0  0  2  0  0  0  0  0  0  0  0  0
   18.8906  -10.3098  -16.1412 N   0  0  0  0  0  0  0  0  0  0  0  0
   19.3147   -8.2281  -14.9630 C   0  0  0  0  0  0  0  0  0  0  0  0
   20.2487   -8.7105  -14.2915 O   0  0  0  0  0  0  0  0  0  0  0  0
   19.1541   -6.8159  -14.9742 N   0  0  0  0  0  0  0  0  0  0  0  0
   20.0639   -5.8993  -14.3454 C   0  0  1  0  0  0  0  0  0  0  0  0
   21.4818   -6.2085  -14.7063 C   0  0  0  0  0  0  0  0  0  0  0  0
   22.4490   -5.2546  -14.1501 C   0  0  0  0  0  0  0  0  0  0  0  0
   22.2927   -4.8901  -12.9530 O   0  0  0  0  0  0  0  0  0  0  0  0
   19.7055   -4.4952  -14.4994 C   0  0  0  0  0  0  0  0  0  0  0  0
   18.8787   -4.1080  -15.5267 O   0  0  0  0  0  0  0  0  0  0  0  0
   23.5007   -4.7456  -14.8582 O   0  0  0  0  0  0  0  0  0  0  0  0
   20.1393   -3.6389  -13.7105 O   0  0  0  0  0  0  0  0  0  0  0  0
  2  3  1  6
  2  1  1  0
  4  2  1  0
  4  5  1  0
  5  7  1  0
  5  6  1  1
  7  8  2  0
 10  9  1  1
 10 12  1  0
 11  7  1  0
 11 10  1  0
 12 13  2  0
 14 12  1  0
 14 15  1  0
 15 19  1  0
 16 17  1  0
 15 16  1  6
 17 21  1  0
 17 18  2  0
 19 22  2  0
 19 20  1  0
M  END
$$$$
