LAD.pdb
     RDKit          3D

 22 21  0  0  1  0  0  0  0  0999 V2000
   19.6989  -12.5159  -19.5226 C   0  0  0  0  0  0  0  0  0  0  0  0
   18.5825  -11.7824  -18.7995 C   0  0  2  0  0  0  0  0  0  0  0  0
   17.3376  -11.8100  -19.6512 C   0  0  0  0  0  0  0  0  0  0  0  0
   18.9884  -10.3947  -18.4144 C   0  0  0  0  0  0  0  0  0  0  0  0
   19.9693  -10.3392  -17.2981 C   0  0  2  0  0  0  0  0  0  0  0  0
   19.9213  -11.5219  -16.4538 N   0  0  0  0  0  0  0  0  0  0  0  0
   19.8510   -9.1609  -16.4165 C   0  0  0  0  0  0  0  0  0  0  0  0
   19.8053   -7.9887  -16.8484 O   0  0  0  0  0  0  0  0  0  0  0  0
   19.3299   -8.5634  -12.6865 C   0  0  0  0  0  0  0  0  0  0  0  0
   19.6979   -8.1833  -14.0783 C   0  0  2  0  0  0  0  0  0  0  0  0
   19.7793   -9.2829  -14.9859 N   0  0  0  0  0  0  0  0  0  0  0  0
   20.9150   -7.3417  -14.0673 C   0  0  0  0  0  0  0  0  0  0  0  0
   22.0436   -7.7506  -14.4066 O   0  0  0  0  0  0  0  0  0  0  0  0
   20.7882   -5.9904  -13.6456 N   0  0  0  0  0  0  0  0  0  0  0  0
   21.7275   -4.9549  -13.9753 C   0  0  1  0  0  0  0  0  0  0  0  0
   21.9951   -4.9128  -15.4460 C   0  0  0  0  0  0  0  0  0  0  0  0
   22.9500   -3.8692  -15.8379 C   0  0  0  0  0  0  0  0  0  0  0  0
   22.5481   -2.6738  -15.8341 O   0  0  0  0  0  0  0  0  0  0  0  0
   21.4201   -3.6556  -13.3911 C   0  0  0  0  0  0  0  0  0  0  0  0
   22.4398   -2.8308  -12.9803 O   0  0  0  0  0  0  0  0  0  0  0  0
   24.2409   -4.1254  -16.2042 O   0  0  0  0  0  0  0  0  0  0  0  0
   20.2427   -3.2815  -13.2586 O   0  0  0  0  0  0  0  0  0  0  0  0
  2  3  1  6
  2  1  1  0
  4  2  1  0
  4  5  1  0
  5  7  1  0
  5  6  1  1
  7  8  2  0
 10  9  1  1
 10 12  1  0
 11  7  1  0
 11 10  1  0
 12 13  2  0
 14 12  1  0
 14 15  1  0
 15 19  1  0
 16 17  1  0
 15 16  1  6
 17 21  1  0
 17 18  2  0
 19 22  2  0
 19 20  1  0
M  END
$$$$
