FCM.pdb
     RDKit          3D

 26 26  0  0  1  0  0  0  0  0999 V2000
   22.5319  -17.4706  -15.6221 N   0  0  0  0  0  0  0  0  0  0  0  0
   22.3788  -18.8928  -15.3420 C   0  0  1  0  0  0  0  0  0  0  0  0
   22.0916  -19.6411  -16.6259 C   0  0  0  0  0  0  0  0  0  0  0  0
   20.7718  -19.3611  -17.1954 C   0  0  0  0  0  0  0  0  0  0  0  0
   19.6159  -19.9598  -16.7558 C   0  0  0  0  0  0  0  0  0  0  0  0
   18.4316  -19.6466  -17.3438 C   0  0  0  0  0  0  0  0  0  0  0  0
   18.3749  -18.7406  -18.3693 C   0  0  0  0  0  0  0  0  0  0  0  0
   19.5228  -18.1322  -18.8214 C   0  0  0  0  0  0  0  0  0  0  0  0
   20.7081  -18.4413  -18.2383 C   0  0  0  0  0  0  0  0  0  0  0  0
   23.7050  -19.3801  -14.8696 C   0  0  0  0  0  0  0  0  0  0  0  0
   24.7937  -19.0281  -15.4260 O   0  0  0  0  0  0  0  0  0  0  0  0
   23.7488  -20.2827  -13.7425 N   0  0  0  0  0  0  0  0  0  0  0  0
   25.0331  -20.8019  -13.3103 C   0  0  1  0  0  0  0  0  0  0  0  0
   24.7984  -21.3304  -11.8988 C   0  0  0  0  0  0  0  0  0  0  0  0
   26.3472  -22.1787  -11.4225 S   0  0  0  0  0  0  0  0  0  0  0  0
   25.4093  -21.9028  -14.2321 C   0  0  0  0  0  0  0  0  0  0  0  0
   24.6173  -22.8380  -14.4579 O   0  0  0  0  0  0  0  0  0  0  0  0
   23.7773  -22.7028  -18.7391 C   0  0  0  0  0  0  0  0  0  0  0  0
   25.2611  -23.4965  -19.4103 S   0  0  0  0  0  0  0  0  0  0  0  0
   26.5275  -23.7095  -18.1239 C   0  0  0  0  0  0  0  0  0  0  0  0
   26.1595  -22.8179  -16.9843 C   0  0  0  0  0  0  0  0  0  0  0  0
   27.1255  -22.8813  -15.8136 C   0  0  2  0  0  0  0  0  0  0  0  0
   26.6859  -21.8692  -14.8479 N   0  0  0  0  0  0  0  0  0  0  0  0
   28.5063  -22.4994  -16.1876 C   0  0  0  0  0  0  0  0  0  0  0  0
   28.7937  -21.2803  -16.2505 O   0  0  0  0  0  0  0  0  0  0  0  0
   29.5109  -23.4110  -16.4744 O   0  0  0  0  0  0  0  0  0  0  0  0
  2  1  1  6
  3  2  1  0
  3  4  1  0
  4  9  2  0
  5  6  2  0
  5  4  1  0
  6  7  1  0
  7  8  2  0
  9  8  1  0
 10  2  1  0
 10 11  2  0
 12 10  1  0
 13 16  1  0
 13 12  1  0
 13 14  1  1
 15 14  1  0
 16 23  1  0
 17 16  2  0
 18 19  1  0
 19 20  1  0
 20 21  1  0
 22 21  1  6
 22 24  1  0
 23 22  1  0
 24 25  2  0
 24 26  1  0
M  END
$$$$
