FCM.pdb
     RDKit          3D

 26 26  0  0  1  0  0  0  0  0999 V2000
   25.2032  -18.5320  -15.7648 N   0  0  0  0  0  0  0  0  0  0  0  0
   26.1790  -18.6290  -14.6864 C   0  0  1  0  0  0  0  0  0  0  0  0
   26.9320  -17.3224  -14.5562 C   0  0  0  0  0  0  0  0  0  0  0  0
   28.0426  -17.1792  -15.5000 C   0  0  0  0  0  0  0  0  0  0  0  0
   29.1531  -17.9881  -15.4895 C   0  0  0  0  0  0  0  0  0  0  0  0
   30.1420  -17.7832  -16.3987 C   0  0  0  0  0  0  0  0  0  0  0  0
   30.0457  -16.7804  -17.3267 C   0  0  0  0  0  0  0  0  0  0  0  0
   28.9407  -15.9617  -17.3507 C   0  0  0  0  0  0  0  0  0  0  0  0
   27.9504  -16.1614  -16.4452 C   0  0  0  0  0  0  0  0  0  0  0  0
   25.4050  -18.7854  -13.4231 C   0  0  0  0  0  0  0  0  0  0  0  0
   24.4668  -17.9889  -13.1002 O   0  0  0  0  0  0  0  0  0  0  0  0
   25.7368  -19.8793  -12.5398 N   0  0  0  0  0  0  0  0  0  0  0  0
   25.0058  -20.0201  -11.2941 C   0  0  1  0  0  0  0  0  0  0  0  0
   23.8205  -20.9220  -11.6235 C   0  0  0  0  0  0  0  0  0  0  0  0
   22.9620  -21.2135  -10.0350 S   0  0  0  0  0  0  0  0  0  0  0  0
   25.9084  -20.6701  -10.3112 C   0  0  0  0  0  0  0  0  0  0  0  0
   26.5233  -21.7122  -10.6088 O   0  0  0  0  0  0  0  0  0  0  0  0
   30.2840  -18.9302   -5.5638 C   0  0  0  0  0  0  0  0  0  0  0  0
   28.6483  -19.1064   -4.8054 S   0  0  0  0  0  0  0  0  0  0  0  0
   27.6702  -20.3849   -5.6497 C   0  0  0  0  0  0  0  0  0  0  0  0
   27.2678  -19.8335   -6.9776 C   0  0  0  0  0  0  0  0  0  0  0  0
   26.5461  -20.8310   -7.8675 C   0  0  2  0  0  0  0  0  0  0  0  0
   26.0550  -20.0829   -9.0290 N   0  0  0  0  0  0  0  0  0  0  0  0
   25.3409  -21.4047   -7.2267 C   0  0  0  0  0  0  0  0  0  0  0  0
   24.2821  -20.7327   -7.2339 O   0  0  0  0  0  0  0  0  0  0  0  0
   25.3072  -22.6484   -6.6146 O   0  0  0  0  0  0  0  0  0  0  0  0
  2  1  1  6
  3  2  1  0
  3  4  1  0
  4  9  2  0
  5  6  2  0
  5  4  1  0
  6  7  1  0
  7  8  2  0
  9  8  1  0
 10  2  1  0
 10 11  2  0
 12 10  1  0
 13 16  1  0
 13 12  1  0
 13 14  1  6
 15 14  1  0
 16 23  1  0
 17 16  2  0
 18 19  1  0
 19 20  1  0
 20 21  1  0
 22 21  1  1
 22 24  1  0
 23 22  1  0
 24 25  2  0
 24 26  1  0
M  END
$$$$
