FCM.pdb
     RDKit          3D

 26 26  0  0  1  0  0  0  0  0999 V2000
   18.6810  -26.6883  -10.1123 N   0  0  0  0  0  0  0  0  0  0  0  0
   18.5991  -25.4933   -9.2817 C   0  0  1  0  0  0  0  0  0  0  0  0
   17.7248  -24.4580   -9.9561 C   0  0  0  0  0  0  0  0  0  0  0  0
   18.3032  -23.8962  -11.1786 C   0  0  0  0  0  0  0  0  0  0  0  0
   17.8979  -24.2553  -12.4413 C   0  0  0  0  0  0  0  0  0  0  0  0
   18.4919  -23.6885  -13.5241 C   0  0  0  0  0  0  0  0  0  0  0  0
   19.4897  -22.7625  -13.3730 C   0  0  0  0  0  0  0  0  0  0  0  0
   19.9072  -22.3919  -12.1158 C   0  0  0  0  0  0  0  0  0  0  0  0
   19.3179  -22.9547  -11.0311 C   0  0  0  0  0  0  0  0  0  0  0  0
   17.8835  -25.8876   -8.0359 C   0  0  0  0  0  0  0  0  0  0  0  0
   16.8004  -26.5549   -8.0589 O   0  0  0  0  0  0  0  0  0  0  0  0
   18.4429  -25.4949   -6.7632 N   0  0  0  0  0  0  0  0  0  0  0  0
   17.7436  -25.8647   -5.5466 C   0  0  1  0  0  0  0  0  0  0  0  0
   18.8017  -25.8291   -4.4484 C   0  0  0  0  0  0  0  0  0  0  0  0
   17.9239  -26.2484   -2.8996 S   0  0  0  0  0  0  0  0  0  0  0  0
   16.6923  -24.8459   -5.3019 C   0  0  0  0  0  0  0  0  0  0  0  0
   16.9133  -23.6408   -5.5289 O   0  0  0  0  0  0  0  0  0  0  0  0
    8.8377  -24.5986   -4.2347 C   0  0  0  0  0  0  0  0  0  0  0  0
   10.3911  -25.4422   -4.6311 S   0  0  0  0  0  0  0  0  0  0  0  0
   11.8123  -24.3293   -4.4186 C   0  0  0  0  0  0  0  0  0  0  0  0
   13.0453  -25.1215   -4.7041 C   0  0  0  0  0  0  0  0  0  0  0  0
   14.3359  -24.3394   -4.5303 C   0  0  2  0  0  0  0  0  0  0  0  0
   15.4346  -25.2711   -4.8042 N   0  0  0  0  0  0  0  0  0  0  0  0
   14.5446  -23.8782   -3.1389 C   0  0  0  0  0  0  0  0  0  0  0  0
   14.0467  -22.7810   -2.7913 O   0  0  0  0  0  0  0  0  0  0  0  0
   15.2608  -24.5879   -2.1872 O   0  0  0  0  0  0  0  0  0  0  0  0
  2  1  1  6
  3  2  1  0
  3  4  1  0
  4  9  2  0
  5  6  2  0
  5  4  1  0
  6  7  1  0
  7  8  2  0
  9  8  1  0
 10  2  1  0
 10 11  2  0
 12 10  1  0
 13 16  1  0
 13 12  1  0
 13 14  1  1
 15 14  1  0
 16 23  1  0
 17 16  2  0
 18 19  1  0
 19 20  1  0
 20 21  1  0
 22 21  1  1
 22 24  1  0
 23 22  1  0
 24 25  2  0
 24 26  1  0
M  END
$$$$
