FCM.pdb
     RDKit          3D

 26 26  0  0  1  0  0  0  0  0999 V2000
   19.8462  -26.8641  -10.6457 N   0  0  0  0  0  0  0  0  0  0  0  0
   18.9229  -25.9853   -9.9388 C   0  0  1  0  0  0  0  0  0  0  0  0
   17.5802  -25.9820  -10.6375 C   0  0  0  0  0  0  0  0  0  0  0  0
   17.5994  -25.3539  -11.9603 C   0  0  0  0  0  0  0  0  0  0  0  0
   17.7183  -26.0616  -13.1320 C   0  0  0  0  0  0  0  0  0  0  0  0
   17.7330  -25.3991  -14.3183 C   0  0  0  0  0  0  0  0  0  0  0  0
   17.6300  -24.0340  -14.3614 C   0  0  0  0  0  0  0  0  0  0  0  0
   17.5104  -23.3105  -13.1976 C   0  0  0  0  0  0  0  0  0  0  0  0
   17.4954  -23.9666  -12.0102 C   0  0  0  0  0  0  0  0  0  0  0  0
   18.6892  -26.5986   -8.6014 C   0  0  0  0  0  0  0  0  0  0  0  0
   18.9814  -27.8115   -8.3517 O   0  0  0  0  0  0  0  0  0  0  0  0
   18.1103  -25.7837   -7.5584 N   0  0  0  0  0  0  0  0  0  0  0  0
   18.0287  -26.3215   -6.2131 C   0  0  1  0  0  0  0  0  0  0  0  0
   19.0581  -25.5385   -5.4043 C   0  0  0  0  0  0  0  0  0  0  0  0
   18.6684  -23.7730   -5.6812 S   0  0  0  0  0  0  0  0  0  0  0  0
   16.6559  -26.0699   -5.7080 C   0  0  0  0  0  0  0  0  0  0  0  0
   16.0054  -25.0845   -6.1062 O   0  0  0  0  0  0  0  0  0  0  0  0
   13.5869  -29.5385   -0.2721 C   0  0  0  0  0  0  0  0  0  0  0  0
   12.8740  -29.6329   -1.9348 S   0  0  0  0  0  0  0  0  0  0  0  0
   13.0698  -28.0579   -2.8208 C   0  0  0  0  0  0  0  0  0  0  0  0
   14.4327  -28.0560   -3.4304 C   0  0  0  0  0  0  0  0  0  0  0  0
   14.7829  -26.7681   -4.1560 C   0  0  2  0  0  0  0  0  0  0  0  0
   16.1017  -26.9710   -4.7640 N   0  0  0  0  0  0  0  0  0  0  0  0
   14.9420  -25.6172   -3.2383 C   0  0  0  0  0  0  0  0  0  0  0  0
   16.0677  -25.4124   -2.7250 O   0  0  0  0  0  0  0  0  0  0  0  0
   13.9175  -24.7434   -2.9076 O   0  0  0  0  0  0  0  0  0  0  0  0
  2  1  1  6
  3  2  1  0
  3  4  1  0
  4  9  2  0
  5  6  2  0
  5  4  1  0
  6  7  1  0
  7  8  2  0
  9  8  1  0
 10  2  1  0
 10 11  2  0
 12 10  1  0
 13 16  1  0
 13 12  1  0
 13 14  1  1
 15 14  1  0
 16 23  1  0
 17 16  2  0
 18 19  1  0
 19 20  1  0
 20 21  1  0
 22 21  1  1
 22 24  1  0
 23 22  1  0
 24 25  2  0
 24 26  1  0
M  END
$$$$
