FCM.pdb
     RDKit          3D

 26 26  0  0  1  0  0  0  0  0999 V2000
   23.9881  -19.6609  -18.5797 N   0  0  0  0  0  0  0  0  0  0  0  0
   24.5059  -18.7383  -17.5771 C   0  0  1  0  0  0  0  0  0  0  0  0
   23.3775  -17.8950  -17.0236 C   0  0  0  0  0  0  0  0  0  0  0  0
   22.8255  -16.9361  -17.9830 C   0  0  0  0  0  0  0  0  0  0  0  0
   21.6251  -17.1161  -18.6267 C   0  0  0  0  0  0  0  0  0  0  0  0
   21.1880  -16.1782  -19.5075 C   0  0  0  0  0  0  0  0  0  0  0  0
   21.9286  -15.0546  -19.7617 C   0  0  0  0  0  0  0  0  0  0  0  0
   23.1326  -14.8591  -19.1257 C   0  0  0  0  0  0  0  0  0  0  0  0
   23.5741  -15.7922  -18.2455 C   0  0  0  0  0  0  0  0  0  0  0  0
   24.9924  -19.5711  -16.4416 C   0  0  0  0  0  0  0  0  0  0  0  0
   24.3453  -20.5804  -16.0155 O   0  0  0  0  0  0  0  0  0  0  0  0
   26.2403  -19.2144  -15.8072 N   0  0  0  0  0  0  0  0  0  0  0  0
   26.7949  -20.1032  -14.8031 C   0  0  1  0  0  0  0  0  0  0  0  0
   28.3080  -19.9578  -14.9295 C   0  0  0  0  0  0  0  0  0  0  0  0
   28.7955  -21.0352  -16.3248 S   0  0  0  0  0  0  0  0  0  0  0  0
   26.3270  -19.6334  -13.4752 C   0  0  0  0  0  0  0  0  0  0  0  0
   26.0185  -18.4391  -13.2987 O   0  0  0  0  0  0  0  0  0  0  0  0
   21.3169  -21.3796  -12.2048 C   0  0  0  0  0  0  0  0  0  0  0  0
   21.4477  -20.1424  -10.8880 S   0  0  0  0  0  0  0  0  0  0  0  0
   23.1675  -19.9632  -10.3275 C   0  0  0  0  0  0  0  0  0  0  0  0
   24.0494  -20.2390  -11.5003 C   0  0  0  0  0  0  0  0  0  0  0  0
   25.5299  -20.2831  -11.1629 C   0  0  2  0  0  0  0  0  0  0  0  0
   26.2399  -20.5691  -12.4135 N   0  0  0  0  0  0  0  0  0  0  0  0
   25.8770  -21.3933  -10.2469 C   0  0  0  0  0  0  0  0  0  0  0  0
   26.1632  -22.5097  -10.7413 O   0  0  0  0  0  0  0  0  0  0  0  0
   25.9070  -21.2768   -8.8655 O   0  0  0  0  0  0  0  0  0  0  0  0
  2  1  1  6
  3  2  1  0
  3  4  1  0
  4  9  2  0
  5  6  2  0
  5  4  1  0
  6  7  1  0
  7  8  2  0
  9  8  1  0
 10  2  1  0
 10 11  2  0
 12 10  1  0
 13 16  1  0
 13 12  1  0
 13 14  1  1
 15 14  1  0
 16 23  1  0
 17 16  2  0
 18 19  1  0
 19 20  1  0
 20 21  1  0
 22 21  1  6
 22 24  1  0
 23 22  1  0
 24 25  2  0
 24 26  1  0
M  END
$$$$
