FCM.pdb
     RDKit          3D

 26 26  0  0  1  0  0  0  0  0999 V2000
   22.1862  -19.0597  -17.9386 N   0  0  0  0  0  0  0  0  0  0  0  0
   22.9504  -18.2725  -16.9790 C   0  0  1  0  0  0  0  0  0  0  0  0
   22.0073  -17.5116  -16.0720 C   0  0  0  0  0  0  0  0  0  0  0  0
   21.2712  -16.4389  -16.7444 C   0  0  0  0  0  0  0  0  0  0  0  0
   21.8541  -15.2654  -17.1576 C   0  0  0  0  0  0  0  0  0  0  0  0
   21.0964  -14.3182  -17.7702 C   0  0  0  0  0  0  0  0  0  0  0  0
   19.7582  -14.5186  -17.9820 C   0  0  0  0  0  0  0  0  0  0  0  0
   19.1590  -15.6878  -17.5744 C   0  0  0  0  0  0  0  0  0  0  0  0
   19.9106  -16.6368  -16.9620 C   0  0  0  0  0  0  0  0  0  0  0  0
   23.6677  -19.2430  -16.1055 C   0  0  0  0  0  0  0  0  0  0  0  0
   23.1473  -20.3487  -15.7511 O   0  0  0  0  0  0  0  0  0  0  0  0
   24.9972  -18.9109  -15.6485 N   0  0  0  0  0  0  0  0  0  0  0  0
   25.7246  -19.8777  -14.8473 C   0  0  1  0  0  0  0  0  0  0  0  0
   27.1778  -19.7588  -15.2954 C   0  0  0  0  0  0  0  0  0  0  0  0
   27.9435  -18.5310  -14.1766 S   0  0  0  0  0  0  0  0  0  0  0  0
   25.5762  -19.4876  -13.4229 C   0  0  0  0  0  0  0  0  0  0  0  0
   24.9898  -18.4327  -13.1131 O   0  0  0  0  0  0  0  0  0  0  0  0
   21.9534  -20.9620   -7.2739 C   0  0  0  0  0  0  0  0  0  0  0  0
   22.4845  -21.0611   -9.0030 S   0  0  0  0  0  0  0  0  0  0  0  0
   24.1693  -20.4104   -9.2080 C   0  0  0  0  0  0  0  0  0  0  0  0
   24.4956  -20.4690  -10.6637 C   0  0  0  0  0  0  0  0  0  0  0  0
   25.9301  -20.0909  -10.9908 C   0  0  2  0  0  0  0  0  0  0  0  0
   26.1156  -20.3374  -12.4243 N   0  0  0  0  0  0  0  0  0  0  0  0
   26.9210  -20.9538  -10.3085 C   0  0  0  0  0  0  0  0  0  0  0  0
   27.2605  -22.0273  -10.8608 O   0  0  0  0  0  0  0  0  0  0  0  0
   27.5033  -20.6484   -9.0877 O   0  0  0  0  0  0  0  0  0  0  0  0
  2  1  1  6
  3  2  1  0
  3  4  1  0
  4  9  2  0
  5  6  2  0
  5  4  1  0
  6  7  1  0
  7  8  2  0
  9  8  1  0
 10  2  1  0
 10 11  2  0
 12 10  1  0
 13 16  1  0
 13 12  1  0
 13 14  1  6
 15 14  1  0
 16 23  1  0
 17 16  2  0
 18 19  1  0
 19 20  1  0
 20 21  1  0
 22 21  1  1
 22 24  1  0
 23 22  1  0
 24 25  2  0
 24 26  1  0
M  END
$$$$
