FCM.pdb
     RDKit          3D

 26 26  0  0  1  0  0  0  0  0999 V2000
   20.9642  -21.4214  -14.0093 N   0  0  0  0  0  0  0  0  0  0  0  0
   22.0370  -20.4478  -13.8482 C   0  0  1  0  0  0  0  0  0  0  0  0
   21.4591  -19.1094  -13.4410 C   0  0  0  0  0  0  0  0  0  0  0  0
   20.9203  -18.3296  -14.5574 C   0  0  0  0  0  0  0  0  0  0  0  0
   21.6927  -17.8506  -15.5877 C   0  0  0  0  0  0  0  0  0  0  0  0
   21.1128  -17.1299  -16.5831 C   0  0  0  0  0  0  0  0  0  0  0  0
   19.7671  -16.8752  -16.5730 C   0  0  0  0  0  0  0  0  0  0  0  0
   18.9796  -17.3473  -15.5488 C   0  0  0  0  0  0  0  0  0  0  0  0
   19.5532  -18.0673  -14.5522 C   0  0  0  0  0  0  0  0  0  0  0  0
   22.8613  -20.9078  -12.6957 C   0  0  0  0  0  0  0  0  0  0  0  0
   22.3393  -21.3459  -11.6212 O   0  0  0  0  0  0  0  0  0  0  0  0
   24.3004  -20.8508  -12.8083 N   0  0  0  0  0  0  0  0  0  0  0  0
   25.1092  -21.4351  -11.7546 C   0  0  1  0  0  0  0  0  0  0  0  0
   26.0971  -22.3525  -12.4684 C   0  0  0  0  0  0  0  0  0  0  0  0
   27.3298  -22.8330  -11.2055 S   0  0  0  0  0  0  0  0  0  0  0  0
   25.8182  -20.3296  -11.0629 C   0  0  0  0  0  0  0  0  0  0  0  0
   26.1154  -19.2864  -11.6762 O   0  0  0  0  0  0  0  0  0  0  0  0
   27.8400  -21.0989   -4.5277 C   0  0  0  0  0  0  0  0  0  0  0  0
   27.7377  -19.3624   -5.0338 S   0  0  0  0  0  0  0  0  0  0  0  0
   28.1530  -19.1682   -6.7927 C   0  0  0  0  0  0  0  0  0  0  0  0
   27.0603  -19.8103   -7.5820 C   0  0  0  0  0  0  0  0  0  0  0  0
   27.3087  -19.8268   -9.0806 C   0  0  2  0  0  0  0  0  0  0  0  0
   26.1508  -20.4854   -9.6935 N   0  0  0  0  0  0  0  0  0  0  0  0
   28.4797  -20.6500   -9.4593 C   0  0  0  0  0  0  0  0  0  0  0  0
   29.4401  -20.0922  -10.0416 O   0  0  0  0  0  0  0  0  0  0  0  0
   28.5838  -22.0098   -9.2086 O   0  0  0  0  0  0  0  0  0  0  0  0
  2  1  1  1
  3  2  1  0
  3  4  1  0
  4  9  2  0
  5  6  2  0
  5  4  1  0
  6  7  1  0
  7  8  2  0
  9  8  1  0
 10  2  1  0
 10 11  2  0
 12 10  1  0
 13 16  1  0
 13 12  1  0
 13 14  1  6
 15 14  1  0
 16 23  1  0
 17 16  2  0
 18 19  1  0
 19 20  1  0
 20 21  1  0
 22 21  1  1
 22 24  1  0
 23 22  1  0
 24 25  2  0
 24 26  1  0
M  END
$$$$
