FCM.pdb
     RDKit          3D

 26 26  0  0  1  0  0  0  0  0999 V2000
   19.7925  -15.1716  -15.2102 N   0  0  0  0  0  0  0  0  0  0  0  0
   18.6634  -14.4936  -15.8348 C   0  0  1  0  0  0  0  0  0  0  0  0
   17.3971  -15.2919  -15.6107 C   0  0  0  0  0  0  0  0  0  0  0  0
   17.3501  -16.5537  -16.3526 C   0  0  0  0  0  0  0  0  0  0  0  0
   17.5850  -17.7788  -15.7768 C   0  0  0  0  0  0  0  0  0  0  0  0
   17.5266  -18.9018  -16.5395 C   0  0  0  0  0  0  0  0  0  0  0  0
   17.2356  -18.8284  -17.8759 C   0  0  0  0  0  0  0  0  0  0  0  0
   16.9978  -17.6098  -18.4679 C   0  0  0  0  0  0  0  0  0  0  0  0
   17.0551  -16.4852  -17.7113 C   0  0  0  0  0  0  0  0  0  0  0  0
   18.4765  -13.2108  -15.1007 C   0  0  0  0  0  0  0  0  0  0  0  0
   18.7082  -13.1035  -13.8542 O   0  0  0  0  0  0  0  0  0  0  0  0
   18.0155  -12.0549  -15.8343 N   0  0  0  0  0  0  0  0  0  0  0  0
   17.8536  -10.7968  -15.1297 C   0  0  1  0  0  0  0  0  0  0  0  0
   18.6236   -9.7715  -15.9559 C   0  0  0  0  0  0  0  0  0  0  0  0
   18.4053   -8.1736  -15.0930 S   0  0  0  0  0  0  0  0  0  0  0  0
   16.4046  -10.4758  -15.1045 C   0  0  0  0  0  0  0  0  0  0  0  0
   15.7181  -10.5656  -16.1405 O   0  0  0  0  0  0  0  0  0  0  0  0
   11.1765  -11.7547  -11.0389 C   0  0  0  0  0  0  0  0  0  0  0  0
   12.6414  -10.9741  -10.3132 S   0  0  0  0  0  0  0  0  0  0  0  0
   13.3846   -9.7803  -11.4649 C   0  0  0  0  0  0  0  0  0  0  0  0
   13.7969  -10.5356  -12.6851 C   0  0  0  0  0  0  0  0  0  0  0  0
   14.4119   -9.6682  -13.7700 C   0  0  2  0  0  0  0  0  0  0  0  0
   15.8193  -10.0644  -13.8804 N   0  0  0  0  0  0  0  0  0  0  0  0
   14.4311   -8.2312  -13.4138 C   0  0  0  0  0  0  0  0  0  0  0  0
   13.3472   -7.6004  -13.4131 O   0  0  0  0  0  0  0  0  0  0  0  0
   15.5803   -7.5322  -13.0772 O   0  0  0  0  0  0  0  0  0  0  0  0
  2  1  1  1
  3  2  1  0
  3  4  1  0
  4  9  2  0
  5  6  2  0
  5  4  1  0
  6  7  1  0
  7  8  2  0
  9  8  1  0
 10  2  1  0
 10 11  2  0
 12 10  1  0
 13 16  1  0
 13 12  1  0
 13 14  1  6
 15 14  1  0
 16 23  1  0
 17 16  2  0
 18 19  1  0
 19 20  1  0
 20 21  1  0
 22 21  1  1
 22 24  1  0
 23 22  1  0
 24 25  2  0
 24 26  1  0
M  END
$$$$
