FCM.pdb
     RDKit          3D

 26 26  0  0  1  0  0  0  0  0999 V2000
   24.6890  -19.7488  -17.6774 N   0  0  0  0  0  0  0  0  0  0  0  0
   25.0690  -18.8338  -16.6084 C   0  0  1  0  0  0  0  0  0  0  0  0
   23.8411  -18.1257  -16.0776 C   0  0  0  0  0  0  0  0  0  0  0  0
   23.2675  -17.1511  -17.0082 C   0  0  0  0  0  0  0  0  0  0  0  0
   22.0927  -17.3572  -17.6902 C   0  0  0  0  0  0  0  0  0  0  0  0
   21.6329  -16.4019  -18.5402 C   0  0  0  0  0  0  0  0  0  0  0  0
   22.3255  -15.2350  -18.7256 C   0  0  0  0  0  0  0  0  0  0  0  0
   23.5033  -15.0129  -18.0506 C   0  0  0  0  0  0  0  0  0  0  0  0
   23.9673  -15.9633  -17.2009 C   0  0  0  0  0  0  0  0  0  0  0  0
   25.5761  -19.6740  -15.4875 C   0  0  0  0  0  0  0  0  0  0  0  0
   24.9187  -20.6629  -15.0307 O   0  0  0  0  0  0  0  0  0  0  0  0
   26.8569  -19.3487  -14.9038 N   0  0  0  0  0  0  0  0  0  0  0  0
   27.3527  -20.1586  -13.8066 C   0  0  1  0  0  0  0  0  0  0  0  0
   28.8261  -19.7886  -13.6678 C   0  0  0  0  0  0  0  0  0  0  0  0
   29.4388  -20.7245  -12.2208 S   0  0  0  0  0  0  0  0  0  0  0  0
   26.5950  -19.7809  -12.5874 C   0  0  0  0  0  0  0  0  0  0  0  0
   26.3408  -18.5854  -12.3449 O   0  0  0  0  0  0  0  0  0  0  0  0
   21.9538  -20.7375  -11.8667 C   0  0  0  0  0  0  0  0  0  0  0  0
   21.9485  -20.3631  -10.0943 S   0  0  0  0  0  0  0  0  0  0  0  0
   23.3574  -21.1478   -9.2558 C   0  0  0  0  0  0  0  0  0  0  0  0
   24.3557  -21.5092  -10.3055 C   0  0  0  0  0  0  0  0  0  0  0  0
   25.5073  -20.5259  -10.4273 C   0  0  2  0  0  0  0  0  0  0  0  0
   26.1686  -20.8061  -11.7057 N   0  0  0  0  0  0  0  0  0  0  0  0
   26.5456  -20.7269   -9.3911 C   0  0  0  0  0  0  0  0  0  0  0  0
   27.3486  -21.6807   -9.5259 O   0  0  0  0  0  0  0  0  0  0  0  0
   26.6889  -19.9209   -8.2721 O   0  0  0  0  0  0  0  0  0  0  0  0
  2  1  1  6
  3  2  1  0
  3  4  1  0
  4  9  2  0
  5  6  2  0
  5  4  1  0
  6  7  1  0
  7  8  2  0
  9  8  1  0
 10  2  1  0
 10 11  2  0
 12 10  1  0
 13 16  1  0
 13 12  1  0
 13 14  1  1
 15 14  1  0
 16 23  1  0
 17 16  2  0
 18 19  1  0
 19 20  1  0
 20 21  1  0
 22 21  1  1
 22 24  1  0
 23 22  1  0
 24 25  2  0
 24 26  1  0
M  END
$$$$
