FCM.pdb
     RDKit          3D

 26 26  0  0  1  0  0  0  0  0999 V2000
   25.0049  -20.6630   -8.3166 N   0  0  0  0  0  0  0  0  0  0  0  0
   26.1837  -20.0843   -8.9492 C   0  0  1  0  0  0  0  0  0  0  0  0
   27.4356  -20.7064   -8.3690 C   0  0  0  0  0  0  0  0  0  0  0  0
   27.9020  -20.0665   -7.1370 C   0  0  0  0  0  0  0  0  0  0  0  0
   27.3138  -18.9490   -6.5958 C   0  0  0  0  0  0  0  0  0  0  0  0
   27.8136  -18.4147   -5.4507 C   0  0  0  0  0  0  0  0  0  0  0  0
   28.8964  -18.9766   -4.8281 C   0  0  0  0  0  0  0  0  0  0  0  0
   29.4970  -20.0955   -5.3568 C   0  0  0  0  0  0  0  0  0  0  0  0
   29.0025  -20.6330   -6.5000 C   0  0  0  0  0  0  0  0  0  0  0  0
   26.1452  -20.4955  -10.3806 C   0  0  0  0  0  0  0  0  0  0  0  0
   25.2933  -21.3306  -10.8230 O   0  0  0  0  0  0  0  0  0  0  0  0
   27.1109  -19.9242  -11.2905 N   0  0  0  0  0  0  0  0  0  0  0  0
   26.6921  -19.5947  -12.6402 C   0  0  1  0  0  0  0  0  0  0  0  0
   27.5824  -18.4310  -13.0644 C   0  0  0  0  0  0  0  0  0  0  0  0
   27.1172  -18.0543  -14.7927 S   0  0  0  0  0  0  0  0  0  0  0  0
   26.9353  -20.7853  -13.4925 C   0  0  0  0  0  0  0  0  0  0  0  0
   28.0623  -21.3153  -13.5331 O   0  0  0  0  0  0  0  0  0  0  0  0
   22.6796  -25.0436  -13.4967 C   0  0  0  0  0  0  0  0  0  0  0  0
   23.2781  -25.5542  -15.1285 S   0  0  0  0  0  0  0  0  0  0  0  0
   24.8011  -24.6674  -15.5734 C   0  0  0  0  0  0  0  0  0  0  0  0
   24.8315  -23.4058  -14.7754 C   0  0  0  0  0  0  0  0  0  0  0  0
   25.9982  -22.4920  -15.1091 C   0  0  2  0  0  0  0  0  0  0  0  0
   25.8617  -21.3051  -14.2590 N   0  0  0  0  0  0  0  0  0  0  0  0
   25.9541  -21.9899  -16.5013 C   0  0  0  0  0  0  0  0  0  0  0  0
   25.1922  -21.0301  -16.7673 O   0  0  0  0  0  0  0  0  0  0  0  0
   26.7082  -22.5169  -17.5386 O   0  0  0  0  0  0  0  0  0  0  0  0
  2  1  1  1
  3  2  1  0
  3  4  1  0
  4  9  2  0
  5  6  2  0
  5  4  1  0
  6  7  1  0
  7  8  2  0
  9  8  1  0
 10  2  1  0
 10 11  2  0
 12 10  1  0
 13 16  1  0
 13 12  1  0
 13 14  1  6
 15 14  1  0
 16 23  1  0
 17 16  2  0
 18 19  1  0
 19 20  1  0
 20 21  1  0
 22 21  1  6
 22 24  1  0
 23 22  1  0
 24 25  2  0
 24 26  1  0
M  END
$$$$
