KVF.pdb
     RDKit          3D

 28 28  0  0  1  0  0  0  0  0999 V2000
    7.9594  -16.4753   19.7420 N   0  0  0  0  0  0  0  0  0  0  0  0
    8.4463  -15.5079   20.6594 C   0  0  1  0  0  0  0  0  0  0  0  0
    7.7282  -14.1921   20.6401 C   0  0  0  0  0  0  0  0  0  0  0  0
    8.0829  -13.2601   19.5445 C   0  0  0  0  0  0  0  0  0  0  0  0
    7.3175  -13.4027   18.2747 C   0  0  0  0  0  0  0  0  0  0  0  0
    8.1570  -13.0524   17.0644 C   0  0  0  0  0  0  0  0  0  0  0  0
    7.4895  -13.3816   15.8234 N   0  0  0  0  0  0  0  0  0  0  0  0
    8.6554  -16.0026   22.0506 C   0  0  0  0  0  0  0  0  0  0  0  0
    7.6626  -16.4159   22.7379 O   0  0  0  0  0  0  0  0  0  0  0  0
   11.4752  -18.6256   25.0114 C   0  0  0  0  0  0  0  0  0  0  0  0
   11.2739  -17.8431   23.7139 C   0  0  1  0  0  0  0  0  0  0  0  0
   11.0439  -18.8507   22.6233 C   0  0  0  0  0  0  0  0  0  0  0  0
   10.1360  -16.8855   23.8794 C   0  0  2  0  0  0  0  0  0  0  0  0
    9.8963  -16.0587   22.7099 N   0  0  0  0  0  0  0  0  0  0  0  0
   10.4110  -16.0272   25.0794 C   0  0  0  0  0  0  0  0  0  0  0  0
   11.3646  -15.2099   25.0812 O   0  0  0  0  0  0  0  0  0  0  0  0
    9.6155  -16.0983   26.2537 N   0  0  0  0  0  0  0  0  0  0  0  0
    9.9244  -15.2883   27.4377 C   0  0  1  0  0  0  0  0  0  0  0  0
    8.6331  -14.7264   28.0268 C   0  0  0  0  0  0  0  0  0  0  0  0
    8.0549  -13.6972   27.1189 C   0  0  0  0  0  0  0  0  0  0  0  0
    6.8893  -13.9483   26.4365 C   0  0  0  0  0  0  0  0  0  0  0  0
    6.3418  -12.9938   25.5911 C   0  0  0  0  0  0  0  0  0  0  0  0
    6.9669  -11.7755   25.4266 C   0  0  0  0  0  0  0  0  0  0  0  0
    8.1525  -11.5116   26.1160 C   0  0  0  0  0  0  0  0  0  0  0  0
    8.6788  -12.4777   26.9526 C   0  0  0  0  0  0  0  0  0  0  0  0
   10.6808  -16.0585   28.4349 C   0  0  0  0  0  0  0  0  0  0  0  0
   10.6830  -17.3114   28.3881 O   0  0  0  0  0  0  0  0  0  0  0  0
   11.4019  -15.4395   29.4390 O   0  0  0  0  0  0  0  0  0  0  0  0
  2  1  1  6
  2  3  1  0
  4  3  1  0
  4  5  1  0
  6  5  1  0
  6  7  1  0
  8  2  1  0
  9  8  2  0
 11 10  1  1
 11 12  1  0
 11 13  1  0
 13 14  1  6
 14  8  1  0
 15 13  1  0
 15 16  2  0
 17 15  1  0
 18 17  1  0
 18 19  1  1
 20 19  1  0
 20 21  2  0
 22 21  1  0
 23 22  2  0
 24 25  2  0
 24 23  1  0
 25 20  1  0
 26 18  1  0
 27 26  2  0
 28 26  1  0
M  END
$$$$
