KVF.pdb
     RDKit          3D

 28 28  0  0  1  0  0  0  0  0999 V2000
    9.6284  -18.6392   18.7608 N   0  0  0  0  0  0  0  0  0  0  0  0
    8.8132  -18.1317   19.8059 C   0  0  1  0  0  0  0  0  0  0  0  0
    8.5577  -19.0837   20.9354 C   0  0  0  0  0  0  0  0  0  0  0  0
    8.4743  -20.5205   20.5845 C   0  0  0  0  0  0  0  0  0  0  0  0
    8.2302  -21.4675   21.7080 C   0  0  0  0  0  0  0  0  0  0  0  0
    8.2918  -22.9111   21.2559 C   0  0  0  0  0  0  0  0  0  0  0  0
    8.0707  -23.8348   22.3477 N   0  0  0  0  0  0  0  0  0  0  0  0
    9.1880  -16.7757   20.3005 C   0  0  0  0  0  0  0  0  0  0  0  0
   10.4171  -16.4414   20.3794 O   0  0  0  0  0  0  0  0  0  0  0  0
    8.1455  -12.1120   21.6380 C   0  0  0  0  0  0  0  0  0  0  0  0
    7.6625  -13.4122   20.9955 C   0  0  1  0  0  0  0  0  0  0  0  0
    7.3947  -13.1145   19.5473 C   0  0  0  0  0  0  0  0  0  0  0  0
    8.6908  -14.4806   21.1959 C   0  0  2  0  0  0  0  0  0  0  0  0
    8.2775  -15.7847   20.7091 N   0  0  0  0  0  0  0  0  0  0  0  0
    9.0229  -14.5490   22.6579 C   0  0  0  0  0  0  0  0  0  0  0  0
    9.5378  -13.5669   23.2476 O   0  0  0  0  0  0  0  0  0  0  0  0
    8.7731  -15.7127   23.4327 N   0  0  0  0  0  0  0  0  0  0  0  0
    9.0003  -15.7303   24.8823 C   0  0  1  0  0  0  0  0  0  0  0  0
    7.6597  -15.7570   25.6121 C   0  0  0  0  0  0  0  0  0  0  0  0
    7.2689  -14.3810   26.0268 C   0  0  0  0  0  0  0  0  0  0  0  0
    5.9543  -13.9858   25.9729 C   0  0  0  0  0  0  0  0  0  0  0  0
    5.5809  -12.7069   26.3606 C   0  0  0  0  0  0  0  0  0  0  0  0
    6.5325  -11.8139   26.8069 C   0  0  0  0  0  0  0  0  0  0  0  0
    7.8715  -12.2069   26.8647 C   0  0  0  0  0  0  0  0  0  0  0  0
    8.2194  -13.4860   26.4734 C   0  0  0  0  0  0  0  0  0  0  0  0
    9.8525  -16.8596   25.2803 C   0  0  0  0  0  0  0  0  0  0  0  0
   10.1680  -17.7330   24.4381 O   0  0  0  0  0  0  0  0  0  0  0  0
   10.3263  -16.9943   26.5721 O   0  0  0  0  0  0  0  0  0  0  0  0
  2  1  1  6
  2  3  1  0
  4  3  1  0
  4  5  1  0
  6  5  1  0
  6  7  1  0
  8  2  1  0
  9  8  2  0
 11 10  1  1
 11 12  1  0
 11 13  1  0
 13 14  1  1
 14  8  1  0
 15 13  1  0
 15 16  2  0
 17 15  1  0
 18 17  1  0
 18 19  1  1
 20 19  1  0
 20 21  2  0
 22 21  1  0
 23 22  2  0
 24 25  2  0
 24 23  1  0
 25 20  1  0
 26 18  1  0
 27 26  2  0
 28 26  1  0
M  END
$$$$
