KVF.pdb
     RDKit          3D

 28 28  0  0  1  0  0  0  0  0999 V2000
    7.2375  -16.6365   19.2532 N   0  0  0  0  0  0  0  0  0  0  0  0
    8.0865  -15.8775   20.1002 C   0  0  1  0  0  0  0  0  0  0  0  0
    7.7469  -14.4211   20.2047 C   0  0  0  0  0  0  0  0  0  0  0  0
    8.2807  -13.5387   19.1411 C   0  0  0  0  0  0  0  0  0  0  0  0
    7.5545  -13.5486   17.8407 C   0  0  0  0  0  0  0  0  0  0  0  0
    8.1998  -12.6306   16.8242 C   0  0  0  0  0  0  0  0  0  0  0  0
    7.4936  -12.6327   15.5611 N   0  0  0  0  0  0  0  0  0  0  0  0
    8.3501  -16.4805   21.4385 C   0  0  0  0  0  0  0  0  0  0  0  0
    7.3779  -16.8836   22.1603 O   0  0  0  0  0  0  0  0  0  0  0  0
   10.8696  -19.3125   24.4087 C   0  0  0  0  0  0  0  0  0  0  0  0
   10.6215  -18.6569   23.0504 C   0  0  1  0  0  0  0  0  0  0  0  0
    9.9046  -19.6661   22.1989 C   0  0  0  0  0  0  0  0  0  0  0  0
    9.8463  -17.3911   23.2408 C   0  0  2  0  0  0  0  0  0  0  0  0
    9.6235  -16.6544   22.0094 N   0  0  0  0  0  0  0  0  0  0  0  0
   10.5734  -16.5366   24.2374 C   0  0  0  0  0  0  0  0  0  0  0  0
   11.7616  -16.1826   24.0362 O   0  0  0  0  0  0  0  0  0  0  0  0
    9.9595  -16.0940   25.4390 N   0  0  0  0  0  0  0  0  0  0  0  0
   10.6698  -15.2289   26.3880 C   0  0  1  0  0  0  0  0  0  0  0  0
   10.4170  -13.7650   26.0370 C   0  0  0  0  0  0  0  0  0  0  0  0
    8.9588  -13.4660   26.0835 C   0  0  0  0  0  0  0  0  0  0  0  0
    8.1439  -13.8153   25.0341 C   0  0  0  0  0  0  0  0  0  0  0  0
    6.7837  -13.5436   25.0705 C   0  0  0  0  0  0  0  0  0  0  0  0
    6.2328  -12.9159   26.1682 C   0  0  0  0  0  0  0  0  0  0  0  0
    7.0538  -12.5569   27.2395 C   0  0  0  0  0  0  0  0  0  0  0  0
    8.4057  -12.8380   27.1806 C   0  0  0  0  0  0  0  0  0  0  0  0
   10.2873  -15.5237   27.7760 C   0  0  0  0  0  0  0  0  0  0  0  0
    9.3149  -16.2795   28.0104 O   0  0  0  0  0  0  0  0  0  0  0  0
   10.9739  -14.9880   28.8499 O   0  0  0  0  0  0  0  0  0  0  0  0
  2  1  1  1
  2  3  1  0
  4  3  1  0
  4  5  1  0
  6  5  1  0
  6  7  1  0
  8  2  1  0
  9  8  2  0
 11 10  1  1
 11 12  1  0
 11 13  1  0
 13 14  1  6
 14  8  1  0
 15 13  1  0
 15 16  2  0
 17 15  1  0
 18 17  1  0
 18 19  1  6
 20 19  1  0
 20 21  2  0
 22 21  1  0
 23 22  2  0
 24 25  2  0
 24 23  1  0
 25 20  1  0
 26 18  1  0
 27 26  2  0
 28 26  1  0
M  END
$$$$
