KVF.pdb
     RDKit          3D

 28 28  0  0  1  0  0  0  0  0999 V2000
   10.2039  -18.4108   18.3729 N   0  0  0  0  0  0  0  0  0  0  0  0
   10.9526  -18.1691   19.5542 C   0  0  1  0  0  0  0  0  0  0  0  0
   12.4286  -18.0023   19.3512 C   0  0  0  0  0  0  0  0  0  0  0  0
   13.2434  -19.2395   19.3688 C   0  0  0  0  0  0  0  0  0  0  0  0
   14.2882  -19.3639   18.3145 C   0  0  0  0  0  0  0  0  0  0  0  0
   15.0794  -20.6477   18.4494 C   0  0  0  0  0  0  0  0  0  0  0  0
   16.0525  -20.8029   17.3896 N   0  0  0  0  0  0  0  0  0  0  0  0
   10.3964  -17.1171   20.4530 C   0  0  0  0  0  0  0  0  0  0  0  0
   11.1391  -16.1586   20.8509 O   0  0  0  0  0  0  0  0  0  0  0  0
    6.6838  -14.5599   22.4543 C   0  0  0  0  0  0  0  0  0  0  0  0
    7.1370  -15.6540   21.4879 C   0  0  1  0  0  0  0  0  0  0  0  0
    6.9199  -15.1300   20.0966 C   0  0  0  0  0  0  0  0  0  0  0  0
    8.5640  -16.0076   21.7672 C   0  0  2  0  0  0  0  0  0  0  0  0
    9.0733  -17.0776   20.9281 N   0  0  0  0  0  0  0  0  0  0  0  0
    8.6846  -16.3769   23.2168 C   0  0  0  0  0  0  0  0  0  0  0  0
    8.6264  -17.5772   23.5822 O   0  0  0  0  0  0  0  0  0  0  0  0
    8.8682  -15.3988   24.2299 N   0  0  0  0  0  0  0  0  0  0  0  0
    9.0676  -15.7784   25.6333 C   0  0  1  0  0  0  0  0  0  0  0  0
    9.4819  -14.5525   26.4431 C   0  0  0  0  0  0  0  0  0  0  0  0
    8.4511  -13.4837   26.3280 C   0  0  0  0  0  0  0  0  0  0  0  0
    8.4567  -12.6254   25.2553 C   0  0  0  0  0  0  0  0  0  0  0  0
    7.4982  -11.6290   25.1384 C   0  0  0  0  0  0  0  0  0  0  0  0
    6.5239  -11.4896   26.1047 C   0  0  0  0  0  0  0  0  0  0  0  0
    6.5107  -12.3575   27.1988 C   0  0  0  0  0  0  0  0  0  0  0  0
    7.4757  -13.3424   27.2937 C   0  0  0  0  0  0  0  0  0  0  0  0
    7.8676  -16.4144   26.1949 C   0  0  0  0  0  0  0  0  0  0  0  0
    6.7551  -16.2521   25.6401 O   0  0  0  0  0  0  0  0  0  0  0  0
    7.9239  -17.1986   27.3322 O   0  0  0  0  0  0  0  0  0  0  0  0
  2  1  1  6
  2  3  1  0
  4  3  1  0
  4  5  1  0
  6  5  1  0
  6  7  1  0
  8  2  1  0
  9  8  2  0
 11 10  1  1
 11 12  1  0
 11 13  1  0
 13 14  1  6
 14  8  1  0
 15 13  1  0
 15 16  2  0
 17 15  1  0
 18 17  1  0
 18 19  1  1
 20 19  1  0
 20 21  2  0
 22 21  1  0
 23 22  2  0
 24 25  2  0
 24 23  1  0
 25 20  1  0
 26 18  1  0
 27 26  2  0
 28 26  1  0
M  END
$$$$
