KVF.pdb
     RDKit          3D

 28 28  0  0  1  0  0  0  0  0999 V2000
   11.8294  -17.4924   18.5595 N   0  0  0  0  0  0  0  0  0  0  0  0
   11.1971  -17.8958   19.7645 C   0  0  1  0  0  0  0  0  0  0  0  0
   11.9976  -18.8270   20.6244 C   0  0  0  0  0  0  0  0  0  0  0  0
   12.2911  -20.1640   20.0576 C   0  0  0  0  0  0  0  0  0  0  0  0
   13.0808  -21.0919   20.9144 C   0  0  0  0  0  0  0  0  0  0  0  0
   13.2775  -22.4414   20.2569 C   0  0  0  0  0  0  0  0  0  0  0  0
   14.0599  -22.3482   19.0431 N   0  0  0  0  0  0  0  0  0  0  0  0
   10.5905  -16.7915   20.5624 C   0  0  0  0  0  0  0  0  0  0  0  0
   11.2915  -15.7740   20.8815 O   0  0  0  0  0  0  0  0  0  0  0  0
    6.7974  -14.2650   22.4563 C   0  0  0  0  0  0  0  0  0  0  0  0
    7.3084  -15.3250   21.4808 C   0  0  1  0  0  0  0  0  0  0  0  0
    7.1573  -14.7591   20.0971 C   0  0  0  0  0  0  0  0  0  0  0  0
    8.7224  -15.6770   21.8211 C   0  0  2  0  0  0  0  0  0  0  0  0
    9.2610  -16.7618   21.0201 N   0  0  0  0  0  0  0  0  0  0  0  0
    8.7856  -16.0226   23.2802 C   0  0  0  0  0  0  0  0  0  0  0  0
    8.5840  -17.1986   23.6723 O   0  0  0  0  0  0  0  0  0  0  0  0
    9.0732  -15.0483   24.2726 N   0  0  0  0  0  0  0  0  0  0  0  0
    9.3009  -15.4256   25.6723 C   0  0  1  0  0  0  0  0  0  0  0  0
    9.5334  -14.1715   26.5110 C   0  0  0  0  0  0  0  0  0  0  0  0
    8.3426  -13.2792   26.4488 C   0  0  0  0  0  0  0  0  0  0  0  0
    8.1153  -12.4997   25.3406 C   0  0  0  0  0  0  0  0  0  0  0  0
    7.0067  -11.6681   25.2729 C   0  0  0  0  0  0  0  0  0  0  0  0
    6.1160  -11.6156   26.3247 C   0  0  0  0  0  0  0  0  0  0  0  0
    6.3393  -12.4044   27.4554 C   0  0  0  0  0  0  0  0  0  0  0  0
    7.4505  -13.2251   27.5000 C   0  0  0  0  0  0  0  0  0  0  0  0
    8.1897  -16.2288   26.2013 C   0  0  0  0  0  0  0  0  0  0  0  0
    8.3247  -16.8492   27.2823 O   0  0  0  0  0  0  0  0  0  0  0  0
    6.9806  -16.3253   25.5376 O   0  0  0  0  0  0  0  0  0  0  0  0
  2  1  1  6
  2  3  1  0
  4  3  1  0
  4  5  1  0
  6  5  1  0
  6  7  1  0
  8  2  1  0
  9  8  2  0
 11 10  1  1
 11 12  1  0
 11 13  1  0
 13 14  1  6
 14  8  1  0
 15 13  1  0
 15 16  2  0
 17 15  1  0
 18 17  1  0
 18 19  1  1
 20 19  1  0
 20 21  2  0
 22 21  1  0
 23 22  2  0
 24 25  2  0
 24 23  1  0
 25 20  1  0
 26 18  1  0
 27 26  2  0
 28 26  1  0
M  END
$$$$
