KVF.pdb
     RDKit          3D

 28 28  0  0  1  0  0  0  0  0999 V2000
    9.6750  -18.4419   18.1163 N   0  0  0  0  0  0  0  0  0  0  0  0
    8.6505  -18.0215   19.0041 C   0  0  1  0  0  0  0  0  0  0  0  0
    8.0275  -19.1125   19.8220 C   0  0  0  0  0  0  0  0  0  0  0  0
    7.8395  -20.4191   19.1496 C   0  0  0  0  0  0  0  0  0  0  0  0
    7.1713  -21.4871   19.9443 C   0  0  0  0  0  0  0  0  0  0  0  0
    7.0526  -22.7813   19.1675 C   0  0  0  0  0  0  0  0  0  0  0  0
    6.1755  -22.6528   18.0237 N   0  0  0  0  0  0  0  0  0  0  0  0
    8.9823  -16.8288   19.8356 C   0  0  0  0  0  0  0  0  0  0  0  0
   10.1568  -16.6912   20.3156 O   0  0  0  0  0  0  0  0  0  0  0  0
    8.1955  -12.2898   21.5932 C   0  0  0  0  0  0  0  0  0  0  0  0
    7.6382  -13.4434   20.7595 C   0  0  1  0  0  0  0  0  0  0  0  0
    7.6786  -13.0074   19.3222 C   0  0  0  0  0  0  0  0  0  0  0  0
    8.4377  -14.6810   21.0214 C   0  0  2  0  0  0  0  0  0  0  0  0
    8.0858  -15.7946   20.1586 N   0  0  0  0  0  0  0  0  0  0  0  0
    8.2633  -15.0604   22.4629 C   0  0  0  0  0  0  0  0  0  0  0  0
    7.2404  -15.6804   22.8460 O   0  0  0  0  0  0  0  0  0  0  0  0
    9.2346  -14.7403   23.4482 N   0  0  0  0  0  0  0  0  0  0  0  0
    9.0735  -15.1578   24.8458 C   0  0  1  0  0  0  0  0  0  0  0  0
    7.5884  -15.2543   25.1852 C   0  0  0  0  0  0  0  0  0  0  0  0
    7.1396  -14.0261   25.8980 C   0  0  0  0  0  0  0  0  0  0  0  0
    5.8022  -13.7960   26.1119 C   0  0  0  0  0  0  0  0  0  0  0  0
    5.3755  -12.6561   26.7780 C   0  0  0  0  0  0  0  0  0  0  0  0
    6.2963  -11.7366   27.2351 C   0  0  0  0  0  0  0  0  0  0  0  0
    7.6580  -11.9621   27.0219 C   0  0  0  0  0  0  0  0  0  0  0  0
    8.0592  -13.1048   26.3559 C   0  0  0  0  0  0  0  0  0  0  0  0
    9.7704  -16.4237   25.1135 C   0  0  0  0  0  0  0  0  0  0  0  0
    9.8435  -16.8624   26.2856 O   0  0  0  0  0  0  0  0  0  0  0  0
   10.3575  -17.1599   24.1011 O   0  0  0  0  0  0  0  0  0  0  0  0
  2  1  1  1
  2  3  1  0
  4  3  1  0
  4  5  1  0
  6  5  1  0
  6  7  1  0
  8  2  1  0
  9  8  2  0
 11 10  1  1
 11 12  1  0
 11 13  1  0
 13 14  1  6
 14  8  1  0
 15 13  1  0
 15 16  2  0
 17 15  1  0
 18 17  1  0
 18 19  1  6
 20 19  1  0
 20 21  2  0
 22 21  1  0
 23 22  2  0
 24 25  2  0
 24 23  1  0
 25 20  1  0
 26 18  1  0
 27 26  2  0
 28 26  1  0
M  END
$$$$
