KVF.pdb
     RDKit          3D

 28 28  0  0  1  0  0  0  0  0999 V2000
    7.4725  -19.7421   20.6233 N   0  0  0  0  0  0  0  0  0  0  0  0
    7.1119  -18.7587   21.5810 C   0  0  1  0  0  0  0  0  0  0  0  0
    6.9907  -19.2548   22.9904 C   0  0  0  0  0  0  0  0  0  0  0  0
    6.2477  -20.5217   23.1849 C   0  0  0  0  0  0  0  0  0  0  0  0
    6.1058  -21.0020   24.5877 C   0  0  0  0  0  0  0  0  0  0  0  0
    5.3131  -22.2894   24.6685 C   0  0  0  0  0  0  0  0  0  0  0  0
    6.1691  -23.4544   24.7317 N   0  0  0  0  0  0  0  0  0  0  0  0
    7.8888  -17.4878   21.5078 C   0  0  0  0  0  0  0  0  0  0  0  0
    9.1591  -17.5214   21.3894 O   0  0  0  0  0  0  0  0  0  0  0  0
    8.3459  -12.5924   20.9602 C   0  0  0  0  0  0  0  0  0  0  0  0
    7.4235  -13.8110   20.9380 C   0  0  1  0  0  0  0  0  0  0  0  0
    7.0143  -14.0274   19.5086 C   0  0  0  0  0  0  0  0  0  0  0  0
    8.1346  -14.9868   21.5306 C   0  0  2  0  0  0  0  0  0  0  0  0
    7.3329  -16.1971   21.5609 N   0  0  0  0  0  0  0  0  0  0  0  0
    8.5814  -14.6204   22.9157 C   0  0  0  0  0  0  0  0  0  0  0  0
    8.3358  -13.4843   23.3917 O   0  0  0  0  0  0  0  0  0  0  0  0
    9.2931  -15.5298   23.7421 N   0  0  0  0  0  0  0  0  0  0  0  0
    9.3808  -15.3369   25.1942 C   0  0  1  0  0  0  0  0  0  0  0  0
    7.9766  -15.2482   25.7863 C   0  0  0  0  0  0  0  0  0  0  0  0
    7.6094  -13.8268   26.0367 C   0  0  0  0  0  0  0  0  0  0  0  0
    6.2898  -13.4475   26.0826 C   0  0  0  0  0  0  0  0  0  0  0  0
    5.9387  -12.1260   26.3186 C   0  0  0  0  0  0  0  0  0  0  0  0
    6.9178  -11.1739   26.5107 C   0  0  0  0  0  0  0  0  0  0  0  0
    8.2620  -11.5503   26.4654 C   0  0  0  0  0  0  0  0  0  0  0  0
    8.5875  -12.8726   26.2289 C   0  0  0  0  0  0  0  0  0  0  0  0
   10.1680  -16.4012   25.8324 C   0  0  0  0  0  0  0  0  0  0  0  0
   10.4371  -17.4478   25.1968 O   0  0  0  0  0  0  0  0  0  0  0  0
   10.6301  -16.2864   27.1305 O   0  0  0  0  0  0  0  0  0  0  0  0
  2  1  1  6
  2  3  1  0
  4  3  1  0
  4  5  1  0
  6  5  1  0
  6  7  1  0
  8  2  1  0
  9  8  2  0
 11 10  1  6
 11 12  1  0
 11 13  1  0
 13 14  1  1
 14  8  1  0
 15 13  1  0
 15 16  2  0
 17 15  1  0
 18 17  1  0
 18 19  1  1
 20 19  1  0
 20 21  2  0
 22 21  1  0
 23 22  2  0
 24 25  2  0
 24 23  1  0
 25 20  1  0
 26 18  1  0
 27 26  2  0
 28 26  1  0
M  END
$$$$
