ETQ.pdb
     RDKit          3D

 26 25  0  0  1  0  0  0  0  0999 V2000
   11.4910  -13.9118   17.6845 N   0  0  0  0  0  0  0  0  0  0  0  0
   11.6563  -14.8078   18.8286 C   0  0  1  0  0  0  0  0  0  0  0  0
   13.0904  -15.0944   19.0866 C   0  0  0  0  0  0  0  0  0  0  0  0
   13.8196  -15.4129   17.8122 C   0  0  0  0  0  0  0  0  0  0  0  0
   15.2595  -15.7217   18.0782 C   0  0  0  0  0  0  0  0  0  0  0  0
   15.7049  -15.5434   19.2141 O   0  0  0  0  0  0  0  0  0  0  0  0
   11.0022  -14.2253   20.0132 C   0  0  0  0  0  0  0  0  0  0  0  0
   11.1922  -13.0587   20.4548 O   0  0  0  0  0  0  0  0  0  0  0  0
   16.0324  -16.1890   17.0609 O   0  0  0  0  0  0  0  0  0  0  0  0
    7.4853  -13.5686   20.4654 C   0  0  0  0  0  0  0  0  0  0  0  0
    7.8599  -14.5962   21.4994 C   0  0  1  0  0  0  0  0  0  0  0  0
    7.7386  -15.8585   20.9220 O   0  0  0  0  0  0  0  0  0  0  0  0
    9.3445  -14.4313   21.8504 C   0  0  2  0  0  0  0  0  0  0  0  0
   10.0690  -15.0442   20.7320 N   0  0  0  0  0  0  0  0  0  0  0  0
    9.6332  -15.2561   23.0511 C   0  0  0  0  0  0  0  0  0  0  0  0
   10.3463  -16.3041   22.9630 O   0  0  0  0  0  0  0  0  0  0  0  0
   10.8690  -14.4612   30.0230 N   0  0  0  0  0  0  0  0  0  0  0  0
   10.1876  -14.1517   28.8245 C   0  0  0  0  0  0  0  0  0  0  0  0
    9.3864  -13.2090   28.7283 O   0  0  0  0  0  0  0  0  0  0  0  0
   10.4512  -15.0061   27.6216 C   0  0  0  0  0  0  0  0  0  0  0  0
    9.2454  -15.0076   26.7473 C   0  0  0  0  0  0  0  0  0  0  0  0
    9.4440  -15.7878   25.4945 C   0  0  2  0  0  0  0  0  0  0  0  0
    9.1490  -14.9381   24.3269 N   0  0  0  0  0  0  0  0  0  0  0  0
    8.5537  -16.9486   25.4375 C   0  0  0  0  0  0  0  0  0  0  0  0
    7.5491  -16.9876   24.6906 O   0  0  0  0  0  0  0  0  0  0  0  0
    8.8543  -18.0598   26.2638 O   0  0  0  0  0  0  0  0  0  0  0  0
  2  1  1  6
  3  2  1  0
  4  3  1  0
  5  6  2  0
  5  4  1  0
  7  2  1  0
  8  7  2  0
  9  5  1  0
 11 10  1  6
 11 12  1  0
 13 11  1  0
 13 14  1  6
 14  7  1  0
 15 13  1  0
 16 15  2  0
 18 20  1  0
 18 17  1  0
 19 18  2  0
 21 20  1  0
 22 21  1  1
 22 23  1  0
 23 15  1  0
 24 26  1  0
 24 22  1  0
 25 24  2  0
M  END
$$$$
