ETQ.pdb
     RDKit          3D

 26 25  0  0  1  0  0  0  0  0999 V2000
    9.7872  -17.0523   17.6225 N   0  0  0  0  0  0  0  0  0  0  0  0
   10.2608  -17.5519   18.9128 C   0  0  1  0  0  0  0  0  0  0  0  0
   11.6380  -18.0975   18.8076 C   0  0  0  0  0  0  0  0  0  0  0  0
   12.1405  -18.0381   17.3930 C   0  0  0  0  0  0  0  0  0  0  0  0
   13.4728  -18.7075   17.2660 C   0  0  0  0  0  0  0  0  0  0  0  0
   14.3866  -18.3584   18.0166 O   0  0  0  0  0  0  0  0  0  0  0  0
   10.1823  -16.4788   19.9192 C   0  0  0  0  0  0  0  0  0  0  0  0
   10.7500  -15.3550   19.8366 O   0  0  0  0  0  0  0  0  0  0  0  0
   13.6356  -19.6793   16.3280 O   0  0  0  0  0  0  0  0  0  0  0  0
    7.1560  -14.8848   20.8390 C   0  0  0  0  0  0  0  0  0  0  0  0
    7.6810  -15.4399   22.1358 C   0  0  1  0  0  0  0  0  0  0  0  0
    7.1648  -16.7237   22.3001 O   0  0  0  0  0  0  0  0  0  0  0  0
    9.2026  -15.6054   22.0270 C   0  0  2  0  0  0  0  0  0  0  0  0
    9.3971  -16.7212   21.0951 N   0  0  0  0  0  0  0  0  0  0  0  0
    9.7174  -16.0540   23.3458 C   0  0  0  0  0  0  0  0  0  0  0  0
   10.3246  -17.1640   23.4624 O   0  0  0  0  0  0  0  0  0  0  0  0
    9.8005  -12.7898   28.6594 N   0  0  0  0  0  0  0  0  0  0  0  0
   10.2748  -14.0264   29.1514 C   0  0  0  0  0  0  0  0  0  0  0  0
   10.6152  -14.1967   30.3325 O   0  0  0  0  0  0  0  0  0  0  0  0
   10.3671  -15.1777   28.1962 C   0  0  0  0  0  0  0  0  0  0  0  0
    9.9596  -14.7220   26.8380 C   0  0  0  0  0  0  0  0  0  0  0  0
   10.0256  -15.8092   25.8224 C   0  0  2  0  0  0  0  0  0  0  0  0
    9.5695  -15.2992   24.5169 N   0  0  0  0  0  0  0  0  0  0  0  0
    9.1656  -16.9369   26.1857 C   0  0  0  0  0  0  0  0  0  0  0  0
    7.9961  -17.0553   25.7534 O   0  0  0  0  0  0  0  0  0  0  0  0
    9.6913  -17.9213   27.0588 O   0  0  0  0  0  0  0  0  0  0  0  0
  2  1  1  6
  3  2  1  0
  4  3  1  0
  5  6  2  0
  5  4  1  0
  7  2  1  0
  8  7  2  0
  9  5  1  0
 11 10  1  6
 11 12  1  0
 13 11  1  0
 13 14  1  6
 14  7  1  0
 15 13  1  0
 16 15  2  0
 18 20  1  0
 18 17  1  0
 19 18  2  0
 21 20  1  0
 22 21  1  1
 22 23  1  0
 23 15  1  0
 24 26  1  0
 24 22  1  0
 25 24  2  0
M  END
$$$$
