ETQ.pdb
     RDKit          3D

 26 25  0  0  1  0  0  0  0  0999 V2000
    8.5089  -15.0905   15.3046 N   0  0  0  0  0  0  0  0  0  0  0  0
    8.8402  -15.9825   16.4152 C   0  0  1  0  0  0  0  0  0  0  0  0
    9.9372  -16.9144   16.0500 C   0  0  0  0  0  0  0  0  0  0  0  0
    9.7220  -17.4996   14.6831 C   0  0  0  0  0  0  0  0  0  0  0  0
   10.8138  -18.4602   14.3303 C   0  0  0  0  0  0  0  0  0  0  0  0
   11.5075  -18.2318   13.3368 O   0  0  0  0  0  0  0  0  0  0  0  0
    9.1846  -15.1857   17.6055 C   0  0  0  0  0  0  0  0  0  0  0  0
   10.0098  -14.2316   17.6340 O   0  0  0  0  0  0  0  0  0  0  0  0
   11.0080  -19.5546   15.1147 O   0  0  0  0  0  0  0  0  0  0  0  0
    7.1464  -13.0064   19.2663 C   0  0  0  0  0  0  0  0  0  0  0  0
    7.4836  -13.9974   20.3479 C   0  0  1  0  0  0  0  0  0  0  0  0
    6.5252  -15.0087   20.3253 O   0  0  0  0  0  0  0  0  0  0  0  0
    8.8193  -14.6713   20.0071 C   0  0  2  0  0  0  0  0  0  0  0  0
    8.5327  -15.5133   18.8408 N   0  0  0  0  0  0  0  0  0  0  0  0
    9.1753  -15.5879   21.1200 C   0  0  0  0  0  0  0  0  0  0  0  0
    8.9540  -16.8358   21.0296 O   0  0  0  0  0  0  0  0  0  0  0  0
   14.1981  -15.9755   24.0277 N   0  0  0  0  0  0  0  0  0  0  0  0
   13.8019  -16.6193   22.8341 C   0  0  0  0  0  0  0  0  0  0  0  0
   14.6121  -17.0913   22.0212 O   0  0  0  0  0  0  0  0  0  0  0  0
   12.3354  -16.7321   22.5460 C   0  0  0  0  0  0  0  0  0  0  0  0
   11.5686  -16.0704   23.6380 C   0  0  0  0  0  0  0  0  0  0  0  0
   10.0989  -16.0826   23.3984 C   0  0  2  0  0  0  0  0  0  0  0  0
    9.7639  -15.1448   22.3118 N   0  0  0  0  0  0  0  0  0  0  0  0
    9.3566  -15.6678   24.5901 C   0  0  0  0  0  0  0  0  0  0  0  0
    8.6878  -14.6095   24.6293 O   0  0  0  0  0  0  0  0  0  0  0  0
    9.4072  -16.5057   25.7316 O   0  0  0  0  0  0  0  0  0  0  0  0
  2  1  1  6
  3  2  1  0
  4  3  1  0
  5  6  2  0
  5  4  1  0
  7  2  1  0
  8  7  2  0
  9  5  1  0
 11 10  1  6
 11 12  1  0
 13 11  1  0
 13 14  1  6
 14  7  1  0
 15 13  1  0
 16 15  2  0
 18 20  1  0
 18 17  1  0
 19 18  2  0
 21 20  1  0
 22 21  1  1
 22 23  1  0
 23 15  1  0
 24 26  1  0
 24 22  1  0
 25 24  2  0
M  END
$$$$
