ETQ.pdb
     RDKit          3D

 26 25  0  0  1  0  0  0  0  0999 V2000
   10.4503  -16.6544   17.6903 N   0  0  0  0  0  0  0  0  0  0  0  0
    9.8151  -17.2030   18.8880 C   0  0  1  0  0  0  0  0  0  0  0  0
   10.4239  -18.5011   19.2751 C   0  0  0  0  0  0  0  0  0  0  0  0
   11.8638  -18.3312   19.6687 C   0  0  0  0  0  0  0  0  0  0  0  0
   12.4953  -19.6506   19.9842 C   0  0  0  0  0  0  0  0  0  0  0  0
   13.1839  -20.2005   19.1218 O   0  0  0  0  0  0  0  0  0  0  0  0
    9.8948  -16.2227   19.9849 C   0  0  0  0  0  0  0  0  0  0  0  0
   10.8123  -15.3706   20.1398 O   0  0  0  0  0  0  0  0  0  0  0  0
   12.2913  -20.2027   21.2106 O   0  0  0  0  0  0  0  0  0  0  0  0
    6.9980  -13.9674   20.8480 C   0  0  0  0  0  0  0  0  0  0  0  0
    7.3832  -14.7249   22.0903 C   0  0  1  0  0  0  0  0  0  0  0  0
    6.6329  -15.8983   22.1344 O   0  0  0  0  0  0  0  0  0  0  0  0
    8.8490  -15.1630   21.9721 C   0  0  2  0  0  0  0  0  0  0  0  0
    8.8463  -16.2285   20.9641 N   0  0  0  0  0  0  0  0  0  0  0  0
    9.2524  -15.7897   23.2566 C   0  0  0  0  0  0  0  0  0  0  0  0
    9.5252  -17.0292   23.3171 O   0  0  0  0  0  0  0  0  0  0  0  0
   10.4735  -12.8992   28.6467 N   0  0  0  0  0  0  0  0  0  0  0  0
   10.5571  -14.2393   29.0866 C   0  0  0  0  0  0  0  0  0  0  0  0
   10.8994  -14.5512   30.2379 O   0  0  0  0  0  0  0  0  0  0  0  0
   10.2151  -15.3250   28.1117 C   0  0  0  0  0  0  0  0  0  0  0  0
    9.9939  -14.7248   26.7667 C   0  0  0  0  0  0  0  0  0  0  0  0
    9.6651  -15.7418   25.7297 C   0  0  2  0  0  0  0  0  0  0  0  0
    9.3553  -15.0704   24.4547 N   0  0  0  0  0  0  0  0  0  0  0  0
    8.4970  -16.5384   26.1095 C   0  0  0  0  0  0  0  0  0  0  0  0
    7.3250  -16.1666   25.8710 O   0  0  0  0  0  0  0  0  0  0  0  0
    8.7184  -17.7724   26.7698 O   0  0  0  0  0  0  0  0  0  0  0  0
  2  1  1  6
  3  2  1  0
  4  3  1  0
  5  6  2  0
  5  4  1  0
  7  2  1  0
  8  7  2  0
  9  5  1  0
 11 10  1  6
 11 12  1  0
 13 11  1  0
 13 14  1  6
 14  7  1  0
 15 13  1  0
 16 15  2  0
 18 20  1  0
 18 17  1  0
 19 18  2  0
 21 20  1  0
 22 21  1  1
 22 23  1  0
 23 15  1  0
 24 26  1  0
 24 22  1  0
 25 24  2  0
M  END
$$$$
