ETQ.pdb
     RDKit          3D

 26 25  0  0  1  0  0  0  0  0999 V2000
    9.9597  -16.5474   17.5426 N   0  0  0  0  0  0  0  0  0  0  0  0
    9.7225  -17.1916   18.8340 C   0  0  1  0  0  0  0  0  0  0  0  0
   10.7231  -18.2568   19.0975 C   0  0  0  0  0  0  0  0  0  0  0  0
   12.0143  -17.9801   18.3809 C   0  0  0  0  0  0  0  0  0  0  0  0
   13.0657  -18.9744   18.7619 C   0  0  0  0  0  0  0  0  0  0  0  0
   14.1575  -18.5614   19.1588 O   0  0  0  0  0  0  0  0  0  0  0  0
    9.7228  -16.1766   19.9019 C   0  0  0  0  0  0  0  0  0  0  0  0
   10.2993  -15.0556   19.8461 O   0  0  0  0  0  0  0  0  0  0  0  0
   12.7859  -20.3018   18.6591 O   0  0  0  0  0  0  0  0  0  0  0  0
    7.0048  -14.3471   20.9589 C   0  0  0  0  0  0  0  0  0  0  0  0
    7.4091  -15.0942   22.2014 C   0  0  1  0  0  0  0  0  0  0  0  0
    6.7476  -16.3206   22.2062 O   0  0  0  0  0  0  0  0  0  0  0  0
    8.9063  -15.4203   22.1215 C   0  0  2  0  0  0  0  0  0  0  0  0
    9.0108  -16.4776   21.1105 N   0  0  0  0  0  0  0  0  0  0  0  0
    9.3213  -16.0215   23.4145 C   0  0  0  0  0  0  0  0  0  0  0  0
    9.6135  -17.2556   23.4928 O   0  0  0  0  0  0  0  0  0  0  0  0
    9.9584  -13.0490   28.8657 N   0  0  0  0  0  0  0  0  0  0  0  0
   10.1911  -14.3715   29.3050 C   0  0  0  0  0  0  0  0  0  0  0  0
   10.4336  -14.6564   30.4882 O   0  0  0  0  0  0  0  0  0  0  0  0
   10.1403  -15.4722   28.2891 C   0  0  0  0  0  0  0  0  0  0  0  0
    9.9098  -14.8845   26.9401 C   0  0  0  0  0  0  0  0  0  0  0  0
    9.8117  -15.9170   25.8716 C   0  0  2  0  0  0  0  0  0  0  0  0
    9.4147  -15.2831   24.6016 N   0  0  0  0  0  0  0  0  0  0  0  0
    8.8081  -16.9324   26.1959 C   0  0  0  0  0  0  0  0  0  0  0  0
    7.6253  -16.8601   25.7904 O   0  0  0  0  0  0  0  0  0  0  0  0
    9.2063  -18.0302   26.9984 O   0  0  0  0  0  0  0  0  0  0  0  0
  2  1  1  6
  3  2  1  0
  4  3  1  0
  5  6  2  0
  5  4  1  0
  7  2  1  0
  8  7  2  0
  9  5  1  0
 11 10  1  6
 11 12  1  0
 13 11  1  0
 13 14  1  6
 14  7  1  0
 15 13  1  0
 16 15  2  0
 18 20  1  0
 18 17  1  0
 19 18  2  0
 21 20  1  0
 22 21  1  1
 22 23  1  0
 23 15  1  0
 24 26  1  0
 24 22  1  0
 25 24  2  0
M  END
$$$$
