ETQ.pdb
     RDKit          3D

 26 25  0  0  1  0  0  0  0  0999 V2000
    8.6791  -14.6791   15.0810 N   0  0  0  0  0  0  0  0  0  0  0  0
    8.7866  -15.5999   16.2122 C   0  0  1  0  0  0  0  0  0  0  0  0
    9.7068  -16.7247   15.9067 C   0  0  0  0  0  0  0  0  0  0  0  0
   11.0550  -16.2228   15.4735 C   0  0  0  0  0  0  0  0  0  0  0  0
   11.9688  -17.3581   15.1338 C   0  0  0  0  0  0  0  0  0  0  0  0
   12.1749  -17.6195   13.9466 O   0  0  0  0  0  0  0  0  0  0  0  0
    9.2177  -14.8625   17.4126 C   0  0  0  0  0  0  0  0  0  0  0  0
   10.0686  -13.9311   17.4332 O   0  0  0  0  0  0  0  0  0  0  0  0
   12.5436  -18.0664   16.1431 O   0  0  0  0  0  0  0  0  0  0  0  0
    7.2399  -12.8267   19.3914 C   0  0  0  0  0  0  0  0  0  0  0  0
    7.7357  -13.8401   20.3877 C   0  0  1  0  0  0  0  0  0  0  0  0
    6.8056  -14.8754   20.4546 O   0  0  0  0  0  0  0  0  0  0  0  0
    9.0314  -14.4676   19.8569 C   0  0  2  0  0  0  0  0  0  0  0  0
    8.6266  -15.2256   18.6683 N   0  0  0  0  0  0  0  0  0  0  0  0
    9.5111  -15.4584   20.8539 C   0  0  0  0  0  0  0  0  0  0  0  0
    9.8979  -16.6122   20.4885 O   0  0  0  0  0  0  0  0  0  0  0  0
   14.3995  -15.5213   22.0251 N   0  0  0  0  0  0  0  0  0  0  0  0
   14.1858  -16.4044   23.1071 C   0  0  0  0  0  0  0  0  0  0  0  0
   15.1063  -17.0197   23.6676 O   0  0  0  0  0  0  0  0  0  0  0  0
   12.7812  -16.5997   23.5922 C   0  0  0  0  0  0  0  0  0  0  0  0
   11.8466  -15.8594   22.6996 C   0  0  0  0  0  0  0  0  0  0  0  0
   10.4260  -15.9752   23.1308 C   0  0  2  0  0  0  0  0  0  0  0  0
    9.5660  -15.1895   22.2279 N   0  0  0  0  0  0  0  0  0  0  0  0
   10.2329  -15.4626   24.4886 C   0  0  0  0  0  0  0  0  0  0  0  0
    9.8976  -14.2778   24.7169 O   0  0  0  0  0  0  0  0  0  0  0  0
   10.4367  -16.3529   25.5719 O   0  0  0  0  0  0  0  0  0  0  0  0
  2  1  1  6
  3  2  1  0
  4  3  1  0
  5  6  2  0
  5  4  1  0
  7  2  1  0
  8  7  2  0
  9  5  1  0
 11 10  1  6
 11 12  1  0
 13 11  1  0
 13 14  1  6
 14  7  1  0
 15 13  1  0
 16 15  2  0
 18 20  1  0
 18 17  1  0
 19 18  2  0
 21 20  1  0
 22 21  1  6
 22 23  1  0
 23 15  1  0
 24 26  1  0
 24 22  1  0
 25 24  2  0
M  END
$$$$
