ETQ.pdb
     RDKit          3D

 26 25  0  0  1  0  0  0  0  0999 V2000
    9.8605  -15.2549   14.7872 N   0  0  0  0  0  0  0  0  0  0  0  0
    9.1662  -15.9087   15.8960 C   0  0  1  0  0  0  0  0  0  0  0  0
    9.3500  -17.3817   15.8542 C   0  0  0  0  0  0  0  0  0  0  0  0
   10.6941  -17.7781   16.3960 C   0  0  0  0  0  0  0  0  0  0  0  0
   10.8940  -19.2587   16.3107 C   0  0  0  0  0  0  0  0  0  0  0  0
   10.4137  -19.9743   17.1925 O   0  0  0  0  0  0  0  0  0  0  0  0
    9.6319  -15.3441   17.1746 C   0  0  0  0  0  0  0  0  0  0  0  0
   10.8027  -14.9383   17.4124 O   0  0  0  0  0  0  0  0  0  0  0  0
   11.5982  -19.7698   15.2650 O   0  0  0  0  0  0  0  0  0  0  0  0
    7.2936  -12.8430   19.0108 C   0  0  0  0  0  0  0  0  0  0  0  0
    7.7834  -13.8835   19.9818 C   0  0  1  0  0  0  0  0  0  0  0  0
    6.8536  -14.9209   20.0133 O   0  0  0  0  0  0  0  0  0  0  0  0
    9.0831  -14.4953   19.4426 C   0  0  2  0  0  0  0  0  0  0  0  0
    8.6828  -15.2423   18.2456 N   0  0  0  0  0  0  0  0  0  0  0  0
    9.5710  -15.4941   20.4275 C   0  0  0  0  0  0  0  0  0  0  0  0
    9.4806  -16.7388   20.1892 O   0  0  0  0  0  0  0  0  0  0  0  0
   15.0189  -17.7995   22.9285 N   0  0  0  0  0  0  0  0  0  0  0  0
   14.2514  -16.8352   23.6195 C   0  0  0  0  0  0  0  0  0  0  0  0
   14.7571  -15.8705   24.2142 O   0  0  0  0  0  0  0  0  0  0  0  0
   12.7611  -16.9933   23.6286 C   0  0  0  0  0  0  0  0  0  0  0  0
   12.1606  -16.0395   22.6550 C   0  0  0  0  0  0  0  0  0  0  0  0
   10.6775  -16.1513   22.5798 C   0  0  2  0  0  0  0  0  0  0  0  0
   10.1481  -15.1351   21.6528 N   0  0  0  0  0  0  0  0  0  0  0  0
   10.0550  -15.9304   23.8864 C   0  0  0  0  0  0  0  0  0  0  0  0
    9.9408  -16.8418   24.7378 O   0  0  0  0  0  0  0  0  0  0  0  0
    9.5696  -14.6325   24.1821 O   0  0  0  0  0  0  0  0  0  0  0  0
  2  1  1  6
  3  2  1  0
  4  3  1  0
  5  6  2  0
  5  4  1  0
  7  2  1  0
  8  7  2  0
  9  5  1  0
 11 10  1  6
 11 12  1  0
 13 11  1  0
 13 14  1  6
 14  7  1  0
 15 13  1  0
 16 15  2  0
 18 20  1  0
 18 17  1  0
 19 18  2  0
 21 20  1  0
 22 21  1  1
 22 23  1  0
 23 15  1  0
 24 26  1  0
 24 22  1  0
 25 24  2  0
M  END
$$$$
