ETQ.pdb
     RDKit          3D

 26 25  0  0  1  0  0  0  0  0999 V2000
    8.6493  -17.4291   17.2310 N   0  0  0  0  0  0  0  0  0  0  0  0
   10.0497  -17.2986   17.6317 C   0  0  1  0  0  0  0  0  0  0  0  0
   10.9148  -16.9689   16.4705 C   0  0  0  0  0  0  0  0  0  0  0  0
   10.0970  -16.7286   15.2334 C   0  0  0  0  0  0  0  0  0  0  0  0
   10.9729  -16.4186   14.0603 C   0  0  0  0  0  0  0  0  0  0  0  0
   10.4492  -16.2469   12.9573 O   0  0  0  0  0  0  0  0  0  0  0  0
   10.1687  -16.2868   18.6961 C   0  0  0  0  0  0  0  0  0  0  0  0
   11.2429  -15.7406   19.0699 O   0  0  0  0  0  0  0  0  0  0  0  0
   12.3180  -16.3357   14.2457 O   0  0  0  0  0  0  0  0  0  0  0  0
    7.7480  -13.2975   19.1739 C   0  0  0  0  0  0  0  0  0  0  0  0
    7.7926  -14.1093   20.4406 C   0  0  1  0  0  0  0  0  0  0  0  0
    6.7607  -15.0445   20.3944 O   0  0  0  0  0  0  0  0  0  0  0  0
    9.0965  -14.9177   20.4684 C   0  0  2  0  0  0  0  0  0  0  0  0
    8.9690  -15.8812   19.3701 N   0  0  0  0  0  0  0  0  0  0  0  0
    9.1293  -15.7050   21.7272 C   0  0  0  0  0  0  0  0  0  0  0  0
    8.7781  -16.9260   21.7388 O   0  0  0  0  0  0  0  0  0  0  0  0
   10.5945  -20.2497   25.2372 N   0  0  0  0  0  0  0  0  0  0  0  0
   11.3616  -19.2068   24.6712 C   0  0  0  0  0  0  0  0  0  0  0  0
   12.2351  -19.4019   23.8116 O   0  0  0  0  0  0  0  0  0  0  0  0
   11.1010  -17.8061   25.1364 C   0  0  0  0  0  0  0  0  0  0  0  0
   10.8575  -16.9338   23.9540 C   0  0  0  0  0  0  0  0  0  0  0  0
    9.7069  -16.0087   24.1486 C   0  0  2  0  0  0  0  0  0  0  0  0
    9.5398  -15.1636   22.9526 N   0  0  0  0  0  0  0  0  0  0  0  0
    9.9175  -15.1225   25.2948 C   0  0  0  0  0  0  0  0  0  0  0  0
   10.2715  -13.9284   25.1633 O   0  0  0  0  0  0  0  0  0  0  0  0
    9.7088  -15.6512   26.5927 O   0  0  0  0  0  0  0  0  0  0  0  0
  2  1  1  6
  3  2  1  0
  4  3  1  0
  5  6  2  0
  5  4  1  0
  7  2  1  0
  8  7  2  0
  9  5  1  0
 11 10  1  6
 11 12  1  0
 13 11  1  0
 13 14  1  6
 14  7  1  0
 15 13  1  0
 16 15  2  0
 18 20  1  0
 18 17  1  0
 19 18  2  0
 21 20  1  0
 22 21  1  6
 22 23  1  0
 23 15  1  0
 24 26  1  0
 24 22  1  0
 25 24  2  0
M  END
$$$$
