ETQ.pdb
     RDKit          3D

 26 25  0  0  1  0  0  0  0  0999 V2000
   12.8084  -14.7539   17.3320 N   0  0  0  0  0  0  0  0  0  0  0  0
   12.4215  -15.3068   18.6295 C   0  0  1  0  0  0  0  0  0  0  0  0
   13.6115  -15.7157   19.4183 C   0  0  0  0  0  0  0  0  0  0  0  0
   14.8837  -15.2688   18.7556 C   0  0  0  0  0  0  0  0  0  0  0  0
   16.0808  -15.6892   19.5489 C   0  0  0  0  0  0  0  0  0  0  0  0
   16.4203  -15.0068   20.5181 O   0  0  0  0  0  0  0  0  0  0  0  0
   11.6014  -14.3261   19.3618 C   0  0  0  0  0  0  0  0  0  0  0  0
   11.8699  -13.1004   19.4936 O   0  0  0  0  0  0  0  0  0  0  0  0
   16.7574  -16.8096   19.1778 O   0  0  0  0  0  0  0  0  0  0  0  0
    8.4406  -13.0870   18.5713 C   0  0  0  0  0  0  0  0  0  0  0  0
    8.2312  -13.8025   19.8789 C   0  0  1  0  0  0  0  0  0  0  0  0
    7.9442  -15.1378   19.6029 O   0  0  0  0  0  0  0  0  0  0  0  0
    9.5509  -13.8055   20.6618 C   0  0  2  0  0  0  0  0  0  0  0  0
   10.3941  -14.7932   19.9802 N   0  0  0  0  0  0  0  0  0  0  0  0
    9.2835  -14.3368   22.0226 C   0  0  0  0  0  0  0  0  0  0  0  0
    9.7764  -15.4473   22.3946 O   0  0  0  0  0  0  0  0  0  0  0  0
    4.9956  -12.7806   27.3747 N   0  0  0  0  0  0  0  0  0  0  0  0
    6.4009  -12.7218   27.2406 C   0  0  0  0  0  0  0  0  0  0  0  0
    7.0897  -11.8218   27.7461 O   0  0  0  0  0  0  0  0  0  0  0  0
    7.0804  -13.7990   26.4507 C   0  0  0  0  0  0  0  0  0  0  0  0
    7.3972  -13.2837   25.0896 C   0  0  0  0  0  0  0  0  0  0  0  0
    8.2294  -14.2294   24.2955 C   0  0  2  0  0  0  0  0  0  0  0  0
    8.4895  -13.6629   22.9599 N   0  0  0  0  0  0  0  0  0  0  0  0
    7.5539  -15.5151   24.1107 C   0  0  0  0  0  0  0  0  0  0  0  0
    6.7199  -15.7094   23.1968 O   0  0  0  0  0  0  0  0  0  0  0  0
    7.8669  -16.5669   25.0070 O   0  0  0  0  0  0  0  0  0  0  0  0
  2  1  1  6
  3  2  1  0
  4  3  1  0
  5  6  2  0
  5  4  1  0
  7  2  1  0
  8  7  2  0
  9  5  1  0
 11 10  1  6
 11 12  1  0
 13 11  1  0
 13 14  1  6
 14  7  1  0
 15 13  1  0
 16 15  2  0
 18 20  1  0
 18 17  1  0
 19 18  2  0
 21 20  1  0
 22 21  1  1
 22 23  1  0
 23 15  1  0
 24 26  1  0
 24 22  1  0
 25 24  2  0
M  END
$$$$
