EQI.pdb
     RDKit          3D

 27 26  0  0  1  0  0  0  0  0999 V2000
   25.7364  -19.2799  -10.5718 N   0  0  0  0  0  0  0  0  0  0  0  0
   25.4915  -20.5804  -11.1258 C   0  0  1  0  0  0  0  0  0  0  0  0
   24.6435  -21.4711  -10.2976 C   0  0  0  0  0  0  0  0  0  0  0  0
   24.1171  -20.8586   -9.0374 C   0  0  0  0  0  0  0  0  0  0  0  0
   23.3348  -21.7565   -8.1918 C   0  0  0  0  0  0  0  0  0  0  0  0
   23.1748  -22.9541   -8.4553 O   0  0  0  0  0  0  0  0  0  0  0  0
   24.9355  -20.4604  -12.5307 C   0  0  0  0  0  0  0  0  0  0  0  0
   25.1458  -21.4174  -13.3057 O   0  0  0  0  0  0  0  0  0  0  0  0
   22.7365  -21.2437   -7.0320 O   0  0  0  0  0  0  0  0  0  0  0  0
   20.8266  -21.2398  -13.0675 N   0  0  0  0  0  0  0  0  0  0  0  0
   21.4890  -21.8889  -14.1514 C   0  0  0  0  0  0  0  0  0  0  0  0
   21.3630  -23.1097  -14.3142 O   0  0  0  0  0  0  0  0  0  0  0  0
   22.3127  -20.9810  -15.0359 C   0  0  0  0  0  0  0  0  0  0  0  0
   22.2882  -19.5995  -14.4787 C   0  0  0  0  0  0  0  0  0  0  0  0
   23.6817  -19.1032  -14.2249 C   0  0  2  0  0  0  0  0  0  0  0  0
   24.2136  -19.3069  -12.9144 N   0  0  0  0  0  0  0  0  0  0  0  0
   23.9592  -17.7600  -14.7962 C   0  0  0  0  0  0  0  0  0  0  0  0
   23.4254  -16.8117  -14.2030 O   0  0  0  0  0  0  0  0  0  0  0  0
   27.5968  -14.0032  -16.6260 C   0  0  0  0  0  0  0  0  0  0  0  0
   27.0470  -15.0788  -17.5268 C   0  0  0  0  0  0  0  0  0  0  0  0
   26.6879  -16.3546  -16.7732 C   0  0  2  0  0  0  0  0  0  0  0  0
   27.2530  -17.5697  -17.4411 C   0  0  0  0  0  0  0  0  0  0  0  0
   25.1780  -16.5197  -16.6996 C   0  0  2  0  0  0  0  0  0  0  0  0
   24.7737  -17.6291  -15.9248 N   0  0  0  0  0  0  0  0  0  0  0  0
   24.5442  -16.2700  -18.0049 C   0  0  0  0  0  0  0  0  0  0  0  0
   23.9489  -15.0053  -18.2508 O   0  0  0  0  0  0  0  0  0  0  0  0
   24.4811  -17.0733  -18.9175 O   0  0  0  0  0  0  0  0  0  0  0  0
  2  1  1  1
  2  3  1  0
  3  4  1  0
  4  5  1  0
  5  6  2  0
  7  8  2  0
  7  2  1  0
  9  5  1  0
 10 11  1  0
 11 13  1  0
 12 11  2  0
 13 14  1  0
 15 14  1  1
 15 16  1  0
 16  7  1  0
 17 18  2  0
 17 15  1  0
 20 19  1  0
 21 20  1  0
 21 22  1  6
 23 24  1  6
 23 21  1  0
 24 17  1  0
 25 23  1  0
 26 25  1  0
 27 25  2  0
M  END
$$$$
