EQI.pdb
     RDKit          3D

 27 26  0  0  1  0  0  0  0  0999 V2000
   17.5478  -12.3586  -14.9720 N   0  0  0  0  0  0  0  0  0  0  0  0
   16.5261  -11.4117  -14.6291 C   0  0  1  0  0  0  0  0  0  0  0  0
   15.2081  -11.9992  -14.2880 C   0  0  0  0  0  0  0  0  0  0  0  0
   14.5540  -12.7772  -15.3866 C   0  0  0  0  0  0  0  0  0  0  0  0
   13.9725  -11.9701  -16.4561 C   0  0  0  0  0  0  0  0  0  0  0  0
   14.0674  -10.7376  -16.4917 O   0  0  0  0  0  0  0  0  0  0  0  0
   17.0074  -10.4909  -13.5256 C   0  0  0  0  0  0  0  0  0  0  0  0
   17.1352  -10.9907  -12.3877 O   0  0  0  0  0  0  0  0  0  0  0  0
   13.2751  -12.6148  -17.4877 O   0  0  0  0  0  0  0  0  0  0  0  0
   19.9232   -6.7850  -15.5327 N   0  0  0  0  0  0  0  0  0  0  0  0
   20.5907   -7.9099  -14.9638 C   0  0  0  0  0  0  0  0  0  0  0  0
   21.4996   -8.4733  -15.5877 O   0  0  0  0  0  0  0  0  0  0  0  0
   20.1037   -8.3190  -13.5924 C   0  0  0  0  0  0  0  0  0  0  0  0
   18.9938   -7.4160  -13.1768 C   0  0  0  0  0  0  0  0  0  0  0  0
   17.7672   -8.2066  -12.8266 C   0  0  2  0  0  0  0  0  0  0  0  0
   17.2932   -9.1346  -13.8043 N   0  0  0  0  0  0  0  0  0  0  0  0
   16.6988   -7.4079  -12.1721 C   0  0  0  0  0  0  0  0  0  0  0  0
   15.8945   -6.8663  -12.9440 O   0  0  0  0  0  0  0  0  0  0  0  0
   12.4086   -7.3495   -8.1983 C   0  0  0  0  0  0  0  0  0  0  0  0
   13.6610   -6.6063   -8.5852 C   0  0  0  0  0  0  0  0  0  0  0  0
   14.6269   -7.4592   -9.4000 C   0  0  2  0  0  0  0  0  0  0  0  0
   15.1832   -8.5905   -8.5921 C   0  0  0  0  0  0  0  0  0  0  0  0
   15.7932   -6.6165   -9.8917 C   0  0  2  0  0  0  0  0  0  0  0  0
   16.6479   -7.3073  -10.7787 N   0  0  0  0  0  0  0  0  0  0  0  0
   16.3684   -5.8060   -8.8054 C   0  0  0  0  0  0  0  0  0  0  0  0
   15.7074   -4.6133   -8.4117 O   0  0  0  0  0  0  0  0  0  0  0  0
   17.3894   -6.0727   -8.1983 O   0  0  0  0  0  0  0  0  0  0  0  0
  2  1  1  1
  2  3  1  0
  3  4  1  0
  4  5  1  0
  5  6  2  0
  7  8  2  0
  7  2  1  0
  9  5  1  0
 10 11  1  0
 11 13  1  0
 12 11  2  0
 13 14  1  0
 15 14  1  6
 15 16  1  0
 16  7  1  0
 17 18  2  0
 17 15  1  0
 20 19  1  0
 21 20  1  0
 21 22  1  1
 23 24  1  1
 23 21  1  0
 24 17  1  0
 25 23  1  0
 26 25  1  0
 27 25  2  0
M  END
$$$$
