RRQ.pdb
     RDKit          3D

 32 31  0  0  1  0  0  0  0  0999 V2000
   29.6733  -18.0957  -19.3285 N   0  0  0  0  0  0  0  0  0  0  0  0
   28.3202  -17.8049  -19.6298 C   0  0  0  0  0  0  0  0  0  0  0  0
   27.8345  -18.0759  -20.8047 N   0  0  0  0  0  0  0  0  0  0  0  0
   27.4417  -17.2152  -18.6845 N   0  0  0  0  0  0  0  0  0  0  0  0
   27.8244  -17.0545  -17.2818 C   0  0  0  0  0  0  0  0  0  0  0  0
   28.1934  -18.4360  -16.7774 C   0  0  0  0  0  0  0  0  0  0  0  0
   27.1815  -18.7681  -15.6835 C   0  0  0  0  0  0  0  0  0  0  0  0
   27.4611  -20.1611  -15.1178 C   0  0  2  0  0  0  0  0  0  0  0  0
   27.8469  -21.0583  -16.1833 N   0  0  0  0  0  0  0  0  0  0  0  0
   26.2124  -20.6221  -14.4591 C   0  0  0  0  0  0  0  0  0  0  0  0
   25.2923  -21.1963  -15.1166 O   0  0  0  0  0  0  0  0  0  0  0  0
   26.8429  -17.8496  -21.0127 N   0  0  0  0  0  0  0  0  0  0  0  0
   21.3572  -19.5526   -8.5882 C   0  0  0  0  0  0  0  0  0  0  0  0
   21.6643  -20.7696   -7.9157 N   0  0  0  0  0  0  0  0  0  0  0  0
   20.7260  -21.4297   -7.3169 N   0  0  0  0  0  0  0  0  0  0  0  0
   22.9726  -21.3092   -7.8664 C   0  0  0  0  0  0  0  0  0  0  0  0
   24.0463  -20.8339   -8.7066 C   0  0  0  0  0  0  0  0  0  0  0  0
   23.6838  -20.9350  -10.1709 C   0  0  0  0  0  0  0  0  0  0  0  0
   24.9469  -20.5427  -10.9393 C   0  0  2  0  0  0  0  0  0  0  0  0
   24.7481  -20.6747  -12.4222 N   0  0  0  0  0  0  0  0  0  0  0  0
   26.0237  -20.4257  -13.0638 C   0  0  0  0  0  0  0  0  0  0  0  0
   23.6580  -19.8549  -12.9481 O   0  0  0  0  0  0  0  0  0  0  0  0
   23.7030  -18.6119  -12.8415 N   0  0  0  0  0  0  0  0  0  0  0  0
   20.9047  -22.3272   -6.8308 C   0  0  0  0  0  0  0  0  0  0  0  0
   21.1015  -21.7638  -17.8922 O   0  0  0  0  0  0  0  0  0  0  0  0
   20.2852  -22.1987  -16.8365 C   0  0  0  0  0  0  0  0  0  0  0  0
   19.6221  -23.2450  -16.9876 C   0  0  0  0  0  0  0  0  0  0  0  0
   20.2093  -21.4365  -15.5733 C   0  0  2  0  0  0  0  0  0  0  0  0
   21.0985  -20.2457  -15.5085 N   0  0  0  0  0  0  0  0  0  0  0  0
   21.4359  -19.7374  -14.1494 C   0  0  0  0  0  0  0  0  0  0  0  0
   22.5634  -20.4619  -13.5711 O   0  0  0  0  0  0  0  0  0  0  0  0
   20.2875  -19.9080  -13.2356 O   0  0  0  0  0  0  0  0  0  0  0  0
  2  1  1  0
  2  3  2  0
  4  2  1  0
  4  5  1  0
  6  5  1  0
  7  6  1  0
  8  7  1  0
  8  9  1  6
  8 10  1  0
 10 11  2  0
 13 12  1  0
 14 13  2  0
 15 13  1  0
 16 17  1  0
 16 15  1  0
 17 18  1  0
 19 18  1  1
 19 21  1  0
 20 10  1  0
 20 19  1  0
 21 29  1  0
 22 21  2  0
 24 25  2  0
 24 23  1  0
 26 24  1  0
 27 26  1  0
 28 27  1  1
 28 30  1  0
 29 28  1  0
 30 31  1  0
 32 30  2  0
M  END
$$$$
