RRQ.pdb
     RDKit          3D

 32 31  0  0  1  0  0  0  0  0999 V2000
   44.7506  -14.0118   -7.8454 N   0  0  0  0  0  0  0  0  0  0  0  0
   45.8659  -13.1403   -7.8970 C   0  0  0  0  0  0  0  0  0  0  0  0
   47.0749  -13.6142   -7.8402 N   0  0  0  0  0  0  0  0  0  0  0  0
   45.7251  -11.7330   -8.0114 N   0  0  0  0  0  0  0  0  0  0  0  0
   44.4382  -11.1175   -8.3352 C   0  0  0  0  0  0  0  0  0  0  0  0
   44.0571  -11.6211   -9.7138 C   0  0  0  0  0  0  0  0  0  0  0  0
   42.8453  -10.7972  -10.1420 C   0  0  0  0  0  0  0  0  0  0  0  0
   41.7336  -10.9213   -9.0993 C   0  0  2  0  0  0  0  0  0  0  0  0
   41.3353  -12.3042   -8.9646 N   0  0  0  0  0  0  0  0  0  0  0  0
   40.6005  -10.0839   -9.5692 C   0  0  0  0  0  0  0  0  0  0  0  0
   39.6584  -10.5761  -10.2612 O   0  0  0  0  0  0  0  0  0  0  0  0
   47.8800  -12.9595   -7.8093 N   0  0  0  0  0  0  0  0  0  0  0  0
   38.6097   -1.6755   -7.2281 C   0  0  0  0  0  0  0  0  0  0  0  0
   37.7248   -2.0254   -8.2875 N   0  0  0  0  0  0  0  0  0  0  0  0
   36.8718   -1.1577   -8.7280 N   0  0  0  0  0  0  0  0  0  0  0  0
   37.7290   -3.3023   -8.8997 C   0  0  0  0  0  0  0  0  0  0  0  0
   38.6834   -4.3302   -8.5572 C   0  0  0  0  0  0  0  0  0  0  0  0
   38.4501   -5.5871   -9.3646 C   0  0  0  0  0  0  0  0  0  0  0  0
   39.5028   -6.5888   -8.8867 C   0  0  1  0  0  0  0  0  0  0  0  0
   39.4726   -7.8469   -9.7066 N   0  0  0  0  0  0  0  0  0  0  0  0
   40.5510   -8.6999   -9.2484 C   0  0  0  0  0  0  0  0  0  0  0  0
   39.4836   -7.6128  -11.1495 O   0  0  0  0  0  0  0  0  0  0  0  0
   40.5575   -7.3598  -11.7336 N   0  0  0  0  0  0  0  0  0  0  0  0
   36.2471   -1.3545   -9.5309 C   0  0  0  0  0  0  0  0  0  0  0  0
   34.4369   -9.1376  -14.7944 O   0  0  0  0  0  0  0  0  0  0  0  0
   35.3808   -8.6868  -15.7301 C   0  0  0  0  0  0  0  0  0  0  0  0
   35.0834   -8.7223  -16.9415 C   0  0  0  0  0  0  0  0  0  0  0  0
   36.6989   -8.1818  -15.2942 C   0  0  2  0  0  0  0  0  0  0  0  0
   36.9143   -8.1887  -13.8223 N   0  0  0  0  0  0  0  0  0  0  0  0
   38.2109   -7.6406  -13.3345 C   0  0  0  0  0  0  0  0  0  0  0  0
   38.2913   -7.6719  -11.8774 O   0  0  0  0  0  0  0  0  0  0  0  0
   38.3655   -6.2324  -13.7540 O   0  0  0  0  0  0  0  0  0  0  0  0
  2  1  1  0
  2  3  2  0
  4  2  1  0
  4  5  1  0
  6  5  1  0
  7  6  1  0
  8  7  1  0
  8  9  1  6
  8 10  1  0
 10 11  2  0
 13 12  1  0
 14 13  2  0
 15 13  1  0
 16 17  1  0
 16 15  1  0
 17 18  1  0
 19 18  1  1
 19 21  1  0
 20 10  1  0
 20 19  1  0
 21 29  1  0
 22 21  2  0
 24 25  2  0
 24 23  1  0
 26 24  1  0
 27 26  1  0
 28 27  1  1
 28 30  1  0
 29 28  1  0
 30 31  1  0
 32 30  2  0
M  END
$$$$
