RRQ.pdb
     RDKit          3D

 32 31  0  0  1  0  0  0  0  0999 V2000
   17.2001  -23.1088  -11.6944 N   0  0  0  0  0  0  0  0  0  0  0  0
   16.9785  -23.5383  -10.3631 C   0  0  0  0  0  0  0  0  0  0  0  0
   15.7696  -23.7320   -9.9264 N   0  0  0  0  0  0  0  0  0  0  0  0
   18.0424  -23.7754   -9.4548 N   0  0  0  0  0  0  0  0  0  0  0  0
   19.4407  -23.6487   -9.8655 C   0  0  0  0  0  0  0  0  0  0  0  0
   19.7364  -22.1627   -9.9264 C   0  0  0  0  0  0  0  0  0  0  0  0
   21.1861  -22.0413  -10.3894 C   0  0  0  0  0  0  0  0  0  0  0  0
   21.7621  -20.6925   -9.9565 C   0  0  2  0  0  0  0  0  0  0  0  0
   20.7069  -19.8449   -9.4493 N   0  0  0  0  0  0  0  0  0  0  0  0
   22.4022  -20.0884  -11.1528 C   0  0  0  0  0  0  0  0  0  0  0  0
   21.7810  -19.2616  -11.8871 O   0  0  0  0  0  0  0  0  0  0  0  0
   15.6227  -24.0304   -8.9430 N   0  0  0  0  0  0  0  0  0  0  0  0
   27.0277  -22.4819  -17.0839 C   0  0  0  0  0  0  0  0  0  0  0  0
   27.9170  -22.3166  -15.9840 N   0  0  0  0  0  0  0  0  0  0  0  0
   28.9856  -23.0422  -15.9045 N   0  0  0  0  0  0  0  0  0  0  0  0
   27.6894  -21.3781  -14.9484 C   0  0  0  0  0  0  0  0  0  0  0  0
   26.5316  -20.5160  -14.9153 C   0  0  0  0  0  0  0  0  0  0  0  0
   26.6023  -19.5457  -13.7580 C   0  0  0  0  0  0  0  0  0  0  0  0
   25.8354  -20.2090  -12.6128 C   0  0  2  0  0  0  0  0  0  0  0  0
   24.3612  -19.9395  -12.7135 N   0  0  0  0  0  0  0  0  0  0  0  0
   23.7376  -20.4298  -11.5005 C   0  0  0  0  0  0  0  0  0  0  0  0
   23.7481  -20.4542  -13.9366 O   0  0  0  0  0  0  0  0  0  0  0  0
   23.3124  -21.6235  -13.9733 N   0  0  0  0  0  0  0  0  0  0  0  0
   29.5786  -23.0622  -15.0550 C   0  0  0  0  0  0  0  0  0  0  0  0
   18.7678  -18.5450  -14.3618 O   0  0  0  0  0  0  0  0  0  0  0  0
   18.8193  -18.8736  -15.7253 C   0  0  0  0  0  0  0  0  0  0  0  0
   17.7700  -18.7991  -16.3966 C   0  0  0  0  0  0  0  0  0  0  0  0
   20.0859  -19.2999  -16.3551 C   0  0  2  0  0  0  0  0  0  0  0  0
   21.2600  -19.3234  -15.4419 N   0  0  0  0  0  0  0  0  0  0  0  0
   22.5670  -19.7080  -16.0445 C   0  0  0  0  0  0  0  0  0  0  0  0
   23.6488  -19.6375  -15.0671 O   0  0  0  0  0  0  0  0  0  0  0  0
   22.9133  -18.7929  -17.1516 O   0  0  0  0  0  0  0  0  0  0  0  0
  2  1  1  0
  2  3  2  0
  4  2  1  0
  4  5  1  0
  6  5  1  0
  7  6  1  0
  8  7  1  0
  8  9  1  6
  8 10  1  0
 10 11  2  0
 13 12  1  0
 14 13  2  0
 15 13  1  0
 16 17  1  0
 16 15  1  0
 17 18  1  0
 19 18  1  1
 19 21  1  0
 20 10  1  0
 20 19  1  0
 21 29  1  0
 22 21  2  0
 24 25  2  0
 24 23  1  0
 26 24  1  0
 27 26  1  0
 28 27  1  6
 28 30  1  0
 29 28  1  0
 30 31  1  0
 32 30  2  0
M  END
$$$$
