RRQ.pdb
     RDKit          3D

 32 31  0  0  1  0  0  0  0  0999 V2000
   28.0332  -20.7432  -18.1353 N   0  0  0  0  0  0  0  0  0  0  0  0
   26.9118  -19.8995  -17.9434 C   0  0  0  0  0  0  0  0  0  0  0  0
   26.7562  -18.8351  -18.6731 N   0  0  0  0  0  0  0  0  0  0  0  0
   25.9194  -20.1664  -16.9651 N   0  0  0  0  0  0  0  0  0  0  0  0
   25.9315  -21.4014  -16.1812 C   0  0  0  0  0  0  0  0  0  0  0  0
   25.7576  -22.5381  -17.1696 C   0  0  0  0  0  0  0  0  0  0  0  0
   25.2478  -23.7264  -16.3581 C   0  0  0  0  0  0  0  0  0  0  0  0
   24.8795  -23.2748  -14.9442 C   0  0  2  0  0  0  0  0  0  0  0  0
   25.2443  -24.2963  -13.9889 N   0  0  0  0  0  0  0  0  0  0  0  0
   23.4142  -23.0330  -14.9323 C   0  0  0  0  0  0  0  0  0  0  0  0
   22.6802  -23.3782  -15.9074 O   0  0  0  0  0  0  0  0  0  0  0  0
   25.9238  -18.2322  -18.5273 N   0  0  0  0  0  0  0  0  0  0  0  0
   18.3358  -24.7713   -8.6279 C   0  0  0  0  0  0  0  0  0  0  0  0
   18.7443  -25.3727   -9.8524 N   0  0  0  0  0  0  0  0  0  0  0  0
   18.8100  -26.6617   -9.9470 N   0  0  0  0  0  0  0  0  0  0  0  0
   19.0902  -24.6178  -10.9993 C   0  0  0  0  0  0  0  0  0  0  0  0
   18.9341  -23.1840  -11.0678 C   0  0  0  0  0  0  0  0  0  0  0  0
   19.3195  -22.6541  -12.4303 C   0  0  0  0  0  0  0  0  0  0  0  0
   20.8457  -22.7365  -12.4912 C   0  0  2  0  0  0  0  0  0  0  0  0
   21.3747  -22.1492  -13.7684 N   0  0  0  0  0  0  0  0  0  0  0  0
   22.8008  -22.4031  -13.8153 C   0  0  0  0  0  0  0  0  0  0  0  0
   21.0233  -20.7436  -13.9631 O   0  0  0  0  0  0  0  0  0  0  0  0
   21.4345  -19.8796  -13.1613 N   0  0  0  0  0  0  0  0  0  0  0  0
   19.1282  -27.1374  -10.8107 C   0  0  0  0  0  0  0  0  0  0  0  0
   21.2232  -17.9152  -19.3101 O   0  0  0  0  0  0  0  0  0  0  0  0
   22.1531  -17.9085  -18.2588 C   0  0  0  0  0  0  0  0  0  0  0  0
   23.3415  -17.6275  -18.5157 C   0  0  0  0  0  0  0  0  0  0  0  0
   21.7378  -18.2276  -16.8774 C   0  0  1  0  0  0  0  0  0  0  0  0
   20.3051  -18.5982  -16.7263 N   0  0  0  0  0  0  0  0  0  0  0  0
   19.8567  -18.9879  -15.3601 C   0  0  0  0  0  0  0  0  0  0  0  0
   20.2261  -20.3651  -15.0476 O   0  0  0  0  0  0  0  0  0  0  0  0
   18.3862  -18.8914  -15.2532 O   0  0  0  0  0  0  0  0  0  0  0  0
  2  1  1  0
  2  3  2  0
  4  2  1  0
  4  5  1  0
  6  5  1  0
  7  6  1  0
  8  7  1  0
  8  9  1  1
  8 10  1  0
 10 11  2  0
 13 12  1  0
 14 13  2  0
 15 13  1  0
 16 17  1  0
 16 15  1  0
 17 18  1  0
 19 18  1  6
 19 21  1  0
 20 10  1  0
 20 19  1  0
 21 29  1  0
 22 21  2  0
 24 25  2  0
 24 23  1  0
 26 24  1  0
 27 26  1  0
 28 27  1  1
 28 30  1  0
 29 28  1  0
 30 31  1  0
 32 30  2  0
M  END
$$$$
