RRQ.pdb
     RDKit          3D

 32 31  0  0  1  0  0  0  0  0999 V2000
   31.0211  -23.6852  -19.2514 N   0  0  0  0  0  0  0  0  0  0  0  0
   31.6904  -22.4612  -19.4966 C   0  0  0  0  0  0  0  0  0  0  0  0
   32.9623  -22.4485  -19.7645 N   0  0  0  0  0  0  0  0  0  0  0  0
   31.0216  -21.2103  -19.4638 N   0  0  0  0  0  0  0  0  0  0  0  0
   29.5646  -21.1198  -19.5591 C   0  0  0  0  0  0  0  0  0  0  0  0
   29.0093  -21.8887  -18.3760 C   0  0  0  0  0  0  0  0  0  0  0  0
   27.5115  -21.5944  -18.3492 C   0  0  0  0  0  0  0  0  0  0  0  0
   27.2202  -20.4525  -17.3747 C   0  0  2  0  0  0  0  0  0  0  0  0
   28.4066  -20.1412  -16.6101 N   0  0  0  0  0  0  0  0  0  0  0  0
   26.1190  -20.9072  -16.4879 C   0  0  0  0  0  0  0  0  0  0  0  0
   25.0104  -21.3017  -16.9613 O   0  0  0  0  0  0  0  0  0  0  0  0
   33.4492  -21.5405  -19.8915 N   0  0  0  0  0  0  0  0  0  0  0  0
   24.2675  -21.4007   -7.5859 C   0  0  0  0  0  0  0  0  0  0  0  0
   24.0229  -20.6653   -8.7806 N   0  0  0  0  0  0  0  0  0  0  0  0
   22.9357  -19.9738   -8.9006 N   0  0  0  0  0  0  0  0  0  0  0  0
   24.9275  -20.6495   -9.8699 C   0  0  0  0  0  0  0  0  0  0  0  0
   25.4874  -21.8527  -10.4385 C   0  0  0  0  0  0  0  0  0  0  0  0
   24.9282  -22.1202  -11.8176 C   0  0  0  0  0  0  0  0  0  0  0  0
   25.7764  -21.2853  -12.7785 C   0  0  2  0  0  0  0  0  0  0  0  0
   25.2407  -21.3523  -14.1801 N   0  0  0  0  0  0  0  0  0  0  0  0
   26.2894  -20.9084  -15.0766 C   0  0  0  0  0  0  0  0  0  0  0  0
   23.9747  -20.6447  -14.3638 O   0  0  0  0  0  0  0  0  0  0  0  0
   23.8823  -19.4385  -14.0558 N   0  0  0  0  0  0  0  0  0  0  0  0
   22.7096  -19.4436   -9.7617 C   0  0  0  0  0  0  0  0  0  0  0  0
   20.8953  -17.9301  -17.1019 O   0  0  0  0  0  0  0  0  0  0  0  0
   19.7524  -18.7420  -17.1692 C   0  0  0  0  0  0  0  0  0  0  0  0
   18.6643  -18.2153  -17.4787 C   0  0  0  0  0  0  0  0  0  0  0  0
   19.8319  -20.1884  -16.8794 C   0  0  1  0  0  0  0  0  0  0  0  0
   21.1936  -20.6835  -16.5423 N   0  0  0  0  0  0  0  0  0  0  0  0
   21.5555  -20.7107  -15.0974 C   0  0  0  0  0  0  0  0  0  0  0  0
   22.8657  -21.3181  -14.8848 O   0  0  0  0  0  0  0  0  0  0  0  0
   20.5720  -21.5067  -14.3346 O   0  0  0  0  0  0  0  0  0  0  0  0
  2  1  1  0
  2  3  2  0
  4  2  1  0
  4  5  1  0
  6  5  1  0
  7  6  1  0
  8  7  1  0
  8  9  1  1
  8 10  1  0
 10 11  2  0
 13 12  1  0
 14 13  2  0
 15 13  1  0
 16 17  1  0
 16 15  1  0
 17 18  1  0
 19 18  1  6
 19 21  1  0
 20 10  1  0
 20 19  1  0
 21 29  1  0
 22 21  2  0
 24 25  2  0
 24 23  1  0
 26 24  1  0
 27 26  1  0
 28 27  1  1
 28 30  1  0
 29 28  1  0
 30 31  1  0
 32 30  2  0
M  END
$$$$
