HNE.pdb
     RDKit          3D

 28 28  0  0  1  0  0  0  0  0999 V2000
   10.6404  -14.9758   20.2204 N   0  0  0  0  0  0  0  0  0  0  0  0
   10.5428  -16.1508   19.3702 C   0  0  1  0  0  0  0  0  0  0  0  0
    9.5511  -15.9624   18.2715 C   0  0  0  0  0  0  0  0  0  0  0  0
    8.7523  -14.7181   18.3788 C   0  0  0  0  0  0  0  0  0  0  0  0
    8.8520  -13.7026   19.3160 C   0  0  0  0  0  0  0  0  0  0  0  0
    7.9449  -12.7491   19.0645 N   0  0  0  0  0  0  0  0  0  0  0  0
    7.2691  -13.1507   17.9743 C   0  0  0  0  0  0  0  0  0  0  0  0
    7.7578  -14.3482   17.5546 N   0  0  0  0  0  0  0  0  0  0  0  0
   11.8740  -16.6066   18.9633 C   0  0  0  0  0  0  0  0  0  0  0  0
   12.0218  -17.7283   18.3833 O   0  0  0  0  0  0  0  0  0  0  0  0
   14.8946  -13.0280   17.9988 N   0  0  0  0  0  0  0  0  0  0  0  0
   15.0006  -14.4303   17.7167 C   0  0  0  0  0  0  0  0  0  0  0  0
   14.7579  -14.7885   16.5407 O   0  0  0  0  0  0  0  0  0  0  0  0
   15.3829  -15.3333   18.8200 C   0  0  0  0  0  0  0  0  0  0  0  0
   14.3937  -16.4527   19.0516 C   0  0  2  0  0  0  0  0  0  0  0  0
   13.0669  -15.8550   19.1762 N   0  0  0  0  0  0  0  0  0  0  0  0
   14.7498  -17.3251   20.1812 C   0  0  0  0  0  0  0  0  0  0  0  0
   15.3685  -18.4040   20.0086 O   0  0  0  0  0  0  0  0  0  0  0  0
   14.4258  -17.0232   21.5478 N   0  0  0  0  0  0  0  0  0  0  0  0
   14.8466  -17.8835   22.6265 C   0  0  1  0  0  0  0  0  0  0  0  0
   16.0735  -17.4884   23.3485 C   0  0  0  0  0  0  0  0  0  0  0  0
   16.6638  -16.1641   23.0143 C   0  0  0  0  0  0  0  0  0  0  0  0
   17.9854  -15.8807   23.5644 C   0  0  0  0  0  0  0  0  0  0  0  0
   18.5824  -16.6660   24.3274 O   0  0  0  0  0  0  0  0  0  0  0  0
   13.7239  -17.9184   23.6420 C   0  0  0  0  0  0  0  0  0  0  0  0
   13.7593  -18.7777   24.7235 O   0  0  0  0  0  0  0  0  0  0  0  0
   18.6123  -14.6836   23.2272 O   0  0  0  0  0  0  0  0  0  0  0  0
   12.7669  -17.1372   23.4585 O   0  0  0  0  0  0  0  0  0  0  0  0
  2  1  1  6
  2  9  1  0
  3  2  1  0
  3  4  1  0
  4  5  2  0
  5  6  1  0
  7  6  1  0
  8  4  1  0
  8  7  2  0
  9 16  1  0
  9 10  2  0
 11 12  1  0
 12 13  2  0
 15 14  1  1
 14 12  1  0
 15 17  1  0
 16 15  1  0
 17 19  1  0
 18 17  2  0
 19 20  1  0
 20 21  1  1
 20 25  1  0
 21 22  1  0
 22 23  1  0
 23 24  2  0
 25 28  2  0
 25 26  1  0
 27 23  1  0
M  END
$$$$
