HNE.pdb
     RDKit          3D

 28 28  0  0  1  0  0  0  0  0999 V2000
   13.0446  -15.0769   14.9025 N   0  0  0  0  0  0  0  0  0  0  0  0
   12.4360  -16.0753   15.7660 C   0  0  1  0  0  0  0  0  0  0  0  0
   13.2225  -17.3429   15.7923 C   0  0  0  0  0  0  0  0  0  0  0  0
   13.0446  -18.1952   14.5923 C   0  0  0  0  0  0  0  0  0  0  0  0
   11.9980  -19.0489   14.2835 C   0  0  0  0  0  0  0  0  0  0  0  0
   12.2155  -19.6396   13.1008 N   0  0  0  0  0  0  0  0  0  0  0  0
   13.3925  -19.1680   12.6552 C   0  0  0  0  0  0  0  0  0  0  0  0
   13.8996  -18.2889   13.5602 N   0  0  0  0  0  0  0  0  0  0  0  0
   12.1042  -15.4976   17.0705 C   0  0  0  0  0  0  0  0  0  0  0  0
   13.0041  -14.9439   17.7778 O   0  0  0  0  0  0  0  0  0  0  0  0
    8.3841  -12.4954   18.6726 N   0  0  0  0  0  0  0  0  0  0  0  0
    8.4634  -13.8507   18.2100 C   0  0  0  0  0  0  0  0  0  0  0  0
    8.0434  -14.0762   17.0511 O   0  0  0  0  0  0  0  0  0  0  0  0
    9.0270  -14.8640   19.1235 C   0  0  0  0  0  0  0  0  0  0  0  0
   10.5228  -15.0336   18.9846 C   0  0  2  0  0  0  0  0  0  0  0  0
   10.7927  -15.5082   17.6300 N   0  0  0  0  0  0  0  0  0  0  0  0
   11.1158  -15.8821   20.0297 C   0  0  0  0  0  0  0  0  0  0  0  0
   11.0180  -17.1334   19.9942 O   0  0  0  0  0  0  0  0  0  0  0  0
   11.8405  -15.3617   21.1557 N   0  0  0  0  0  0  0  0  0  0  0  0
   12.4596  -16.2380   22.1199 C   0  0  1  0  0  0  0  0  0  0  0  0
   13.8180  -15.8721   22.5707 C   0  0  0  0  0  0  0  0  0  0  0  0
   14.8894  -15.8284   21.5392 C   0  0  0  0  0  0  0  0  0  0  0  0
   16.2173  -15.4282   21.9934 C   0  0  0  0  0  0  0  0  0  0  0  0
   16.3994  -14.5418   22.8513 O   0  0  0  0  0  0  0  0  0  0  0  0
   11.5733  -16.2588   23.3474 C   0  0  0  0  0  0  0  0  0  0  0  0
   11.8171  -17.1256   24.3955 O   0  0  0  0  0  0  0  0  0  0  0  0
   17.3332  -16.0592   21.4491 O   0  0  0  0  0  0  0  0  0  0  0  0
   10.6144  -15.4589   23.3698 O   0  0  0  0  0  0  0  0  0  0  0  0
  2  1  1  6
  2  9  1  0
  3  2  1  0
  3  4  1  0
  4  5  2  0
  5  6  1  0
  7  6  1  0
  8  4  1  0
  8  7  2  0
  9 16  1  0
  9 10  2  0
 11 12  1  0
 12 13  2  0
 15 14  1  1
 14 12  1  0
 15 17  1  0
 16 15  1  0
 17 19  1  0
 18 17  2  0
 19 20  1  0
 20 21  1  1
 20 25  1  0
 21 22  1  0
 22 23  1  0
 23 24  2  0
 25 28  2  0
 25 26  1  0
 27 23  1  0
M  END
$$$$
