HNE.pdb
     RDKit          3D

 28 28  0  0  1  0  0  0  0  0999 V2000
    8.2063  -16.0750   17.7166 N   0  0  0  0  0  0  0  0  0  0  0  0
    8.9113  -14.8271   17.9588 C   0  0  1  0  0  0  0  0  0  0  0  0
    8.2669  -13.6784   17.2578 C   0  0  0  0  0  0  0  0  0  0  0  0
    8.0275  -13.9037   15.8122 C   0  0  0  0  0  0  0  0  0  0  0  0
    8.2726  -15.0413   15.0604 C   0  0  0  0  0  0  0  0  0  0  0  0
    7.9160  -14.8396   13.7848 N   0  0  0  0  0  0  0  0  0  0  0  0
    7.4458  -13.5821   13.7197 C   0  0  0  0  0  0  0  0  0  0  0  0
    7.5122  -13.0099   14.9515 N   0  0  0  0  0  0  0  0  0  0  0  0
    9.1653  -14.6461   19.3899 C   0  0  0  0  0  0  0  0  0  0  0  0
    9.8043  -13.6293   19.8075 O   0  0  0  0  0  0  0  0  0  0  0  0
    7.4376  -13.2855   22.0647 N   0  0  0  0  0  0  0  0  0  0  0  0
    7.0340  -14.4840   22.7413 C   0  0  0  0  0  0  0  0  0  0  0  0
    5.9498  -14.4396   23.3681 O   0  0  0  0  0  0  0  0  0  0  0  0
    7.9160  -15.6640   22.6486 C   0  0  0  0  0  0  0  0  0  0  0  0
    9.1385  -15.4352   21.7892 C   0  0  2  0  0  0  0  0  0  0  0  0
    8.7305  -15.5619   20.3926 N   0  0  0  0  0  0  0  0  0  0  0  0
   10.2754  -16.2978   22.1461 C   0  0  0  0  0  0  0  0  0  0  0  0
   10.3271  -17.4995   21.7855 O   0  0  0  0  0  0  0  0  0  0  0  0
   11.3979  -15.8481   22.9216 N   0  0  0  0  0  0  0  0  0  0  0  0
   12.5705  -16.6708   23.0919 C   0  0  1  0  0  0  0  0  0  0  0  0
   13.8708  -16.0429   22.7799 C   0  0  0  0  0  0  0  0  0  0  0  0
   15.0951  -16.8493   23.0342 C   0  0  0  0  0  0  0  0  0  0  0  0
   16.3708  -16.2210   22.7064 C   0  0  0  0  0  0  0  0  0  0  0  0
   17.0218  -16.5077   21.6822 O   0  0  0  0  0  0  0  0  0  0  0  0
   12.6182  -17.0960   24.5444 C   0  0  0  0  0  0  0  0  0  0  0  0
   11.7424  -16.5721   25.4759 O   0  0  0  0  0  0  0  0  0  0  0  0
   16.8891  -15.2594   23.5703 O   0  0  0  0  0  0  0  0  0  0  0  0
   13.4826  -17.9397   24.8616 O   0  0  0  0  0  0  0  0  0  0  0  0
  2  1  1  1
  2  9  1  0
  3  2  1  0
  3  4  1  0
  4  5  2  0
  5  6  1  0
  7  6  1  0
  8  4  1  0
  8  7  2  0
  9 16  1  0
  9 10  2  0
 11 12  1  0
 12 13  2  0
 15 14  1  1
 14 12  1  0
 15 17  1  0
 16 15  1  0
 17 19  1  0
 18 17  2  0
 19 20  1  0
 20 21  1  1
 20 25  1  0
 21 22  1  0
 22 23  1  0
 23 24  2  0
 25 28  2  0
 25 26  1  0
 27 23  1  0
M  END
$$$$
