HNE.pdb
     RDKit          3D

 28 28  0  0  1  0  0  0  0  0999 V2000
    8.5041  -16.4758   18.9081 N   0  0  0  0  0  0  0  0  0  0  0  0
    9.6151  -15.6007   19.2441 C   0  0  1  0  0  0  0  0  0  0  0  0
    9.6149  -14.3583   18.4179 C   0  0  0  0  0  0  0  0  0  0  0  0
    8.9692  -14.5087   17.0918 C   0  0  0  0  0  0  0  0  0  0  0  0
    8.4698  -15.6557   16.4965 C   0  0  0  0  0  0  0  0  0  0  0  0
    7.9640  -15.3688   15.2894 N   0  0  0  0  0  0  0  0  0  0  0  0
    8.1380  -14.0478   15.1128 C   0  0  0  0  0  0  0  0  0  0  0  0
    8.7492  -13.5215   16.2075 N   0  0  0  0  0  0  0  0  0  0  0  0
    9.7019  -15.4087   20.6936 C   0  0  0  0  0  0  0  0  0  0  0  0
   10.6932  -14.7983   21.2046 O   0  0  0  0  0  0  0  0  0  0  0  0
    5.8244  -14.3005   22.2959 N   0  0  0  0  0  0  0  0  0  0  0  0
    6.8557  -14.2771   23.2923 C   0  0  0  0  0  0  0  0  0  0  0  0
    7.1385  -13.1600   23.7847 O   0  0  0  0  0  0  0  0  0  0  0  0
    7.4974  -15.5554   23.6572 C   0  0  0  0  0  0  0  0  0  0  0  0
    8.8745  -15.7298   23.0584 C   0  0  2  0  0  0  0  0  0  0  0  0
    8.7163  -15.8729   21.6135 N   0  0  0  0  0  0  0  0  0  0  0  0
    9.6465  -16.8211   23.6723 C   0  0  0  0  0  0  0  0  0  0  0  0
    9.2425  -18.0097   23.6421 O   0  0  0  0  0  0  0  0  0  0  0  0
   10.9005  -16.6233   24.3447 N   0  0  0  0  0  0  0  0  0  0  0  0
   11.6284  -17.7298   24.9162 C   0  0  1  0  0  0  0  0  0  0  0  0
   13.1005  -17.6846   24.7998 C   0  0  0  0  0  0  0  0  0  0  0  0
   13.6722  -17.5661   23.4312 C   0  0  0  0  0  0  0  0  0  0  0  0
   15.1245  -17.4585   23.3373 C   0  0  0  0  0  0  0  0  0  0  0  0
   15.8622  -17.3753   24.3393 O   0  0  0  0  0  0  0  0  0  0  0  0
   11.2995  -17.7733   26.3937 C   0  0  0  0  0  0  0  0  0  0  0  0
   11.7647  -18.7913   27.2039 O   0  0  0  0  0  0  0  0  0  0  0  0
   15.7184  -17.4471   22.0776 O   0  0  0  0  0  0  0  0  0  0  0  0
   10.5907  -16.8497   26.8457 O   0  0  0  0  0  0  0  0  0  0  0  0
  2  1  1  1
  2  9  1  0
  3  2  1  0
  3  4  1  0
  4  5  2  0
  5  6  1  0
  7  6  1  0
  8  4  1  0
  8  7  2  0
  9 16  1  0
  9 10  2  0
 11 12  1  0
 12 13  2  0
 15 14  1  1
 14 12  1  0
 15 17  1  0
 16 15  1  0
 17 19  1  0
 18 17  2  0
 19 20  1  0
 20 21  1  1
 20 25  1  0
 21 22  1  0
 22 23  1  0
 23 24  2  0
 25 28  2  0
 25 26  1  0
 27 23  1  0
M  END
$$$$
