HNE.pdb
     RDKit          3D

 28 28  0  0  1  0  0  0  0  0999 V2000
    8.4115  -12.7119   18.1413 N   0  0  0  0  0  0  0  0  0  0  0  0
    8.6386  -14.1304   18.3637 C   0  0  1  0  0  0  0  0  0  0  0  0
    9.5921  -14.7041   17.3699 C   0  0  0  0  0  0  0  0  0  0  0  0
    8.9959  -14.9751   16.0398 C   0  0  0  0  0  0  0  0  0  0  0  0
    8.6302  -14.0727   15.0542 C   0  0  0  0  0  0  0  0  0  0  0  0
    8.1261  -14.7214   13.9959 N   0  0  0  0  0  0  0  0  0  0  0  0
    8.1686  -16.0296   14.3010 C   0  0  0  0  0  0  0  0  0  0  0  0
    8.6972  -16.1874   15.5439 N   0  0  0  0  0  0  0  0  0  0  0  0
    8.9446  -14.3903   19.7723 C   0  0  0  0  0  0  0  0  0  0  0  0
    9.8292  -13.7056   20.3767 O   0  0  0  0  0  0  0  0  0  0  0  0
    6.4284  -14.1615   22.5271 N   0  0  0  0  0  0  0  0  0  0  0  0
    6.3338  -15.5608   22.8273 C   0  0  0  0  0  0  0  0  0  0  0  0
    5.2377  -15.9678   23.2780 O   0  0  0  0  0  0  0  0  0  0  0  0
    7.5208  -16.4044   22.5852 C   0  0  0  0  0  0  0  0  0  0  0  0
    8.6663  -15.6597   21.9383 C   0  0  2  0  0  0  0  0  0  0  0  0
    8.2970  -15.3946   20.5504 N   0  0  0  0  0  0  0  0  0  0  0  0
    9.9620  -16.3420   22.0779 C   0  0  0  0  0  0  0  0  0  0  0  0
   10.2412  -17.3657   21.4065 O   0  0  0  0  0  0  0  0  0  0  0  0
   10.9947  -15.9046   22.9756 N   0  0  0  0  0  0  0  0  0  0  0  0
   12.2526  -16.6043   23.0706 C   0  0  1  0  0  0  0  0  0  0  0  0
   13.4696  -15.7706   23.1506 C   0  0  0  0  0  0  0  0  0  0  0  0
   14.7664  -16.4749   23.3412 C   0  0  0  0  0  0  0  0  0  0  0  0
   15.6981  -16.4426   22.2185 C   0  0  0  0  0  0  0  0  0  0  0  0
   16.0076  -17.4603   21.5676 O   0  0  0  0  0  0  0  0  0  0  0  0
   12.2074  -17.4484   24.3269 C   0  0  0  0  0  0  0  0  0  0  0  0
   13.1487  -18.4311   24.5669 O   0  0  0  0  0  0  0  0  0  0  0  0
   16.2702  -15.2264   21.8535 O   0  0  0  0  0  0  0  0  0  0  0  0
   11.2834  -17.2168   25.1345 O   0  0  0  0  0  0  0  0  0  0  0  0
  2  1  1  1
  2  9  1  0
  3  2  1  0
  3  4  1  0
  4  5  2  0
  5  6  1  0
  7  6  1  0
  8  4  1  0
  8  7  2  0
  9 16  1  0
  9 10  2  0
 11 12  1  0
 12 13  2  0
 15 14  1  6
 14 12  1  0
 15 17  1  0
 16 15  1  0
 17 19  1  0
 18 17  2  0
 19 20  1  0
 20 21  1  1
 20 25  1  0
 21 22  1  0
 22 23  1  0
 23 24  2  0
 25 28  2  0
 25 26  1  0
 27 23  1  0
M  END
$$$$
