HNE.pdb
     RDKit          3D

 28 28  0  0  1  0  0  0  0  0999 V2000
    9.0883  -16.7182   20.7068 N   0  0  0  0  0  0  0  0  0  0  0  0
    8.4188  -15.8177   21.6308 C   0  0  1  0  0  0  0  0  0  0  0  0
    7.2681  -15.1168   20.9899 C   0  0  0  0  0  0  0  0  0  0  0  0
    7.6451  -14.2354   19.8589 C   0  0  0  0  0  0  0  0  0  0  0  0
    8.8991  -14.0152   19.3128 C   0  0  0  0  0  0  0  0  0  0  0  0
    8.8163  -13.1441   18.2982 N   0  0  0  0  0  0  0  0  0  0  0  0
    7.5189  -12.8088   18.1950 C   0  0  0  0  0  0  0  0  0  0  0  0
    6.8035  -13.4709   19.1430 N   0  0  0  0  0  0  0  0  0  0  0  0
    8.1339  -16.4950   22.8979 C   0  0  0  0  0  0  0  0  0  0  0  0
    7.5564  -15.8738   23.8451 O   0  0  0  0  0  0  0  0  0  0  0  0
    6.3252  -20.6054   22.3216 N   0  0  0  0  0  0  0  0  0  0  0  0
    6.4349  -19.9692   23.6023 C   0  0  0  0  0  0  0  0  0  0  0  0
    5.3764  -19.5221   24.1022 O   0  0  0  0  0  0  0  0  0  0  0  0
    7.7704  -19.8908   24.2262 C   0  0  0  0  0  0  0  0  0  0  0  0
    8.2413  -18.4740   24.4637 C   0  0  2  0  0  0  0  0  0  0  0  0
    8.4679  -17.8563   23.1599 N   0  0  0  0  0  0  0  0  0  0  0  0
    9.4029  -18.3854   25.3619 C   0  0  0  0  0  0  0  0  0  0  0  0
   10.5654  -18.6371   24.9594 O   0  0  0  0  0  0  0  0  0  0  0  0
    9.3073  -18.0124   26.7459 N   0  0  0  0  0  0  0  0  0  0  0  0
   10.4839  -17.8734   27.5687 C   0  0  1  0  0  0  0  0  0  0  0  0
   10.5033  -16.7340   28.5090 C   0  0  0  0  0  0  0  0  0  0  0  0
   10.2136  -15.3854   27.9512 C   0  0  0  0  0  0  0  0  0  0  0  0
   10.2400  -14.2701   28.8919 C   0  0  0  0  0  0  0  0  0  0  0  0
    9.2467  -13.9298   29.5646 O   0  0  0  0  0  0  0  0  0  0  0  0
   10.6099  -19.1356   28.3956 C   0  0  0  0  0  0  0  0  0  0  0  0
   11.7577  -19.4134   29.1130 O   0  0  0  0  0  0  0  0  0  0  0  0
   11.4220  -13.5506   29.0496 O   0  0  0  0  0  0  0  0  0  0  0  0
    9.6319  -19.9123   28.4001 O   0  0  0  0  0  0  0  0  0  0  0  0
  2  1  1  6
  2  9  1  0
  3  2  1  0
  3  4  1  0
  4  5  2  0
  5  6  1  0
  7  6  1  0
  8  4  1  0
  8  7  2  0
  9 16  1  0
  9 10  2  0
 11 12  1  0
 12 13  2  0
 15 14  1  6
 14 12  1  0
 15 17  1  0
 16 15  1  0
 17 19  1  0
 18 17  2  0
 19 20  1  0
 20 21  1  1
 20 25  1  0
 21 22  1  0
 22 23  1  0
 23 24  2  0
 25 28  2  0
 25 26  1  0
 27 23  1  0
M  END
$$$$
