HNE.pdb
     RDKit          3D

 28 28  0  0  1  0  0  0  0  0999 V2000
    9.7645  -15.7426   17.0250 N   0  0  0  0  0  0  0  0  0  0  0  0
   10.4010  -14.8017   17.9319 C   0  0  1  0  0  0  0  0  0  0  0  0
    9.5008  -14.4181   19.0583 C   0  0  0  0  0  0  0  0  0  0  0  0
    8.3064  -13.6424   18.6464 C   0  0  0  0  0  0  0  0  0  0  0  0
    7.8804  -12.4034   19.0969 C   0  0  0  0  0  0  0  0  0  0  0  0
    6.7500  -12.0468   18.4723 N   0  0  0  0  0  0  0  0  0  0  0  0
    6.4540  -13.0497   17.6280 C   0  0  0  0  0  0  0  0  0  0  0  0
    7.3989  -14.0221   17.7314 N   0  0  0  0  0  0  0  0  0  0  0  0
   11.7373  -15.2692   18.3077 C   0  0  0  0  0  0  0  0  0  0  0  0
   11.9210  -16.4752   18.6660 O   0  0  0  0  0  0  0  0  0  0  0  0
   17.5060  -13.3977   18.9654 N   0  0  0  0  0  0  0  0  0  0  0  0
   16.6296  -14.4629   18.5729 C   0  0  0  0  0  0  0  0  0  0  0  0
   17.0900  -15.6263   18.6422 O   0  0  0  0  0  0  0  0  0  0  0  0
   15.2683  -14.1115   18.1228 C   0  0  0  0  0  0  0  0  0  0  0  0
   14.1820  -14.8967   18.8220 C   0  0  2  0  0  0  0  0  0  0  0  0
   12.8968  -14.4394   18.3003 N   0  0  0  0  0  0  0  0  0  0  0  0
   14.2702  -14.8404   20.2893 C   0  0  0  0  0  0  0  0  0  0  0  0
   14.0694  -13.7728   20.9191 O   0  0  0  0  0  0  0  0  0  0  0  0
   14.5879  -15.9774   21.1078 N   0  0  0  0  0  0  0  0  0  0  0  0
   14.5597  -15.8969   22.5478 C   0  0  1  0  0  0  0  0  0  0  0  0
   13.7476  -16.9105   23.2518 C   0  0  0  0  0  0  0  0  0  0  0  0
   13.7639  -16.8831   24.7394 C   0  0  0  0  0  0  0  0  0  0  0  0
   13.0418  -17.9531   25.4201 C   0  0  0  0  0  0  0  0  0  0  0  0
   11.8285  -18.1737   25.2351 O   0  0  0  0  0  0  0  0  0  0  0  0
   15.9844  -16.0488   23.0377 C   0  0  0  0  0  0  0  0  0  0  0  0
   16.3800  -15.5495   24.2639 O   0  0  0  0  0  0  0  0  0  0  0  0
   13.7314  -18.7661   26.3164 O   0  0  0  0  0  0  0  0  0  0  0  0
   16.7838  -16.6444   22.2854 O   0  0  0  0  0  0  0  0  0  0  0  0
  2  1  1  1
  2  9  1  0
  3  2  1  0
  3  4  1  0
  4  5  2  0
  5  6  1  0
  7  6  1  0
  8  4  1  0
  8  7  2  0
  9 16  1  0
  9 10  2  0
 11 12  1  0
 12 13  2  0
 15 14  1  6
 14 12  1  0
 15 17  1  0
 16 15  1  0
 17 19  1  0
 18 17  2  0
 19 20  1  0
 20 21  1  1
 20 25  1  0
 21 22  1  0
 22 23  1  0
 23 24  2  0
 25 28  2  0
 25 26  1  0
 27 23  1  0
M  END
$$$$
