HNE.pdb
     RDKit          3D

 28 28  0  0  1  0  0  0  0  0999 V2000
   11.4954  -14.8444   18.1453 N   0  0  0  0  0  0  0  0  0  0  0  0
   12.3640  -15.2937   19.2207 C   0  0  1  0  0  0  0  0  0  0  0  0
   13.2755  -14.2098   19.6899 C   0  0  0  0  0  0  0  0  0  0  0  0
   14.4784  -14.0171   18.8450 C   0  0  0  0  0  0  0  0  0  0  0  0
   14.8511  -14.7013   17.6994 C   0  0  0  0  0  0  0  0  0  0  0  0
   16.0117  -14.2232   17.2309 N   0  0  0  0  0  0  0  0  0  0  0  0
   16.3799  -13.2399   18.0700 C   0  0  0  0  0  0  0  0  0  0  0  0
   15.4492  -13.1119   19.0531 N   0  0  0  0  0  0  0  0  0  0  0  0
   11.5897  -15.9770   20.2594 C   0  0  0  0  0  0  0  0  0  0  0  0
   10.4648  -15.5166   20.6325 O   0  0  0  0  0  0  0  0  0  0  0  0
    9.0017  -20.3809   22.4034 N   0  0  0  0  0  0  0  0  0  0  0  0
   10.3985  -20.1027   22.5723 C   0  0  0  0  0  0  0  0  0  0  0  0
   10.9498  -20.5821   23.5904 O   0  0  0  0  0  0  0  0  0  0  0  0
   11.0719  -19.2827   21.5460 C   0  0  0  0  0  0  0  0  0  0  0  0
   11.2143  -17.8290   21.9355 C   0  0  2  0  0  0  0  0  0  0  0  0
   12.0196  -17.1707   20.9103 N   0  0  0  0  0  0  0  0  0  0  0  0
   11.7323  -17.6356   23.2987 C   0  0  0  0  0  0  0  0  0  0  0  0
   12.9645  -17.6403   23.5401 O   0  0  0  0  0  0  0  0  0  0  0  0
   10.8901  -17.4305   24.4443 N   0  0  0  0  0  0  0  0  0  0  0  0
   11.4480  -17.1825   25.7512 C   0  0  1  0  0  0  0  0  0  0  0  0
   10.6258  -16.3812   26.6809 C   0  0  0  0  0  0  0  0  0  0  0  0
    9.9892  -15.1502   26.1393 C   0  0  0  0  0  0  0  0  0  0  0  0
    9.2164  -14.3463   27.0806 C   0  0  0  0  0  0  0  0  0  0  0  0
    9.0793  -14.6566   28.2806 O   0  0  0  0  0  0  0  0  0  0  0  0
   11.6796  -18.5274   26.4073 C   0  0  0  0  0  0  0  0  0  0  0  0
   12.3563  -18.6349   27.6071 O   0  0  0  0  0  0  0  0  0  0  0  0
    8.6028  -13.1817   26.6257 O   0  0  0  0  0  0  0  0  0  0  0  0
   11.2322  -19.5326   25.8165 O   0  0  0  0  0  0  0  0  0  0  0  0
  2  1  1  6
  2  9  1  0
  3  2  1  0
  3  4  1  0
  4  5  2  0
  5  6  1  0
  7  6  1  0
  8  4  1  0
  8  7  2  0
  9 16  1  0
  9 10  2  0
 11 12  1  0
 12 13  2  0
 15 14  1  6
 14 12  1  0
 15 17  1  0
 16 15  1  0
 17 19  1  0
 18 17  2  0
 19 20  1  0
 20 21  1  1
 20 25  1  0
 21 22  1  0
 22 23  1  0
 23 24  2  0
 25 28  2  0
 25 26  1  0
 27 23  1  0
M  END
$$$$
