TIE.pdb
     RDKit          3D

 25 24  0  0  1  0  0  0  0  0999 V2000
    6.0802  -15.0659   19.0467 C   0  0  0  0  0  0  0  0  0  0  0  0
    6.9173  -15.0327   20.2819 C   0  0  1  0  0  0  0  0  0  0  0  0
    8.1608  -15.6480   20.1056 O   0  0  0  0  0  0  0  0  0  0  0  0
    7.2108  -13.5992   20.7421 C   0  0  2  0  0  0  0  0  0  0  0  0
    8.1111  -13.0462   19.7332 N   0  0  0  0  0  0  0  0  0  0  0  0
    7.9164  -13.7367   22.0442 C   0  0  0  0  0  0  0  0  0  0  0  0
    9.1660  -13.8458   22.0233 O   0  0  0  0  0  0  0  0  0  0  0  0
    5.6190  -11.1299   26.1983 C   0  0  0  0  0  0  0  0  0  0  0  0
    6.6062  -11.7257   25.2672 C   0  0  0  0  0  0  0  0  0  0  0  0
    7.1062  -13.0799   25.5596 C   0  0  2  0  0  0  0  0  0  0  0  0
    7.4858  -13.2854   27.0167 C   0  0  0  0  0  0  0  0  0  0  0  0
    8.0059  -13.7554   24.5828 C   0  0  2  0  0  0  0  0  0  0  0  0
    7.2646  -13.7509   23.2864 N   0  0  0  0  0  0  0  0  0  0  0  0
    8.4879  -15.0947   24.8616 C   0  0  0  0  0  0  0  0  0  0  0  0
    7.6619  -16.0934   24.8464 O   0  0  0  0  0  0  0  0  0  0  0  0
    9.8144  -15.5071   25.1596 N   0  0  0  0  0  0  0  0  0  0  0  0
   10.1685  -16.9216   25.3208 C   0  0  1  0  0  0  0  0  0  0  0  0
   11.4889  -17.1655   24.6063 C   0  0  0  0  0  0  0  0  0  0  0  0
   11.9690  -18.5691   24.6622 C   0  0  0  0  0  0  0  0  0  0  0  0
   13.2729  -18.6520   23.9187 C   0  0  0  0  0  0  0  0  0  0  0  0
   13.8555  -19.7579   23.8153 O   0  0  0  0  0  0  0  0  0  0  0  0
   10.1822  -17.3527   26.7237 C   0  0  0  0  0  0  0  0  0  0  0  0
   10.1265  -18.6977   27.1052 O   0  0  0  0  0  0  0  0  0  0  0  0
   13.8607  -17.5430   23.3381 O   0  0  0  0  0  0  0  0  0  0  0  0
   10.2437  -16.5357   27.6697 O   0  0  0  0  0  0  0  0  0  0  0  0
  2  1  1  6
  3  2  1  0
  4  2  1  0
  4  6  1  0
  4  5  1  6
  6 13  1  0
  6  7  2  0
  9  8  1  0
 10  9  1  0
 10 11  1  1
 12 10  1  0
 12 13  1  6
 14 16  1  0
 14 12  1  0
 15 14  2  0
 17 22  1  0
 17 16  1  0
 17 18  1  1
 18 19  1  0
 19 20  1  0
 20 21  2  0
 22 23  1  0
 24 20  1  0
 25 22  2  0
M  END
$$$$
