TIE.pdb
     RDKit          3D

 25 24  0  0  1  0  0  0  0  0999 V2000
    6.7812  -16.4097   21.3442 C   0  0  0  0  0  0  0  0  0  0  0  0
    7.4810  -15.4791   20.4106 C   0  0  1  0  0  0  0  0  0  0  0  0
    7.0865  -15.6544   19.0803 O   0  0  0  0  0  0  0  0  0  0  0  0
    7.2063  -14.0081   20.7478 C   0  0  2  0  0  0  0  0  0  0  0  0
    7.7867  -13.2442   19.6460 N   0  0  0  0  0  0  0  0  0  0  0  0
    7.9509  -13.7439   22.0080 C   0  0  0  0  0  0  0  0  0  0  0  0
    9.1682  -13.4541   21.9181 O   0  0  0  0  0  0  0  0  0  0  0  0
    6.6711  -11.5428   27.5740 C   0  0  0  0  0  0  0  0  0  0  0  0
    7.6379  -12.2807   26.7270 C   0  0  0  0  0  0  0  0  0  0  0  0
    7.1882  -12.7438   25.4031 C   0  0  2  0  0  0  0  0  0  0  0  0
    5.7643  -13.2747   25.3972 C   0  0  0  0  0  0  0  0  0  0  0  0
    8.1337  -13.4936   24.5293 C   0  0  2  0  0  0  0  0  0  0  0  0
    7.3695  -13.8007   23.2835 N   0  0  0  0  0  0  0  0  0  0  0  0
    8.7597  -14.7042   25.0256 C   0  0  0  0  0  0  0  0  0  0  0  0
    9.5081  -14.6563   26.0827 O   0  0  0  0  0  0  0  0  0  0  0  0
    8.6646  -16.0213   24.5013 N   0  0  0  0  0  0  0  0  0  0  0  0
    9.5965  -17.0825   24.8983 C   0  0  1  0  0  0  0  0  0  0  0  0
   10.8675  -16.9310   24.0766 C   0  0  0  0  0  0  0  0  0  0  0  0
   11.9464  -17.8876   24.4295 C   0  0  0  0  0  0  0  0  0  0  0  0
   12.5250  -18.4375   23.1556 C   0  0  0  0  0  0  0  0  0  0  0  0
   12.2907  -19.6270   22.8341 O   0  0  0  0  0  0  0  0  0  0  0  0
    9.8438  -17.1167   26.3446 C   0  0  0  0  0  0  0  0  0  0  0  0
   10.2491  -15.9925   27.0722 O   0  0  0  0  0  0  0  0  0  0  0  0
   13.3143  -17.6732   22.3158 O   0  0  0  0  0  0  0  0  0  0  0  0
    9.7068  -18.1626   27.0179 O   0  0  0  0  0  0  0  0  0  0  0  0
  2  1  1  1
  3  2  1  0
  4  2  1  0
  4  6  1  0
  4  5  1  6
  6 13  1  0
  6  7  2  0
  9  8  1  0
 10  9  1  0
 10 11  1  1
 12 10  1  0
 12 13  1  6
 14 16  1  0
 14 12  1  0
 15 14  2  0
 17 22  1  0
 17 16  1  0
 17 18  1  6
 18 19  1  0
 19 20  1  0
 20 21  2  0
 22 23  1  0
 24 20  1  0
 25 22  2  0
M  END
$$$$
