TIE.pdb
     RDKit          3D

 25 24  0  0  1  0  0  0  0  0999 V2000
   12.2184  -17.3181   17.8650 C   0  0  0  0  0  0  0  0  0  0  0  0
   13.2609  -16.3121   17.5063 C   0  0  1  0  0  0  0  0  0  0  0  0
   13.8929  -16.6017   16.2928 O   0  0  0  0  0  0  0  0  0  0  0  0
   12.6759  -14.9020   17.3581 C   0  0  2  0  0  0  0  0  0  0  0  0
   13.8131  -14.0439   17.0346 N   0  0  0  0  0  0  0  0  0  0  0  0
   12.1317  -14.5549   18.6981 C   0  0  0  0  0  0  0  0  0  0  0  0
   12.9477  -14.2344   19.5954 O   0  0  0  0  0  0  0  0  0  0  0  0
    7.1744  -12.2633   19.0700 C   0  0  0  0  0  0  0  0  0  0  0  0
    8.5834  -12.6726   19.2795 C   0  0  0  0  0  0  0  0  0  0  0  0
    8.8506  -13.7986   20.1906 C   0  0  2  0  0  0  0  0  0  0  0  0
    8.0157  -13.7638   21.4599 C   0  0  0  0  0  0  0  0  0  0  0  0
   10.2510  -14.2698   20.3817 C   0  0  2  0  0  0  0  0  0  0  0  0
   10.7641  -14.5663   19.0110 N   0  0  0  0  0  0  0  0  0  0  0  0
   10.5131  -15.3994   21.2530 C   0  0  0  0  0  0  0  0  0  0  0  0
   10.0710  -16.5754   20.9347 O   0  0  0  0  0  0  0  0  0  0  0  0
   11.2346  -15.4166   22.4768 N   0  0  0  0  0  0  0  0  0  0  0  0
   11.5537  -16.6691   23.1709 C   0  0  1  0  0  0  0  0  0  0  0  0
   13.0379  -16.9481   22.9900 C   0  0  0  0  0  0  0  0  0  0  0  0
   13.9074  -16.3587   24.0388 C   0  0  0  0  0  0  0  0  0  0  0  0
   15.2959  -16.2221   23.4791 C   0  0  0  0  0  0  0  0  0  0  0  0
   16.2490  -16.8133   24.0407 O   0  0  0  0  0  0  0  0  0  0  0  0
   11.1328  -16.6684   24.5770 C   0  0  0  0  0  0  0  0  0  0  0  0
   11.2498  -17.7902   25.4049 O   0  0  0  0  0  0  0  0  0  0  0  0
   15.5651  -15.4611   22.3562 O   0  0  0  0  0  0  0  0  0  0  0  0
   10.6391  -15.6562   25.1226 O   0  0  0  0  0  0  0  0  0  0  0  0
  2  1  1  6
  3  2  1  0
  4  2  1  0
  4  6  1  0
  4  5  1  1
  6 13  1  0
  6  7  2  0
  9  8  1  0
 10  9  1  0
 10 11  1  1
 12 10  1  0
 12 13  1  6
 14 16  1  0
 14 12  1  0
 15 14  2  0
 17 22  1  0
 17 16  1  0
 17 18  1  1
 18 19  1  0
 19 20  1  0
 20 21  2  0
 22 23  1  0
 24 20  1  0
 25 22  2  0
M  END
$$$$
