TIE.pdb
     RDKit          3D

 25 24  0  0  1  0  0  0  0  0999 V2000
    6.3665  -15.4466   19.2713 C   0  0  0  0  0  0  0  0  0  0  0  0
    7.1414  -15.1933   20.5216 C   0  0  1  0  0  0  0  0  0  0  0  0
    8.4976  -15.5072   20.3867 O   0  0  0  0  0  0  0  0  0  0  0  0
    7.0834  -13.7212   20.9485 C   0  0  2  0  0  0  0  0  0  0  0  0
    7.7936  -12.9876   19.9037 N   0  0  0  0  0  0  0  0  0  0  0  0
    7.8337  -13.6497   22.2308 C   0  0  0  0  0  0  0  0  0  0  0  0
    9.0681  -13.4332   22.1746 O   0  0  0  0  0  0  0  0  0  0  0  0
    5.7647  -11.3876   26.6715 C   0  0  0  0  0  0  0  0  0  0  0  0
    6.7591  -11.8994   25.6989 C   0  0  0  0  0  0  0  0  0  0  0  0
    7.1796  -13.3064   25.8122 C   0  0  2  0  0  0  0  0  0  0  0  0
    7.5470  -13.7182   27.2281 C   0  0  0  0  0  0  0  0  0  0  0  0
    8.0382  -13.9021   24.7502 C   0  0  2  0  0  0  0  0  0  0  0  0
    7.2397  -13.8103   23.4916 N   0  0  0  0  0  0  0  0  0  0  0  0
    8.5391  -15.2539   24.9097 C   0  0  0  0  0  0  0  0  0  0  0  0
    7.7355  -16.2605   24.7654 O   0  0  0  0  0  0  0  0  0  0  0  0
    9.8636  -15.6706   25.2109 N   0  0  0  0  0  0  0  0  0  0  0  0
   10.2217  -17.0882   25.3309 C   0  0  1  0  0  0  0  0  0  0  0  0
   11.4469  -17.3439   24.4666 C   0  0  0  0  0  0  0  0  0  0  0  0
   12.0309  -18.7008   24.6126 C   0  0  0  0  0  0  0  0  0  0  0  0
   13.2210  -18.8031   23.6999 C   0  0  0  0  0  0  0  0  0  0  0  0
   13.5511  -17.8143   23.0024 O   0  0  0  0  0  0  0  0  0  0  0  0
   10.3961  -17.5193   26.7230 C   0  0  0  0  0  0  0  0  0  0  0  0
   10.3578  -16.6311   27.8033 O   0  0  0  0  0  0  0  0  0  0  0  0
   13.9739  -19.9588   23.5992 O   0  0  0  0  0  0  0  0  0  0  0  0
   10.5923  -18.7170   27.0283 O   0  0  0  0  0  0  0  0  0  0  0  0
  2  1  1  6
  3  2  1  0
  4  2  1  0
  4  6  1  0
  4  5  1  6
  6 13  1  0
  6  7  2  0
  9  8  1  0
 10  9  1  0
 10 11  1  1
 12 10  1  0
 12 13  1  6
 14 16  1  0
 14 12  1  0
 15 14  2  0
 17 22  1  0
 17 16  1  0
 17 18  1  6
 18 19  1  0
 19 20  1  0
 20 21  2  0
 22 23  1  0
 24 20  1  0
 25 22  2  0
M  END
$$$$
