TIE.pdb
     RDKit          3D

 25 24  0  0  1  0  0  0  0  0999 V2000
    6.4967  -16.7476   21.3466 C   0  0  0  0  0  0  0  0  0  0  0  0
    7.2655  -15.7954   20.4923 C   0  0  1  0  0  0  0  0  0  0  0  0
    6.9015  -15.8682   19.1439 O   0  0  0  0  0  0  0  0  0  0  0  0
    7.0501  -14.3368   20.9154 C   0  0  2  0  0  0  0  0  0  0  0  0
    7.6841  -13.5343   19.8722 N   0  0  0  0  0  0  0  0  0  0  0  0
    7.7821  -14.1840   22.2012 C   0  0  0  0  0  0  0  0  0  0  0  0
    9.0336  -14.1090   22.1561 O   0  0  0  0  0  0  0  0  0  0  0  0
    8.2101  -11.6367   27.0606 C   0  0  0  0  0  0  0  0  0  0  0  0
    7.4634  -12.9159   27.0095 C   0  0  0  0  0  0  0  0  0  0  0  0
    6.9658  -13.3770   25.7021 C   0  0  2  0  0  0  0  0  0  0  0  0
    5.6101  -14.0598   25.7749 C   0  0  0  0  0  0  0  0  0  0  0  0
    7.9163  -13.9867   24.7302 C   0  0  2  0  0  0  0  0  0  0  0  0
    7.1531  -14.1196   23.4535 N   0  0  0  0  0  0  0  0  0  0  0  0
    8.5530  -15.2504   25.0489 C   0  0  0  0  0  0  0  0  0  0  0  0
    7.8975  -16.3584   24.8992 O   0  0  0  0  0  0  0  0  0  0  0  0
    9.8737  -15.4744   25.5224 N   0  0  0  0  0  0  0  0  0  0  0  0
   10.4076  -16.8266   25.7187 C   0  0  1  0  0  0  0  0  0  0  0  0
   11.7338  -16.9259   24.9807 C   0  0  0  0  0  0  0  0  0  0  0  0
   12.4170  -18.2369   25.1159 C   0  0  0  0  0  0  0  0  0  0  0  0
   13.7181  -18.1708   24.3657 C   0  0  0  0  0  0  0  0  0  0  0  0
   14.5595  -17.2901   24.6653 O   0  0  0  0  0  0  0  0  0  0  0  0
   10.5038  -17.2050   27.1336 C   0  0  0  0  0  0  0  0  0  0  0  0
   10.7018  -18.5244   27.5548 O   0  0  0  0  0  0  0  0  0  0  0  0
   14.0257  -19.0537   23.3467 O   0  0  0  0  0  0  0  0  0  0  0  0
   10.4123  -16.3627   28.0546 O   0  0  0  0  0  0  0  0  0  0  0  0
  2  1  1  1
  3  2  1  0
  4  2  1  0
  4  6  1  0
  4  5  1  6
  6 13  1  0
  6  7  2  0
  9  8  1  0
 10  9  1  0
 10 11  1  1
 12 10  1  0
 12 13  1  6
 14 16  1  0
 14 12  1  0
 15 14  2  0
 17 22  1  0
 17 16  1  0
 17 18  1  1
 18 19  1  0
 19 20  1  0
 20 21  2  0
 22 23  1  0
 24 20  1  0
 25 22  2  0
M  END
$$$$
