DFV.pdb
     RDKit          3D

 27 27  0  0  1  0  0  0  0  0999 V2000
   10.8176  -16.1722   19.7402 N   0  0  0  0  0  0  0  0  0  0  0  0
    9.8054  -16.7456   20.5714 C   0  0  1  0  0  0  0  0  0  0  0  0
    9.9473  -18.2440   20.7143 C   0  0  0  0  0  0  0  0  0  0  0  0
    9.8337  -18.9392   19.4205 C   0  0  0  0  0  0  0  0  0  0  0  0
    8.9592  -18.5934   18.6057 O   0  0  0  0  0  0  0  0  0  0  0  0
    9.8103  -16.0638   21.8898 C   0  0  0  0  0  0  0  0  0  0  0  0
   10.8537  -15.9338   22.5673 O   0  0  0  0  0  0  0  0  0  0  0  0
   10.6913  -19.9684   19.1117 O   0  0  0  0  0  0  0  0  0  0  0  0
    8.5950  -15.5475   22.3899 N   0  0  0  0  0  0  0  0  0  0  0  0
    8.4403  -14.9303   23.6738 C   0  0  1  0  0  0  0  0  0  0  0  0
    7.2407  -14.0128   23.6357 C   0  0  0  0  0  0  0  0  0  0  0  0
    7.1438  -13.4016   25.0090 C   0  0  0  0  0  0  0  0  0  0  0  0
    7.9830  -12.3643   25.3475 C   0  0  0  0  0  0  0  0  0  0  0  0
    7.9131  -11.7820   26.6111 C   0  0  0  0  0  0  0  0  0  0  0  0
    7.0073  -12.2270   27.5492 C   0  0  0  0  0  0  0  0  0  0  0  0
    6.1642  -13.2733   27.2010 C   0  0  0  0  0  0  0  0  0  0  0  0
    6.2406  -13.8453   25.9441 C   0  0  0  0  0  0  0  0  0  0  0  0
    8.4246  -15.8741   24.7917 C   0  0  0  0  0  0  0  0  0  0  0  0
    7.4181  -16.6136   24.9365 O   0  0  0  0  0  0  0  0  0  0  0  0
   10.9631  -19.2961   26.7534 C   0  0  0  0  0  0  0  0  0  0  0  0
   10.7633  -18.0550   25.9081 C   0  0  2  0  0  0  0  0  0  0  0  0
   12.0867  -17.3208   25.8739 C   0  0  0  0  0  0  0  0  0  0  0  0
    9.7030  -17.1464   26.4909 C   0  0  2  0  0  0  0  0  0  0  0  0
    9.5029  -15.9662   25.6947 N   0  0  0  0  0  0  0  0  0  0  0  0
   10.1259  -16.7475   27.8461 C   0  0  0  0  0  0  0  0  0  0  0  0
   10.2387  -17.6240   28.7351 O   0  0  0  0  0  0  0  0  0  0  0  0
   10.4083  -15.4343   28.1885 O   0  0  0  0  0  0  0  0  0  0  0  0
  2  1  1  6
  2  3  1  0
  4  3  1  0
  4  8  1  0
  5  4  2  0
  6  2  1  0
  7  6  2  0
  9  6  1  0
 10  9  1  0
 10 11  1  6
 12 11  1  0
 12 13  2  0
 14 13  1  0
 15 14  2  0
 16 17  2  0
 16 15  1  0
 17 12  1  0
 18 10  1  0
 18 24  1  0
 19 18  2  0
 21 20  1  1
 21 23  1  0
 22 21  1  0
 23 24  1  6
 23 25  1  0
 25 27  1  0
 26 25  2  0
M  END
$$$$
