DFV.pdb
     RDKit          3D

 27 27  0  0  1  0  0  0  0  0999 V2000
   11.9700  -16.5173   19.9123 N   0  0  0  0  0  0  0  0  0  0  0  0
   11.4121  -17.2643   20.9963 C   0  0  1  0  0  0  0  0  0  0  0  0
   12.3358  -18.3547   21.4899 C   0  0  0  0  0  0  0  0  0  0  0  0
   12.6772  -19.3171   20.4281 C   0  0  0  0  0  0  0  0  0  0  0  0
   13.8701  -19.5375   20.1514 O   0  0  0  0  0  0  0  0  0  0  0  0
   11.0280  -16.3328   22.0861 C   0  0  0  0  0  0  0  0  0  0  0  0
   11.8280  -15.4943   22.5571 O   0  0  0  0  0  0  0  0  0  0  0  0
   11.6811  -19.9718   19.7429 O   0  0  0  0  0  0  0  0  0  0  0  0
    9.7161  -16.4001   22.6038 N   0  0  0  0  0  0  0  0  0  0  0  0
    9.2079  -15.5566   23.6447 C   0  0  1  0  0  0  0  0  0  0  0  0
    7.7281  -15.3453   23.4263 C   0  0  0  0  0  0  0  0  0  0  0  0
    7.3226  -14.2476   24.3748 C   0  0  0  0  0  0  0  0  0  0  0  0
    6.5431  -14.5527   25.4674 C   0  0  0  0  0  0  0  0  0  0  0  0
    6.1548  -13.5556   26.3594 C   0  0  0  0  0  0  0  0  0  0  0  0
    6.5390  -12.2457   26.1717 C   0  0  0  0  0  0  0  0  0  0  0  0
    7.3250  -11.9453   25.0677 C   0  0  0  0  0  0  0  0  0  0  0  0
    7.7057  -12.9418   24.1875 C   0  0  0  0  0  0  0  0  0  0  0  0
    9.5455  -16.0063   24.9954 C   0  0  0  0  0  0  0  0  0  0  0  0
    9.7404  -17.2338   25.1863 O   0  0  0  0  0  0  0  0  0  0  0  0
   10.7581  -13.1040   27.9366 C   0  0  0  0  0  0  0  0  0  0  0  0
   10.1508  -14.4225   28.3696 C   0  0  2  0  0  0  0  0  0  0  0  0
   10.8897  -14.8667   29.6139 C   0  0  0  0  0  0  0  0  0  0  0  0
   10.2935  -15.4821   27.2989 C   0  0  2  0  0  0  0  0  0  0  0  0
    9.6542  -15.0999   26.0693 N   0  0  0  0  0  0  0  0  0  0  0  0
    9.6805  -16.7288   27.7936 C   0  0  0  0  0  0  0  0  0  0  0  0
    8.5071  -17.0104   27.4544 O   0  0  0  0  0  0  0  0  0  0  0  0
   10.3471  -17.6148   28.6253 O   0  0  0  0  0  0  0  0  0  0  0  0
  2  1  1  6
  2  3  1  0
  4  3  1  0
  4  8  1  0
  5  4  2  0
  6  2  1  0
  7  6  2  0
  9  6  1  0
 10  9  1  0
 10 11  1  1
 12 11  1  0
 12 13  2  0
 14 13  1  0
 15 14  2  0
 16 17  2  0
 16 15  1  0
 17 12  1  0
 18 10  1  0
 18 24  1  0
 19 18  2  0
 21 20  1  6
 21 23  1  0
 22 21  1  0
 23 24  1  6
 23 25  1  0
 25 27  1  0
 26 25  2  0
M  END
$$$$
