DFV.pdb
     RDKit          3D

 27 27  0  0  1  0  0  0  0  0999 V2000
   11.0757  -16.6682   19.6195 N   0  0  0  0  0  0  0  0  0  0  0  0
   11.2404  -17.2711   20.9055 C   0  0  1  0  0  0  0  0  0  0  0  0
   12.6464  -17.7762   21.1374 C   0  0  0  0  0  0  0  0  0  0  0  0
   12.9819  -18.9100   20.2587 C   0  0  0  0  0  0  0  0  0  0  0  0
   12.1342  -19.7930   20.0351 O   0  0  0  0  0  0  0  0  0  0  0  0
   10.8210  -16.3086   21.9546 C   0  0  0  0  0  0  0  0  0  0  0  0
   11.4683  -15.2663   22.1979 O   0  0  0  0  0  0  0  0  0  0  0  0
   14.2288  -18.9944   19.6856 O   0  0  0  0  0  0  0  0  0  0  0  0
    9.6529  -16.5840   22.6986 N   0  0  0  0  0  0  0  0  0  0  0  0
    9.1033  -15.7188   23.6999 C   0  0  1  0  0  0  0  0  0  0  0  0
    7.6103  -15.6160   23.4935 C   0  0  0  0  0  0  0  0  0  0  0  0
    7.1509  -14.4721   24.3592 C   0  0  0  0  0  0  0  0  0  0  0  0
    7.5353  -13.1888   24.0430 C   0  0  0  0  0  0  0  0  0  0  0  0
    7.1238  -12.1139   24.8276 C   0  0  0  0  0  0  0  0  0  0  0  0
    6.3258  -12.3067   25.9343 C   0  0  0  0  0  0  0  0  0  0  0  0
    5.9420  -13.6035   26.2472 C   0  0  0  0  0  0  0  0  0  0  0  0
    6.3554  -14.6646   25.4624 C   0  0  0  0  0  0  0  0  0  0  0  0
    9.4858  -16.0703   25.0677 C   0  0  0  0  0  0  0  0  0  0  0  0
    9.7440  -17.2734   25.3264 O   0  0  0  0  0  0  0  0  0  0  0  0
   10.4760  -12.9935   27.9793 C   0  0  0  0  0  0  0  0  0  0  0  0
    9.8965  -14.3325   28.3871 C   0  0  2  0  0  0  0  0  0  0  0  0
   10.5512  -14.7221   29.6952 C   0  0  0  0  0  0  0  0  0  0  0  0
   10.1744  -15.4005   27.3519 C   0  0  2  0  0  0  0  0  0  0  0  0
    9.5683  -15.0973   26.0839 N   0  0  0  0  0  0  0  0  0  0  0  0
    9.6374  -16.6809   27.8488 C   0  0  0  0  0  0  0  0  0  0  0  0
   10.3005  -17.3399   28.6838 O   0  0  0  0  0  0  0  0  0  0  0  0
    8.4204  -17.1971   27.4321 O   0  0  0  0  0  0  0  0  0  0  0  0
  2  1  1  6
  2  3  1  0
  4  3  1  0
  4  8  1  0
  5  4  2  0
  6  2  1  0
  7  6  2  0
  9  6  1  0
 10  9  1  0
 10 11  1  1
 12 11  1  0
 12 13  2  0
 14 13  1  0
 15 14  2  0
 16 17  2  0
 16 15  1  0
 17 12  1  0
 18 10  1  0
 18 24  1  0
 19 18  2  0
 21 20  1  6
 21 23  1  0
 22 21  1  0
 23 24  1  6
 23 25  1  0
 25 27  1  0
 26 25  2  0
M  END
$$$$
