DFV.pdb
     RDKit          3D

 27 27  0  0  1  0  0  0  0  0999 V2000
   10.9151  -16.3004   19.3573 N   0  0  0  0  0  0  0  0  0  0  0  0
    9.8212  -16.7468   20.1625 C   0  0  1  0  0  0  0  0  0  0  0  0
    9.7675  -18.2523   20.2910 C   0  0  0  0  0  0  0  0  0  0  0  0
    9.5407  -18.9133   18.9941 C   0  0  0  0  0  0  0  0  0  0  0  0
   10.4404  -19.6065   18.4859 O   0  0  0  0  0  0  0  0  0  0  0  0
    9.8865  -16.0830   21.4885 C   0  0  0  0  0  0  0  0  0  0  0  0
   10.9676  -15.9120   22.0939 O   0  0  0  0  0  0  0  0  0  0  0  0
    8.3378  -18.7659   18.3447 O   0  0  0  0  0  0  0  0  0  0  0  0
    8.6864  -15.6323   22.0802 N   0  0  0  0  0  0  0  0  0  0  0  0
    8.5927  -15.0441   23.3835 C   0  0  1  0  0  0  0  0  0  0  0  0
    7.3536  -14.1820   23.4446 C   0  0  0  0  0  0  0  0  0  0  0  0
    7.3667  -13.5350   24.8048 C   0  0  0  0  0  0  0  0  0  0  0  0
    6.4883  -13.9732   25.7697 C   0  0  0  0  0  0  0  0  0  0  0  0
    6.4805  -13.3913   27.0354 C   0  0  0  0  0  0  0  0  0  0  0  0
    7.3471  -12.3679   27.3520 C   0  0  0  0  0  0  0  0  0  0  0  0
    8.2301  -11.9311   26.3740 C   0  0  0  0  0  0  0  0  0  0  0  0
    8.2307  -12.5148   25.1202 C   0  0  0  0  0  0  0  0  0  0  0  0
    8.6956  -16.0060   24.4811 C   0  0  0  0  0  0  0  0  0  0  0  0
    7.8498  -16.9342   24.5448 O   0  0  0  0  0  0  0  0  0  0  0  0
   11.6697  -18.0780   24.7577 C   0  0  0  0  0  0  0  0  0  0  0  0
   11.4407  -17.5028   26.1403 C   0  0  2  0  0  0  0  0  0  0  0  0
   11.7186  -18.6094   27.1353 C   0  0  0  0  0  0  0  0  0  0  0  0
   10.0178  -17.0190   26.3158 C   0  0  2  0  0  0  0  0  0  0  0  0
    9.7118  -15.9104   25.4530 N   0  0  0  0  0  0  0  0  0  0  0  0
    9.8381  -16.6016   27.7188 C   0  0  0  0  0  0  0  0  0  0  0  0
    9.9275  -15.3862   28.0121 O   0  0  0  0  0  0  0  0  0  0  0  0
    9.5719  -17.4991   28.7410 O   0  0  0  0  0  0  0  0  0  0  0  0
  2  1  1  6
  2  3  1  0
  4  3  1  0
  4  8  1  0
  5  4  2  0
  6  2  1  0
  7  6  2  0
  9  6  1  0
 10  9  1  0
 10 11  1  6
 12 11  1  0
 12 13  2  0
 14 13  1  0
 15 14  2  0
 16 17  2  0
 16 15  1  0
 17 12  1  0
 18 10  1  0
 18 24  1  0
 19 18  2  0
 21 20  1  6
 21 23  1  0
 22 21  1  0
 23 24  1  6
 23 25  1  0
 25 27  1  0
 26 25  2  0
M  END
$$$$
