DFV.pdb
     RDKit          3D

 27 27  0  0  1  0  0  0  0  0999 V2000
    9.0802  -17.2253   20.8568 N   0  0  0  0  0  0  0  0  0  0  0  0
   10.3478  -16.9624   21.4637 C   0  0  1  0  0  0  0  0  0  0  0  0
   11.3633  -16.4212   20.4829 C   0  0  0  0  0  0  0  0  0  0  0  0
   11.3463  -17.1528   19.2044 C   0  0  0  0  0  0  0  0  0  0  0  0
   10.8084  -16.6423   18.2052 O   0  0  0  0  0  0  0  0  0  0  0  0
   10.1578  -16.0504   22.6191 C   0  0  0  0  0  0  0  0  0  0  0  0
   11.1188  -15.6355   23.3039 O   0  0  0  0  0  0  0  0  0  0  0  0
   11.9231  -18.3975   19.1131 O   0  0  0  0  0  0  0  0  0  0  0  0
    8.8477  -15.6415   22.9510 N   0  0  0  0  0  0  0  0  0  0  0  0
    8.5022  -14.8870   24.1192 C   0  0  1  0  0  0  0  0  0  0  0  0
    7.2164  -14.1385   23.8572 C   0  0  0  0  0  0  0  0  0  0  0  0
    6.9592  -13.3138   25.0911 C   0  0  0  0  0  0  0  0  0  0  0  0
    7.8679  -12.3477   25.4595 C   0  0  0  0  0  0  0  0  0  0  0  0
    7.6531  -11.5718   26.5962 C   0  0  0  0  0  0  0  0  0  0  0  0
    6.5317  -11.7504   27.3767 C   0  0  0  0  0  0  0  0  0  0  0  0
    5.6196  -12.7264   26.9993 C   0  0  0  0  0  0  0  0  0  0  0  0
    5.8412  -13.4921   25.8691 C   0  0  0  0  0  0  0  0  0  0  0  0
    8.4855  -15.6724   25.3535 C   0  0  0  0  0  0  0  0  0  0  0  0
    8.5177  -15.0616   26.4520 O   0  0  0  0  0  0  0  0  0  0  0  0
    6.6471  -19.3999   25.8441 C   0  0  0  0  0  0  0  0  0  0  0  0
    8.0755  -19.2851   26.3355 C   0  0  2  0  0  0  0  0  0  0  0  0
    8.1551  -20.0271   27.6526 C   0  0  0  0  0  0  0  0  0  0  0  0
    8.4788  -17.8426   26.5496 C   0  0  2  0  0  0  0  0  0  0  0  0
    8.4348  -17.0807   25.3312 N   0  0  0  0  0  0  0  0  0  0  0  0
    9.8530  -17.8181   27.0839 C   0  0  0  0  0  0  0  0  0  0  0  0
   10.0313  -17.5969   28.3047 O   0  0  0  0  0  0  0  0  0  0  0  0
   10.9705  -18.0306   26.2918 O   0  0  0  0  0  0  0  0  0  0  0  0
  2  1  1  6
  2  3  1  0
  4  3  1  0
  4  8  1  0
  5  4  2  0
  6  2  1  0
  7  6  2  0
  9  6  1  0
 10  9  1  0
 10 11  1  6
 12 11  1  0
 12 13  2  0
 14 13  1  0
 15 14  2  0
 16 17  2  0
 16 15  1  0
 17 12  1  0
 18 10  1  0
 18 24  1  0
 19 18  2  0
 21 20  1  1
 21 23  1  0
 22 21  1  0
 23 24  1  6
 23 25  1  0
 25 27  1  0
 26 25  2  0
M  END
$$$$
