DFV.pdb
     RDKit          3D

 27 27  0  0  1  0  0  0  0  0999 V2000
   11.1769  -16.6173   19.7325 N   0  0  0  0  0  0  0  0  0  0  0  0
   10.8668  -17.3223   20.9372 C   0  0  1  0  0  0  0  0  0  0  0  0
   11.9677  -18.2688   21.3592 C   0  0  0  0  0  0  0  0  0  0  0  0
   12.2966  -19.2442   20.3053 C   0  0  0  0  0  0  0  0  0  0  0  0
   11.4275  -20.0384   19.9025 O   0  0  0  0  0  0  0  0  0  0  0  0
   10.5409  -16.3453   22.0060 C   0  0  0  0  0  0  0  0  0  0  0  0
   11.3025  -15.3957   22.2937 O   0  0  0  0  0  0  0  0  0  0  0  0
   13.5609  -19.2786   19.7662 O   0  0  0  0  0  0  0  0  0  0  0  0
    9.3308  -16.4981   22.7173 N   0  0  0  0  0  0  0  0  0  0  0  0
    8.8865  -15.6260   23.7639 C   0  0  1  0  0  0  0  0  0  0  0  0
    7.3888  -15.4580   23.6597 C   0  0  0  0  0  0  0  0  0  0  0  0
    7.0390  -14.3009   24.5585 C   0  0  0  0  0  0  0  0  0  0  0  0
    6.2283  -14.5147   25.6502 C   0  0  0  0  0  0  0  0  0  0  0  0
    5.8902  -13.4613   26.4967 C   0  0  0  0  0  0  0  0  0  0  0  0
    6.3559  -12.1855   26.2641 C   0  0  0  0  0  0  0  0  0  0  0  0
    7.1729  -11.9773   25.1613 C   0  0  0  0  0  0  0  0  0  0  0  0
    7.5034  -13.0292   24.3264 C   0  0  0  0  0  0  0  0  0  0  0  0
    9.3443  -16.0138   25.0983 C   0  0  0  0  0  0  0  0  0  0  0  0
    9.4676  -17.2382   25.3564 O   0  0  0  0  0  0  0  0  0  0  0  0
   10.6307  -13.0500   27.9781 C   0  0  0  0  0  0  0  0  0  0  0  0
   10.0268  -14.3721   28.4051 C   0  0  2  0  0  0  0  0  0  0  0  0
   10.7365  -14.7979   29.6727 C   0  0  0  0  0  0  0  0  0  0  0  0
   10.2108  -15.4384   27.3474 C   0  0  2  0  0  0  0  0  0  0  0  0
    9.6444  -15.0519   26.0838 N   0  0  0  0  0  0  0  0  0  0  0  0
    9.5531  -16.6735   27.8127 C   0  0  0  0  0  0  0  0  0  0  0  0
    8.3263  -16.8284   27.6074 O   0  0  0  0  0  0  0  0  0  0  0  0
   10.2341  -17.6836   28.4739 O   0  0  0  0  0  0  0  0  0  0  0  0
  2  1  1  6
  2  3  1  0
  4  3  1  0
  4  8  1  0
  5  4  2  0
  6  2  1  0
  7  6  2  0
  9  6  1  0
 10  9  1  0
 10 11  1  1
 12 11  1  0
 12 13  2  0
 14 13  1  0
 15 14  2  0
 16 17  2  0
 16 15  1  0
 17 12  1  0
 18 10  1  0
 18 24  1  0
 19 18  2  0
 21 20  1  6
 21 23  1  0
 22 21  1  0
 23 24  1  6
 23 25  1  0
 25 27  1  0
 26 25  2  0
M  END
$$$$
