DFV.pdb
     RDKit          3D

 27 27  0  0  1  0  0  0  0  0999 V2000
   11.4505  -16.6751   19.8885 N   0  0  0  0  0  0  0  0  0  0  0  0
   10.8435  -17.3549   20.9902 C   0  0  1  0  0  0  0  0  0  0  0  0
   11.6888  -18.4961   21.5090 C   0  0  0  0  0  0  0  0  0  0  0  0
   11.7672  -19.6110   20.5493 C   0  0  0  0  0  0  0  0  0  0  0  0
   11.2505  -19.4968   19.4231 O   0  0  0  0  0  0  0  0  0  0  0  0
   10.5288  -16.3731   22.0579 C   0  0  0  0  0  0  0  0  0  0  0  0
   11.3347  -15.4787   22.3974 O   0  0  0  0  0  0  0  0  0  0  0  0
   12.4095  -20.7763   20.8951 O   0  0  0  0  0  0  0  0  0  0  0  0
    9.2779  -16.4565   22.7076 N   0  0  0  0  0  0  0  0  0  0  0  0
    8.8422  -15.5751   23.7500 C   0  0  1  0  0  0  0  0  0  0  0  0
    7.3475  -15.3857   23.6393 C   0  0  0  0  0  0  0  0  0  0  0  0
    6.9960  -14.2916   24.6130 C   0  0  0  0  0  0  0  0  0  0  0  0
    7.5144  -13.0300   24.4276 C   0  0  0  0  0  0  0  0  0  0  0  0
    7.2046  -12.0010   25.3140 C   0  0  0  0  0  0  0  0  0  0  0  0
    6.3759  -12.2185   26.3931 C   0  0  0  0  0  0  0  0  0  0  0  0
    5.8568  -13.4932   26.5740 C   0  0  0  0  0  0  0  0  0  0  0  0
    6.1699  -14.5086   25.6888 C   0  0  0  0  0  0  0  0  0  0  0  0
    9.2889  -15.9658   25.0873 C   0  0  0  0  0  0  0  0  0  0  0  0
    9.4490  -17.1888   25.3313 O   0  0  0  0  0  0  0  0  0  0  0  0
   10.9960  -13.0290   27.7428 C   0  0  0  0  0  0  0  0  0  0  0  0
   10.2542  -14.2271   28.2987 C   0  0  2  0  0  0  0  0  0  0  0  0
   10.9930  -14.6710   29.5432 C   0  0  0  0  0  0  0  0  0  0  0  0
   10.2144  -15.3694   27.3073 C   0  0  2  0  0  0  0  0  0  0  0  0
    9.5387  -15.0081   26.0908 N   0  0  0  0  0  0  0  0  0  0  0  0
    9.5085  -16.5033   27.9321 C   0  0  0  0  0  0  0  0  0  0  0  0
   10.1511  -17.3016   28.6539 O   0  0  0  0  0  0  0  0  0  0  0  0
    8.1525  -16.7319   27.7577 O   0  0  0  0  0  0  0  0  0  0  0  0
  2  1  1  6
  2  3  1  0
  4  3  1  0
  4  8  1  0
  5  4  2  0
  6  2  1  0
  7  6  2  0
  9  6  1  0
 10  9  1  0
 10 11  1  1
 12 11  1  0
 12 13  2  0
 14 13  1  0
 15 14  2  0
 16 17  2  0
 16 15  1  0
 17 12  1  0
 18 10  1  0
 18 24  1  0
 19 18  2  0
 21 20  1  6
 21 23  1  0
 22 21  1  0
 23 24  1  6
 23 25  1  0
 25 27  1  0
 26 25  2  0
M  END
$$$$
