DFV.pdb
     RDKit          3D

 27 27  0  0  1  0  0  0  0  0999 V2000
   11.0388  -16.6919   19.6967 N   0  0  0  0  0  0  0  0  0  0  0  0
   11.3746  -17.2350   20.9760 C   0  0  1  0  0  0  0  0  0  0  0  0
   12.8381  -17.5970   21.0904 C   0  0  0  0  0  0  0  0  0  0  0  0
   13.2598  -18.5449   20.0445 C   0  0  0  0  0  0  0  0  0  0  0  0
   12.7444  -19.6760   19.9887 O   0  0  0  0  0  0  0  0  0  0  0  0
   10.9581  -16.2836   22.0364 C   0  0  0  0  0  0  0  0  0  0  0  0
   11.6586  -15.2986   22.3585 O   0  0  0  0  0  0  0  0  0  0  0  0
   14.2209  -18.1824   19.1306 O   0  0  0  0  0  0  0  0  0  0  0  0
    9.7308  -16.5028   22.6992 N   0  0  0  0  0  0  0  0  0  0  0  0
    9.1982  -15.6569   23.7258 C   0  0  1  0  0  0  0  0  0  0  0  0
    7.7082  -15.5152   23.5208 C   0  0  0  0  0  0  0  0  0  0  0  0
    7.2765  -14.3717   24.4010 C   0  0  0  0  0  0  0  0  0  0  0  0
    7.6981  -13.0951   24.1053 C   0  0  0  0  0  0  0  0  0  0  0  0
    7.3127  -12.0206   24.9037 C   0  0  0  0  0  0  0  0  0  0  0  0
    6.5041  -12.2070   26.0037 C   0  0  0  0  0  0  0  0  0  0  0  0
    6.0827  -13.4969   26.2958 C   0  0  0  0  0  0  0  0  0  0  0  0
    6.4704  -14.5577   25.4975 C   0  0  0  0  0  0  0  0  0  0  0  0
    9.5705  -16.0584   25.0826 C   0  0  0  0  0  0  0  0  0  0  0  0
    9.7611  -17.2794   25.3144 O   0  0  0  0  0  0  0  0  0  0  0  0
   10.7175  -13.0805   27.9690 C   0  0  0  0  0  0  0  0  0  0  0  0
   10.1300  -14.4006   28.4240 C   0  0  2  0  0  0  0  0  0  0  0  0
   10.8637  -14.8043   29.6851 C   0  0  0  0  0  0  0  0  0  0  0  0
   10.3036  -15.4799   27.3779 C   0  0  2  0  0  0  0  0  0  0  0  0
    9.7165  -15.1132   26.1179 N   0  0  0  0  0  0  0  0  0  0  0  0
    9.6594  -16.7121   27.8693 C   0  0  0  0  0  0  0  0  0  0  0  0
    8.4494  -16.9146   27.6119 O   0  0  0  0  0  0  0  0  0  0  0  0
   10.3351  -17.6684   28.6110 O   0  0  0  0  0  0  0  0  0  0  0  0
  2  1  1  6
  2  3  1  0
  4  3  1  0
  4  8  1  0
  5  4  2  0
  6  2  1  0
  7  6  2  0
  9  6  1  0
 10  9  1  0
 10 11  1  1
 12 11  1  0
 12 13  2  0
 14 13  1  0
 15 14  2  0
 16 17  2  0
 16 15  1  0
 17 12  1  0
 18 10  1  0
 18 24  1  0
 19 18  2  0
 21 20  1  6
 21 23  1  0
 22 21  1  0
 23 24  1  6
 23 25  1  0
 25 27  1  0
 26 25  2  0
M  END
$$$$
