DFV.pdb
     RDKit          3D

 27 27  0  0  1  0  0  0  0  0999 V2000
    9.1962  -17.1093   20.0378 N   0  0  0  0  0  0  0  0  0  0  0  0
   10.2159  -17.4421   20.9831 C   0  0  1  0  0  0  0  0  0  0  0  0
   11.5969  -17.4645   20.3681 C   0  0  0  0  0  0  0  0  0  0  0  0
   11.6601  -18.3260   19.1746 C   0  0  0  0  0  0  0  0  0  0  0  0
   11.6960  -17.8134   18.0414 O   0  0  0  0  0  0  0  0  0  0  0  0
   10.1407  -16.5076   22.1337 C   0  0  0  0  0  0  0  0  0  0  0  0
   11.1532  -15.9322   22.5903 O   0  0  0  0  0  0  0  0  0  0  0  0
   11.6795  -19.6939   19.3104 O   0  0  0  0  0  0  0  0  0  0  0  0
    8.8831  -16.2643   22.7278 N   0  0  0  0  0  0  0  0  0  0  0  0
    8.6743  -15.4434   23.8835 C   0  0  1  0  0  0  0  0  0  0  0  0
    7.2684  -14.8920   23.8461 C   0  0  0  0  0  0  0  0  0  0  0  0
    7.1902  -13.8825   24.9613 C   0  0  0  0  0  0  0  0  0  0  0  0
    6.5758  -14.2283   26.1435 C   0  0  0  0  0  0  0  0  0  0  0  0
    6.4905  -13.3129   27.1901 C   0  0  0  0  0  0  0  0  0  0  0  0
    7.0160  -12.0449   27.0693 C   0  0  0  0  0  0  0  0  0  0  0  0
    7.6342  -11.7031   25.8743 C   0  0  0  0  0  0  0  0  0  0  0  0
    7.7142  -12.6185   24.8407 C   0  0  0  0  0  0  0  0  0  0  0  0
    9.0181  -16.0944   25.1479 C   0  0  0  0  0  0  0  0  0  0  0  0
    8.4494  -17.1778   25.4373 O   0  0  0  0  0  0  0  0  0  0  0  0
   12.8154  -16.3676   25.9581 C   0  0  0  0  0  0  0  0  0  0  0  0
   12.0450  -16.0352   27.2195 C   0  0  2  0  0  0  0  0  0  0  0  0
   12.6134  -16.8945   28.3287 C   0  0  0  0  0  0  0  0  0  0  0  0
   10.5686  -16.3292   27.0666 C   0  0  2  0  0  0  0  0  0  0  0  0
    9.9619  -15.5353   26.0329 N   0  0  0  0  0  0  0  0  0  0  0  0
    9.9016  -16.0409   28.3498 C   0  0  0  0  0  0  0  0  0  0  0  0
    9.3397  -14.9322   28.5120 O   0  0  0  0  0  0  0  0  0  0  0  0
    9.8653  -16.9475   29.3976 O   0  0  0  0  0  0  0  0  0  0  0  0
  2  1  1  6
  2  3  1  0
  4  3  1  0
  4  8  1  0
  5  4  2  0
  6  2  1  0
  7  6  2  0
  9  6  1  0
 10  9  1  0
 10 11  1  1
 12 11  1  0
 12 13  2  0
 14 13  1  0
 15 14  2  0
 16 17  2  0
 16 15  1  0
 17 12  1  0
 18 10  1  0
 18 24  1  0
 19 18  2  0
 21 20  1  6
 21 23  1  0
 22 21  1  0
 23 24  1  6
 23 25  1  0
 25 27  1  0
 26 25  2  0
M  END
$$$$
