WPC.pdb
     RDKit          3D

 28 30  0  0  1  0  0  0  0  0999 V2000
   24.0108  -20.2565  -11.7617 N   0  0  0  0  0  0  0  0  0  0  0  0
   25.4415  -20.3010  -12.0756 C   0  0  1  0  0  0  0  0  0  0  0  0
   26.0364  -21.3060  -11.1257 C   0  0  0  0  0  0  0  0  0  0  0  0
   26.1242  -20.8856   -9.7255 C   0  0  0  0  0  0  0  0  0  0  0  0
   25.0767  -20.6586   -8.8784 C   0  0  0  0  0  0  0  0  0  0  0  0
   25.5350  -20.2515   -7.6847 N   0  0  0  0  0  0  0  0  0  0  0  0
   26.8881  -20.2134   -7.7527 C   0  0  0  0  0  0  0  0  0  0  0  0
   27.8700  -19.8922   -6.8544 C   0  0  0  0  0  0  0  0  0  0  0  0
   29.2154  -19.9369   -7.1309 C   0  0  0  0  0  0  0  0  0  0  0  0
   29.5819  -20.3344   -8.4043 C   0  0  0  0  0  0  0  0  0  0  0  0
   28.6394  -20.6627   -9.3313 C   0  0  0  0  0  0  0  0  0  0  0  0
   27.2760  -20.6089   -9.0273 C   0  0  0  0  0  0  0  0  0  0  0  0
   25.7073  -20.6620  -13.4764 C   0  0  0  0  0  0  0  0  0  0  0  0
   24.7083  -21.2191  -14.0607 O   0  0  0  0  0  0  0  0  0  0  0  0
   26.9121  -20.4507  -14.1815 N   0  0  0  0  0  0  0  0  0  0  0  0
   28.1526  -20.0301  -13.6066 C   0  0  0  0  0  0  0  0  0  0  0  0
   28.9032  -19.3993  -14.7258 C   0  0  0  0  0  0  0  0  0  0  0  0
   27.9745  -19.4366  -15.9262 C   0  0  0  0  0  0  0  0  0  0  0  0
   27.0866  -20.6304  -15.5950 C   0  0  1  0  0  0  0  0  0  0  0  0
   27.7254  -21.9030  -15.9617 C   0  0  0  0  0  0  0  0  0  0  0  0
   28.7143  -22.3182  -15.3094 O   0  0  0  0  0  0  0  0  0  0  0  0
   27.2982  -22.7297  -17.0328 N   0  0  0  0  0  0  0  0  0  0  0  0
   27.4536  -24.1691  -17.0518 C   0  0  1  0  0  0  0  0  0  0  0  0
   26.6554  -24.8382  -15.9516 C   0  0  0  0  0  0  0  0  0  0  0  0
   24.9208  -24.3646  -16.0181 S   0  0  0  0  0  0  0  0  0  0  0  0
   26.9498  -24.6792  -18.3475 C   0  0  0  0  0  0  0  0  0  0  0  0
   26.3060  -23.8811  -19.2871 O   0  0  0  0  0  0  0  0  0  0  0  0
   27.0944  -25.8880  -18.6443 O   0  0  0  0  0  0  0  0  0  0  0  0
  2  1  1  6
  3  4  1  0
  3  2  1  0
  4 12  1  0
  5  4  2  0
  5  6  1  0
  6  7  1  0
  7  8  1  0
  8  9  2  0
 10  9  1  0
 11 10  2  0
 12  7  2  0
 12 11  1  0
 13 15  1  0
 13  2  1  0
 14 13  2  0
 15 16  1  0
 17 16  1  0
 18 17  1  0
 19 18  1  0
 19 20  1  1
 19 15  1  0
 20 21  2  0
 22 23  1  0
 22 20  1  0
 23 26  1  0
 23 24  1  1
 25 24  1  0
 26 28  2  0
 26 27  1  0
M  END
$$$$
