WPC.pdb
     RDKit          3D

 28 30  0  0  1  0  0  0  0  0999 V2000
   26.4531  -19.0344  -10.7038 N   0  0  0  0  0  0  0  0  0  0  0  0
   25.9376  -20.3517  -11.0861 C   0  0  1  0  0  0  0  0  0  0  0  0
   26.3535  -21.2883   -9.9833 C   0  0  0  0  0  0  0  0  0  0  0  0
   27.6887  -21.0628   -9.4250 C   0  0  0  0  0  0  0  0  0  0  0  0
   28.8787  -21.4043  -10.0023 C   0  0  0  0  0  0  0  0  0  0  0  0
   29.8925  -21.0773   -9.1862 N   0  0  0  0  0  0  0  0  0  0  0  0
   29.3615  -20.5189   -8.0712 C   0  0  0  0  0  0  0  0  0  0  0  0
   29.9028  -19.9954   -6.9279 C   0  0  0  0  0  0  0  0  0  0  0  0
   29.1667  -19.4517   -5.9026 C   0  0  0  0  0  0  0  0  0  0  0  0
   27.7916  -19.4417   -6.0536 C   0  0  0  0  0  0  0  0  0  0  0  0
   27.2087  -19.9523   -7.1739 C   0  0  0  0  0  0  0  0  0  0  0  0
   27.9782  -20.5012   -8.2038 C   0  0  0  0  0  0  0  0  0  0  0  0
   24.4793  -20.3602  -11.2776 C   0  0  0  0  0  0  0  0  0  0  0  0
   23.8314  -19.8276  -10.3047 O   0  0  0  0  0  0  0  0  0  0  0  0
   23.7838  -20.8814  -12.3901 N   0  0  0  0  0  0  0  0  0  0  0  0
   24.3452  -21.7112  -13.4112 C   0  0  0  0  0  0  0  0  0  0  0  0
   23.4663  -21.5148  -14.5956 C   0  0  0  0  0  0  0  0  0  0  0  0
   22.4360  -20.4781  -14.1851 C   0  0  0  0  0  0  0  0  0  0  0  0
   22.3932  -20.6647  -12.6730 C   0  0  1  0  0  0  0  0  0  0  0  0
   21.5227  -21.7848  -12.2865 C   0  0  0  0  0  0  0  0  0  0  0  0
   21.8989  -22.9665  -12.4814 O   0  0  0  0  0  0  0  0  0  0  0  0
   20.2449  -21.6319  -11.6890 N   0  0  0  0  0  0  0  0  0  0  0  0
   19.4889  -22.7236  -11.1117 C   0  0  1  0  0  0  0  0  0  0  0  0
   19.2998  -22.5521   -9.6182 C   0  0  0  0  0  0  0  0  0  0  0  0
   18.5833  -24.0253   -8.8740 S   0  0  0  0  0  0  0  0  0  0  0  0
   18.1463  -22.7474  -11.7357 C   0  0  0  0  0  0  0  0  0  0  0  0
   17.3978  -23.9081  -11.8993 O   0  0  0  0  0  0  0  0  0  0  0  0
   17.6281  -21.6840  -12.1491 O   0  0  0  0  0  0  0  0  0  0  0  0
  2  1  1  1
  3  4  1  0
  3  2  1  0
  4 12  1  0
  5  4  2  0
  5  6  1  0
  6  7  1  0
  7  8  1  0
  8  9  2  0
 10  9  1  0
 11 10  2  0
 12  7  2  0
 12 11  1  0
 13 15  1  0
 13  2  1  0
 14 13  2  0
 15 16  1  0
 17 16  1  0
 18 17  1  0
 19 18  1  0
 19 20  1  6
 19 15  1  0
 20 21  2  0
 22 23  1  0
 22 20  1  0
 23 26  1  0
 23 24  1  1
 25 24  1  0
 26 28  2  0
 26 27  1  0
M  END
$$$$
