WPC.pdb
     RDKit          3D

 28 30  0  0  1  0  0  0  0  0999 V2000
   26.5767  -22.7086  -17.1708 N   0  0  0  0  0  0  0  0  0  0  0  0
   26.1578  -21.6180  -16.2862 C   0  0  1  0  0  0  0  0  0  0  0  0
   24.6583  -21.5518  -16.4023 C   0  0  0  0  0  0  0  0  0  0  0  0
   24.0065  -20.4827  -15.6425 C   0  0  0  0  0  0  0  0  0  0  0  0
   23.8717  -19.1788  -16.0272 C   0  0  0  0  0  0  0  0  0  0  0  0
   23.2534  -18.4800  -15.0629 N   0  0  0  0  0  0  0  0  0  0  0  0
   22.9826  -19.3320  -14.0442 C   0  0  0  0  0  0  0  0  0  0  0  0
   22.3665  -19.1868  -12.8303 C   0  0  0  0  0  0  0  0  0  0  0  0
   22.1771  -20.2097  -11.9322 C   0  0  0  0  0  0  0  0  0  0  0  0
   22.6460  -21.4594  -12.2959 C   0  0  0  0  0  0  0  0  0  0  0  0
   23.2661  -21.6509  -13.4935 C   0  0  0  0  0  0  0  0  0  0  0  0
   23.4483  -20.5947  -14.3909 C   0  0  0  0  0  0  0  0  0  0  0  0
   26.5809  -21.8196  -14.8920 C   0  0  0  0  0  0  0  0  0  0  0  0
   26.3204  -22.9941  -14.4419 O   0  0  0  0  0  0  0  0  0  0  0  0
   27.2161  -20.8688  -14.0639 N   0  0  0  0  0  0  0  0  0  0  0  0
   27.5172  -19.5175  -14.4237 C   0  0  0  0  0  0  0  0  0  0  0  0
   28.6434  -19.1225  -13.5353 C   0  0  0  0  0  0  0  0  0  0  0  0
   28.9860  -20.3565  -12.7200 C   0  0  0  0  0  0  0  0  0  0  0  0
   27.6591  -21.1065  -12.7193 C   0  0  1  0  0  0  0  0  0  0  0  0
   26.7439  -20.5940  -11.6889 C   0  0  0  0  0  0  0  0  0  0  0  0
   26.1256  -19.5182  -11.8793 O   0  0  0  0  0  0  0  0  0  0  0  0
   26.4944  -21.2414  -10.4512 N   0  0  0  0  0  0  0  0  0  0  0  0
   25.6311  -20.7045   -9.4202 C   0  0  1  0  0  0  0  0  0  0  0  0
   24.9764  -21.8005   -8.6042 C   0  0  0  0  0  0  0  0  0  0  0  0
   24.0977  -21.1270   -7.1858 S   0  0  0  0  0  0  0  0  0  0  0  0
   26.4521  -19.8864   -8.4985 C   0  0  0  0  0  0  0  0  0  0  0  0
   26.0020  -18.7082   -7.9124 O   0  0  0  0  0  0  0  0  0  0  0  0
   27.6175  -20.2455   -8.2106 O   0  0  0  0  0  0  0  0  0  0  0  0
  2  1  1  6
  3  4  1  0
  3  2  1  0
  4 12  1  0
  5  4  2  0
  5  6  1  0
  6  7  1  0
  7  8  1  0
  8  9  2  0
 10  9  1  0
 11 10  2  0
 12  7  2  0
 12 11  1  0
 13 15  1  0
 13  2  1  0
 14 13  2  0
 15 16  1  0
 17 16  1  0
 18 17  1  0
 19 18  1  0
 19 20  1  1
 19 15  1  0
 20 21  2  0
 22 23  1  0
 22 20  1  0
 23 26  1  0
 23 24  1  1
 25 24  1  0
 26 28  2  0
 26 27  1  0
M  END
$$$$
