WPC.pdb
     RDKit          3D

 28 30  0  0  1  0  0  0  0  0999 V2000
   19.3768  -13.2357  -16.9481 N   0  0  0  0  0  0  0  0  0  0  0  0
   20.3654  -12.2201  -17.3204 C   0  0  1  0  0  0  0  0  0  0  0  0
   19.7804  -11.4959  -18.5035 C   0  0  0  0  0  0  0  0  0  0  0  0
   18.3747  -11.7843  -18.7964 C   0  0  0  0  0  0  0  0  0  0  0  0
   17.8973  -12.8244  -19.5424 C   0  0  0  0  0  0  0  0  0  0  0  0
   16.5602  -12.7495  -19.6270 N   0  0  0  0  0  0  0  0  0  0  0  0
   16.1629  -11.6558  -18.9321 C   0  0  0  0  0  0  0  0  0  0  0  0
   14.9410  -11.0989  -18.6656 C   0  0  0  0  0  0  0  0  0  0  0  0
   14.7557   -9.9679  -17.9072 C   0  0  0  0  0  0  0  0  0  0  0  0
   15.8887   -9.3675  -17.3880 C   0  0  0  0  0  0  0  0  0  0  0  0
   17.1254   -9.8859  -17.6276 C   0  0  0  0  0  0  0  0  0  0  0  0
   17.2894  -11.0373  -18.4031 C   0  0  0  0  0  0  0  0  0  0  0  0
   20.6731  -11.2931  -16.2208 C   0  0  0  0  0  0  0  0  0  0  0  0
   19.7178  -11.1708  -15.3709 O   0  0  0  0  0  0  0  0  0  0  0  0
   21.8740  -10.5722  -16.0446 N   0  0  0  0  0  0  0  0  0  0  0  0
   22.9675  -10.5344  -16.9661 C   0  0  0  0  0  0  0  0  0  0  0  0
   24.1551  -10.1802  -16.1427 C   0  0  0  0  0  0  0  0  0  0  0  0
   23.6608  -10.0960  -14.7097 C   0  0  0  0  0  0  0  0  0  0  0  0
   22.1890   -9.7532  -14.9085 C   0  0  1  0  0  0  0  0  0  0  0  0
   21.9905   -8.3140  -15.1353 C   0  0  0  0  0  0  0  0  0  0  0  0
   22.2279   -7.8193  -16.2643 O   0  0  0  0  0  0  0  0  0  0  0  0
   21.5354   -7.4063  -14.1443 N   0  0  0  0  0  0  0  0  0  0  0  0
   21.1890   -6.0263  -14.4130 C   0  0  1  0  0  0  0  0  0  0  0  0
   19.7396   -5.7332  -14.0833 C   0  0  0  0  0  0  0  0  0  0  0  0
   18.6272   -6.8122  -14.9974 S   0  0  0  0  0  0  0  0  0  0  0  0
   22.0298   -5.1558  -13.5597 C   0  0  0  0  0  0  0  0  0  0  0  0
   22.1024   -3.7751  -13.7102 O   0  0  0  0  0  0  0  0  0  0  0  0
   22.7246   -5.6568  -12.6453 O   0  0  0  0  0  0  0  0  0  0  0  0
  2  1  1  1
  3  4  1  0
  3  2  1  0
  4 12  1  0
  5  4  2  0
  5  6  1  0
  6  7  1  0
  7  8  1  0
  8  9  2  0
 10  9  1  0
 11 10  2  0
 12  7  2  0
 12 11  1  0
 13 15  1  0
 13  2  1  0
 14 13  2  0
 15 16  1  0
 17 16  1  0
 18 17  1  0
 19 18  1  0
 19 20  1  6
 19 15  1  0
 20 21  2  0
 22 23  1  0
 22 20  1  0
 23 26  1  0
 23 24  1  1
 25 24  1  0
 26 28  2  0
 26 27  1  0
M  END
$$$$
