WPC.pdb
     RDKit          3D

 28 30  0  0  1  0  0  0  0  0999 V2000
   23.9298  -21.0085  -17.3676 N   0  0  0  0  0  0  0  0  0  0  0  0
   24.5723  -20.0198  -16.4975 C   0  0  1  0  0  0  0  0  0  0  0  0
   23.4963  -19.0286  -16.1423 C   0  0  0  0  0  0  0  0  0  0  0  0
   23.2441  -17.9793  -17.1324 C   0  0  0  0  0  0  0  0  0  0  0  0
   23.9486  -17.7613  -18.2824 C   0  0  0  0  0  0  0  0  0  0  0  0
   23.4560  -16.6903  -18.9235 N   0  0  0  0  0  0  0  0  0  0  0  0
   22.4244  -16.2075  -18.1888 C   0  0  0  0  0  0  0  0  0  0  0  0
   21.5571  -15.1610  -18.3525 C   0  0  0  0  0  0  0  0  0  0  0  0
   20.5479  -14.8485  -17.4735 C   0  0  0  0  0  0  0  0  0  0  0  0
   20.4157  -15.6547  -16.3571 C   0  0  0  0  0  0  0  0  0  0  0  0
   21.2564  -16.7067  -16.1523 C   0  0  0  0  0  0  0  0  0  0  0  0
   22.2766  -17.0049  -17.0602 C   0  0  0  0  0  0  0  0  0  0  0  0
   25.1688  -20.6203  -15.2946 C   0  0  0  0  0  0  0  0  0  0  0  0
   24.4804  -21.5909  -14.8109 O   0  0  0  0  0  0  0  0  0  0  0  0
   26.3736  -20.2277  -14.6722 N   0  0  0  0  0  0  0  0  0  0  0  0
   27.2535  -19.1978  -15.1321 C   0  0  0  0  0  0  0  0  0  0  0  0
   28.5819  -19.5377  -14.5545 C   0  0  0  0  0  0  0  0  0  0  0  0
   28.3926  -20.8483  -13.8121 C   0  0  0  0  0  0  0  0  0  0  0  0
   26.9083  -20.7993  -13.4688 C   0  0  1  0  0  0  0  0  0  0  0  0
   26.6542  -19.9984  -12.2622 C   0  0  0  0  0  0  0  0  0  0  0  0
   26.6515  -18.7450  -12.3315 O   0  0  0  0  0  0  0  0  0  0  0  0
   26.4027  -20.5486  -10.9787 N   0  0  0  0  0  0  0  0  0  0  0  0
   25.4902  -19.9667  -10.0168 C   0  0  1  0  0  0  0  0  0  0  0  0
   24.0735  -19.9010  -10.5499 C   0  0  0  0  0  0  0  0  0  0  0  0
   23.3414  -21.5400  -10.6720 S   0  0  0  0  0  0  0  0  0  0  0  0
   25.4765  -20.8195   -8.8063 C   0  0  0  0  0  0  0  0  0  0  0  0
   26.0741  -22.0739   -8.7459 O   0  0  0  0  0  0  0  0  0  0  0  0
   24.9054  -20.4205   -7.7647 O   0  0  0  0  0  0  0  0  0  0  0  0
  2  1  1  6
  3  4  1  0
  3  2  1  0
  4 12  1  0
  5  4  2  0
  5  6  1  0
  6  7  1  0
  7  8  1  0
  8  9  2  0
 10  9  1  0
 11 10  2  0
 12  7  2  0
 12 11  1  0
 13 15  1  0
 13  2  1  0
 14 13  2  0
 15 16  1  0
 17 16  1  0
 18 17  1  0
 19 18  1  0
 19 20  1  1
 19 15  1  0
 20 21  2  0
 22 23  1  0
 22 20  1  0
 23 26  1  0
 23 24  1  6
 25 24  1  0
 26 28  2  0
 26 27  1  0
M  END
$$$$
