WPC.pdb
     RDKit          3D

 28 30  0  0  1  0  0  0  0  0999 V2000
   22.3865  -19.3233  -16.4363 N   0  0  0  0  0  0  0  0  0  0  0  0
   23.6146  -18.6336  -16.0322 C   0  0  1  0  0  0  0  0  0  0  0  0
   23.1869  -17.5886  -15.0365 C   0  0  0  0  0  0  0  0  0  0  0  0
   22.9581  -16.2473  -15.5784 C   0  0  0  0  0  0  0  0  0  0  0  0
   21.7868  -15.7680  -16.0927 C   0  0  0  0  0  0  0  0  0  0  0  0
   21.9602  -14.5105  -16.5280 N   0  0  0  0  0  0  0  0  0  0  0  0
   23.2506  -14.1673  -16.2959 C   0  0  0  0  0  0  0  0  0  0  0  0
   23.9788  -13.0288  -16.5147 C   0  0  0  0  0  0  0  0  0  0  0  0
   25.3039  -12.8826  -16.1811 C   0  0  0  0  0  0  0  0  0  0  0  0
   25.9251  -13.9666  -15.5871 C   0  0  0  0  0  0  0  0  0  0  0  0
   25.2404  -15.1202  -15.3507 C   0  0  0  0  0  0  0  0  0  0  0  0
   23.8926  -15.2460  -15.6996 C   0  0  0  0  0  0  0  0  0  0  0  0
   24.6180  -19.5436  -15.4592 C   0  0  0  0  0  0  0  0  0  0  0  0
   24.1540  -20.7085  -15.1807 O   0  0  0  0  0  0  0  0  0  0  0  0
   25.9749  -19.2439  -15.2097 N   0  0  0  0  0  0  0  0  0  0  0  0
   26.5953  -17.9682  -15.3945 C   0  0  0  0  0  0  0  0  0  0  0  0
   28.0413  -18.2649  -15.5808 C   0  0  0  0  0  0  0  0  0  0  0  0
   28.1646  -19.7779  -15.5575 C   0  0  0  0  0  0  0  0  0  0  0  0
   26.9527  -20.1754  -14.7230 C   0  0  1  0  0  0  0  0  0  0  0  0
   27.2220  -20.0614  -13.2821 C   0  0  0  0  0  0  0  0  0  0  0  0
   27.6912  -18.9948  -12.8151 O   0  0  0  0  0  0  0  0  0  0  0  0
   26.9856  -21.0981  -12.3426 N   0  0  0  0  0  0  0  0  0  0  0  0
   26.7426  -20.8693  -10.9336 C   0  0  1  0  0  0  0  0  0  0  0  0
   25.5396  -19.9770  -10.7053 C   0  0  0  0  0  0  0  0  0  0  0  0
   25.1151  -19.8815   -8.9595 S   0  0  0  0  0  0  0  0  0  0  0  0
   26.4660  -22.1722  -10.2866 C   0  0  0  0  0  0  0  0  0  0  0  0
   25.5579  -23.0989  -10.7875 O   0  0  0  0  0  0  0  0  0  0  0  0
   27.0637  -22.4878   -9.2315 O   0  0  0  0  0  0  0  0  0  0  0  0
  2  1  1  1
  3  4  1  0
  3  2  1  0
  4 12  1  0
  5  4  2  0
  5  6  1  0
  6  7  1  0
  7  8  1  0
  8  9  2  0
 10  9  1  0
 11 10  2  0
 12  7  2  0
 12 11  1  0
 13 15  1  0
 13  2  1  0
 14 13  2  0
 15 16  1  0
 17 16  1  0
 18 17  1  0
 19 18  1  0
 19 20  1  1
 19 15  1  0
 20 21  2  0
 22 23  1  0
 22 20  1  0
 23 26  1  0
 23 24  1  6
 25 24  1  0
 26 28  2  0
 26 27  1  0
M  END
$$$$
