WPC.pdb
     RDKit          3D

 28 30  0  0  1  0  0  0  0  0999 V2000
   21.9311  -21.4940  -13.4289 N   0  0  0  0  0  0  0  0  0  0  0  0
   23.2174  -20.7972  -13.3450 C   0  0  1  0  0  0  0  0  0  0  0  0
   22.8892  -19.3285  -13.3861 C   0  0  0  0  0  0  0  0  0  0  0  0
   22.2735  -18.8472  -14.6248 C   0  0  0  0  0  0  0  0  0  0  0  0
   20.9716  -18.4684  -14.7909 C   0  0  0  0  0  0  0  0  0  0  0  0
   20.7569  -18.1202  -16.0689 N   0  0  0  0  0  0  0  0  0  0  0  0
   21.9247  -18.2717  -16.7400 C   0  0  0  0  0  0  0  0  0  0  0  0
   22.3016  -18.0596  -18.0389 C   0  0  0  0  0  0  0  0  0  0  0  0
   23.5726  -18.2668  -18.5188 C   0  0  0  0  0  0  0  0  0  0  0  0
   24.5185  -18.7189  -17.6162 C   0  0  0  0  0  0  0  0  0  0  0  0
   24.1889  -18.9444  -16.3139 C   0  0  0  0  0  0  0  0  0  0  0  0
   22.8887  -18.7274  -15.8487 C   0  0  0  0  0  0  0  0  0  0  0  0
   23.9770  -21.1449  -12.1345 C   0  0  0  0  0  0  0  0  0  0  0  0
   23.2447  -21.6029  -11.1837 O   0  0  0  0  0  0  0  0  0  0  0  0
   25.3717  -21.0185  -11.9558 N   0  0  0  0  0  0  0  0  0  0  0  0
   26.2805  -20.4166  -12.8822 C   0  0  0  0  0  0  0  0  0  0  0  0
   27.6049  -21.0191  -12.5714 C   0  0  0  0  0  0  0  0  0  0  0  0
   27.3550  -22.0348  -11.4711 C   0  0  0  0  0  0  0  0  0  0  0  0
   26.1037  -21.4719  -10.8072 C   0  0  1  0  0  0  0  0  0  0  0  0
   26.4286  -20.4071   -9.8466 C   0  0  0  0  0  0  0  0  0  0  0  0
   26.5228  -19.2180  -10.2379 O   0  0  0  0  0  0  0  0  0  0  0  0
   26.6523  -20.6236   -8.4623 N   0  0  0  0  0  0  0  0  0  0  0  0
   26.9817  -19.5707   -7.5246 C   0  0  1  0  0  0  0  0  0  0  0  0
   26.4463  -19.8617   -6.1374 C   0  0  0  0  0  0  0  0  0  0  0  0
   27.1016  -18.7050   -4.9249 S   0  0  0  0  0  0  0  0  0  0  0  0
   28.4560  -19.4726   -7.4266 C   0  0  0  0  0  0  0  0  0  0  0  0
   29.1307  -18.2792   -7.1929 O   0  0  0  0  0  0  0  0  0  0  0  0
   29.1626  -20.4993   -7.5565 O   0  0  0  0  0  0  0  0  0  0  0  0
  2  1  1  1
  3  4  1  0
  3  2  1  0
  4 12  1  0
  5  4  2  0
  5  6  1  0
  6  7  1  0
  7  8  1  0
  8  9  2  0
 10  9  1  0
 11 10  2  0
 12  7  2  0
 12 11  1  0
 13 15  1  0
 13  2  1  0
 14 13  2  0
 15 16  1  0
 17 16  1  0
 18 17  1  0
 19 18  1  0
 19 20  1  1
 19 15  1  0
 20 21  2  0
 22 23  1  0
 22 20  1  0
 23 26  1  0
 23 24  1  1
 25 24  1  0
 26 28  2  0
 26 27  1  0
M  END
$$$$
