WPC.pdb
     RDKit          3D

 28 30  0  0  1  0  0  0  0  0999 V2000
   27.5774  -20.2450  -13.7523 N   0  0  0  0  0  0  0  0  0  0  0  0
   26.6316  -21.1769  -13.1324 C   0  0  1  0  0  0  0  0  0  0  0  0
   26.3892  -20.6486  -11.7437 C   0  0  0  0  0  0  0  0  0  0  0  0
   27.5124  -20.7671  -10.8113 C   0  0  0  0  0  0  0  0  0  0  0  0
   28.7934  -21.1241  -11.1240 C   0  0  0  0  0  0  0  0  0  0  0  0
   29.5413  -21.1626  -10.0106 N   0  0  0  0  0  0  0  0  0  0  0  0
   28.7448  -20.8283   -8.9662 C   0  0  0  0  0  0  0  0  0  0  0  0
   28.9594  -20.6913   -7.6210 C   0  0  0  0  0  0  0  0  0  0  0  0
   27.9928  -20.3188   -6.7179 C   0  0  0  0  0  0  0  0  0  0  0  0
   26.7275  -20.0706   -7.2191 C   0  0  0  0  0  0  0  0  0  0  0  0
   26.4673  -20.1950   -8.5504 C   0  0  0  0  0  0  0  0  0  0  0  0
   27.4668  -20.5762   -9.4504 C   0  0  0  0  0  0  0  0  0  0  0  0
   25.3755  -21.3015  -13.8873 C   0  0  0  0  0  0  0  0  0  0  0  0
   24.9664  -20.1919  -14.3885 O   0  0  0  0  0  0  0  0  0  0  0  0
   24.6330  -22.4854  -14.0880 N   0  0  0  0  0  0  0  0  0  0  0  0
   24.9874  -23.7846  -13.6055 C   0  0  0  0  0  0  0  0  0  0  0  0
   24.2908  -24.7370  -14.5118 C   0  0  0  0  0  0  0  0  0  0  0  0
   23.5938  -23.8857  -15.5578 C   0  0  0  0  0  0  0  0  0  0  0  0
   23.3942  -22.5738  -14.8079 C   0  0  1  0  0  0  0  0  0  0  0  0
   22.2034  -22.6143  -13.9464 C   0  0  0  0  0  0  0  0  0  0  0  0
   22.3023  -23.0112  -12.7596 O   0  0  0  0  0  0  0  0  0  0  0  0
   20.9040  -22.2266  -14.3639 N   0  0  0  0  0  0  0  0  0  0  0  0
   20.0725  -21.2859  -13.6427 C   0  0  1  0  0  0  0  0  0  0  0  0
   20.7458  -19.9370  -13.4915 C   0  0  0  0  0  0  0  0  0  0  0  0
   19.6892  -18.7699  -12.6204 S   0  0  0  0  0  0  0  0  0  0  0  0
   18.8214  -21.0813  -14.4080 C   0  0  0  0  0  0  0  0  0  0  0  0
   17.5621  -21.0357  -13.8197 O   0  0  0  0  0  0  0  0  0  0  0  0
   18.8638  -20.9386  -15.6522 O   0  0  0  0  0  0  0  0  0  0  0  0
  2  1  1  6
  3  4  1  0
  3  2  1  0
  4 12  1  0
  5  4  2  0
  5  6  1  0
  6  7  1  0
  7  8  1  0
  8  9  2  0
 10  9  1  0
 11 10  2  0
 12  7  2  0
 12 11  1  0
 13 15  1  0
 13  2  1  0
 14 13  2  0
 15 16  1  0
 17 16  1  0
 18 17  1  0
 19 18  1  0
 19 20  1  1
 19 15  1  0
 20 21  2  0
 22 23  1  0
 22 20  1  0
 23 26  1  0
 23 24  1  6
 25 24  1  0
 26 28  2  0
 26 27  1  0
M  END
$$$$
