WPC.pdb
     RDKit          3D

 28 30  0  0  1  0  0  0  0  0999 V2000
   24.0586  -19.7588  -11.5850 N   0  0  0  0  0  0  0  0  0  0  0  0
   25.4902  -19.9895  -11.7964 C   0  0  1  0  0  0  0  0  0  0  0  0
   25.8574  -21.1332  -10.8889 C   0  0  0  0  0  0  0  0  0  0  0  0
   25.8398  -20.8397   -9.4542 C   0  0  0  0  0  0  0  0  0  0  0  0
   24.7347  -20.7595   -8.6550 C   0  0  0  0  0  0  0  0  0  0  0  0
   25.0983  -20.4364   -7.4044 N   0  0  0  0  0  0  0  0  0  0  0  0
   26.4472  -20.3060   -7.3870 C   0  0  0  0  0  0  0  0  0  0  0  0
   27.3544  -20.0074   -6.4061 C   0  0  0  0  0  0  0  0  0  0  0  0
   28.7127  -19.9404   -6.6037 C   0  0  0  0  0  0  0  0  0  0  0  0
   29.1744  -20.1940   -7.8830 C   0  0  0  0  0  0  0  0  0  0  0  0
   28.3085  -20.4944   -8.8906 C   0  0  0  0  0  0  0  0  0  0  0  0
   26.9301  -20.5560   -8.6659 C   0  0  0  0  0  0  0  0  0  0  0  0
   25.8192  -20.2884  -13.1985 C   0  0  0  0  0  0  0  0  0  0  0  0
   24.7982  -20.6149  -13.9062 O   0  0  0  0  0  0  0  0  0  0  0  0
   27.1023  -20.2434  -13.7855 N   0  0  0  0  0  0  0  0  0  0  0  0
   28.3394  -20.1163  -13.0785 C   0  0  0  0  0  0  0  0  0  0  0  0
   29.2912  -19.5384  -14.0654 C   0  0  0  0  0  0  0  0  0  0  0  0
   28.4861  -19.2922  -15.3287 C   0  0  0  0  0  0  0  0  0  0  0  0
   27.3721  -20.3237  -15.1931 C   0  0  1  0  0  0  0  0  0  0  0  0
   27.8041  -21.6547  -15.6443 C   0  0  0  0  0  0  0  0  0  0  0  0
   28.7962  -22.2063  -15.1081 O   0  0  0  0  0  0  0  0  0  0  0  0
   27.1665  -22.3930  -16.6746 N   0  0  0  0  0  0  0  0  0  0  0  0
   26.5088  -23.6659  -16.4659 C   0  0  1  0  0  0  0  0  0  0  0  0
   25.4571  -23.5869  -15.3782 C   0  0  0  0  0  0  0  0  0  0  0  0
   25.2385  -25.1743  -14.5598 S   0  0  0  0  0  0  0  0  0  0  0  0
   25.8287  -24.0553  -17.7223 C   0  0  0  0  0  0  0  0  0  0  0  0
   25.8276  -25.3529  -18.2226 O   0  0  0  0  0  0  0  0  0  0  0  0
   25.2129  -23.1955  -18.3944 O   0  0  0  0  0  0  0  0  0  0  0  0
  2  1  1  6
  3  4  1  0
  3  2  1  0
  4 12  1  0
  5  4  2  0
  5  6  1  0
  6  7  1  0
  7  8  1  0
  8  9  2  0
 10  9  1  0
 11 10  2  0
 12  7  2  0
 12 11  1  0
 13 15  1  0
 13  2  1  0
 14 13  2  0
 15 16  1  0
 17 16  1  0
 18 17  1  0
 19 18  1  0
 19 20  1  1
 19 15  1  0
 20 21  2  0
 22 23  1  0
 22 20  1  0
 23 26  1  0
 23 24  1  1
 25 24  1  0
 26 28  2  0
 26 27  1  0
M  END
$$$$
