IKA.pdb
     RDKit          3D

 23 22  0  0  1  0  0  0  0  0999 V2000
    6.3745  -11.1422   27.6574 C   0  0  0  0  0  0  0  0  0  0  0  0
    5.8036  -12.3812   27.0098 C   0  0  0  0  0  0  0  0  0  0  0  0
    6.8149  -13.1129   26.1748 C   0  0  2  0  0  0  0  0  0  0  0  0
    7.4814  -12.1649   25.1856 C   0  0  0  0  0  0  0  0  0  0  0  0
    6.2317  -14.3082   25.4543 C   0  0  2  0  0  0  0  0  0  0  0  0
    5.8801  -15.2789   26.5365 N   0  0  0  0  0  0  0  0  0  0  0  0
    7.1480  -15.0323   24.5830 C   0  0  0  0  0  0  0  0  0  0  0  0
    7.9949  -15.8524   25.0981 O   0  0  0  0  0  0  0  0  0  0  0  0
    7.2366  -14.9513   23.1597 N   0  0  0  0  0  0  0  0  0  0  0  0
    8.1261  -15.6640   22.3135 C   0  0  1  0  0  0  0  0  0  0  0  0
    8.0990  -15.3233   20.8576 C   0  0  0  0  0  0  0  0  0  0  0  0
    8.9476  -16.1887   20.0030 C   0  0  0  0  0  0  0  0  0  0  0  0
    8.2614  -17.4914   19.7289 C   0  0  0  0  0  0  0  0  0  0  0  0
    9.0916  -18.3923   18.8645 C   0  0  0  0  0  0  0  0  0  0  0  0
    8.2492  -19.5727   18.6047 N   0  0  0  0  0  0  0  0  0  0  0  0
    9.5129  -15.8189   22.7655 C   0  0  0  0  0  0  0  0  0  0  0  0
   10.2366  -14.7626   22.7808 O   0  0  0  0  0  0  0  0  0  0  0  0
   11.8647  -18.3345   24.3476 C   0  0  0  0  0  0  0  0  0  0  0  0
   11.5436  -17.0375   23.6418 C   0  0  2  0  0  0  0  0  0  0  0  0
   10.1654  -16.9933   23.1866 N   0  0  0  0  0  0  0  0  0  0  0  0
   12.4070  -16.9456   22.4348 C   0  0  0  0  0  0  0  0  0  0  0  0
   13.7426  -16.5320   22.5156 O   0  0  0  0  0  0  0  0  0  0  0  0
   11.9915  -17.2318   21.2791 O   0  0  0  0  0  0  0  0  0  0  0  0
  1  2  1  0
  3  2  1  0
  3  4  1  6
  5  3  1  0
  5  6  1  1
  7  5  1  0
  7  8  2  0
  9  7  1  0
 10  9  1  0
 10 11  1  6
 11 12  1  0
 12 13  1  0
 13 14  1  0
 14 15  1  0
 16 10  1  0
 17 16  2  0
 19 18  1  6
 19 21  1  0
 19 20  1  0
 20 16  1  0
 21 22  1  0
 23 21  2  0
M  END
$$$$
