IKA.pdb
     RDKit          3D

 23 22  0  0  1  0  0  0  0  0999 V2000
    5.9852  -11.6761   27.7918 C   0  0  0  0  0  0  0  0  0  0  0  0
    5.5904  -12.8724   26.9591 C   0  0  0  0  0  0  0  0  0  0  0  0
    6.7341  -13.4142   26.1506 C   0  0  2  0  0  0  0  0  0  0  0  0
    7.4272  -12.2950   25.3834 C   0  0  0  0  0  0  0  0  0  0  0  0
    6.3189  -14.5244   25.2108 C   0  0  2  0  0  0  0  0  0  0  0  0
    5.9261  -15.6594   26.1021 N   0  0  0  0  0  0  0  0  0  0  0  0
    7.3727  -15.0619   24.3599 C   0  0  0  0  0  0  0  0  0  0  0  0
    8.0292  -16.0989   24.7455 O   0  0  0  0  0  0  0  0  0  0  0  0
    7.7961  -14.5678   23.0884 N   0  0  0  0  0  0  0  0  0  0  0  0
    8.7572  -15.1477   22.2194 C   0  0  1  0  0  0  0  0  0  0  0  0
    9.0278  -14.4353   20.9326 C   0  0  0  0  0  0  0  0  0  0  0  0
    8.2162  -14.9033   19.7830 C   0  0  0  0  0  0  0  0  0  0  0  0
    8.5275  -14.0995   18.5583 C   0  0  0  0  0  0  0  0  0  0  0  0
    7.7461  -14.5662   17.3667 C   0  0  0  0  0  0  0  0  0  0  0  0
    8.1380  -13.6703   16.2648 N   0  0  0  0  0  0  0  0  0  0  0  0
   10.0182  -15.6052   22.8129 C   0  0  0  0  0  0  0  0  0  0  0  0
   10.6756  -14.7497   23.5026 O   0  0  0  0  0  0  0  0  0  0  0  0
   11.9970  -18.7552   23.4908 C   0  0  0  0  0  0  0  0  0  0  0  0
   11.8349  -17.2551   23.4079 C   0  0  2  0  0  0  0  0  0  0  0  0
   10.6133  -16.8778   22.7196 N   0  0  0  0  0  0  0  0  0  0  0  0
   12.9700  -16.7137   22.6146 C   0  0  0  0  0  0  0  0  0  0  0  0
   14.2726  -16.6733   23.1275 O   0  0  0  0  0  0  0  0  0  0  0  0
   12.8278  -16.2637   21.4452 O   0  0  0  0  0  0  0  0  0  0  0  0
  1  2  1  0
  3  2  1  0
  3  4  1  6
  5  3  1  0
  5  6  1  1
  7  5  1  0
  7  8  2  0
  9  7  1  0
 10  9  1  0
 10 11  1  6
 11 12  1  0
 12 13  1  0
 13 14  1  0
 14 15  1  0
 16 10  1  0
 17 16  2  0
 19 18  1  6
 19 21  1  0
 19 20  1  0
 20 16  1  0
 21 22  1  0
 23 21  2  0
M  END
$$$$
