IKA.pdb
     RDKit          3D

 23 22  0  0  1  0  0  0  0  0999 V2000
    6.1151  -11.6399   27.3014 C   0  0  0  0  0  0  0  0  0  0  0  0
    5.6763  -12.8752   26.5519 C   0  0  0  0  0  0  0  0  0  0  0  0
    6.8167  -13.5637   25.8584 C   0  0  2  0  0  0  0  0  0  0  0  0
    7.5825  -12.5820   24.9801 C   0  0  0  0  0  0  0  0  0  0  0  0
    6.3781  -14.7665   25.0529 C   0  0  2  0  0  0  0  0  0  0  0  0
    5.7364  -15.6837   26.0448 N   0  0  0  0  0  0  0  0  0  0  0  0
    7.4485  -15.5518   24.4523 C   0  0  0  0  0  0  0  0  0  0  0  0
    8.0757  -16.4173   25.1682 O   0  0  0  0  0  0  0  0  0  0  0  0
    7.9189  -15.4881   23.1051 N   0  0  0  0  0  0  0  0  0  0  0  0
    8.9503  -16.2676   22.5188 C   0  0  1  0  0  0  0  0  0  0  0  0
    9.0458  -16.2567   21.0264 C   0  0  0  0  0  0  0  0  0  0  0  0
    9.2194  -17.5931   20.4070 C   0  0  0  0  0  0  0  0  0  0  0  0
    8.5004  -17.6615   19.0951 C   0  0  0  0  0  0  0  0  0  0  0  0
    8.7254  -18.9705   18.3992 C   0  0  0  0  0  0  0  0  0  0  0  0
    7.8097  -18.9640   17.2451 N   0  0  0  0  0  0  0  0  0  0  0  0
   10.2906  -16.1699   23.1068 C   0  0  0  0  0  0  0  0  0  0  0  0
   10.7955  -14.9970   23.2015 O   0  0  0  0  0  0  0  0  0  0  0  0
   12.8729  -18.1856   24.9895 C   0  0  0  0  0  0  0  0  0  0  0  0
   12.4313  -17.0085   24.1512 C   0  0  2  0  0  0  0  0  0  0  0  0
   11.1102  -17.2107   23.5835 N   0  0  0  0  0  0  0  0  0  0  0  0
   13.3804  -16.8724   23.0147 C   0  0  0  0  0  0  0  0  0  0  0  0
   12.9940  -17.1475   21.6969 O   0  0  0  0  0  0  0  0  0  0  0  0
   14.5767  -16.5049   23.1691 O   0  0  0  0  0  0  0  0  0  0  0  0
  1  2  1  0
  3  2  1  0
  3  4  1  6
  5  3  1  0
  5  6  1  1
  7  5  1  0
  7  8  2  0
  9  7  1  0
 10  9  1  0
 10 11  1  6
 11 12  1  0
 12 13  1  0
 13 14  1  0
 14 15  1  0
 16 10  1  0
 17 16  2  0
 19 18  1  1
 19 21  1  0
 19 20  1  0
 20 16  1  0
 21 22  1  0
 23 21  2  0
M  END
$$$$
