IKA.pdb
     RDKit          3D

 23 22  0  0  1  0  0  0  0  0999 V2000
    7.8508  -12.0524   19.2265 C   0  0  0  0  0  0  0  0  0  0  0  0
    7.7540  -13.5455   19.4310 C   0  0  0  0  0  0  0  0  0  0  0  0
    7.5731  -13.9187   20.8744 C   0  0  2  0  0  0  0  0  0  0  0  0
    8.7431  -13.4146   21.7102 C   0  0  0  0  0  0  0  0  0  0  0  0
    7.3749  -15.4042   21.0796 C   0  0  2  0  0  0  0  0  0  0  0  0
    6.0785  -15.7189   20.4034 N   0  0  0  0  0  0  0  0  0  0  0  0
    7.1932  -15.8348   22.4597 C   0  0  0  0  0  0  0  0  0  0  0  0
    6.2716  -15.2925   23.1750 O   0  0  0  0  0  0  0  0  0  0  0  0
    7.9383  -16.8308   23.1619 N   0  0  0  0  0  0  0  0  0  0  0  0
    8.0068  -17.0191   24.5672 C   0  0  1  0  0  0  0  0  0  0  0  0
    8.3189  -18.3983   25.0539 C   0  0  0  0  0  0  0  0  0  0  0  0
    8.3504  -18.5421   26.5296 C   0  0  0  0  0  0  0  0  0  0  0  0
    7.6421  -19.7926   26.9510 C   0  0  0  0  0  0  0  0  0  0  0  0
    7.7197  -20.0097   28.4326 C   0  0  0  0  0  0  0  0  0  0  0  0
    7.1238  -21.3366   28.6666 N   0  0  0  0  0  0  0  0  0  0  0  0
    8.7599  -16.0309   25.3470 C   0  0  0  0  0  0  0  0  0  0  0  0
    9.9964  -15.8815   25.0497 O   0  0  0  0  0  0  0  0  0  0  0  0
    8.2614  -13.1454   27.7193 C   0  0  0  0  0  0  0  0  0  0  0  0
    9.1083  -14.2101   27.0616 C   0  0  2  0  0  0  0  0  0  0  0  0
    8.2980  -15.2160   26.3981 N   0  0  0  0  0  0  0  0  0  0  0  0
    9.8826  -14.9029   28.1252 C   0  0  0  0  0  0  0  0  0  0  0  0
   10.9044  -14.2554   28.8311 O   0  0  0  0  0  0  0  0  0  0  0  0
    9.6670  -16.1018   28.4508 O   0  0  0  0  0  0  0  0  0  0  0  0
  1  2  1  0
  3  2  1  0
  3  4  1  1
  5  3  1  0
  5  6  1  6
  7  5  1  0
  7  8  2  0
  9  7  1  0
 10  9  1  0
 10 11  1  6
 11 12  1  0
 12 13  1  0
 13 14  1  0
 14 15  1  0
 16 10  1  0
 17 16  2  0
 19 18  1  1
 19 21  1  0
 19 20  1  0
 20 16  1  0
 21 22  1  0
 23 21  2  0
M  END
$$$$
