HSP.pdb
     RDKit          3D

 24 25  0  0  1  0  0  0  0  0999 V2000
    7.5311  -16.4367   20.5719 N   0  0  0  0  0  0  0  0  0  0  0  0
    7.8859  -15.1791   21.1757 C   0  0  1  0  0  0  0  0  0  0  0  0
    7.2325  -14.0341   20.4525 C   0  0  0  0  0  0  0  0  0  0  0  0
    7.7582  -13.9843   19.0728 C   0  0  0  0  0  0  0  0  0  0  0  0
    8.5690  -12.9903   18.5681 C   0  0  0  0  0  0  0  0  0  0  0  0
    8.8540  -13.2601   17.2949 N   0  0  0  0  0  0  0  0  0  0  0  0
    8.2431  -14.4032   16.9773 C   0  0  0  0  0  0  0  0  0  0  0  0
    7.5629  -14.8641   18.0611 N   0  0  0  0  0  0  0  0  0  0  0  0
    7.4771  -15.1622   22.6261 C   0  0  0  0  0  0  0  0  0  0  0  0
    6.2839  -14.9492   22.9598 O   0  0  0  0  0  0  0  0  0  0  0  0
    7.3957  -17.8086   25.1725 O   0  0  0  0  0  0  0  0  0  0  0  0
    6.9767  -16.5104   25.2062 C   0  0  0  0  0  0  0  0  0  0  0  0
    8.0632  -15.4587   25.0720 C   0  0  2  0  0  0  0  0  0  0  0  0
    8.4248  -15.3851   23.6397 N   0  0  0  0  0  0  0  0  0  0  0  0
    9.2795  -15.7572   25.8451 C   0  0  0  0  0  0  0  0  0  0  0  0
   10.1706  -16.4875   25.2666 O   0  0  0  0  0  0  0  0  0  0  0  0
    9.5727  -15.3272   27.1450 N   0  0  0  0  0  0  0  0  0  0  0  0
    8.6098  -14.5640   27.9638 C   0  0  0  0  0  0  0  0  0  0  0  0
    9.3794  -14.0995   29.1636 C   0  0  0  0  0  0  0  0  0  0  0  0
   10.8158  -14.1437   28.6899 C   0  0  0  0  0  0  0  0  0  0  0  0
   10.7737  -15.4855   27.9228 C   0  0  1  0  0  0  0  0  0  0  0  0
   10.5700  -16.4993   29.0167 C   0  0  0  0  0  0  0  0  0  0  0  0
    9.4800  -17.0313   29.2601 O   0  0  0  0  0  0  0  0  0  0  0  0
   11.6753  -16.8435   29.7829 O   0  0  0  0  0  0  0  0  0  0  0  0
  2  1  1  6
  3  2  1  0
  4  3  1  0
  5  4  2  0
  6  7  1  0
  6  5  1  0
  7  8  2  0
  8  4  1  0
  9  2  1  0
  9 10  2  0
 11 12  1  0
 13 12  1  6
 13 14  1  0
 13 15  1  0
 14  9  1  0
 15 17  1  0
 16 15  2  0
 17 21  1  0
 17 18  1  0
 19 18  1  0
 20 19  1  0
 21 20  1  0
 21 22  1  1
 22 23  2  0
 22 24  1  0
M  END
$$$$
