HSP.pdb
     RDKit          3D

 24 25  0  0  1  0  0  0  0  0999 V2000
    8.4830  -15.6615   20.6945 N   0  0  0  0  0  0  0  0  0  0  0  0
    8.0480  -14.3756   21.1731 C   0  0  1  0  0  0  0  0  0  0  0  0
    6.9051  -13.8545   20.3465 C   0  0  0  0  0  0  0  0  0  0  0  0
    7.3303  -13.7992   18.9328 C   0  0  0  0  0  0  0  0  0  0  0  0
    8.0137  -12.7534   18.3503 C   0  0  0  0  0  0  0  0  0  0  0  0
    8.2353  -13.0342   17.0669 N   0  0  0  0  0  0  0  0  0  0  0  0
    7.7086  -14.2350   16.8189 C   0  0  0  0  0  0  0  0  0  0  0  0
    7.1465  -14.7217   17.9577 N   0  0  0  0  0  0  0  0  0  0  0  0
    7.6276  -14.4706   22.6171 C   0  0  0  0  0  0  0  0  0  0  0  0
    6.8060  -13.6548   23.1070 O   0  0  0  0  0  0  0  0  0  0  0  0
    7.3277  -17.8871   24.9193 O   0  0  0  0  0  0  0  0  0  0  0  0
    6.8995  -16.6160   25.1706 C   0  0  0  0  0  0  0  0  0  0  0  0
    7.9079  -15.5120   24.9086 C   0  0  2  0  0  0  0  0  0  0  0  0
    8.1472  -15.4768   23.4495 N   0  0  0  0  0  0  0  0  0  0  0  0
    9.1983  -15.7108   25.5879 C   0  0  0  0  0  0  0  0  0  0  0  0
   10.1277  -16.2932   24.9103 O   0  0  0  0  0  0  0  0  0  0  0  0
    9.5244  -15.3297   26.8952 N   0  0  0  0  0  0  0  0  0  0  0  0
    8.5406  -14.7206   27.8124 C   0  0  0  0  0  0  0  0  0  0  0  0
    9.3304  -14.2495   28.9964 C   0  0  0  0  0  0  0  0  0  0  0  0
   10.7328  -14.1158   28.4441 C   0  0  0  0  0  0  0  0  0  0  0  0
   10.7800  -15.4072   27.5953 C   0  0  1  0  0  0  0  0  0  0  0  0
   10.7458  -16.4993   28.6307 C   0  0  0  0  0  0  0  0  0  0  0  0
   11.7015  -16.7715   29.3675 O   0  0  0  0  0  0  0  0  0  0  0  0
    9.5711  -17.2293   28.7511 O   0  0  0  0  0  0  0  0  0  0  0  0
  2  1  1  6
  3  2  1  0
  4  3  1  0
  5  4  2  0
  6  7  1  0
  6  5  1  0
  7  8  2  0
  8  4  1  0
  9  2  1  0
  9 10  2  0
 11 12  1  0
 13 12  1  6
 13 14  1  0
 13 15  1  0
 14  9  1  0
 15 17  1  0
 16 15  2  0
 17 21  1  0
 17 18  1  0
 19 18  1  0
 20 19  1  0
 21 20  1  0
 21 22  1  1
 22 23  2  0
 22 24  1  0
M  END
$$$$
