HSP.pdb
     RDKit          3D

 24 25  0  0  1  0  0  0  0  0999 V2000
    7.2396  -16.5323   20.0122 N   0  0  0  0  0  0  0  0  0  0  0  0
    7.4856  -15.3159   20.7414 C   0  0  1  0  0  0  0  0  0  0  0  0
    6.7447  -14.1620   20.1245 C   0  0  0  0  0  0  0  0  0  0  0  0
    7.3435  -13.8652   18.8071 C   0  0  0  0  0  0  0  0  0  0  0  0
    8.3172  -12.9179   18.5735 C   0  0  0  0  0  0  0  0  0  0  0  0
    8.6257  -12.9154   17.2774 N   0  0  0  0  0  0  0  0  0  0  0  0
    7.8706  -13.8396   16.6803 C   0  0  0  0  0  0  0  0  0  0  0  0
    7.0740  -14.4353   17.6079 N   0  0  0  0  0  0  0  0  0  0  0  0
    7.0677  -15.4759   22.1804 C   0  0  0  0  0  0  0  0  0  0  0  0
    5.8731  -15.7239   22.4837 O   0  0  0  0  0  0  0  0  0  0  0  0
    7.8793  -18.0516   24.5211 O   0  0  0  0  0  0  0  0  0  0  0  0
    7.0367  -16.9922   24.6934 C   0  0  0  0  0  0  0  0  0  0  0  0
    7.6783  -15.6176   24.6342 C   0  0  2  0  0  0  0  0  0  0  0  0
    8.0081  -15.3507   23.2173 N   0  0  0  0  0  0  0  0  0  0  0  0
    8.9111  -15.5012   25.4297 C   0  0  0  0  0  0  0  0  0  0  0  0
    9.9927  -15.9541   24.8941 O   0  0  0  0  0  0  0  0  0  0  0  0
    9.0332  -14.9455   26.7091 N   0  0  0  0  0  0  0  0  0  0  0  0
    7.8642  -14.5141   27.5012 C   0  0  0  0  0  0  0  0  0  0  0  0
    8.4249  -13.7711   28.6764 C   0  0  0  0  0  0  0  0  0  0  0  0
    9.7980  -13.3535   28.1969 C   0  0  0  0  0  0  0  0  0  0  0  0
   10.2117  -14.6628   27.4860 C   0  0  1  0  0  0  0  0  0  0  0  0
   10.3482  -15.6411   28.6218 C   0  0  0  0  0  0  0  0  0  0  0  0
   11.2661  -15.6016   29.4502 O   0  0  0  0  0  0  0  0  0  0  0  0
    9.3835  -16.6335   28.7299 O   0  0  0  0  0  0  0  0  0  0  0  0
  2  1  1  6
  3  2  1  0
  4  3  1  0
  5  4  2  0
  6  7  1  0
  6  5  1  0
  7  8  2  0
  8  4  1  0
  9  2  1  0
  9 10  2  0
 11 12  1  0
 13 12  1  6
 13 14  1  0
 13 15  1  0
 14  9  1  0
 15 17  1  0
 16 15  2  0
 17 21  1  0
 17 18  1  0
 19 18  1  0
 20 19  1  0
 21 20  1  0
 21 22  1  1
 22 23  2  0
 22 24  1  0
M  END
$$$$
