HSP.pdb
     RDKit          3D

 24 25  0  0  1  0  0  0  0  0999 V2000
    6.5827  -16.0211   20.5734 N   0  0  0  0  0  0  0  0  0  0  0  0
    7.6122  -15.2618   21.2334 C   0  0  1  0  0  0  0  0  0  0  0  0
    7.7321  -13.8878   20.6346 C   0  0  0  0  0  0  0  0  0  0  0  0
    8.1182  -14.0224   19.2150 C   0  0  0  0  0  0  0  0  0  0  0  0
    7.6250  -13.2540   18.1824 C   0  0  0  0  0  0  0  0  0  0  0  0
    8.1865  -13.6427   17.0385 N   0  0  0  0  0  0  0  0  0  0  0  0
    9.0262  -14.6412   17.3192 C   0  0  0  0  0  0  0  0  0  0  0  0
    8.9972  -14.8889   18.6562 N   0  0  0  0  0  0  0  0  0  0  0  0
    7.3149  -15.1490   22.7064 C   0  0  0  0  0  0  0  0  0  0  0  0
    6.3400  -14.4715   23.1199 O   0  0  0  0  0  0  0  0  0  0  0  0
    7.2796  -18.0141   25.1788 O   0  0  0  0  0  0  0  0  0  0  0  0
    6.9520  -16.7395   25.5396 C   0  0  0  0  0  0  0  0  0  0  0  0
    7.9264  -15.6573   25.1110 C   0  0  2  0  0  0  0  0  0  0  0  0
    8.1245  -15.8011   23.6523 N   0  0  0  0  0  0  0  0  0  0  0  0
    9.2394  -15.7432   25.7703 C   0  0  0  0  0  0  0  0  0  0  0  0
   10.2116  -16.2174   25.0689 O   0  0  0  0  0  0  0  0  0  0  0  0
    9.5451  -15.3597   27.0818 N   0  0  0  0  0  0  0  0  0  0  0  0
    8.5703  -14.6771   27.9560 C   0  0  0  0  0  0  0  0  0  0  0  0
    9.3479  -14.2336   29.1585 C   0  0  0  0  0  0  0  0  0  0  0  0
   10.7732  -14.1935   28.6517 C   0  0  0  0  0  0  0  0  0  0  0  0
   10.7701  -15.5000   27.8249 C   0  0  1  0  0  0  0  0  0  0  0  0
   10.6363  -16.5699   28.8752 C   0  0  0  0  0  0  0  0  0  0  0  0
    9.5729  -17.1491   29.1281 O   0  0  0  0  0  0  0  0  0  0  0  0
   11.7776  -16.9120   29.5879 O   0  0  0  0  0  0  0  0  0  0  0  0
  2  1  1  6
  3  2  1  0
  4  3  1  0
  5  4  2  0
  6  7  1  0
  6  5  1  0
  7  8  2  0
  8  4  1  0
  9  2  1  0
  9 10  2  0
 11 12  1  0
 13 12  1  1
 13 14  1  0
 13 15  1  0
 14  9  1  0
 15 17  1  0
 16 15  2  0
 17 21  1  0
 17 18  1  0
 19 18  1  0
 20 19  1  0
 21 20  1  0
 21 22  1  1
 22 23  2  0
 22 24  1  0
M  END
$$$$
