HSP.pdb
     RDKit          3D

 24 25  0  0  1  0  0  0  0  0999 V2000
    7.8787  -16.2452   20.7348 N   0  0  0  0  0  0  0  0  0  0  0  0
    7.9081  -14.9567   21.3758 C   0  0  1  0  0  0  0  0  0  0  0  0
    6.9600  -14.0022   20.7043 C   0  0  0  0  0  0  0  0  0  0  0  0
    7.3898  -13.8158   19.3033 C   0  0  0  0  0  0  0  0  0  0  0  0
    8.1677  -12.7746   18.8440 C   0  0  0  0  0  0  0  0  0  0  0  0
    8.3635  -12.9172   17.5339 N   0  0  0  0  0  0  0  0  0  0  0  0
    7.7281  -14.0256   17.1485 C   0  0  0  0  0  0  0  0  0  0  0  0
    7.1222  -14.5927   18.2260 N   0  0  0  0  0  0  0  0  0  0  0  0
    7.5465  -15.0899   22.8327 C   0  0  0  0  0  0  0  0  0  0  0  0
    6.4282  -14.7057   23.2597 O   0  0  0  0  0  0  0  0  0  0  0  0
    7.6886  -18.0996   25.1297 O   0  0  0  0  0  0  0  0  0  0  0  0
    7.2238  -16.8536   25.4356 C   0  0  0  0  0  0  0  0  0  0  0  0
    8.1924  -15.7082   25.2022 C   0  0  2  0  0  0  0  0  0  0  0  0
    8.4552  -15.6484   23.7479 N   0  0  0  0  0  0  0  0  0  0  0  0
    9.4777  -15.8634   25.9021 C   0  0  0  0  0  0  0  0  0  0  0  0
   10.3910  -16.5417   25.2957 O   0  0  0  0  0  0  0  0  0  0  0  0
    9.8147  -15.3474   27.1594 N   0  0  0  0  0  0  0  0  0  0  0  0
    8.9179  -14.4498   27.9145 C   0  0  0  0  0  0  0  0  0  0  0  0
    9.7315  -13.9425   29.0670 C   0  0  0  0  0  0  0  0  0  0  0  0
   11.1560  -14.1309   28.5925 C   0  0  0  0  0  0  0  0  0  0  0  0
   11.0093  -15.5261   27.9427 C   0  0  1  0  0  0  0  0  0  0  0  0
   10.7447  -16.4263   29.1198 C   0  0  0  0  0  0  0  0  0  0  0  0
   11.6123  -16.7505   29.9398 O   0  0  0  0  0  0  0  0  0  0  0  0
    9.4525  -16.9088   29.2775 O   0  0  0  0  0  0  0  0  0  0  0  0
  2  1  1  6
  3  2  1  0
  4  3  1  0
  5  4  2  0
  6  7  1  0
  6  5  1  0
  7  8  2  0
  8  4  1  0
  9  2  1  0
  9 10  2  0
 11 12  1  0
 13 12  1  6
 13 14  1  0
 13 15  1  0
 14  9  1  0
 15 17  1  0
 16 15  2  0
 17 21  1  0
 17 18  1  0
 19 18  1  0
 20 19  1  0
 21 20  1  0
 21 22  1  1
 22 23  2  0
 22 24  1  0
M  END
$$$$
