HSP.pdb
     RDKit          3D

 24 25  0  0  1  0  0  0  0  0999 V2000
    9.4236  -16.8276   19.4807 N   0  0  0  0  0  0  0  0  0  0  0  0
    9.8408  -15.8220   20.4223 C   0  0  1  0  0  0  0  0  0  0  0  0
   10.2933  -14.5767   19.7114 C   0  0  0  0  0  0  0  0  0  0  0  0
   11.6525  -14.8035   19.1789 C   0  0  0  0  0  0  0  0  0  0  0  0
   12.8240  -14.5163   19.8461 C   0  0  0  0  0  0  0  0  0  0  0  0
   13.8601  -14.8452   19.0759 N   0  0  0  0  0  0  0  0  0  0  0  0
   13.3751  -15.3353   17.9333 C   0  0  0  0  0  0  0  0  0  0  0  0
   12.0159  -15.3172   17.9790 N   0  0  0  0  0  0  0  0  0  0  0  0
    8.7121  -15.4872   21.3631 C   0  0  0  0  0  0  0  0  0  0  0  0
    7.6660  -14.9284   20.9460 O   0  0  0  0  0  0  0  0  0  0  0  0
    7.6673  -17.7162   24.5579 O   0  0  0  0  0  0  0  0  0  0  0  0
    6.9638  -16.6838   24.0090 C   0  0  0  0  0  0  0  0  0  0  0  0
    7.7579  -15.4254   23.7083 C   0  0  2  0  0  0  0  0  0  0  0  0
    8.8058  -15.7936   22.7316 N   0  0  0  0  0  0  0  0  0  0  0  0
    8.4082  -14.8354   24.8894 C   0  0  0  0  0  0  0  0  0  0  0  0
    9.6883  -14.9638   24.9724 O   0  0  0  0  0  0  0  0  0  0  0  0
    7.7813  -14.1443   25.9333 N   0  0  0  0  0  0  0  0  0  0  0  0
    6.3168  -13.9682   26.0008 C   0  0  0  0  0  0  0  0  0  0  0  0
    6.0787  -12.9898   27.1115 C   0  0  0  0  0  0  0  0  0  0  0  0
    7.4032  -12.2667   27.2236 C   0  0  0  0  0  0  0  0  0  0  0  0
    8.3511  -13.4793   27.0760 C   0  0  1  0  0  0  0  0  0  0  0  0
    8.0970  -14.2680   28.3327 C   0  0  0  0  0  0  0  0  0  0  0  0
    7.2963  -15.2087   28.3981 O   0  0  0  0  0  0  0  0  0  0  0  0
    8.8079  -13.9062   29.4689 O   0  0  0  0  0  0  0  0  0  0  0  0
  2  1  1  6
  3  2  1  0
  4  3  1  0
  5  4  2  0
  6  7  1  0
  6  5  1  0
  7  8  2  0
  8  4  1  0
  9  2  1  0
  9 10  2  0
 11 12  1  0
 13 12  1  1
 13 14  1  0
 13 15  1  0
 14  9  1  0
 15 17  1  0
 16 15  2  0
 17 21  1  0
 17 18  1  0
 19 18  1  0
 20 19  1  0
 21 20  1  0
 21 22  1  1
 22 23  2  0
 22 24  1  0
M  END
$$$$
