HSP.pdb
     RDKit          3D

 24 25  0  0  1  0  0  0  0  0999 V2000
   11.7792  -16.3764   19.3314 N   0  0  0  0  0  0  0  0  0  0  0  0
   10.7882  -17.0234   20.1506 C   0  0  1  0  0  0  0  0  0  0  0  0
   11.4347  -17.9509   21.1419 C   0  0  0  0  0  0  0  0  0  0  0  0
   11.8159  -19.1966   20.4453 C   0  0  0  0  0  0  0  0  0  0  0  0
   12.4227  -19.2605   19.2093 C   0  0  0  0  0  0  0  0  0  0  0  0
   12.6232  -20.5368   18.8839 N   0  0  0  0  0  0  0  0  0  0  0  0
   12.1579  -21.2871   19.8845 C   0  0  0  0  0  0  0  0  0  0  0  0
   11.6565  -20.4779   20.8559 N   0  0  0  0  0  0  0  0  0  0  0  0
    9.9626  -15.9959   20.8812 C   0  0  0  0  0  0  0  0  0  0  0  0
   10.4928  -14.9622   21.3615 O   0  0  0  0  0  0  0  0  0  0  0  0
    5.9097  -16.8646   21.9588 O   0  0  0  0  0  0  0  0  0  0  0  0
    6.2901  -15.6148   21.5649 C   0  0  0  0  0  0  0  0  0  0  0  0
    7.7383  -15.2467   21.8328 C   0  0  2  0  0  0  0  0  0  0  0  0
    8.5775  -16.1725   21.0413 N   0  0  0  0  0  0  0  0  0  0  0  0
    8.1289  -15.3575   23.2475 C   0  0  0  0  0  0  0  0  0  0  0  0
    9.0645  -16.1992   23.5274 O   0  0  0  0  0  0  0  0  0  0  0  0
    7.5919  -14.6403   24.3235 N   0  0  0  0  0  0  0  0  0  0  0  0
    6.4647  -13.6997   24.1659 C   0  0  0  0  0  0  0  0  0  0  0  0
    6.3568  -12.9762   25.4746 C   0  0  0  0  0  0  0  0  0  0  0  0
    7.7361  -13.1417   26.0745 C   0  0  0  0  0  0  0  0  0  0  0  0
    7.9795  -14.6244   25.7099 C   0  0  1  0  0  0  0  0  0  0  0  0
    6.9696  -15.3550   26.5537 C   0  0  0  0  0  0  0  0  0  0  0  0
    5.8638  -15.7175   26.1341 O   0  0  0  0  0  0  0  0  0  0  0  0
    7.3148  -15.6281   27.8703 O   0  0  0  0  0  0  0  0  0  0  0  0
  2  1  1  1
  3  2  1  0
  4  3  1  0
  5  4  2  0
  6  7  1  0
  6  5  1  0
  7  8  2  0
  8  4  1  0
  9  2  1  0
  9 10  2  0
 11 12  1  0
 13 12  1  1
 13 14  1  0
 13 15  1  0
 14  9  1  0
 15 17  1  0
 16 15  2  0
 17 21  1  0
 17 18  1  0
 19 18  1  0
 20 19  1  0
 21 20  1  0
 21 22  1  1
 22 23  2  0
 22 24  1  0
M  END
$$$$
