YES.pdb
     RDKit          3D

 28 28  0  0  1  0  0  0  0  0999 V2000
    8.8634  -11.5480   18.7757 O   0  0  0  0  0  0  0  0  0  0  0  0
    8.4588  -12.6798   19.4840 C   0  0  0  0  0  0  0  0  0  0  0  0
    8.9425  -13.9195   19.1175 C   0  0  0  0  0  0  0  0  0  0  0  0
    8.5402  -15.0374   19.8202 C   0  0  0  0  0  0  0  0  0  0  0  0
    7.6658  -14.8916   20.8711 C   0  0  0  0  0  0  0  0  0  0  0  0
    7.2269  -16.0752   21.6309 C   0  0  0  0  0  0  0  0  0  0  0  0
    7.8936  -17.3442   21.1659 C   0  0  2  0  0  0  0  0  0  0  0  0
    6.9254  -18.3930   20.8995 N   0  0  0  0  0  0  0  0  0  0  0  0
    8.8508  -17.7633   22.2337 C   0  0  0  0  0  0  0  0  0  0  0  0
    8.4889  -18.5165   23.1720 O   0  0  0  0  0  0  0  0  0  0  0  0
    7.1975  -13.6488   21.2182 C   0  0  0  0  0  0  0  0  0  0  0  0
    7.5860  -12.5269   20.5316 C   0  0  0  0  0  0  0  0  0  0  0  0
   10.1805  -17.3026   22.1820 N   0  0  0  0  0  0  0  0  0  0  0  0
   11.2064  -17.7105   23.1161 C   0  0  1  0  0  0  0  0  0  0  0  0
   12.5455  -17.1612   22.7207 C   0  0  0  0  0  0  0  0  0  0  0  0
   13.0588  -17.7997   21.4697 C   0  0  0  0  0  0  0  0  0  0  0  0
   14.3962  -17.2627   21.1592 C   0  0  0  0  0  0  0  0  0  0  0  0
   14.9217  -16.4336   21.9202 O   0  0  0  0  0  0  0  0  0  0  0  0
   10.8713  -17.2123   24.5014 C   0  0  0  0  0  0  0  0  0  0  0  0
   10.7120  -15.9836   24.6999 O   0  0  0  0  0  0  0  0  0  0  0  0
   15.0972  -17.6585   20.0291 O   0  0  0  0  0  0  0  0  0  0  0  0
    8.5562  -19.0181   27.2518 O   0  0  0  0  0  0  0  0  0  0  0  0
    9.1228  -17.7684   27.3617 C   0  0  0  0  0  0  0  0  0  0  0  0
   10.5391  -17.7517   26.8948 C   0  0  2  0  0  0  0  0  0  0  0  0
   10.7468  -18.1673   25.5445 N   0  0  0  0  0  0  0  0  0  0  0  0
   11.4180  -18.4582   27.8655 C   0  0  0  0  0  0  0  0  0  0  0  0
   12.1680  -19.4017   27.6063 O   0  0  0  0  0  0  0  0  0  0  0  0
   11.3947  -18.0148   29.1964 O   0  0  0  0  0  0  0  0  0  0  0  0
  2  1  1  0
  2 12  2  0
  3  2  1  0
  4  3  2  0
  4  5  1  0
  5 11  2  0
  6  5  1  0
  7  8  1  1
  7  6  1  0
  9  7  1  0
 10  9  2  0
 11 12  1  0
 13  9  1  0
 14 13  1  0
 14 15  1  6
 15 16  1  0
 16 17  1  0
 17 21  1  0
 17 18  2  0
 19 14  1  0
 20 19  2  0
 22 23  1  0
 24 23  1  1
 24 26  1  0
 24 25  1  0
 25 19  1  0
 26 28  1  0
 27 26  2  0
M  END
$$$$
