YES.pdb
     RDKit          3D

 28 28  0  0  1  0  0  0  0  0999 V2000
    7.7136  -12.8149   17.0401 O   0  0  0  0  0  0  0  0  0  0  0  0
    7.8835  -13.2880   18.3415 C   0  0  0  0  0  0  0  0  0  0  0  0
    8.5588  -14.4735   18.5508 C   0  0  0  0  0  0  0  0  0  0  0  0
    8.7251  -14.9390   19.8396 C   0  0  0  0  0  0  0  0  0  0  0  0
    8.2141  -14.2109   20.8879 C   0  0  0  0  0  0  0  0  0  0  0  0
    8.3832  -14.6946   22.2694 C   0  0  0  0  0  0  0  0  0  0  0  0
    8.2107  -16.1870   22.3876 C   0  0  2  0  0  0  0  0  0  0  0  0
    6.8122  -16.5726   22.3240 N   0  0  0  0  0  0  0  0  0  0  0  0
    8.8188  -16.6056   23.6864 C   0  0  0  0  0  0  0  0  0  0  0  0
    8.1171  -16.7369   24.7203 O   0  0  0  0  0  0  0  0  0  0  0  0
    7.5459  -13.0344   20.6565 C   0  0  0  0  0  0  0  0  0  0  0  0
    7.3709  -12.5564   19.3830 C   0  0  0  0  0  0  0  0  0  0  0  0
   10.2032  -16.8560   23.7463 N   0  0  0  0  0  0  0  0  0  0  0  0
   10.8772  -17.3524   24.9256 C   0  0  1  0  0  0  0  0  0  0  0  0
   11.9441  -18.3423   24.5609 C   0  0  0  0  0  0  0  0  0  0  0  0
   12.4220  -18.1498   23.1570 C   0  0  0  0  0  0  0  0  0  0  0  0
   13.4577  -19.1531   22.8505 C   0  0  0  0  0  0  0  0  0  0  0  0
   14.2324  -18.9708   21.8970 O   0  0  0  0  0  0  0  0  0  0  0  0
   11.5172  -16.2085   25.6748 C   0  0  0  0  0  0  0  0  0  0  0  0
   12.7563  -16.2093   25.8731 O   0  0  0  0  0  0  0  0  0  0  0  0
   13.5976  -20.3108   23.6026 O   0  0  0  0  0  0  0  0  0  0  0  0
    9.1681  -13.9943   29.2631 O   0  0  0  0  0  0  0  0  0  0  0  0
    9.1886  -14.3769   27.9409 C   0  0  0  0  0  0  0  0  0  0  0  0
   10.5204  -14.9088   27.5315 C   0  0  2  0  0  0  0  0  0  0  0  0
   10.6805  -15.1577   26.1344 N   0  0  0  0  0  0  0  0  0  0  0  0
   10.9029  -16.0700   28.3795 C   0  0  0  0  0  0  0  0  0  0  0  0
   10.3873  -17.1893   28.3461 O   0  0  0  0  0  0  0  0  0  0  0  0
   11.9430  -15.8790   29.3016 O   0  0  0  0  0  0  0  0  0  0  0  0
  2  1  1  0
  2 12  2  0
  3  2  1  0
  4  3  2  0
  4  5  1  0
  5 11  2  0
  6  5  1  0
  7  8  1  1
  7  6  1  0
  9  7  1  0
 10  9  2  0
 11 12  1  0
 13  9  1  0
 14 13  1  0
 14 15  1  6
 15 16  1  0
 16 17  1  0
 17 21  1  0
 17 18  2  0
 19 14  1  0
 20 19  2  0
 22 23  1  0
 24 23  1  6
 24 26  1  0
 24 25  1  0
 25 19  1  0
 26 28  1  0
 27 26  2  0
M  END
$$$$
