YES.pdb
     RDKit          3D

 28 28  0  0  1  0  0  0  0  0999 V2000
    6.8535  -11.7593   18.2737 O   0  0  0  0  0  0  0  0  0  0  0  0
    7.6359  -12.6022   19.0635 C   0  0  0  0  0  0  0  0  0  0  0  0
    7.0235  -13.5458   19.8633 C   0  0  0  0  0  0  0  0  0  0  0  0
    7.8003  -14.3782   20.6436 C   0  0  0  0  0  0  0  0  0  0  0  0
    9.1686  -14.2493   20.6071 C   0  0  0  0  0  0  0  0  0  0  0  0
   10.0116  -15.1302   21.4343 C   0  0  0  0  0  0  0  0  0  0  0  0
   10.5879  -16.2834   20.6538 C   0  0  2  0  0  0  0  0  0  0  0  0
    9.5470  -17.1399   20.1139 N   0  0  0  0  0  0  0  0  0  0  0  0
   11.4788  -17.0477   21.5780 C   0  0  0  0  0  0  0  0  0  0  0  0
   11.0497  -18.0349   22.2260 O   0  0  0  0  0  0  0  0  0  0  0  0
    9.7564  -13.3038   19.8042 C   0  0  0  0  0  0  0  0  0  0  0  0
    9.0008  -12.4680   19.0222 C   0  0  0  0  0  0  0  0  0  0  0  0
   12.8220  -16.6497   21.7208 N   0  0  0  0  0  0  0  0  0  0  0  0
   13.8022  -17.3957   22.4785 C   0  0  1  0  0  0  0  0  0  0  0  0
   15.1973  -16.9998   22.0933 C   0  0  0  0  0  0  0  0  0  0  0  0
   15.5026  -17.3574   20.6737 C   0  0  0  0  0  0  0  0  0  0  0  0
   16.8904  -16.9718   20.3595 C   0  0  0  0  0  0  0  0  0  0  0  0
   17.1262  -15.8548   19.8703 O   0  0  0  0  0  0  0  0  0  0  0  0
   13.6188  -17.1385   23.9549 C   0  0  0  0  0  0  0  0  0  0  0  0
   13.9491  -16.0292   24.4398 O   0  0  0  0  0  0  0  0  0  0  0  0
   17.9568  -17.8277   20.5953 O   0  0  0  0  0  0  0  0  0  0  0  0
   10.7245  -18.9318   26.1861 O   0  0  0  0  0  0  0  0  0  0  0  0
   11.5146  -17.9047   26.6505 C   0  0  0  0  0  0  0  0  0  0  0  0
   12.9198  -18.0133   26.1630 C   0  0  2  0  0  0  0  0  0  0  0  0
   13.0708  -18.1772   24.7525 N   0  0  0  0  0  0  0  0  0  0  0  0
   13.6703  -19.0266   26.9529 C   0  0  0  0  0  0  0  0  0  0  0  0
   14.3307  -19.9588   26.4894 O   0  0  0  0  0  0  0  0  0  0  0  0
   13.6257  -18.9156   28.3508 O   0  0  0  0  0  0  0  0  0  0  0  0
  2  1  1  0
  2 12  2  0
  3  2  1  0
  4  3  2  0
  4  5  1  0
  5 11  2  0
  6  5  1  0
  7  8  1  1
  7  6  1  0
  9  7  1  0
 10  9  2  0
 11 12  1  0
 13  9  1  0
 14 13  1  0
 14 15  1  6
 15 16  1  0
 16 17  1  0
 17 21  1  0
 17 18  2  0
 19 14  1  0
 20 19  2  0
 22 23  1  0
 24 23  1  6
 24 26  1  0
 24 25  1  0
 25 19  1  0
 26 28  1  0
 27 26  2  0
M  END
$$$$
