YES.pdb
     RDKit          3D

 28 28  0  0  1  0  0  0  0  0999 V2000
    5.2878  -10.5479   27.8813 O   0  0  0  0  0  0  0  0  0  0  0  0
    5.9977  -11.5385   27.2022 C   0  0  0  0  0  0  0  0  0  0  0  0
    6.8592  -12.3583   27.9029 C   0  0  0  0  0  0  0  0  0  0  0  0
    7.5601  -13.3375   27.2281 C   0  0  0  0  0  0  0  0  0  0  0  0
    7.3847  -13.4751   25.8714 C   0  0  0  0  0  0  0  0  0  0  0  0
    8.1258  -14.5153   25.1369 C   0  0  0  0  0  0  0  0  0  0  0  0
    7.2480  -15.6648   24.7138 C   0  0  2  0  0  0  0  0  0  0  0  0
    6.6559  -16.3373   25.8566 N   0  0  0  0  0  0  0  0  0  0  0  0
    8.0959  -16.6072   23.9233 C   0  0  0  0  0  0  0  0  0  0  0  0
    8.6188  -17.6164   24.4588 O   0  0  0  0  0  0  0  0  0  0  0  0
    6.5226  -12.6485   25.1948 C   0  0  0  0  0  0  0  0  0  0  0  0
    5.8178  -11.6702   25.8484 C   0  0  0  0  0  0  0  0  0  0  0  0
    8.3088  -16.3544   22.5545 N   0  0  0  0  0  0  0  0  0  0  0  0
    9.1106  -17.2009   21.6988 C   0  0  1  0  0  0  0  0  0  0  0  0
    8.8701  -16.8875   20.2514 C   0  0  0  0  0  0  0  0  0  0  0  0
    9.6220  -17.8153   19.3513 C   0  0  0  0  0  0  0  0  0  0  0  0
    9.3560  -17.4568   17.9463 C   0  0  0  0  0  0  0  0  0  0  0  0
    8.3064  -17.8343   17.3998 O   0  0  0  0  0  0  0  0  0  0  0  0
   10.5764  -16.9979   21.9986 C   0  0  0  0  0  0  0  0  0  0  0  0
   11.0631  -15.8415   21.9730 O   0  0  0  0  0  0  0  0  0  0  0  0
   10.2520  -16.7013   17.2036 O   0  0  0  0  0  0  0  0  0  0  0  0
   12.7224  -19.9749   24.0047 O   0  0  0  0  0  0  0  0  0  0  0  0
   13.1280  -18.6606   23.9490 C   0  0  0  0  0  0  0  0  0  0  0  0
   12.7363  -18.0065   22.6673 C   0  0  2  0  0  0  0  0  0  0  0  0
   11.3621  -18.1405   22.3029 N   0  0  0  0  0  0  0  0  0  0  0  0
   13.6707  -18.3933   21.5759 C   0  0  0  0  0  0  0  0  0  0  0  0
   13.3497  -18.8765   20.4881 O   0  0  0  0  0  0  0  0  0  0  0  0
   15.0411  -18.1923   21.8000 O   0  0  0  0  0  0  0  0  0  0  0  0
  2  1  1  0
  2 12  2  0
  3  2  1  0
  4  3  2  0
  4  5  1  0
  5 11  2  0
  6  5  1  0
  7  8  1  1
  7  6  1  0
  9  7  1  0
 10  9  2  0
 11 12  1  0
 13  9  1  0
 14 13  1  0
 14 15  1  6
 15 16  1  0
 16 17  1  0
 17 21  1  0
 17 18  2  0
 19 14  1  0
 20 19  2  0
 22 23  1  0
 24 23  1  1
 24 26  1  0
 24 25  1  0
 25 19  1  0
 26 28  1  0
 27 26  2  0
M  END
$$$$
