YES.pdb
     RDKit          3D

 28 28  0  0  1  0  0  0  0  0999 V2000
    5.1844  -12.2121   28.3015 O   0  0  0  0  0  0  0  0  0  0  0  0
    5.9403  -12.6222   27.2030 C   0  0  0  0  0  0  0  0  0  0  0  0
    6.8545  -11.7519   26.6444 C   0  0  0  0  0  0  0  0  0  0  0  0
    7.6009  -12.1607   25.5575 C   0  0  0  0  0  0  0  0  0  0  0  0
    7.4175  -13.4270   25.0546 C   0  0  0  0  0  0  0  0  0  0  0  0
    8.2063  -13.8781   23.8949 C   0  0  0  0  0  0  0  0  0  0  0  0
    8.9419  -15.1667   24.1583 C   0  0  2  0  0  0  0  0  0  0  0  0
    9.7662  -15.0804   25.3507 N   0  0  0  0  0  0  0  0  0  0  0  0
    9.7775  -15.4584   22.9547 C   0  0  0  0  0  0  0  0  0  0  0  0
   10.8961  -14.9102   22.7915 O   0  0  0  0  0  0  0  0  0  0  0  0
    6.5026  -14.2759   25.6261 C   0  0  0  0  0  0  0  0  0  0  0  0
    5.7521  -13.8873   26.7063 C   0  0  0  0  0  0  0  0  0  0  0  0
    9.2972  -16.3647   21.9898 N   0  0  0  0  0  0  0  0  0  0  0  0
    9.8343  -16.4687   20.6511 C   0  0  1  0  0  0  0  0  0  0  0  0
   10.2994  -17.8658   20.3634 C   0  0  0  0  0  0  0  0  0  0  0  0
   11.5951  -18.1699   21.0454 C   0  0  0  0  0  0  0  0  0  0  0  0
   12.1265  -19.4485   20.5392 C   0  0  0  0  0  0  0  0  0  0  0  0
   13.3184  -19.5318   20.2001 O   0  0  0  0  0  0  0  0  0  0  0  0
    8.7772  -16.0951   19.6399 C   0  0  0  0  0  0  0  0  0  0  0  0
    7.7054  -16.7457   19.5899 O   0  0  0  0  0  0  0  0  0  0  0  0
   11.3279  -20.5776   20.4274 O   0  0  0  0  0  0  0  0  0  0  0  0
    9.4274  -12.9099   16.7960 O   0  0  0  0  0  0  0  0  0  0  0  0
    8.1822  -13.2179   17.2955 C   0  0  0  0  0  0  0  0  0  0  0  0
    8.0987  -14.6322   17.7612 C   0  0  2  0  0  0  0  0  0  0  0  0
    9.0390  -15.0046   18.7694 N   0  0  0  0  0  0  0  0  0  0  0  0
    8.0852  -15.5645   16.6017 C   0  0  0  0  0  0  0  0  0  0  0  0
    8.8715  -16.4954   16.4146 O   0  0  0  0  0  0  0  0  0  0  0  0
    7.0903  -15.3711   15.6315 O   0  0  0  0  0  0  0  0  0  0  0  0
  2  1  1  0
  2 12  2  0
  3  2  1  0
  4  3  2  0
  4  5  1  0
  5 11  2  0
  6  5  1  0
  7  8  1  1
  7  6  1  0
  9  7  1  0
 10  9  2  0
 11 12  1  0
 13  9  1  0
 14 13  1  0
 14 15  1  6
 15 16  1  0
 16 17  1  0
 17 21  1  0
 17 18  2  0
 19 14  1  0
 20 19  2  0
 22 23  1  0
 24 23  1  6
 24 26  1  0
 24 25  1  0
 25 19  1  0
 26 28  1  0
 27 26  2  0
M  END
$$$$
