YES.pdb
     RDKit          3D

 28 28  0  0  1  0  0  0  0  0999 V2000
    7.0958  -11.4499   18.3771 O   0  0  0  0  0  0  0  0  0  0  0  0
    7.6167  -12.4980   19.1364 C   0  0  0  0  0  0  0  0  0  0  0  0
    8.9748  -12.7434   19.1141 C   0  0  0  0  0  0  0  0  0  0  0  0
    9.4872  -13.7813   19.8664 C   0  0  0  0  0  0  0  0  0  0  0  0
    8.6327  -14.5486   20.6222 C   0  0  0  0  0  0  0  0  0  0  0  0
    9.1641  -15.6601   21.4304 C   0  0  0  0  0  0  0  0  0  0  0  0
    9.8298  -16.7211   20.5925 C   0  0  2  0  0  0  0  0  0  0  0  0
    8.9143  -17.2899   19.6194 N   0  0  0  0  0  0  0  0  0  0  0  0
   10.3365  -17.7735   21.5240 C   0  0  0  0  0  0  0  0  0  0  0  0
    9.5474  -18.4601   22.2200 O   0  0  0  0  0  0  0  0  0  0  0  0
    7.2853  -14.2865   20.6293 C   0  0  0  0  0  0  0  0  0  0  0  0
    6.7583  -13.2597   19.8883 C   0  0  0  0  0  0  0  0  0  0  0  0
   11.7239  -17.9950   21.6189 N   0  0  0  0  0  0  0  0  0  0  0  0
   12.3143  -19.0484   22.4147 C   0  0  1  0  0  0  0  0  0  0  0  0
   13.6719  -19.4205   21.8955 C   0  0  0  0  0  0  0  0  0  0  0  0
   14.5559  -18.2234   21.7478 C   0  0  0  0  0  0  0  0  0  0  0  0
   15.8517  -18.6387   21.1804 C   0  0  0  0  0  0  0  0  0  0  0  0
   16.9089  -18.2543   21.7067 O   0  0  0  0  0  0  0  0  0  0  0  0
   12.4542  -18.5960   23.8483 C   0  0  0  0  0  0  0  0  0  0  0  0
   13.1219  -17.5675   24.1147 O   0  0  0  0  0  0  0  0  0  0  0  0
   15.9302  -19.4562   20.0619 O   0  0  0  0  0  0  0  0  0  0  0  0
    9.8656  -19.9363   26.8348 O   0  0  0  0  0  0  0  0  0  0  0  0
   10.7322  -18.8837   27.0248 C   0  0  0  0  0  0  0  0  0  0  0  0
   11.9894  -19.0432   26.2387 C   0  0  2  0  0  0  0  0  0  0  0  0
   11.8153  -19.3629   24.8578 N   0  0  0  0  0  0  0  0  0  0  0  0
   12.9298  -19.9607   26.9370 C   0  0  0  0  0  0  0  0  0  0  0  0
   13.4382  -20.9760   26.4566 O   0  0  0  0  0  0  0  0  0  0  0  0
   13.2718  -19.6468   28.2609 O   0  0  0  0  0  0  0  0  0  0  0  0
  2  1  1  0
  2 12  2  0
  3  2  1  0
  4  3  2  0
  4  5  1  0
  5 11  2  0
  6  5  1  0
  7  8  1  6
  7  6  1  0
  9  7  1  0
 10  9  2  0
 11 12  1  0
 13  9  1  0
 14 13  1  0
 14 15  1  6
 15 16  1  0
 16 17  1  0
 17 21  1  0
 17 18  2  0
 19 14  1  0
 20 19  2  0
 22 23  1  0
 24 23  1  1
 24 26  1  0
 24 25  1  0
 25 19  1  0
 26 28  1  0
 27 26  2  0
M  END
$$$$
