GIA.pdb
     RDKit          3D

 18 17  0  0  1  0  0  0  0  0999 V2000
   17.5954  -11.5462  -17.6875 N   0  0  0  0  0  0  0  0  0  0  0  0
   18.2990  -10.3253  -17.9453 C   0  0  0  0  0  0  0  0  0  0  0  0
   19.0381   -9.8313  -16.7504 C   0  0  0  0  0  0  0  0  0  0  0  0
   18.4357   -9.7661  -15.6801 O   0  0  0  0  0  0  0  0  0  0  0  0
   23.4171  -11.8444  -14.8373 C   0  0  0  0  0  0  0  0  0  0  0  0
   22.0994  -11.1494  -15.1271 C   0  0  0  0  0  0  0  0  0  0  0  0
   22.3222   -9.6896  -15.3087 C   0  0  2  0  0  0  0  0  0  0  0  0
   23.0079   -9.0430  -14.1229 C   0  0  0  0  0  0  0  0  0  0  0  0
   21.1612   -8.8949  -15.7514 C   0  0  2  0  0  0  0  0  0  0  0  0
   20.4038   -9.4471  -16.8521 N   0  0  0  0  0  0  0  0  0  0  0  0
   21.2858   -7.4248  -15.7648 C   0  0  0  0  0  0  0  0  0  0  0  0
   21.9121   -6.7787  -16.6402 O   0  0  0  0  0  0  0  0  0  0  0  0
   19.4984   -4.5202  -14.3917 C   0  0  0  0  0  0  0  0  0  0  0  0
   20.8350   -5.1798  -14.7128 C   0  0  2  0  0  0  0  0  0  0  0  0
   20.6862   -6.6326  -14.7491 N   0  0  0  0  0  0  0  0  0  0  0  0
   21.8872   -4.7538  -13.7904 C   0  0  0  0  0  0  0  0  0  0  0  0
   22.2018   -5.4475  -12.7971 O   0  0  0  0  0  0  0  0  0  0  0  0
   22.5549   -3.5636  -14.0087 O   0  0  0  0  0  0  0  0  0  0  0  0
  1  2  1  0
  2  3  1  0
  3 10  1  0
  3  4  2  0
  6  7  1  0
  6  5  1  0
  7  8  1  1
  9  7  1  0
  9 10  1  6
 11  9  1  0
 11 15  1  0
 12 11  2  0
 14 13  1  1
 14 15  1  0
 14 16  1  0
 16 18  1  0
 17 16  2  0
M  END
$$$$
