GIA.pdb
     RDKit          3D

 18 17  0  0  1  0  0  0  0  0999 V2000
   23.6880  -13.2012  -20.3668 N   0  0  0  0  0  0  0  0  0  0  0  0
   23.3250  -11.8155  -20.3465 C   0  0  0  0  0  0  0  0  0  0  0  0
   23.1177  -11.3019  -18.9640 C   0  0  0  0  0  0  0  0  0  0  0  0
   22.0679  -11.5858  -18.3896 O   0  0  0  0  0  0  0  0  0  0  0  0
   27.1136  -10.1211  -15.0781 C   0  0  0  0  0  0  0  0  0  0  0  0
   26.3722  -10.6600  -16.2877 C   0  0  0  0  0  0  0  0  0  0  0  0
   24.9138  -10.7307  -16.0020 C   0  0  2  0  0  0  0  0  0  0  0  0
   24.4356  -12.1371  -15.7062 C   0  0  0  0  0  0  0  0  0  0  0  0
   24.0200  -10.0546  -16.9609 C   0  0  2  0  0  0  0  0  0  0  0  0
   24.1118  -10.5050  -18.3316 N   0  0  0  0  0  0  0  0  0  0  0  0
   23.7940   -8.6052  -16.8020 C   0  0  0  0  0  0  0  0  0  0  0  0
   24.6509   -7.7257  -17.0630 O   0  0  0  0  0  0  0  0  0  0  0  0
   21.1323   -6.1558  -16.7389 C   0  0  0  0  0  0  0  0  0  0  0  0
   22.3543   -6.6969  -16.0048 C   0  0  2  0  0  0  0  0  0  0  0  0
   22.5515   -8.1088  -16.3237 N   0  0  0  0  0  0  0  0  0  0  0  0
   22.2716   -6.4609  -14.5637 C   0  0  0  0  0  0  0  0  0  0  0  0
   21.9791   -7.3828  -13.7691 O   0  0  0  0  0  0  0  0  0  0  0  0
   22.5192   -5.1994  -14.0565 O   0  0  0  0  0  0  0  0  0  0  0  0
  1  2  1  0
  2  3  1  0
  3 10  1  0
  3  4  2  0
  6  7  1  0
  6  5  1  0
  7  8  1  6
  9  7  1  0
  9 10  1  6
 11  9  1  0
 11 15  1  0
 12 11  2  0
 14 13  1  6
 14 15  1  0
 14 16  1  0
 16 18  1  0
 17 16  2  0
M  END
$$$$
