GIA.pdb
     RDKit          3D

 18 17  0  0  1  0  0  0  0  0999 V2000
   21.1961  -11.5225  -19.2698 N   0  0  0  0  0  0  0  0  0  0  0  0
   21.1490  -12.1104  -17.9643 C   0  0  0  0  0  0  0  0  0  0  0  0
   21.7843  -11.2487  -16.9290 C   0  0  0  0  0  0  0  0  0  0  0  0
   21.1747  -11.0571  -15.8781 O   0  0  0  0  0  0  0  0  0  0  0  0
   26.9968  -12.1101  -15.8632 C   0  0  0  0  0  0  0  0  0  0  0  0
   25.5015  -11.8561  -15.9156 C   0  0  0  0  0  0  0  0  0  0  0  0
   25.2355  -10.3951  -16.0066 C   0  0  2  0  0  0  0  0  0  0  0  0
   25.9418   -9.5963  -14.9307 C   0  0  0  0  0  0  0  0  0  0  0  0
   23.8234   -9.9880  -16.1321 C   0  0  2  0  0  0  0  0  0  0  0  0
   23.0619  -10.6664  -17.1567 N   0  0  0  0  0  0  0  0  0  0  0  0
   23.4904   -8.5611  -15.9593 C   0  0  0  0  0  0  0  0  0  0  0  0
   23.9516   -7.8356  -15.0444 O   0  0  0  0  0  0  0  0  0  0  0  0
   21.9219   -5.9066  -18.0897 C   0  0  0  0  0  0  0  0  0  0  0  0
   22.2839   -6.4861  -16.7267 C   0  0  2  0  0  0  0  0  0  0  0  0
   22.5943   -7.9084  -16.8481 N   0  0  0  0  0  0  0  0  0  0  0  0
   21.2421   -6.2295  -15.7326 C   0  0  0  0  0  0  0  0  0  0  0  0
   20.9850   -5.0675  -15.3446 O   0  0  0  0  0  0  0  0  0  0  0  0
   20.5200   -7.2823  -15.2033 O   0  0  0  0  0  0  0  0  0  0  0  0
  1  2  1  0
  2  3  1  0
  3 10  1  0
  3  4  2  0
  6  7  1  0
  6  5  1  0
  7  8  1  1
  9  7  1  0
  9 10  1  6
 11  9  1  0
 11 15  1  0
 12 11  2  0
 14 13  1  6
 14 15  1  0
 14 16  1  0
 16 18  1  0
 17 16  2  0
M  END
$$$$
