GIA.pdb
     RDKit          3D

 18 17  0  0  1  0  0  0  0  0999 V2000
   19.7264  -23.0136   -6.7725 N   0  0  0  0  0  0  0  0  0  0  0  0
   20.1007  -23.2715   -8.1311 C   0  0  0  0  0  0  0  0  0  0  0  0
   20.8041  -22.1173   -8.7564 C   0  0  0  0  0  0  0  0  0  0  0  0
   20.2387  -21.0251   -8.7612 O   0  0  0  0  0  0  0  0  0  0  0  0
   25.8965  -19.1462   -9.1237 C   0  0  0  0  0  0  0  0  0  0  0  0
   24.6906  -19.5500   -9.9518 C   0  0  0  0  0  0  0  0  0  0  0  0
   24.0163  -20.7226   -9.3323 C   0  0  2  0  0  0  0  0  0  0  0  0
   24.9710  -21.8542   -9.0123 C   0  0  0  0  0  0  0  0  0  0  0  0
   22.8060  -21.2225  -10.0111 C   0  0  2  0  0  0  0  0  0  0  0  0
   22.0951  -22.2815   -9.3305 N   0  0  0  0  0  0  0  0  0  0  0  0
   22.8291  -21.3413  -11.4816 C   0  0  0  0  0  0  0  0  0  0  0  0
   23.4016  -22.2687  -12.1046 O   0  0  0  0  0  0  0  0  0  0  0  0
   20.7895  -20.2338  -14.3095 C   0  0  0  0  0  0  0  0  0  0  0  0
   22.1913  -20.4723  -13.7593 C   0  0  2  0  0  0  0  0  0  0  0  0
   22.1856  -20.3758  -12.3017 N   0  0  0  0  0  0  0  0  0  0  0  0
   23.1746  -19.5779  -14.3697 C   0  0  0  0  0  0  0  0  0  0  0  0
   23.7626  -18.7013  -13.6970 O   0  0  0  0  0  0  0  0  0  0  0  0
   23.4693  -19.6928  -15.7151 O   0  0  0  0  0  0  0  0  0  0  0  0
  1  2  1  0
  2  3  1  0
  3 10  1  0
  3  4  2  0
  6  7  1  0
  6  5  1  0
  7  8  1  6
  9  7  1  0
  9 10  1  1
 11  9  1  0
 11 15  1  0
 12 11  2  0
 14 13  1  6
 14 15  1  0
 14 16  1  0
 16 18  1  0
 17 16  2  0
M  END
$$$$
