TVH.pdb
     RDKit          3D

 25 25  0  0  1  0  0  0  0  0999 V2000
    6.9769  -19.1392   15.9809 C   0  0  0  0  0  0  0  0  0  0  0  0
    7.6054  -18.5446   17.2195 C   0  0  1  0  0  0  0  0  0  0  0  0
    8.4289  -19.4555   17.8629 O   0  0  0  0  0  0  0  0  0  0  0  0
    8.2466  -17.2234   16.9803 C   0  0  2  0  0  0  0  0  0  0  0  0
    9.2973  -17.3928   15.9860 N   0  0  0  0  0  0  0  0  0  0  0  0
    8.7358  -16.5348   18.1829 C   0  0  0  0  0  0  0  0  0  0  0  0
    9.9483  -16.6503   18.5618 O   0  0  0  0  0  0  0  0  0  0  0  0
    8.1564  -13.3083   21.8907 C   0  0  0  0  0  0  0  0  0  0  0  0
    7.5220  -13.9593   20.6799 C   0  0  1  0  0  0  0  0  0  0  0  0
    7.3131  -12.8706   19.6507 C   0  0  0  0  0  0  0  0  0  0  0  0
    8.4022  -15.0653   20.1940 C   0  0  2  0  0  0  0  0  0  0  0  0
    7.9315  -15.7094   18.9994 N   0  0  0  0  0  0  0  0  0  0  0  0
    8.5906  -16.0266   21.3178 C   0  0  0  0  0  0  0  0  0  0  0  0
    7.9805  -17.1255   21.3714 O   0  0  0  0  0  0  0  0  0  0  0  0
    9.4841  -15.7426   22.4016 N   0  0  0  0  0  0  0  0  0  0  0  0
   10.3379  -16.7798   22.9707 C   0  0  1  0  0  0  0  0  0  0  0  0
   11.2411  -17.2992   21.8630 C   0  0  0  0  0  0  0  0  0  0  0  0
   10.8828  -18.6918   21.4906 C   0  0  0  0  0  0  0  0  0  0  0  0
    9.8889  -19.4929   21.9950 C   0  0  0  0  0  0  0  0  0  0  0  0
    9.9488  -20.6717   21.3483 N   0  0  0  0  0  0  0  0  0  0  0  0
   10.9435  -20.6474   20.4530 C   0  0  0  0  0  0  0  0  0  0  0  0
   11.5101  -19.4409   20.5420 N   0  0  0  0  0  0  0  0  0  0  0  0
   11.1322  -16.2445   24.1030 C   0  0  0  0  0  0  0  0  0  0  0  0
   11.8989  -15.0949   23.9853 O   0  0  0  0  0  0  0  0  0  0  0  0
   11.1510  -16.8110   25.2375 O   0  0  0  0  0  0  0  0  0  0  0  0
  2  1  1  6
  2  3  1  0
  4  6  1  0
  4  2  1  0
  4  5  1  6
  6  7  2  0
  9  8  1  1
  9 10  1  0
 11  9  1  0
 12  6  1  0
 11 12  1  6
 13 11  1  0
 14 13  2  0
 15 13  1  0
 16 15  1  0
 16 17  1  6
 17 18  1  0
 18 22  1  0
 19 18  2  0
 19 20  1  0
 20 21  1  0
 22 21  2  0
 23 16  1  0
 23 24  1  0
 25 23  2  0
M  END
$$$$
