TVH.pdb
     RDKit          3D

 25 25  0  0  1  0  0  0  0  0999 V2000
    7.6901  -19.8626   17.7905 C   0  0  0  0  0  0  0  0  0  0  0  0
    8.2295  -19.0184   18.9215 C   0  0  1  0  0  0  0  0  0  0  0  0
    9.2355  -19.6739   19.6143 O   0  0  0  0  0  0  0  0  0  0  0  0
    8.5918  -17.6363   18.5061 C   0  0  2  0  0  0  0  0  0  0  0  0
    9.5954  -17.7179   17.4539 N   0  0  0  0  0  0  0  0  0  0  0  0
    9.0101  -16.7417   19.5945 C   0  0  0  0  0  0  0  0  0  0  0  0
   10.2431  -16.4940   19.8075 O   0  0  0  0  0  0  0  0  0  0  0  0
    8.0973  -13.4312   23.1326 C   0  0  0  0  0  0  0  0  0  0  0  0
    7.5756  -14.1873   21.9291 C   0  0  1  0  0  0  0  0  0  0  0  0
    7.4089  -13.1807   20.8124 C   0  0  0  0  0  0  0  0  0  0  0  0
    8.5242  -15.2908   21.5880 C   0  0  2  0  0  0  0  0  0  0  0  0
    8.1115  -16.0969   20.4729 N   0  0  0  0  0  0  0  0  0  0  0  0
    8.7450  -16.1007   22.8200 C   0  0  0  0  0  0  0  0  0  0  0  0
    7.8208  -16.7541   23.3691 O   0  0  0  0  0  0  0  0  0  0  0  0
   10.0329  -16.1748   23.4441 N   0  0  0  0  0  0  0  0  0  0  0  0
   10.2430  -16.9595   24.6561 C   0  0  1  0  0  0  0  0  0  0  0  0
   11.7060  -17.3726   24.6955 C   0  0  0  0  0  0  0  0  0  0  0  0
   12.0423  -18.2569   23.5504 C   0  0  0  0  0  0  0  0  0  0  0  0
   11.4365  -19.4221   23.1512 C   0  0  0  0  0  0  0  0  0  0  0  0
   12.0898  -19.8679   22.0621 N   0  0  0  0  0  0  0  0  0  0  0  0
   13.0867  -19.0288   21.7565 C   0  0  0  0  0  0  0  0  0  0  0  0
   13.0552  -18.0492   22.6642 N   0  0  0  0  0  0  0  0  0  0  0  0
    9.8747  -16.1761   25.8603 C   0  0  0  0  0  0  0  0  0  0  0  0
    9.7033  -16.7712   27.1011 O   0  0  0  0  0  0  0  0  0  0  0  0
    9.6975  -14.9210   25.8168 O   0  0  0  0  0  0  0  0  0  0  0  0
  2  1  1  6
  2  3  1  0
  4  6  1  0
  4  2  1  0
  4  5  1  6
  6  7  2  0
  9  8  1  1
  9 10  1  0
 11  9  1  0
 12  6  1  0
 11 12  1  6
 13 11  1  0
 14 13  2  0
 15 13  1  0
 16 15  1  0
 16 17  1  1
 17 18  1  0
 18 22  1  0
 19 18  2  0
 19 20  1  0
 20 21  1  0
 22 21  2  0
 23 16  1  0
 23 24  1  0
 25 23  2  0
M  END
$$$$
