TVH.pdb
     RDKit          3D

 25 25  0  0  1  0  0  0  0  0999 V2000
    6.5295  -16.9334   22.0369 C   0  0  0  0  0  0  0  0  0  0  0  0
    7.4042  -16.0778   21.1506 C   0  0  1  0  0  0  0  0  0  0  0  0
    7.1183  -16.2728   19.8082 O   0  0  0  0  0  0  0  0  0  0  0  0
    7.4329  -14.6460   21.5543 C   0  0  2  0  0  0  0  0  0  0  0  0
    8.1143  -13.8863   20.5151 N   0  0  0  0  0  0  0  0  0  0  0  0
    7.9943  -14.3790   22.8859 C   0  0  0  0  0  0  0  0  0  0  0  0
    9.2477  -14.2091   23.0513 O   0  0  0  0  0  0  0  0  0  0  0  0
    7.5297  -13.3368   27.6932 C   0  0  0  0  0  0  0  0  0  0  0  0
    6.8198  -13.5324   26.3703 C   0  0  1  0  0  0  0  0  0  0  0  0
    6.2692  -12.1845   25.9601 C   0  0  0  0  0  0  0  0  0  0  0  0
    7.7767  -14.1035   25.3743 C   0  0  2  0  0  0  0  0  0  0  0  0
    7.2195  -14.2890   24.0634 N   0  0  0  0  0  0  0  0  0  0  0  0
    8.3239  -15.3695   25.9402 C   0  0  0  0  0  0  0  0  0  0  0  0
    7.5851  -16.3336   26.2679 O   0  0  0  0  0  0  0  0  0  0  0  0
    9.7313  -15.5511   26.1402 N   0  0  0  0  0  0  0  0  0  0  0  0
   10.2549  -16.7432   26.7986 C   0  0  1  0  0  0  0  0  0  0  0  0
   11.6050  -17.0637   26.1764 C   0  0  0  0  0  0  0  0  0  0  0  0
   11.4487  -17.5457   24.7801 C   0  0  0  0  0  0  0  0  0  0  0  0
   10.2975  -17.7704   24.0670 C   0  0  0  0  0  0  0  0  0  0  0  0
   10.6546  -18.2026   22.8435 N   0  0  0  0  0  0  0  0  0  0  0  0
   11.9888  -18.2601   22.7547 C   0  0  0  0  0  0  0  0  0  0  0  0
   12.4694  -17.8597   23.9351 N   0  0  0  0  0  0  0  0  0  0  0  0
   10.3767  -16.5260   28.2606 C   0  0  0  0  0  0  0  0  0  0  0  0
   10.6123  -17.5700   29.1424 O   0  0  0  0  0  0  0  0  0  0  0  0
   10.2714  -15.3736   28.7794 O   0  0  0  0  0  0  0  0  0  0  0  0
  2  1  1  1
  2  3  1  0
  4  6  1  0
  4  2  1  0
  4  5  1  6
  6  7  2  0
  9  8  1  1
  9 10  1  0
 11  9  1  0
 12  6  1  0
 11 12  1  6
 13 11  1  0
 14 13  2  0
 15 13  1  0
 16 15  1  0
 16 17  1  6
 17 18  1  0
 18 22  1  0
 19 18  2  0
 19 20  1  0
 20 21  1  0
 22 21  2  0
 23 16  1  0
 23 24  1  0
 25 23  2  0
M  END
$$$$
