TVH.pdb
     RDKit          3D

 25 25  0  0  1  0  0  0  0  0999 V2000
    9.3643  -12.6509   18.3302 C   0  0  0  0  0  0  0  0  0  0  0  0
    9.1727  -13.6550   19.4427 C   0  0  1  0  0  0  0  0  0  0  0  0
    9.9912  -13.3793   20.5272 O   0  0  0  0  0  0  0  0  0  0  0  0
    7.7461  -13.8664   19.8084 C   0  0  2  0  0  0  0  0  0  0  0  0
    7.1468  -12.5714   20.1001 N   0  0  0  0  0  0  0  0  0  0  0  0
    7.5104  -14.8351   20.8881 C   0  0  0  0  0  0  0  0  0  0  0  0
    7.0098  -14.4709   22.0034 O   0  0  0  0  0  0  0  0  0  0  0  0
    6.7564  -19.3539   22.5704 C   0  0  0  0  0  0  0  0  0  0  0  0
    7.1454  -18.5081   21.3764 C   0  0  1  0  0  0  0  0  0  0  0  0
    5.9444  -18.4602   20.4581 C   0  0  0  0  0  0  0  0  0  0  0  0
    7.5792  -17.1573   21.8465 C   0  0  2  0  0  0  0  0  0  0  0  0
    7.8077  -16.2124   20.7889 N   0  0  0  0  0  0  0  0  0  0  0  0
    8.7795  -17.3383   22.7119 C   0  0  0  0  0  0  0  0  0  0  0  0
    8.8179  -18.1887   23.6382 O   0  0  0  0  0  0  0  0  0  0  0  0
    9.9587  -16.5449   22.5287 N   0  0  0  0  0  0  0  0  0  0  0  0
   11.1534  -16.7663   23.3364 C   0  0  1  0  0  0  0  0  0  0  0  0
   12.2132  -15.7750   22.8818 C   0  0  0  0  0  0  0  0  0  0  0  0
   12.4564  -15.8858   21.4206 C   0  0  0  0  0  0  0  0  0  0  0  0
   12.5496  -17.0131   20.6430 C   0  0  0  0  0  0  0  0  0  0  0  0
   12.7769  -16.6165   19.3771 N   0  0  0  0  0  0  0  0  0  0  0  0
   12.8314  -15.2803   19.3237 C   0  0  0  0  0  0  0  0  0  0  0  0
   12.6359  -14.8384   20.5692 N   0  0  0  0  0  0  0  0  0  0  0  0
   10.8506  -16.6031   24.7791 C   0  0  0  0  0  0  0  0  0  0  0  0
   11.8155  -16.7847   25.7584 O   0  0  0  0  0  0  0  0  0  0  0  0
    9.6931  -16.2889   25.1910 O   0  0  0  0  0  0  0  0  0  0  0  0
  2  1  1  6
  2  3  1  0
  4  6  1  0
  4  2  1  0
  4  5  1  1
  6  7  2  0
  9  8  1  1
  9 10  1  0
 11  9  1  0
 12  6  1  0
 11 12  1  6
 13 11  1  0
 14 13  2  0
 15 13  1  0
 16 15  1  0
 16 17  1  6
 17 18  1  0
 18 22  1  0
 19 18  2  0
 19 20  1  0
 20 21  1  0
 22 21  2  0
 23 16  1  0
 23 24  1  0
 25 23  2  0
M  END
$$$$
