TVH.pdb
     RDKit          3D

 25 25  0  0  1  0  0  0  0  0999 V2000
    6.6823  -17.3464   22.8380 C   0  0  0  0  0  0  0  0  0  0  0  0
    7.3143  -16.5274   21.7368 C   0  0  1  0  0  0  0  0  0  0  0  0
    6.9326  -16.9765   20.4820 O   0  0  0  0  0  0  0  0  0  0  0  0
    7.1495  -15.0604   21.9228 C   0  0  2  0  0  0  0  0  0  0  0  0
    7.5658  -14.3896   20.6989 N   0  0  0  0  0  0  0  0  0  0  0  0
    7.8116  -14.4984   23.1084 C   0  0  0  0  0  0  0  0  0  0  0  0
    9.0671  -14.2728   23.1178 O   0  0  0  0  0  0  0  0  0  0  0  0
    7.7866  -12.5008   27.6140 C   0  0  0  0  0  0  0  0  0  0  0  0
    6.9409  -13.0043   26.4635 C   0  0  1  0  0  0  0  0  0  0  0  0
    6.2908  -11.7945   25.8296 C   0  0  0  0  0  0  0  0  0  0  0  0
    7.8029  -13.7724   25.5142 C   0  0  2  0  0  0  0  0  0  0  0  0
    7.1370  -14.1682   24.3045 N   0  0  0  0  0  0  0  0  0  0  0  0
    8.3720  -14.9356   26.2528 C   0  0  0  0  0  0  0  0  0  0  0  0
    7.6504  -15.8577   26.7129 O   0  0  0  0  0  0  0  0  0  0  0  0
    9.7820  -15.0609   26.4764 N   0  0  0  0  0  0  0  0  0  0  0  0
   10.3407  -16.2261   27.1538 C   0  0  1  0  0  0  0  0  0  0  0  0
   11.7350  -16.4649   26.5957 C   0  0  0  0  0  0  0  0  0  0  0  0
   11.6852  -16.7542   25.1396 C   0  0  0  0  0  0  0  0  0  0  0  0
   10.7767  -17.5075   24.4386 C   0  0  0  0  0  0  0  0  0  0  0  0
   11.1402  -17.4816   23.1430 N   0  0  0  0  0  0  0  0  0  0  0  0
   12.2449  -16.7402   22.9969 C   0  0  0  0  0  0  0  0  0  0  0  0
   12.5742  -16.2988   24.2141 N   0  0  0  0  0  0  0  0  0  0  0  0
   10.3799  -16.0129   28.6209 C   0  0  0  0  0  0  0  0  0  0  0  0
   10.5736  -17.0583   29.5113 O   0  0  0  0  0  0  0  0  0  0  0  0
   10.2382  -14.8630   29.1366 O   0  0  0  0  0  0  0  0  0  0  0  0
  2  1  1  1
  2  3  1  0
  4  6  1  0
  4  2  1  0
  4  5  1  6
  6  7  2  0
  9  8  1  1
  9 10  1  0
 11  9  1  0
 12  6  1  0
 11 12  1  6
 13 11  1  0
 14 13  2  0
 15 13  1  0
 16 15  1  0
 16 17  1  6
 17 18  1  0
 18 22  1  0
 19 18  2  0
 19 20  1  0
 20 21  1  0
 22 21  2  0
 23 16  1  0
 23 24  1  0
 25 23  2  0
M  END
$$$$
