TVH.pdb
     RDKit          3D

 25 25  0  0  1  0  0  0  0  0999 V2000
    9.2959  -12.0712   18.6904 C   0  0  0  0  0  0  0  0  0  0  0  0
    9.1336  -13.1442   19.7415 C   0  0  1  0  0  0  0  0  0  0  0  0
    8.8428  -12.6030   20.9843 O   0  0  0  0  0  0  0  0  0  0  0  0
    8.2088  -14.2360   19.3333 C   0  0  2  0  0  0  0  0  0  0  0  0
    6.9329  -13.6440   18.9557 N   0  0  0  0  0  0  0  0  0  0  0  0
    8.0423  -15.3185   20.3131 C   0  0  0  0  0  0  0  0  0  0  0  0
    6.9480  -15.4677   20.9515 O   0  0  0  0  0  0  0  0  0  0  0  0
    9.3844  -19.4739   22.5580 C   0  0  0  0  0  0  0  0  0  0  0  0
    9.5985  -18.5323   21.3918 C   0  0  1  0  0  0  0  0  0  0  0  0
    9.0406  -19.2158   20.1631 C   0  0  0  0  0  0  0  0  0  0  0  0
    8.9402  -17.2229   21.6851 C   0  0  2  0  0  0  0  0  0  0  0  0
    9.0478  -16.2604   20.6243 N   0  0  0  0  0  0  0  0  0  0  0  0
    9.4937  -16.7111   22.9711 C   0  0  0  0  0  0  0  0  0  0  0  0
   10.6312  -16.1791   23.0487 O   0  0  0  0  0  0  0  0  0  0  0  0
    8.7500  -16.8010   24.1928 N   0  0  0  0  0  0  0  0  0  0  0  0
    9.3447  -16.4248   25.4709 C   0  0  1  0  0  0  0  0  0  0  0  0
    8.2287  -15.9241   26.3743 C   0  0  0  0  0  0  0  0  0  0  0  0
    7.7033  -14.6180   25.9004 C   0  0  0  0  0  0  0  0  0  0  0  0
    8.3947  -13.4955   25.5184 C   0  0  0  0  0  0  0  0  0  0  0  0
    7.4918  -12.5611   25.1676 N   0  0  0  0  0  0  0  0  0  0  0  0
    6.2542  -13.0497   25.3130 C   0  0  0  0  0  0  0  0  0  0  0  0
    6.3863  -14.3019   25.7592 N   0  0  0  0  0  0  0  0  0  0  0  0
   10.0521  -17.5767   26.0811 C   0  0  0  0  0  0  0  0  0  0  0  0
   10.9858  -17.4142   27.0934 O   0  0  0  0  0  0  0  0  0  0  0  0
    9.8390  -18.7699   25.7081 O   0  0  0  0  0  0  0  0  0  0  0  0
  2  1  1  6
  2  3  1  0
  4  6  1  0
  4  2  1  0
  4  5  1  1
  6  7  2  0
  9  8  1  1
  9 10  1  0
 11  9  1  0
 12  6  1  0
 11 12  1  6
 13 11  1  0
 14 13  2  0
 15 13  1  0
 16 15  1  0
 16 17  1  1
 17 18  1  0
 18 22  1  0
 19 18  2  0
 19 20  1  0
 20 21  1  0
 22 21  2  0
 23 16  1  0
 23 24  1  0
 25 23  2  0
M  END
$$$$
