TVH.pdb
     RDKit          3D

 25 25  0  0  1  0  0  0  0  0999 V2000
    6.5894  -15.8501   20.8138 C   0  0  0  0  0  0  0  0  0  0  0  0
    7.5018  -14.7832   20.2554 C   0  0  1  0  0  0  0  0  0  0  0  0
    7.3769  -14.6722   18.8792 O   0  0  0  0  0  0  0  0  0  0  0  0
    7.3986  -13.4834   20.9722 C   0  0  2  0  0  0  0  0  0  0  0  0
    8.0742  -12.4642   20.1809 N   0  0  0  0  0  0  0  0  0  0  0  0
    7.8657  -13.4946   22.3655 C   0  0  0  0  0  0  0  0  0  0  0  0
    9.0982  -13.3292   22.6493 O   0  0  0  0  0  0  0  0  0  0  0  0
    7.1165  -13.2955   27.2225 C   0  0  0  0  0  0  0  0  0  0  0  0
    6.4908  -13.2573   25.8444 C   0  0  1  0  0  0  0  0  0  0  0  0
    6.0448  -11.8326   25.6003 C   0  0  0  0  0  0  0  0  0  0  0  0
    7.4820  -13.7430   24.8366 C   0  0  2  0  0  0  0  0  0  0  0  0
    7.0171  -13.6830   23.4788 N   0  0  0  0  0  0  0  0  0  0  0  0
    7.8981  -15.1190   25.2314 C   0  0  0  0  0  0  0  0  0  0  0  0
    7.0810  -16.0727   25.3059 O   0  0  0  0  0  0  0  0  0  0  0  0
    9.2619  -15.4248   25.5480 N   0  0  0  0  0  0  0  0  0  0  0  0
    9.6437  -16.7343   26.0660 C   0  0  1  0  0  0  0  0  0  0  0  0
   10.8990  -17.1777   25.3312 C   0  0  0  0  0  0  0  0  0  0  0  0
   10.6662  -17.2395   23.8654 C   0  0  0  0  0  0  0  0  0  0  0  0
    9.6634  -17.8739   23.1755 C   0  0  0  0  0  0  0  0  0  0  0  0
    9.8670  -17.6499   21.8641 N   0  0  0  0  0  0  0  0  0  0  0  0
   10.9611  -16.8973   21.6974 C   0  0  0  0  0  0  0  0  0  0  0  0
   11.4454  -16.6491   22.9174 N   0  0  0  0  0  0  0  0  0  0  0  0
    9.8727  -16.6744   27.5301 C   0  0  0  0  0  0  0  0  0  0  0  0
    9.8531  -15.4770   28.2294 O   0  0  0  0  0  0  0  0  0  0  0  0
   10.0982  -17.7158   28.2178 O   0  0  0  0  0  0  0  0  0  0  0  0
  2  1  1  1
  2  3  1  0
  4  6  1  0
  4  2  1  0
  4  5  1  6
  6  7  2  0
  9  8  1  1
  9 10  1  0
 11  9  1  0
 12  6  1  0
 11 12  1  6
 13 11  1  0
 14 13  2  0
 15 13  1  0
 16 15  1  0
 16 17  1  6
 17 18  1  0
 18 22  1  0
 19 18  2  0
 19 20  1  0
 20 21  1  0
 22 21  2  0
 23 16  1  0
 23 24  1  0
 25 23  2  0
M  END
$$$$
