TVH.pdb
     RDKit          3D

 25 25  0  0  1  0  0  0  0  0999 V2000
    7.0080  -17.5285   22.6045 C   0  0  0  0  0  0  0  0  0  0  0  0
    7.7399  -16.7417   21.5424 C   0  0  1  0  0  0  0  0  0  0  0  0
    7.4340  -17.1948   20.2684 O   0  0  0  0  0  0  0  0  0  0  0  0
    7.6062  -15.2684   21.7015 C   0  0  2  0  0  0  0  0  0  0  0  0
    8.1978  -14.6222   20.5381 N   0  0  0  0  0  0  0  0  0  0  0  0
    8.1331  -14.7211   22.9596 C   0  0  0  0  0  0  0  0  0  0  0  0
    9.3772  -14.4794   23.1038 O   0  0  0  0  0  0  0  0  0  0  0  0
    7.5346  -12.7195   27.4370 C   0  0  0  0  0  0  0  0  0  0  0  0
    6.8759  -13.1625   26.1477 C   0  0  1  0  0  0  0  0  0  0  0  0
    6.3839  -11.9135   25.4504 C   0  0  0  0  0  0  0  0  0  0  0  0
    7.8568  -13.9420   25.3327 C   0  0  2  0  0  0  0  0  0  0  0  0
    7.3330  -14.4232   24.0847 N   0  0  0  0  0  0  0  0  0  0  0  0
    8.3862  -15.0439   26.1860 C   0  0  0  0  0  0  0  0  0  0  0  0
    7.6340  -15.8913   26.7325 O   0  0  0  0  0  0  0  0  0  0  0  0
    9.7910  -15.1924   26.4272 N   0  0  0  0  0  0  0  0  0  0  0  0
   10.3023  -16.2424   27.3017 C   0  0  1  0  0  0  0  0  0  0  0  0
   11.7912  -16.3907   27.0300 C   0  0  0  0  0  0  0  0  0  0  0  0
   12.4028  -17.3934   27.9395 C   0  0  0  0  0  0  0  0  0  0  0  0
   11.8109  -18.1361   28.9305 C   0  0  0  0  0  0  0  0  0  0  0  0
   12.7639  -18.9083   29.4845 N   0  0  0  0  0  0  0  0  0  0  0  0
   13.9373  -18.6826   28.8816 C   0  0  0  0  0  0  0  0  0  0  0  0
   13.7143  -17.7600   27.9416 N   0  0  0  0  0  0  0  0  0  0  0  0
   10.0477  -15.9118   28.7249 C   0  0  0  0  0  0  0  0  0  0  0  0
    9.7567  -16.8877   29.6662 O   0  0  0  0  0  0  0  0  0  0  0  0
   10.0831  -14.7190   29.1541 O   0  0  0  0  0  0  0  0  0  0  0  0
  2  1  1  1
  2  3  1  0
  4  6  1  0
  4  2  1  0
  4  5  1  6
  6  7  2  0
  9  8  1  1
  9 10  1  0
 11  9  1  0
 12  6  1  0
 11 12  1  6
 13 11  1  0
 14 13  2  0
 15 13  1  0
 16 15  1  0
 16 17  1  1
 17 18  1  0
 18 22  1  0
 19 18  2  0
 19 20  1  0
 20 21  1  0
 22 21  2  0
 23 16  1  0
 23 24  1  0
 25 23  2  0
M  END
$$$$
