TVH.pdb
     RDKit          3D

 25 25  0  0  1  0  0  0  0  0999 V2000
    6.4169  -20.0767   18.2612 C   0  0  0  0  0  0  0  0  0  0  0  0
    7.2457  -19.0283   18.9658 C   0  0  1  0  0  0  0  0  0  0  0  0
    8.1999  -19.6012   19.7924 O   0  0  0  0  0  0  0  0  0  0  0  0
    7.7931  -17.9930   18.0481 C   0  0  2  0  0  0  0  0  0  0  0  0
    8.6260  -18.6523   17.0516 N   0  0  0  0  0  0  0  0  0  0  0  0
    8.4974  -16.8814   18.7024 C   0  0  0  0  0  0  0  0  0  0  0  0
    9.7649  -16.8965   18.8452 O   0  0  0  0  0  0  0  0  0  0  0  0
    6.4530  -13.4843   20.4990 C   0  0  0  0  0  0  0  0  0  0  0  0
    7.8741  -13.3967   19.9840 C   0  0  1  0  0  0  0  0  0  0  0  0
    8.5918  -12.3748   20.8377 C   0  0  0  0  0  0  0  0  0  0  0  0
    8.5040  -14.7511   20.0355 C   0  0  2  0  0  0  0  0  0  0  0  0
    7.8529  -15.7336   19.2144 N   0  0  0  0  0  0  0  0  0  0  0  0
    8.5764  -15.1673   21.4651 C   0  0  0  0  0  0  0  0  0  0  0  0
    7.7418  -15.9566   21.9782 O   0  0  0  0  0  0  0  0  0  0  0  0
    9.6098  -14.6840   22.3322 N   0  0  0  0  0  0  0  0  0  0  0  0
    9.7332  -15.1643   23.7044 C   0  0  1  0  0  0  0  0  0  0  0  0
    8.4267  -15.8468   24.0780 C   0  0  0  0  0  0  0  0  0  0  0  0
    7.5032  -14.8994   24.7533 C   0  0  0  0  0  0  0  0  0  0  0  0
    7.6733  -13.5619   25.0106 C   0  0  0  0  0  0  0  0  0  0  0  0
    6.5681  -13.1254   25.6426 N   0  0  0  0  0  0  0  0  0  0  0  0
    5.7042  -14.1362   25.7952 C   0  0  0  0  0  0  0  0  0  0  0  0
    6.2763  -15.2147   25.2529 N   0  0  0  0  0  0  0  0  0  0  0  0
   10.8805  -16.0950   23.8346 C   0  0  0  0  0  0  0  0  0  0  0  0
   11.7025  -16.4042   22.7614 O   0  0  0  0  0  0  0  0  0  0  0  0
   11.1686  -16.6562   24.9348 O   0  0  0  0  0  0  0  0  0  0  0  0
  2  1  1  6
  2  3  1  0
  4  6  1  0
  4  2  1  0
  4  5  1  6
  6  7  2  0
  9  8  1  1
  9 10  1  0
 11  9  1  0
 12  6  1  0
 11 12  1  6
 13 11  1  0
 14 13  2  0
 15 13  1  0
 16 15  1  0
 16 17  1  6
 17 18  1  0
 18 22  1  0
 19 18  2  0
 19 20  1  0
 20 21  1  0
 22 21  2  0
 23 16  1  0
 23 24  1  0
 25 23  2  0
M  END
$$$$
