TVH.pdb
     RDKit          3D

 25 25  0  0  1  0  0  0  0  0999 V2000
    8.9198  -12.6716   19.8224 C   0  0  0  0  0  0  0  0  0  0  0  0
    8.3011  -13.1866   18.5439 C   0  0  1  0  0  0  0  0  0  0  0  0
    8.4779  -12.2970   17.4954 O   0  0  0  0  0  0  0  0  0  0  0  0
    8.6971  -14.5830   18.2168 C   0  0  2  0  0  0  0  0  0  0  0  0
    8.1260  -14.9348   16.9240 N   0  0  0  0  0  0  0  0  0  0  0  0
    8.3819  -15.5837   19.2458 C   0  0  0  0  0  0  0  0  0  0  0  0
    7.5743  -16.5421   19.0084 O   0  0  0  0  0  0  0  0  0  0  0  0
   10.2242  -18.9424   21.6209 C   0  0  0  0  0  0  0  0  0  0  0  0
   10.0590  -17.7537   20.6979 C   0  0  1  0  0  0  0  0  0  0  0  0
    9.5359  -18.2848   19.3817 C   0  0  0  0  0  0  0  0  0  0  0  0
    9.1450  -16.7563   21.3334 C   0  0  2  0  0  0  0  0  0  0  0  0
    8.9290  -15.5732   20.5480 N   0  0  0  0  0  0  0  0  0  0  0  0
    9.6806  -16.4448   22.6893 C   0  0  0  0  0  0  0  0  0  0  0  0
   10.8541  -16.0285   22.8689 O   0  0  0  0  0  0  0  0  0  0  0  0
    8.8769  -16.6058   23.8648 N   0  0  0  0  0  0  0  0  0  0  0  0
    9.3691  -16.2071   25.1791 C   0  0  1  0  0  0  0  0  0  0  0  0
    8.1636  -15.9117   26.0578 C   0  0  0  0  0  0  0  0  0  0  0  0
    7.4593  -14.6852   25.6036 C   0  0  0  0  0  0  0  0  0  0  0  0
    7.8543  -13.7558   24.6739 C   0  0  0  0  0  0  0  0  0  0  0  0
    6.8891  -12.8210   24.5976 N   0  0  0  0  0  0  0  0  0  0  0  0
    5.8974  -13.1233   25.4441 C   0  0  0  0  0  0  0  0  0  0  0  0
    6.2474  -14.2586   26.0550 N   0  0  0  0  0  0  0  0  0  0  0  0
   10.2144  -17.2729   25.7697 C   0  0  0  0  0  0  0  0  0  0  0  0
   10.4133  -18.4902   25.1358 O   0  0  0  0  0  0  0  0  0  0  0  0
   10.7990  -17.1256   26.8855 O   0  0  0  0  0  0  0  0  0  0  0  0
  2  1  1  1
  2  3  1  0
  4  6  1  0
  4  2  1  0
  4  5  1  6
  6  7  2  0
  9  8  1  1
  9 10  1  0
 11  9  1  0
 12  6  1  0
 11 12  1  6
 13 11  1  0
 14 13  2  0
 15 13  1  0
 16 15  1  0
 16 17  1  1
 17 18  1  0
 18 22  1  0
 19 18  2  0
 19 20  1  0
 20 21  1  0
 22 21  2  0
 23 16  1  0
 23 24  1  0
 25 23  2  0
M  END
$$$$
