WSY.pdb
     RDKit          3D

 33 35  0  0  1  0  0  0  0  0999 V2000
    6.7701  -17.8509   23.1038 N   0  0  0  0  0  0  0  0  0  0  0  0
    7.8710  -17.0423   23.4821 C   0  0  1  0  0  0  0  0  0  0  0  0
    7.9684  -16.6944   24.9399 C   0  0  0  0  0  0  0  0  0  0  0  0
    6.8666  -15.8461   25.4415 C   0  0  0  0  0  0  0  0  0  0  0  0
    5.6041  -16.2538   25.8552 C   0  0  0  0  0  0  0  0  0  0  0  0
    4.9233  -15.1872   26.2487 N   0  0  0  0  0  0  0  0  0  0  0  0
    5.6683  -14.0663   26.1207 C   0  0  0  0  0  0  0  0  0  0  0  0
    5.3488  -12.7470   26.4080 C   0  0  0  0  0  0  0  0  0  0  0  0
    6.3313  -11.8133   26.1605 C   0  0  0  0  0  0  0  0  0  0  0  0
    7.5581  -12.1915   25.6545 C   0  0  0  0  0  0  0  0  0  0  0  0
    7.8516  -13.5066   25.3776 C   0  0  0  0  0  0  0  0  0  0  0  0
    6.8850  -14.4718   25.6159 C   0  0  0  0  0  0  0  0  0  0  0  0
    9.1874  -17.6742   23.1082 C   0  0  0  0  0  0  0  0  0  0  0  0
    9.3178  -18.9235   23.1426 O   0  0  0  0  0  0  0  0  0  0  0  0
   12.3393  -15.2407   22.1484 O   0  0  0  0  0  0  0  0  0  0  0  0
   12.3197  -16.4805   21.5014 C   0  0  0  0  0  0  0  0  0  0  0  0
   11.5894  -17.4952   22.3833 C   0  0  2  0  0  0  0  0  0  0  0  0
   10.3064  -16.8945   22.7109 N   0  0  0  0  0  0  0  0  0  0  0  0
   12.3799  -17.6874   23.6260 C   0  0  0  0  0  0  0  0  0  0  0  0
   13.4368  -18.3651   23.5986 O   0  0  0  0  0  0  0  0  0  0  0  0
    9.0639  -12.4599   27.4193 O   0  0  0  0  0  0  0  0  0  0  0  0
   10.0682  -13.4054   27.2622 C   0  0  0  0  0  0  0  0  0  0  0  0
   10.7070  -13.9037   28.3766 C   0  0  0  0  0  0  0  0  0  0  0  0
   11.7103  -14.8500   28.2025 C   0  0  0  0  0  0  0  0  0  0  0  0
   12.0797  -15.2992   26.9515 C   0  0  0  0  0  0  0  0  0  0  0  0
   13.1648  -16.2950   26.8444 C   0  0  0  0  0  0  0  0  0  0  0  0
   12.6866  -17.5003   26.0982 C   0  0  2  0  0  0  0  0  0  0  0  0
   11.9920  -17.1312   24.8710 N   0  0  0  0  0  0  0  0  0  0  0  0
   11.8036  -18.3877   26.8748 C   0  0  0  0  0  0  0  0  0  0  0  0
   10.6295  -18.6241   26.4431 O   0  0  0  0  0  0  0  0  0  0  0  0
   11.4210  -14.7802   25.8591 C   0  0  0  0  0  0  0  0  0  0  0  0
   10.4212  -13.8399   26.0036 C   0  0  0  0  0  0  0  0  0  0  0  0
   12.1278  -19.0122   28.0613 O   0  0  0  0  0  0  0  0  0  0  0  0
  2  1  1  1
  2 13  1  0
  2  3  1  0
  4  5  2  0
  4  3  1  0
  6  5  1  0
  7 12  2  0
  7  6  1  0
  8  7  1  0
  9 10  1  0
  9  8  2  0
 10 11  2  0
 11 12  1  0
 12  4  1  0
 13 14  2  0
 16 15  1  0
 17 16  1  6
 18 17  1  0
 18 13  1  0
 19 20  2  0
 19 17  1  0
 21 22  1  0
 22 23  2  0
 23 24  1  0
 25 26  1  0
 25 24  2  0
 27 26  1  1
 27 28  1  0
 28 19  1  0
 29 27  1  0
 29 33  1  0
 30 29  2  0
 31 25  1  0
 32 31  2  0
 32 22  1  0
M  END
$$$$
