WSY.pdb
     RDKit          3D

 33 35  0  0  1  0  0  0  0  0999 V2000
    6.7036  -16.9719   22.8010 N   0  0  0  0  0  0  0  0  0  0  0  0
    7.8907  -16.2576   23.0997 C   0  0  1  0  0  0  0  0  0  0  0  0
    8.1462  -15.9736   24.5522 C   0  0  0  0  0  0  0  0  0  0  0  0
    7.1014  -15.1605   25.2098 C   0  0  0  0  0  0  0  0  0  0  0  0
    6.0158  -15.6134   25.9497 C   0  0  0  0  0  0  0  0  0  0  0  0
    5.3309  -14.5641   26.3809 N   0  0  0  0  0  0  0  0  0  0  0  0
    5.9036  -13.4118   25.9658 C   0  0  0  0  0  0  0  0  0  0  0  0
    5.5175  -12.0969   26.1830 C   0  0  0  0  0  0  0  0  0  0  0  0
    6.3132  -11.1256   25.6157 C   0  0  0  0  0  0  0  0  0  0  0  0
    7.4278  -11.4644   24.8759 C   0  0  0  0  0  0  0  0  0  0  0  0
    7.7904  -12.7759   24.6746 C   0  0  0  0  0  0  0  0  0  0  0  0
    7.0115  -13.7782   25.2325 C   0  0  0  0  0  0  0  0  0  0  0  0
    9.1176  -16.9654   22.5839 C   0  0  0  0  0  0  0  0  0  0  0  0
    9.4341  -18.0912   23.0435 O   0  0  0  0  0  0  0  0  0  0  0  0
   11.5317  -14.9119   19.9958 O   0  0  0  0  0  0  0  0  0  0  0  0
   11.6876  -16.3011   19.9545 C   0  0  0  0  0  0  0  0  0  0  0  0
   11.2832  -16.8918   21.3066 C   0  0  2  0  0  0  0  0  0  0  0  0
    9.9438  -16.3957   21.5786 N   0  0  0  0  0  0  0  0  0  0  0  0
   12.2215  -16.3807   22.3383 C   0  0  0  0  0  0  0  0  0  0  0  0
   12.5505  -15.1687   22.3417 O   0  0  0  0  0  0  0  0  0  0  0  0
   11.0995  -15.4014   30.6794 O   0  0  0  0  0  0  0  0  0  0  0  0
   11.1503  -15.6410   29.3129 C   0  0  0  0  0  0  0  0  0  0  0  0
   10.9395  -16.9189   28.8430 C   0  0  0  0  0  0  0  0  0  0  0  0
   10.9935  -17.1424   27.4720 C   0  0  0  0  0  0  0  0  0  0  0  0
   11.2509  -16.1245   26.5770 C   0  0  0  0  0  0  0  0  0  0  0  0
   11.3075  -16.4413   25.1358 C   0  0  0  0  0  0  0  0  0  0  0  0
   12.6984  -16.8332   24.7485 C   0  0  2  0  0  0  0  0  0  0  0  0
   12.7777  -17.2118   23.3431 N   0  0  0  0  0  0  0  0  0  0  0  0
   13.2690  -17.9291   25.5507 C   0  0  0  0  0  0  0  0  0  0  0  0
   13.5061  -17.7329   26.7860 O   0  0  0  0  0  0  0  0  0  0  0  0
   11.4571  -14.8594   27.0805 C   0  0  0  0  0  0  0  0  0  0  0  0
   11.4090  -14.6098   28.4369 C   0  0  0  0  0  0  0  0  0  0  0  0
   13.5828  -19.1900   25.0875 O   0  0  0  0  0  0  0  0  0  0  0  0
  2  1  1  1
  2 13  1  0
  2  3  1  0
  4  5  2  0
  4  3  1  0
  6  5  1  0
  7 12  2  0
  7  6  1  0
  8  7  1  0
  9 10  1  0
  9  8  2  0
 10 11  2  0
 11 12  1  0
 12  4  1  0
 13 14  2  0
 16 15  1  0
 17 16  1  6
 18 17  1  0
 18 13  1  0
 19 20  2  0
 19 17  1  0
 21 22  1  0
 22 23  2  0
 23 24  1  0
 25 26  1  0
 25 24  2  0
 27 26  1  1
 27 28  1  0
 28 19  1  0
 29 27  1  0
 29 33  1  0
 30 29  2  0
 31 25  1  0
 32 31  2  0
 32 22  1  0
M  END
$$$$
