WSY.pdb
     RDKit          3D

 33 35  0  0  1  0  0  0  0  0999 V2000
    6.7004  -18.0463   24.0649 N   0  0  0  0  0  0  0  0  0  0  0  0
    7.3846  -16.9540   23.4755 C   0  0  1  0  0  0  0  0  0  0  0  0
    8.0096  -15.9725   24.4251 C   0  0  0  0  0  0  0  0  0  0  0  0
    7.0415  -15.2045   25.2363 C   0  0  0  0  0  0  0  0  0  0  0  0
    6.0438  -15.7053   26.0640 C   0  0  0  0  0  0  0  0  0  0  0  0
    5.4083  -14.6864   26.6243 N   0  0  0  0  0  0  0  0  0  0  0  0
    5.9303  -13.5088   26.2134 C   0  0  0  0  0  0  0  0  0  0  0  0
    5.5681  -12.2107   26.5433 C   0  0  0  0  0  0  0  0  0  0  0  0
    6.2954  -11.2038   25.9470 C   0  0  0  0  0  0  0  0  0  0  0  0
    7.3231  -11.4932   25.0727 C   0  0  0  0  0  0  0  0  0  0  0  0
    7.6638  -12.7890   24.7612 C   0  0  0  0  0  0  0  0  0  0  0  0
    6.9521  -13.8262   25.3447 C   0  0  0  0  0  0  0  0  0  0  0  0
    8.4858  -17.4118   22.5535 C   0  0  0  0  0  0  0  0  0  0  0  0
    8.9934  -18.5522   22.6976 O   0  0  0  0  0  0  0  0  0  0  0  0
   10.0373  -14.7038   19.8177 O   0  0  0  0  0  0  0  0  0  0  0  0
   10.2234  -16.0623   19.5423 C   0  0  0  0  0  0  0  0  0  0  0  0
   10.2547  -16.8415   20.8586 C   0  0  2  0  0  0  0  0  0  0  0  0
    8.9792  -16.5859   21.5084 N   0  0  0  0  0  0  0  0  0  0  0  0
   11.3559  -16.2999   21.6952 C   0  0  0  0  0  0  0  0  0  0  0  0
   11.7031  -15.0989   21.5745 O   0  0  0  0  0  0  0  0  0  0  0  0
   10.9635  -14.7610   29.9543 O   0  0  0  0  0  0  0  0  0  0  0  0
   10.8985  -15.1494   28.6230 C   0  0  0  0  0  0  0  0  0  0  0  0
   10.5957  -16.4578   28.3153 C   0  0  0  0  0  0  0  0  0  0  0  0
   10.5343  -16.8309   26.9775 C   0  0  0  0  0  0  0  0  0  0  0  0
   10.7671  -15.9309   25.9582 C   0  0  0  0  0  0  0  0  0  0  0  0
   10.6988  -16.4043   24.5611 C   0  0  0  0  0  0  0  0  0  0  0  0
   12.0721  -16.7109   24.0530 C   0  0  2  0  0  0  0  0  0  0  0  0
   12.0517  -17.0890   22.6454 N   0  0  0  0  0  0  0  0  0  0  0  0
   12.7773  -17.7664   24.8004 C   0  0  0  0  0  0  0  0  0  0  0  0
   13.8004  -17.4566   25.4918 O   0  0  0  0  0  0  0  0  0  0  0  0
   11.0673  -14.6313   26.3010 C   0  0  0  0  0  0  0  0  0  0  0  0
   11.1347  -14.2342   27.6210 C   0  0  0  0  0  0  0  0  0  0  0  0
   12.4323  -19.1016   24.8316 O   0  0  0  0  0  0  0  0  0  0  0  0
  2  1  1  1
  2 13  1  0
  2  3  1  0
  4  5  2  0
  4  3  1  0
  6  5  1  0
  7 12  2  0
  7  6  1  0
  8  7  1  0
  9 10  1  0
  9  8  2  0
 10 11  2  0
 11 12  1  0
 12  4  1  0
 13 14  2  0
 16 15  1  0
 17 16  1  6
 18 17  1  0
 18 13  1  0
 19 20  2  0
 19 17  1  0
 21 22  1  0
 22 23  2  0
 23 24  1  0
 25 26  1  0
 25 24  2  0
 27 26  1  1
 27 28  1  0
 28 19  1  0
 29 27  1  0
 29 33  1  0
 30 29  2  0
 31 25  1  0
 32 31  2  0
 32 22  1  0
M  END
$$$$
