WSY.pdb
     RDKit          3D

 33 35  0  0  1  0  0  0  0  0999 V2000
    6.3034  -17.6068   24.1653 N   0  0  0  0  0  0  0  0  0  0  0  0
    7.2959  -16.6776   23.7648 C   0  0  1  0  0  0  0  0  0  0  0  0
    7.9250  -15.8657   24.8605 C   0  0  0  0  0  0  0  0  0  0  0  0
    7.0273  -14.8626   25.4714 C   0  0  0  0  0  0  0  0  0  0  0  0
    5.9181  -15.0962   26.2753 C   0  0  0  0  0  0  0  0  0  0  0  0
    5.4006  -13.9292   26.6311 N   0  0  0  0  0  0  0  0  0  0  0  0
    6.1105  -12.9068   26.1031 C   0  0  0  0  0  0  0  0  0  0  0  0
    5.9175  -11.5374   26.2150 C   0  0  0  0  0  0  0  0  0  0  0  0
    6.8175  -10.7374   25.5454 C   0  0  0  0  0  0  0  0  0  0  0  0
    7.8464  -11.2890   24.8097 C   0  0  0  0  0  0  0  0  0  0  0  0
    8.0173  -12.6506   24.7138 C   0  0  0  0  0  0  0  0  0  0  0  0
    7.1293  -13.4842   25.3763 C   0  0  0  0  0  0  0  0  0  0  0  0
    8.4287  -17.3471   23.0294 C   0  0  0  0  0  0  0  0  0  0  0  0
    8.6648  -18.5673   23.2144 O   0  0  0  0  0  0  0  0  0  0  0  0
   10.2525  -15.2699   20.2789 O   0  0  0  0  0  0  0  0  0  0  0  0
   10.9656  -16.4582   20.4669 C   0  0  0  0  0  0  0  0  0  0  0  0
   10.6240  -17.0363   21.8416 C   0  0  2  0  0  0  0  0  0  0  0  0
    9.2538  -16.6356   22.1178 N   0  0  0  0  0  0  0  0  0  0  0  0
   11.5326  -16.4237   22.8441 C   0  0  0  0  0  0  0  0  0  0  0  0
   11.2868  -15.2781   23.2962 O   0  0  0  0  0  0  0  0  0  0  0  0
    9.3215  -15.3990   28.6890 O   0  0  0  0  0  0  0  0  0  0  0  0
   10.4122  -15.7779   27.9182 C   0  0  0  0  0  0  0  0  0  0  0  0
   10.2941  -16.8512   27.0625 C   0  0  0  0  0  0  0  0  0  0  0  0
   11.3953  -17.2180   26.2973 C   0  0  0  0  0  0  0  0  0  0  0  0
   12.5941  -16.5394   26.3727 C   0  0  0  0  0  0  0  0  0  0  0  0
   13.7245  -16.9967   25.5399 C   0  0  0  0  0  0  0  0  0  0  0  0
   13.6441  -16.3810   24.1787 C   0  0  2  0  0  0  0  0  0  0  0  0
   12.6910  -17.0826   23.3277 N   0  0  0  0  0  0  0  0  0  0  0  0
   14.9304  -16.3107   23.4642 C   0  0  0  0  0  0  0  0  0  0  0  0
   15.0416  -16.8834   22.3326 O   0  0  0  0  0  0  0  0  0  0  0  0
   12.6777  -15.4715   27.2383 C   0  0  0  0  0  0  0  0  0  0  0  0
   11.5999  -15.0862   28.0093 C   0  0  0  0  0  0  0  0  0  0  0  0
   16.0661  -15.6655   23.9078 O   0  0  0  0  0  0  0  0  0  0  0  0
  2  1  1  1
  2 13  1  0
  2  3  1  0
  4  5  2  0
  4  3  1  0
  6  5  1  0
  7 12  2  0
  7  6  1  0
  8  7  1  0
  9 10  1  0
  9  8  2  0
 10 11  2  0
 11 12  1  0
 12  4  1  0
 13 14  2  0
 16 15  1  0
 17 16  1  6
 18 17  1  0
 18 13  1  0
 19 20  2  0
 19 17  1  0
 21 22  1  0
 22 23  2  0
 23 24  1  0
 25 26  1  0
 25 24  2  0
 27 26  1  1
 27 28  1  0
 28 19  1  0
 29 27  1  0
 29 33  1  0
 30 29  2  0
 31 25  1  0
 32 31  2  0
 32 22  1  0
M  END
$$$$
