WSY.pdb
     RDKit          3D

 33 35  0  0  1  0  0  0  0  0999 V2000
    6.6261  -18.5568   24.6516 N   0  0  0  0  0  0  0  0  0  0  0  0
    7.4352  -17.4302   24.3600 C   0  0  1  0  0  0  0  0  0  0  0  0
    7.9830  -16.6833   25.5423 C   0  0  0  0  0  0  0  0  0  0  0  0
    7.1867  -15.5045   25.9439 C   0  0  0  0  0  0  0  0  0  0  0  0
    5.9400  -15.4932   26.5577 C   0  0  0  0  0  0  0  0  0  0  0  0
    5.5823  -14.2341   26.7651 N   0  0  0  0  0  0  0  0  0  0  0  0
    6.5333  -13.3836   26.3178 C   0  0  0  0  0  0  0  0  0  0  0  0
    6.5648  -11.9965   26.3307 C   0  0  0  0  0  0  0  0  0  0  0  0
    7.6847  -11.4064   25.7867 C   0  0  0  0  0  0  0  0  0  0  0  0
    8.7066  -12.1719   25.2632 C   0  0  0  0  0  0  0  0  0  0  0  0
    8.6525  -13.5464   25.2620 C   0  0  0  0  0  0  0  0  0  0  0  0
    7.5395  -14.1721   25.8026 C   0  0  0  0  0  0  0  0  0  0  0  0
    8.6203  -17.7958   23.5033 C   0  0  0  0  0  0  0  0  0  0  0  0
    9.3058  -18.8123   23.7785 O   0  0  0  0  0  0  0  0  0  0  0  0
    9.7240  -15.2686   20.4350 O   0  0  0  0  0  0  0  0  0  0  0  0
   10.0485  -16.6193   20.2724 C   0  0  0  0  0  0  0  0  0  0  0  0
   10.2335  -17.2603   21.6492 C   0  0  2  0  0  0  0  0  0  0  0  0
    8.9971  -17.0189   22.3753 N   0  0  0  0  0  0  0  0  0  0  0  0
   11.3560  -16.5725   22.3368 C   0  0  0  0  0  0  0  0  0  0  0  0
   11.6525  -15.3920   22.0271 O   0  0  0  0  0  0  0  0  0  0  0  0
    9.6683  -16.0888   29.2422 O   0  0  0  0  0  0  0  0  0  0  0  0
   10.4010  -15.8557   28.0862 C   0  0  0  0  0  0  0  0  0  0  0  0
   11.6840  -16.3483   27.9891 C   0  0  0  0  0  0  0  0  0  0  0  0
   12.4046  -16.1066   26.8251 C   0  0  0  0  0  0  0  0  0  0  0  0
   11.8712  -15.3913   25.7728 C   0  0  0  0  0  0  0  0  0  0  0  0
   12.7025  -15.1619   24.5741 C   0  0  0  0  0  0  0  0  0  0  0  0
   13.1913  -16.4664   24.0285 C   0  0  2  0  0  0  0  0  0  0  0  0
   12.1281  -17.1963   23.3491 N   0  0  0  0  0  0  0  0  0  0  0  0
   13.7912  -17.3613   25.0331 C   0  0  0  0  0  0  0  0  0  0  0  0
   13.2893  -18.5179   25.2096 O   0  0  0  0  0  0  0  0  0  0  0  0
   10.5863  -14.9132   25.9032 C   0  0  0  0  0  0  0  0  0  0  0  0
    9.8489  -15.1388   27.0477 C   0  0  0  0  0  0  0  0  0  0  0  0
   14.8786  -17.0674   25.8294 O   0  0  0  0  0  0  0  0  0  0  0  0
  2  1  1  1
  2 13  1  0
  2  3  1  0
  4  5  2  0
  4  3  1  0
  6  5  1  0
  7 12  2  0
  7  6  1  0
  8  7  1  0
  9 10  1  0
  9  8  2  0
 10 11  2  0
 11 12  1  0
 12  4  1  0
 13 14  2  0
 16 15  1  0
 17 16  1  6
 18 17  1  0
 18 13  1  0
 19 20  2  0
 19 17  1  0
 21 22  1  0
 22 23  2  0
 23 24  1  0
 25 26  1  0
 25 24  2  0
 27 26  1  1
 27 28  1  0
 28 19  1  0
 29 27  1  0
 29 33  1  0
 30 29  2  0
 31 25  1  0
 32 31  2  0
 32 22  1  0
M  END
$$$$
