WSY.pdb
     RDKit          3D

 33 35  0  0  1  0  0  0  0  0999 V2000
    7.0061  -17.4890   24.4341 N   0  0  0  0  0  0  0  0  0  0  0  0
    8.2297  -17.0064   23.9063 C   0  0  1  0  0  0  0  0  0  0  0  0
    8.5291  -15.5545   24.1470 C   0  0  0  0  0  0  0  0  0  0  0  0
    7.6055  -14.6190   23.4710 C   0  0  0  0  0  0  0  0  0  0  0  0
    6.3745  -14.1646   23.9286 C   0  0  0  0  0  0  0  0  0  0  0  0
    5.8745  -13.3250   23.0335 N   0  0  0  0  0  0  0  0  0  0  0  0
    6.7131  -13.1868   21.9820 C   0  0  0  0  0  0  0  0  0  0  0  0
    6.5818  -12.4198   20.8332 C   0  0  0  0  0  0  0  0  0  0  0  0
    7.6174  -12.4952   19.9275 C   0  0  0  0  0  0  0  0  0  0  0  0
    8.7148  -13.2960   20.1697 C   0  0  0  0  0  0  0  0  0  0  0  0
    8.8222  -14.0475   21.3168 C   0  0  0  0  0  0  0  0  0  0  0  0
    7.7977  -13.9940   22.2496 C   0  0  0  0  0  0  0  0  0  0  0  0
    9.4127  -17.7765   24.4352 C   0  0  0  0  0  0  0  0  0  0  0  0
    9.3411  -18.3525   25.5497 O   0  0  0  0  0  0  0  0  0  0  0  0
   12.3906  -18.6599   22.0544 O   0  0  0  0  0  0  0  0  0  0  0  0
   12.6376  -19.1115   23.3549 C   0  0  0  0  0  0  0  0  0  0  0  0
   11.8870  -18.2206   24.3465 C   0  0  2  0  0  0  0  0  0  0  0  0
   10.6277  -17.8769   23.7060 N   0  0  0  0  0  0  0  0  0  0  0  0
   12.6866  -16.9880   24.5640 C   0  0  0  0  0  0  0  0  0  0  0  0
   13.7492  -16.8077   23.9193 O   0  0  0  0  0  0  0  0  0  0  0  0
    7.3732  -12.6066   26.9137 O   0  0  0  0  0  0  0  0  0  0  0  0
    8.4091  -13.5074   27.1202 C   0  0  0  0  0  0  0  0  0  0  0  0
    8.1161  -14.7949   27.5137 C   0  0  0  0  0  0  0  0  0  0  0  0
    9.1646  -15.6850   27.7162 C   0  0  0  0  0  0  0  0  0  0  0  0
   10.4809  -15.3144   27.5343 C   0  0  0  0  0  0  0  0  0  0  0  0
   11.5419  -16.3109   27.7831 C   0  0  0  0  0  0  0  0  0  0  0  0
   12.7090  -16.0571   26.8822 C   0  0  2  0  0  0  0  0  0  0  0  0
   12.3018  -15.9810   25.4846 N   0  0  0  0  0  0  0  0  0  0  0  0
   13.7905  -17.0514   26.9903 C   0  0  0  0  0  0  0  0  0  0  0  0
   13.9177  -17.9289   26.0768 O   0  0  0  0  0  0  0  0  0  0  0  0
   10.7383  -14.0200   27.1409 C   0  0  0  0  0  0  0  0  0  0  0  0
    9.7165  -13.1161   26.9328 C   0  0  0  0  0  0  0  0  0  0  0  0
   14.7129  -17.1329   28.0129 O   0  0  0  0  0  0  0  0  0  0  0  0
  2  1  1  1
  2 13  1  0
  2  3  1  0
  4  5  2  0
  4  3  1  0
  6  5  1  0
  7 12  2  0
  7  6  1  0
  8  7  1  0
  9 10  1  0
  9  8  2  0
 10 11  2  0
 11 12  1  0
 12  4  1  0
 13 14  2  0
 16 15  1  0
 17 16  1  6
 18 17  1  0
 18 13  1  0
 19 20  2  0
 19 17  1  0
 21 22  1  0
 22 23  2  0
 23 24  1  0
 25 26  1  0
 25 24  2  0
 27 26  1  1
 27 28  1  0
 28 19  1  0
 29 27  1  0
 29 33  1  0
 30 29  2  0
 31 25  1  0
 32 31  2  0
 32 22  1  0
M  END
$$$$
