WSY.pdb
     RDKit          3D

 33 35  0  0  1  0  0  0  0  0999 V2000
    6.4181  -17.9469   23.9277 N   0  0  0  0  0  0  0  0  0  0  0  0
    7.3636  -16.9362   23.6226 C   0  0  1  0  0  0  0  0  0  0  0  0
    7.9392  -16.1913   24.7929 C   0  0  0  0  0  0  0  0  0  0  0  0
    7.0062  -15.2384   25.4305 C   0  0  0  0  0  0  0  0  0  0  0  0
    5.9676  -15.5274   26.3074 C   0  0  0  0  0  0  0  0  0  0  0  0
    5.3855  -14.3911   26.6625 N   0  0  0  0  0  0  0  0  0  0  0  0
    5.9834  -13.3364   26.0640 C   0  0  0  0  0  0  0  0  0  0  0  0
    5.6945  -11.9821   26.1504 C   0  0  0  0  0  0  0  0  0  0  0  0
    6.4900  -11.1396   25.4049 C   0  0  0  0  0  0  0  0  0  0  0  0
    7.5121  -11.6369   24.6224 C   0  0  0  0  0  0  0  0  0  0  0  0
    7.7794  -12.9845   24.5533 C   0  0  0  0  0  0  0  0  0  0  0  0
    6.9979  -13.8599   25.2918 C   0  0  0  0  0  0  0  0  0  0  0  0
    8.5368  -17.4793   22.8474 C   0  0  0  0  0  0  0  0  0  0  0  0
    8.9683  -18.6349   23.0869 O   0  0  0  0  0  0  0  0  0  0  0  0
   10.2232  -15.0531   20.0930 O   0  0  0  0  0  0  0  0  0  0  0  0
   10.5684  -16.3976   19.9222 C   0  0  0  0  0  0  0  0  0  0  0  0
   10.4603  -17.1183   21.2674 C   0  0  2  0  0  0  0  0  0  0  0  0
    9.1837  -16.7185   21.8372 N   0  0  0  0  0  0  0  0  0  0  0  0
   11.5645  -16.6442   22.1404 C   0  0  0  0  0  0  0  0  0  0  0  0
   12.1490  -15.5632   21.8815 O   0  0  0  0  0  0  0  0  0  0  0  0
    9.5133  -15.6395   29.4006 O   0  0  0  0  0  0  0  0  0  0  0  0
   10.2432  -15.5888   28.2208 C   0  0  0  0  0  0  0  0  0  0  0  0
   11.6030  -15.3742   28.2767 C   0  0  0  0  0  0  0  0  0  0  0  0
   12.3198  -15.3263   27.0866 C   0  0  0  0  0  0  0  0  0  0  0  0
   11.7084  -15.4870   25.8603 C   0  0  0  0  0  0  0  0  0  0  0  0
   12.5332  -15.4086   24.6380 C   0  0  0  0  0  0  0  0  0  0  0  0
   12.9546  -16.7793   24.2118 C   0  0  2  0  0  0  0  0  0  0  0  0
   12.0023  -17.3678   23.2782 N   0  0  0  0  0  0  0  0  0  0  0  0
   13.1546  -17.7283   25.3207 C   0  0  0  0  0  0  0  0  0  0  0  0
   14.0077  -17.4526   26.2246 O   0  0  0  0  0  0  0  0  0  0  0  0
   10.3479  -15.6995   25.8406 C   0  0  0  0  0  0  0  0  0  0  0  0
    9.6124  -15.7517   27.0072 C   0  0  0  0  0  0  0  0  0  0  0  0
   12.4900  -18.9254   25.4886 O   0  0  0  0  0  0  0  0  0  0  0  0
  2  1  1  1
  2 13  1  0
  2  3  1  0
  4  5  2  0
  4  3  1  0
  6  5  1  0
  7 12  2  0
  7  6  1  0
  8  7  1  0
  9 10  1  0
  9  8  2  0
 10 11  2  0
 11 12  1  0
 12  4  1  0
 13 14  2  0
 16 15  1  0
 17 16  1  6
 18 17  1  0
 18 13  1  0
 19 20  2  0
 19 17  1  0
 21 22  1  0
 22 23  2  0
 23 24  1  0
 25 26  1  0
 25 24  2  0
 27 26  1  1
 27 28  1  0
 28 19  1  0
 29 27  1  0
 29 33  1  0
 30 29  2  0
 31 25  1  0
 32 31  2  0
 32 22  1  0
M  END
$$$$
