WSY.pdb
     RDKit          3D

 33 35  0  0  1  0  0  0  0  0999 V2000
    6.9130  -17.6666   23.8276 N   0  0  0  0  0  0  0  0  0  0  0  0
    8.0682  -16.8458   23.8507 C   0  0  1  0  0  0  0  0  0  0  0  0
    8.3161  -16.0853   25.1219 C   0  0  0  0  0  0  0  0  0  0  0  0
    7.2596  -15.1110   25.4681 C   0  0  0  0  0  0  0  0  0  0  0  0
    6.0376  -15.3673   26.0782 C   0  0  0  0  0  0  0  0  0  0  0  0
    5.3910  -14.2203   26.2276 N   0  0  0  0  0  0  0  0  0  0  0  0
    6.1207  -13.1897   25.7443 C   0  0  0  0  0  0  0  0  0  0  0  0
    5.8246  -11.8351   25.6945 C   0  0  0  0  0  0  0  0  0  0  0  0
    6.7810  -11.0219   25.1267 C   0  0  0  0  0  0  0  0  0  0  0  0
    7.9610  -11.5469   24.6406 C   0  0  0  0  0  0  0  0  0  0  0  0
    8.2319  -12.8942   24.7014 C   0  0  0  0  0  0  0  0  0  0  0  0
    7.2907  -13.7405   25.2674 C   0  0  0  0  0  0  0  0  0  0  0  0
    9.3235  -17.6339   23.5765 C   0  0  0  0  0  0  0  0  0  0  0  0
    9.4691  -18.7783   24.0745 O   0  0  0  0  0  0  0  0  0  0  0  0
   12.1500  -15.6290   21.5767 O   0  0  0  0  0  0  0  0  0  0  0  0
   12.4938  -16.9798   21.6911 C   0  0  0  0  0  0  0  0  0  0  0  0
   11.7378  -17.5917   22.8721 C   0  0  2  0  0  0  0  0  0  0  0  0
   10.3667  -17.1207   22.7603 N   0  0  0  0  0  0  0  0  0  0  0  0
   12.3394  -17.0763   24.1285 C   0  0  0  0  0  0  0  0  0  0  0  0
   13.4301  -16.4546   24.0928 O   0  0  0  0  0  0  0  0  0  0  0  0
    7.4819  -13.7506   27.2316 O   0  0  0  0  0  0  0  0  0  0  0  0
    8.6964  -14.4191   27.3055 C   0  0  0  0  0  0  0  0  0  0  0  0
    9.2383  -14.7005   28.5405 C   0  0  0  0  0  0  0  0  0  0  0  0
   10.4549  -15.3706   28.5977 C   0  0  0  0  0  0  0  0  0  0  0  0
   11.1282  -15.7578   27.4575 C   0  0  0  0  0  0  0  0  0  0  0  0
   12.4236  -16.4529   27.5971 C   0  0  0  0  0  0  0  0  0  0  0  0
   12.5382  -17.5396   26.5753 C   0  0  2  0  0  0  0  0  0  0  0  0
   11.7301  -17.2550   25.3960 N   0  0  0  0  0  0  0  0  0  0  0  0
   12.1744  -18.8798   27.0669 C   0  0  0  0  0  0  0  0  0  0  0  0
   12.8051  -19.3667   28.0599 O   0  0  0  0  0  0  0  0  0  0  0  0
   10.5584  -15.4606   26.2394 C   0  0  0  0  0  0  0  0  0  0  0  0
    9.3517  -14.7965   26.1542 C   0  0  0  0  0  0  0  0  0  0  0  0
   11.1865  -19.6899   26.5467 O   0  0  0  0  0  0  0  0  0  0  0  0
  2  1  1  1
  2 13  1  0
  2  3  1  0
  4  5  2  0
  4  3  1  0
  6  5  1  0
  7 12  2  0
  7  6  1  0
  8  7  1  0
  9 10  1  0
  9  8  2  0
 10 11  2  0
 11 12  1  0
 12  4  1  0
 13 14  2  0
 16 15  1  0
 17 16  1  6
 18 17  1  0
 18 13  1  0
 19 20  2  0
 19 17  1  0
 21 22  1  0
 22 23  2  0
 23 24  1  0
 25 26  1  0
 25 24  2  0
 27 26  1  1
 27 28  1  0
 28 19  1  0
 29 27  1  0
 29 33  1  0
 30 29  2  0
 31 25  1  0
 32 31  2  0
 32 22  1  0
M  END
$$$$
