MIG.pdb
     RDKit          3D

 21 20  0  0  1  0  0  0  0  0999 V2000
   18.1599  -27.2645   -6.5416 C   0  0  0  0  0  0  0  0  0  0  0  0
   18.5542  -25.5279   -6.8662 S   0  0  0  0  0  0  0  0  0  0  0  0
   18.7175  -25.2326   -8.6333 C   0  0  0  0  0  0  0  0  0  0  0  0
   18.9605  -23.7934   -8.9657 C   0  0  0  0  0  0  0  0  0  0  0  0
   19.8266  -23.0530   -8.0029 C   0  0  2  0  0  0  0  0  0  0  0  0
   19.1092  -22.6829   -6.8130 N   0  0  0  0  0  0  0  0  0  0  0  0
   20.5811  -21.9435   -8.6118 C   0  0  0  0  0  0  0  0  0  0  0  0
   20.0880  -20.7700   -8.5511 O   0  0  0  0  0  0  0  0  0  0  0  0
   24.9322  -18.8273   -9.0092 C   0  0  0  0  0  0  0  0  0  0  0  0
   24.8180  -19.9182  -10.0606 C   0  0  0  0  0  0  0  0  0  0  0  0
   23.9205  -21.0284   -9.5967 C   0  0  2  0  0  0  0  0  0  0  0  0
   24.4726  -22.3941   -9.9314 C   0  0  0  0  0  0  0  0  0  0  0  0
   22.4682  -20.8602   -9.8899 C   0  0  2  0  0  0  0  0  0  0  0  0
   21.8246  -22.0449   -9.2731 N   0  0  0  0  0  0  0  0  0  0  0  0
   22.0912  -20.8401  -11.3059 C   0  0  0  0  0  0  0  0  0  0  0  0
   21.8810  -21.9448  -11.8917 O   0  0  0  0  0  0  0  0  0  0  0  0
   21.9365  -19.6802  -12.0888 N   0  0  0  0  0  0  0  0  0  0  0  0
   21.6230  -19.8185  -13.4928 C   0  0  0  0  0  0  0  0  0  0  0  0
   22.8059  -19.5834  -14.3546 C   0  0  0  0  0  0  0  0  0  0  0  0
   22.5741  -19.2889  -15.6903 O   0  0  0  0  0  0  0  0  0  0  0  0
   23.9917  -19.6347  -13.9509 O   0  0  0  0  0  0  0  0  0  0  0  0
  2  1  1  0
  3  2  1  0
  4  3  1  0
  5  4  1  0
  5  6  1  1
  7  5  1  0
  7 14  1  0
  8  7  2  0
  9 10  1  0
 11 10  1  0
 11 12  1  6
 13 15  1  0
 13 14  1  1
 13 11  1  0
 15 16  2  0
 17 18  1  0
 17 15  1  0
 19 18  1  0
 20 19  1  0
 21 19  2  0
M  END
$$$$
