MIG.pdb
     RDKit          3D

 21 20  0  0  1  0  0  0  0  0999 V2000
   15.7473   -9.3966  -20.5337 C   0  0  0  0  0  0  0  0  0  0  0  0
   17.1040  -10.3899  -21.2040 S   0  0  0  0  0  0  0  0  0  0  0  0
   18.0954  -11.0906  -19.8762 C   0  0  0  0  0  0  0  0  0  0  0  0
   18.2645  -10.1576  -18.7179 C   0  0  0  0  0  0  0  0  0  0  0  0
   19.3864  -10.4868  -17.7914 C   0  0  2  0  0  0  0  0  0  0  0  0
   19.3626  -11.8677  -17.3913 N   0  0  0  0  0  0  0  0  0  0  0  0
   19.5269   -9.5444  -16.6675 C   0  0  0  0  0  0  0  0  0  0  0  0
   18.7291   -9.6553  -15.6801 O   0  0  0  0  0  0  0  0  0  0  0  0
   22.2094   -9.6512  -13.5382 C   0  0  0  0  0  0  0  0  0  0  0  0
   22.6515   -8.9891  -14.8324 C   0  0  0  0  0  0  0  0  0  0  0  0
   22.0078   -7.6437  -15.0021 C   0  0  2  0  0  0  0  0  0  0  0  0
   22.3768   -6.6842  -13.8953 C   0  0  0  0  0  0  0  0  0  0  0  0
   20.5591   -7.6523  -15.3549 C   0  0  2  0  0  0  0  0  0  0  0  0
   20.4760   -8.5038  -16.5657 N   0  0  0  0  0  0  0  0  0  0  0  0
   19.9652   -6.3542  -15.6865 C   0  0  0  0  0  0  0  0  0  0  0  0
   20.5257   -5.6413  -16.5727 O   0  0  0  0  0  0  0  0  0  0  0  0
   18.8037   -5.8184  -15.0984 N   0  0  0  0  0  0  0  0  0  0  0  0
   18.3642   -4.4986  -15.4902 C   0  0  0  0  0  0  0  0  0  0  0  0
   19.1087   -3.4295  -14.7829 C   0  0  0  0  0  0  0  0  0  0  0  0
   18.7543   -2.1166  -15.0567 O   0  0  0  0  0  0  0  0  0  0  0  0
   20.0307   -3.6407  -13.9600 O   0  0  0  0  0  0  0  0  0  0  0  0
  2  1  1  0
  3  2  1  0
  4  3  1  0
  5  4  1  0
  5  6  1  1
  7  5  1  0
  7 14  1  0
  8  7  2  0
  9 10  1  0
 11 10  1  0
 11 12  1  1
 13 15  1  0
 13 14  1  6
 13 11  1  0
 15 16  2  0
 17 18  1  0
 17 15  1  0
 19 18  1  0
 20 19  1  0
 21 19  2  0
M  END
$$$$
