MIG.pdb
     RDKit          3D

 21 20  0  0  1  0  0  0  0  0999 V2000
   25.6223  -16.8921  -15.8099 C   0  0  0  0  0  0  0  0  0  0  0  0
   27.3935  -16.7217  -15.4771 S   0  0  0  0  0  0  0  0  0  0  0  0
   28.0814  -18.2749  -14.8847 C   0  0  0  0  0  0  0  0  0  0  0  0
   27.1875  -18.9765  -13.9103 C   0  0  0  0  0  0  0  0  0  0  0  0
   27.7275  -20.2493  -13.3503 C   0  0  2  0  0  0  0  0  0  0  0  0
   28.1248  -21.1638  -14.3863 N   0  0  0  0  0  0  0  0  0  0  0  0
   26.8702  -20.8568  -12.3174 C   0  0  0  0  0  0  0  0  0  0  0  0
   26.4056  -22.0249  -12.5255 O   0  0  0  0  0  0  0  0  0  0  0  0
   27.5340  -19.6464   -7.0488 C   0  0  0  0  0  0  0  0  0  0  0  0
   27.3111  -20.4887   -8.2935 C   0  0  0  0  0  0  0  0  0  0  0  0
   25.9116  -20.3312   -8.8131 C   0  0  2  0  0  0  0  0  0  0  0  0
   24.8697  -20.5855   -7.7494 C   0  0  0  0  0  0  0  0  0  0  0  0
   25.6253  -20.9782  -10.1256 C   0  0  2  0  0  0  0  0  0  0  0  0
   26.4986  -20.2667  -11.0895 N   0  0  0  0  0  0  0  0  0  0  0  0
   24.2480  -20.8701  -10.6145 C   0  0  0  0  0  0  0  0  0  0  0  0
   23.3284  -21.4547   -9.9663 O   0  0  0  0  0  0  0  0  0  0  0  0
   23.8467  -20.1593  -11.7616 N   0  0  0  0  0  0  0  0  0  0  0  0
   22.4366  -19.9520  -12.0005 C   0  0  0  0  0  0  0  0  0  0  0  0
   21.8899  -20.9152  -12.9857 C   0  0  0  0  0  0  0  0  0  0  0  0
   20.5702  -20.7465  -13.3786 O   0  0  0  0  0  0  0  0  0  0  0  0
   22.5441  -21.8639  -13.4796 O   0  0  0  0  0  0  0  0  0  0  0  0
  2  1  1  0
  3  2  1  0
  4  3  1  0
  5  4  1  0
  5  6  1  6
  7  5  1  0
  7 14  1  0
  8  7  2  0
  9 10  1  0
 11 10  1  0
 11 12  1  1
 13 15  1  0
 13 14  1  6
 13 11  1  0
 15 16  2  0
 17 18  1  0
 17 15  1  0
 19 18  1  0
 20 19  1  0
 21 19  2  0
M  END
$$$$
