MIG.pdb
     RDKit          3D

 21 20  0  0  1  0  0  0  0  0999 V2000
   25.0606  -26.1820  -19.1394 C   0  0  0  0  0  0  0  0  0  0  0  0
   23.4799  -26.3405  -18.2715 S   0  0  0  0  0  0  0  0  0  0  0  0
   23.4658  -25.3259  -16.7858 C   0  0  0  0  0  0  0  0  0  0  0  0
   24.4021  -24.1606  -16.8646 C   0  0  0  0  0  0  0  0  0  0  0  0
   25.4437  -24.1051  -15.7981 C   0  0  2  0  0  0  0  0  0  0  0  0
   26.1330  -25.3591  -15.6573 N   0  0  0  0  0  0  0  0  0  0  0  0
   24.9617  -23.5450  -14.5233 C   0  0  0  0  0  0  0  0  0  0  0  0
   24.3470  -24.3162  -13.7163 O   0  0  0  0  0  0  0  0  0  0  0  0
   25.6554  -21.2339   -9.8410 C   0  0  0  0  0  0  0  0  0  0  0  0
   25.3851  -20.2048  -10.9256 C   0  0  0  0  0  0  0  0  0  0  0  0
   25.6195  -20.7807  -12.2919 C   0  0  2  0  0  0  0  0  0  0  0  0
   25.9891  -19.7248  -13.3070 C   0  0  0  0  0  0  0  0  0  0  0  0
   24.6078  -21.7675  -12.7673 C   0  0  2  0  0  0  0  0  0  0  0  0
   25.1121  -22.2097  -14.0895 N   0  0  0  0  0  0  0  0  0  0  0  0
   23.2474  -21.2583  -12.9614 C   0  0  0  0  0  0  0  0  0  0  0  0
   22.6077  -20.8406  -11.9495 O   0  0  0  0  0  0  0  0  0  0  0  0
   22.5747  -21.1885  -14.1963 N   0  0  0  0  0  0  0  0  0  0  0  0
   21.2819  -20.5452  -14.2551 C   0  0  0  0  0  0  0  0  0  0  0  0
   21.2751  -19.3900  -15.1840 C   0  0  0  0  0  0  0  0  0  0  0  0
   20.0405  -18.8938  -15.5763 O   0  0  0  0  0  0  0  0  0  0  0  0
   22.3096  -18.8409  -15.6312 O   0  0  0  0  0  0  0  0  0  0  0  0
  2  1  1  0
  3  2  1  0
  4  3  1  0
  5  4  1  0
  5  6  1  1
  7  5  1  0
  7 14  1  0
  8  7  2  0
  9 10  1  0
 11 10  1  0
 11 12  1  6
 13 15  1  0
 13 14  1  6
 13 11  1  0
 15 16  2  0
 17 18  1  0
 17 15  1  0
 19 18  1  0
 20 19  1  0
 21 19  2  0
M  END
$$$$
