MIG.pdb
     RDKit          3D

 21 20  0  0  1  0  0  0  0  0999 V2000
   22.2050  -22.6669  -18.5739 C   0  0  0  0  0  0  0  0  0  0  0  0
   20.5380  -22.0200  -18.2921 S   0  0  0  0  0  0  0  0  0  0  0  0
   20.5760  -20.6511  -17.1254 C   0  0  0  0  0  0  0  0  0  0  0  0
   21.8938  -20.5127  -16.4290 C   0  0  0  0  0  0  0  0  0  0  0  0
   21.9674  -19.4239  -15.4120 C   0  0  2  0  0  0  0  0  0  0  0  0
   21.5661  -18.1550  -15.9564 N   0  0  0  0  0  0  0  0  0  0  0  0
   23.2446  -19.3791  -14.6785 C   0  0  0  0  0  0  0  0  0  0  0  0
   24.0609  -18.4363  -14.9399 O   0  0  0  0  0  0  0  0  0  0  0  0
   25.6907  -20.6154   -9.3132 C   0  0  0  0  0  0  0  0  0  0  0  0
   26.0423  -20.4569  -10.7828 C   0  0  0  0  0  0  0  0  0  0  0  0
   24.8095  -20.4523  -11.6393 C   0  0  2  0  0  0  0  0  0  0  0  0
   23.8879  -21.6084  -11.3295 C   0  0  0  0  0  0  0  0  0  0  0  0
   25.0256  -20.2072  -13.0941 C   0  0  2  0  0  0  0  0  0  0  0  0
   23.6714  -20.2940  -13.6912 N   0  0  0  0  0  0  0  0  0  0  0  0
   25.8793  -21.1713  -13.7938 C   0  0  0  0  0  0  0  0  0  0  0  0
   25.4084  -22.3197  -14.0529 O   0  0  0  0  0  0  0  0  0  0  0  0
   27.2013  -20.9305  -14.2140 N   0  0  0  0  0  0  0  0  0  0  0  0
   27.9379  -21.9953  -14.8561 C   0  0  0  0  0  0  0  0  0  0  0  0
   27.7463  -21.9989  -16.3260 C   0  0  0  0  0  0  0  0  0  0  0  0
   28.6081  -22.7821  -17.0800 O   0  0  0  0  0  0  0  0  0  0  0  0
   26.8599  -21.3421  -16.9215 O   0  0  0  0  0  0  0  0  0  0  0  0
  2  1  1  0
  3  2  1  0
  4  3  1  0
  5  4  1  0
  5  6  1  6
  7  5  1  0
  7 14  1  0
  8  7  2  0
  9 10  1  0
 11 10  1  0
 11 12  1  6
 13 15  1  0
 13 14  1  6
 13 11  1  0
 15 16  2  0
 17 18  1  0
 17 15  1  0
 19 18  1  0
 20 19  1  0
 21 19  2  0
M  END
$$$$
