MIG.pdb
     RDKit          3D

 21 20  0  0  1  0  0  0  0  0999 V2000
   13.7878  -13.6075    8.9367 C   0  0  0  0  0  0  0  0  0  0  0  0
   12.9646  -13.0468    7.4252 S   0  0  0  0  0  0  0  0  0  0  0  0
   14.1465  -12.2859    6.3024 C   0  0  0  0  0  0  0  0  0  0  0  0
   15.5336  -12.8265    6.4592 C   0  0  0  0  0  0  0  0  0  0  0  0
   16.5647  -12.2044    5.5788 C   0  0  2  0  0  0  0  0  0  0  0  0
   16.3137  -12.4722    4.1885 N   0  0  0  0  0  0  0  0  0  0  0  0
   17.9503  -12.4807    5.9969 C   0  0  0  0  0  0  0  0  0  0  0  0
   18.5892  -13.4091    5.4021 O   0  0  0  0  0  0  0  0  0  0  0  0
   22.6607   -9.3849    8.2375 C   0  0  0  0  0  0  0  0  0  0  0  0
   22.1644  -10.7828    7.9089 C   0  0  0  0  0  0  0  0  0  0  0  0
   20.6933  -10.7811    7.6102 C   0  0  2  0  0  0  0  0  0  0  0  0
   19.9029   -9.9699    8.6098 C   0  0  0  0  0  0  0  0  0  0  0  0
   20.0930  -12.1044    7.2757 C   0  0  2  0  0  0  0  0  0  0  0  0
   18.6640  -11.8091    7.0135 N   0  0  0  0  0  0  0  0  0  0  0  0
   20.1474  -13.1247    8.3263 C   0  0  0  0  0  0  0  0  0  0  0  0
   19.3235  -13.0482    9.2870 O   0  0  0  0  0  0  0  0  0  0  0  0
   21.0497  -14.2048    8.3636 N   0  0  0  0  0  0  0  0  0  0  0  0
   20.9855  -15.1342    9.4685 C   0  0  0  0  0  0  0  0  0  0  0  0
   21.9472  -14.7911   10.5431 C   0  0  0  0  0  0  0  0  0  0  0  0
   22.0468  -15.6672   11.6140 O   0  0  0  0  0  0  0  0  0  0  0  0
   22.6683  -13.7655   10.5406 O   0  0  0  0  0  0  0  0  0  0  0  0
  2  1  1  0
  3  2  1  0
  4  3  1  0
  5  4  1  0
  5  6  1  6
  7  5  1  0
  7 14  1  0
  8  7  2  0
  9 10  1  0
 11 10  1  0
 11 12  1  1
 13 15  1  0
 13 14  1  1
 13 11  1  0
 15 16  2  0
 17 18  1  0
 17 15  1  0
 19 18  1  0
 20 19  1  0
 21 19  2  0
M  END
$$$$
