MIG.pdb
     RDKit          3D

 21 20  0  0  1  0  0  0  0  0999 V2000
   26.1638  -24.2842  -20.5092 C   0  0  0  0  0  0  0  0  0  0  0  0
   27.4846  -23.0466  -20.5351 S   0  0  0  0  0  0  0  0  0  0  0  0
   27.0695  -21.6515  -19.4778 C   0  0  0  0  0  0  0  0  0  0  0  0
   26.5302  -22.0680  -18.1449 C   0  0  0  0  0  0  0  0  0  0  0  0
   27.4839  -21.9476  -17.0042 C   0  0  2  0  0  0  0  0  0  0  0  0
   28.6364  -22.7894  -17.1790 N   0  0  0  0  0  0  0  0  0  0  0  0
   26.8489  -22.0760  -15.6808 C   0  0  0  0  0  0  0  0  0  0  0  0
   26.6684  -23.2446  -15.2059 O   0  0  0  0  0  0  0  0  0  0  0  0
   28.4336  -21.5282  -11.6901 C   0  0  0  0  0  0  0  0  0  0  0  0
   27.9839  -20.3694  -12.5640 C   0  0  0  0  0  0  0  0  0  0  0  0
   26.4865  -20.2851  -12.6269 C   0  0  2  0  0  0  0  0  0  0  0  0
   25.8583  -20.1571  -11.2592 C   0  0  0  0  0  0  0  0  0  0  0  0
   25.8142  -21.2661  -13.5263 C   0  0  2  0  0  0  0  0  0  0  0  0
   26.4073  -21.0140  -14.8615 N   0  0  0  0  0  0  0  0  0  0  0  0
   24.3605  -21.1346  -13.6571 C   0  0  0  0  0  0  0  0  0  0  0  0
   23.8951  -20.0996  -14.2226 O   0  0  0  0  0  0  0  0  0  0  0  0
   23.4158  -22.0749  -13.2034 N   0  0  0  0  0  0  0  0  0  0  0  0
   22.0083  -21.7791  -13.3452 C   0  0  0  0  0  0  0  0  0  0  0  0
   21.4889  -20.9795  -12.2102 C   0  0  0  0  0  0  0  0  0  0  0  0
   20.1521  -20.6109  -12.2481 O   0  0  0  0  0  0  0  0  0  0  0  0
   22.1804  -20.6205  -11.2280 O   0  0  0  0  0  0  0  0  0  0  0  0
  2  1  1  0
  3  2  1  0
  4  3  1  0
  5  4  1  0
  5  6  1  6
  7  5  1  0
  7 14  1  0
  8  7  2  0
  9 10  1  0
 11 10  1  0
 11 12  1  1
 13 15  1  0
 13 14  1  6
 13 11  1  0
 15 16  2  0
 17 18  1  0
 17 15  1  0
 19 18  1  0
 20 19  1  0
 21 19  2  0
M  END
$$$$
