MIG.pdb
     RDKit          3D

 21 20  0  0  1  0  0  0  0  0999 V2000
   24.2352  -17.3280  -17.9009 C   0  0  0  0  0  0  0  0  0  0  0  0
   25.5340  -17.7891  -19.0744 S   0  0  0  0  0  0  0  0  0  0  0  0
   26.8989  -18.5983  -18.2265 C   0  0  0  0  0  0  0  0  0  0  0  0
   26.4529  -19.4429  -17.0739 C   0  0  0  0  0  0  0  0  0  0  0  0
   27.5472  -19.9735  -16.2100 C   0  0  2  0  0  0  0  0  0  0  0  0
   28.5306  -20.6931  -16.9733 N   0  0  0  0  0  0  0  0  0  0  0  0
   27.0683  -20.7005  -15.0213 C   0  0  0  0  0  0  0  0  0  0  0  0
   26.7596  -21.9305  -15.1466 O   0  0  0  0  0  0  0  0  0  0  0  0
   29.9422  -20.9209  -10.9262 C   0  0  0  0  0  0  0  0  0  0  0  0
   28.9214  -21.2249  -12.0098 C   0  0  0  0  0  0  0  0  0  0  0  0
   27.5338  -20.8626  -11.5663 C   0  0  2  0  0  0  0  0  0  0  0  0
   27.1909  -21.4419  -10.2141 C   0  0  0  0  0  0  0  0  0  0  0  0
   26.4610  -21.0097  -12.5915 C   0  0  2  0  0  0  0  0  0  0  0  0
   26.9104  -20.1653  -13.7241 N   0  0  0  0  0  0  0  0  0  0  0  0
   25.1250  -20.5507  -12.2016 C   0  0  0  0  0  0  0  0  0  0  0  0
   25.0238  -19.4687  -11.5484 O   0  0  0  0  0  0  0  0  0  0  0  0
   23.9196  -21.2165  -12.4952 N   0  0  0  0  0  0  0  0  0  0  0  0
   22.6714  -20.6301  -12.0631 C   0  0  0  0  0  0  0  0  0  0  0  0
   21.4984  -21.4034  -12.5356 C   0  0  0  0  0  0  0  0  0  0  0  0
   20.2407  -20.9257  -12.1973 O   0  0  0  0  0  0  0  0  0  0  0  0
   21.5758  -22.4535  -13.2162 O   0  0  0  0  0  0  0  0  0  0  0  0
  2  1  1  0
  3  2  1  0
  4  3  1  0
  5  4  1  0
  5  6  1  6
  7  5  1  0
  7 14  1  0
  8  7  2  0
  9 10  1  0
 11 10  1  0
 11 12  1  1
 13 15  1  0
 13 14  1  6
 13 11  1  0
 15 16  2  0
 17 18  1  0
 17 15  1  0
 19 18  1  0
 20 19  1  0
 21 19  2  0
M  END
$$$$
