MIG.pdb
     RDKit          3D

 21 20  0  0  1  0  0  0  0  0999 V2000
   29.6296  -19.0444   -4.7875 C   0  0  0  0  0  0  0  0  0  0  0  0
   27.9943  -19.1786   -4.0230 S   0  0  0  0  0  0  0  0  0  0  0  0
   26.9777  -20.3745   -4.9020 C   0  0  0  0  0  0  0  0  0  0  0  0
   26.4940  -19.8702   -6.2258 C   0  0  0  0  0  0  0  0  0  0  0  0
   27.0300  -20.5894   -7.4177 C   0  0  2  0  0  0  0  0  0  0  0  0
   28.4659  -20.6633   -7.3974 N   0  0  0  0  0  0  0  0  0  0  0  0
   26.4770  -20.1148   -8.6983 C   0  0  0  0  0  0  0  0  0  0  0  0
   26.5361  -18.8690   -8.9595 O   0  0  0  0  0  0  0  0  0  0  0  0
   28.8252  -21.4607  -11.2684 C   0  0  0  0  0  0  0  0  0  0  0  0
   27.9068  -20.3418  -11.7301 C   0  0  0  0  0  0  0  0  0  0  0  0
   26.5099  -20.8431  -11.9553 C   0  0  2  0  0  0  0  0  0  0  0  0
   26.1030  -20.7830  -13.4088 C   0  0  0  0  0  0  0  0  0  0  0  0
   25.4758  -20.3456  -11.0032 C   0  0  2  0  0  0  0  0  0  0  0  0
   25.8723  -20.9144   -9.6927 N   0  0  0  0  0  0  0  0  0  0  0  0
   24.0966  -20.7649  -11.2674 C   0  0  0  0  0  0  0  0  0  0  0  0
   23.7727  -21.9666  -11.0247 O   0  0  0  0  0  0  0  0  0  0  0  0
   23.0785  -19.9354  -11.7749 N   0  0  0  0  0  0  0  0  0  0  0  0
   21.7429  -20.4695  -11.9138 C   0  0  0  0  0  0  0  0  0  0  0  0
   21.5014  -21.0238  -13.2672 C   0  0  0  0  0  0  0  0  0  0  0  0
   20.2371  -20.8510  -13.8114 O   0  0  0  0  0  0  0  0  0  0  0  0
   22.3644  -21.6336  -13.9419 O   0  0  0  0  0  0  0  0  0  0  0  0
  2  1  1  0
  3  2  1  0
  4  3  1  0
  5  4  1  0
  5  6  1  6
  7  5  1  0
  7 14  1  0
  8  7  2  0
  9 10  1  0
 11 10  1  0
 11 12  1  6
 13 15  1  0
 13 14  1  1
 13 11  1  0
 15 16  2  0
 17 18  1  0
 17 15  1  0
 19 18  1  0
 20 19  1  0
 21 19  2  0
M  END
$$$$
