MIG.pdb
     RDKit          3D

 21 20  0  0  1  0  0  0  0  0999 V2000
   30.8000  -14.8251  -17.3779 C   0  0  0  0  0  0  0  0  0  0  0  0
   29.8452  -13.3965  -17.9472 S   0  0  0  0  0  0  0  0  0  0  0  0
   28.6998  -12.8486  -16.6727 C   0  0  0  0  0  0  0  0  0  0  0  0
   27.8496  -11.6956  -17.1069 C   0  0  0  0  0  0  0  0  0  0  0  0
   26.9059  -11.1742  -16.0760 C   0  0  2  0  0  0  0  0  0  0  0  0
   26.1476  -12.2302  -15.4616 N   0  0  0  0  0  0  0  0  0  0  0  0
   26.0830  -10.0431  -16.5393 C   0  0  0  0  0  0  0  0  0  0  0  0
   26.6606   -9.0799  -17.1412 O   0  0  0  0  0  0  0  0  0  0  0  0
   22.1230  -11.5019  -18.6601 C   0  0  0  0  0  0  0  0  0  0  0  0
   22.9870  -10.2550  -18.7453 C   0  0  0  0  0  0  0  0  0  0  0  0
   22.7417   -9.3429  -17.5786 C   0  0  2  0  0  0  0  0  0  0  0  0
   21.6273   -8.3576  -17.8413 C   0  0  0  0  0  0  0  0  0  0  0  0
   23.9550   -8.7494  -16.9469 C   0  0  2  0  0  0  0  0  0  0  0  0
   24.6860   -9.9093  -16.3828 N   0  0  0  0  0  0  0  0  0  0  0  0
   23.7189   -7.8024  -15.8537 C   0  0  0  0  0  0  0  0  0  0  0  0
   23.3241   -8.2542  -14.7366 O   0  0  0  0  0  0  0  0  0  0  0  0
   23.8966   -6.4081  -15.9342 N   0  0  0  0  0  0  0  0  0  0  0  0
   23.7474   -5.6119  -14.7374 C   0  0  0  0  0  0  0  0  0  0  0  0
   22.3447   -5.1826  -14.5239 C   0  0  0  0  0  0  0  0  0  0  0  0
   22.0734   -4.4283  -13.3917 O   0  0  0  0  0  0  0  0  0  0  0  0
   21.3989   -5.4588  -15.2990 O   0  0  0  0  0  0  0  0  0  0  0  0
  2  1  1  0
  3  2  1  0
  4  3  1  0
  5  4  1  0
  5  6  1  6
  7  5  1  0
  7 14  1  0
  8  7  2  0
  9 10  1  0
 11 10  1  0
 11 12  1  6
 13 15  1  0
 13 14  1  1
 13 11  1  0
 15 16  2  0
 17 18  1  0
 17 15  1  0
 19 18  1  0
 20 19  1  0
 21 19  2  0
M  END
$$$$
