QHY.pdb
     RDKit          3D

 32 33  0  0  1  0  0  0  0  0999 V2000
   27.6069  -26.6332  -16.5481 N   0  0  0  0  0  0  0  0  0  0  0  0
   28.8542  -27.2076  -17.0060 C   0  0  0  0  0  0  0  0  0  0  0  0
   28.8497  -28.4460  -17.1754 O   0  0  0  0  0  0  0  0  0  0  0  0
   29.9870  -26.3021  -17.2285 C   0  0  0  0  0  0  0  0  0  0  0  0
   29.7539  -24.8664  -16.9600 C   0  0  0  0  0  0  0  0  0  0  0  0
   29.1844  -24.1229  -18.1115 C   0  0  2  0  0  0  0  0  0  0  0  0
   30.1330  -23.6181  -19.0383 N   0  0  0  0  0  0  0  0  0  0  0  0
   28.3136  -22.9838  -17.6566 C   0  0  0  0  0  0  0  0  0  0  0  0
   28.7908  -21.8357  -17.4710 O   0  0  0  0  0  0  0  0  0  0  0  0
   26.9306  -23.1688  -17.4227 N   0  0  0  0  0  0  0  0  0  0  0  0
   26.0418  -22.1487  -16.9628 C   0  0  1  0  0  0  0  0  0  0  0  0
   24.7364  -22.1712  -17.7228 C   0  0  0  0  0  0  0  0  0  0  0  0
   24.7841  -21.4061  -18.9916 C   0  0  0  0  0  0  0  0  0  0  0  0
   25.8354  -20.6619  -19.5284 C   0  0  0  0  0  0  0  0  0  0  0  0
   25.4735  -20.1317  -20.6889 N   0  0  0  0  0  0  0  0  0  0  0  0
   24.1967  -20.5102  -20.9367 C   0  0  0  0  0  0  0  0  0  0  0  0
   23.7895  -21.2823  -19.9005 N   0  0  0  0  0  0  0  0  0  0  0  0
   25.7542  -22.2222  -15.5090 C   0  0  0  0  0  0  0  0  0  0  0  0
   25.3229  -23.3098  -15.0480 O   0  0  0  0  0  0  0  0  0  0  0  0
   25.1644  -20.4165   -6.8524 O   0  0  0  0  0  0  0  0  0  0  0  0
   25.4261  -20.3371   -8.2239 C   0  0  0  0  0  0  0  0  0  0  0  0
   26.6349  -20.7702   -8.7275 C   0  0  0  0  0  0  0  0  0  0  0  0
   26.9046  -20.6982  -10.0661 C   0  0  0  0  0  0  0  0  0  0  0  0
   25.9977  -20.1945  -10.9839 C   0  0  0  0  0  0  0  0  0  0  0  0
   26.2941  -20.1049  -12.4329 C   0  0  0  0  0  0  0  0  0  0  0  0
   25.6543  -21.2367  -13.1727 C   0  0  2  0  0  0  0  0  0  0  0  0
   25.9355  -21.1461  -14.6164 N   0  0  0  0  0  0  0  0  0  0  0  0
   24.1831  -21.2611  -13.0487 C   0  0  0  0  0  0  0  0  0  0  0  0
   23.5932  -22.1129  -12.3241 O   0  0  0  0  0  0  0  0  0  0  0  0
   24.7781  -19.7602  -10.4598 C   0  0  0  0  0  0  0  0  0  0  0  0
   24.5033  -19.8320   -9.1091 C   0  0  0  0  0  0  0  0  0  0  0  0
   23.3282  -20.3686  -13.7005 O   0  0  0  0  0  0  0  0  0  0  0  0
  1  2  1  0
  2  3  2  0
  4  5  1  0
  4  2  1  0
  6  7  1  6
  6  5  1  0
  8  6  1  0
  8  9  2  0
 10  8  1  0
 11 18  1  0
 11 10  1  0
 11 12  1  6
 13 14  2  0
 13 12  1  0
 15 14  1  0
 16 17  2  0
 16 15  1  0
 17 13  1  0
 18 19  2  0
 20 21  1  0
 21 22  2  0
 21 31  1  0
 22 23  1  0
 23 24  2  0
 24 25  1  0
 26 25  1  1
 26 28  1  0
 27 18  1  0
 27 26  1  0
 28 29  2  0
 28 32  1  0
 30 24  1  0
 31 30  2  0
M  END
$$$$
