QHY.pdb
     RDKit          3D

 32 33  0  0  1  0  0  0  0  0999 V2000
   24.8335  -16.2512  -21.7116 N   0  0  0  0  0  0  0  0  0  0  0  0
   25.6919  -16.9891  -22.6139 C   0  0  0  0  0  0  0  0  0  0  0  0
   26.5837  -16.3209  -23.1802 O   0  0  0  0  0  0  0  0  0  0  0  0
   25.4447  -18.4262  -22.7763 C   0  0  0  0  0  0  0  0  0  0  0  0
   24.3512  -19.0086  -21.9684 C   0  0  0  0  0  0  0  0  0  0  0  0
   24.6952  -19.1992  -20.5372 C   0  0  2  0  0  0  0  0  0  0  0  0
   25.8295  -20.0148  -20.2879 N   0  0  0  0  0  0  0  0  0  0  0  0
   23.5330  -19.7530  -19.7593 C   0  0  0  0  0  0  0  0  0  0  0  0
   22.9163  -20.7753  -20.1531 O   0  0  0  0  0  0  0  0  0  0  0  0
   23.0970  -19.1408  -18.5607 N   0  0  0  0  0  0  0  0  0  0  0  0
   22.0130  -19.6109  -17.7570 C   0  0  1  0  0  0  0  0  0  0  0  0
   22.4591  -19.8972  -16.3424 C   0  0  0  0  0  0  0  0  0  0  0  0
   21.4252  -20.5805  -15.5291 C   0  0  0  0  0  0  0  0  0  0  0  0
   20.9947  -21.9064  -15.5913 C   0  0  0  0  0  0  0  0  0  0  0  0
   20.0499  -22.1225  -14.6860 N   0  0  0  0  0  0  0  0  0  0  0  0
   19.8423  -20.9619  -14.0191 C   0  0  0  0  0  0  0  0  0  0  0  0
   20.6816  -20.0342  -14.5395 N   0  0  0  0  0  0  0  0  0  0  0  0
   20.8556  -18.6831  -17.7187 C   0  0  0  0  0  0  0  0  0  0  0  0
   21.0809  -17.4698  -17.4767 O   0  0  0  0  0  0  0  0  0  0  0  0
   20.7550  -15.2939  -23.0668 O   0  0  0  0  0  0  0  0  0  0  0  0
   20.0024  -15.9991  -22.1222 C   0  0  0  0  0  0  0  0  0  0  0  0
   18.9737  -15.3760  -21.4470 C   0  0  0  0  0  0  0  0  0  0  0  0
   18.2299  -16.0531  -20.5207 C   0  0  0  0  0  0  0  0  0  0  0  0
   18.4586  -17.3828  -20.2074 C   0  0  0  0  0  0  0  0  0  0  0  0
   17.6608  -18.1135  -19.1949 C   0  0  0  0  0  0  0  0  0  0  0  0
   18.3800  -18.1506  -17.8838 C   0  0  2  0  0  0  0  0  0  0  0  0
   19.5210  -19.0816  -17.9369 N   0  0  0  0  0  0  0  0  0  0  0  0
   17.5347  -18.6113  -16.7641 C   0  0  0  0  0  0  0  0  0  0  0  0
   17.8762  -19.5846  -16.0329 O   0  0  0  0  0  0  0  0  0  0  0  0
   19.5028  -18.0006  -20.8992 C   0  0  0  0  0  0  0  0  0  0  0  0
   20.2551  -17.3197  -21.8348 C   0  0  0  0  0  0  0  0  0  0  0  0
   16.3129  -18.0299  -16.4157 O   0  0  0  0  0  0  0  0  0  0  0  0
  1  2  1  0
  2  3  2  0
  4  5  1  0
  4  2  1  0
  6  7  1  6
  6  5  1  0
  8  6  1  0
  8  9  2  0
 10  8  1  0
 11 18  1  0
 11 10  1  0
 11 12  1  1
 13 14  2  0
 13 12  1  0
 15 14  1  0
 16 17  2  0
 16 15  1  0
 17 13  1  0
 18 19  2  0
 20 21  1  0
 21 22  2  0
 21 31  1  0
 22 23  1  0
 23 24  2  0
 24 25  1  0
 26 25  1  6
 26 28  1  0
 27 18  1  0
 27 26  1  0
 28 29  2  0
 28 32  1  0
 30 24  1  0
 31 30  2  0
M  END
$$$$
