QHY.pdb
     RDKit          3D

 32 33  0  0  1  0  0  0  0  0999 V2000
   20.4795  -22.1865  -16.3373 N   0  0  0  0  0  0  0  0  0  0  0  0
   20.5254  -23.0767  -15.1967 C   0  0  0  0  0  0  0  0  0  0  0  0
   19.5532  -23.0046  -14.4144 O   0  0  0  0  0  0  0  0  0  0  0  0
   21.6839  -23.9676  -15.0666 C   0  0  0  0  0  0  0  0  0  0  0  0
   22.6862  -23.9187  -16.1531 C   0  0  0  0  0  0  0  0  0  0  0  0
   23.6817  -22.8277  -16.0059 C   0  0  2  0  0  0  0  0  0  0  0  0
   23.2627  -21.5551  -16.4735 N   0  0  0  0  0  0  0  0  0  0  0  0
   24.9831  -23.1740  -16.6761 C   0  0  0  0  0  0  0  0  0  0  0  0
   25.0228  -23.4929  -17.8914 O   0  0  0  0  0  0  0  0  0  0  0  0
   26.2030  -23.1524  -15.9598 N   0  0  0  0  0  0  0  0  0  0  0  0
   27.4852  -23.4164  -16.5327 C   0  0  1  0  0  0  0  0  0  0  0  0
   28.5188  -22.4255  -16.0513 C   0  0  0  0  0  0  0  0  0  0  0  0
   28.3422  -21.0698  -16.6245 C   0  0  0  0  0  0  0  0  0  0  0  0
   27.4133  -20.6307  -17.5688 C   0  0  0  0  0  0  0  0  0  0  0  0
   27.5867  -19.3388  -17.8131 N   0  0  0  0  0  0  0  0  0  0  0  0
   28.6167  -18.9071  -17.0466 C   0  0  0  0  0  0  0  0  0  0  0  0
   29.0668  -19.9657  -16.3306 N   0  0  0  0  0  0  0  0  0  0  0  0
   27.9794  -24.7916  -16.2751 C   0  0  0  0  0  0  0  0  0  0  0  0
   27.8675  -25.2491  -15.1090 O   0  0  0  0  0  0  0  0  0  0  0  0
   30.2610  -33.2544  -17.0890 O   0  0  0  0  0  0  0  0  0  0  0  0
   29.7372  -31.9628  -17.2056 C   0  0  0  0  0  0  0  0  0  0  0  0
   29.0233  -31.4053  -16.1655 C   0  0  0  0  0  0  0  0  0  0  0  0
   28.5052  -30.1439  -16.2657 C   0  0  0  0  0  0  0  0  0  0  0  0
   28.6614  -29.3608  -17.3976 C   0  0  0  0  0  0  0  0  0  0  0  0
   28.0898  -27.9986  -17.5114 C   0  0  0  0  0  0  0  0  0  0  0  0
   29.0509  -26.9784  -16.9886 C   0  0  2  0  0  0  0  0  0  0  0  0
   28.5662  -25.6133  -17.2589 N   0  0  0  0  0  0  0  0  0  0  0  0
   30.3889  -27.0619  -17.6077 C   0  0  0  0  0  0  0  0  0  0  0  0
   31.2905  -27.8135  -17.1382 O   0  0  0  0  0  0  0  0  0  0  0  0
   29.3867  -29.9381  -18.4422 C   0  0  0  0  0  0  0  0  0  0  0  0
   29.9109  -31.2110  -18.3436 C   0  0  0  0  0  0  0  0  0  0  0  0
   30.7730  -26.3398  -18.7405 O   0  0  0  0  0  0  0  0  0  0  0  0
  1  2  1  0
  2  3  2  0
  4  5  1  0
  4  2  1  0
  6  7  1  6
  6  5  1  0
  8  6  1  0
  8  9  2  0
 10  8  1  0
 11 18  1  0
 11 10  1  0
 11 12  1  1
 13 14  2  0
 13 12  1  0
 15 14  1  0
 16 17  2  0
 16 15  1  0
 17 13  1  0
 18 19  2  0
 20 21  1  0
 21 22  2  0
 21 31  1  0
 22 23  1  0
 23 24  2  0
 24 25  1  0
 26 25  1  6
 26 28  1  0
 27 18  1  0
 27 26  1  0
 28 29  2  0
 28 32  1  0
 30 24  1  0
 31 30  2  0
M  END
$$$$
