QHY.pdb
     RDKit          3D

 32 33  0  0  1  0  0  0  0  0999 V2000
   26.2314  -12.2731  -20.6817 N   0  0  0  0  0  0  0  0  0  0  0  0
   26.8164  -11.6921  -21.8715 C   0  0  0  0  0  0  0  0  0  0  0  0
   27.8433  -12.2598  -22.3023 O   0  0  0  0  0  0  0  0  0  0  0  0
   26.1622  -10.5154  -22.4546 C   0  0  0  0  0  0  0  0  0  0  0  0
   26.3305   -9.2350  -21.7335 C   0  0  0  0  0  0  0  0  0  0  0  0
   25.0729   -8.4625  -21.5758 C   0  0  2  0  0  0  0  0  0  0  0  0
   24.9168   -7.3671  -22.4644 N   0  0  0  0  0  0  0  0  0  0  0  0
   24.9079   -7.9583  -20.1682 C   0  0  0  0  0  0  0  0  0  0  0  0
   24.9821   -8.7393  -19.1859 O   0  0  0  0  0  0  0  0  0  0  0  0
   24.6634   -6.5898  -19.9056 N   0  0  0  0  0  0  0  0  0  0  0  0
   24.4809   -6.0336  -18.6020 C   0  0  1  0  0  0  0  0  0  0  0  0
   24.6207   -4.5296  -18.6197 C   0  0  0  0  0  0  0  0  0  0  0  0
   26.0184   -4.0734  -18.8093 C   0  0  0  0  0  0  0  0  0  0  0  0
   27.1831   -4.8347  -18.9147 C   0  0  0  0  0  0  0  0  0  0  0  0
   28.2332   -4.0419  -19.0814 N   0  0  0  0  0  0  0  0  0  0  0  0
   27.7887   -2.7624  -19.0896 C   0  0  0  0  0  0  0  0  0  0  0  0
   26.4443   -2.7943  -18.9234 N   0  0  0  0  0  0  0  0  0  0  0  0
   23.1813   -6.3895  -17.9807 C   0  0  0  0  0  0  0  0  0  0  0  0
   22.1473   -6.3125  -18.6924 O   0  0  0  0  0  0  0  0  0  0  0  0
   16.7628   -9.6960  -12.9693 O   0  0  0  0  0  0  0  0  0  0  0  0
   18.0042   -9.3850  -13.5333 C   0  0  0  0  0  0  0  0  0  0  0  0
   18.9863   -8.7906  -12.7686 C   0  0  0  0  0  0  0  0  0  0  0  0
   20.2044   -8.4806  -13.3069 C   0  0  0  0  0  0  0  0  0  0  0  0
   20.5231   -8.7388  -14.6299 C   0  0  0  0  0  0  0  0  0  0  0  0
   21.8386   -8.3920  -15.2169 C   0  0  0  0  0  0  0  0  0  0  0  0
   21.7383   -7.1430  -16.0340 C   0  0  2  0  0  0  0  0  0  0  0  0
   23.0381   -6.8074  -16.6419 N   0  0  0  0  0  0  0  0  0  0  0  0
   21.3425   -5.9578  -15.2472 C   0  0  0  0  0  0  0  0  0  0  0  0
   22.1818   -5.3078  -14.5605 O   0  0  0  0  0  0  0  0  0  0  0  0
   19.5194   -9.3411  -15.3918 C   0  0  0  0  0  0  0  0  0  0  0  0
   18.2891   -9.6552  -14.8510 C   0  0  0  0  0  0  0  0  0  0  0  0
   20.0398   -5.4557  -15.1909 O   0  0  0  0  0  0  0  0  0  0  0  0
  1  2  1  0
  2  3  2  0
  4  5  1  0
  4  2  1  0
  6  7  1  6
  6  5  1  0
  8  6  1  0
  8  9  2  0
 10  8  1  0
 11 18  1  0
 11 10  1  0
 11 12  1  6
 13 14  2  0
 13 12  1  0
 15 14  1  0
 16 17  2  0
 16 15  1  0
 17 13  1  0
 18 19  2  0
 20 21  1  0
 21 22  2  0
 21 31  1  0
 22 23  1  0
 23 24  2  0
 24 25  1  0
 26 25  1  1
 26 28  1  0
 27 18  1  0
 27 26  1  0
 28 29  2  0
 28 32  1  0
 30 24  1  0
 31 30  2  0
M  END
$$$$
