QHY.pdb
     RDKit          3D

 32 33  0  0  1  0  0  0  0  0999 V2000
   17.6147  -15.3670  -14.1777 N   0  0  0  0  0  0  0  0  0  0  0  0
   16.6904  -15.1751  -15.2750 C   0  0  0  0  0  0  0  0  0  0  0  0
   15.5407  -15.6335  -15.1007 O   0  0  0  0  0  0  0  0  0  0  0  0
   17.1759  -14.4711  -16.4673 C   0  0  0  0  0  0  0  0  0  0  0  0
   18.6125  -14.1204  -16.4940 C   0  0  0  0  0  0  0  0  0  0  0  0
   18.9056  -12.7440  -16.0223 C   0  0  2  0  0  0  0  0  0  0  0  0
   17.7841  -12.0088  -15.5577 N   0  0  0  0  0  0  0  0  0  0  0  0
   19.5978  -11.9327  -17.0831 C   0  0  0  0  0  0  0  0  0  0  0  0
   20.6231  -12.3669  -17.6666 O   0  0  0  0  0  0  0  0  0  0  0  0
   19.1171  -10.6558  -17.4572 N   0  0  0  0  0  0  0  0  0  0  0  0
   19.7497   -9.7971  -18.4082 C   0  0  1  0  0  0  0  0  0  0  0  0
   19.0362   -9.8281  -19.7393 C   0  0  0  0  0  0  0  0  0  0  0  0
   19.7224   -9.0394  -20.7903 C   0  0  0  0  0  0  0  0  0  0  0  0
   20.9754   -9.2496  -21.3674 C   0  0  0  0  0  0  0  0  0  0  0  0
   21.2212   -8.3167  -22.2774 N   0  0  0  0  0  0  0  0  0  0  0  0
   20.1518   -7.4863  -22.3182 C   0  0  0  0  0  0  0  0  0  0  0  0
   19.2498   -7.9344  -21.4119 N   0  0  0  0  0  0  0  0  0  0  0  0
   19.8625   -8.3888  -17.9546 C   0  0  0  0  0  0  0  0  0  0  0  0
   18.8587   -7.8636  -17.4086 O   0  0  0  0  0  0  0  0  0  0  0  0
   20.4366    0.0953  -16.8576 O   0  0  0  0  0  0  0  0  0  0  0  0
   20.3754   -1.2408  -17.2662 C   0  0  0  0  0  0  0  0  0  0  0  0
   19.2774   -2.0144  -16.9523 C   0  0  0  0  0  0  0  0  0  0  0  0
   19.2041   -3.3221  -17.3450 C   0  0  0  0  0  0  0  0  0  0  0  0
   20.2097   -3.9413  -18.0690 C   0  0  0  0  0  0  0  0  0  0  0  0
   20.1362   -5.3618  -18.4841 C   0  0  0  0  0  0  0  0  0  0  0  0
   21.1043   -6.1905  -17.7007 C   0  0  2  0  0  0  0  0  0  0  0  0
   21.0265   -7.6068  -18.1000 N   0  0  0  0  0  0  0  0  0  0  0  0
   20.8534   -6.1667  -16.2458 C   0  0  0  0  0  0  0  0  0  0  0  0
   20.2741   -7.1243  -15.6576 O   0  0  0  0  0  0  0  0  0  0  0  0
   21.3147   -3.1458  -18.3798 C   0  0  0  0  0  0  0  0  0  0  0  0
   21.3912   -1.8255  -17.9850 C   0  0  0  0  0  0  0  0  0  0  0  0
   21.2241   -5.1141  -15.4051 O   0  0  0  0  0  0  0  0  0  0  0  0
  1  2  1  0
  2  3  2  0
  4  5  1  0
  4  2  1  0
  6  7  1  6
  6  5  1  0
  8  6  1  0
  8  9  2  0
 10  8  1  0
 11 18  1  0
 11 10  1  0
 11 12  1  6
 13 14  2  0
 13 12  1  0
 15 14  1  0
 16 17  2  0
 16 15  1  0
 17 13  1  0
 18 19  2  0
 20 21  1  0
 21 22  2  0
 21 31  1  0
 22 23  1  0
 23 24  2  0
 24 25  1  0
 26 25  1  6
 26 28  1  0
 27 18  1  0
 27 26  1  0
 28 29  2  0
 28 32  1  0
 30 24  1  0
 31 30  2  0
M  END
$$$$
