QHY.pdb
     RDKit          3D

 32 33  0  0  1  0  0  0  0  0999 V2000
   22.8950  -11.0274   10.7431 N   0  0  0  0  0  0  0  0  0  0  0  0
   22.6434  -12.2873   11.4100 C   0  0  0  0  0  0  0  0  0  0  0  0
   23.4681  -12.6062   12.2934 O   0  0  0  0  0  0  0  0  0  0  0  0
   21.4647  -13.0587   10.9995 C   0  0  0  0  0  0  0  0  0  0  0  0
   20.6369  -12.4834    9.9173 C   0  0  0  0  0  0  0  0  0  0  0  0
   19.4773  -13.3263    9.5327 C   0  0  2  0  0  0  0  0  0  0  0  0
   18.7607  -13.9038   10.6129 N   0  0  0  0  0  0  0  0  0  0  0  0
   19.8834  -14.4269    8.5910 C   0  0  0  0  0  0  0  0  0  0  0  0
   20.5940  -14.1885    7.5819 O   0  0  0  0  0  0  0  0  0  0  0  0
   19.4779  -15.7643    8.8112 N   0  0  0  0  0  0  0  0  0  0  0  0
   19.8846  -16.8774    8.0127 C   0  0  1  0  0  0  0  0  0  0  0  0
   20.4657  -17.9827    8.8628 C   0  0  0  0  0  0  0  0  0  0  0  0
   21.8795  -17.7483    9.2422 C   0  0  0  0  0  0  0  0  0  0  0  0
   22.7067  -16.6711    8.9219 C   0  0  0  0  0  0  0  0  0  0  0  0
   23.9065  -16.8410    9.4608 N   0  0  0  0  0  0  0  0  0  0  0  0
   23.8943  -18.0147   10.1368 C   0  0  0  0  0  0  0  0  0  0  0  0
   22.6600  -18.5558    9.9966 N   0  0  0  0  0  0  0  0  0  0  0  0
   18.7958  -17.4365    7.1739 C   0  0  0  0  0  0  0  0  0  0  0  0
   17.6378  -17.4781    7.6627 O   0  0  0  0  0  0  0  0  0  0  0  0
   13.7811  -20.2436    0.5010 O   0  0  0  0  0  0  0  0  0  0  0  0
   14.8286  -19.7172    1.2635 C   0  0  0  0  0  0  0  0  0  0  0  0
   16.0642  -20.3304    1.2650 C   0  0  0  0  0  0  0  0  0  0  0  0
   17.0972  -19.8271    2.0060 C   0  0  0  0  0  0  0  0  0  0  0  0
   16.9704  -18.6908    2.7880 C   0  0  0  0  0  0  0  0  0  0  0  0
   18.0861  -18.1520    3.6006 C   0  0  0  0  0  0  0  0  0  0  0  0
   17.8936  -18.4847    5.0463 C   0  0  2  0  0  0  0  0  0  0  0  0
   18.9832  -17.9230    5.8640 N   0  0  0  0  0  0  0  0  0  0  0  0
   17.8913  -19.9360    5.3187 C   0  0  0  0  0  0  0  0  0  0  0  0
   18.9639  -20.5740    5.5209 O   0  0  0  0  0  0  0  0  0  0  0  0
   15.7142  -18.0805    2.7763 C   0  0  0  0  0  0  0  0  0  0  0  0
   14.6698  -18.5863    2.0292 C   0  0  0  0  0  0  0  0  0  0  0  0
   16.7354  -20.7187    5.3791 O   0  0  0  0  0  0  0  0  0  0  0  0
  1  2  1  0
  2  3  2  0
  4  5  1  0
  4  2  1  0
  6  7  1  1
  6  5  1  0
  8  6  1  0
  8  9  2  0
 10  8  1  0
 11 18  1  0
 11 10  1  0
 11 12  1  1
 13 14  2  0
 13 12  1  0
 15 14  1  0
 16 17  2  0
 16 15  1  0
 17 13  1  0
 18 19  2  0
 20 21  1  0
 21 22  2  0
 21 31  1  0
 22 23  1  0
 23 24  2  0
 24 25  1  0
 26 25  1  6
 26 28  1  0
 27 18  1  0
 27 26  1  0
 28 29  2  0
 28 32  1  0
 30 24  1  0
 31 30  2  0
M  END
$$$$
