QHY.pdb
     RDKit          3D

 32 33  0  0  1  0  0  0  0  0999 V2000
   29.5156  -14.6501  -17.9539 N   0  0  0  0  0  0  0  0  0  0  0  0
   30.3348  -15.7554  -18.4038 C   0  0  0  0  0  0  0  0  0  0  0  0
   31.3613  -15.4425  -19.0447 O   0  0  0  0  0  0  0  0  0  0  0  0
   29.8968  -17.1155  -18.0707 C   0  0  0  0  0  0  0  0  0  0  0  0
   28.6075  -17.2433  -17.3573 C   0  0  0  0  0  0  0  0  0  0  0  0
   27.7402  -18.3329  -17.8709 C   0  0  2  0  0  0  0  0  0  0  0  0
   27.4180  -18.2542  -19.2506 N   0  0  0  0  0  0  0  0  0  0  0  0
   26.4586  -18.4326  -17.0897 C   0  0  0  0  0  0  0  0  0  0  0  0
   26.0005  -17.4427  -16.4647 O   0  0  0  0  0  0  0  0  0  0  0  0
   25.7289  -19.6433  -17.0334 N   0  0  0  0  0  0  0  0  0  0  0  0
   24.5294  -19.8336  -16.2804 C   0  0  1  0  0  0  0  0  0  0  0  0
   23.5298  -20.6747  -17.0389 C   0  0  0  0  0  0  0  0  0  0  0  0
   22.8128  -19.9219  -18.0956 C   0  0  0  0  0  0  0  0  0  0  0  0
   22.8180  -18.5503  -18.3527 C   0  0  0  0  0  0  0  0  0  0  0  0
   22.0441  -18.2784  -19.3948 N   0  0  0  0  0  0  0  0  0  0  0  0
   21.5219  -19.4467  -19.8388 C   0  0  0  0  0  0  0  0  0  0  0  0
   21.9950  -20.4359  -19.0429 N   0  0  0  0  0  0  0  0  0  0  0  0
   24.7557  -20.4408  -14.9456 C   0  0  0  0  0  0  0  0  0  0  0  0
   25.4948  -21.4560  -14.8778 O   0  0  0  0  0  0  0  0  0  0  0  0
   26.3676  -21.0843   -6.3287 O   0  0  0  0  0  0  0  0  0  0  0  0
   26.1966  -20.7511   -7.6761 C   0  0  0  0  0  0  0  0  0  0  0  0
   26.5470  -21.6475   -8.6641 C   0  0  0  0  0  0  0  0  0  0  0  0
   26.3856  -21.3351   -9.9855 C   0  0  0  0  0  0  0  0  0  0  0  0
   25.8701  -20.1206  -10.4076 C   0  0  0  0  0  0  0  0  0  0  0  0
   25.7065  -19.7768  -11.8395 C   0  0  0  0  0  0  0  0  0  0  0  0
   24.5220  -20.4830  -12.4191 C   0  0  2  0  0  0  0  0  0  0  0  0
   24.1914  -19.9474  -13.7515 N   0  0  0  0  0  0  0  0  0  0  0  0
   23.2965  -20.3346  -11.6088 C   0  0  0  0  0  0  0  0  0  0  0  0
   23.1285  -20.9830  -10.5365 O   0  0  0  0  0  0  0  0  0  0  0  0
   25.5195  -19.2233   -9.3964 C   0  0  0  0  0  0  0  0  0  0  0  0
   25.6811  -19.5362   -8.0619 C   0  0  0  0  0  0  0  0  0  0  0  0
   22.2376  -19.4855  -11.9404 O   0  0  0  0  0  0  0  0  0  0  0  0
  1  2  1  0
  2  3  2  0
  4  5  1  0
  4  2  1  0
  6  7  1  6
  6  5  1  0
  8  6  1  0
  8  9  2  0
 10  8  1  0
 11 18  1  0
 11 10  1  0
 11 12  1  6
 13 14  2  0
 13 12  1  0
 15 14  1  0
 16 17  2  0
 16 15  1  0
 17 13  1  0
 18 19  2  0
 20 21  1  0
 21 22  2  0
 21 31  1  0
 22 23  1  0
 23 24  2  0
 24 25  1  0
 26 25  1  1
 26 28  1  0
 27 18  1  0
 27 26  1  0
 28 29  2  0
 28 32  1  0
 30 24  1  0
 31 30  2  0
M  END
$$$$
