QHY.pdb
     RDKit          3D

 32 33  0  0  1  0  0  0  0  0999 V2000
   28.5896  -38.6493  -20.7062 N   0  0  0  0  0  0  0  0  0  0  0  0
   29.1734  -38.4975  -22.0221 C   0  0  0  0  0  0  0  0  0  0  0  0
   29.0389  -39.4747  -22.7899 O   0  0  0  0  0  0  0  0  0  0  0  0
   29.8534  -37.2345  -22.3306 C   0  0  0  0  0  0  0  0  0  0  0  0
   29.8526  -36.2023  -21.2713 C   0  0  0  0  0  0  0  0  0  0  0  0
   28.7105  -35.2577  -21.3513 C   0  0  2  0  0  0  0  0  0  0  0  0
   28.7546  -34.3409  -22.4336 N   0  0  0  0  0  0  0  0  0  0  0  0
   28.5492  -34.4775  -20.0754 C   0  0  0  0  0  0  0  0  0  0  0  0
   28.4871  -35.0587  -18.9625 O   0  0  0  0  0  0  0  0  0  0  0  0
   28.4618  -33.0655  -20.0878 N   0  0  0  0  0  0  0  0  0  0  0  0
   28.2461  -32.2556  -18.9304 C   0  0  1  0  0  0  0  0  0  0  0  0
   29.0600  -30.9843  -18.9876 C   0  0  0  0  0  0  0  0  0  0  0  0
   30.5195  -31.2175  -18.8733 C   0  0  0  0  0  0  0  0  0  0  0  0
   31.2053  -32.4215  -18.7087 C   0  0  0  0  0  0  0  0  0  0  0  0
   32.5116  -32.1990  -18.6535 N   0  0  0  0  0  0  0  0  0  0  0  0
   32.7099  -30.8650  -18.7792 C   0  0  0  0  0  0  0  0  0  0  0  0
   31.4947  -30.2804  -18.9115 N   0  0  0  0  0  0  0  0  0  0  0  0
   26.8215  -31.9060  -18.7068 C   0  0  0  0  0  0  0  0  0  0  0  0
   26.1211  -31.6175  -19.7107 O   0  0  0  0  0  0  0  0  0  0  0  0
   18.6938  -31.0906  -15.3635 O   0  0  0  0  0  0  0  0  0  0  0  0
   20.0571  -31.3606  -15.5195 C   0  0  0  0  0  0  0  0  0  0  0  0
   20.4828  -32.2641  -16.4708 C   0  0  0  0  0  0  0  0  0  0  0  0
   21.8124  -32.5380  -16.6341 C   0  0  0  0  0  0  0  0  0  0  0  0
   22.7977  -31.9369  -15.8682 C   0  0  0  0  0  0  0  0  0  0  0  0
   24.2377  -32.2426  -16.0365 C   0  0  0  0  0  0  0  0  0  0  0  0
   24.7911  -31.5325  -17.2311 C   0  0  2  0  0  0  0  0  0  0  0  0
   26.2087  -31.8780  -17.4374 N   0  0  0  0  0  0  0  0  0  0  0  0
   24.7474  -30.0614  -17.1112 C   0  0  0  0  0  0  0  0  0  0  0  0
   23.7356  -29.3966  -17.4756 O   0  0  0  0  0  0  0  0  0  0  0  0
   22.3520  -31.0243  -14.9095 C   0  0  0  0  0  0  0  0  0  0  0  0
   21.0106  -30.7458  -14.7427 C   0  0  0  0  0  0  0  0  0  0  0  0
   25.7902  -29.2873  -16.5960 O   0  0  0  0  0  0  0  0  0  0  0  0
  1  2  1  0
  2  3  2  0
  4  5  1  0
  4  2  1  0
  6  7  1  6
  6  5  1  0
  8  6  1  0
  8  9  2  0
 10  8  1  0
 11 18  1  0
 11 10  1  0
 11 12  1  6
 13 14  2  0
 13 12  1  0
 15 14  1  0
 16 17  2  0
 16 15  1  0
 17 13  1  0
 18 19  2  0
 20 21  1  0
 21 22  2  0
 21 31  1  0
 22 23  1  0
 23 24  2  0
 24 25  1  0
 26 25  1  1
 26 28  1  0
 27 18  1  0
 27 26  1  0
 28 29  2  0
 28 32  1  0
 30 24  1  0
 31 30  2  0
M  END
$$$$
