QHY.pdb
     RDKit          3D

 32 33  0  0  1  0  0  0  0  0999 V2000
   21.2758  -28.0958  -13.8101 N   0  0  0  0  0  0  0  0  0  0  0  0
   21.6149  -29.3290  -14.4880 C   0  0  0  0  0  0  0  0  0  0  0  0
   21.8992  -30.2940  -13.7461 O   0  0  0  0  0  0  0  0  0  0  0  0
   21.5914  -29.3356  -15.9551 C   0  0  0  0  0  0  0  0  0  0  0  0
   21.2846  -28.0513  -16.6213 C   0  0  0  0  0  0  0  0  0  0  0  0
   22.3885  -27.5325  -17.4671 C   0  0  2  0  0  0  0  0  0  0  0  0
   23.6597  -28.1187  -17.2342 N   0  0  0  0  0  0  0  0  0  0  0  0
   22.5247  -26.0397  -17.3420 C   0  0  0  0  0  0  0  0  0  0  0  0
   23.2457  -25.5261  -16.4494 O   0  0  0  0  0  0  0  0  0  0  0  0
   21.8455  -25.1669  -18.2243 N   0  0  0  0  0  0  0  0  0  0  0  0
   21.9536  -23.7423  -18.1995 C   0  0  1  0  0  0  0  0  0  0  0  0
   21.3623  -23.1227  -19.4439 C   0  0  0  0  0  0  0  0  0  0  0  0
   21.5102  -21.6484  -19.4912 C   0  0  0  0  0  0  0  0  0  0  0  0
   22.1160  -20.7973  -18.5661 C   0  0  0  0  0  0  0  0  0  0  0  0
   22.0398  -19.5408  -18.9836 N   0  0  0  0  0  0  0  0  0  0  0  0
   21.3929  -19.5386  -20.1737 C   0  0  0  0  0  0  0  0  0  0  0  0
   21.0765  -20.8221  -20.4708 N   0  0  0  0  0  0  0  0  0  0  0  0
   21.3275  -23.1195  -17.0070 C   0  0  0  0  0  0  0  0  0  0  0  0
   20.2523  -23.6131  -16.5806 O   0  0  0  0  0  0  0  0  0  0  0  0
   19.9717  -18.3873   -9.6554 O   0  0  0  0  0  0  0  0  0  0  0  0
   20.5457  -18.9383  -10.8056 C   0  0  0  0  0  0  0  0  0  0  0  0
   20.5507  -18.2290  -11.9885 C   0  0  0  0  0  0  0  0  0  0  0  0
   21.1080  -18.7555  -13.1208 C   0  0  0  0  0  0  0  0  0  0  0  0
   21.6914  -20.0114  -13.1509 C   0  0  0  0  0  0  0  0  0  0  0  0
   22.2845  -20.5873  -14.3806 C   0  0  0  0  0  0  0  0  0  0  0  0
   21.3009  -21.4760  -15.0737 C   0  0  2  0  0  0  0  0  0  0  0  0
   21.8662  -22.0089  -16.3259 N   0  0  0  0  0  0  0  0  0  0  0  0
   20.0535  -20.7843  -15.4560 C   0  0  0  0  0  0  0  0  0  0  0  0
   19.9941  -20.0413  -16.4772 O   0  0  0  0  0  0  0  0  0  0  0  0
   21.6794  -20.7176  -11.9460 C   0  0  0  0  0  0  0  0  0  0  0  0
   21.1178  -20.1886  -10.8016 C   0  0  0  0  0  0  0  0  0  0  0  0
   18.8542  -20.8849  -14.7462 O   0  0  0  0  0  0  0  0  0  0  0  0
  1  2  1  0
  2  3  2  0
  4  5  1  0
  4  2  1  0
  6  7  1  1
  6  5  1  0
  8  6  1  0
  8  9  2  0
 10  8  1  0
 11 18  1  0
 11 10  1  0
 11 12  1  6
 13 14  2  0
 13 12  1  0
 15 14  1  0
 16 17  2  0
 16 15  1  0
 17 13  1  0
 18 19  2  0
 20 21  1  0
 21 22  2  0
 21 31  1  0
 22 23  1  0
 23 24  2  0
 24 25  1  0
 26 25  1  6
 26 28  1  0
 27 18  1  0
 27 26  1  0
 28 29  2  0
 28 32  1  0
 30 24  1  0
 31 30  2  0
M  END
$$$$
