ITA.pdb
     RDKit          3D

 21 20  0  0  1  0  0  0  0  0999 V2000
    7.4058  -12.1425   19.1502 C   0  0  0  0  0  0  0  0  0  0  0  0
    8.1026  -13.4598   19.3267 C   0  0  0  0  0  0  0  0  0  0  0  0
    7.9968  -14.0608   20.6623 C   0  0  2  0  0  0  0  0  0  0  0  0
    8.4144  -12.9915   21.6982 C   0  0  0  0  0  0  0  0  0  0  0  0
    8.6132  -15.3445   20.9916 C   0  0  2  0  0  0  0  0  0  0  0  0
    8.1255  -16.2877   19.9356 N   0  0  0  0  0  0  0  0  0  0  0  0
    8.4772  -15.9327   22.3060 C   0  0  0  0  0  0  0  0  0  0  0  0
    7.3620  -16.3062   22.7530 O   0  0  0  0  0  0  0  0  0  0  0  0
    9.1221  -19.0048   23.9156 C   0  0  0  0  0  0  0  0  0  0  0  0
    9.9047  -18.0169   24.7407 C   0  0  1  0  0  0  0  0  0  0  0  0
   11.2427  -18.1871   24.4507 O   0  0  0  0  0  0  0  0  0  0  0  0
    9.4077  -16.6029   24.5788 C   0  0  2  0  0  0  0  0  0  0  0  0
    9.5725  -16.1455   23.2134 N   0  0  0  0  0  0  0  0  0  0  0  0
   10.1016  -15.7442   25.5488 C   0  0  0  0  0  0  0  0  0  0  0  0
   11.2529  -15.2629   25.3723 O   0  0  0  0  0  0  0  0  0  0  0  0
    9.0594  -13.6127   28.2686 C   0  0  0  0  0  0  0  0  0  0  0  0
   10.1016  -14.5889   27.7684 C   0  0  2  0  0  0  0  0  0  0  0  0
    9.4506  -15.4240   26.7636 N   0  0  0  0  0  0  0  0  0  0  0  0
   10.4722  -15.4609   28.9184 C   0  0  0  0  0  0  0  0  0  0  0  0
   11.1229  -15.0116   29.8971 O   0  0  0  0  0  0  0  0  0  0  0  0
   10.1180  -16.8030   28.9622 O   0  0  0  0  0  0  0  0  0  0  0  0
  2  1  1  0
  2  3  1  0
  3  5  1  0
  3  4  1  1
  5  6  1  6
  5  7  1  0
  7 13  1  0
  7  8  2  0
 10  9  1  6
 10 11  1  0
 12 10  1  0
 12 13  1  6
 14 15  2  0
 14 12  1  0
 17 16  1  1
 17 18  1  0
 18 14  1  0
 19 21  1  0
 19 17  1  0
 20 19  2  0
M  END
$$$$
