ITA.pdb
     RDKit          3D

 21 20  0  0  1  0  0  0  0  0999 V2000
    5.7256  -10.6111   26.6933 C   0  0  0  0  0  0  0  0  0  0  0  0
    5.4824  -11.7857   25.7916 C   0  0  0  0  0  0  0  0  0  0  0  0
    6.4922  -12.8504   25.8483 C   0  0  2  0  0  0  0  0  0  0  0  0
    7.8664  -12.2184   25.5274 C   0  0  0  0  0  0  0  0  0  0  0  0
    6.3392  -14.1106   25.1239 C   0  0  2  0  0  0  0  0  0  0  0  0
    4.9386  -14.5538   25.4143 N   0  0  0  0  0  0  0  0  0  0  0  0
    7.2699  -15.2030   25.3038 C   0  0  0  0  0  0  0  0  0  0  0  0
    7.3121  -15.8691   26.3704 O   0  0  0  0  0  0  0  0  0  0  0  0
    8.9737  -17.5637   22.2606 C   0  0  0  0  0  0  0  0  0  0  0  0
    9.9395  -17.0130   23.2772 C   0  0  1  0  0  0  0  0  0  0  0  0
   10.6668  -16.0092   22.6717 O   0  0  0  0  0  0  0  0  0  0  0  0
    9.2613  -16.6035   24.5598 C   0  0  2  0  0  0  0  0  0  0  0  0
    8.2176  -15.6295   24.3097 N   0  0  0  0  0  0  0  0  0  0  0  0
   10.2804  -16.1099   25.4965 C   0  0  0  0  0  0  0  0  0  0  0  0
   11.0723  -15.1619   25.2468 O   0  0  0  0  0  0  0  0  0  0  0  0
   10.6190  -15.3037   28.6714 C   0  0  0  0  0  0  0  0  0  0  0  0
   11.3610  -16.2462   27.7493 C   0  0  2  0  0  0  0  0  0  0  0  0
   10.3937  -16.7242   26.7661 N   0  0  0  0  0  0  0  0  0  0  0  0
   11.7935  -17.4119   28.5706 C   0  0  0  0  0  0  0  0  0  0  0  0
   11.2616  -18.5435   28.4316 O   0  0  0  0  0  0  0  0  0  0  0  0
   12.7988  -17.3027   29.5225 O   0  0  0  0  0  0  0  0  0  0  0  0
  2  1  1  0
  2  3  1  0
  3  5  1  0
  3  4  1  6
  5  6  1  1
  5  7  1  0
  7 13  1  0
  7  8  2  0
 10  9  1  6
 10 11  1  0
 12 10  1  0
 12 13  1  6
 14 15  2  0
 14 12  1  0
 17 16  1  1
 17 18  1  0
 18 14  1  0
 19 21  1  0
 19 17  1  0
 20 19  2  0
M  END
$$$$
