ITA.pdb
     RDKit          3D

 21 20  0  0  1  0  0  0  0  0999 V2000
    6.8402  -11.1816   27.3101 C   0  0  0  0  0  0  0  0  0  0  0  0
    6.1377  -12.2322   26.5010 C   0  0  0  0  0  0  0  0  0  0  0  0
    6.9692  -13.3624   26.0678 C   0  0  2  0  0  0  0  0  0  0  0  0
    8.2257  -12.7881   25.3731 C   0  0  0  0  0  0  0  0  0  0  0  0
    6.4298  -14.4742   25.2873 C   0  0  2  0  0  0  0  0  0  0  0  0
    5.2856  -14.9958   26.1005 N   0  0  0  0  0  0  0  0  0  0  0  0
    7.2731  -15.5587   24.8349 C   0  0  0  0  0  0  0  0  0  0  0  0
    7.4879  -16.5730   25.5477 O   0  0  0  0  0  0  0  0  0  0  0  0
   10.0790  -17.6183   21.1889 C   0  0  0  0  0  0  0  0  0  0  0  0
    9.1820  -16.5108   21.6767 C   0  0  1  0  0  0  0  0  0  0  0  0
    8.1153  -16.4141   20.8071 O   0  0  0  0  0  0  0  0  0  0  0  0
    8.7926  -16.6741   23.1239 C   0  0  2  0  0  0  0  0  0  0  0  0
    7.9353  -15.5894   23.5586 N   0  0  0  0  0  0  0  0  0  0  0  0
   10.0147  -16.7855   23.9324 C   0  0  0  0  0  0  0  0  0  0  0  0
   10.8813  -15.8764   24.0354 O   0  0  0  0  0  0  0  0  0  0  0  0
   11.0918  -19.0522   26.6113 C   0  0  0  0  0  0  0  0  0  0  0  0
   11.4587  -18.1533   25.4508 C   0  0  2  0  0  0  0  0  0  0  0  0
   10.2501  -17.9818   24.6504 N   0  0  0  0  0  0  0  0  0  0  0  0
   12.4550  -18.8908   24.6239 C   0  0  0  0  0  0  0  0  0  0  0  0
   12.1131  -19.5037   23.5797 O   0  0  0  0  0  0  0  0  0  0  0  0
   13.8000  -18.9351   24.9666 O   0  0  0  0  0  0  0  0  0  0  0  0
  2  1  1  0
  2  3  1  0
  3  5  1  0
  3  4  1  6
  5  6  1  1
  5  7  1  0
  7 13  1  0
  7  8  2  0
 10  9  1  6
 10 11  1  0
 12 10  1  0
 12 13  1  1
 14 15  2  0
 14 12  1  0
 17 16  1  1
 17 18  1  0
 18 14  1  0
 19 21  1  0
 19 17  1  0
 20 19  2  0
M  END
$$$$
