ITA.pdb
     RDKit          3D

 21 20  0  0  1  0  0  0  0  0999 V2000
    7.4709  -12.0565   19.1980 C   0  0  0  0  0  0  0  0  0  0  0  0
    8.0621  -13.4304   19.3198 C   0  0  0  0  0  0  0  0  0  0  0  0
    7.9636  -14.0493   20.6477 C   0  0  2  0  0  0  0  0  0  0  0  0
    8.5862  -13.0737   21.6732 C   0  0  0  0  0  0  0  0  0  0  0  0
    8.4233  -15.4118   20.9099 C   0  0  2  0  0  0  0  0  0  0  0  0
    7.6824  -16.2638   19.9262 N   0  0  0  0  0  0  0  0  0  0  0  0
    8.3616  -15.9879   22.2351 C   0  0  0  0  0  0  0  0  0  0  0  0
    7.2669  -16.2935   22.7748 O   0  0  0  0  0  0  0  0  0  0  0  0
    9.9404  -18.5755   26.0166 C   0  0  0  0  0  0  0  0  0  0  0  0
   10.0702  -18.0544   24.6092 C   0  0  1  0  0  0  0  0  0  0  0  0
    9.5932  -19.0240   23.7516 O   0  0  0  0  0  0  0  0  0  0  0  0
    9.4350  -16.6988   24.4313 C   0  0  2  0  0  0  0  0  0  0  0  0
    9.5134  -16.2635   23.0510 N   0  0  0  0  0  0  0  0  0  0  0  0
   10.0726  -15.7529   25.3578 C   0  0  0  0  0  0  0  0  0  0  0  0
   11.2437  -15.3077   25.2211 O   0  0  0  0  0  0  0  0  0  0  0  0
    8.7910  -13.4111   27.8335 C   0  0  0  0  0  0  0  0  0  0  0  0
    9.9134  -14.3345   27.4131 C   0  0  2  0  0  0  0  0  0  0  0  0
    9.3398  -15.2995   26.4801 N   0  0  0  0  0  0  0  0  0  0  0  0
   10.3486  -15.0766   28.6298 C   0  0  0  0  0  0  0  0  0  0  0  0
    9.9169  -16.2313   28.8812 O   0  0  0  0  0  0  0  0  0  0  0  0
   11.2463  -14.5300   29.5375 O   0  0  0  0  0  0  0  0  0  0  0  0
  2  1  1  0
  2  3  1  0
  3  5  1  0
  3  4  1  1
  5  6  1  6
  5  7  1  0
  7 13  1  0
  7  8  2  0
 10  9  1  1
 10 11  1  0
 12 10  1  0
 12 13  1  6
 14 15  2  0
 14 12  1  0
 17 16  1  1
 17 18  1  0
 18 14  1  0
 19 21  1  0
 19 17  1  0
 20 19  2  0
M  END
$$$$
