ITA.pdb
     RDKit          3D

 21 20  0  0  1  0  0  0  0  0999 V2000
    7.1938  -11.9616   19.6119 C   0  0  0  0  0  0  0  0  0  0  0  0
    7.4443  -13.4412   19.6191 C   0  0  0  0  0  0  0  0  0  0  0  0
    7.8200  -14.0160   20.9171 C   0  0  2  0  0  0  0  0  0  0  0  0
    9.0743  -13.2662   21.4228 C   0  0  0  0  0  0  0  0  0  0  0  0
    7.9828  -15.4549   21.1158 C   0  0  2  0  0  0  0  0  0  0  0  0
    6.7310  -16.0636   20.5636 N   0  0  0  0  0  0  0  0  0  0  0  0
    8.2907  -16.0077   22.4164 C   0  0  0  0  0  0  0  0  0  0  0  0
    7.4332  -16.0565   23.3358 O   0  0  0  0  0  0  0  0  0  0  0  0
   11.2594  -18.6996   25.3944 C   0  0  0  0  0  0  0  0  0  0  0  0
   11.0048  -18.0507   24.0591 C   0  0  1  0  0  0  0  0  0  0  0  0
   10.8245  -19.0523   23.1276 O   0  0  0  0  0  0  0  0  0  0  0  0
    9.8884  -17.0388   24.1089 C   0  0  2  0  0  0  0  0  0  0  0  0
    9.5736  -16.5441   22.7834 N   0  0  0  0  0  0  0  0  0  0  0  0
   10.2663  -15.9637   25.0369 C   0  0  0  0  0  0  0  0  0  0  0  0
   10.6349  -14.8137   24.6763 O   0  0  0  0  0  0  0  0  0  0  0  0
    9.6761  -14.0231   27.2015 C   0  0  0  0  0  0  0  0  0  0  0  0
   10.6148  -15.1943   27.3923 C   0  0  2  0  0  0  0  0  0  0  0  0
   10.2174  -16.2159   26.4283 N   0  0  0  0  0  0  0  0  0  0  0  0
   10.3689  -15.7341   28.7593 C   0  0  0  0  0  0  0  0  0  0  0  0
    9.6990  -16.7841   28.9374 O   0  0  0  0  0  0  0  0  0  0  0  0
   10.8657  -15.1056   29.8937 O   0  0  0  0  0  0  0  0  0  0  0  0
  2  1  1  0
  2  3  1  0
  3  5  1  0
  3  4  1  6
  5  6  1  1
  5  7  1  0
  7 13  1  0
  7  8  2  0
 10  9  1  1
 10 11  1  0
 12 10  1  0
 12 13  1  6
 14 15  2  0
 14 12  1  0
 17 16  1  6
 17 18  1  0
 18 14  1  0
 19 21  1  0
 19 17  1  0
 20 19  2  0
M  END
$$$$
