ITA.pdb
     RDKit          3D

 21 20  0  0  1  0  0  0  0  0999 V2000
    8.2618  -12.3408   18.9995 C   0  0  0  0  0  0  0  0  0  0  0  0
    7.1452  -13.1436   19.6000 C   0  0  0  0  0  0  0  0  0  0  0  0
    7.5023  -13.9504   20.7738 C   0  0  2  0  0  0  0  0  0  0  0  0
    8.0286  -12.9912   21.8665 C   0  0  0  0  0  0  0  0  0  0  0  0
    8.3672  -15.1250   20.6798 C   0  0  2  0  0  0  0  0  0  0  0  0
    7.7559  -15.9676   19.6034 N   0  0  0  0  0  0  0  0  0  0  0  0
    8.6810  -15.9268   21.8419 C   0  0  0  0  0  0  0  0  0  0  0  0
    7.7823  -16.4714   22.5339 O   0  0  0  0  0  0  0  0  0  0  0  0
   11.7950  -18.5628   24.6520 C   0  0  0  0  0  0  0  0  0  0  0  0
   11.5132  -17.7610   23.4082 C   0  0  1  0  0  0  0  0  0  0  0  0
   11.4383  -18.6378   22.3457 O   0  0  0  0  0  0  0  0  0  0  0  0
   10.3137  -16.8602   23.5577 C   0  0  2  0  0  0  0  0  0  0  0  0
   10.0160  -16.1778   22.3141 N   0  0  0  0  0  0  0  0  0  0  0  0
   10.5579  -15.9285   24.6676 C   0  0  0  0  0  0  0  0  0  0  0  0
   10.9695  -14.7462   24.5226 O   0  0  0  0  0  0  0  0  0  0  0  0
    9.5674  -14.4198   27.1488 C   0  0  0  0  0  0  0  0  0  0  0  0
   10.6168  -15.5097   27.1339 C   0  0  2  0  0  0  0  0  0  0  0  0
   10.3189  -16.3678   25.9912 N   0  0  0  0  0  0  0  0  0  0  0  0
   10.4287  -16.3154   28.3732 C   0  0  0  0  0  0  0  0  0  0  0  0
    9.8631  -17.4388   28.3436 O   0  0  0  0  0  0  0  0  0  0  0  0
   10.8672  -15.8649   29.6116 O   0  0  0  0  0  0  0  0  0  0  0  0
  2  1  1  0
  2  3  1  0
  3  5  1  0
  3  4  1  1
  5  6  1  6
  5  7  1  0
  7 13  1  0
  7  8  2  0
 10  9  1  1
 10 11  1  0
 12 10  1  0
 12 13  1  6
 14 15  2  0
 14 12  1  0
 17 16  1  1
 17 18  1  0
 18 14  1  0
 19 21  1  0
 19 17  1  0
 20 19  2  0
M  END
$$$$
