ITA.pdb
     RDKit          3D

 21 20  0  0  1  0  0  0  0  0999 V2000
    7.6418  -11.8054   19.3108 C   0  0  0  0  0  0  0  0  0  0  0  0
    7.8054  -13.2907   19.4490 C   0  0  0  0  0  0  0  0  0  0  0  0
    7.6450  -13.8242   20.8077 C   0  0  2  0  0  0  0  0  0  0  0  0
    8.5793  -13.0242   21.7448 C   0  0  0  0  0  0  0  0  0  0  0  0
    7.7439  -15.2524   21.1022 C   0  0  2  0  0  0  0  0  0  0  0  0
    6.6932  -15.8946   20.2501 N   0  0  0  0  0  0  0  0  0  0  0  0
    7.6782  -15.7502   22.4586 C   0  0  0  0  0  0  0  0  0  0  0  0
    6.6116  -15.7193   23.1252 O   0  0  0  0  0  0  0  0  0  0  0  0
    9.1201  -18.5137   26.2305 C   0  0  0  0  0  0  0  0  0  0  0  0
    9.2198  -18.0858   24.7897 C   0  0  1  0  0  0  0  0  0  0  0  0
    8.5586  -19.0219   24.0218 O   0  0  0  0  0  0  0  0  0  0  0  0
    8.7608  -16.6663   24.5727 C   0  0  2  0  0  0  0  0  0  0  0  0
    8.7946  -16.3166   23.1665 N   0  0  0  0  0  0  0  0  0  0  0  0
    9.5863  -15.7717   25.3961 C   0  0  0  0  0  0  0  0  0  0  0  0
   10.7823  -15.4719   25.1357 O   0  0  0  0  0  0  0  0  0  0  0  0
    8.7756  -13.2266   27.8822 C   0  0  0  0  0  0  0  0  0  0  0  0
    9.7697  -14.2465   27.3714 C   0  0  2  0  0  0  0  0  0  0  0  0
    9.0187  -15.1985   26.5586 N   0  0  0  0  0  0  0  0  0  0  0  0
   10.2986  -14.9750   28.5588 C   0  0  0  0  0  0  0  0  0  0  0  0
    9.8453  -16.1006   28.8911 O   0  0  0  0  0  0  0  0  0  0  0  0
   11.3113  -14.4471   29.3490 O   0  0  0  0  0  0  0  0  0  0  0  0
  2  1  1  0
  2  3  1  0
  3  5  1  0
  3  4  1  1
  5  6  1  6
  5  7  1  0
  7 13  1  0
  7  8  2  0
 10  9  1  1
 10 11  1  0
 12 10  1  0
 12 13  1  6
 14 15  2  0
 14 12  1  0
 17 16  1  1
 17 18  1  0
 18 14  1  0
 19 21  1  0
 19 17  1  0
 20 19  2  0
M  END
$$$$
