ITA.pdb
     RDKit          3D

 21 20  0  0  1  0  0  0  0  0999 V2000
   24.0655  -42.0928    8.6168 C   0  0  0  0  0  0  0  0  0  0  0  0
   24.4453  -41.7861   10.0359 C   0  0  0  0  0  0  0  0  0  0  0  0
   24.6355  -40.3643   10.3499 C   0  0  2  0  0  0  0  0  0  0  0  0
   25.4708  -39.7346    9.2112 C   0  0  0  0  0  0  0  0  0  0  0  0
   25.1350  -39.9114   11.6467 C   0  0  2  0  0  0  0  0  0  0  0  0
   26.6182  -40.1059   11.5768 N   0  0  0  0  0  0  0  0  0  0  0  0
   24.6070  -40.4388   12.8856 C   0  0  0  0  0  0  0  0  0  0  0  0
   25.3170  -40.5388   13.9196 O   0  0  0  0  0  0  0  0  0  0  0  0
   20.4556  -40.7954   13.9243 C   0  0  0  0  0  0  0  0  0  0  0  0
   21.3405  -42.0040   14.0840 C   0  0  1  0  0  0  0  0  0  0  0  0
   21.0584  -42.8762   13.0530 O   0  0  0  0  0  0  0  0  0  0  0  0
   22.7986  -41.6429   14.2124 C   0  0  2  0  0  0  0  0  0  0  0  0
   23.2530  -40.8913   13.0595 N   0  0  0  0  0  0  0  0  0  0  0  0
   23.5733  -42.8736   14.4242 C   0  0  0  0  0  0  0  0  0  0  0  0
   23.2757  -43.9925   13.9264 O   0  0  0  0  0  0  0  0  0  0  0  0
   23.6772  -42.9735   17.3700 C   0  0  0  0  0  0  0  0  0  0  0  0
   24.7928  -43.5255   16.5097 C   0  0  2  0  0  0  0  0  0  0  0  0
   24.7322  -42.8185   15.2341 N   0  0  0  0  0  0  0  0  0  0  0  0
   24.4795  -44.9596   16.2540 C   0  0  0  0  0  0  0  0  0  0  0  0
   24.1088  -45.3560   15.1188 O   0  0  0  0  0  0  0  0  0  0  0  0
   24.5820  -45.9196   17.2522 O   0  0  0  0  0  0  0  0  0  0  0  0
  2  1  1  0
  2  3  1  0
  3  5  1  0
  3  4  1  6
  5  6  1  6
  5  7  1  0
  7 13  1  0
  7  8  2  0
 10  9  1  6
 10 11  1  0
 12 10  1  0
 12 13  1  6
 14 15  2  0
 14 12  1  0
 17 16  1  1
 17 18  1  0
 18 14  1  0
 19 21  1  0
 19 17  1  0
 20 19  2  0
M  END
$$$$
