MHT.pdb
     RDKit          3D

 26 26  0  0  1  0  0  0  0  0999 V2000
    7.4190  -13.0573   15.9020 C   0  0  0  0  0  0  0  0  0  0  0  0
    6.9858  -13.0932   17.6551 S   0  0  0  0  0  0  0  0  0  0  0  0
    8.1454  -14.1124   18.6117 C   0  0  0  0  0  0  0  0  0  0  0  0
    7.7462  -14.0366   20.0514 C   0  0  0  0  0  0  0  0  0  0  0  0
    8.6838  -14.8099   20.9565 C   0  0  2  0  0  0  0  0  0  0  0  0
    9.1897  -15.9832   20.3197 N   0  0  0  0  0  0  0  0  0  0  0  0
    7.9971  -15.1220   22.2619 C   0  0  0  0  0  0  0  0  0  0  0  0
    7.2108  -14.2799   22.7604 O   0  0  0  0  0  0  0  0  0  0  0  0
    8.2307  -16.3536   22.9293 N   0  0  0  0  0  0  0  0  0  0  0  0
    7.7204  -16.6831   24.2212 C   0  0  1  0  0  0  0  0  0  0  0  0
    7.5679  -18.1326   24.5151 C   0  0  0  0  0  0  0  0  0  0  0  0
    6.7668  -18.9069   23.5700 C   0  0  0  0  0  0  0  0  0  0  0  0
    5.4537  -18.6376   23.2430 C   0  0  0  0  0  0  0  0  0  0  0  0
    5.0612  -19.5636   22.3530 N   0  0  0  0  0  0  0  0  0  0  0  0
    6.0909  -20.4183   22.1028 C   0  0  0  0  0  0  0  0  0  0  0  0
    7.1335  -19.9902   22.8677 N   0  0  0  0  0  0  0  0  0  0  0  0
    8.4170  -15.9059   25.2928 C   0  0  0  0  0  0  0  0  0  0  0  0
    9.6486  -16.0008   25.4974 O   0  0  0  0  0  0  0  0  0  0  0  0
    7.5621  -12.0739   26.2262 C   0  0  0  0  0  0  0  0  0  0  0  0
    7.5970  -12.9396   27.4675 C   0  0  1  0  0  0  0  0  0  0  0  0
    6.2774  -13.3422   27.7515 O   0  0  0  0  0  0  0  0  0  0  0  0
    8.3872  -14.1800   27.1384 C   0  0  2  0  0  0  0  0  0  0  0  0
    7.7219  -15.0061   26.1504 N   0  0  0  0  0  0  0  0  0  0  0  0
    8.7064  -14.9415   28.3661 C   0  0  0  0  0  0  0  0  0  0  0  0
    9.4271  -14.3513   29.3976 O   0  0  0  0  0  0  0  0  0  0  0  0
    8.3276  -16.1234   28.4813 O   0  0  0  0  0  0  0  0  0  0  0  0
  2  1  1  0
  3  2  1  0
  4  3  1  0
  4  5  1  0
  5  6  1  6
  7  5  1  0
  7  8  2  0
  9  7  1  0
 10  9  1  0
 11 12  1  0
 10 11  1  1
 12 16  1  0
 13 12  2  0
 13 14  1  0
 14 15  1  0
 16 15  2  0
 17 10  1  0
 18 17  2  0
 20 21  1  0
 20 19  1  6
 22 23  1  6
 22 20  1  0
 23 17  1  0
 24 22  1  0
 25 24  1  0
 26 24  2  0
M  END
$$$$
