MHT.pdb
     RDKit          3D

 26 26  0  0  1  0  0  0  0  0999 V2000
    8.3876  -11.3902   20.0373 C   0  0  0  0  0  0  0  0  0  0  0  0
    8.9140  -12.6068   18.8104 S   0  0  0  0  0  0  0  0  0  0  0  0
    7.5955  -13.7998   18.4405 C   0  0  0  0  0  0  0  0  0  0  0  0
    7.1934  -14.4549   19.7238 C   0  0  0  0  0  0  0  0  0  0  0  0
    7.9189  -15.7640   19.9609 C   0  0  2  0  0  0  0  0  0  0  0  0
    7.5315  -16.7644   19.0191 N   0  0  0  0  0  0  0  0  0  0  0  0
    7.7152  -16.2140   21.3854 C   0  0  0  0  0  0  0  0  0  0  0  0
    6.6147  -16.7162   21.7207 O   0  0  0  0  0  0  0  0  0  0  0  0
    8.7516  -16.0752   22.3463 N   0  0  0  0  0  0  0  0  0  0  0  0
    8.6480  -16.4782   23.7119 C   0  0  1  0  0  0  0  0  0  0  0  0
    9.4104  -17.6958   24.0952 C   0  0  0  0  0  0  0  0  0  0  0  0
    9.2942  -18.1243   25.4871 C   0  0  0  0  0  0  0  0  0  0  0  0
    8.4150  -17.5897   26.4063 C   0  0  0  0  0  0  0  0  0  0  0  0
    8.6061  -18.2333   27.5695 N   0  0  0  0  0  0  0  0  0  0  0  0
    9.5857  -19.1663   27.4167 C   0  0  0  0  0  0  0  0  0  0  0  0
    9.9943  -19.0783   26.1203 N   0  0  0  0  0  0  0  0  0  0  0  0
    8.8357  -15.3162   24.6350 C   0  0  0  0  0  0  0  0  0  0  0  0
    9.9106  -14.6773   24.6990 O   0  0  0  0  0  0  0  0  0  0  0  0
    6.1023  -12.4237   25.3662 C   0  0  0  0  0  0  0  0  0  0  0  0
    6.6053  -13.0516   26.6484 C   0  0  1  0  0  0  0  0  0  0  0  0
    5.7101  -14.0781   27.0078 O   0  0  0  0  0  0  0  0  0  0  0  0
    7.9355  -13.6952   26.3518 C   0  0  2  0  0  0  0  0  0  0  0  0
    7.8011  -14.8615   25.5016 N   0  0  0  0  0  0  0  0  0  0  0  0
    8.6590  -14.0084   27.6038 C   0  0  0  0  0  0  0  0  0  0  0  0
    9.0963  -15.3018   27.8637 O   0  0  0  0  0  0  0  0  0  0  0  0
    8.8809  -13.1076   28.4362 O   0  0  0  0  0  0  0  0  0  0  0  0
  2  1  1  0
  3  2  1  0
  4  3  1  0
  4  5  1  0
  5  6  1  6
  7  5  1  0
  7  8  2  0
  9  7  1  0
 10  9  1  0
 11 12  1  0
 10 11  1  1
 12 16  1  0
 13 12  2  0
 13 14  1  0
 14 15  1  0
 16 15  2  0
 17 10  1  0
 18 17  2  0
 20 21  1  0
 20 19  1  6
 22 23  1  1
 22 20  1  0
 23 17  1  0
 24 22  1  0
 25 24  1  0
 26 24  2  0
M  END
$$$$
