MHT.pdb
     RDKit          3D

 26 26  0  0  1  0  0  0  0  0999 V2000
   10.0740  -12.2818   19.3795 C   0  0  0  0  0  0  0  0  0  0  0  0
    8.4623  -11.9331   18.6426 S   0  0  0  0  0  0  0  0  0  0  0  0
    7.6049  -13.4574   18.1527 C   0  0  0  0  0  0  0  0  0  0  0  0
    7.2319  -14.1969   19.3983 C   0  0  0  0  0  0  0  0  0  0  0  0
    8.3320  -15.1229   19.8765 C   0  0  2  0  0  0  0  0  0  0  0  0
    8.6490  -16.1184   18.9036 N   0  0  0  0  0  0  0  0  0  0  0  0
    7.9546  -15.7261   21.2057 C   0  0  0  0  0  0  0  0  0  0  0  0
    6.8549  -15.4224   21.7294 O   0  0  0  0  0  0  0  0  0  0  0  0
    8.8276  -16.6298   21.8675 N   0  0  0  0  0  0  0  0  0  0  0  0
    8.5625  -17.2283   23.1361 C   0  0  1  0  0  0  0  0  0  0  0  0
    9.1136  -18.5934   23.3444 C   0  0  0  0  0  0  0  0  0  0  0  0
    8.7773  -19.2446   24.6082 C   0  0  0  0  0  0  0  0  0  0  0  0
    7.4943  -19.4582   25.0687 C   0  0  0  0  0  0  0  0  0  0  0  0
    7.5895  -20.0735   26.2586 N   0  0  0  0  0  0  0  0  0  0  0  0
    8.9017  -20.2587   26.5705 C   0  0  0  0  0  0  0  0  0  0  0  0
    9.6151  -19.7374   25.5337 N   0  0  0  0  0  0  0  0  0  0  0  0
    8.8395  -16.2735   24.2538 C   0  0  0  0  0  0  0  0  0  0  0  0
    9.9447  -15.7006   24.3880 O   0  0  0  0  0  0  0  0  0  0  0  0
    6.9188  -13.1387   25.2591 C   0  0  0  0  0  0  0  0  0  0  0  0
    6.9431  -14.0430   26.4728 C   0  0  1  0  0  0  0  0  0  0  0  0
    5.7565  -14.8021   26.4706 O   0  0  0  0  0  0  0  0  0  0  0  0
    8.0937  -15.0020   26.3062 C   0  0  2  0  0  0  0  0  0  0  0  0
    7.8614  -15.9545   25.2385 N   0  0  0  0  0  0  0  0  0  0  0  0
    8.4058  -15.6764   27.5856 C   0  0  0  0  0  0  0  0  0  0  0  0
    8.7607  -14.9365   28.7074 O   0  0  0  0  0  0  0  0  0  0  0  0
    8.3513  -16.9192   27.6634 O   0  0  0  0  0  0  0  0  0  0  0  0
  2  1  1  0
  3  2  1  0
  4  3  1  0
  4  5  1  0
  5  6  1  6
  7  5  1  0
  7  8  2  0
  9  7  1  0
 10  9  1  0
 11 12  1  0
 10 11  1  1
 12 16  1  0
 13 12  2  0
 13 14  1  0
 14 15  1  0
 16 15  2  0
 17 10  1  0
 18 17  2  0
 20 21  1  0
 20 19  1  6
 22 23  1  6
 22 20  1  0
 23 17  1  0
 24 22  1  0
 25 24  1  0
 26 24  2  0
M  END
$$$$
