GIE.pdb
     RDKit          3D

 22 21  0  0  1  0  0  0  0  0999 V2000
    8.0671  -15.8016   20.0869 N   0  0  0  0  0  0  0  0  0  0  0  0
    7.2569  -15.8298   21.2771 C   0  0  0  0  0  0  0  0  0  0  0  0
    8.0834  -15.3303   22.4235 C   0  0  0  0  0  0  0  0  0  0  0  0
    9.3239  -15.4118   22.2955 O   0  0  0  0  0  0  0  0  0  0  0  0
    7.1015  -11.7212   27.3328 C   0  0  0  0  0  0  0  0  0  0  0  0
    7.9827  -12.6830   26.5560 C   0  0  0  0  0  0  0  0  0  0  0  0
    7.1605  -13.4275   25.5027 C   0  0  2  0  0  0  0  0  0  0  0  0
    6.0474  -14.1528   26.2374 C   0  0  0  0  0  0  0  0  0  0  0  0
    8.0934  -14.3123   24.7491 C   0  0  2  0  0  0  0  0  0  0  0  0
    7.4244  -14.8052   23.5634 N   0  0  0  0  0  0  0  0  0  0  0  0
    8.7254  -15.3977   25.4979 C   0  0  0  0  0  0  0  0  0  0  0  0
    8.0222  -16.4039   25.7740 O   0  0  0  0  0  0  0  0  0  0  0  0
   10.0666  -15.3950   25.9292 N   0  0  0  0  0  0  0  0  0  0  0  0
   10.7189  -16.5432   26.5609 C   0  0  1  0  0  0  0  0  0  0  0  0
   12.1271  -16.5584   26.0808 C   0  0  0  0  0  0  0  0  0  0  0  0
   12.3571  -16.9774   24.6706 C   0  0  0  0  0  0  0  0  0  0  0  0
   13.3931  -16.1624   24.0319 C   0  0  0  0  0  0  0  0  0  0  0  0
   14.2332  -15.5234   24.6891 O   0  0  0  0  0  0  0  0  0  0  0  0
   10.6800  -16.4446   28.0553 C   0  0  0  0  0  0  0  0  0  0  0  0
   11.1810  -17.3349   28.7863 O   0  0  0  0  0  0  0  0  0  0  0  0
   13.4291  -16.1083   22.6232 O   0  0  0  0  0  0  0  0  0  0  0  0
   10.0940  -15.3806   28.7220 O   0  0  0  0  0  0  0  0  0  0  0  0
  2  3  1  0
  2  1  1  0
  3 10  1  0
  4  3  2  0
  6  5  1  0
  7  6  1  0
  7  8  1  1
  9  7  1  0
  9 11  1  0
  9 10  1  6
 11 13  1  0
 11 12  2  0
 13 14  1  0
 14 19  1  0
 14 15  1  6
 16 15  1  0
 17 21  1  0
 17 16  1  0
 18 17  2  0
 19 22  1  0
 20 19  2  0
M  END
$$$$
