GIE.pdb
     RDKit          3D

 22 21  0  0  1  0  0  0  0  0999 V2000
    7.0593  -15.2429   20.3937 N   0  0  0  0  0  0  0  0  0  0  0  0
    6.4935  -15.3914   21.7096 C   0  0  0  0  0  0  0  0  0  0  0  0
    7.5228  -14.9746   22.7164 C   0  0  0  0  0  0  0  0  0  0  0  0
    8.7130  -14.9830   22.3354 O   0  0  0  0  0  0  0  0  0  0  0  0
    5.7783  -11.5471   26.4630 C   0  0  0  0  0  0  0  0  0  0  0  0
    6.6847  -12.2969   25.5034 C   0  0  0  0  0  0  0  0  0  0  0  0
    7.2344  -13.5609   26.1665 C   0  0  2  0  0  0  0  0  0  0  0  0
    8.0693  -13.1142   27.3532 C   0  0  0  0  0  0  0  0  0  0  0  0
    7.9820  -14.3236   25.1268 C   0  0  2  0  0  0  0  0  0  0  0  0
    7.0961  -14.6027   24.0160 N   0  0  0  0  0  0  0  0  0  0  0  0
    8.6846  -15.5279   25.5674 C   0  0  0  0  0  0  0  0  0  0  0  0
    7.9908  -16.5389   25.8497 O   0  0  0  0  0  0  0  0  0  0  0  0
   10.0835  -15.6344   25.6955 N   0  0  0  0  0  0  0  0  0  0  0  0
   10.7728  -16.8695   26.0727 C   0  0  1  0  0  0  0  0  0  0  0  0
   12.1655  -16.7610   25.5601 C   0  0  0  0  0  0  0  0  0  0  0  0
   12.3320  -16.4568   24.1121 C   0  0  0  0  0  0  0  0  0  0  0  0
   13.7463  -16.4105   23.7338 C   0  0  0  0  0  0  0  0  0  0  0  0
   14.5252  -15.5520   24.1833 O   0  0  0  0  0  0  0  0  0  0  0  0
   10.7793  -17.0645   27.5582 C   0  0  0  0  0  0  0  0  0  0  0  0
   10.3934  -16.1616   28.3416 O   0  0  0  0  0  0  0  0  0  0  0  0
   14.2295  -17.3775   22.8281 O   0  0  0  0  0  0  0  0  0  0  0  0
   11.2084  -18.2370   28.1589 O   0  0  0  0  0  0  0  0  0  0  0  0
  2  3  1  0
  2  1  1  0
  3 10  1  0
  4  3  2  0
  6  5  1  0
  7  6  1  0
  7  8  1  1
  9  7  1  0
  9 11  1  0
  9 10  1  6
 11 13  1  0
 11 12  2  0
 13 14  1  0
 14 19  1  0
 14 15  1  1
 16 15  1  0
 17 21  1  0
 17 16  1  0
 18 17  2  0
 19 22  1  0
 20 19  2  0
M  END
$$$$
