GIE.pdb
     RDKit          3D

 22 21  0  0  1  0  0  0  0  0999 V2000
    7.9776  -18.4961   16.9966 N   0  0  0  0  0  0  0  0  0  0  0  0
    7.2451  -17.8926   18.0796 C   0  0  0  0  0  0  0  0  0  0  0  0
    8.2235  -17.2222   18.9963 C   0  0  0  0  0  0  0  0  0  0  0  0
    9.3962  -17.6536   18.9742 O   0  0  0  0  0  0  0  0  0  0  0  0
    7.2012  -12.0292   20.1488 C   0  0  0  0  0  0  0  0  0  0  0  0
    7.9833  -13.3102   19.9203 C   0  0  0  0  0  0  0  0  0  0  0  0
    7.9407  -14.1912   21.1700 C   0  0  2  0  0  0  0  0  0  0  0  0
    8.6316  -13.4216   22.2813 C   0  0  0  0  0  0  0  0  0  0  0  0
    8.5760  -15.4937   20.8219 C   0  0  2  0  0  0  0  0  0  0  0  0
    7.7719  -16.1595   19.8185 N   0  0  0  0  0  0  0  0  0  0  0  0
    8.8980  -16.3899   21.9315 C   0  0  0  0  0  0  0  0  0  0  0  0
    7.9432  -16.8337   22.6203 O   0  0  0  0  0  0  0  0  0  0  0  0
   10.2024  -16.7917   22.2808 N   0  0  0  0  0  0  0  0  0  0  0  0
   10.4984  -17.7588   23.3390 C   0  0  1  0  0  0  0  0  0  0  0  0
   11.7308  -18.4847   22.9289 C   0  0  0  0  0  0  0  0  0  0  0  0
   12.7920  -17.6886   22.2529 C   0  0  0  0  0  0  0  0  0  0  0  0
   13.9662  -18.5098   21.9493 C   0  0  0  0  0  0  0  0  0  0  0  0
   13.9041  -19.5087   21.2115 O   0  0  0  0  0  0  0  0  0  0  0  0
   10.7082  -17.0827   24.6595 C   0  0  0  0  0  0  0  0  0  0  0  0
   10.9272  -17.7399   25.7073 O   0  0  0  0  0  0  0  0  0  0  0  0
   15.2038  -18.1456   22.5189 O   0  0  0  0  0  0  0  0  0  0  0  0
   10.6723  -15.7059   24.8114 O   0  0  0  0  0  0  0  0  0  0  0  0
  2  3  1  0
  2  1  1  0
  3 10  1  0
  4  3  2  0
  6  5  1  0
  7  6  1  0
  7  8  1  1
  9  7  1  0
  9 11  1  0
  9 10  1  6
 11 13  1  0
 11 12  2  0
 13 14  1  0
 14 19  1  0
 14 15  1  6
 16 15  1  0
 17 21  1  0
 17 16  1  0
 18 17  2  0
 19 22  1  0
 20 19  2  0
M  END
$$$$
