GIE.pdb
     RDKit          3D

 22 21  0  0  1  0  0  0  0  0999 V2000
    4.5206  -18.3732   23.0928 N   0  0  0  0  0  0  0  0  0  0  0  0
    4.8443  -17.8042   24.3755 C   0  0  0  0  0  0  0  0  0  0  0  0
    5.9879  -16.8521   24.1952 C   0  0  0  0  0  0  0  0  0  0  0  0
    6.6397  -16.9558   23.1339 O   0  0  0  0  0  0  0  0  0  0  0  0
    5.7891  -12.0730   26.7865 C   0  0  0  0  0  0  0  0  0  0  0  0
    6.1525  -13.1379   25.7673 C   0  0  0  0  0  0  0  0  0  0  0  0
    7.2709  -14.0318   26.3056 C   0  0  2  0  0  0  0  0  0  0  0  0
    8.4812  -13.1436   26.5317 C   0  0  0  0  0  0  0  0  0  0  0  0
    7.4772  -15.1327   25.3223 C   0  0  2  0  0  0  0  0  0  0  0  0
    6.2590  -15.9082   25.2174 N   0  0  0  0  0  0  0  0  0  0  0  0
    8.6431  -15.9914   25.5259 C   0  0  0  0  0  0  0  0  0  0  0  0
    8.6160  -16.7935   26.4949 O   0  0  0  0  0  0  0  0  0  0  0  0
    9.7925  -15.9837   24.7113 N   0  0  0  0  0  0  0  0  0  0  0  0
   10.8495  -16.9934   24.7887 C   0  0  1  0  0  0  0  0  0  0  0  0
   11.7644  -16.7502   23.6407 C   0  0  0  0  0  0  0  0  0  0  0  0
   12.9413  -17.6530   23.5100 C   0  0  0  0  0  0  0  0  0  0  0  0
   13.7582  -17.3029   22.3458 C   0  0  0  0  0  0  0  0  0  0  0  0
   14.0431  -16.1254   22.0655 O   0  0  0  0  0  0  0  0  0  0  0  0
   11.6020  -16.9045   26.0811 C   0  0  0  0  0  0  0  0  0  0  0  0
   12.2369  -17.8859   26.5412 O   0  0  0  0  0  0  0  0  0  0  0  0
   14.2321  -18.3448   21.5222 O   0  0  0  0  0  0  0  0  0  0  0  0
   11.6447  -15.7503   26.8464 O   0  0  0  0  0  0  0  0  0  0  0  0
  2  3  1  0
  2  1  1  0
  3 10  1  0
  4  3  2  0
  6  5  1  0
  7  6  1  0
  7  8  1  6
  9  7  1  0
  9 11  1  0
  9 10  1  1
 11 13  1  0
 11 12  2  0
 13 14  1  0
 14 19  1  0
 14 15  1  6
 16 15  1  0
 17 21  1  0
 17 16  1  0
 18 17  2  0
 19 22  1  0
 20 19  2  0
M  END
$$$$
