GIE.pdb
     RDKit          3D

 22 21  0  0  1  0  0  0  0  0999 V2000
    6.7915  -16.2184   20.6540 N   0  0  0  0  0  0  0  0  0  0  0  0
    6.3486  -16.0426   22.0129 C   0  0  0  0  0  0  0  0  0  0  0  0
    7.4829  -15.4721   22.8097 C   0  0  0  0  0  0  0  0  0  0  0  0
    8.6142  -15.5128   22.2800 O   0  0  0  0  0  0  0  0  0  0  0  0
    6.0225  -12.7344   27.5954 C   0  0  0  0  0  0  0  0  0  0  0  0
    6.4472  -13.7427   26.5429 C   0  0  0  0  0  0  0  0  0  0  0  0
    7.5614  -13.1643   25.6690 C   0  0  2  0  0  0  0  0  0  0  0  0
    6.9265  -12.1144   24.7749 C   0  0  0  0  0  0  0  0  0  0  0  0
    8.1987  -14.3005   24.9450 C   0  0  2  0  0  0  0  0  0  0  0  0
    7.2132  -14.9305   24.0915 N   0  0  0  0  0  0  0  0  0  0  0  0
    8.9120  -15.2853   25.7571 C   0  0  0  0  0  0  0  0  0  0  0  0
    8.2288  -16.1645   26.3432 O   0  0  0  0  0  0  0  0  0  0  0  0
   10.3102  -15.3186   25.9267 N   0  0  0  0  0  0  0  0  0  0  0  0
   11.0062  -16.3173   26.7396 C   0  0  1  0  0  0  0  0  0  0  0  0
   12.4023  -16.3922   26.2305 C   0  0  0  0  0  0  0  0  0  0  0  0
   12.5803  -16.7148   24.7878 C   0  0  0  0  0  0  0  0  0  0  0  0
   13.9626  -16.4945   24.3563 C   0  0  0  0  0  0  0  0  0  0  0  0
   14.8341  -16.0504   25.1238 O   0  0  0  0  0  0  0  0  0  0  0  0
   11.0013  -15.9459   28.1910 C   0  0  0  0  0  0  0  0  0  0  0  0
   11.4512  -16.7223   29.0700 O   0  0  0  0  0  0  0  0  0  0  0  0
   14.3048  -16.7998   23.0227 O   0  0  0  0  0  0  0  0  0  0  0  0
   10.5041  -14.7385   28.6547 O   0  0  0  0  0  0  0  0  0  0  0  0
  2  3  1  0
  2  1  1  0
  3 10  1  0
  4  3  2  0
  6  5  1  0
  7  6  1  0
  7  8  1  6
  9  7  1  0
  9 11  1  0
  9 10  1  1
 11 13  1  0
 11 12  2  0
 13 14  1  0
 14 19  1  0
 14 15  1  6
 16 15  1  0
 17 21  1  0
 17 16  1  0
 18 17  2  0
 19 22  1  0
 20 19  2  0
M  END
$$$$
