GIE.pdb
     RDKit          3D

 22 21  0  0  1  0  0  0  0  0999 V2000
   10.0280  -18.4299   17.2090 N   0  0  0  0  0  0  0  0  0  0  0  0
    8.9600  -17.9889   18.0684 C   0  0  0  0  0  0  0  0  0  0  0  0
    9.5425  -17.1081   19.1323 C   0  0  0  0  0  0  0  0  0  0  0  0
   10.7897  -17.0536   19.1919 O   0  0  0  0  0  0  0  0  0  0  0  0
    6.6347  -12.7390   20.2484 C   0  0  0  0  0  0  0  0  0  0  0  0
    7.7929  -13.7036   20.0668 C   0  0  0  0  0  0  0  0  0  0  0  0
    7.9979  -14.5355   21.3338 C   0  0  2  0  0  0  0  0  0  0  0  0
    8.2887  -13.5632   22.4629 C   0  0  0  0  0  0  0  0  0  0  0  0
    9.0860  -15.5152   21.0556 C   0  0  2  0  0  0  0  0  0  0  0  0
    8.6638  -16.4022   19.9919 N   0  0  0  0  0  0  0  0  0  0  0  0
    9.6124  -16.2611   22.1978 C   0  0  0  0  0  0  0  0  0  0  0  0
    8.8783  -17.1481   22.7050 O   0  0  0  0  0  0  0  0  0  0  0  0
   10.8846  -16.0562   22.7676 N   0  0  0  0  0  0  0  0  0  0  0  0
   11.4464  -16.8990   23.8243 C   0  0  1  0  0  0  0  0  0  0  0  0
   12.8890  -16.5511   23.9335 C   0  0  0  0  0  0  0  0  0  0  0  0
   13.7268  -16.7484   22.7186 C   0  0  0  0  0  0  0  0  0  0  0  0
   15.1181  -16.3581   22.9582 C   0  0  0  0  0  0  0  0  0  0  0  0
   15.4782  -15.1683   22.9828 O   0  0  0  0  0  0  0  0  0  0  0  0
   10.7562  -16.6723   25.1345 C   0  0  0  0  0  0  0  0  0  0  0  0
   10.9969  -17.3893   26.1374 O   0  0  0  0  0  0  0  0  0  0  0  0
   16.0727  -17.3749   23.1667 O   0  0  0  0  0  0  0  0  0  0  0  0
    9.8165  -15.6718   25.3241 O   0  0  0  0  0  0  0  0  0  0  0  0
  2  3  1  0
  2  1  1  0
  3 10  1  0
  4  3  2  0
  6  5  1  0
  7  6  1  0
  7  8  1  1
  9  7  1  0
  9 11  1  0
  9 10  1  6
 11 13  1  0
 11 12  2  0
 13 14  1  0
 14 19  1  0
 14 15  1  1
 16 15  1  0
 17 21  1  0
 17 16  1  0
 18 17  2  0
 19 22  1  0
 20 19  2  0
M  END
$$$$
