YYM.pdb
     RDKit          3D

 33 34  0  0  1  0  0  0  0  0999 V2000
   10.5927  -23.4959   16.0174 O   0  0  0  0  0  0  0  0  0  0  0  0
   10.6386  -22.5120   17.0114 C   0  0  0  0  0  0  0  0  0  0  0  0
    9.5218  -22.2250   17.7490 C   0  0  0  0  0  0  0  0  0  0  0  0
    9.5249  -21.2535   18.7471 C   0  0  0  0  0  0  0  0  0  0  0  0
   10.6830  -20.5642   18.9977 C   0  0  0  0  0  0  0  0  0  0  0  0
   10.7663  -19.5175   20.0434 C   0  0  0  0  0  0  0  0  0  0  0  0
   10.0272  -18.2732   19.6190 C   0  0  2  0  0  0  0  0  0  0  0  0
   10.6414  -17.8038   18.3942 N   0  0  0  0  0  0  0  0  0  0  0  0
    9.9588  -17.2217   20.6281 C   0  0  0  0  0  0  0  0  0  0  0  0
   10.9435  -16.4125   20.7530 O   0  0  0  0  0  0  0  0  0  0  0  0
   11.7971  -20.8632   18.2488 C   0  0  0  0  0  0  0  0  0  0  0  0
   11.7954  -21.8233   17.2618 C   0  0  0  0  0  0  0  0  0  0  0  0
    6.3933  -11.6305   26.5459 O   0  0  0  0  0  0  0  0  0  0  0  0
    6.6022  -12.6718   25.6521 C   0  0  0  0  0  0  0  0  0  0  0  0
    7.0558  -12.3784   24.3612 C   0  0  0  0  0  0  0  0  0  0  0  0
    7.2682  -13.4026   23.4610 C   0  0  0  0  0  0  0  0  0  0  0  0
    7.0427  -14.7236   23.8036 C   0  0  0  0  0  0  0  0  0  0  0  0
    7.2584  -15.8294   22.8790 C   0  0  0  0  0  0  0  0  0  0  0  0
    8.6722  -15.9621   22.3665 C   0  0  2  0  0  0  0  0  0  0  0  0
    8.8196  -17.0786   21.4717 N   0  0  0  0  0  0  0  0  0  0  0  0
    9.7046  -15.9523   23.4052 C   0  0  0  0  0  0  0  0  0  0  0  0
   10.5212  -14.9987   23.4379 O   0  0  0  0  0  0  0  0  0  0  0  0
    6.5975  -14.9808   25.0786 C   0  0  0  0  0  0  0  0  0  0  0  0
    6.3729  -13.9846   26.0083 C   0  0  0  0  0  0  0  0  0  0  0  0
    9.8668  -13.7425   30.1482 C   0  0  0  0  0  0  0  0  0  0  0  0
   10.0818  -13.8334   28.3707 S   0  0  0  0  0  0  0  0  0  0  0  0
    9.9853  -15.4939   27.7255 C   0  0  0  0  0  0  0  0  0  0  0  0
   10.0883  -15.5512   26.2515 C   0  0  0  0  0  0  0  0  0  0  0  0
   10.6785  -16.7527   25.6090 C   0  0  2  0  0  0  0  0  0  0  0  0
    9.8426  -16.9609   24.3907 N   0  0  0  0  0  0  0  0  0  0  0  0
   10.7737  -17.9814   26.3737 C   0  0  0  0  0  0  0  0  0  0  0  0
    9.8724  -18.8803   26.2607 O   0  0  0  0  0  0  0  0  0  0  0  0
   11.8008  -18.2875   27.2512 O   0  0  0  0  0  0  0  0  0  0  0  0
  2  3  2  0
  2  1  1  0
  4  3  1  0
  5  4  2  0
  6  5  1  0
  7  6  1  0
  7  8  1  6
  9 20  1  0
  9  7  1  0
 10  9  2  0
 11  5  1  0
 11 12  2  0
 12  2  1  0
 14 13  1  0
 14 15  2  0
 16 15  1  0
 17 16  2  0
 18 17  1  0
 19 18  1  1
 19 20  1  0
 21 19  1  0
 21 30  1  0
 22 21  2  0
 23 24  2  0
 23 17  1  0
 24 14  1  0
 25 26  1  0
 26 27  1  0
 27 28  1  0
 29 28  1  1
 29 30  1  0
 29 31  1  0
 31 32  2  0
 31 33  1  0
M  END
$$$$
