YYM.pdb
     RDKit          3D

 33 34  0  0  1  0  0  0  0  0999 V2000
    8.4787  -11.1568   18.6515 O   0  0  0  0  0  0  0  0  0  0  0  0
    8.4692  -12.5557   18.6161 C   0  0  0  0  0  0  0  0  0  0  0  0
    9.3825  -13.2319   17.8530 C   0  0  0  0  0  0  0  0  0  0  0  0
    9.4073  -14.6231   17.7899 C   0  0  0  0  0  0  0  0  0  0  0  0
    8.4881  -15.3360   18.5150 C   0  0  0  0  0  0  0  0  0  0  0  0
    8.4511  -16.8174   18.5010 C   0  0  0  0  0  0  0  0  0  0  0  0
    7.3460  -17.3363   19.3867 C   0  0  2  0  0  0  0  0  0  0  0  0
    6.0919  -17.0637   18.7153 N   0  0  0  0  0  0  0  0  0  0  0  0
    7.3538  -16.8184   20.7506 C   0  0  0  0  0  0  0  0  0  0  0  0
    6.9860  -15.6098   20.9607 O   0  0  0  0  0  0  0  0  0  0  0  0
    7.5766  -14.6433   19.2770 C   0  0  0  0  0  0  0  0  0  0  0  0
    7.5509  -13.2680   19.3403 C   0  0  0  0  0  0  0  0  0  0  0  0
    6.9255  -15.3138   29.2607 O   0  0  0  0  0  0  0  0  0  0  0  0
    6.9081  -15.8776   27.9924 C   0  0  0  0  0  0  0  0  0  0  0  0
    7.3069  -17.2098   27.8355 C   0  0  0  0  0  0  0  0  0  0  0  0
    7.2950  -17.7845   26.5809 C   0  0  0  0  0  0  0  0  0  0  0  0
    6.8959  -17.0727   25.4641 C   0  0  0  0  0  0  0  0  0  0  0  0
    6.8694  -17.6488   24.1256 C   0  0  0  0  0  0  0  0  0  0  0  0
    7.9051  -17.0970   23.1760 C   0  0  2  0  0  0  0  0  0  0  0  0
    7.7595  -17.6310   21.8483 N   0  0  0  0  0  0  0  0  0  0  0  0
    9.2862  -17.1876   23.6547 C   0  0  0  0  0  0  0  0  0  0  0  0
   10.2089  -16.7413   22.9289 O   0  0  0  0  0  0  0  0  0  0  0  0
    6.5097  -15.7664   25.6494 C   0  0  0  0  0  0  0  0  0  0  0  0
    6.5074  -15.1549   26.8878 C   0  0  0  0  0  0  0  0  0  0  0  0
    9.8963  -12.9858   29.2787 C   0  0  0  0  0  0  0  0  0  0  0  0
    9.9692  -13.5612   27.5823 S   0  0  0  0  0  0  0  0  0  0  0  0
   10.2595  -15.3154   27.4370 C   0  0  0  0  0  0  0  0  0  0  0  0
   10.2646  -15.7893   26.0363 C   0  0  0  0  0  0  0  0  0  0  0  0
   10.7434  -17.1618   25.7337 C   0  0  2  0  0  0  0  0  0  0  0  0
    9.6542  -17.7513   24.9014 N   0  0  0  0  0  0  0  0  0  0  0  0
   11.0757  -18.0469   26.8335 C   0  0  0  0  0  0  0  0  0  0  0  0
   12.2545  -18.0444   27.3270 O   0  0  0  0  0  0  0  0  0  0  0  0
   10.1920  -18.9314   27.4296 O   0  0  0  0  0  0  0  0  0  0  0  0
  2  3  2  0
  2  1  1  0
  4  3  1  0
  5  4  2  0
  6  5  1  0
  7  6  1  0
  7  8  1  6
  9 20  1  0
  9  7  1  0
 10  9  2  0
 11  5  1  0
 11 12  2  0
 12  2  1  0
 14 13  1  0
 14 15  2  0
 16 15  1  0
 17 16  2  0
 18 17  1  0
 19 18  1  1
 19 20  1  0
 21 19  1  0
 21 30  1  0
 22 21  2  0
 23 24  2  0
 23 17  1  0
 24 14  1  0
 25 26  1  0
 26 27  1  0
 27 28  1  0
 29 28  1  1
 29 30  1  0
 29 31  1  0
 31 32  2  0
 31 33  1  0
M  END
$$$$
