YYM.pdb
     RDKit          3D

 33 34  0  0  1  0  0  0  0  0999 V2000
    7.8855  -13.0968   15.5424 O   0  0  0  0  0  0  0  0  0  0  0  0
    7.6337  -13.4794   16.8647 C   0  0  0  0  0  0  0  0  0  0  0  0
    8.0683  -12.6997   17.9025 C   0  0  0  0  0  0  0  0  0  0  0  0
    7.8386  -13.0443   19.2323 C   0  0  0  0  0  0  0  0  0  0  0  0
    7.1559  -14.2003   19.5092 C   0  0  0  0  0  0  0  0  0  0  0  0
    6.8712  -14.6340   20.8973 C   0  0  0  0  0  0  0  0  0  0  0  0
    8.1206  -15.1497   21.5666 C   0  0  2  0  0  0  0  0  0  0  0  0
    8.6684  -16.1862   20.7162 N   0  0  0  0  0  0  0  0  0  0  0  0
    7.9395  -15.6137   22.9379 C   0  0  0  0  0  0  0  0  0  0  0  0
    7.4048  -14.8282   23.7964 O   0  0  0  0  0  0  0  0  0  0  0  0
    6.7253  -14.9736   18.4566 C   0  0  0  0  0  0  0  0  0  0  0  0
    6.9517  -14.6343   17.1415 C   0  0  0  0  0  0  0  0  0  0  0  0
    8.1242  -20.8269   30.1051 O   0  0  0  0  0  0  0  0  0  0  0  0
    8.1600  -20.3417   28.8050 C   0  0  0  0  0  0  0  0  0  0  0  0
    9.3884  -20.2757   28.1380 C   0  0  0  0  0  0  0  0  0  0  0  0
    9.4405  -19.7957   26.8452 C   0  0  0  0  0  0  0  0  0  0  0  0
    8.3005  -19.3742   26.1849 C   0  0  0  0  0  0  0  0  0  0  0  0
    8.3190  -18.8641   24.8197 C   0  0  0  0  0  0  0  0  0  0  0  0
    8.2528  -17.3604   24.7027 C   0  0  2  0  0  0  0  0  0  0  0  0
    8.3434  -16.9206   23.3362 N   0  0  0  0  0  0  0  0  0  0  0  0
    9.1805  -16.6360   25.5742 C   0  0  0  0  0  0  0  0  0  0  0  0
   10.3740  -16.4997   25.2076 O   0  0  0  0  0  0  0  0  0  0  0  0
    7.1085  -19.4510   26.8655 C   0  0  0  0  0  0  0  0  0  0  0  0
    7.0144  -19.9249   28.1593 C   0  0  0  0  0  0  0  0  0  0  0  0
    5.9482  -11.3229   26.5203 C   0  0  0  0  0  0  0  0  0  0  0  0
    7.0643  -12.0788   27.7023 S   0  0  0  0  0  0  0  0  0  0  0  0
    8.0519  -13.3930   27.0096 C   0  0  0  0  0  0  0  0  0  0  0  0
    8.9302  -14.0457   28.0042 C   0  0  0  0  0  0  0  0  0  0  0  0
    9.7563  -15.2092   27.5938 C   0  0  2  0  0  0  0  0  0  0  0  0
    8.8138  -16.0690   26.8198 N   0  0  0  0  0  0  0  0  0  0  0  0
   10.4282  -15.9878   28.6166 C   0  0  0  0  0  0  0  0  0  0  0  0
   11.4221  -15.4945   29.2506 O   0  0  0  0  0  0  0  0  0  0  0  0
   10.0728  -17.2731   28.9910 O   0  0  0  0  0  0  0  0  0  0  0  0
  2  3  2  0
  2  1  1  0
  4  3  1  0
  5  4  2  0
  6  5  1  0
  7  6  1  0
  7  8  1  6
  9 20  1  0
  9  7  1  0
 10  9  2  0
 11  5  1  0
 11 12  2  0
 12  2  1  0
 14 13  1  0
 14 15  2  0
 16 15  1  0
 17 16  2  0
 18 17  1  0
 19 18  1  6
 19 20  1  0
 21 19  1  0
 21 30  1  0
 22 21  2  0
 23 24  2  0
 23 17  1  0
 24 14  1  0
 25 26  1  0
 26 27  1  0
 27 28  1  0
 29 28  1  1
 29 30  1  0
 29 31  1  0
 31 32  2  0
 31 33  1  0
M  END
$$$$
