YYM.pdb
     RDKit          3D

 33 34  0  0  1  0  0  0  0  0999 V2000
    8.5389  -13.5548   15.2988 O   0  0  0  0  0  0  0  0  0  0  0  0
    8.4271  -13.7807   16.6753 C   0  0  0  0  0  0  0  0  0  0  0  0
    9.0508  -14.8549   17.2504 C   0  0  0  0  0  0  0  0  0  0  0  0
    8.9648  -15.1156   18.6159 C   0  0  0  0  0  0  0  0  0  0  0  0
    8.2325  -14.2693   19.4075 C   0  0  0  0  0  0  0  0  0  0  0  0
    8.0946  -14.4785   20.8681 C   0  0  0  0  0  0  0  0  0  0  0  0
    7.3722  -15.7699   21.1605 C   0  0  2  0  0  0  0  0  0  0  0  0
    6.0400  -15.6538   20.6043 N   0  0  0  0  0  0  0  0  0  0  0  0
    7.3401  -16.1540   22.5676 C   0  0  0  0  0  0  0  0  0  0  0  0
    6.5153  -15.5704   23.3545 O   0  0  0  0  0  0  0  0  0  0  0  0
    7.6114  -13.1942   18.8160 C   0  0  0  0  0  0  0  0  0  0  0  0
    7.6955  -12.9353   17.4663 C   0  0  0  0  0  0  0  0  0  0  0  0
    9.1864  -20.2776   30.1828 O   0  0  0  0  0  0  0  0  0  0  0  0
    9.0319  -19.9419   28.8448 C   0  0  0  0  0  0  0  0  0  0  0  0
   10.1718  -19.7201   28.0639 C   0  0  0  0  0  0  0  0  0  0  0  0
   10.0346  -19.3855   26.7321 C   0  0  0  0  0  0  0  0  0  0  0  0
    8.7893  -19.2624   26.1429 C   0  0  0  0  0  0  0  0  0  0  0  0
    8.6082  -18.9128   24.7397 C   0  0  0  0  0  0  0  0  0  0  0  0
    8.2783  -17.4620   24.4841 C   0  0  2  0  0  0  0  0  0  0  0  0
    8.2049  -17.1643   23.0787 N   0  0  0  0  0  0  0  0  0  0  0  0
    9.1219  -16.5052   25.2036 C   0  0  0  0  0  0  0  0  0  0  0  0
   10.2802  -16.2777   24.7749 O   0  0  0  0  0  0  0  0  0  0  0  0
    7.6882  -19.4863   26.9350 C   0  0  0  0  0  0  0  0  0  0  0  0
    7.7830  -19.8228   28.2711 C   0  0  0  0  0  0  0  0  0  0  0  0
    5.5521  -11.9003   26.5194 C   0  0  0  0  0  0  0  0  0  0  0  0
    6.8944  -11.7954   27.7032 S   0  0  0  0  0  0  0  0  0  0  0  0
    7.7410  -13.3448   27.9593 C   0  0  0  0  0  0  0  0  0  0  0  0
    8.8605  -13.5576   27.0170 C   0  0  0  0  0  0  0  0  0  0  0  0
    9.6108  -14.8383   27.0552 C   0  0  2  0  0  0  0  0  0  0  0  0
    8.7100  -15.8080   26.3663 N   0  0  0  0  0  0  0  0  0  0  0  0
   10.0346  -15.3647   28.3385 C   0  0  0  0  0  0  0  0  0  0  0  0
    9.4299  -16.3656   28.8541 O   0  0  0  0  0  0  0  0  0  0  0  0
   11.0856  -14.8639   29.0890 O   0  0  0  0  0  0  0  0  0  0  0  0
  2  3  2  0
  2  1  1  0
  4  3  1  0
  5  4  2  0
  6  5  1  0
  7  6  1  0
  7  8  1  1
  9 20  1  0
  9  7  1  0
 10  9  2  0
 11  5  1  0
 11 12  2  0
 12  2  1  0
 14 13  1  0
 14 15  2  0
 16 15  1  0
 17 16  2  0
 18 17  1  0
 19 18  1  6
 19 20  1  0
 21 19  1  0
 21 30  1  0
 22 21  2  0
 23 24  2  0
 23 17  1  0
 24 14  1  0
 25 26  1  0
 26 27  1  0
 27 28  1  0
 29 28  1  1
 29 30  1  0
 29 31  1  0
 31 32  2  0
 31 33  1  0
M  END
$$$$
