YYM.pdb
     RDKit          3D

 33 34  0  0  1  0  0  0  0  0999 V2000
    8.4277  -16.7342   14.5544 O   0  0  0  0  0  0  0  0  0  0  0  0
    8.6787  -17.0796   15.8871 C   0  0  0  0  0  0  0  0  0  0  0  0
    8.6076  -16.1299   16.8703 C   0  0  0  0  0  0  0  0  0  0  0  0
    8.8501  -16.4317   18.2082 C   0  0  0  0  0  0  0  0  0  0  0  0
    9.1696  -17.7203   18.5498 C   0  0  0  0  0  0  0  0  0  0  0  0
    9.4399  -18.1201   19.9509 C   0  0  0  0  0  0  0  0  0  0  0  0
   10.8182  -17.6817   20.3789 C   0  0  2  0  0  0  0  0  0  0  0  0
   11.7332  -18.7552   20.0500 N   0  0  0  0  0  0  0  0  0  0  0  0
   10.9322  -17.2824   21.7775 C   0  0  0  0  0  0  0  0  0  0  0  0
   10.9692  -18.1870   22.6832 O   0  0  0  0  0  0  0  0  0  0  0  0
    9.2373  -18.6638   17.5515 C   0  0  0  0  0  0  0  0  0  0  0  0
    8.9980  -18.3668   16.2284 C   0  0  0  0  0  0  0  0  0  0  0  0
    6.7383  -12.4100   18.3619 O   0  0  0  0  0  0  0  0  0  0  0  0
    7.2091  -13.1926   19.4073 C   0  0  0  0  0  0  0  0  0  0  0  0
    6.5920  -14.4214   19.6674 C   0  0  0  0  0  0  0  0  0  0  0  0
    7.0485  -15.2108   20.7032 C   0  0  0  0  0  0  0  0  0  0  0  0
    8.1093  -14.8166   21.4985 C   0  0  0  0  0  0  0  0  0  0  0  0
    8.6180  -15.6260   22.5986 C   0  0  0  0  0  0  0  0  0  0  0  0
   10.0315  -15.3063   23.0216 C   0  0  2  0  0  0  0  0  0  0  0  0
   11.0051  -15.9095   22.1514 N   0  0  0  0  0  0  0  0  0  0  0  0
   10.3228  -15.5658   24.4332 C   0  0  0  0  0  0  0  0  0  0  0  0
   10.3528  -14.5979   25.2329 O   0  0  0  0  0  0  0  0  0  0  0  0
    8.6953  -13.6048   21.2188 C   0  0  0  0  0  0  0  0  0  0  0  0
    8.2684  -12.7860   20.1919 C   0  0  0  0  0  0  0  0  0  0  0  0
    9.7245  -12.7039   28.7312 C   0  0  0  0  0  0  0  0  0  0  0  0
    9.6199  -13.9311   27.4284 S   0  0  0  0  0  0  0  0  0  0  0  0
    9.3468  -15.5879   28.0307 C   0  0  0  0  0  0  0  0  0  0  0  0
    9.3624  -16.6058   26.9583 C   0  0  0  0  0  0  0  0  0  0  0  0
   10.6639  -17.0912   26.4340 C   0  0  2  0  0  0  0  0  0  0  0  0
   10.5738  -16.8556   24.9633 N   0  0  0  0  0  0  0  0  0  0  0  0
   11.0625  -18.4594   26.7041 C   0  0  0  0  0  0  0  0  0  0  0  0
   11.2660  -18.8442   27.9056 O   0  0  0  0  0  0  0  0  0  0  0  0
   11.2460  -19.4336   25.7368 O   0  0  0  0  0  0  0  0  0  0  0  0
  2  3  2  0
  2  1  1  0
  4  3  1  0
  5  4  2  0
  6  5  1  0
  7  6  1  0
  7  8  1  1
  9 20  1  0
  9  7  1  0
 10  9  2  0
 11  5  1  0
 11 12  2  0
 12  2  1  0
 14 13  1  0
 14 15  2  0
 16 15  1  0
 17 16  2  0
 18 17  1  0
 19 18  1  6
 19 20  1  0
 21 19  1  0
 21 30  1  0
 22 21  2  0
 23 24  2  0
 23 17  1  0
 24 14  1  0
 25 26  1  0
 26 27  1  0
 27 28  1  0
 29 28  1  1
 29 30  1  0
 29 31  1  0
 31 32  2  0
 31 33  1  0
M  END
$$$$
