YYM.pdb
     RDKit          3D

 33 34  0  0  1  0  0  0  0  0999 V2000
    8.6302  -13.3111   15.2803 O   0  0  0  0  0  0  0  0  0  0  0  0
    8.4268  -13.5920   16.6360 C   0  0  0  0  0  0  0  0  0  0  0  0
    9.0168  -14.6861   17.2092 C   0  0  0  0  0  0  0  0  0  0  0  0
    8.8401  -15.0012   18.5544 C   0  0  0  0  0  0  0  0  0  0  0  0
    8.0508  -14.1896   19.3272 C   0  0  0  0  0  0  0  0  0  0  0  0
    7.8156  -14.4574   20.7656 C   0  0  0  0  0  0  0  0  0  0  0  0
    7.2477  -15.8397   20.9696 C   0  0  2  0  0  0  0  0  0  0  0  0
    5.9556  -15.8754   20.3162 N   0  0  0  0  0  0  0  0  0  0  0  0
    7.1636  -16.2734   22.3600 C   0  0  0  0  0  0  0  0  0  0  0  0
    6.2834  -15.7451   23.1257 O   0  0  0  0  0  0  0  0  0  0  0  0
    7.4645  -13.0940   18.7379 C   0  0  0  0  0  0  0  0  0  0  0  0
    7.6382  -12.7813   17.4082 C   0  0  0  0  0  0  0  0  0  0  0  0
    9.0715  -20.5311   29.9037 O   0  0  0  0  0  0  0  0  0  0  0  0
    8.8640  -20.1723   28.5790 C   0  0  0  0  0  0  0  0  0  0  0  0
    9.9708  -20.0040   27.7393 C   0  0  0  0  0  0  0  0  0  0  0  0
    9.7810  -19.6473   26.4198 C   0  0  0  0  0  0  0  0  0  0  0  0
    8.5145  -19.4499   25.9000 C   0  0  0  0  0  0  0  0  0  0  0  0
    8.2778  -19.0750   24.5116 C   0  0  0  0  0  0  0  0  0  0  0  0
    8.0748  -17.5974   24.2786 C   0  0  2  0  0  0  0  0  0  0  0  0
    8.0383  -17.2716   22.8780 N   0  0  0  0  0  0  0  0  0  0  0  0
    8.9910  -16.7280   25.0198 C   0  0  0  0  0  0  0  0  0  0  0  0
   10.1999  -16.6935   24.6810 O   0  0  0  0  0  0  0  0  0  0  0  0
    7.4468  -19.6226   26.7487 C   0  0  0  0  0  0  0  0  0  0  0  0
    7.5946  -19.9789   28.0748 C   0  0  0  0  0  0  0  0  0  0  0  0
    5.7728  -11.0918   27.1194 C   0  0  0  0  0  0  0  0  0  0  0  0
    7.4528  -11.5776   26.7249 S   0  0  0  0  0  0  0  0  0  0  0  0
    7.7615  -13.3204   26.9487 C   0  0  0  0  0  0  0  0  0  0  0  0
    9.1626  -13.7025   26.6704 C   0  0  0  0  0  0  0  0  0  0  0  0
    9.5894  -15.1088   26.8816 C   0  0  2  0  0  0  0  0  0  0  0  0
    8.5968  -15.9100   26.1075 N   0  0  0  0  0  0  0  0  0  0  0  0
    9.6994  -15.6121   28.2375 C   0  0  0  0  0  0  0  0  0  0  0  0
    8.8284  -16.4292   28.6923 O   0  0  0  0  0  0  0  0  0  0  0  0
   10.7100  -15.2784   29.1238 O   0  0  0  0  0  0  0  0  0  0  0  0
  2  3  2  0
  2  1  1  0
  4  3  1  0
  5  4  2  0
  6  5  1  0
  7  6  1  0
  7  8  1  1
  9 20  1  0
  9  7  1  0
 10  9  2  0
 11  5  1  0
 11 12  2  0
 12  2  1  0
 14 13  1  0
 14 15  2  0
 16 15  1  0
 17 16  2  0
 18 17  1  0
 19 18  1  6
 19 20  1  0
 21 19  1  0
 21 30  1  0
 22 21  2  0
 23 24  2  0
 23 17  1  0
 24 14  1  0
 25 26  1  0
 26 27  1  0
 27 28  1  0
 29 28  1  1
 29 30  1  0
 29 31  1  0
 31 32  2  0
 31 33  1  0
M  END
$$$$
