YYM.pdb
     RDKit          3D

 33 34  0  0  1  0  0  0  0  0999 V2000
    8.2538  -13.5882   14.9229 O   0  0  0  0  0  0  0  0  0  0  0  0
    8.2423  -13.8798   16.2915 C   0  0  0  0  0  0  0  0  0  0  0  0
    7.3078  -13.3059   17.1107 C   0  0  0  0  0  0  0  0  0  0  0  0
    7.2618  -13.5693   18.4776 C   0  0  0  0  0  0  0  0  0  0  0  0
    8.1814  -14.4302   19.0182 C   0  0  0  0  0  0  0  0  0  0  0  0
    8.1965  -14.7617   20.4625 C   0  0  0  0  0  0  0  0  0  0  0  0
    8.0478  -16.2476   20.6748 C   0  0  2  0  0  0  0  0  0  0  0  0
    6.7546  -16.6309   20.1473 N   0  0  0  0  0  0  0  0  0  0  0  0
    8.2251  -16.6949   22.0521 C   0  0  0  0  0  0  0  0  0  0  0  0
    7.2716  -16.5259   22.8902 O   0  0  0  0  0  0  0  0  0  0  0  0
    9.1142  -14.9994   18.1832 C   0  0  0  0  0  0  0  0  0  0  0  0
    9.1610  -14.7399   16.8317 C   0  0  0  0  0  0  0  0  0  0  0  0
   11.6850  -20.4457   29.2784 O   0  0  0  0  0  0  0  0  0  0  0  0
   11.4276  -20.0426   27.9753 C   0  0  0  0  0  0  0  0  0  0  0  0
   12.3846  -19.2774   27.2992 C   0  0  0  0  0  0  0  0  0  0  0  0
   12.1434  -18.8690   26.0033 C   0  0  0  0  0  0  0  0  0  0  0  0
   10.9704  -19.1986   25.3486 C   0  0  0  0  0  0  0  0  0  0  0  0
   10.6841  -18.7858   23.9804 C   0  0  0  0  0  0  0  0  0  0  0  0
    9.6538  -17.6903   23.8500 C   0  0  2  0  0  0  0  0  0  0  0  0
    9.4345  -17.3157   22.4786 N   0  0  0  0  0  0  0  0  0  0  0  0
    9.8860  -16.5248   24.7059 C   0  0  0  0  0  0  0  0  0  0  0  0
   10.8555  -15.7689   24.4492 O   0  0  0  0  0  0  0  0  0  0  0  0
   10.0493  -19.9510   26.0382 C   0  0  0  0  0  0  0  0  0  0  0  0
   10.2528  -20.3792   27.3353 C   0  0  0  0  0  0  0  0  0  0  0  0
    6.9439  -10.1818   26.9565 C   0  0  0  0  0  0  0  0  0  0  0  0
    7.1216  -11.8222   26.2552 S   0  0  0  0  0  0  0  0  0  0  0  0
    7.8673  -12.9971   27.3716 C   0  0  0  0  0  0  0  0  0  0  0  0
    7.9844  -14.3534   26.7941 C   0  0  0  0  0  0  0  0  0  0  0  0
    9.3293  -14.9594   26.6258 C   0  0  2  0  0  0  0  0  0  0  0  0
    9.0756  -16.1884   25.8184 N   0  0  0  0  0  0  0  0  0  0  0  0
   10.1063  -15.2815   27.8074 C   0  0  0  0  0  0  0  0  0  0  0  0
    9.9786  -16.4221   28.3695 O   0  0  0  0  0  0  0  0  0  0  0  0
   11.0197  -14.4306   28.4076 O   0  0  0  0  0  0  0  0  0  0  0  0
  2  3  2  0
  2  1  1  0
  4  3  1  0
  5  4  2  0
  6  5  1  0
  7  6  1  0
  7  8  1  1
  9 20  1  0
  9  7  1  0
 10  9  2  0
 11  5  1  0
 11 12  2  0
 12  2  1  0
 14 13  1  0
 14 15  2  0
 16 15  1  0
 17 16  2  0
 18 17  1  0
 19 18  1  6
 19 20  1  0
 21 19  1  0
 21 30  1  0
 22 21  2  0
 23 24  2  0
 23 17  1  0
 24 14  1  0
 25 26  1  0
 26 27  1  0
 27 28  1  0
 29 28  1  1
 29 30  1  0
 29 31  1  0
 31 32  2  0
 31 33  1  0
M  END
$$$$
