ESR.pdb
     RDKit          3D

 27 26  0  0  1  0  0  0  0  0999 V2000
   13.5288  -19.0913   18.2481 N   0  0  0  0  0  0  0  0  0  0  0  0
   13.1273  -17.7357   18.4142 C   0  0  1  0  0  0  0  0  0  0  0  0
   12.6225  -17.1420   17.1564 C   0  0  0  0  0  0  0  0  0  0  0  0
   12.3463  -18.0989   16.0456 C   0  0  0  0  0  0  0  0  0  0  0  0
   11.8186  -17.5423   14.7967 C   0  0  0  0  0  0  0  0  0  0  0  0
   10.6919  -17.0273   14.6258 O   0  0  0  0  0  0  0  0  0  0  0  0
   12.1270  -17.6873   19.5190 C   0  0  0  0  0  0  0  0  0  0  0  0
   11.6397  -16.5930   19.9219 O   0  0  0  0  0  0  0  0  0  0  0  0
   12.6222  -17.5598   13.6236 O   0  0  0  0  0  0  0  0  0  0  0  0
    8.9841  -20.0094   22.2594 O   0  0  0  0  0  0  0  0  0  0  0  0
    9.9909  -20.1210   21.2908 C   0  0  0  0  0  0  0  0  0  0  0  0
   10.7931  -18.8101   21.3243 C   0  0  2  0  0  0  0  0  0  0  0  0
   11.6617  -18.8559   20.1833 N   0  0  0  0  0  0  0  0  0  0  0  0
   11.4859  -18.7797   22.6211 C   0  0  0  0  0  0  0  0  0  0  0  0
   12.6308  -19.2194   22.8547 O   0  0  0  0  0  0  0  0  0  0  0  0
    9.7197  -13.5254   27.6257 N   0  0  0  0  0  0  0  0  0  0  0  0
    9.9921  -14.1488   28.8603 C   0  0  0  0  0  0  0  0  0  0  0  0
    9.4581  -13.7074   29.9545 N   0  0  0  0  0  0  0  0  0  0  0  0
   10.8615  -15.2698   28.9233 N   0  0  0  0  0  0  0  0  0  0  0  0
   10.4804  -16.5302   28.3565 C   0  0  0  0  0  0  0  0  0  0  0  0
   11.3544  -17.0161   27.2524 C   0  0  0  0  0  0  0  0  0  0  0  0
   10.7071  -17.1000   25.9047 C   0  0  0  0  0  0  0  0  0  0  0  0
   11.3662  -18.1512   25.0347 C   0  0  2  0  0  0  0  0  0  0  0  0
   10.7784  -18.1916   23.7104 N   0  0  0  0  0  0  0  0  0  0  0  0
   11.1172  -19.4634   25.6839 C   0  0  0  0  0  0  0  0  0  0  0  0
   10.0261  -20.0761   25.5477 O   0  0  0  0  0  0  0  0  0  0  0  0
   12.0829  -20.0779   26.4755 O   0  0  0  0  0  0  0  0  0  0  0  0
  2  3  1  0
  2  1  1  6
  3  4  1  0
  4  5  1  0
  5  6  2  0
  5  9  1  0
  7  2  1  0
  7  8  2  0
 10 11  1  0
 12 11  1  1
 12 13  1  0
 12 14  1  0
 13  7  1  0
 14 24  1  0
 15 14  2  0
 16 17  1  0
 17 18  2  0
 19 20  1  0
 19 17  1  0
 21 22  1  0
 21 20  1  0
 23 22  1  1
 23 25  1  0
 24 23  1  0
 25 26  2  0
 25 27  1  0
M  END
$$$$
