ESR.pdb
     RDKit          3D

 27 26  0  0  1  0  0  0  0  0999 V2000
    6.8961  -20.4049   17.5339 N   0  0  0  0  0  0  0  0  0  0  0  0
    8.0863  -20.1289   18.2644 C   0  0  1  0  0  0  0  0  0  0  0  0
    9.0312  -19.2857   17.4994 C   0  0  0  0  0  0  0  0  0  0  0  0
    8.4761  -18.6133   16.2889 C   0  0  0  0  0  0  0  0  0  0  0  0
    9.3973  -17.7967   15.4935 C   0  0  0  0  0  0  0  0  0  0  0  0
   10.2392  -18.2111   14.6669 O   0  0  0  0  0  0  0  0  0  0  0  0
    7.6922  -19.5203   19.5674 C   0  0  0  0  0  0  0  0  0  0  0  0
    7.0228  -18.4496   19.6212 O   0  0  0  0  0  0  0  0  0  0  0  0
    9.3805  -16.3813   15.6304 O   0  0  0  0  0  0  0  0  0  0  0  0
    8.8708  -21.3217   23.0171 O   0  0  0  0  0  0  0  0  0  0  0  0
    7.6384  -20.6579   23.0878 C   0  0  0  0  0  0  0  0  0  0  0  0
    7.6932  -19.5009   22.0771 C   0  0  2  0  0  0  0  0  0  0  0  0
    8.0398  -20.0985   20.8196 N   0  0  0  0  0  0  0  0  0  0  0  0
    8.6825  -18.5437   22.5942 C   0  0  0  0  0  0  0  0  0  0  0  0
    9.9197  -18.6073   22.4386 O   0  0  0  0  0  0  0  0  0  0  0  0
    6.5695  -13.8980   19.7814 N   0  0  0  0  0  0  0  0  0  0  0  0
    7.4158  -12.7725   19.8440 C   0  0  0  0  0  0  0  0  0  0  0  0
    7.6711  -12.0788   18.7805 N   0  0  0  0  0  0  0  0  0  0  0  0
    8.0059  -12.3842   21.0758 N   0  0  0  0  0  0  0  0  0  0  0  0
    7.7380  -13.1109   22.2822 C   0  0  0  0  0  0  0  0  0  0  0  0
    8.5790  -14.3228   22.4893 C   0  0  0  0  0  0  0  0  0  0  0  0
    8.3729  -15.0386   23.7884 C   0  0  0  0  0  0  0  0  0  0  0  0
    9.0618  -16.3882   23.7962 C   0  0  2  0  0  0  0  0  0  0  0  0
    8.1751  -17.4414   23.3429 N   0  0  0  0  0  0  0  0  0  0  0  0
    9.4270  -16.6756   25.2066 C   0  0  0  0  0  0  0  0  0  0  0  0
    8.7024  -17.3887   25.9489 O   0  0  0  0  0  0  0  0  0  0  0  0
   10.5917  -16.1676   25.7741 O   0  0  0  0  0  0  0  0  0  0  0  0
  2  3  1  0
  2  1  1  6
  3  4  1  0
  4  5  1  0
  5  6  2  0
  5  9  1  0
  7  2  1  0
  7  8  2  0
 10 11  1  0
 12 11  1  1
 12 13  1  0
 12 14  1  0
 13  7  1  0
 14 24  1  0
 15 14  2  0
 16 17  1  0
 17 18  2  0
 19 20  1  0
 19 17  1  0
 21 22  1  0
 21 20  1  0
 23 22  1  1
 23 25  1  0
 24 23  1  0
 25 26  2  0
 25 27  1  0
M  END
$$$$
