ESR.pdb
     RDKit          3D

 27 26  0  0  1  0  0  0  0  0999 V2000
   14.5863  -19.2123   16.1501 N   0  0  0  0  0  0  0  0  0  0  0  0
   14.2400  -19.6887   17.4460 C   0  0  1  0  0  0  0  0  0  0  0  0
   14.9106  -20.9667   17.7716 C   0  0  0  0  0  0  0  0  0  0  0  0
   16.3935  -20.9073   17.9247 C   0  0  0  0  0  0  0  0  0  0  0  0
   17.0803  -22.1496   18.2896 C   0  0  0  0  0  0  0  0  0  0  0  0
   17.7779  -22.3457   19.3088 O   0  0  0  0  0  0  0  0  0  0  0  0
   14.5461  -18.6083   18.4271 C   0  0  0  0  0  0  0  0  0  0  0  0
   15.4377  -17.7420   18.1994 O   0  0  0  0  0  0  0  0  0  0  0  0
   16.9815  -23.2845   17.4384 O   0  0  0  0  0  0  0  0  0  0  0  0
   12.5145  -18.5250   21.9333 O   0  0  0  0  0  0  0  0  0  0  0  0
   12.8151  -17.2609   21.4078 C   0  0  0  0  0  0  0  0  0  0  0  0
   14.1073  -17.4111   20.5889 C   0  0  2  0  0  0  0  0  0  0  0  0
   13.8625  -18.4839   19.6682 N   0  0  0  0  0  0  0  0  0  0  0  0
   15.1851  -17.6674   21.5561 C   0  0  0  0  0  0  0  0  0  0  0  0
   15.5892  -18.7886   21.9281 O   0  0  0  0  0  0  0  0  0  0  0  0
   22.4617  -14.0619   22.9421 N   0  0  0  0  0  0  0  0  0  0  0  0
   22.3569  -14.5213   24.2706 C   0  0  0  0  0  0  0  0  0  0  0  0
   23.4185  -14.7955   24.9598 N   0  0  0  0  0  0  0  0  0  0  0  0
   21.0827  -14.6949   24.8729 N   0  0  0  0  0  0  0  0  0  0  0  0
   19.8790  -14.4573   24.1313 C   0  0  0  0  0  0  0  0  0  0  0  0
   18.9906  -15.6425   23.9729 C   0  0  0  0  0  0  0  0  0  0  0  0
   17.7745  -15.4303   23.1253 C   0  0  0  0  0  0  0  0  0  0  0  0
   16.9185  -16.6788   23.0569 C   0  0  2  0  0  0  0  0  0  0  0  0
   15.8247  -16.5239   22.1186 N   0  0  0  0  0  0  0  0  0  0  0  0
   16.3350  -16.8737   24.4086 C   0  0  0  0  0  0  0  0  0  0  0  0
   15.2675  -16.3068   24.7600 O   0  0  0  0  0  0  0  0  0  0  0  0
   16.9444  -17.6956   25.3519 O   0  0  0  0  0  0  0  0  0  0  0  0
  2  3  1  0
  2  1  1  6
  3  4  1  0
  4  5  1  0
  5  6  2  0
  5  9  1  0
  7  2  1  0
  7  8  2  0
 10 11  1  0
 12 11  1  1
 12 13  1  0
 12 14  1  0
 13  7  1  0
 14 24  1  0
 15 14  2  0
 16 17  1  0
 17 18  2  0
 19 20  1  0
 19 17  1  0
 21 22  1  0
 21 20  1  0
 23 22  1  1
 23 25  1  0
 24 23  1  0
 25 26  2  0
 25 27  1  0
M  END
$$$$
