ESR.pdb
     RDKit          3D

 27 26  0  0  1  0  0  0  0  0999 V2000
   12.7408  -17.6560   16.8484 N   0  0  0  0  0  0  0  0  0  0  0  0
   11.8819  -18.4205   17.6875 C   0  0  1  0  0  0  0  0  0  0  0  0
   12.5936  -19.5337   18.3534 C   0  0  0  0  0  0  0  0  0  0  0  0
   14.0744  -19.5641   18.1742 C   0  0  0  0  0  0  0  0  0  0  0  0
   14.8566  -20.2915   19.1778 C   0  0  0  0  0  0  0  0  0  0  0  0
   15.3159  -19.8296   20.2453 O   0  0  0  0  0  0  0  0  0  0  0  0
   11.2366  -17.4861   18.6538 C   0  0  0  0  0  0  0  0  0  0  0  0
   11.8463  -16.4738   19.1020 O   0  0  0  0  0  0  0  0  0  0  0  0
   15.1571  -21.6665   18.9747 O   0  0  0  0  0  0  0  0  0  0  0  0
    7.7281  -18.5763   20.1963 O   0  0  0  0  0  0  0  0  0  0  0  0
    7.8131  -17.1793   20.1215 C   0  0  0  0  0  0  0  0  0  0  0  0
    9.3078  -16.8204   20.1153 C   0  0  2  0  0  0  0  0  0  0  0  0
    9.9085  -17.6711   19.1284 N   0  0  0  0  0  0  0  0  0  0  0  0
    9.7928  -17.0355   21.4869 C   0  0  0  0  0  0  0  0  0  0  0  0
   10.4384  -18.0240   21.8930 O   0  0  0  0  0  0  0  0  0  0  0  0
   10.2924  -15.4460   29.0320 N   0  0  0  0  0  0  0  0  0  0  0  0
   10.0236  -14.0804   28.8089 C   0  0  0  0  0  0  0  0  0  0  0  0
   10.6210  -13.1676   29.5070 N   0  0  0  0  0  0  0  0  0  0  0  0
    9.0885  -13.6844   27.8164 N   0  0  0  0  0  0  0  0  0  0  0  0
    8.3344  -14.6594   27.0842 C   0  0  0  0  0  0  0  0  0  0  0  0
    9.1340  -15.5151   26.1637 C   0  0  0  0  0  0  0  0  0  0  0  0
    8.8953  -15.2918   24.7024 C   0  0  0  0  0  0  0  0  0  0  0  0
    9.7165  -16.2402   23.8525 C   0  0  2  0  0  0  0  0  0  0  0  0
    9.4944  -16.0159   22.4379 N   0  0  0  0  0  0  0  0  0  0  0  0
    9.2541  -17.6143   24.1740 C   0  0  0  0  0  0  0  0  0  0  0  0
    8.0751  -17.9901   23.9432 O   0  0  0  0  0  0  0  0  0  0  0  0
   10.1069  -18.5530   24.7472 O   0  0  0  0  0  0  0  0  0  0  0  0
  2  3  1  0
  2  1  1  1
  3  4  1  0
  4  5  1  0
  5  6  2  0
  5  9  1  0
  7  2  1  0
  7  8  2  0
 10 11  1  0
 12 11  1  1
 12 13  1  0
 12 14  1  0
 13  7  1  0
 14 24  1  0
 15 14  2  0
 16 17  1  0
 17 18  2  0
 19 20  1  0
 19 17  1  0
 21 22  1  0
 21 20  1  0
 23 22  1  1
 23 25  1  0
 24 23  1  0
 25 26  2  0
 25 27  1  0
M  END
$$$$
