ESR.pdb
     RDKit          3D

 27 26  0  0  1  0  0  0  0  0999 V2000
   10.2576  -17.9027   17.1706 N   0  0  0  0  0  0  0  0  0  0  0  0
    9.1537  -17.5699   18.0056 C   0  0  1  0  0  0  0  0  0  0  0  0
    8.2367  -18.7137   18.2056 C   0  0  0  0  0  0  0  0  0  0  0  0
    8.8735  -19.9992   18.6152 C   0  0  0  0  0  0  0  0  0  0  0  0
    7.9812  -21.1126   18.9505 C   0  0  0  0  0  0  0  0  0  0  0  0
    7.1442  -21.6526   18.1944 O   0  0  0  0  0  0  0  0  0  0  0  0
    9.6952  -17.0316   19.2863 C   0  0  0  0  0  0  0  0  0  0  0  0
   10.8743  -17.2855   19.6640 O   0  0  0  0  0  0  0  0  0  0  0  0
    8.0242  -21.6811   20.2533 O   0  0  0  0  0  0  0  0  0  0  0  0
    7.2075  -15.1749   22.0213 O   0  0  0  0  0  0  0  0  0  0  0  0
    8.4730  -14.6009   21.8385 C   0  0  0  0  0  0  0  0  0  0  0  0
    9.4229  -15.7336   21.4171 C   0  0  2  0  0  0  0  0  0  0  0  0
    8.9290  -16.2071   20.1560 N   0  0  0  0  0  0  0  0  0  0  0  0
    9.3906  -16.7278   22.5003 C   0  0  0  0  0  0  0  0  0  0  0  0
    8.6148  -17.7026   22.5820 O   0  0  0  0  0  0  0  0  0  0  0  0
   15.7898  -21.1050   23.2638 N   0  0  0  0  0  0  0  0  0  0  0  0
   15.3256  -20.1933   22.2941 C   0  0  0  0  0  0  0  0  0  0  0  0
   16.0441  -19.9139   21.2534 N   0  0  0  0  0  0  0  0  0  0  0  0
   14.0625  -19.5626   22.4465 N   0  0  0  0  0  0  0  0  0  0  0  0
   13.1878  -19.9170   23.5257 C   0  0  0  0  0  0  0  0  0  0  0  0
   11.8977  -19.1733   23.5631 C   0  0  0  0  0  0  0  0  0  0  0  0
   11.7395  -18.2099   24.6986 C   0  0  0  0  0  0  0  0  0  0  0  0
   10.3992  -17.5048   24.6482 C   0  0  2  0  0  0  0  0  0  0  0  0
   10.3367  -16.5572   23.5533 N   0  0  0  0  0  0  0  0  0  0  0  0
   10.2663  -16.7445   25.9169 C   0  0  0  0  0  0  0  0  0  0  0  0
   10.2396  -15.4862   25.9382 O   0  0  0  0  0  0  0  0  0  0  0  0
   10.1644  -17.3913   27.1450 O   0  0  0  0  0  0  0  0  0  0  0  0
  2  3  1  0
  2  1  1  6
  3  4  1  0
  4  5  1  0
  5  6  2  0
  5  9  1  0
  7  2  1  0
  7  8  2  0
 10 11  1  0
 12 11  1  1
 12 13  1  0
 12 14  1  0
 13  7  1  0
 14 24  1  0
 15 14  2  0
 16 17  1  0
 17 18  2  0
 19 20  1  0
 19 17  1  0
 21 22  1  0
 21 20  1  0
 23 22  1  1
 23 25  1  0
 24 23  1  0
 25 26  2  0
 25 27  1  0
M  END
$$$$
