ESR.pdb
     RDKit          3D

 27 26  0  0  1  0  0  0  0  0999 V2000
   10.6245  -19.2573   17.6075 N   0  0  0  0  0  0  0  0  0  0  0  0
   11.1485  -17.9342   17.6410 C   0  0  1  0  0  0  0  0  0  0  0  0
   10.9119  -17.2050   16.3755 C   0  0  0  0  0  0  0  0  0  0  0  0
    9.5051  -17.1951   15.8789 C   0  0  0  0  0  0  0  0  0  0  0  0
    9.2403  -16.4774   14.6287 C   0  0  0  0  0  0  0  0  0  0  0  0
    8.1471  -16.4062   14.0256 O   0  0  0  0  0  0  0  0  0  0  0  0
   10.5652  -17.2414   18.8255 C   0  0  0  0  0  0  0  0  0  0  0  0
   11.0192  -16.1348   19.2339 O   0  0  0  0  0  0  0  0  0  0  0  0
   10.2936  -15.7697   13.9868 O   0  0  0  0  0  0  0  0  0  0  0  0
    8.0348  -19.2502   21.2777 O   0  0  0  0  0  0  0  0  0  0  0  0
    7.6566  -17.9151   21.0809 C   0  0  0  0  0  0  0  0  0  0  0  0
    8.9332  -17.1342   20.7293 C   0  0  2  0  0  0  0  0  0  0  0  0
    9.4727  -17.7744   19.5641 N   0  0  0  0  0  0  0  0  0  0  0  0
    9.7978  -17.1942   21.9173 C   0  0  0  0  0  0  0  0  0  0  0  0
   10.8564  -17.8472   22.0252 O   0  0  0  0  0  0  0  0  0  0  0  0
    9.0058  -13.8464   29.2004 N   0  0  0  0  0  0  0  0  0  0  0  0
   10.3281  -14.3152   29.3370 C   0  0  0  0  0  0  0  0  0  0  0  0
   10.6720  -15.0316   30.3596 N   0  0  0  0  0  0  0  0  0  0  0  0
   11.3061  -14.0044   28.3554 N   0  0  0  0  0  0  0  0  0  0  0  0
   11.0059  -14.1095   26.9575 C   0  0  0  0  0  0  0  0  0  0  0  0
   10.4641  -15.4280   26.5254 C   0  0  0  0  0  0  0  0  0  0  0  0
    9.6603  -15.4142   25.2620 C   0  0  0  0  0  0  0  0  0  0  0  0
   10.1628  -16.4443   24.2708 C   0  0  2  0  0  0  0  0  0  0  0  0
    9.3828  -16.4329   23.0492 N   0  0  0  0  0  0  0  0  0  0  0  0
    9.9903  -17.7740   24.9092 C   0  0  0  0  0  0  0  0  0  0  0  0
   10.7809  -18.1943   25.7939 O   0  0  0  0  0  0  0  0  0  0  0  0
    8.9423  -18.6192   24.5570 O   0  0  0  0  0  0  0  0  0  0  0  0
  2  3  1  0
  2  1  1  6
  3  4  1  0
  4  5  1  0
  5  6  2  0
  5  9  1  0
  7  2  1  0
  7  8  2  0
 10 11  1  0
 12 11  1  1
 12 13  1  0
 12 14  1  0
 13  7  1  0
 14 24  1  0
 15 14  2  0
 16 17  1  0
 17 18  2  0
 19 20  1  0
 19 17  1  0
 21 22  1  0
 21 20  1  0
 23 22  1  1
 23 25  1  0
 24 23  1  0
 25 26  2  0
 25 27  1  0
M  END
$$$$
