ESR.pdb
     RDKit          3D

 27 26  0  0  1  0  0  0  0  0999 V2000
    8.4450  -13.4746   15.9461 N   0  0  0  0  0  0  0  0  0  0  0  0
    8.4132  -14.6599   16.7337 C   0  0  1  0  0  0  0  0  0  0  0  0
    9.3509  -15.6901   16.2350 C   0  0  0  0  0  0  0  0  0  0  0  0
   10.6688  -15.1927   15.7437 C   0  0  0  0  0  0  0  0  0  0  0  0
   11.5852  -16.1799   15.1659 C   0  0  0  0  0  0  0  0  0  0  0  0
   11.4451  -17.4226   15.1725 O   0  0  0  0  0  0  0  0  0  0  0  0
    8.6766  -14.2749   18.1500 C   0  0  0  0  0  0  0  0  0  0  0  0
    9.7081  -13.6217   18.4765 O   0  0  0  0  0  0  0  0  0  0  0  0
   12.7728  -15.7427   14.5172 O   0  0  0  0  0  0  0  0  0  0  0  0
    6.1809  -15.6445   21.1154 O   0  0  0  0  0  0  0  0  0  0  0  0
    6.7725  -14.3940   21.3406 C   0  0  0  0  0  0  0  0  0  0  0  0
    8.1161  -14.3922   20.5936 C   0  0  2  0  0  0  0  0  0  0  0  0
    7.7943  -14.6137   19.2130 N   0  0  0  0  0  0  0  0  0  0  0  0
    8.9353  -15.4471   21.2089 C   0  0  0  0  0  0  0  0  0  0  0  0
    9.0884  -16.6077   20.7749 O   0  0  0  0  0  0  0  0  0  0  0  0
   14.2979  -14.4203   20.1674 N   0  0  0  0  0  0  0  0  0  0  0  0
   15.4324  -14.9375   20.8250 C   0  0  0  0  0  0  0  0  0  0  0  0
   16.6089  -14.8299   20.2946 N   0  0  0  0  0  0  0  0  0  0  0  0
   15.3012  -15.5897   22.0795 N   0  0  0  0  0  0  0  0  0  0  0  0
   14.2350  -15.2528   22.9768 C   0  0  0  0  0  0  0  0  0  0  0  0
   12.8878  -15.7393   22.5675 C   0  0  0  0  0  0  0  0  0  0  0  0
   11.7754  -15.4448   23.5258 C   0  0  0  0  0  0  0  0  0  0  0  0
   10.4716  -16.0721   23.0754 C   0  0  2  0  0  0  0  0  0  0  0  0
    9.6163  -15.1064   22.4144 N   0  0  0  0  0  0  0  0  0  0  0  0
    9.7728  -16.5361   24.3008 C   0  0  0  0  0  0  0  0  0  0  0  0
   10.2055  -17.4968   24.9895 O   0  0  0  0  0  0  0  0  0  0  0  0
    8.6030  -15.9272   24.7454 O   0  0  0  0  0  0  0  0  0  0  0  0
  2  3  1  0
  2  1  1  6
  3  4  1  0
  4  5  1  0
  5  6  2  0
  5  9  1  0
  7  2  1  0
  7  8  2  0
 10 11  1  0
 12 11  1  1
 12 13  1  0
 12 14  1  0
 13  7  1  0
 14 24  1  0
 15 14  2  0
 16 17  1  0
 17 18  2  0
 19 20  1  0
 19 17  1  0
 21 22  1  0
 21 20  1  0
 23 22  1  1
 23 25  1  0
 24 23  1  0
 25 26  2  0
 25 27  1  0
M  END
$$$$
