ESR.pdb
     RDKit          3D

 27 26  0  0  1  0  0  0  0  0999 V2000
   10.5176  -24.1763   20.6515 N   0  0  0  0  0  0  0  0  0  0  0  0
   10.7501  -22.8254   21.0356 C   0  0  1  0  0  0  0  0  0  0  0  0
    9.5034  -22.0293   21.0694 C   0  0  0  0  0  0  0  0  0  0  0  0
    8.2306  -22.8072   21.0987 C   0  0  0  0  0  0  0  0  0  0  0  0
    6.9790  -22.0485   21.0204 C   0  0  0  0  0  0  0  0  0  0  0  0
    6.8626  -20.8161   20.8431 O   0  0  0  0  0  0  0  0  0  0  0  0
   11.4636  -22.8387   22.3448 C   0  0  0  0  0  0  0  0  0  0  0  0
   11.5356  -23.8866   23.0477 O   0  0  0  0  0  0  0  0  0  0  0  0
    5.7359  -22.7264   21.1517 O   0  0  0  0  0  0  0  0  0  0  0  0
   13.0471  -19.3877   23.7080 O   0  0  0  0  0  0  0  0  0  0  0  0
   13.8178  -20.5151   24.0231 C   0  0  0  0  0  0  0  0  0  0  0  0
   12.8536  -21.7097   24.1034 C   0  0  2  0  0  0  0  0  0  0  0  0
   12.1023  -21.6865   22.8812 N   0  0  0  0  0  0  0  0  0  0  0  0
   12.0509  -21.5150   25.3201 C   0  0  0  0  0  0  0  0  0  0  0  0
   10.8882  -21.0630   25.3705 O   0  0  0  0  0  0  0  0  0  0  0  0
   13.9619  -24.5553   33.4158 N   0  0  0  0  0  0  0  0  0  0  0  0
   13.8013  -25.1037   32.1273 C   0  0  0  0  0  0  0  0  0  0  0  0
   14.1683  -26.3203   31.8774 N   0  0  0  0  0  0  0  0  0  0  0  0
   13.2375  -24.3271   31.0805 N   0  0  0  0  0  0  0  0  0  0  0  0
   12.5013  -23.1305   31.3657 C   0  0  0  0  0  0  0  0  0  0  0  0
   11.8492  -22.4944   30.1871 C   0  0  0  0  0  0  0  0  0  0  0  0
   12.6821  -22.4290   28.9443 C   0  0  0  0  0  0  0  0  0  0  0  0
   11.9238  -21.7900   27.7985 C   0  0  2  0  0  0  0  0  0  0  0  0
   12.6635  -21.8785   26.5552 N   0  0  0  0  0  0  0  0  0  0  0  0
   11.7691  -20.3520   28.1354 C   0  0  0  0  0  0  0  0  0  0  0  0
   12.5561  -19.4764   27.6898 O   0  0  0  0  0  0  0  0  0  0  0  0
   10.7426  -19.9051   28.9621 O   0  0  0  0  0  0  0  0  0  0  0  0
  2  3  1  0
  2  1  1  1
  3  4  1  0
  4  5  1  0
  5  6  2  0
  5  9  1  0
  7  2  1  0
  7  8  2  0
 10 11  1  0
 12 11  1  6
 12 13  1  0
 12 14  1  0
 13  7  1  0
 14 24  1  0
 15 14  2  0
 16 17  1  0
 17 18  2  0
 19 20  1  0
 19 17  1  0
 21 22  1  0
 21 20  1  0
 23 22  1  1
 23 25  1  0
 24 23  1  0
 25 26  2  0
 25 27  1  0
M  END
$$$$
