ESR.pdb
     RDKit          3D

 27 26  0  0  1  0  0  0  0  0999 V2000
    9.1545  -15.4785   15.5466 N   0  0  0  0  0  0  0  0  0  0  0  0
    8.0511  -15.6670   16.4260 C   0  0  1  0  0  0  0  0  0  0  0  0
    7.4487  -17.0115   16.2899 C   0  0  0  0  0  0  0  0  0  0  0  0
    8.2247  -18.1395   16.8824 C   0  0  0  0  0  0  0  0  0  0  0  0
    7.6315  -19.4773   16.8012 C   0  0  0  0  0  0  0  0  0  0  0  0
    6.5475  -19.7818   16.2570 O   0  0  0  0  0  0  0  0  0  0  0  0
    8.5176  -15.3798   17.8128 C   0  0  0  0  0  0  0  0  0  0  0  0
    9.6763  -15.7027   18.2006 O   0  0  0  0  0  0  0  0  0  0  0  0
    8.3099  -20.5843   17.3814 O   0  0  0  0  0  0  0  0  0  0  0  0
    5.9779  -14.8692   21.0448 O   0  0  0  0  0  0  0  0  0  0  0  0
    6.9198  -13.8523   20.8371 C   0  0  0  0  0  0  0  0  0  0  0  0
    8.1233  -14.4935   20.1276 C   0  0  2  0  0  0  0  0  0  0  0  0
    7.6984  -14.7311   18.7779 N   0  0  0  0  0  0  0  0  0  0  0  0
    8.4560  -15.7074   20.8881 C   0  0  0  0  0  0  0  0  0  0  0  0
    8.3259  -16.8838   20.4909 O   0  0  0  0  0  0  0  0  0  0  0  0
   14.1385  -20.0460   21.5127 N   0  0  0  0  0  0  0  0  0  0  0  0
   14.5204  -19.7962   22.8464 C   0  0  0  0  0  0  0  0  0  0  0  0
   15.1024  -20.7150   23.5494 N   0  0  0  0  0  0  0  0  0  0  0  0
   14.2679  -18.5319   23.4417 N   0  0  0  0  0  0  0  0  0  0  0  0
   13.4874  -17.5402   22.7616 C   0  0  0  0  0  0  0  0  0  0  0  0
   12.0564  -17.4738   23.1697 C   0  0  0  0  0  0  0  0  0  0  0  0
   11.2308  -16.4411   22.4666 C   0  0  0  0  0  0  0  0  0  0  0  0
    9.7661  -16.5507   22.8393 C   0  0  2  0  0  0  0  0  0  0  0  0
    8.9755  -15.5163   22.2021 N   0  0  0  0  0  0  0  0  0  0  0  0
    9.6808  -16.3495   24.3082 C   0  0  0  0  0  0  0  0  0  0  0  0
    9.2864  -15.2640   24.8087 O   0  0  0  0  0  0  0  0  0  0  0  0
   10.0343  -17.3562   25.2017 O   0  0  0  0  0  0  0  0  0  0  0  0
  2  3  1  0
  2  1  1  6
  3  4  1  0
  4  5  1  0
  5  6  2  0
  5  9  1  0
  7  2  1  0
  7  8  2  0
 10 11  1  0
 12 11  1  1
 12 13  1  0
 12 14  1  0
 13  7  1  0
 14 24  1  0
 15 14  2  0
 16 17  1  0
 17 18  2  0
 19 20  1  0
 19 17  1  0
 21 22  1  0
 21 20  1  0
 23 22  1  6
 23 25  1  0
 24 23  1  0
 25 26  2  0
 25 27  1  0
M  END
$$$$
