ESR.pdb
     RDKit          3D

 27 26  0  0  1  0  0  0  0  0999 V2000
    8.7871  -18.0183   17.6813 N   0  0  0  0  0  0  0  0  0  0  0  0
    9.7532  -18.3259   18.6806 C   0  0  1  0  0  0  0  0  0  0  0  0
   11.1305  -18.3495   18.1408 C   0  0  0  0  0  0  0  0  0  0  0  0
   11.5525  -17.1434   17.3707 C   0  0  0  0  0  0  0  0  0  0  0  0
   12.9022  -17.1508   16.7993 C   0  0  0  0  0  0  0  0  0  0  0  0
   13.2354  -17.5888   15.6764 O   0  0  0  0  0  0  0  0  0  0  0  0
    9.5851  -17.3494   19.7949 C   0  0  0  0  0  0  0  0  0  0  0  0
   10.3788  -17.3256   20.7782 O   0  0  0  0  0  0  0  0  0  0  0  0
   13.9869  -16.6190   17.5496 O   0  0  0  0  0  0  0  0  0  0  0  0
    5.9901  -15.7018   20.8425 O   0  0  0  0  0  0  0  0  0  0  0  0
    7.0094  -14.7642   20.6268 C   0  0  0  0  0  0  0  0  0  0  0  0
    8.3417  -15.4765   20.9108 C   0  0  2  0  0  0  0  0  0  0  0  0
    8.5332  -16.3924   19.8231 N   0  0  0  0  0  0  0  0  0  0  0  0
    8.2006  -16.1119   22.2295 C   0  0  0  0  0  0  0  0  0  0  0  0
    7.8503  -17.2907   22.4451 O   0  0  0  0  0  0  0  0  0  0  0  0
   11.8202  -16.3821   29.0557 N   0  0  0  0  0  0  0  0  0  0  0  0
   10.7004  -16.1441   29.8781 C   0  0  0  0  0  0  0  0  0  0  0  0
   10.5795  -16.7454   31.0187 N   0  0  0  0  0  0  0  0  0  0  0  0
    9.6836  -15.2428   29.4651 N   0  0  0  0  0  0  0  0  0  0  0  0
    9.6969  -14.6695   28.1512 C   0  0  0  0  0  0  0  0  0  0  0  0
    9.1030  -15.5223   27.0841 C   0  0  0  0  0  0  0  0  0  0  0  0
    9.0454  -14.9057   25.7207 C   0  0  0  0  0  0  0  0  0  0  0  0
    8.4664  -15.8642   24.6998 C   0  0  2  0  0  0  0  0  0  0  0  0
    8.4926  -15.3003   23.3649 N   0  0  0  0  0  0  0  0  0  0  0  0
    7.0460  -16.0832   25.0741 C   0  0  0  0  0  0  0  0  0  0  0  0
    6.1261  -15.3295   24.6617 O   0  0  0  0  0  0  0  0  0  0  0  0
    6.6661  -17.1362   25.9009 O   0  0  0  0  0  0  0  0  0  0  0  0
  2  3  1  0
  2  1  1  6
  3  4  1  0
  4  5  1  0
  5  6  2  0
  5  9  1  0
  7  2  1  0
  7  8  2  0
 10 11  1  0
 12 11  1  6
 12 13  1  0
 12 14  1  0
 13  7  1  0
 14 24  1  0
 15 14  2  0
 16 17  1  0
 17 18  2  0
 19 20  1  0
 19 17  1  0
 21 22  1  0
 21 20  1  0
 23 22  1  1
 23 25  1  0
 24 23  1  0
 25 26  2  0
 25 27  1  0
M  END
$$$$
