ESR.pdb
     RDKit          3D

 27 26  0  0  1  0  0  0  0  0999 V2000
   14.4952  -19.6390   18.9167 N   0  0  0  0  0  0  0  0  0  0  0  0
   13.5633  -18.6705   18.4477 C   0  0  1  0  0  0  0  0  0  0  0  0
   13.0841  -18.9692   17.0802 C   0  0  0  0  0  0  0  0  0  0  0  0
   12.1319  -20.1109   16.9551 C   0  0  0  0  0  0  0  0  0  0  0  0
   11.5932  -20.3918   15.6213 C   0  0  0  0  0  0  0  0  0  0  0  0
   11.7394  -21.4452   14.9634 O   0  0  0  0  0  0  0  0  0  0  0  0
   12.4560  -18.5824   19.4424 C   0  0  0  0  0  0  0  0  0  0  0  0
   11.5035  -17.7638   19.3004 O   0  0  0  0  0  0  0  0  0  0  0  0
   10.8159  -19.4053   14.9542 O   0  0  0  0  0  0  0  0  0  0  0  0
   12.7834  -20.0287   23.2726 O   0  0  0  0  0  0  0  0  0  0  0  0
   11.6259  -20.4318   22.5928 C   0  0  0  0  0  0  0  0  0  0  0  0
   11.3206  -19.3489   21.5454 C   0  0  2  0  0  0  0  0  0  0  0  0
   12.4001  -19.4043   20.6019 N   0  0  0  0  0  0  0  0  0  0  0  0
   11.2126  -18.0792   22.2794 C   0  0  0  0  0  0  0  0  0  0  0  0
   12.0529  -17.1557   22.2805 O   0  0  0  0  0  0  0  0  0  0  0  0
    7.5175  -11.2321   21.3905 N   0  0  0  0  0  0  0  0  0  0  0  0
    7.5594  -12.4707   20.7188 C   0  0  0  0  0  0  0  0  0  0  0  0
    7.7001  -12.5193   19.4322 N   0  0  0  0  0  0  0  0  0  0  0  0
    7.4433  -13.6861   21.4438 N   0  0  0  0  0  0  0  0  0  0  0  0
    7.3787  -13.6861   22.8760 C   0  0  0  0  0  0  0  0  0  0  0  0
    8.4122  -14.5169   23.5547 C   0  0  0  0  0  0  0  0  0  0  0  0
    8.7149  -15.8312   22.9040 C   0  0  0  0  0  0  0  0  0  0  0  0
    9.7587  -16.6093   23.6794 C   0  0  2  0  0  0  0  0  0  0  0  0
   10.0355  -17.8909   23.0617 N   0  0  0  0  0  0  0  0  0  0  0  0
    9.1893  -16.8663   25.0267 C   0  0  0  0  0  0  0  0  0  0  0  0
    8.5852  -17.9363   25.3000 O   0  0  0  0  0  0  0  0  0  0  0  0
    9.2984  -15.9322   26.0525 O   0  0  0  0  0  0  0  0  0  0  0  0
  2  3  1  0
  2  1  1  1
  3  4  1  0
  4  5  1  0
  5  6  2  0
  5  9  1  0
  7  2  1  0
  7  8  2  0
 10 11  1  0
 12 11  1  1
 12 13  1  0
 12 14  1  0
 13  7  1  0
 14 24  1  0
 15 14  2  0
 16 17  1  0
 17 18  2  0
 19 20  1  0
 19 17  1  0
 21 22  1  0
 21 20  1  0
 23 22  1  6
 23 25  1  0
 24 23  1  0
 25 26  2  0
 25 27  1  0
M  END
$$$$
