KEL.pdb
     RDKit          3D

 27 26  0  0  1  0  0  0  0  0999 V2000
    6.2065  -16.6209   20.9344 N   0  0  0  0  0  0  0  0  0  0  0  0
    7.4446  -15.9536   21.2343 C   0  0  1  0  0  0  0  0  0  0  0  0
    7.2050  -14.4564   21.2204 C   0  0  0  0  0  0  0  0  0  0  0  0
    7.0951  -13.9222   19.8430 C   0  0  0  0  0  0  0  0  0  0  0  0
    8.2861  -13.1866   19.3362 C   0  0  0  0  0  0  0  0  0  0  0  0
    8.1941  -12.6500   17.9438 C   0  0  0  0  0  0  0  0  0  0  0  0
    9.4174  -12.0759   17.4851 N   0  0  0  0  0  0  0  0  0  0  0  0
    7.9963  -16.3652   22.5325 C   0  0  0  0  0  0  0  0  0  0  0  0
    7.1729  -16.5848   23.4874 O   0  0  0  0  0  0  0  0  0  0  0  0
    9.4045  -16.5172   22.7512 N   0  0  0  0  0  0  0  0  0  0  0  0
    9.9141  -17.0070   23.9821 C   0  0  1  0  0  0  0  0  0  0  0  0
   11.1856  -17.7334   24.0313 C   0  0  0  0  0  0  0  0  0  0  0  0
   11.6895  -18.3301   25.2697 C   0  0  0  0  0  0  0  0  0  0  0  0
   12.9597  -19.0247   25.1423 C   0  0  0  0  0  0  0  0  0  0  0  0
   13.2807  -19.8010   24.2239 O   0  0  0  0  0  0  0  0  0  0  0  0
    9.9777  -15.9050   25.0140 C   0  0  0  0  0  0  0  0  0  0  0  0
   10.7462  -14.9462   24.7754 O   0  0  0  0  0  0  0  0  0  0  0  0
   13.9800  -18.8506   26.1194 O   0  0  0  0  0  0  0  0  0  0  0  0
    8.4208  -12.0875   25.8528 C   0  0  0  0  0  0  0  0  0  0  0  0
    7.6093  -13.2631   26.2769 C   0  0  2  0  0  0  0  0  0  0  0  0
    6.2292  -12.7338   26.7128 C   0  0  0  0  0  0  0  0  0  0  0  0
    8.1170  -14.0631   27.4137 C   0  0  0  0  0  0  0  0  0  0  0  0
    9.3487  -14.8630   27.2141 C   0  0  2  0  0  0  0  0  0  0  0  0
    9.2241  -15.9159   26.1985 N   0  0  0  0  0  0  0  0  0  0  0  0
    9.8748  -15.4627   28.4577 C   0  0  0  0  0  0  0  0  0  0  0  0
    9.7579  -16.6977   28.6490 O   0  0  0  0  0  0  0  0  0  0  0  0
   10.5067  -14.7280   29.4536 O   0  0  0  0  0  0  0  0  0  0  0  0
  2  8  1  0
  2  1  1  1
  3  2  1  0
  4  3  1  0
  5  4  1  0
  6  5  1  0
  7  6  1  0
  8  9  2  0
 10 11  1  0
 10  8  1  0
 12 13  1  0
 11 12  1  6
 13 14  1  0
 14 18  1  0
 14 15  2  0
 16 17  2  0
 16 11  1  0
 20 21  1  1
 20 19  1  0
 20 22  1  0
 23 22  1  1
 23 25  1  0
 23 24  1  0
 24 16  1  0
 25 27  1  0
 26 25  2  0
M  END
$$$$
