KEL.pdb
     RDKit          3D

 27 26  0  0  1  0  0  0  0  0999 V2000
    6.2428  -16.5227   20.7840 N   0  0  0  0  0  0  0  0  0  0  0  0
    7.3368  -15.6574   21.1339 C   0  0  1  0  0  0  0  0  0  0  0  0
    6.7917  -14.2666   21.3943 C   0  0  0  0  0  0  0  0  0  0  0  0
    7.5332  -13.2275   20.6426 C   0  0  0  0  0  0  0  0  0  0  0  0
    7.7573  -13.5086   19.1979 C   0  0  0  0  0  0  0  0  0  0  0  0
    8.5200  -12.4774   18.4298 C   0  0  0  0  0  0  0  0  0  0  0  0
    8.7841  -12.8672   17.0826 N   0  0  0  0  0  0  0  0  0  0  0  0
    8.0718  -16.1408   22.3108 C   0  0  0  0  0  0  0  0  0  0  0  0
    7.3894  -16.5603   23.3089 O   0  0  0  0  0  0  0  0  0  0  0  0
    9.5039  -16.1477   22.3680 N   0  0  0  0  0  0  0  0  0  0  0  0
   10.1983  -16.7181   23.4667 C   0  0  1  0  0  0  0  0  0  0  0  0
   11.5540  -17.2492   23.3027 C   0  0  0  0  0  0  0  0  0  0  0  0
   12.2808  -17.8730   24.4101 C   0  0  0  0  0  0  0  0  0  0  0  0
   13.6065  -18.3642   24.0731 C   0  0  0  0  0  0  0  0  0  0  0  0
   13.9436  -18.8777   22.9906 O   0  0  0  0  0  0  0  0  0  0  0  0
   10.2193  -15.7677   24.6413 C   0  0  0  0  0  0  0  0  0  0  0  0
   11.0689  -14.8489   24.6142 O   0  0  0  0  0  0  0  0  0  0  0  0
   14.6686  -18.2844   25.0173 O   0  0  0  0  0  0  0  0  0  0  0  0
    7.8760  -12.2405   25.9369 C   0  0  0  0  0  0  0  0  0  0  0  0
    7.4141  -13.6173   26.2708 C   0  0  2  0  0  0  0  0  0  0  0  0
    5.9739  -13.5000   26.8064 C   0  0  0  0  0  0  0  0  0  0  0  0
    8.1744  -14.3560   27.3035 C   0  0  0  0  0  0  0  0  0  0  0  0
    9.4486  -15.0019   26.9087 C   0  0  2  0  0  0  0  0  0  0  0  0
    9.3419  -15.8736   25.7322 N   0  0  0  0  0  0  0  0  0  0  0  0
   10.0948  -15.7570   28.0021 C   0  0  0  0  0  0  0  0  0  0  0  0
   10.4598  -15.1547   29.0411 O   0  0  0  0  0  0  0  0  0  0  0  0
   10.3297  -17.1256   27.9520 O   0  0  0  0  0  0  0  0  0  0  0  0
  2  8  1  0
  2  1  1  1
  3  2  1  0
  4  3  1  0
  5  4  1  0
  6  5  1  0
  7  6  1  0
  8  9  2  0
 10 11  1  0
 10  8  1  0
 12 13  1  0
 11 12  1  6
 13 14  1  0
 14 18  1  0
 14 15  2  0
 16 17  2  0
 16 11  1  0
 20 21  1  1
 20 19  1  0
 20 22  1  0
 23 22  1  1
 23 25  1  0
 23 24  1  0
 24 16  1  0
 25 27  1  0
 26 25  2  0
M  END
$$$$
