KEL.pdb
     RDKit          3D

 27 26  0  0  1  0  0  0  0  0999 V2000
    6.3111  -17.2491   19.9793 N   0  0  0  0  0  0  0  0  0  0  0  0
    7.3854  -16.3523   20.3104 C   0  0  1  0  0  0  0  0  0  0  0  0
    6.8493  -14.9339   20.3173 C   0  0  0  0  0  0  0  0  0  0  0  0
    7.4006  -14.1242   19.2059 C   0  0  0  0  0  0  0  0  0  0  0  0
    8.4247  -13.1130   19.5869 C   0  0  0  0  0  0  0  0  0  0  0  0
    8.9410  -12.2418   18.4871 C   0  0  0  0  0  0  0  0  0  0  0  0
    9.8658  -11.2556   18.9438 N   0  0  0  0  0  0  0  0  0  0  0  0
    7.9923  -16.6696   21.6104 C   0  0  0  0  0  0  0  0  0  0  0  0
    7.2082  -16.8537   22.6051 O   0  0  0  0  0  0  0  0  0  0  0  0
    9.4109  -16.7697   21.7879 N   0  0  0  0  0  0  0  0  0  0  0  0
    9.9810  -17.0382   23.0597 C   0  0  1  0  0  0  0  0  0  0  0  0
   11.3914  -17.4147   23.1848 C   0  0  0  0  0  0  0  0  0  0  0  0
   11.9829  -17.7859   24.4717 C   0  0  0  0  0  0  0  0  0  0  0  0
   13.3830  -18.1716   24.4138 C   0  0  0  0  0  0  0  0  0  0  0  0
   14.0876  -18.2183   23.3889 O   0  0  0  0  0  0  0  0  0  0  0  0
    9.7273  -15.8948   24.0146 C   0  0  0  0  0  0  0  0  0  0  0  0
   10.0256  -14.7458   23.6178 O   0  0  0  0  0  0  0  0  0  0  0  0
   14.0801  -18.5429   25.5980 O   0  0  0  0  0  0  0  0  0  0  0  0
    5.7224  -12.9488   27.0617 C   0  0  0  0  0  0  0  0  0  0  0  0
    7.1740  -13.2793   26.9972 C   0  0  2  0  0  0  0  0  0  0  0  0
    7.9188  -11.9938   26.5877 C   0  0  0  0  0  0  0  0  0  0  0  0
    7.5907  -14.3180   26.0289 C   0  0  0  0  0  0  0  0  0  0  0  0
    8.9255  -14.9396   26.1978 C   0  0  2  0  0  0  0  0  0  0  0  0
    9.1813  -16.0697   25.2961 N   0  0  0  0  0  0  0  0  0  0  0  0
    9.2114  -15.3639   27.5839 C   0  0  0  0  0  0  0  0  0  0  0  0
    8.9404  -16.5358   27.9426 O   0  0  0  0  0  0  0  0  0  0  0  0
    9.7754  -14.5272   28.5392 O   0  0  0  0  0  0  0  0  0  0  0  0
  2  8  1  0
  2  1  1  1
  3  2  1  0
  4  3  1  0
  5  4  1  0
  6  5  1  0
  7  6  1  0
  8  9  2  0
 10 11  1  0
 10  8  1  0
 12 13  1  0
 11 12  1  6
 13 14  1  0
 14 18  1  0
 14 15  2  0
 16 17  2  0
 16 11  1  0
 20 21  1  6
 20 19  1  0
 20 22  1  0
 23 22  1  1
 23 25  1  0
 23 24  1  0
 24 16  1  0
 25 27  1  0
 26 25  2  0
M  END
$$$$
