KEL.pdb
     RDKit          3D

 27 26  0  0  1  0  0  0  0  0999 V2000
    9.9402  -12.7767   19.4578 N   0  0  0  0  0  0  0  0  0  0  0  0
    8.5899  -13.0492   19.8707 C   0  0  1  0  0  0  0  0  0  0  0  0
    7.7531  -13.3326   18.6384 C   0  0  0  0  0  0  0  0  0  0  0  0
    8.4892  -14.1404   17.6384 C   0  0  0  0  0  0  0  0  0  0  0  0
    7.8053  -14.3322   16.3300 C   0  0  0  0  0  0  0  0  0  0  0  0
    8.5573  -15.1026   15.2926 C   0  0  0  0  0  0  0  0  0  0  0  0
    7.8562  -15.2015   14.0536 N   0  0  0  0  0  0  0  0  0  0  0  0
    8.5133  -14.1807   20.8050 C   0  0  0  0  0  0  0  0  0  0  0  0
    7.3564  -14.5252   21.2303 O   0  0  0  0  0  0  0  0  0  0  0  0
    9.6791  -14.8882   21.2462 N   0  0  0  0  0  0  0  0  0  0  0  0
    9.5878  -15.9641   22.1675 C   0  0  1  0  0  0  0  0  0  0  0  0
   10.5211  -17.0915   22.0984 C   0  0  0  0  0  0  0  0  0  0  0  0
   10.4066  -18.2476   22.9895 C   0  0  0  0  0  0  0  0  0  0  0  0
   11.3618  -19.3133   22.7360 C   0  0  0  0  0  0  0  0  0  0  0  0
   11.5019  -20.3474   23.4142 O   0  0  0  0  0  0  0  0  0  0  0  0
    9.5913  -15.4551   23.5903 C   0  0  0  0  0  0  0  0  0  0  0  0
   10.6169  -14.8495   23.9750 O   0  0  0  0  0  0  0  0  0  0  0  0
   12.2521  -19.2375   21.6280 O   0  0  0  0  0  0  0  0  0  0  0  0
    7.9279  -11.9843   26.1281 C   0  0  0  0  0  0  0  0  0  0  0  0
    7.0249  -13.0959   25.7163 C   0  0  2  0  0  0  0  0  0  0  0  0
    5.6030  -12.7278   26.1829 C   0  0  0  0  0  0  0  0  0  0  0  0
    7.3029  -14.4379   26.2749 C   0  0  0  0  0  0  0  0  0  0  0  0
    8.5433  -15.1304   25.8526 C   0  0  2  0  0  0  0  0  0  0  0  0
    8.5132  -15.6301   24.4724 N   0  0  0  0  0  0  0  0  0  0  0  0
    8.9405  -16.2356   26.7492 C   0  0  0  0  0  0  0  0  0  0  0  0
    8.7962  -17.4238   26.3713 O   0  0  0  0  0  0  0  0  0  0  0  0
    9.4771  -16.0381   28.0157 O   0  0  0  0  0  0  0  0  0  0  0  0
  2  8  1  0
  2  1  1  6
  3  2  1  0
  4  3  1  0
  5  4  1  0
  6  5  1  0
  7  6  1  0
  8  9  2  0
 10 11  1  0
 10  8  1  0
 12 13  1  0
 11 12  1  1
 13 14  1  0
 14 18  1  0
 14 15  2  0
 16 17  2  0
 16 11  1  0
 20 21  1  1
 20 19  1  0
 20 22  1  0
 23 22  1  1
 23 25  1  0
 23 24  1  0
 24 16  1  0
 25 27  1  0
 26 25  2  0
M  END
$$$$
