KEL.pdb
     RDKit          3D

 27 26  0  0  1  0  0  0  0  0999 V2000
   10.2302  -14.1928   19.5042 N   0  0  0  0  0  0  0  0  0  0  0  0
    8.9813  -13.8565   20.1327 C   0  0  1  0  0  0  0  0  0  0  0  0
    7.8729  -13.9748   19.1048 C   0  0  0  0  0  0  0  0  0  0  0  0
    8.3978  -14.0023   17.7198 C   0  0  0  0  0  0  0  0  0  0  0  0
    7.3997  -13.7538   16.6435 C   0  0  0  0  0  0  0  0  0  0  0  0
    7.9156  -13.7718   15.2404 C   0  0  0  0  0  0  0  0  0  0  0  0
    6.9136  -13.4598   14.2733 N   0  0  0  0  0  0  0  0  0  0  0  0
    8.6927  -14.7165   21.2886 C   0  0  0  0  0  0  0  0  0  0  0  0
    7.5412  -14.6112   21.8372 O   0  0  0  0  0  0  0  0  0  0  0  0
    9.6520  -15.6459   21.8084 N   0  0  0  0  0  0  0  0  0  0  0  0
    9.3678  -16.4443   22.9471 C   0  0  1  0  0  0  0  0  0  0  0  0
   10.0402  -17.7305   23.1477 C   0  0  0  0  0  0  0  0  0  0  0  0
   10.0076  -18.7879   22.1356 C   0  0  0  0  0  0  0  0  0  0  0  0
   10.9093  -19.9006   22.3829 C   0  0  0  0  0  0  0  0  0  0  0  0
   10.5855  -21.0249   22.8073 O   0  0  0  0  0  0  0  0  0  0  0  0
    9.5264  -15.6430   24.2184 C   0  0  0  0  0  0  0  0  0  0  0  0
   10.6495  -15.1339   24.4333 O   0  0  0  0  0  0  0  0  0  0  0  0
   12.3056  -19.7671   22.1406 O   0  0  0  0  0  0  0  0  0  0  0  0
    7.7981  -11.7878   25.7507 C   0  0  0  0  0  0  0  0  0  0  0  0
    6.9491  -12.9770   26.0431 C   0  0  2  0  0  0  0  0  0  0  0  0
    5.6822  -12.4705   26.7595 C   0  0  0  0  0  0  0  0  0  0  0  0
    7.5237  -14.0214   26.9202 C   0  0  0  0  0  0  0  0  0  0  0  0
    8.6985  -14.7807   26.4303 C   0  0  2  0  0  0  0  0  0  0  0  0
    8.4864  -15.4518   25.1418 N   0  0  0  0  0  0  0  0  0  0  0  0
    9.2135  -15.7684   27.4011 C   0  0  0  0  0  0  0  0  0  0  0  0
    9.1172  -16.9944   27.1494 O   0  0  0  0  0  0  0  0  0  0  0  0
    9.8126  -15.4176   28.6047 O   0  0  0  0  0  0  0  0  0  0  0  0
  2  8  1  0
  2  1  1  6
  3  2  1  0
  4  3  1  0
  5  4  1  0
  6  5  1  0
  7  6  1  0
  8  9  2  0
 10 11  1  0
 10  8  1  0
 12 13  1  0
 11 12  1  1
 13 14  1  0
 14 18  1  0
 14 15  2  0
 16 17  2  0
 16 11  1  0
 20 21  1  1
 20 19  1  0
 20 22  1  0
 23 22  1  1
 23 25  1  0
 23 24  1  0
 24 16  1  0
 25 27  1  0
 26 25  2  0
M  END
$$$$
