GGC.pdb
     RDKit          3D

 15 14  0  0  1  0  0  0  0  0999 V2000
   19.6509  -22.2236  -11.4484 N   0  0  0  0  0  0  0  0  0  0  0  0
   20.1329  -22.6474  -12.7270 C   0  0  0  0  0  0  0  0  0  0  0  0
   20.8180  -21.5122  -13.4157 C   0  0  0  0  0  0  0  0  0  0  0  0
   20.1435  -20.5444  -13.8348 O   0  0  0  0  0  0  0  0  0  0  0  0
   22.2203  -21.4923  -13.6133 N   0  0  0  0  0  0  0  0  0  0  0  0
   22.8878  -20.4522  -14.3516 C   0  0  0  0  0  0  0  0  0  0  0  0
   24.0991  -19.9549  -13.6542 C   0  0  0  0  0  0  0  0  0  0  0  0
   24.4418  -18.7506  -13.7655 O   0  0  0  0  0  0  0  0  0  0  0  0
   24.8938  -20.8122  -12.8533 N   0  0  0  0  0  0  0  0  0  0  0  0
   26.1157  -20.3799  -12.2081 C   0  0  1  0  0  0  0  0  0  0  0  0
   26.2363  -21.0242  -10.8210 C   0  0  0  0  0  0  0  0  0  0  0  0
   24.9152  -20.4578   -9.7356 S   0  0  0  0  0  0  0  0  0  0  0  0
   27.2926  -20.7964  -12.9976 C   0  0  0  0  0  0  0  0  0  0  0  0
   27.1574  -21.6895  -13.8606 O   0  0  0  0  0  0  0  0  0  0  0  0
   28.5199  -20.2224  -12.7988 O   0  0  0  0  0  0  0  0  0  0  0  0
  2  1  1  0
  3  5  1  0
  3  2  1  0
  4  3  2  0
  6  5  1  0
  7  6  1  0
  8  7  2  0
  9  7  1  0
 10 13  1  0
 10  9  1  0
 10 11  1  1
 12 11  1  0
 13 15  1  0
 14 13  2  0
M  END
$$$$
