GGC.pdb
     RDKit          3D

 15 14  0  0  1  0  0  0  0  0999 V2000
   20.9935  -14.5309  -18.4960 N   0  0  0  0  0  0  0  0  0  0  0  0
   20.9097  -14.0383  -19.8365 C   0  0  0  0  0  0  0  0  0  0  0  0
   21.0691  -12.5528  -19.8449 C   0  0  0  0  0  0  0  0  0  0  0  0
   21.0511  -11.9341  -20.9331 O   0  0  0  0  0  0  0  0  0  0  0  0
   21.2419  -11.8110  -18.6508 N   0  0  0  0  0  0  0  0  0  0  0  0
   21.1839  -10.3731  -18.6121 C   0  0  0  0  0  0  0  0  0  0  0  0
   20.9156   -9.8567  -17.2476 C   0  0  0  0  0  0  0  0  0  0  0  0
   19.7790  -10.0012  -16.7302 O   0  0  0  0  0  0  0  0  0  0  0  0
   21.9197   -9.1944  -16.4984 N   0  0  0  0  0  0  0  0  0  0  0  0
   21.7111   -8.7208  -15.1462 C   0  0  1  0  0  0  0  0  0  0  0  0
   22.9075   -9.1004  -14.2639 C   0  0  0  0  0  0  0  0  0  0  0  0
   23.0997  -10.8894  -14.1820 S   0  0  0  0  0  0  0  0  0  0  0  0
   21.5913   -7.2487  -15.1266 C   0  0  0  0  0  0  0  0  0  0  0  0
   22.0806   -6.5889  -16.0679 O   0  0  0  0  0  0  0  0  0  0  0  0
   20.9568   -6.6019  -14.0998 O   0  0  0  0  0  0  0  0  0  0  0  0
  2  1  1  0
  3  5  1  0
  3  2  1  0
  4  3  2  0
  6  5  1  0
  7  6  1  0
  8  7  2  0
  9  7  1  0
 10 13  1  0
 10  9  1  0
 10 11  1  1
 12 11  1  0
 13 15  1  0
 14 13  2  0
M  END
$$$$
