GGC.pdb
     RDKit          3D

 15 14  0  0  1  0  0  0  0  0999 V2000
   18.5933   -9.6084  -17.0502 N   0  0  0  0  0  0  0  0  0  0  0  0
   17.8214   -9.4476  -15.8565 C   0  0  0  0  0  0  0  0  0  0  0  0
   18.7026   -9.5818  -14.6574 C   0  0  0  0  0  0  0  0  0  0  0  0
   19.5546  -10.4981  -14.6145 O   0  0  0  0  0  0  0  0  0  0  0  0
   18.6068   -8.6984  -13.5546 N   0  0  0  0  0  0  0  0  0  0  0  0
   19.5294   -8.7292  -12.4499 C   0  0  0  0  0  0  0  0  0  0  0  0
   20.6168   -7.7307  -12.5960 C   0  0  0  0  0  0  0  0  0  0  0  0
   21.3666   -7.4669  -11.6222 O   0  0  0  0  0  0  0  0  0  0  0  0
   20.8382   -7.0547  -13.8217 N   0  0  0  0  0  0  0  0  0  0  0  0
   21.8756   -6.0602  -13.9973 C   0  0  1  0  0  0  0  0  0  0  0  0
   22.5249   -6.2135  -15.3789 C   0  0  0  0  0  0  0  0  0  0  0  0
   23.7413   -4.9155  -15.6616 S   0  0  0  0  0  0  0  0  0  0  0  0
   21.3059   -4.6996  -13.9203 C   0  0  0  0  0  0  0  0  0  0  0  0
   20.1656   -4.4934  -14.3872 O   0  0  0  0  0  0  0  0  0  0  0  0
   22.0040   -3.6692  -13.3491 O   0  0  0  0  0  0  0  0  0  0  0  0
  2  1  1  0
  3  5  1  0
  3  2  1  0
  4  3  2  0
  6  5  1  0
  7  6  1  0
  8  7  2  0
  9  7  1  0
 10 13  1  0
 10  9  1  0
 10 11  1  6
 12 11  1  0
 13 15  1  0
 14 13  2  0
M  END
$$$$
