GGC.pdb
     RDKit          3D

 15 14  0  0  1  0  0  0  0  0999 V2000
   17.8917  -14.1884  -15.3926 N   0  0  0  0  0  0  0  0  0  0  0  0
   17.4102  -12.8417  -15.4275 C   0  0  0  0  0  0  0  0  0  0  0  0
   18.4288  -11.9523  -16.0627 C   0  0  0  0  0  0  0  0  0  0  0  0
   19.0996  -12.3728  -17.0325 O   0  0  0  0  0  0  0  0  0  0  0  0
   18.6650  -10.6344  -15.6009 N   0  0  0  0  0  0  0  0  0  0  0  0
   19.5030   -9.7004  -16.3067 C   0  0  0  0  0  0  0  0  0  0  0  0
   19.6978   -8.4375  -15.5533 C   0  0  0  0  0  0  0  0  0  0  0  0
   18.7305   -7.9059  -14.9514 O   0  0  0  0  0  0  0  0  0  0  0  0
   20.9632   -7.8026  -15.4914 N   0  0  0  0  0  0  0  0  0  0  0  0
   21.1948   -6.5758  -14.7584 C   0  0  1  0  0  0  0  0  0  0  0  0
   22.3267   -6.7743  -13.7420 C   0  0  0  0  0  0  0  0  0  0  0  0
   22.5488   -5.2972  -12.7354 S   0  0  0  0  0  0  0  0  0  0  0  0
   21.6044   -5.4940  -15.6770 C   0  0  0  0  0  0  0  0  0  0  0  0
   22.3149   -5.7756  -16.6652 O   0  0  0  0  0  0  0  0  0  0  0  0
   21.2196   -4.1973  -15.4627 O   0  0  0  0  0  0  0  0  0  0  0  0
  2  1  1  0
  3  5  1  0
  3  2  1  0
  4  3  2  0
  6  5  1  0
  7  6  1  0
  8  7  2  0
  9  7  1  0
 10 13  1  0
 10  9  1  0
 10 11  1  1
 12 11  1  0
 13 15  1  0
 14 13  2  0
M  END
$$$$
