GGC.pdb
     RDKit          3D

 15 14  0  0  1  0  0  0  0  0999 V2000
   12.5284  -12.2311  -11.0907 N   0  0  0  0  0  0  0  0  0  0  0  0
   12.5254  -10.8041  -10.9892 C   0  0  0  0  0  0  0  0  0  0  0  0
   13.5711  -10.3596  -10.0191 C   0  0  0  0  0  0  0  0  0  0  0  0
   14.2685  -11.2134   -9.4259 O   0  0  0  0  0  0  0  0  0  0  0  0
   13.8040   -8.9899   -9.7438 N   0  0  0  0  0  0  0  0  0  0  0  0
   14.8271   -8.5413   -8.8357 C   0  0  0  0  0  0  0  0  0  0  0  0
   16.0833   -8.1793   -9.5368 C   0  0  0  0  0  0  0  0  0  0  0  0
   17.0553   -7.7134   -8.8901 O   0  0  0  0  0  0  0  0  0  0  0  0
   16.2214   -8.3464  -10.9373 N   0  0  0  0  0  0  0  0  0  0  0  0
   17.4511   -8.0643  -11.6474 C   0  0  1  0  0  0  0  0  0  0  0  0
   17.9472   -9.3264  -12.3650 C   0  0  0  0  0  0  0  0  0  0  0  0
   18.5014  -10.5616  -11.1770 S   0  0  0  0  0  0  0  0  0  0  0  0
   17.2289   -7.0255  -12.6737 C   0  0  0  0  0  0  0  0  0  0  0  0
   16.0611   -6.7788  -13.0425 O   0  0  0  0  0  0  0  0  0  0  0  0
   18.2762   -6.3344  -13.2224 O   0  0  0  0  0  0  0  0  0  0  0  0
  2  1  1  0
  3  5  1  0
  3  2  1  0
  4  3  2  0
  6  5  1  0
  7  6  1  0
  8  7  2  0
  9  7  1  0
 10 13  1  0
 10  9  1  0
 10 11  1  6
 12 11  1  0
 13 15  1  0
 14 13  2  0
M  END
$$$$
