GGC.pdb
     RDKit          3D

 15 14  0  0  1  0  0  0  0  0999 V2000
   22.6956  -21.0322  -18.6644 N   0  0  0  0  0  0  0  0  0  0  0  0
   22.4768  -21.4497  -17.3137 C   0  0  0  0  0  0  0  0  0  0  0  0
   23.1200  -20.4852  -16.3712 C   0  0  0  0  0  0  0  0  0  0  0  0
   24.3643  -20.4899  -16.2338 O   0  0  0  0  0  0  0  0  0  0  0  0
   22.3623  -19.5548  -15.6187 N   0  0  0  0  0  0  0  0  0  0  0  0
   22.9580  -18.6562  -14.6646 C   0  0  0  0  0  0  0  0  0  0  0  0
   23.3904  -17.3805  -15.2861 C   0  0  0  0  0  0  0  0  0  0  0  0
   22.6070  -16.3980  -15.3210 O   0  0  0  0  0  0  0  0  0  0  0  0
   24.6820  -17.2351  -15.8507 N   0  0  0  0  0  0  0  0  0  0  0  0
   25.1571  -15.9928  -16.4226 C   0  0  1  0  0  0  0  0  0  0  0  0
   26.6463  -15.8021  -16.1067 C   0  0  0  0  0  0  0  0  0  0  0  0
   26.8931  -15.4947  -14.3491 S   0  0  0  0  0  0  0  0  0  0  0  0
   25.0114  -16.0111  -17.8924 C   0  0  0  0  0  0  0  0  0  0  0  0
   25.2905  -17.0574  -18.5154 O   0  0  0  0  0  0  0  0  0  0  0  0
   24.5783  -14.9066  -18.5764 O   0  0  0  0  0  0  0  0  0  0  0  0
  2  1  1  0
  3  5  1  0
  3  2  1  0
  4  3  2  0
  6  5  1  0
  7  6  1  0
  8  7  2  0
  9  7  1  0
 10 13  1  0
 10  9  1  0
 10 11  1  6
 12 11  1  0
 13 15  1  0
 14 13  2  0
M  END
$$$$
