GGC.pdb
     RDKit          3D

 15 14  0  0  1  0  0  0  0  0999 V2000
   25.3211  -24.2784  -16.1894 N   0  0  0  0  0  0  0  0  0  0  0  0
   25.7204  -23.8644  -14.8795 C   0  0  0  0  0  0  0  0  0  0  0  0
   25.2244  -22.4813  -14.6084 C   0  0  0  0  0  0  0  0  0  0  0  0
   25.3106  -21.6067  -15.5000 O   0  0  0  0  0  0  0  0  0  0  0  0
   24.6534  -22.1208  -13.3635 N   0  0  0  0  0  0  0  0  0  0  0  0
   24.1956  -20.7869  -13.0741 C   0  0  0  0  0  0  0  0  0  0  0  0
   22.8921  -20.4871  -13.7156 C   0  0  0  0  0  0  0  0  0  0  0  0
   22.5289  -19.2949  -13.8802 O   0  0  0  0  0  0  0  0  0  0  0  0
   22.0304  -21.5226  -14.1554 N   0  0  0  0  0  0  0  0  0  0  0  0
   20.8591  -21.2804  -14.9712 C   0  0  1  0  0  0  0  0  0  0  0  0
   20.8257  -22.2611  -16.1506 C   0  0  0  0  0  0  0  0  0  0  0  0
   22.1819  -21.9367  -17.2907 S   0  0  0  0  0  0  0  0  0  0  0  0
   19.6276  -21.4887  -14.1826 C   0  0  0  0  0  0  0  0  0  0  0  0
   19.6713  -22.2265  -13.1754 O   0  0  0  0  0  0  0  0  0  0  0  0
   18.4483  -20.8894  -14.5367 O   0  0  0  0  0  0  0  0  0  0  0  0
  2  1  1  0
  3  5  1  0
  3  2  1  0
  4  3  2  0
  6  5  1  0
  7  6  1  0
  8  7  2  0
  9  7  1  0
 10 13  1  0
 10  9  1  0
 10 11  1  6
 12 11  1  0
 13 15  1  0
 14 13  2  0
M  END
$$$$
