GGC.pdb
     RDKit          3D

 15 14  0  0  1  0  0  0  0  0999 V2000
   16.4139  -12.5503  -14.6719 N   0  0  0  0  0  0  0  0  0  0  0  0
   16.4090  -11.1314  -14.4897 C   0  0  0  0  0  0  0  0  0  0  0  0
   16.6638  -10.8006  -13.0551 C   0  0  0  0  0  0  0  0  0  0  0  0
   16.4427  -11.6605  -12.1726 O   0  0  0  0  0  0  0  0  0  0  0  0
   17.1524   -9.5333  -12.6538 N   0  0  0  0  0  0  0  0  0  0  0  0
   17.3757   -9.1859  -11.2747 C   0  0  0  0  0  0  0  0  0  0  0  0
   16.4788   -8.0970  -10.8157 C   0  0  0  0  0  0  0  0  0  0  0  0
   16.2074   -7.1378  -11.5815 O   0  0  0  0  0  0  0  0  0  0  0  0
   15.9099   -8.1072   -9.5178 N   0  0  0  0  0  0  0  0  0  0  0  0
   14.9806   -7.0974   -9.0564 C   0  0  1  0  0  0  0  0  0  0  0  0
   14.1195   -7.6548   -7.9155 C   0  0  0  0  0  0  0  0  0  0  0  0
   13.2788   -9.1635   -8.4271 S   0  0  0  0  0  0  0  0  0  0  0  0
   15.7097   -5.9242   -8.5331 C   0  0  0  0  0  0  0  0  0  0  0  0
   16.9198   -6.0421   -8.2459 O   0  0  0  0  0  0  0  0  0  0  0  0
   15.0834   -4.7189   -8.3595 O   0  0  0  0  0  0  0  0  0  0  0  0
  2  1  1  0
  3  5  1  0
  3  2  1  0
  4  3  2  0
  6  5  1  0
  7  6  1  0
  8  7  2  0
  9  7  1  0
 10 13  1  0
 10  9  1  0
 10 11  1  1
 12 11  1  0
 13 15  1  0
 14 13  2  0
M  END
$$$$
