VSH.pdb
     RDKit          3D

 24 24  0  0  1  0  0  0  0  0999 V2000
   20.0053  -11.5433  -18.6790 C   0  0  0  0  0  0  0  0  0  0  0  0
   19.3030  -11.7034  -17.3451 C   0  0  2  0  0  0  0  0  0  0  0  0
   19.0964  -13.1589  -17.0787 C   0  0  0  0  0  0  0  0  0  0  0  0
   18.0205  -10.9165  -17.4123 C   0  0  2  0  0  0  0  0  0  0  0  0
   17.1724  -11.5026  -18.4045 N   0  0  0  0  0  0  0  0  0  0  0  0
   18.2657   -9.4710  -17.6500 C   0  0  0  0  0  0  0  0  0  0  0  0
   17.9068   -8.9347  -18.7095 O   0  0  0  0  0  0  0  0  0  0  0  0
   18.1724   -5.1191  -17.2880 O   0  0  0  0  0  0  0  0  0  0  0  0
   17.9008   -6.4737  -17.1374 C   0  0  0  0  0  0  0  0  0  0  0  0
   19.1613   -7.2512  -16.8274 C   0  0  2  0  0  0  0  0  0  0  0  0
   18.9144   -8.6591  -16.6802 N   0  0  0  0  0  0  0  0  0  0  0  0
   19.8241   -6.7207  -15.6319 C   0  0  0  0  0  0  0  0  0  0  0  0
   19.3025   -6.9165  -14.5031 O   0  0  0  0  0  0  0  0  0  0  0  0
   21.0492   -5.9845  -15.7064 N   0  0  0  0  0  0  0  0  0  0  0  0
   21.6450   -5.4215  -14.5126 C   0  0  1  0  0  0  0  0  0  0  0  0
   23.0500   -5.9551  -14.3052 C   0  0  0  0  0  0  0  0  0  0  0  0
   23.0449   -7.4467  -14.2441 C   0  0  0  0  0  0  0  0  0  0  0  0
   21.9426   -8.2626  -14.3868 C   0  0  0  0  0  0  0  0  0  0  0  0
   22.3315   -9.5422  -14.2714 N   0  0  0  0  0  0  0  0  0  0  0  0
   23.6598   -9.5620  -14.0577 C   0  0  0  0  0  0  0  0  0  0  0  0
   24.0751   -8.2727  -14.0447 N   0  0  0  0  0  0  0  0  0  0  0  0
   21.6185   -3.9537  -14.5705 C   0  0  0  0  0  0  0  0  0  0  0  0
   21.1958   -3.3307  -15.5678 O   0  0  0  0  0  0  0  0  0  0  0  0
   22.0771   -3.2293  -13.4836 O   0  0  0  0  0  0  0  0  0  0  0  0
  2  1  1  6
  2  4  1  0
  3  2  1  0
  4  6  1  0
  4  5  1  6
  6  7  2  0
  9  8  1  0
 10  9  1  1
 10 12  1  0
 11 10  1  0
 11  6  1  0
 12 13  2  0
 14 12  1  0
 14 15  1  0
 15 22  1  0
 15 16  1  6
 17 21  1  0
 17 16  1  0
 18 17  2  0
 19 18  1  0
 19 20  1  0
 20 21  2  0
 22 23  2  0
 22 24  1  0
M  END
$$$$
