VSH.pdb
     RDKit          3D

 24 24  0  0  1  0  0  0  0  0999 V2000
   18.9680  -23.5455  -16.0763 C   0  0  0  0  0  0  0  0  0  0  0  0
   20.1826  -23.2681  -15.2126 C   0  0  2  0  0  0  0  0  0  0  0  0
   20.4414  -21.7967  -15.1998 C   0  0  0  0  0  0  0  0  0  0  0  0
   21.3265  -24.0749  -15.7688 C   0  0  2  0  0  0  0  0  0  0  0  0
   21.5729  -23.6566  -17.1148 N   0  0  0  0  0  0  0  0  0  0  0  0
   21.0829  -25.5360  -15.6587 C   0  0  0  0  0  0  0  0  0  0  0  0
   19.9592  -26.0087  -15.8882 O   0  0  0  0  0  0  0  0  0  0  0  0
   24.0445  -28.2689  -14.0592 O   0  0  0  0  0  0  0  0  0  0  0  0
   23.2863  -28.5894  -15.1788 C   0  0  0  0  0  0  0  0  0  0  0  0
   21.9616  -27.8583  -15.1678 C   0  0  2  0  0  0  0  0  0  0  0  0
   22.1200  -26.4353  -15.2898 N   0  0  0  0  0  0  0  0  0  0  0  0
   21.1920  -28.1856  -13.9634 C   0  0  0  0  0  0  0  0  0  0  0  0
   21.0475  -27.3100  -13.0706 O   0  0  0  0  0  0  0  0  0  0  0  0
   20.5973  -29.4728  -13.7686 N   0  0  0  0  0  0  0  0  0  0  0  0
   19.8109  -29.7503  -12.5848 C   0  0  1  0  0  0  0  0  0  0  0  0
   18.6703  -28.7593  -12.4477 C   0  0  0  0  0  0  0  0  0  0  0  0
   17.7525  -29.1601  -11.3406 C   0  0  0  0  0  0  0  0  0  0  0  0
   17.8997  -30.2581  -10.5197 C   0  0  0  0  0  0  0  0  0  0  0  0
   16.8801  -30.2876   -9.6470 N   0  0  0  0  0  0  0  0  0  0  0  0
   16.0837  -29.2313   -9.8925 C   0  0  0  0  0  0  0  0  0  0  0  0
   16.6344  -28.5565  -10.9299 N   0  0  0  0  0  0  0  0  0  0  0  0
   19.3320  -31.1392  -12.6022 C   0  0  0  0  0  0  0  0  0  0  0  0
   18.5729  -31.5965  -11.7214 O   0  0  0  0  0  0  0  0  0  0  0  0
   19.7332  -31.9761  -13.6295 O   0  0  0  0  0  0  0  0  0  0  0  0
  2  1  1  6
  2  4  1  0
  3  2  1  0
  4  6  1  0
  4  5  1  6
  6  7  2  0
  9  8  1  0
 10  9  1  1
 10 12  1  0
 11 10  1  0
 11  6  1  0
 12 13  2  0
 14 12  1  0
 14 15  1  0
 15 22  1  0
 15 16  1  6
 17 21  1  0
 17 16  1  0
 18 17  2  0
 19 18  1  0
 19 20  1  0
 20 21  2  0
 22 23  2  0
 22 24  1  0
M  END
$$$$
