VSH.pdb
     RDKit          3D

 24 24  0  0  1  0  0  0  0  0999 V2000
   22.7359  -12.8266  -15.7724 C   0  0  0  0  0  0  0  0  0  0  0  0
   21.7243  -13.7820  -15.1706 C   0  0  2  0  0  0  0  0  0  0  0  0
   22.4156  -15.0580  -14.8157 C   0  0  0  0  0  0  0  0  0  0  0  0
   20.6158  -13.9579  -16.1750 C   0  0  2  0  0  0  0  0  0  0  0  0
   21.1385  -14.6314  -17.3241 N   0  0  0  0  0  0  0  0  0  0  0  0
   19.9625  -12.6681  -16.5152 C   0  0  0  0  0  0  0  0  0  0  0  0
   20.4094  -11.9537  -17.4255 O   0  0  0  0  0  0  0  0  0  0  0  0
   16.0617   -9.7874  -15.8760 O   0  0  0  0  0  0  0  0  0  0  0  0
   16.7173  -10.9668  -15.5440 C   0  0  0  0  0  0  0  0  0  0  0  0
   18.1309  -10.9754  -16.0836 C   0  0  2  0  0  0  0  0  0  0  0  0
   18.8124  -12.2116  -15.8154 N   0  0  0  0  0  0  0  0  0  0  0  0
   18.8998   -9.8431  -15.5576 C   0  0  0  0  0  0  0  0  0  0  0  0
   19.5689   -9.9931  -14.5020 O   0  0  0  0  0  0  0  0  0  0  0  0
   18.9149   -8.5680  -16.2075 N   0  0  0  0  0  0  0  0  0  0  0  0
   19.5896   -7.4392  -15.6011 C   0  0  1  0  0  0  0  0  0  0  0  0
   20.9051   -7.1546  -16.3012 C   0  0  0  0  0  0  0  0  0  0  0  0
   21.5532   -5.9359  -15.7325 C   0  0  0  0  0  0  0  0  0  0  0  0
   21.9996   -5.7816  -14.4372 C   0  0  0  0  0  0  0  0  0  0  0  0
   22.5227   -4.5529  -14.3014 N   0  0  0  0  0  0  0  0  0  0  0  0
   22.4203   -3.9177  -15.4831 C   0  0  0  0  0  0  0  0  0  0  0  0
   21.8258   -4.7796  -16.3425 N   0  0  0  0  0  0  0  0  0  0  0  0
   18.7091   -6.2631  -15.5881 C   0  0  0  0  0  0  0  0  0  0  0  0
   19.0110   -5.2076  -14.9915 O   0  0  0  0  0  0  0  0  0  0  0  0
   17.4999   -6.3207  -16.2598 O   0  0  0  0  0  0  0  0  0  0  0  0
  2  1  1  6
  2  4  1  0
  3  2  1  0
  4  6  1  0
  4  5  1  6
  6  7  2  0
  9  8  1  0
 10  9  1  1
 10 12  1  0
 11 10  1  0
 11  6  1  0
 12 13  2  0
 14 12  1  0
 14 15  1  0
 15 22  1  0
 15 16  1  6
 17 21  1  0
 17 16  1  0
 18 17  2  0
 19 18  1  0
 19 20  1  0
 20 21  2  0
 22 23  2  0
 22 24  1  0
M  END
$$$$
