VSH.pdb
     RDKit          3D

 24 24  0  0  1  0  0  0  0  0999 V2000
   14.9499  -26.2122   -6.5673 C   0  0  0  0  0  0  0  0  0  0  0  0
   16.3393  -26.6559   -6.1538 C   0  0  2  0  0  0  0  0  0  0  0  0
   16.2183  -27.6808   -5.0735 C   0  0  0  0  0  0  0  0  0  0  0  0
   17.1000  -25.4259   -5.7332 C   0  0  2  0  0  0  0  0  0  0  0  0
   16.4603  -24.8591   -4.5856 N   0  0  0  0  0  0  0  0  0  0  0  0
   17.2457  -24.4533   -6.8463 C   0  0  0  0  0  0  0  0  0  0  0  0
   16.4048  -23.5575   -7.0174 O   0  0  0  0  0  0  0  0  0  0  0  0
   20.2401  -22.6399  -10.2647 O   0  0  0  0  0  0  0  0  0  0  0  0
   20.0308  -23.5741   -9.2574 C   0  0  0  0  0  0  0  0  0  0  0  0
   18.5875  -23.5721   -8.8031 C   0  0  2  0  0  0  0  0  0  0  0  0
   18.3444  -24.5147   -7.7462 N   0  0  0  0  0  0  0  0  0  0  0  0
   17.6829  -23.8223   -9.9295 C   0  0  0  0  0  0  0  0  0  0  0  0
   17.0657  -24.9178   -9.9893 O   0  0  0  0  0  0  0  0  0  0  0  0
   17.4776  -22.8584  -10.9674 N   0  0  0  0  0  0  0  0  0  0  0  0
   16.5134  -23.1020  -12.0200 C   0  0  1  0  0  0  0  0  0  0  0  0
   15.1389  -23.3811  -11.4413 C   0  0  0  0  0  0  0  0  0  0  0  0
   14.1604  -23.6848  -12.5272 C   0  0  0  0  0  0  0  0  0  0  0  0
   14.4381  -23.7541  -13.8759 C   0  0  0  0  0  0  0  0  0  0  0  0
   13.3079  -24.0493  -14.5373 N   0  0  0  0  0  0  0  0  0  0  0  0
   12.3129  -24.1704  -13.6398 C   0  0  0  0  0  0  0  0  0  0  0  0
   12.8549  -23.9440  -12.4192 N   0  0  0  0  0  0  0  0  0  0  0  0
   16.4927  -21.9779  -12.9657 C   0  0  0  0  0  0  0  0  0  0  0  0
   17.2323  -20.9793  -12.8347 O   0  0  0  0  0  0  0  0  0  0  0  0
   15.6243  -22.0211  -14.0430 O   0  0  0  0  0  0  0  0  0  0  0  0
  2  1  1  1
  2  4  1  0
  3  2  1  0
  4  6  1  0
  4  5  1  1
  6  7  2  0
  9  8  1  0
 10  9  1  6
 10 12  1  0
 11 10  1  0
 11  6  1  0
 12 13  2  0
 14 12  1  0
 14 15  1  0
 15 22  1  0
 15 16  1  1
 17 21  1  0
 17 16  1  0
 18 17  2  0
 19 18  1  0
 19 20  1  0
 20 21  2  0
 22 23  2  0
 22 24  1  0
M  END
$$$$
