VSH.pdb
     RDKit          3D

 24 24  0  0  1  0  0  0  0  0999 V2000
   13.7816  -13.5434  -16.9495 C   0  0  0  0  0  0  0  0  0  0  0  0
   12.9532  -12.5943  -16.1063 C   0  0  2  0  0  0  0  0  0  0  0  0
   12.3285  -11.5728  -16.9999 C   0  0  0  0  0  0  0  0  0  0  0  0
   13.8649  -12.0035  -15.0631 C   0  0  2  0  0  0  0  0  0  0  0  0
   13.0674  -11.3404  -14.0773 N   0  0  0  0  0  0  0  0  0  0  0  0
   14.8928  -11.1136  -15.6612 C   0  0  0  0  0  0  0  0  0  0  0  0
   15.7494  -11.5678  -16.4350 O   0  0  0  0  0  0  0  0  0  0  0  0
   15.1700   -7.0814  -14.4053 O   0  0  0  0  0  0  0  0  0  0  0  0
   15.4753   -7.3596  -15.7321 C   0  0  0  0  0  0  0  0  0  0  0  0
   15.8965   -8.8028  -15.9037 C   0  0  2  0  0  0  0  0  0  0  0  0
   14.9303   -9.7227  -15.3701 N   0  0  0  0  0  0  0  0  0  0  0  0
   17.2134   -9.0396  -15.3040 C   0  0  0  0  0  0  0  0  0  0  0  0
   17.2813   -9.4923  -14.1314 O   0  0  0  0  0  0  0  0  0  0  0  0
   18.4289   -8.7719  -16.0106 N   0  0  0  0  0  0  0  0  0  0  0  0
   19.7110   -9.1022  -15.4240 C   0  0  1  0  0  0  0  0  0  0  0  0
   20.5570   -9.9095  -16.3906 C   0  0  0  0  0  0  0  0  0  0  0  0
   21.8932  -10.2121  -15.7975 C   0  0  0  0  0  0  0  0  0  0  0  0
   22.1952  -11.2760  -14.9742 C   0  0  0  0  0  0  0  0  0  0  0  0
   23.4948  -11.2142  -14.6439 N   0  0  0  0  0  0  0  0  0  0  0  0
   24.0306  -10.1328  -15.2388 C   0  0  0  0  0  0  0  0  0  0  0  0
   23.0360   -9.5356  -15.9379 N   0  0  0  0  0  0  0  0  0  0  0  0
   20.3994   -7.8832  -14.9782 C   0  0  0  0  0  0  0  0  0  0  0  0
   20.2215   -6.7752  -15.5275 O   0  0  0  0  0  0  0  0  0  0  0  0
   21.2784   -7.9591  -13.9113 O   0  0  0  0  0  0  0  0  0  0  0  0
  2  1  1  6
  2  4  1  0
  3  2  1  0
  4  6  1  0
  4  5  1  1
  6  7  2  0
  9  8  1  0
 10  9  1  1
 10 12  1  0
 11 10  1  0
 11  6  1  0
 12 13  2  0
 14 12  1  0
 14 15  1  0
 15 22  1  0
 15 16  1  6
 17 21  1  0
 17 16  1  0
 18 17  2  0
 19 18  1  0
 19 20  1  0
 20 21  2  0
 22 23  2  0
 22 24  1  0
M  END
$$$$
