VSH.pdb
     RDKit          3D

 24 24  0  0  1  0  0  0  0  0999 V2000
   17.3412  -14.0389  -18.3191 C   0  0  0  0  0  0  0  0  0  0  0  0
   17.7583  -14.4540  -16.9220 C   0  0  2  0  0  0  0  0  0  0  0  0
   16.9604  -15.6494  -16.5140 C   0  0  0  0  0  0  0  0  0  0  0  0
   17.5627  -13.2640  -16.0196 C   0  0  2  0  0  0  0  0  0  0  0  0
   16.1604  -13.0109  -15.8893 N   0  0  0  0  0  0  0  0  0  0  0  0
   18.3174  -12.0757  -16.4933 C   0  0  0  0  0  0  0  0  0  0  0  0
   19.5548  -12.1039  -16.5750 O   0  0  0  0  0  0  0  0  0  0  0  0
   16.2405   -8.5044  -17.4708 O   0  0  0  0  0  0  0  0  0  0  0  0
   17.3737   -8.8385  -18.2025 C   0  0  0  0  0  0  0  0  0  0  0  0
   18.3087   -9.7097  -17.3923 C   0  0  2  0  0  0  0  0  0  0  0  0
   17.6535  -10.8753  -16.8662 N   0  0  0  0  0  0  0  0  0  0  0  0
   18.9343   -8.9428  -16.3104 C   0  0  0  0  0  0  0  0  0  0  0  0
   18.4348   -8.9905  -15.1560 O   0  0  0  0  0  0  0  0  0  0  0  0
   20.0988   -8.1387  -16.5245 N   0  0  0  0  0  0  0  0  0  0  0  0
   20.6308   -7.3132  -15.4604 C   0  0  1  0  0  0  0  0  0  0  0  0
   22.1400   -7.4439  -15.3763 C   0  0  0  0  0  0  0  0  0  0  0  0
   22.5282   -8.8246  -14.9618 C   0  0  0  0  0  0  0  0  0  0  0  0
   21.6646   -9.8567  -14.6620 C   0  0  0  0  0  0  0  0  0  0  0  0
   22.3826  -10.9420  -14.3327 N   0  0  0  0  0  0  0  0  0  0  0  0
   23.6878  -10.6257  -14.4156 C   0  0  0  0  0  0  0  0  0  0  0  0
   23.7542   -9.3289  -14.8011 N   0  0  0  0  0  0  0  0  0  0  0  0
   20.2100   -5.9165  -15.6368 C   0  0  0  0  0  0  0  0  0  0  0  0
   19.7118   -5.4972  -16.7032 O   0  0  0  0  0  0  0  0  0  0  0  0
   20.3689   -5.0285  -14.5866 O   0  0  0  0  0  0  0  0  0  0  0  0
  2  1  1  6
  2  4  1  0
  3  2  1  0
  4  6  1  0
  4  5  1  6
  6  7  2  0
  9  8  1  0
 10  9  1  1
 10 12  1  0
 11 10  1  0
 11  6  1  0
 12 13  2  0
 14 12  1  0
 14 15  1  0
 15 22  1  0
 15 16  1  6
 17 21  1  0
 17 16  1  0
 18 17  2  0
 19 18  1  0
 19 20  1  0
 20 21  2  0
 22 23  2  0
 22 24  1  0
M  END
$$$$
