VSH.pdb
     RDKit          3D

 24 24  0  0  1  0  0  0  0  0999 V2000
   22.2586  -12.1168  -19.4921 C   0  0  0  0  0  0  0  0  0  0  0  0
   21.5297  -10.8899  -18.9807 C   0  0  2  0  0  0  0  0  0  0  0  0
   22.0969   -9.6780  -19.6453 C   0  0  0  0  0  0  0  0  0  0  0  0
   21.6690  -10.8738  -17.4810 C   0  0  2  0  0  0  0  0  0  0  0  0
   21.1989  -12.1215  -16.9618 N   0  0  0  0  0  0  0  0  0  0  0  0
   20.9848   -9.7054  -16.8705 C   0  0  0  0  0  0  0  0  0  0  0  0
   19.7543   -9.5757  -16.9593 O   0  0  0  0  0  0  0  0  0  0  0  0
   21.3161   -7.9948  -13.2394 O   0  0  0  0  0  0  0  0  0  0  0  0
   21.7643   -7.1656  -14.2606 C   0  0  0  0  0  0  0  0  0  0  0  0
   21.1229   -7.5316  -15.5813 C   0  0  2  0  0  0  0  0  0  0  0  0
   21.7101   -8.7038  -16.1694 N   0  0  0  0  0  0  0  0  0  0  0  0
   21.1770   -6.4067  -16.5202 C   0  0  0  0  0  0  0  0  0  0  0  0
   22.2128   -6.2366  -17.2151 O   0  0  0  0  0  0  0  0  0  0  0  0
   20.0868   -5.4921  -16.6733 N   0  0  0  0  0  0  0  0  0  0  0  0
   20.1490   -4.4281  -17.6535 C   0  0  1  0  0  0  0  0  0  0  0  0
   19.3461   -4.7837  -18.8907 C   0  0  0  0  0  0  0  0  0  0  0  0
   19.4786   -3.7204  -19.9302 C   0  0  0  0  0  0  0  0  0  0  0  0
   20.5989   -2.9537  -20.1707 C   0  0  0  0  0  0  0  0  0  0  0  0
   20.3378   -2.1078  -21.1798 N   0  0  0  0  0  0  0  0  0  0  0  0
   19.0736   -2.3174  -21.5898 C   0  0  0  0  0  0  0  0  0  0  0  0
   18.5675   -3.3056  -20.8139 N   0  0  0  0  0  0  0  0  0  0  0  0
   19.7085   -3.1585  -17.0597 C   0  0  0  0  0  0  0  0  0  0  0  0
   19.2685   -3.0824  -15.8927 O   0  0  0  0  0  0  0  0  0  0  0  0
   19.7811   -2.0011  -17.8160 O   0  0  0  0  0  0  0  0  0  0  0  0
  2  1  1  6
  2  4  1  0
  3  2  1  0
  4  6  1  0
  4  5  1  1
  6  7  2  0
  9  8  1  0
 10  9  1  1
 10 12  1  0
 11 10  1  0
 11  6  1  0
 12 13  2  0
 14 12  1  0
 14 15  1  0
 15 22  1  0
 15 16  1  6
 17 21  1  0
 17 16  1  0
 18 17  2  0
 19 18  1  0
 19 20  1  0
 20 21  2  0
 22 23  2  0
 22 24  1  0
M  END
$$$$
