VSH.pdb
     RDKit          3D

 24 24  0  0  1  0  0  0  0  0999 V2000
   14.0420  -12.3053  -14.8986 C   0  0  0  0  0  0  0  0  0  0  0  0
   14.4781  -13.1799  -16.0576 C   0  0  2  0  0  0  0  0  0  0  0  0
   13.3365  -14.0562  -16.4587 C   0  0  0  0  0  0  0  0  0  0  0  0
   15.6964  -13.9456  -15.6126 C   0  0  2  0  0  0  0  0  0  0  0  0
   15.3123  -14.8649  -14.5857 N   0  0  0  0  0  0  0  0  0  0  0  0
   16.7980  -13.0431  -15.1905 C   0  0  0  0  0  0  0  0  0  0  0  0
   16.9201  -12.7072  -14.0026 O   0  0  0  0  0  0  0  0  0  0  0  0
   21.2399  -11.4726  -15.8436 O   0  0  0  0  0  0  0  0  0  0  0  0
   20.1768  -12.2716  -16.2470 C   0  0  0  0  0  0  0  0  0  0  0  0
   18.8560  -11.6953  -15.7858 C   0  0  2  0  0  0  0  0  0  0  0  0
   17.7423  -12.5376  -16.1250 N   0  0  0  0  0  0  0  0  0  0  0  0
   18.6574  -10.3449  -16.3213 C   0  0  0  0  0  0  0  0  0  0  0  0
   18.2744  -10.2072  -17.5124 O   0  0  0  0  0  0  0  0  0  0  0  0
   18.8856   -9.1735  -15.5312 N   0  0  0  0  0  0  0  0  0  0  0  0
   18.8077   -7.8557  -16.1266 C   0  0  1  0  0  0  0  0  0  0  0  0
   18.1288   -6.8764  -15.1876 C   0  0  0  0  0  0  0  0  0  0  0  0
   18.1199   -5.5031  -15.7730 C   0  0  0  0  0  0  0  0  0  0  0  0
   17.3087   -5.0607  -16.7964 C   0  0  0  0  0  0  0  0  0  0  0  0
   17.5894   -3.7722  -17.0470 N   0  0  0  0  0  0  0  0  0  0  0  0
   18.5634   -3.3809  -16.2052 C   0  0  0  0  0  0  0  0  0  0  0  0
   18.8724   -4.4525  -15.4365 N   0  0  0  0  0  0  0  0  0  0  0  0
   20.1441   -7.3952  -16.5273 C   0  0  0  0  0  0  0  0  0  0  0  0
   21.1769   -7.7093  -15.8981 O   0  0  0  0  0  0  0  0  0  0  0  0
   20.2697   -6.5835  -17.6418 O   0  0  0  0  0  0  0  0  0  0  0  0
  2  1  1  1
  2  4  1  0
  3  2  1  0
  4  6  1  0
  4  5  1  1
  6  7  2  0
  9  8  1  0
 10  9  1  6
 10 12  1  0
 11 10  1  0
 11  6  1  0
 12 13  2  0
 14 12  1  0
 14 15  1  0
 15 22  1  0
 15 16  1  1
 17 21  1  0
 17 16  1  0
 18 17  2  0
 19 18  1  0
 19 20  1  0
 20 21  2  0
 22 23  2  0
 22 24  1  0
M  END
$$$$
