VSH.pdb
     RDKit          3D

 24 24  0  0  1  0  0  0  0  0999 V2000
   25.5876  -32.4036   -7.6374 C   0  0  0  0  0  0  0  0  0  0  0  0
   26.6141  -32.9191   -8.6267 C   0  0  2  0  0  0  0  0  0  0  0  0
   26.5159  -32.1208   -9.8858 C   0  0  0  0  0  0  0  0  0  0  0  0
   26.3526  -34.3891   -8.8247 C   0  0  2  0  0  0  0  0  0  0  0  0
   25.0870  -34.5480   -9.4732 N   0  0  0  0  0  0  0  0  0  0  0  0
   26.4425  -35.1474   -7.5508 C   0  0  0  0  0  0  0  0  0  0  0  0
   25.4565  -35.2502   -6.8052 O   0  0  0  0  0  0  0  0  0  0  0  0
   29.3964  -37.9752   -6.7519 O   0  0  0  0  0  0  0  0  0  0  0  0
   29.2253  -37.0318   -5.7460 C   0  0  0  0  0  0  0  0  0  0  0  0
   27.8731  -36.3611   -5.8518 C   0  0  2  0  0  0  0  0  0  0  0  0
   27.6512  -35.7763   -7.1454 N   0  0  0  0  0  0  0  0  0  0  0  0
   27.7034  -35.3541   -4.7996 C   0  0  0  0  0  0  0  0  0  0  0  0
   27.1567  -34.2563   -5.0832 O   0  0  0  0  0  0  0  0  0  0  0  0
   28.1406  -35.5791   -3.4554 N   0  0  0  0  0  0  0  0  0  0  0  0
   27.3439  -35.1245   -2.3350 C   0  0  1  0  0  0  0  0  0  0  0  0
   25.9422  -35.7019   -2.3974 C   0  0  0  0  0  0  0  0  0  0  0  0
   24.9668  -34.6716   -2.8620 C   0  0  0  0  0  0  0  0  0  0  0  0
   25.2713  -33.3934   -3.2796 C   0  0  0  0  0  0  0  0  0  0  0  0
   24.1348  -32.7653   -3.6197 N   0  0  0  0  0  0  0  0  0  0  0  0
   23.1093  -33.6152   -3.4283 C   0  0  0  0  0  0  0  0  0  0  0  0
   23.6393  -34.7727   -2.9657 N   0  0  0  0  0  0  0  0  0  0  0  0
   28.0134  -35.4451   -1.0671 C   0  0  0  0  0  0  0  0  0  0  0  0
   28.0990  -34.6241   -0.1291 O   0  0  0  0  0  0  0  0  0  0  0  0
   28.5717  -36.7010   -0.9000 O   0  0  0  0  0  0  0  0  0  0  0  0
  2  1  1  1
  2  4  1  0
  3  2  1  0
  4  6  1  0
  4  5  1  1
  6  7  2  0
  9  8  1  0
 10  9  1  6
 10 12  1  0
 11 10  1  0
 11  6  1  0
 12 13  2  0
 14 12  1  0
 14 15  1  0
 15 22  1  0
 15 16  1  1
 17 21  1  0
 17 16  1  0
 18 17  2  0
 19 18  1  0
 19 20  1  0
 20 21  2  0
 22 23  2  0
 22 24  1  0
M  END
$$$$
