HAP.pdb
     RDKit          3D

 23 24  0  0  1  0  0  0  0  0999 V2000
    6.5102  -16.0884   19.7399 N   0  0  0  0  0  0  0  0  0  0  0  0
    7.3808  -15.3829   20.6230 C   0  0  1  0  0  0  0  0  0  0  0  0
    7.5701  -13.9428   20.1915 C   0  0  0  0  0  0  0  0  0  0  0  0
    8.2300  -13.8609   18.8728 C   0  0  0  0  0  0  0  0  0  0  0  0
    7.6973  -13.2274   17.7604 C   0  0  0  0  0  0  0  0  0  0  0  0
    8.5848  -13.3698   16.7723 N   0  0  0  0  0  0  0  0  0  0  0  0
    9.6484  -14.0605   17.2067 C   0  0  0  0  0  0  0  0  0  0  0  0
    9.4175  -14.3552   18.4962 N   0  0  0  0  0  0  0  0  0  0  0  0
    6.9285  -15.3876   22.0419 C   0  0  0  0  0  0  0  0  0  0  0  0
    5.7919  -14.9292   22.2918 O   0  0  0  0  0  0  0  0  0  0  0  0
    7.0862  -17.1829   25.0632 C   0  0  0  0  0  0  0  0  0  0  0  0
    7.2882  -15.7866   24.5109 C   0  0  2  0  0  0  0  0  0  0  0  0
    7.7024  -15.8748   23.1054 N   0  0  0  0  0  0  0  0  0  0  0  0
    8.2995  -15.0979   25.3185 C   0  0  0  0  0  0  0  0  0  0  0  0
    9.5418  -15.4055   25.2257 O   0  0  0  0  0  0  0  0  0  0  0  0
    7.9197  -14.0759   26.2174 N   0  0  0  0  0  0  0  0  0  0  0  0
    6.5280  -13.6103   26.3877 C   0  0  0  0  0  0  0  0  0  0  0  0
    6.5879  -13.0153   27.7742 C   0  0  0  0  0  0  0  0  0  0  0  0
    7.8789  -12.1950   27.6251 C   0  0  0  0  0  0  0  0  0  0  0  0
    8.7840  -13.3219   27.0984 C   0  0  1  0  0  0  0  0  0  0  0  0
    9.1095  -14.2166   28.2703 C   0  0  0  0  0  0  0  0  0  0  0  0
    9.9971  -13.9598   29.1001 O   0  0  0  0  0  0  0  0  0  0  0  0
    8.3784  -15.3927   28.4331 O   0  0  0  0  0  0  0  0  0  0  0  0
  2  1  1  6
  2  9  1  0
  2  3  1  0
  3  4  1  0
  4  8  1  0
  4  5  2  0
  5  6  1  0
  7  6  1  0
  8  7  2  0
  9 13  1  0
 10  9  2  0
 12 11  1  1
 12 14  1  0
 13 12  1  0
 14 16  1  0
 15 14  2  0
 16 20  1  0
 16 17  1  0
 17 18  1  0
 19 18  1  0
 20 19  1  0
 20 21  1  1
 21 23  1  0
 22 21  2  0
M  END
$$$$
