HAP.pdb
     RDKit          3D

 23 24  0  0  1  0  0  0  0  0999 V2000
    8.0007  -16.6402   19.1488 N   0  0  0  0  0  0  0  0  0  0  0  0
    8.7559  -15.9218   20.1229 C   0  0  1  0  0  0  0  0  0  0  0  0
    9.4204  -14.6978   19.5260 C   0  0  0  0  0  0  0  0  0  0  0  0
    8.9620  -14.4604   18.1422 C   0  0  0  0  0  0  0  0  0  0  0  0
    9.2256  -15.2965   17.0680 C   0  0  0  0  0  0  0  0  0  0  0  0
    8.6475  -14.7445   15.9976 N   0  0  0  0  0  0  0  0  0  0  0  0
    8.0340  -13.6041   16.3443 C   0  0  0  0  0  0  0  0  0  0  0  0
    8.2349  -13.4422   17.6619 N   0  0  0  0  0  0  0  0  0  0  0  0
    7.9561  -15.4883   21.3020 C   0  0  0  0  0  0  0  0  0  0  0  0
    7.0840  -14.6098   21.1223 O   0  0  0  0  0  0  0  0  0  0  0  0
    6.5770  -16.7074   24.3353 C   0  0  0  0  0  0  0  0  0  0  0  0
    7.3592  -15.5460   23.7565 C   0  0  2  0  0  0  0  0  0  0  0  0
    8.1265  -16.0080   22.5936 N   0  0  0  0  0  0  0  0  0  0  0  0
    8.2435  -15.0052   24.7932 C   0  0  0  0  0  0  0  0  0  0  0  0
    9.4598  -15.4003   24.8970 O   0  0  0  0  0  0  0  0  0  0  0  0
    7.7673  -14.0319   25.7003 N   0  0  0  0  0  0  0  0  0  0  0  0
    6.3602  -13.5860   25.7593 C   0  0  0  0  0  0  0  0  0  0  0  0
    6.2806  -13.0601   27.1725 C   0  0  0  0  0  0  0  0  0  0  0  0
    7.5697  -12.2235   27.1875 C   0  0  0  0  0  0  0  0  0  0  0  0
    8.5346  -13.3160   26.6956 C   0  0  1  0  0  0  0  0  0  0  0  0
    8.7581  -14.2652   27.8483 C   0  0  0  0  0  0  0  0  0  0  0  0
    8.0723  -15.2831   28.0379 O   0  0  0  0  0  0  0  0  0  0  0  0
    9.7863  -13.9888   28.7486 O   0  0  0  0  0  0  0  0  0  0  0  0
  2  1  1  6
  2  9  1  0
  2  3  1  0
  3  4  1  0
  4  8  1  0
  4  5  2  0
  5  6  1  0
  7  6  1  0
  8  7  2  0
  9 13  1  0
 10  9  2  0
 12 11  1  1
 12 14  1  0
 13 12  1  0
 14 16  1  0
 15 14  2  0
 16 20  1  0
 16 17  1  0
 17 18  1  0
 19 18  1  0
 20 19  1  0
 20 21  1  1
 21 23  1  0
 22 21  2  0
M  END
$$$$
