HAP.pdb
     RDKit          3D

 23 24  0  0  1  0  0  0  0  0999 V2000
    7.4161  -16.7190   19.9766 N   0  0  0  0  0  0  0  0  0  0  0  0
    7.7040  -15.5343   20.7175 C   0  0  1  0  0  0  0  0  0  0  0  0
    7.1973  -14.2937   20.0104 C   0  0  0  0  0  0  0  0  0  0  0  0
    7.8696  -14.1067   18.7086 C   0  0  0  0  0  0  0  0  0  0  0  0
    8.7861  -13.1044   18.4292 C   0  0  0  0  0  0  0  0  0  0  0  0
    9.1636  -13.2691   17.1584 N   0  0  0  0  0  0  0  0  0  0  0  0
    8.5312  -14.3238   16.6248 C   0  0  0  0  0  0  0  0  0  0  0  0
    7.7411  -14.8279   17.5863 N   0  0  0  0  0  0  0  0  0  0  0  0
    7.1489  -15.5411   22.0995 C   0  0  0  0  0  0  0  0  0  0  0  0
    5.9514  -15.2114   22.2471 O   0  0  0  0  0  0  0  0  0  0  0  0
    7.2459  -17.1371   25.2273 C   0  0  0  0  0  0  0  0  0  0  0  0
    7.3803  -15.7618   24.6059 C   0  0  2  0  0  0  0  0  0  0  0  0
    7.8907  -15.8950   23.2360 N   0  0  0  0  0  0  0  0  0  0  0  0
    8.2833  -14.9538   25.4311 C   0  0  0  0  0  0  0  0  0  0  0  0
    9.5560  -15.0971   25.3536 O   0  0  0  0  0  0  0  0  0  0  0  0
    7.7626  -13.9961   26.3302 N   0  0  0  0  0  0  0  0  0  0  0  0
    6.3180  -13.7601   26.5297 C   0  0  0  0  0  0  0  0  0  0  0  0
    6.3111  -13.1467   27.9095 C   0  0  0  0  0  0  0  0  0  0  0  0
    7.4483  -12.1299   27.7229 C   0  0  0  0  0  0  0  0  0  0  0  0
    8.5124  -13.1015   27.1842 C   0  0  1  0  0  0  0  0  0  0  0  0
    9.0045  -13.9175   28.3554 C   0  0  0  0  0  0  0  0  0  0  0  0
    8.5362  -15.0267   28.6601 O   0  0  0  0  0  0  0  0  0  0  0  0
   10.0378  -13.4033   29.1378 O   0  0  0  0  0  0  0  0  0  0  0  0
  2  1  1  6
  2  9  1  0
  2  3  1  0
  3  4  1  0
  4  8  1  0
  4  5  2  0
  5  6  1  0
  7  6  1  0
  8  7  2  0
  9 13  1  0
 10  9  2  0
 12 11  1  1
 12 14  1  0
 13 12  1  0
 14 16  1  0
 15 14  2  0
 16 20  1  0
 16 17  1  0
 17 18  1  0
 19 18  1  0
 20 19  1  0
 20 21  1  1
 21 23  1  0
 22 21  2  0
M  END
$$$$
