HAP.pdb
     RDKit          3D

 23 24  0  0  1  0  0  0  0  0999 V2000
    7.3418  -16.5800   20.4526 N   0  0  0  0  0  0  0  0  0  0  0  0
    7.7705  -15.4027   21.1351 C   0  0  1  0  0  0  0  0  0  0  0  0
    7.2063  -14.1488   20.4985 C   0  0  0  0  0  0  0  0  0  0  0  0
    7.6708  -14.0000   19.1045 C   0  0  0  0  0  0  0  0  0  0  0  0
    8.5603  -13.0305   18.6670 C   0  0  0  0  0  0  0  0  0  0  0  0
    8.7287  -13.2236   17.3560 N   0  0  0  0  0  0  0  0  0  0  0  0
    7.9904  -14.2650   16.9470 C   0  0  0  0  0  0  0  0  0  0  0  0
    7.3470  -14.7315   18.0292 N   0  0  0  0  0  0  0  0  0  0  0  0
    7.4205  -15.3873   22.5826 C   0  0  0  0  0  0  0  0  0  0  0  0
    6.2100  -15.3087   22.8876 O   0  0  0  0  0  0  0  0  0  0  0  0
    7.0985  -16.8081   25.1908 C   0  0  0  0  0  0  0  0  0  0  0  0
    8.0090  -15.6078   25.0299 C   0  0  2  0  0  0  0  0  0  0  0  0
    8.3678  -15.4559   23.6146 N   0  0  0  0  0  0  0  0  0  0  0  0
    9.2014  -15.8014   25.8605 C   0  0  0  0  0  0  0  0  0  0  0  0
   10.0482  -16.7284   25.5960 O   0  0  0  0  0  0  0  0  0  0  0  0
    9.4398  -14.9629   26.9727 N   0  0  0  0  0  0  0  0  0  0  0  0
    8.5180  -13.8919   27.4036 C   0  0  0  0  0  0  0  0  0  0  0  0
    8.9031  -13.7436   28.8561 C   0  0  0  0  0  0  0  0  0  0  0  0
   10.4309  -13.7080   28.6943 C   0  0  0  0  0  0  0  0  0  0  0  0
   10.5834  -14.9900   27.8578 C   0  0  1  0  0  0  0  0  0  0  0  0
   10.3900  -16.1587   28.7940 C   0  0  0  0  0  0  0  0  0  0  0  0
    9.2997  -16.7309   28.9563 O   0  0  0  0  0  0  0  0  0  0  0  0
   11.4892  -16.6227   29.5155 O   0  0  0  0  0  0  0  0  0  0  0  0
  2  1  1  6
  2  9  1  0
  2  3  1  0
  3  4  1  0
  4  8  1  0
  4  5  2  0
  5  6  1  0
  7  6  1  0
  8  7  2  0
  9 13  1  0
 10  9  2  0
 12 11  1  6
 12 14  1  0
 13 12  1  0
 14 16  1  0
 15 14  2  0
 16 20  1  0
 16 17  1  0
 17 18  1  0
 19 18  1  0
 20 19  1  0
 20 21  1  1
 21 23  1  0
 22 21  2  0
M  END
$$$$
