QHT.pdb
     RDKit          3D

 27 27  0  0  1  0  0  0  0  0999 V2000
   26.1418  -32.5066  -15.4284 N   0  0  0  0  0  0  0  0  0  0  0  0
   24.8262  -33.0125  -15.7419 C   0  0  0  0  0  0  0  0  0  0  0  0
   24.2778  -33.6964  -14.8559 O   0  0  0  0  0  0  0  0  0  0  0  0
   24.2923  -32.6643  -17.0555 C   0  0  0  0  0  0  0  0  0  0  0  0
   25.2433  -31.8114  -17.8191 C   0  0  0  0  0  0  0  0  0  0  0  0
   24.8477  -30.3612  -17.6736 C   0  0  2  0  0  0  0  0  0  0  0  0
   23.8063  -30.1257  -18.6631 N   0  0  0  0  0  0  0  0  0  0  0  0
   26.0744  -29.5738  -17.9950 C   0  0  0  0  0  0  0  0  0  0  0  0
   26.1635  -29.1237  -19.1742 O   0  0  0  0  0  0  0  0  0  0  0  0
   27.0874  -29.3396  -17.0366 N   0  0  0  0  0  0  0  0  0  0  0  0
   28.2458  -28.5382  -17.4771 C   0  0  1  0  0  0  0  0  0  0  0  0
   28.4692  -27.5048  -16.4318 C   0  0  0  0  0  0  0  0  0  0  0  0
   27.6196  -26.3193  -16.6124 C   0  0  0  0  0  0  0  0  0  0  0  0
   26.8214  -26.0978  -17.7487 C   0  0  0  0  0  0  0  0  0  0  0  0
   26.1591  -24.9312  -17.6267 N   0  0  0  0  0  0  0  0  0  0  0  0
   26.5180  -24.4148  -16.4487 C   0  0  0  0  0  0  0  0  0  0  0  0
   27.3826  -25.2445  -15.8568 N   0  0  0  0  0  0  0  0  0  0  0  0
   29.3802  -29.4513  -17.7374 C   0  0  0  0  0  0  0  0  0  0  0  0
   29.7301  -30.2852  -16.8955 O   0  0  0  0  0  0  0  0  0  0  0  0
   32.7017  -31.1075  -21.0017 C   0  0  0  0  0  0  0  0  0  0  0  0
   31.5951  -30.1156  -20.7088 C   0  0  1  0  0  0  0  0  0  0  0  0
   30.5288  -30.2845  -21.5691 O   0  0  0  0  0  0  0  0  0  0  0  0
   31.1902  -30.3373  -19.2463 C   0  0  2  0  0  0  0  0  0  0  0  0
   30.1291  -29.4213  -18.9661 N   0  0  0  0  0  0  0  0  0  0  0  0
   32.3482  -30.1628  -18.3407 C   0  0  0  0  0  0  0  0  0  0  0  0
   32.6817  -28.8991  -17.9147 O   0  0  0  0  0  0  0  0  0  0  0  0
   33.0153  -31.1587  -17.9683 O   0  0  0  0  0  0  0  0  0  0  0  0
  2  1  1  0
  3  2  2  0
  4  2  1  0
  5  4  1  0
  6  5  1  0
  6  7  1  6
  8  6  1  0
  8  9  2  0
 10 11  1  0
 10  8  1  0
 11 12  1  1
 12 13  1  0
 13 14  2  0
 13 17  1  0
 14 15  1  0
 15 16  1  0
 17 16  2  0
 18 11  1  0
 19 18  2  0
 21 20  1  6
 22 21  1  0
 23 21  1  0
 23 24  1  1
 24 18  1  0
 25 26  1  0
 25 23  1  0
 27 25  2  0
M  END
$$$$
