QHT.pdb
     RDKit          3D

 27 27  0  0  1  0  0  0  0  0999 V2000
   18.2451  -13.9794  -20.7837 N   0  0  0  0  0  0  0  0  0  0  0  0
   18.1028  -12.7144  -21.4649 C   0  0  0  0  0  0  0  0  0  0  0  0
   17.0677  -12.5726  -22.1446 O   0  0  0  0  0  0  0  0  0  0  0  0
   19.1838  -11.7508  -21.2782 C   0  0  0  0  0  0  0  0  0  0  0  0
   19.1560  -11.1622  -19.9115 C   0  0  0  0  0  0  0  0  0  0  0  0
   19.4648   -9.6861  -19.9925 C   0  0  2  0  0  0  0  0  0  0  0  0
   20.7805   -9.5821  -20.6066 N   0  0  0  0  0  0  0  0  0  0  0  0
   19.4971   -9.2023  -18.5807 C   0  0  0  0  0  0  0  0  0  0  0  0
   18.4033   -9.2406  -17.9457 O   0  0  0  0  0  0  0  0  0  0  0  0
   20.6842   -8.7251  -17.9788 N   0  0  0  0  0  0  0  0  0  0  0  0
   20.5697   -8.2121  -16.5998 C   0  0  1  0  0  0  0  0  0  0  0  0
   21.4755   -9.0413  -15.7616 C   0  0  0  0  0  0  0  0  0  0  0  0
   21.3497   -8.7494  -14.3268 C   0  0  0  0  0  0  0  0  0  0  0  0
   20.4536   -7.8027  -13.7992 C   0  0  0  0  0  0  0  0  0  0  0  0
   20.5670   -7.7580  -12.4578 N   0  0  0  0  0  0  0  0  0  0  0  0
   21.5068   -8.6477  -12.1285 C   0  0  0  0  0  0  0  0  0  0  0  0
   21.9632   -9.2286  -13.2423 N   0  0  0  0  0  0  0  0  0  0  0  0
   20.8483   -6.7593  -16.6117 C   0  0  0  0  0  0  0  0  0  0  0  0
   21.7877   -6.2984  -17.2687 O   0  0  0  0  0  0  0  0  0  0  0  0
   18.1245   -4.0489  -16.9117 C   0  0  0  0  0  0  0  0  0  0  0  0
   18.9609   -3.7071  -15.6961 C   0  0  1  0  0  0  0  0  0  0  0  0
   18.3368   -4.1026  -14.5300 O   0  0  0  0  0  0  0  0  0  0  0  0
   20.3111   -4.4086  -15.8879 C   0  0  2  0  0  0  0  0  0  0  0  0
   20.0542   -5.8148  -15.8708 N   0  0  0  0  0  0  0  0  0  0  0  0
   21.2796   -3.9932  -14.8482 C   0  0  0  0  0  0  0  0  0  0  0  0
   21.7169   -2.6903  -14.8217 O   0  0  0  0  0  0  0  0  0  0  0  0
   21.6945   -4.8231  -14.0028 O   0  0  0  0  0  0  0  0  0  0  0  0
  2  1  1  0
  3  2  2  0
  4  2  1  0
  5  4  1  0
  6  5  1  0
  6  7  1  1
  8  6  1  0
  8  9  2  0
 10 11  1  0
 10  8  1  0
 11 12  1  1
 12 13  1  0
 13 14  2  0
 13 17  1  0
 14 15  1  0
 15 16  1  0
 17 16  2  0
 18 11  1  0
 19 18  2  0
 21 20  1  6
 22 21  1  0
 23 21  1  0
 23 24  1  1
 24 18  1  0
 25 26  1  0
 25 23  1  0
 27 25  2  0
M  END
$$$$
