QHT.pdb
     RDKit          3D

 27 27  0  0  1  0  0  0  0  0999 V2000
   18.7206  -13.4475  -15.5329 N   0  0  0  0  0  0  0  0  0  0  0  0
   18.4755  -13.3473  -16.9523 C   0  0  0  0  0  0  0  0  0  0  0  0
   17.5453  -14.0473  -17.3975 O   0  0  0  0  0  0  0  0  0  0  0  0
   19.3419  -12.4395  -17.6987 C   0  0  0  0  0  0  0  0  0  0  0  0
   20.2828  -11.7224  -16.7958 C   0  0  0  0  0  0  0  0  0  0  0  0
   21.6590  -11.7004  -17.4173 C   0  0  2  0  0  0  0  0  0  0  0  0
   22.2994  -12.9472  -17.0243 N   0  0  0  0  0  0  0  0  0  0  0  0
   22.3577  -10.5294  -16.8100 C   0  0  0  0  0  0  0  0  0  0  0  0
   22.5919  -10.5935  -15.5681 O   0  0  0  0  0  0  0  0  0  0  0  0
   22.7403   -9.4046  -17.5766 N   0  0  0  0  0  0  0  0  0  0  0  0
   23.5046   -8.3533  -16.8774 C   0  0  1  0  0  0  0  0  0  0  0  0
   24.6262   -7.9744  -17.7769 C   0  0  0  0  0  0  0  0  0  0  0  0
   25.7741   -8.8860  -17.6704 C   0  0  0  0  0  0  0  0  0  0  0  0
   25.8524   -9.9359  -16.7382 C   0  0  0  0  0  0  0  0  0  0  0  0
   27.0190  -10.5938  -16.8816 N   0  0  0  0  0  0  0  0  0  0  0  0
   27.6742   -9.9883  -17.8752 C   0  0  0  0  0  0  0  0  0  0  0  0
   26.9284   -8.9790  -18.3347 N   0  0  0  0  0  0  0  0  0  0  0  0
   22.5766   -7.2629  -16.5056 C   0  0  0  0  0  0  0  0  0  0  0  0
   21.6644   -6.9190  -17.2647 O   0  0  0  0  0  0  0  0  0  0  0  0
   20.6210   -7.5380  -13.8245 C   0  0  0  0  0  0  0  0  0  0  0  0
   20.3715   -6.3424  -14.7203 C   0  0  1  0  0  0  0  0  0  0  0  0
   19.3723   -5.5355  -14.2140 O   0  0  0  0  0  0  0  0  0  0  0  0
   21.7073   -5.5970  -14.8301 C   0  0  2  0  0  0  0  0  0  0  0  0
   22.6811   -6.5517  -15.2587 N   0  0  0  0  0  0  0  0  0  0  0  0
   22.0657   -4.9540  -13.5458 C   0  0  0  0  0  0  0  0  0  0  0  0
   21.3600   -3.8506  -13.1286 O   0  0  0  0  0  0  0  0  0  0  0  0
   23.0030   -5.4134  -12.8486 O   0  0  0  0  0  0  0  0  0  0  0  0
  2  1  1  0
  3  2  2  0
  4  2  1  0
  5  4  1  0
  6  5  1  0
  6  7  1  1
  8  6  1  0
  8  9  2  0
 10 11  1  0
 10  8  1  0
 11 12  1  6
 12 13  1  0
 13 14  2  0
 13 17  1  0
 14 15  1  0
 15 16  1  0
 17 16  2  0
 18 11  1  0
 19 18  2  0
 21 20  1  1
 22 21  1  0
 23 21  1  0
 23 24  1  1
 24 18  1  0
 25 26  1  0
 25 23  1  0
 27 25  2  0
M  END
$$$$
