QHT.pdb
     RDKit          3D

 27 27  0  0  1  0  0  0  0  0999 V2000
   16.1477  -13.8597  -13.7858 N   0  0  0  0  0  0  0  0  0  0  0  0
   16.2960  -14.5901  -15.0225 C   0  0  0  0  0  0  0  0  0  0  0  0
   15.5007  -15.5333  -15.1993 O   0  0  0  0  0  0  0  0  0  0  0  0
   17.3559  -14.1396  -15.9199 C   0  0  0  0  0  0  0  0  0  0  0  0
   18.1609  -13.0495  -15.3048 C   0  0  0  0  0  0  0  0  0  0  0  0
   17.5326  -11.7150  -15.6291 C   0  0  2  0  0  0  0  0  0  0  0  0
   16.6506  -11.9491  -16.7632 N   0  0  0  0  0  0  0  0  0  0  0  0
   18.6634  -10.8185  -16.0111 C   0  0  0  0  0  0  0  0  0  0  0  0
   19.6201  -10.7341  -15.1872 O   0  0  0  0  0  0  0  0  0  0  0  0
   18.6713  -10.0988  -17.2282 N   0  0  0  0  0  0  0  0  0  0  0  0
   19.8576   -9.2634  -17.4981 C   0  0  1  0  0  0  0  0  0  0  0  0
   19.9229   -9.0822  -18.9724 C   0  0  0  0  0  0  0  0  0  0  0  0
   21.0636   -8.2575  -19.3947 C   0  0  0  0  0  0  0  0  0  0  0  0
   22.0081   -7.7179  -18.5035 C   0  0  0  0  0  0  0  0  0  0  0  0
   22.9319   -7.0112  -19.1829 N   0  0  0  0  0  0  0  0  0  0  0  0
   22.5952   -7.0914  -20.4726 C   0  0  0  0  0  0  0  0  0  0  0  0
   21.4881   -7.8313  -20.5865 N   0  0  0  0  0  0  0  0  0  0  0  0
   19.7543   -8.0237  -16.6976 C   0  0  0  0  0  0  0  0  0  0  0  0
   18.7097   -7.3642  -16.6805 O   0  0  0  0  0  0  0  0  0  0  0  0
   21.9695   -7.6004  -13.4490 C   0  0  0  0  0  0  0  0  0  0  0  0
   20.7435   -6.7366  -13.6608 C   0  0  1  0  0  0  0  0  0  0  0  0
   20.7483   -5.6429  -12.8184 O   0  0  0  0  0  0  0  0  0  0  0  0
   20.7560   -6.3209  -15.1370 C   0  0  2  0  0  0  0  0  0  0  0  0
   20.8468   -7.5228  -15.9057 N   0  0  0  0  0  0  0  0  0  0  0  0
   21.8645   -5.3803  -15.4162 C   0  0  0  0  0  0  0  0  0  0  0  0
   22.8579   -5.7551  -16.2894 O   0  0  0  0  0  0  0  0  0  0  0  0
   21.8940   -4.2552  -14.8607 O   0  0  0  0  0  0  0  0  0  0  0  0
  2  1  1  0
  3  2  2  0
  4  2  1  0
  5  4  1  0
  6  5  1  0
  6  7  1  6
  8  6  1  0
  8  9  2  0
 10 11  1  0
 10  8  1  0
 11 12  1  6
 12 13  1  0
 13 14  2  0
 13 17  1  0
 14 15  1  0
 15 16  1  0
 17 16  2  0
 18 11  1  0
 19 18  2  0
 21 20  1  1
 22 21  1  0
 23 21  1  0
 23 24  1  6
 24 18  1  0
 25 26  1  0
 25 23  1  0
 27 25  2  0
M  END
$$$$
