QHT.pdb
     RDKit          3D

 27 27  0  0  1  0  0  0  0  0999 V2000
   15.6340   -9.9141  -17.0650 N   0  0  0  0  0  0  0  0  0  0  0  0
   15.4224  -10.7261  -18.2400 C   0  0  0  0  0  0  0  0  0  0  0  0
   14.6493  -10.2563  -19.0974 O   0  0  0  0  0  0  0  0  0  0  0  0
   16.1372  -11.9983  -18.2879 C   0  0  0  0  0  0  0  0  0  0  0  0
   16.8239  -12.2837  -16.9987 C   0  0  0  0  0  0  0  0  0  0  0  0
   18.3130  -12.0986  -17.1696 C   0  0  2  0  0  0  0  0  0  0  0  0
   18.9368  -13.2685  -16.5688 N   0  0  0  0  0  0  0  0  0  0  0  0
   18.6563  -10.8622  -16.4069 C   0  0  0  0  0  0  0  0  0  0  0  0
   18.0547  -10.6923  -15.3068 O   0  0  0  0  0  0  0  0  0  0  0  0
   19.6030   -9.9262  -16.8832 N   0  0  0  0  0  0  0  0  0  0  0  0
   19.7496   -8.6778  -16.1098 C   0  0  1  0  0  0  0  0  0  0  0  0
   21.0197   -8.7980  -15.3462 C   0  0  0  0  0  0  0  0  0  0  0  0
   21.3376   -7.5875  -14.5759 C   0  0  0  0  0  0  0  0  0  0  0  0
   20.4647   -6.4923  -14.4488 C   0  0  0  0  0  0  0  0  0  0  0  0
   21.0311   -5.5374  -13.6861 N   0  0  0  0  0  0  0  0  0  0  0  0
   22.2322   -6.0006  -13.3313 C   0  0  0  0  0  0  0  0  0  0  0  0
   22.4032   -7.2146  -13.8634 N   0  0  0  0  0  0  0  0  0  0  0  0
   19.6604   -7.5320  -17.0412 C   0  0  0  0  0  0  0  0  0  0  0  0
   20.3260   -7.5064  -18.0818 O   0  0  0  0  0  0  0  0  0  0  0  0
   16.6105   -5.9869  -18.6128 C   0  0  0  0  0  0  0  0  0  0  0  0
   17.2660   -4.8900  -17.7996 C   0  0  1  0  0  0  0  0  0  0  0  0
   16.6607   -4.7488  -16.5669 O   0  0  0  0  0  0  0  0  0  0  0  0
   18.7455   -5.2722  -17.6694 C   0  0  2  0  0  0  0  0  0  0  0  0
   18.8072   -6.3998  -16.7929 N   0  0  0  0  0  0  0  0  0  0  0  0
   19.5505   -4.1284  -17.1847 C   0  0  0  0  0  0  0  0  0  0  0  0
   20.0266   -4.1423  -15.8952 O   0  0  0  0  0  0  0  0  0  0  0  0
   19.7935   -3.1592  -17.9443 O   0  0  0  0  0  0  0  0  0  0  0  0
  2  1  1  0
  3  2  2  0
  4  2  1  0
  5  4  1  0
  6  5  1  0
  6  7  1  1
  8  6  1  0
  8  9  2  0
 10 11  1  0
 10  8  1  0
 11 12  1  6
 12 13  1  0
 13 14  2  0
 13 17  1  0
 14 15  1  0
 15 16  1  0
 17 16  2  0
 18 11  1  0
 19 18  2  0
 21 20  1  6
 22 21  1  0
 23 21  1  0
 23 24  1  1
 24 18  1  0
 25 26  1  0
 25 23  1  0
 27 25  2  0
M  END
$$$$
