QHT.pdb
     RDKit          3D

 27 27  0  0  1  0  0  0  0  0999 V2000
   22.9746  -22.1306  -20.0056 N   0  0  0  0  0  0  0  0  0  0  0  0
   22.4279  -20.8313  -20.3181 C   0  0  0  0  0  0  0  0  0  0  0  0
   21.8480  -20.7317  -21.4168 O   0  0  0  0  0  0  0  0  0  0  0  0
   22.6162  -19.7886  -19.3134 C   0  0  0  0  0  0  0  0  0  0  0  0
   23.3523  -20.3045  -18.1273 C   0  0  0  0  0  0  0  0  0  0  0  0
   23.3998  -19.2367  -17.0605 C   0  0  2  0  0  0  0  0  0  0  0  0
   23.6775  -17.9866  -17.7526 N   0  0  0  0  0  0  0  0  0  0  0  0
   24.5332  -19.6114  -16.1643 C   0  0  0  0  0  0  0  0  0  0  0  0
   24.5808  -20.8189  -15.7890 O   0  0  0  0  0  0  0  0  0  0  0  0
   25.5059  -18.6713  -15.7526 N   0  0  0  0  0  0  0  0  0  0  0  0
   26.5885  -19.1729  -14.8840 C   0  0  1  0  0  0  0  0  0  0  0  0
   27.7610  -18.2878  -15.1129 C   0  0  0  0  0  0  0  0  0  0  0  0
   28.3475  -18.4543  -16.4502 C   0  0  0  0  0  0  0  0  0  0  0  0
   28.6709  -19.7031  -17.0099 C   0  0  0  0  0  0  0  0  0  0  0  0
   29.1898  -19.5358  -18.2417 N   0  0  0  0  0  0  0  0  0  0  0  0
   29.2015  -18.2203  -18.4709 C   0  0  0  0  0  0  0  0  0  0  0  0
   28.7008  -17.5898  -17.4042 N   0  0  0  0  0  0  0  0  0  0  0  0
   26.0873  -19.2365  -13.4937 C   0  0  0  0  0  0  0  0  0  0  0  0
   25.6124  -18.2373  -12.9436 O   0  0  0  0  0  0  0  0  0  0  0  0
   24.0883  -21.3717   -9.7815 C   0  0  0  0  0  0  0  0  0  0  0  0
   24.5131  -21.3880  -11.2353 C   0  0  1  0  0  0  0  0  0  0  0  0
   23.4947  -20.9558  -12.0609 O   0  0  0  0  0  0  0  0  0  0  0  0
   25.7508  -20.4878  -11.3351 C   0  0  2  0  0  0  0  0  0  0  0  0
   26.1234  -20.4462  -12.7146 N   0  0  0  0  0  0  0  0  0  0  0  0
   26.8410  -20.9827  -10.4646 C   0  0  0  0  0  0  0  0  0  0  0  0
   26.8162  -20.6831   -9.1232 O   0  0  0  0  0  0  0  0  0  0  0  0
   27.7753  -21.6671  -10.9485 O   0  0  0  0  0  0  0  0  0  0  0  0
  2  1  1  0
  3  2  2  0
  4  2  1  0
  5  4  1  0
  6  5  1  0
  6  7  1  6
  8  6  1  0
  8  9  2  0
 10 11  1  0
 10  8  1  0
 11 12  1  1
 12 13  1  0
 13 14  2  0
 13 17  1  0
 14 15  1  0
 15 16  1  0
 17 16  2  0
 18 11  1  0
 19 18  2  0
 21 20  1  1
 22 21  1  0
 23 21  1  0
 23 24  1  6
 24 18  1  0
 25 26  1  0
 25 23  1  0
 27 25  2  0
M  END
$$$$
