QHT.pdb
     RDKit          3D

 27 27  0  0  1  0  0  0  0  0999 V2000
   23.3671  -17.9824  -15.8186 N   0  0  0  0  0  0  0  0  0  0  0  0
   22.2336  -18.4950  -16.5515 C   0  0  0  0  0  0  0  0  0  0  0  0
   22.4404  -19.5173  -17.2337 O   0  0  0  0  0  0  0  0  0  0  0  0
   20.9805  -17.7594  -16.4077 C   0  0  0  0  0  0  0  0  0  0  0  0
   21.1054  -16.6650  -15.4070 C   0  0  0  0  0  0  0  0  0  0  0  0
   20.5488  -15.3865  -15.9868 C   0  0  2  0  0  0  0  0  0  0  0  0
   20.3997  -15.6225  -17.4155 N   0  0  0  0  0  0  0  0  0  0  0  0
   21.5819  -14.3412  -15.7255 C   0  0  0  0  0  0  0  0  0  0  0  0
   21.7643  -14.0177  -14.5158 O   0  0  0  0  0  0  0  0  0  0  0  0
   22.3213  -13.7403  -16.7702 N   0  0  0  0  0  0  0  0  0  0  0  0
   23.3758  -12.7867  -16.3741 C   0  0  1  0  0  0  0  0  0  0  0  0
   24.6074  -13.1884  -17.1037 C   0  0  0  0  0  0  0  0  0  0  0  0
   25.2582  -14.3678  -16.5160 C   0  0  0  0  0  0  0  0  0  0  0  0
   24.8273  -14.9855  -15.3285 C   0  0  0  0  0  0  0  0  0  0  0  0
   25.6179  -16.0381  -15.0432 N   0  0  0  0  0  0  0  0  0  0  0  0
   26.5310  -16.0990  -16.0156 C   0  0  0  0  0  0  0  0  0  0  0  0
   26.3088  -15.1058  -16.8819 N   0  0  0  0  0  0  0  0  0  0  0  0
   22.8908  -11.4129  -16.6304 C   0  0  0  0  0  0  0  0  0  0  0  0
   23.6658  -10.4510  -16.6056 O   0  0  0  0  0  0  0  0  0  0  0  0
   19.4487   -8.5148  -18.5138 C   0  0  0  0  0  0  0  0  0  0  0  0
   20.0093   -9.9070  -18.3102 C   0  0  1  0  0  0  0  0  0  0  0  0
   20.5725  -10.3963  -19.4717 O   0  0  0  0  0  0  0  0  0  0  0  0
   21.0381   -9.7986  -17.1779 C   0  0  2  0  0  0  0  0  0  0  0  0
   21.5108  -11.1226  -16.9187 N   0  0  0  0  0  0  0  0  0  0  0  0
   20.4470   -9.1595  -15.9806 C   0  0  0  0  0  0  0  0  0  0  0  0
   20.5371   -7.7955  -15.8353 O   0  0  0  0  0  0  0  0  0  0  0  0
   19.8712   -9.8574  -15.1106 O   0  0  0  0  0  0  0  0  0  0  0  0
  2  1  1  0
  3  2  2  0
  4  2  1  0
  5  4  1  0
  6  5  1  0
  6  7  1  6
  8  6  1  0
  8  9  2  0
 10 11  1  0
 10  8  1  0
 11 12  1  6
 12 13  1  0
 13 14  2  0
 13 17  1  0
 14 15  1  0
 15 16  1  0
 17 16  2  0
 18 11  1  0
 19 18  2  0
 21 20  1  6
 22 21  1  0
 23 21  1  0
 23 24  1  1
 24 18  1  0
 25 26  1  0
 25 23  1  0
 27 25  2  0
M  END
$$$$
