QHT.pdb
     RDKit          3D

 27 27  0  0  1  0  0  0  0  0999 V2000
   29.7263  -28.8360  -17.0942 N   0  0  0  0  0  0  0  0  0  0  0  0
   28.5970  -29.6578  -17.4606 C   0  0  0  0  0  0  0  0  0  0  0  0
   28.7588  -30.8890  -17.3534 O   0  0  0  0  0  0  0  0  0  0  0  0
   27.4001  -28.9535  -17.9114 C   0  0  0  0  0  0  0  0  0  0  0  0
   27.6320  -27.4856  -17.9912 C   0  0  0  0  0  0  0  0  0  0  0  0
   27.5233  -26.8828  -16.6108 C   0  0  2  0  0  0  0  0  0  0  0  0
   26.6095  -27.7382  -15.8676 N   0  0  0  0  0  0  0  0  0  0  0  0
   26.9376  -25.5241  -16.8085 C   0  0  0  0  0  0  0  0  0  0  0  0
   27.1535  -24.9736  -17.9272 O   0  0  0  0  0  0  0  0  0  0  0  0
   26.1805  -24.8804  -15.8026 N   0  0  0  0  0  0  0  0  0  0  0  0
   25.6649  -23.5341  -16.1186 C   0  0  1  0  0  0  0  0  0  0  0  0
   24.7546  -23.1561  -15.0055 C   0  0  0  0  0  0  0  0  0  0  0  0
   24.1787  -21.8142  -15.1718 C   0  0  0  0  0  0  0  0  0  0  0  0
   24.4527  -20.9785  -16.2691 C   0  0  0  0  0  0  0  0  0  0  0  0
   23.7822  -19.8171  -16.1429 N   0  0  0  0  0  0  0  0  0  0  0  0
   23.0963  -19.8994  -15.0000 C   0  0  0  0  0  0  0  0  0  0  0  0
   23.3383  -21.0855  -14.4336 N   0  0  0  0  0  0  0  0  0  0  0  0
   26.8133  -22.6311  -16.3506 C   0  0  0  0  0  0  0  0  0  0  0  0
   27.7739  -22.6129  -15.5737 O   0  0  0  0  0  0  0  0  0  0  0  0
   29.7247  -20.2303  -19.2711 C   0  0  0  0  0  0  0  0  0  0  0  0
   28.6179  -21.2334  -19.0203 C   0  0  1  0  0  0  0  0  0  0  0  0
   29.1071  -22.5240  -18.9912 O   0  0  0  0  0  0  0  0  0  0  0  0
   27.9686  -20.8382  -17.6882 C   0  0  2  0  0  0  0  0  0  0  0  0
   26.8768  -21.7363  -17.4762 N   0  0  0  0  0  0  0  0  0  0  0  0
   27.5456  -19.4196  -17.7020 C   0  0  0  0  0  0  0  0  0  0  0  0
   28.4936  -18.4359  -17.5496 O   0  0  0  0  0  0  0  0  0  0  0  0
   26.3353  -19.1222  -17.8513 O   0  0  0  0  0  0  0  0  0  0  0  0
  2  1  1  0
  3  2  2  0
  4  2  1  0
  5  4  1  0
  6  5  1  0
  6  7  1  1
  8  6  1  0
  8  9  2  0
 10 11  1  0
 10  8  1  0
 11 12  1  1
 12 13  1  0
 13 14  2  0
 13 17  1  0
 14 15  1  0
 15 16  1  0
 17 16  2  0
 18 11  1  0
 19 18  2  0
 21 20  1  1
 22 21  1  0
 23 21  1  0
 23 24  1  6
 24 18  1  0
 25 26  1  0
 25 23  1  0
 27 25  2  0
M  END
$$$$
