QHT.pdb
     RDKit          3D

 27 27  0  0  1  0  0  0  0  0999 V2000
   34.5127  -19.5949  -18.7761 N   0  0  0  0  0  0  0  0  0  0  0  0
   33.9540  -20.7991  -19.3440 C   0  0  0  0  0  0  0  0  0  0  0  0
   34.3506  -21.8722  -18.8494 O   0  0  0  0  0  0  0  0  0  0  0  0
   32.9914  -20.6206  -20.4273 C   0  0  0  0  0  0  0  0  0  0  0  0
   32.6416  -19.1858  -20.6113 C   0  0  0  0  0  0  0  0  0  0  0  0
   31.1678  -18.9889  -20.3465 C   0  0  2  0  0  0  0  0  0  0  0  0
   30.4769  -19.4625  -21.5370 N   0  0  0  0  0  0  0  0  0  0  0  0
   30.9817  -17.5180  -20.1734 C   0  0  0  0  0  0  0  0  0  0  0  0
   31.0614  -16.8118  -21.2204 O   0  0  0  0  0  0  0  0  0  0  0  0
   30.7293  -16.9379  -18.9088 N   0  0  0  0  0  0  0  0  0  0  0  0
   30.6366  -15.4658  -18.8601 C   0  0  1  0  0  0  0  0  0  0  0  0
   29.7059  -15.1356  -17.7486 C   0  0  0  0  0  0  0  0  0  0  0  0
   29.5037  -13.6890  -17.5861 C   0  0  0  0  0  0  0  0  0  0  0  0
   30.1341  -12.7188  -18.3853 C   0  0  0  0  0  0  0  0  0  0  0  0
   29.7534  -11.4856  -17.9999 N   0  0  0  0  0  0  0  0  0  0  0  0
   28.9036  -11.6532  -16.9835 C   0  0  0  0  0  0  0  0  0  0  0  0
   28.7631  -12.9611  -16.7471 N   0  0  0  0  0  0  0  0  0  0  0  0
   32.0028  -14.9100  -18.7469 C   0  0  0  0  0  0  0  0  0  0  0  0
   32.9047  -15.5494  -18.1952 O   0  0  0  0  0  0  0  0  0  0  0  0
   34.3590  -15.4889  -19.4761 C   0  0  0  0  0  0  0  0  0  0  0  0
   34.4923  -14.1471  -20.1660 C   0  0  1  0  0  0  0  0  0  0  0  0
   34.0259  -14.2015  -21.4642 O   0  0  0  0  0  0  0  0  0  0  0  0
   33.7031  -13.1430  -19.3169 C   0  0  2  0  0  0  0  0  0  0  0  0
   32.3543  -13.6137  -19.2643 N   0  0  0  0  0  0  0  0  0  0  0  0
   33.8084  -11.7755  -19.8741 C   0  0  0  0  0  0  0  0  0  0  0  0
   34.9951  -11.0921  -19.7535 O   0  0  0  0  0  0  0  0  0  0  0  0
   32.8244  -11.2494  -20.4488 O   0  0  0  0  0  0  0  0  0  0  0  0
  2  1  1  0
  3  2  2  0
  4  2  1  0
  5  4  1  0
  6  5  1  0
  6  7  1  6
  8  6  1  0
  8  9  2  0
 10 11  1  0
 10  8  1  0
 11 12  1  1
 12 13  1  0
 13 14  2  0
 13 17  1  0
 14 15  1  0
 15 16  1  0
 17 16  2  0
 18 11  1  0
 19 18  2  0
 21 20  1  1
 22 21  1  0
 23 21  1  0
 23 24  1  6
 24 18  1  0
 25 26  1  0
 25 23  1  0
 27 25  2  0
M  END
$$$$
