QHT.pdb
     RDKit          3D

 27 27  0  0  1  0  0  0  0  0999 V2000
   20.7027  -22.6884  -14.3978 N   0  0  0  0  0  0  0  0  0  0  0  0
   20.8289  -21.9788  -13.1467 C   0  0  0  0  0  0  0  0  0  0  0  0
   19.8006  -21.9209  -12.4447 O   0  0  0  0  0  0  0  0  0  0  0  0
   22.1423  -21.4145  -12.8494 C   0  0  0  0  0  0  0  0  0  0  0  0
   23.1220  -21.7238  -13.9262 C   0  0  0  0  0  0  0  0  0  0  0  0
   23.7194  -20.4386  -14.4478 C   0  0  2  0  0  0  0  0  0  0  0  0
   22.6149  -19.6838  -15.0217 N   0  0  0  0  0  0  0  0  0  0  0  0
   24.6916  -20.8452  -15.5050 C   0  0  0  0  0  0  0  0  0  0  0  0
   24.2002  -21.2440  -16.6007 O   0  0  0  0  0  0  0  0  0  0  0  0
   26.0895  -20.7899  -15.2992 N   0  0  0  0  0  0  0  0  0  0  0  0
   26.9445  -21.1470  -16.4480 C   0  0  1  0  0  0  0  0  0  0  0  0
   27.8018  -19.9639  -16.7232 C   0  0  0  0  0  0  0  0  0  0  0  0
   28.7599  -20.1962  -17.8131 C   0  0  0  0  0  0  0  0  0  0  0  0
   28.8275  -21.3918  -18.5503 C   0  0  0  0  0  0  0  0  0  0  0  0
   29.8006  -21.3071  -19.4779 N   0  0  0  0  0  0  0  0  0  0  0  0
   30.3448  -20.0950  -19.3446 C   0  0  0  0  0  0  0  0  0  0  0  0
   29.7213  -19.4461  -18.3565 N   0  0  0  0  0  0  0  0  0  0  0  0
   27.6578  -22.4041  -16.1330 C   0  0  0  0  0  0  0  0  0  0  0  0
   28.2342  -22.5528  -15.0503 O   0  0  0  0  0  0  0  0  0  0  0  0
   28.1161  -27.1743  -16.9872 C   0  0  0  0  0  0  0  0  0  0  0  0
   27.4350  -25.8586  -17.3020 C   0  0  1  0  0  0  0  0  0  0  0  0
   26.1599  -25.8146  -16.7748 O   0  0  0  0  0  0  0  0  0  0  0  0
   28.3312  -24.7571  -16.7227 C   0  0  2  0  0  0  0  0  0  0  0  0
   27.7205  -23.5080  -17.0545 N   0  0  0  0  0  0  0  0  0  0  0  0
   29.7145  -24.8702  -17.2378 C   0  0  0  0  0  0  0  0  0  0  0  0
   30.0819  -24.1345  -18.3394 O   0  0  0  0  0  0  0  0  0  0  0  0
   30.5393  -25.6294  -16.6732 O   0  0  0  0  0  0  0  0  0  0  0  0
  2  1  1  0
  3  2  2  0
  4  2  1  0
  5  4  1  0
  6  5  1  0
  6  7  1  6
  8  6  1  0
  8  9  2  0
 10 11  1  0
 10  8  1  0
 11 12  1  1
 12 13  1  0
 13 14  2  0
 13 17  1  0
 14 15  1  0
 15 16  1  0
 17 16  2  0
 18 11  1  0
 19 18  2  0
 21 20  1  1
 22 21  1  0
 23 21  1  0
 23 24  1  6
 24 18  1  0
 25 26  1  0
 25 23  1  0
 27 25  2  0
M  END
$$$$
