QHT.pdb
     RDKit          3D

 27 27  0  0  1  0  0  0  0  0999 V2000
   18.6831  -17.7918  -16.3648 N   0  0  0  0  0  0  0  0  0  0  0  0
   18.4826  -17.8986  -14.9389 C   0  0  0  0  0  0  0  0  0  0  0  0
   17.7720  -17.0164  -14.4190 O   0  0  0  0  0  0  0  0  0  0  0  0
   19.1322  -19.0245  -14.2740 C   0  0  0  0  0  0  0  0  0  0  0  0
   19.8625  -19.8815  -15.2472 C   0  0  0  0  0  0  0  0  0  0  0  0
   21.0486  -20.5203  -14.5647 C   0  0  2  0  0  0  0  0  0  0  0  0
   20.6347  -20.7773  -13.1929 N   0  0  0  0  0  0  0  0  0  0  0  0
   22.1377  -19.5005  -14.6094 C   0  0  0  0  0  0  0  0  0  0  0  0
   22.1651  -18.6619  -13.6622 O   0  0  0  0  0  0  0  0  0  0  0  0
   23.0918  -19.4679  -15.6525 N   0  0  0  0  0  0  0  0  0  0  0  0
   24.0961  -18.3877  -15.6002 C   0  0  1  0  0  0  0  0  0  0  0  0
   25.3374  -18.9322  -16.2114 C   0  0  0  0  0  0  0  0  0  0  0  0
   26.4117  -17.9337  -16.3040 C   0  0  0  0  0  0  0  0  0  0  0  0
   26.2806  -16.6041  -15.8652 C   0  0  0  0  0  0  0  0  0  0  0  0
   27.4281  -15.9323  -16.0803 N   0  0  0  0  0  0  0  0  0  0  0  0
   28.2744  -16.8002  -16.6404 C   0  0  0  0  0  0  0  0  0  0  0  0
   27.6625  -17.9815  -16.7682 N   0  0  0  0  0  0  0  0  0  0  0  0
   23.5298  -17.1844  -16.2480 C   0  0  0  0  0  0  0  0  0  0  0  0
   22.7151  -17.2845  -17.1715 O   0  0  0  0  0  0  0  0  0  0  0  0
   23.5962  -13.7387  -14.1750 C   0  0  0  0  0  0  0  0  0  0  0  0
   22.5571  -13.9680  -15.2529 C   0  0  1  0  0  0  0  0  0  0  0  0
   21.9886  -12.7788  -15.6633 O   0  0  0  0  0  0  0  0  0  0  0  0
   23.2762  -14.6844  -16.4026 C   0  0  2  0  0  0  0  0  0  0  0  0
   23.8893  -15.8499  -15.8463 N   0  0  0  0  0  0  0  0  0  0  0  0
   24.2511  -13.7871  -17.0626 C   0  0  0  0  0  0  0  0  0  0  0  0
   25.5750  -13.8513  -16.6980 O   0  0  0  0  0  0  0  0  0  0  0  0
   23.8703  -12.9785  -17.9439 O   0  0  0  0  0  0  0  0  0  0  0  0
  2  1  1  0
  3  2  2  0
  4  2  1  0
  5  4  1  0
  6  5  1  0
  6  7  1  1
  8  6  1  0
  8  9  2  0
 10 11  1  0
 10  8  1  0
 11 12  1  6
 12 13  1  0
 13 14  2  0
 13 17  1  0
 14 15  1  0
 15 16  1  0
 17 16  2  0
 18 11  1  0
 19 18  2  0
 21 20  1  1
 22 21  1  0
 23 21  1  0
 23 24  1  1
 24 18  1  0
 25 26  1  0
 25 23  1  0
 27 25  2  0
M  END
$$$$
