GYK.pdb
     RDKit          3D

 26 26  0  0  1  0  0  0  0  0999 V2000
   28.8781  -23.0191  -17.7201 N   0  0  0  0  0  0  0  0  0  0  0  0
   28.6438  -21.7377  -17.1024 C   0  0  0  0  0  0  0  0  0  0  0  0
   27.6688  -21.9085  -15.9949 C   0  0  0  0  0  0  0  0  0  0  0  0
   27.0008  -22.9807  -15.9062 O   0  0  0  0  0  0  0  0  0  0  0  0
   23.4335  -20.7532   -8.2607 O   0  0  0  0  0  0  0  0  0  0  0  0
   24.2928  -20.6376   -9.3715 C   0  0  0  0  0  0  0  0  0  0  0  0
   25.4946  -21.2930   -9.3765 C   0  0  0  0  0  0  0  0  0  0  0  0
   26.3425  -21.1752  -10.4796 C   0  0  0  0  0  0  0  0  0  0  0  0
   25.9966  -20.4128  -11.5657 C   0  0  0  0  0  0  0  0  0  0  0  0
   26.8572  -20.2743  -12.7289 C   0  0  0  0  0  0  0  0  0  0  0  0
   26.4513  -21.0861  -13.9361 C   0  0  2  0  0  0  0  0  0  0  0  0
   27.4288  -20.9369  -15.0108 N   0  0  0  0  0  0  0  0  0  0  0  0
   25.1129  -20.7433  -14.4662 C   0  0  0  0  0  0  0  0  0  0  0  0
   24.9568  -19.7215  -15.2043 O   0  0  0  0  0  0  0  0  0  0  0  0
   24.7815  -19.7707  -11.5214 C   0  0  0  0  0  0  0  0  0  0  0  0
   23.9343  -19.8725  -10.4494 C   0  0  0  0  0  0  0  0  0  0  0  0
   23.9323  -21.4956  -14.2118 N   0  0  0  0  0  0  0  0  0  0  0  0
   22.6320  -21.0938  -14.7820 C   0  0  1  0  0  0  0  0  0  0  0  0
   22.2391  -22.0953  -15.8577 C   0  0  0  0  0  0  0  0  0  0  0  0
   20.8751  -21.8459  -16.4373 C   0  0  0  0  0  0  0  0  0  0  0  0
   20.5348  -22.8685  -17.5076 C   0  0  0  0  0  0  0  0  0  0  0  0
   19.2167  -22.5665  -18.1620 C   0  0  0  0  0  0  0  0  0  0  0  0
   18.8245  -23.5667  -19.1121 N   0  0  0  0  0  0  0  0  0  0  0  0
   21.6203  -20.9307  -13.7345 C   0  0  0  0  0  0  0  0  0  0  0  0
   20.5897  -20.0099  -13.8028 O   0  0  0  0  0  0  0  0  0  0  0  0
   21.6560  -21.6453  -12.7012 O   0  0  0  0  0  0  0  0  0  0  0  0
  1  2  1  0
  2  3  1  0
  3 12  1  0
  3  4  2  0
  6 16  2  0
  6  5  1  0
  7  6  1  0
  8  9  1  0
  8  7  2  0
  9 15  2  0
 10  9  1  0
 11 10  1  1
 11 13  1  0
 12 11  1  0
 13 14  2  0
 13 17  1  0
 15 16  1  0
 17 18  1  0
 18 24  1  0
 18 19  1  6
 20 19  1  0
 21 20  1  0
 22 21  1  0
 23 22  1  0
 24 25  1  0
 26 24  2  0
M  END
$$$$
