GYK.pdb
     RDKit          3D

 26 26  0  0  1  0  0  0  0  0999 V2000
   18.1757   -8.4661  -16.7482 N   0  0  0  0  0  0  0  0  0  0  0  0
   17.2745   -9.2742  -15.9651 C   0  0  0  0  0  0  0  0  0  0  0  0
   17.6760   -9.1966  -14.5371 C   0  0  0  0  0  0  0  0  0  0  0  0
   17.4037  -10.1549  -13.7553 O   0  0  0  0  0  0  0  0  0  0  0  0
   24.2491  -10.4055  -15.0365 O   0  0  0  0  0  0  0  0  0  0  0  0
   23.2305   -9.6761  -14.3914 C   0  0  0  0  0  0  0  0  0  0  0  0
   22.6932  -10.1417  -13.2215 C   0  0  0  0  0  0  0  0  0  0  0  0
   21.6840   -9.4153  -12.5862 C   0  0  0  0  0  0  0  0  0  0  0  0
   21.2157   -8.2380  -13.1107 C   0  0  0  0  0  0  0  0  0  0  0  0
   20.1688   -7.4591  -12.4700 C   0  0  0  0  0  0  0  0  0  0  0  0
   18.7754   -8.0315  -12.5798 C   0  0  2  0  0  0  0  0  0  0  0  0
   18.3558   -8.1040  -13.9767 N   0  0  0  0  0  0  0  0  0  0  0  0
   17.7553   -7.2748  -11.8204 C   0  0  0  0  0  0  0  0  0  0  0  0
   17.5006   -6.0660  -12.1155 O   0  0  0  0  0  0  0  0  0  0  0  0
   21.7813   -7.8048  -14.2867 C   0  0  0  0  0  0  0  0  0  0  0  0
   22.7723   -8.5018  -14.9267 C   0  0  0  0  0  0  0  0  0  0  0  0
   16.9979   -7.8098  -10.7412 N   0  0  0  0  0  0  0  0  0  0  0  0
   15.9884   -6.9950  -10.0381 C   0  0  1  0  0  0  0  0  0  0  0  0
   14.8926   -7.9143   -9.5196 C   0  0  0  0  0  0  0  0  0  0  0  0
   13.8018   -7.1885   -8.7835 C   0  0  0  0  0  0  0  0  0  0  0  0
   12.7252   -8.1477   -8.3060 C   0  0  0  0  0  0  0  0  0  0  0  0
   11.5559   -7.4154   -7.7116 C   0  0  0  0  0  0  0  0  0  0  0  0
   10.4846   -8.2906   -7.3332 N   0  0  0  0  0  0  0  0  0  0  0  0
   16.6042   -6.1699   -8.9952 C   0  0  0  0  0  0  0  0  0  0  0  0
   17.8636   -6.4093   -8.4744 O   0  0  0  0  0  0  0  0  0  0  0  0
   15.9876   -5.1831   -8.5203 O   0  0  0  0  0  0  0  0  0  0  0  0
  1  2  1  0
  2  3  1  0
  3 12  1  0
  3  4  2  0
  6 16  2  0
  6  5  1  0
  7  6  1  0
  8  9  1  0
  8  7  2  0
  9 15  2  0
 10  9  1  0
 11 10  1  6
 11 13  1  0
 12 11  1  0
 13 14  2  0
 13 17  1  0
 15 16  1  0
 17 18  1  0
 18 24  1  0
 18 19  1  1
 20 19  1  0
 21 20  1  0
 22 21  1  0
 23 22  1  0
 24 25  1  0
 26 24  2  0
M  END
$$$$
