GYK.pdb
     RDKit          3D

 26 26  0  0  1  0  0  0  0  0999 V2000
   24.1275  -11.2256  -20.1020 N   0  0  0  0  0  0  0  0  0  0  0  0
   23.1971  -11.8420  -19.1895 C   0  0  0  0  0  0  0  0  0  0  0  0
   23.2084  -11.0891  -17.9091 C   0  0  0  0  0  0  0  0  0  0  0  0
   22.7264  -11.6191  -16.8648 O   0  0  0  0  0  0  0  0  0  0  0  0
   29.6621  -11.5455  -16.5437 O   0  0  0  0  0  0  0  0  0  0  0  0
   28.5116  -10.7330  -16.4999 C   0  0  0  0  0  0  0  0  0  0  0  0
   28.2687   -9.8381  -17.5070 C   0  0  0  0  0  0  0  0  0  0  0  0
   27.1273   -9.0352  -17.4590 C   0  0  0  0  0  0  0  0  0  0  0  0
   26.2378   -9.1233  -16.4190 C   0  0  0  0  0  0  0  0  0  0  0  0
   25.0401   -8.3030  -16.3440 C   0  0  0  0  0  0  0  0  0  0  0  0
   23.7352   -9.0434  -16.5182 C   0  0  2  0  0  0  0  0  0  0  0  0
   23.7308   -9.7938  -17.7711 N   0  0  0  0  0  0  0  0  0  0  0  0
   22.5416   -8.1691  -16.4890 C   0  0  0  0  0  0  0  0  0  0  0  0
   22.3366   -7.3308  -17.4210 O   0  0  0  0  0  0  0  0  0  0  0  0
   26.5179  -10.0341  -15.4277 C   0  0  0  0  0  0  0  0  0  0  0  0
   27.6318  -10.8315  -15.4549 C   0  0  0  0  0  0  0  0  0  0  0  0
   21.5571   -8.1894  -15.4620 N   0  0  0  0  0  0  0  0  0  0  0  0
   20.3910   -7.2861  -15.5030 C   0  0  1  0  0  0  0  0  0  0  0  0
   19.1263   -8.1245  -15.6125 C   0  0  0  0  0  0  0  0  0  0  0  0
   17.8763   -7.3042  -15.7646 C   0  0  0  0  0  0  0  0  0  0  0  0
   16.6526   -8.1884  -15.9318 C   0  0  0  0  0  0  0  0  0  0  0  0
   15.4161   -7.3774  -16.1964 C   0  0  0  0  0  0  0  0  0  0  0  0
   14.2826   -8.1861  -16.5400 N   0  0  0  0  0  0  0  0  0  0  0  0
   20.3895   -6.3685  -14.3604 C   0  0  0  0  0  0  0  0  0  0  0  0
   19.7846   -5.1242  -14.3791 O   0  0  0  0  0  0  0  0  0  0  0  0
   20.9589   -6.6907  -13.2872 O   0  0  0  0  0  0  0  0  0  0  0  0
  1  2  1  0
  2  3  1  0
  3 12  1  0
  3  4  2  0
  6 16  2  0
  6  5  1  0
  7  6  1  0
  8  9  1  0
  8  7  2  0
  9 15  2  0
 10  9  1  0
 11 10  1  6
 11 13  1  0
 12 11  1  0
 13 14  2  0
 13 17  1  0
 15 16  1  0
 17 18  1  0
 18 24  1  0
 18 19  1  1
 20 19  1  0
 21 20  1  0
 22 21  1  0
 23 22  1  0
 24 25  1  0
 26 24  2  0
M  END
$$$$
