GYK.pdb
     RDKit          3D

 26 26  0  0  1  0  0  0  0  0999 V2000
   28.8835  -22.6512  -18.0649 N   0  0  0  0  0  0  0  0  0  0  0  0
   28.5151  -21.4071  -17.4365 C   0  0  0  0  0  0  0  0  0  0  0  0
   27.7573  -21.7018  -16.1935 C   0  0  0  0  0  0  0  0  0  0  0  0
   27.2603  -22.8535  -16.0193 O   0  0  0  0  0  0  0  0  0  0  0  0
   24.0701  -20.6617   -8.1337 O   0  0  0  0  0  0  0  0  0  0  0  0
   24.8576  -20.5558   -9.2974 C   0  0  0  0  0  0  0  0  0  0  0  0
   25.9603  -21.3523   -9.4507 C   0  0  0  0  0  0  0  0  0  0  0  0
   26.7374  -21.2436  -10.6057 C   0  0  0  0  0  0  0  0  0  0  0  0
   26.4190  -20.3511  -11.5969 C   0  0  0  0  0  0  0  0  0  0  0  0
   27.2072  -20.2181  -12.8111 C   0  0  0  0  0  0  0  0  0  0  0  0
   26.7114  -21.0125  -13.9961 C   0  0  2  0  0  0  0  0  0  0  0  0
   27.5470  -20.7665  -15.1684 N   0  0  0  0  0  0  0  0  0  0  0  0
   25.3028  -20.7362  -14.3557 C   0  0  0  0  0  0  0  0  0  0  0  0
   25.0017  -19.6967  -15.0206 O   0  0  0  0  0  0  0  0  0  0  0  0
   25.3041  -19.5696  -11.4047 C   0  0  0  0  0  0  0  0  0  0  0  0
   24.5278  -19.6598  -10.2793 C   0  0  0  0  0  0  0  0  0  0  0  0
   24.2068  -21.5744  -14.0082 N   0  0  0  0  0  0  0  0  0  0  0  0
   22.8307  -21.2467  -14.4282 C   0  0  1  0  0  0  0  0  0  0  0  0
   22.3253  -22.3471  -15.3492 C   0  0  0  0  0  0  0  0  0  0  0  0
   20.9295  -22.1105  -15.8537 C   0  0  0  0  0  0  0  0  0  0  0  0
   20.4812  -23.2266  -16.7813 C   0  0  0  0  0  0  0  0  0  0  0  0
   19.1425  -22.9311  -17.3955 C   0  0  0  0  0  0  0  0  0  0  0  0
   18.7288  -23.9309  -18.3369 N   0  0  0  0  0  0  0  0  0  0  0  0
   21.9649  -21.0068  -13.2705 C   0  0  0  0  0  0  0  0  0  0  0  0
   20.9680  -20.0476  -13.2463 O   0  0  0  0  0  0  0  0  0  0  0  0
   22.1040  -21.6866  -12.2226 O   0  0  0  0  0  0  0  0  0  0  0  0
  1  2  1  0
  2  3  1  0
  3 12  1  0
  3  4  2  0
  6 16  2  0
  6  5  1  0
  7  6  1  0
  8  9  1  0
  8  7  2  0
  9 15  2  0
 10  9  1  0
 11 10  1  1
 11 13  1  0
 12 11  1  0
 13 14  2  0
 13 17  1  0
 15 16  1  0
 17 18  1  0
 18 24  1  0
 18 19  1  1
 20 19  1  0
 21 20  1  0
 22 21  1  0
 23 22  1  0
 24 25  1  0
 26 24  2  0
M  END
$$$$
