GYK.pdb
     RDKit          3D

 26 26  0  0  1  0  0  0  0  0999 V2000
   21.2000  -21.3461   -7.7846 N   0  0  0  0  0  0  0  0  0  0  0  0
   22.5356  -21.6693   -7.3487 C   0  0  0  0  0  0  0  0  0  0  0  0
   23.5093  -20.9310   -8.1932 C   0  0  0  0  0  0  0  0  0  0  0  0
   23.1844  -19.8153   -8.6967 O   0  0  0  0  0  0  0  0  0  0  0  0
   28.5647  -18.2596   -3.9473 O   0  0  0  0  0  0  0  0  0  0  0  0
   28.2203  -18.9138   -5.1469 C   0  0  0  0  0  0  0  0  0  0  0  0
   28.2590  -18.2308   -6.3327 C   0  0  0  0  0  0  0  0  0  0  0  0
   27.9168  -18.8835   -7.5187 C   0  0  0  0  0  0  0  0  0  0  0  0
   27.5405  -20.2022   -7.5230 C   0  0  0  0  0  0  0  0  0  0  0  0
   27.1823  -20.9083   -8.7420 C   0  0  0  0  0  0  0  0  0  0  0  0
   25.7865  -20.6468   -9.2565 C   0  0  2  0  0  0  0  0  0  0  0  0
   24.8018  -21.3962   -8.4810 N   0  0  0  0  0  0  0  0  0  0  0  0
   25.6049  -20.9725  -10.6885 C   0  0  0  0  0  0  0  0  0  0  0  0
   25.3952  -22.1710  -11.0530 O   0  0  0  0  0  0  0  0  0  0  0  0
   27.5146  -20.8523   -6.3117 C   0  0  0  0  0  0  0  0  0  0  0  0
   27.8463  -20.2312   -5.1363 C   0  0  0  0  0  0  0  0  0  0  0  0
   25.6432  -20.0150  -11.7403 N   0  0  0  0  0  0  0  0  0  0  0  0
   25.4659  -20.4188  -13.1485 C   0  0  1  0  0  0  0  0  0  0  0  0
   25.3066  -19.1680  -13.9997 C   0  0  0  0  0  0  0  0  0  0  0  0
   25.1500  -19.4584  -15.4659 C   0  0  0  0  0  0  0  0  0  0  0  0
   25.0925  -18.1770  -16.2794 C   0  0  0  0  0  0  0  0  0  0  0  0
   24.8969  -18.4586  -17.7420 C   0  0  0  0  0  0  0  0  0  0  0  0
   24.6847  -17.2691  -18.5146 N   0  0  0  0  0  0  0  0  0  0  0  0
   26.5541  -21.2949  -13.5909 C   0  0  0  0  0  0  0  0  0  0  0  0
   27.8690  -21.1455  -13.1869 O   0  0  0  0  0  0  0  0  0  0  0  0
   26.3228  -22.2444  -14.3813 O   0  0  0  0  0  0  0  0  0  0  0  0
  1  2  1  0
  2  3  1  0
  3 12  1  0
  3  4  2  0
  6 16  2  0
  6  5  1  0
  7  6  1  0
  8  9  1  0
  8  7  2  0
  9 15  2  0
 10  9  1  0
 11 10  1  1
 11 13  1  0
 12 11  1  0
 13 14  2  0
 13 17  1  0
 15 16  1  0
 17 18  1  0
 18 24  1  0
 18 19  1  6
 20 19  1  0
 21 20  1  0
 22 21  1  0
 23 22  1  0
 24 25  1  0
 26 24  2  0
M  END
$$$$
