VMS.pdb
     RDKit          3D

 22 21  0  0  1  0  0  0  0  0999 V2000
    6.9658  -13.6791   18.6298 C   0  0  0  0  0  0  0  0  0  0  0  0
    7.5268  -13.4218   19.9920 C   0  0  2  0  0  0  0  0  0  0  0  0
    8.6746  -12.4629   19.9013 C   0  0  0  0  0  0  0  0  0  0  0  0
    7.9800  -14.6804   20.6948 C   0  0  2  0  0  0  0  0  0  0  0  0
    6.9764  -15.6941   20.7608 N   0  0  0  0  0  0  0  0  0  0  0  0
    8.5080  -14.3805   22.0599 C   0  0  0  0  0  0  0  0  0  0  0  0
    9.4721  -13.5895   22.1694 O   0  0  0  0  0  0  0  0  0  0  0  0
    7.4298  -11.7539   27.6180 C   0  0  0  0  0  0  0  0  0  0  0  0
    5.9885  -12.3227   26.6389 S   0  0  0  0  0  0  0  0  0  0  0  0
    6.5859  -13.1411   25.1136 C   0  0  0  0  0  0  0  0  0  0  0  0
    7.2394  -14.4171   25.4990 C   0  0  0  0  0  0  0  0  0  0  0  0
    8.3455  -14.8723   24.5574 C   0  0  2  0  0  0  0  0  0  0  0  0
    7.9165  -14.9878   23.1829 N   0  0  0  0  0  0  0  0  0  0  0  0
    8.8293  -16.1756   25.0432 C   0  0  0  0  0  0  0  0  0  0  0  0
    8.0268  -17.1649   25.1301 O   0  0  0  0  0  0  0  0  0  0  0  0
   12.0690  -17.4945   23.8543 O   0  0  0  0  0  0  0  0  0  0  0  0
   12.0695  -17.8128   25.2064 C   0  0  0  0  0  0  0  0  0  0  0  0
   10.6356  -17.7237   25.7416 C   0  0  2  0  0  0  0  0  0  0  0  0
   10.1807  -16.3868   25.4287 N   0  0  0  0  0  0  0  0  0  0  0  0
   10.5817  -17.9595   27.1890 C   0  0  0  0  0  0  0  0  0  0  0  0
   10.1876  -17.0320   27.9442 O   0  0  0  0  0  0  0  0  0  0  0  0
   10.9555  -19.1851   27.7499 O   0  0  0  0  0  0  0  0  0  0  0  0
  2  1  1  6
  2  3  1  0
  4  2  1  0
  4  6  1  0
  4  5  1  1
  6 13  1  0
  6  7  2  0
  8  9  1  0
  9 10  1  0
 10 11  1  0
 12 11  1  1
 12 14  1  0
 13 12  1  0
 14 15  2  0
 16 17  1  0
 18 17  1  1
 18 20  1  0
 19 14  1  0
 19 18  1  0
 20 22  1  0
 21 20  2  0
M  END
$$$$
