VMS.pdb
     RDKit          3D

 22 21  0  0  1  0  0  0  0  0999 V2000
    8.7199  -18.2207   20.6051 C   0  0  0  0  0  0  0  0  0  0  0  0
    7.5795  -17.2866   20.3533 C   0  0  2  0  0  0  0  0  0  0  0  0
    6.9486  -17.5926   19.0291 C   0  0  0  0  0  0  0  0  0  0  0  0
    7.9847  -15.8313   20.3906 C   0  0  2  0  0  0  0  0  0  0  0  0
    8.9257  -15.4713   19.3787 N   0  0  0  0  0  0  0  0  0  0  0  0
    8.4969  -15.4442   21.7397 C   0  0  0  0  0  0  0  0  0  0  0  0
    9.7210  -15.5633   21.9731 O   0  0  0  0  0  0  0  0  0  0  0  0
    7.9872  -11.8520   28.2035 C   0  0  0  0  0  0  0  0  0  0  0  0
    7.5589  -12.1994   26.4556 S   0  0  0  0  0  0  0  0  0  0  0  0
    6.9504  -13.9211   26.3187 C   0  0  0  0  0  0  0  0  0  0  0  0
    6.6824  -14.2044   24.8863 C   0  0  0  0  0  0  0  0  0  0  0  0
    7.8975  -14.6640   24.0930 C   0  0  2  0  0  0  0  0  0  0  0  0
    7.6012  -14.9589   22.7103 N   0  0  0  0  0  0  0  0  0  0  0  0
    8.4305  -15.8644   24.7590 C   0  0  0  0  0  0  0  0  0  0  0  0
    7.7056  -16.9093   24.8719 O   0  0  0  0  0  0  0  0  0  0  0  0
   12.4182  -16.2591   25.3770 O   0  0  0  0  0  0  0  0  0  0  0  0
   11.6182  -17.3705   25.1442 C   0  0  0  0  0  0  0  0  0  0  0  0
   10.2590  -17.1589   25.8211 C   0  0  2  0  0  0  0  0  0  0  0  0
    9.7461  -15.9133   25.2942 N   0  0  0  0  0  0  0  0  0  0  0  0
   10.3863  -17.0858   27.2812 C   0  0  0  0  0  0  0  0  0  0  0  0
   10.0340  -16.0312   27.8725 O   0  0  0  0  0  0  0  0  0  0  0  0
   10.8871  -18.1549   28.0312 O   0  0  0  0  0  0  0  0  0  0  0  0
  2  1  1  6
  2  3  1  0
  4  2  1  0
  4  6  1  0
  4  5  1  6
  6 13  1  0
  6  7  2  0
  8  9  1  0
  9 10  1  0
 10 11  1  0
 12 11  1  1
 12 14  1  0
 13 12  1  0
 14 15  2  0
 16 17  1  0
 18 17  1  6
 18 20  1  0
 19 14  1  0
 19 18  1  0
 20 22  1  0
 21 20  2  0
M  END
$$$$
