VMS.pdb
     RDKit          3D

 22 21  0  0  1  0  0  0  0  0999 V2000
    7.0849  -18.8827   19.1943 C   0  0  0  0  0  0  0  0  0  0  0  0
    7.7836  -18.2885   20.3755 C   0  0  2  0  0  0  0  0  0  0  0  0
    7.1620  -18.7883   21.6440 C   0  0  0  0  0  0  0  0  0  0  0  0
    7.7722  -16.7775   20.3737 C   0  0  2  0  0  0  0  0  0  0  0  0
    8.3178  -16.2007   19.1869 N   0  0  0  0  0  0  0  0  0  0  0  0
    8.4568  -16.2274   21.5825 C   0  0  0  0  0  0  0  0  0  0  0  0
    9.6969  -16.3651   21.6839 O   0  0  0  0  0  0  0  0  0  0  0  0
    6.9087  -11.5307   27.8957 C   0  0  0  0  0  0  0  0  0  0  0  0
    6.3105  -12.3905   26.3917 S   0  0  0  0  0  0  0  0  0  0  0  0
    7.6427  -13.4697   25.7486 C   0  0  0  0  0  0  0  0  0  0  0  0
    7.1832  -14.0567   24.4648 C   0  0  0  0  0  0  0  0  0  0  0  0
    8.2002  -14.9594   23.7807 C   0  0  2  0  0  0  0  0  0  0  0  0
    7.7005  -15.5729   22.5721 N   0  0  0  0  0  0  0  0  0  0  0  0
    8.5874  -15.9998   24.7484 C   0  0  0  0  0  0  0  0  0  0  0  0
    7.7324  -16.8663   25.1336 O   0  0  0  0  0  0  0  0  0  0  0  0
   12.4454  -17.0675   25.1911 O   0  0  0  0  0  0  0  0  0  0  0  0
   11.3823  -17.9408   25.3827 C   0  0  0  0  0  0  0  0  0  0  0  0
   10.2596  -17.2066   26.1248 C   0  0  2  0  0  0  0  0  0  0  0  0
    9.9003  -16.0848   25.2854 N   0  0  0  0  0  0  0  0  0  0  0  0
   10.6971  -16.7410   27.4458 C   0  0  0  0  0  0  0  0  0  0  0  0
   10.6746  -15.5070   27.6962 O   0  0  0  0  0  0  0  0  0  0  0  0
   11.1372  -17.6302   28.4316 O   0  0  0  0  0  0  0  0  0  0  0  0
  2  1  1  6
  2  3  1  0
  4  2  1  0
  4  6  1  0
  4  5  1  6
  6 13  1  0
  6  7  2  0
  8  9  1  0
  9 10  1  0
 10 11  1  0
 12 11  1  1
 12 14  1  0
 13 12  1  0
 14 15  2  0
 16 17  1  0
 18 17  1  6
 18 20  1  0
 19 14  1  0
 19 18  1  0
 20 22  1  0
 21 20  2  0
M  END
$$$$
