VMS.pdb
     RDKit          3D

 22 21  0  0  1  0  0  0  0  0999 V2000
    7.8439  -12.2290   20.2820 C   0  0  0  0  0  0  0  0  0  0  0  0
    8.4607  -13.3589   19.5210 C   0  0  2  0  0  0  0  0  0  0  0  0
    7.8614  -13.4417   18.1501 C   0  0  0  0  0  0  0  0  0  0  0  0
    8.3113  -14.6932   20.2143 C   0  0  2  0  0  0  0  0  0  0  0  0
    6.9902  -15.2307   20.1461 N   0  0  0  0  0  0  0  0  0  0  0  0
    8.7724  -14.6228   21.6337 C   0  0  0  0  0  0  0  0  0  0  0  0
    9.9677  -14.3290   21.8619 O   0  0  0  0  0  0  0  0  0  0  0  0
    7.9403  -11.5627   27.7213 C   0  0  0  0  0  0  0  0  0  0  0  0
    6.6189  -12.3529   26.7269 S   0  0  0  0  0  0  0  0  0  0  0  0
    7.1191  -14.0667   26.3200 C   0  0  0  0  0  0  0  0  0  0  0  0
    6.8816  -14.2862   24.8711 C   0  0  0  0  0  0  0  0  0  0  0  0
    8.1038  -14.7510   24.0918 C   0  0  2  0  0  0  0  0  0  0  0  0
    7.8623  -14.8859   22.6740 N   0  0  0  0  0  0  0  0  0  0  0  0
    8.5195  -16.0465   24.6555 C   0  0  0  0  0  0  0  0  0  0  0  0
    7.6954  -17.0208   24.6974 O   0  0  0  0  0  0  0  0  0  0  0  0
   12.4412  -16.9951   25.0678 O   0  0  0  0  0  0  0  0  0  0  0  0
   11.4654  -17.9575   24.8420 C   0  0  0  0  0  0  0  0  0  0  0  0
   10.2035  -17.5843   25.6284 C   0  0  2  0  0  0  0  0  0  0  0  0
    9.8271  -16.2661   25.1669 N   0  0  0  0  0  0  0  0  0  0  0  0
   10.4502  -17.5715   27.0749 C   0  0  0  0  0  0  0  0  0  0  0  0
   10.3538  -16.4830   27.7008 O   0  0  0  0  0  0  0  0  0  0  0  0
   10.7886  -18.7343   27.7746 O   0  0  0  0  0  0  0  0  0  0  0  0
  2  1  1  1
  2  3  1  0
  4  2  1  0
  4  6  1  0
  4  5  1  1
  6 13  1  0
  6  7  2  0
  8  9  1  0
  9 10  1  0
 10 11  1  0
 12 11  1  1
 12 14  1  0
 13 12  1  0
 14 15  2  0
 16 17  1  0
 18 17  1  6
 18 20  1  0
 19 14  1  0
 19 18  1  0
 20 22  1  0
 21 20  2  0
M  END
$$$$
