VMS.pdb
     RDKit          3D

 22 21  0  0  1  0  0  0  0  0999 V2000
    6.4519  -22.4346   24.0506 C   0  0  0  0  0  0  0  0  0  0  0  0
    6.9113  -21.0631   23.6705 C   0  0  2  0  0  0  0  0  0  0  0  0
    8.2184  -20.7572   24.3362 C   0  0  0  0  0  0  0  0  0  0  0  0
    5.9098  -19.9851   24.0144 C   0  0  2  0  0  0  0  0  0  0  0  0
    4.6196  -20.1959   23.4401 N   0  0  0  0  0  0  0  0  0  0  0  0
    6.4252  -18.6297   23.6543 C   0  0  0  0  0  0  0  0  0  0  0  0
    6.5924  -18.3537   22.4448 O   0  0  0  0  0  0  0  0  0  0  0  0
    7.3944  -11.3037   26.6389 C   0  0  0  0  0  0  0  0  0  0  0  0
    6.8728  -13.0435   26.8846 S   0  0  0  0  0  0  0  0  0  0  0  0
    7.4237  -14.0421   25.4520 C   0  0  0  0  0  0  0  0  0  0  0  0
    6.9528  -15.4358   25.6513 C   0  0  0  0  0  0  0  0  0  0  0  0
    7.2866  -16.3868   24.5106 C   0  0  2  0  0  0  0  0  0  0  0  0
    6.7093  -17.7010   24.6725 N   0  0  0  0  0  0  0  0  0  0  0  0
    8.7539  -16.4889   24.4368 C   0  0  0  0  0  0  0  0  0  0  0  0
    9.3901  -17.1978   25.2871 O   0  0  0  0  0  0  0  0  0  0  0  0
   12.5014  -15.9724   21.4349 O   0  0  0  0  0  0  0  0  0  0  0  0
   11.2187  -15.5854   21.8014 C   0  0  0  0  0  0  0  0  0  0  0  0
   10.8376  -16.2911   23.1079 C   0  0  2  0  0  0  0  0  0  0  0  0
    9.5112  -15.8183   23.4387 N   0  0  0  0  0  0  0  0  0  0  0  0
   11.7797  -15.9771   24.1882 C   0  0  0  0  0  0  0  0  0  0  0  0
   12.9877  -16.3087   24.0601 O   0  0  0  0  0  0  0  0  0  0  0  0
   11.3714  -15.3203   25.3537 O   0  0  0  0  0  0  0  0  0  0  0  0
  2  1  1  1
  2  3  1  0
  4  2  1  0
  4  6  1  0
  4  5  1  6
  6 13  1  0
  6  7  2  0
  8  9  1  0
  9 10  1  0
 10 11  1  0
 12 11  1  1
 12 14  1  0
 13 12  1  0
 14 15  2  0
 16 17  1  0
 18 17  1  6
 18 20  1  0
 19 14  1  0
 19 18  1  0
 20 22  1  0
 21 20  2  0
M  END
$$$$
