VMS.pdb
     RDKit          3D

 22 21  0  0  1  0  0  0  0  0999 V2000
    7.6907  -12.2690   20.8860 C   0  0  0  0  0  0  0  0  0  0  0  0
    8.3852  -13.2463   19.9921 C   0  0  2  0  0  0  0  0  0  0  0  0
    7.7583  -13.2319   18.6312 C   0  0  0  0  0  0  0  0  0  0  0  0
    8.3749  -14.6570   20.5333 C   0  0  2  0  0  0  0  0  0  0  0  0
    7.0943  -15.2858   20.4727 N   0  0  0  0  0  0  0  0  0  0  0  0
    8.9154  -14.7091   21.9253 C   0  0  0  0  0  0  0  0  0  0  0  0
   10.1135  -14.4003   22.1151 O   0  0  0  0  0  0  0  0  0  0  0  0
    6.3817  -10.8873   26.3053 C   0  0  0  0  0  0  0  0  0  0  0  0
    7.1681  -12.5340   26.4762 S   0  0  0  0  0  0  0  0  0  0  0  0
    6.5240  -13.6440   25.1701 C   0  0  0  0  0  0  0  0  0  0  0  0
    7.2053  -14.9565   25.3011 C   0  0  0  0  0  0  0  0  0  0  0  0
    8.4093  -15.1395   24.3879 C   0  0  2  0  0  0  0  0  0  0  0  0
    8.0744  -15.1006   22.9832 N   0  0  0  0  0  0  0  0  0  0  0  0
    9.0227  -16.4360   24.7218 C   0  0  0  0  0  0  0  0  0  0  0  0
    8.3442  -17.5122   24.6143 O   0  0  0  0  0  0  0  0  0  0  0  0
   13.0347  -16.7443   25.3896 O   0  0  0  0  0  0  0  0  0  0  0  0
   12.3455  -17.8263   24.8570 C   0  0  0  0  0  0  0  0  0  0  0  0
   10.9276  -17.8516   25.4393 C   0  0  2  0  0  0  0  0  0  0  0  0
   10.3672  -16.5458   25.1687 N   0  0  0  0  0  0  0  0  0  0  0  0
   10.9389  -18.1172   26.8824 C   0  0  0  0  0  0  0  0  0  0  0  0
   10.4729  -17.2488   27.6664 O   0  0  0  0  0  0  0  0  0  0  0  0
   11.4524  -19.3072   27.4082 O   0  0  0  0  0  0  0  0  0  0  0  0
  2  1  1  1
  2  3  1  0
  4  2  1  0
  4  6  1  0
  4  5  1  1
  6 13  1  0
  6  7  2  0
  8  9  1  0
  9 10  1  0
 10 11  1  0
 12 11  1  1
 12 14  1  0
 13 12  1  0
 14 15  2  0
 16 17  1  0
 18 17  1  1
 18 20  1  0
 19 14  1  0
 19 18  1  0
 20 22  1  0
 21 20  2  0
M  END
$$$$
