VMS.pdb
     RDKit          3D

 22 21  0  0  1  0  0  0  0  0999 V2000
    8.6419  -16.4366   20.0462 C   0  0  0  0  0  0  0  0  0  0  0  0
    7.2777  -15.8487   20.2183 C   0  0  2  0  0  0  0  0  0  0  0  0
    6.5423  -15.8683   18.9129 C   0  0  0  0  0  0  0  0  0  0  0  0
    7.3031  -14.4374   20.7577 C   0  0  2  0  0  0  0  0  0  0  0  0
    7.8561  -13.4853   19.8485 N   0  0  0  0  0  0  0  0  0  0  0  0
    8.0075  -14.3711   22.0736 C   0  0  0  0  0  0  0  0  0  0  0  0
    9.2358  -14.1300   22.0847 O   0  0  0  0  0  0  0  0  0  0  0  0
    7.4091  -10.4225   26.2411 C   0  0  0  0  0  0  0  0  0  0  0  0
    7.3053  -12.1369   26.8809 S   0  0  0  0  0  0  0  0  0  0  0  0
    6.1995  -13.1148   25.7974 C   0  0  0  0  0  0  0  0  0  0  0  0
    6.7578  -14.4856   25.6831 C   0  0  0  0  0  0  0  0  0  0  0  0
    7.8164  -14.6505   24.6017 C   0  0  2  0  0  0  0  0  0  0  0  0
    7.2825  -14.5794   23.2614 N   0  0  0  0  0  0  0  0  0  0  0  0
    8.4648  -15.9555   24.8150 C   0  0  0  0  0  0  0  0  0  0  0  0
    7.7772  -17.0297   24.7552 O   0  0  0  0  0  0  0  0  0  0  0  0
   12.4649  -16.2986   24.7734 O   0  0  0  0  0  0  0  0  0  0  0  0
   11.7150  -17.4405   24.5222 C   0  0  0  0  0  0  0  0  0  0  0  0
   10.4228  -17.3811   25.3449 C   0  0  2  0  0  0  0  0  0  0  0  0
    9.8536  -16.0759   25.0909 N   0  0  0  0  0  0  0  0  0  0  0  0
   10.6841  -17.5579   26.7780 C   0  0  0  0  0  0  0  0  0  0  0  0
   10.3060  -16.6654   27.5820 O   0  0  0  0  0  0  0  0  0  0  0  0
   11.3403  -18.6896   27.2729 O   0  0  0  0  0  0  0  0  0  0  0  0
  2  1  1  6
  2  3  1  0
  4  2  1  0
  4  6  1  0
  4  5  1  6
  6 13  1  0
  6  7  2  0
  8  9  1  0
  9 10  1  0
 10 11  1  0
 12 11  1  1
 12 14  1  0
 13 12  1  0
 14 15  2  0
 16 17  1  0
 18 17  1  6
 18 20  1  0
 19 14  1  0
 19 18  1  0
 20 22  1  0
 21 20  2  0
M  END
$$$$
