VMS.pdb
     RDKit          3D

 22 21  0  0  1  0  0  0  0  0999 V2000
    8.1703  -18.8369   19.9670 C   0  0  0  0  0  0  0  0  0  0  0  0
    8.7212  -18.1069   21.1502 C   0  0  2  0  0  0  0  0  0  0  0  0
    8.1651  -18.6867   22.4151 C   0  0  0  0  0  0  0  0  0  0  0  0
    8.4419  -16.6223   21.1147 C   0  0  2  0  0  0  0  0  0  0  0  0
    8.9151  -15.9774   19.9319 N   0  0  0  0  0  0  0  0  0  0  0  0
    8.9779  -15.9392   22.3305 C   0  0  0  0  0  0  0  0  0  0  0  0
   10.2185  -15.8758   22.4847 O   0  0  0  0  0  0  0  0  0  0  0  0
    6.1500  -10.6885   25.8018 C   0  0  0  0  0  0  0  0  0  0  0  0
    6.1684  -12.1969   26.8430 S   0  0  0  0  0  0  0  0  0  0  0  0
    7.6043  -13.2315   26.3734 C   0  0  0  0  0  0  0  0  0  0  0  0
    7.2843  -13.9136   25.0942 C   0  0  0  0  0  0  0  0  0  0  0  0
    8.4278  -14.7292   24.5075 C   0  0  2  0  0  0  0  0  0  0  0  0
    8.0855  -15.3870   23.2678 N   0  0  0  0  0  0  0  0  0  0  0  0
    8.8181  -15.7296   25.5153 C   0  0  0  0  0  0  0  0  0  0  0  0
    8.0169  -16.6748   25.8232 O   0  0  0  0  0  0  0  0  0  0  0  0
   12.8208  -16.7942   26.8592 O   0  0  0  0  0  0  0  0  0  0  0  0
   11.6675  -17.4369   26.4276 C   0  0  0  0  0  0  0  0  0  0  0  0
   10.4494  -16.7632   27.0701 C   0  0  2  0  0  0  0  0  0  0  0  0
   10.0757  -15.6895   26.1759 N   0  0  0  0  0  0  0  0  0  0  0  0
   10.7620  -16.2364   28.4036 C   0  0  0  0  0  0  0  0  0  0  0  0
   10.6960  -14.9942   28.5999 O   0  0  0  0  0  0  0  0  0  0  0  0
   11.1302  -17.0764   29.4596 O   0  0  0  0  0  0  0  0  0  0  0  0
  2  1  1  6
  2  3  1  0
  4  2  1  0
  4  6  1  0
  4  5  1  6
  6 13  1  0
  6  7  2  0
  8  9  1  0
  9 10  1  0
 10 11  1  0
 12 11  1  1
 12 14  1  0
 13 12  1  0
 14 15  2  0
 16 17  1  0
 18 17  1  6
 18 20  1  0
 19 14  1  0
 19 18  1  0
 20 22  1  0
 21 20  2  0
M  END
$$$$
