FWG.pdb
     RDKit          3D

 30 32  0  0  1  0  0  0  0  0999 V2000
    8.7963  -16.4803   21.4902 N   0  0  0  0  0  0  0  0  0  0  0  0
    9.0959  -15.1838   22.0106 C   0  0  1  0  0  0  0  0  0  0  0  0
    7.9199  -14.2653   21.9511 C   0  0  0  0  0  0  0  0  0  0  0  0
    7.7475  -13.7723   20.5707 C   0  0  0  0  0  0  0  0  0  0  0  0
    8.6058  -12.8282   20.0849 C   0  0  0  0  0  0  0  0  0  0  0  0
    8.4159  -12.3884   18.7932 C   0  0  0  0  0  0  0  0  0  0  0  0
    7.3870  -12.8929   18.0226 C   0  0  0  0  0  0  0  0  0  0  0  0
    6.5136  -13.8541   18.5179 C   0  0  0  0  0  0  0  0  0  0  0  0
    6.7231  -14.2776   19.8099 C   0  0  0  0  0  0  0  0  0  0  0  0
    9.6840  -15.2565   23.3802 C   0  0  0  0  0  0  0  0  0  0  0  0
   10.3460  -14.2626   23.8335 O   0  0  0  0  0  0  0  0  0  0  0  0
    9.5686  -16.3633   24.2461 N   0  0  0  0  0  0  0  0  0  0  0  0
   10.1521  -16.4264   25.5614 C   0  0  1  0  0  0  0  0  0  0  0  0
    9.1307  -16.5247   26.6355 C   0  0  0  0  0  0  0  0  0  0  0  0
    7.9672  -15.6336   26.4758 C   0  0  0  0  0  0  0  0  0  0  0  0
    6.7230  -16.0172   25.9924 C   0  0  0  0  0  0  0  0  0  0  0  0
    5.9064  -14.9558   25.9577 N   0  0  0  0  0  0  0  0  0  0  0  0
    6.5652  -13.8698   26.4042 C   0  0  0  0  0  0  0  0  0  0  0  0
    6.1356  -12.5668   26.5548 C   0  0  0  0  0  0  0  0  0  0  0  0
    7.0386  -11.6567   27.0521 C   0  0  0  0  0  0  0  0  0  0  0  0
    8.3352  -12.0358   27.3900 C   0  0  0  0  0  0  0  0  0  0  0  0
    8.7114  -13.3499   27.2190 C   0  0  0  0  0  0  0  0  0  0  0  0
    7.8454  -14.2867   26.7273 C   0  0  0  0  0  0  0  0  0  0  0  0
   11.1952  -17.4887   25.6315 C   0  0  0  0  0  0  0  0  0  0  0  0
   11.0859  -18.3817   26.5004 O   0  0  0  0  0  0  0  0  0  0  0  0
   12.3062  -17.5235   24.7484 N   0  0  0  0  0  0  0  0  0  0  0  0
   13.3789  -18.4890   24.8558 C   0  0  0  0  0  0  0  0  0  0  0  0
   14.3793  -18.3593   23.7868 C   0  0  0  0  0  0  0  0  0  0  0  0
   14.3793  -19.2045   22.8581 O   0  0  0  0  0  0  0  0  0  0  0  0
   15.3145  -17.3497   23.7644 O   0  0  0  0  0  0  0  0  0  0  0  0
  2  1  1  1
  2  3  1  0
  2 10  1  0
  3  4  1  0
  4  5  2  0
  4  9  1  0
  5  6  1  0
  6  7  2  0
  8  7  1  0
  9  8  2  0
 10 11  2  0
 12 10  1  0
 12 13  1  0
 13 14  1  1
 14 15  1  0
 15 16  2  0
 16 17  1  0
 18 17  1  0
 19 18  2  0
 20 19  1  0
 21 22  1  0
 21 20  2  0
 22 23  2  0
 23 15  1  0
 23 18  1  0
 24 13  1  0
 24 25  2  0
 26 24  1  0
 27 26  1  0
 27 28  1  0
 28 29  2  0
 28 30  1  0
M  END
$$$$
