FWG.pdb
     RDKit          3D

 30 32  0  0  1  0  0  0  0  0999 V2000
    8.6614  -17.2562   21.3343 N   0  0  0  0  0  0  0  0  0  0  0  0
    9.8846  -16.5234   21.4252 C   0  0  1  0  0  0  0  0  0  0  0  0
    9.9035  -15.3401   20.5144 C   0  0  0  0  0  0  0  0  0  0  0  0
    8.6908  -14.5282   20.7342 C   0  0  0  0  0  0  0  0  0  0  0  0
    7.6234  -15.0808   21.3818 C   0  0  0  0  0  0  0  0  0  0  0  0
    6.5066  -14.2963   21.5690 C   0  0  0  0  0  0  0  0  0  0  0  0
    6.4777  -12.9935   21.1122 C   0  0  0  0  0  0  0  0  0  0  0  0
    7.5647  -12.4315   20.4529 C   0  0  0  0  0  0  0  0  0  0  0  0
    8.6682  -13.2341   20.2778 C   0  0  0  0  0  0  0  0  0  0  0  0
   10.2083  -16.1538   22.8343 C   0  0  0  0  0  0  0  0  0  0  0  0
   11.0465  -15.2173   23.0617 O   0  0  0  0  0  0  0  0  0  0  0  0
    9.6506  -16.7686   23.9742 N   0  0  0  0  0  0  0  0  0  0  0  0
    9.9739  -16.4049   25.3298 C   0  0  1  0  0  0  0  0  0  0  0  0
    8.8087  -16.5161   26.2445 C   0  0  0  0  0  0  0  0  0  0  0  0
    7.7034  -15.5813   25.9661 C   0  0  0  0  0  0  0  0  0  0  0  0
    6.4687  -15.9333   25.4364 C   0  0  0  0  0  0  0  0  0  0  0  0
    5.7114  -14.8378   25.2921 N   0  0  0  0  0  0  0  0  0  0  0  0
    6.4007  -13.7594   25.7098 C   0  0  0  0  0  0  0  0  0  0  0  0
    6.0319  -12.4302   25.7579 C   0  0  0  0  0  0  0  0  0  0  0  0
    6.9529  -11.5358   26.2506 C   0  0  0  0  0  0  0  0  0  0  0  0
    8.2080  -11.9556   26.6838 C   0  0  0  0  0  0  0  0  0  0  0  0
    8.5241  -13.2945   26.6131 C   0  0  0  0  0  0  0  0  0  0  0  0
    7.6384  -14.2169   26.1295 C   0  0  0  0  0  0  0  0  0  0  0  0
   11.1786  -17.1416   25.8066 C   0  0  0  0  0  0  0  0  0  0  0  0
   11.5951  -16.9256   26.9659 O   0  0  0  0  0  0  0  0  0  0  0  0
   11.8687  -18.0785   24.9933 N   0  0  0  0  0  0  0  0  0  0  0  0
   12.9336  -18.9267   25.4841 C   0  0  0  0  0  0  0  0  0  0  0  0
   13.3875  -19.9126   24.4929 C   0  0  0  0  0  0  0  0  0  0  0  0
   12.6648  -20.9144   24.2674 O   0  0  0  0  0  0  0  0  0  0  0  0
   14.5716  -19.7808   23.8039 O   0  0  0  0  0  0  0  0  0  0  0  0
  2  1  1  1
  2  3  1  0
  2 10  1  0
  3  4  1  0
  4  5  2  0
  4  9  1  0
  5  6  1  0
  6  7  2  0
  8  7  1  0
  9  8  2  0
 10 11  2  0
 12 10  1  0
 12 13  1  0
 13 14  1  1
 14 15  1  0
 15 16  2  0
 16 17  1  0
 18 17  1  0
 19 18  2  0
 20 19  1  0
 21 22  1  0
 21 20  2  0
 22 23  2  0
 23 15  1  0
 23 18  1  0
 24 13  1  0
 24 25  2  0
 26 24  1  0
 27 26  1  0
 27 28  1  0
 28 29  2  0
 28 30  1  0
M  END
$$$$
