FWG.pdb
     RDKit          3D

 30 32  0  0  1  0  0  0  0  0999 V2000
    8.2796  -16.0857   20.3207 N   0  0  0  0  0  0  0  0  0  0  0  0
    8.6695  -16.9668   21.3757 C   0  0  1  0  0  0  0  0  0  0  0  0
    9.5071  -18.1012   20.8843 C   0  0  0  0  0  0  0  0  0  0  0  0
    8.7558  -18.8672   19.8709 C   0  0  0  0  0  0  0  0  0  0  0  0
    7.8374  -19.7925   20.2762 C   0  0  0  0  0  0  0  0  0  0  0  0
    7.1548  -20.4913   19.3049 C   0  0  0  0  0  0  0  0  0  0  0  0
    7.3993  -20.2558   17.9663 C   0  0  0  0  0  0  0  0  0  0  0  0
    8.3345  -19.3136   17.5544 C   0  0  0  0  0  0  0  0  0  0  0  0
    9.0033  -18.6286   18.5423 C   0  0  0  0  0  0  0  0  0  0  0  0
    9.3201  -16.2335   22.5009 C   0  0  0  0  0  0  0  0  0  0  0  0
    9.8955  -15.1161   22.2736 O   0  0  0  0  0  0  0  0  0  0  0  0
    9.3559  -16.6817   23.8374 N   0  0  0  0  0  0  0  0  0  0  0  0
   10.0391  -15.9951   24.9033 C   0  0  1  0  0  0  0  0  0  0  0  0
    9.2053  -15.8646   26.1258 C   0  0  0  0  0  0  0  0  0  0  0  0
    7.9210  -15.1664   25.9354 C   0  0  0  0  0  0  0  0  0  0  0  0
    6.7162  -15.7766   25.6114 C   0  0  0  0  0  0  0  0  0  0  0  0
    5.7583  -14.8477   25.4927 N   0  0  0  0  0  0  0  0  0  0  0  0
    6.2838  -13.6307   25.7280 C   0  0  0  0  0  0  0  0  0  0  0  0
    5.6855  -12.3868   25.7275 C   0  0  0  0  0  0  0  0  0  0  0  0
    6.4801  -11.3028   26.0183 C   0  0  0  0  0  0  0  0  0  0  0  0
    7.8349  -11.4551   26.3019 C   0  0  0  0  0  0  0  0  0  0  0  0
    8.3807  -12.7198   26.2882 C   0  0  0  0  0  0  0  0  0  0  0  0
    7.6268  -13.8243   26.0037 C   0  0  0  0  0  0  0  0  0  0  0  0
   11.3772  -16.6009   25.1562 C   0  0  0  0  0  0  0  0  0  0  0  0
   12.0279  -16.2247   26.1559 O   0  0  0  0  0  0  0  0  0  0  0  0
   11.9384  -17.5885   24.3046 N   0  0  0  0  0  0  0  0  0  0  0  0
   13.1930  -18.2560   24.5780 C   0  0  0  0  0  0  0  0  0  0  0  0
   14.3473  -17.5872   23.9611 C   0  0  0  0  0  0  0  0  0  0  0  0
   15.4364  -18.2087   23.8937 O   0  0  0  0  0  0  0  0  0  0  0  0
   14.2811  -16.3088   23.4556 O   0  0  0  0  0  0  0  0  0  0  0  0
  2  1  1  6
  2  3  1  0
  2 10  1  0
  3  4  1  0
  4  5  2  0
  4  9  1  0
  5  6  1  0
  6  7  2  0
  8  7  1  0
  9  8  2  0
 10 11  2  0
 12 10  1  0
 12 13  1  0
 13 14  1  1
 14 15  1  0
 15 16  2  0
 16 17  1  0
 18 17  1  0
 19 18  2  0
 20 19  1  0
 21 22  1  0
 21 20  2  0
 22 23  2  0
 23 15  1  0
 23 18  1  0
 24 13  1  0
 24 25  2  0
 26 24  1  0
 27 26  1  0
 27 28  1  0
 28 29  2  0
 28 30  1  0
M  END
$$$$
