FWG.pdb
     RDKit          3D

 30 32  0  0  1  0  0  0  0  0999 V2000
    8.2527  -16.0811   21.3677 N   0  0  0  0  0  0  0  0  0  0  0  0
    8.8403  -14.8586   21.8169 C   0  0  1  0  0  0  0  0  0  0  0  0
    7.9343  -13.6887   21.6156 C   0  0  0  0  0  0  0  0  0  0  0  0
    7.6694  -13.5112   20.1745 C   0  0  0  0  0  0  0  0  0  0  0  0
    6.3791  -13.4861   19.7292 C   0  0  0  0  0  0  0  0  0  0  0  0
    6.1669  -13.3206   18.3781 C   0  0  0  0  0  0  0  0  0  0  0  0
    7.2325  -13.1853   17.5102 C   0  0  0  0  0  0  0  0  0  0  0  0
    8.5459  -13.2109   17.9644 C   0  0  0  0  0  0  0  0  0  0  0  0
    8.7326  -13.3772   19.3172 C   0  0  0  0  0  0  0  0  0  0  0  0
    9.3252  -14.9588   23.2247 C   0  0  0  0  0  0  0  0  0  0  0  0
    9.6688  -13.8982   23.8480 O   0  0  0  0  0  0  0  0  0  0  0  0
    9.4406  -16.1621   23.9506 N   0  0  0  0  0  0  0  0  0  0  0  0
   10.0685  -16.2711   25.2423 C   0  0  1  0  0  0  0  0  0  0  0  0
    9.0849  -16.4307   26.3440 C   0  0  0  0  0  0  0  0  0  0  0  0
    7.8818  -15.5857   26.2357 C   0  0  0  0  0  0  0  0  0  0  0  0
    6.6426  -16.0092   25.7731 C   0  0  0  0  0  0  0  0  0  0  0  0
    5.7821  -14.9827   25.7856 N   0  0  0  0  0  0  0  0  0  0  0  0
    6.4064  -13.8813   26.2437 C   0  0  0  0  0  0  0  0  0  0  0  0
    5.9270  -12.6016   26.4382 C   0  0  0  0  0  0  0  0  0  0  0  0
    6.8039  -11.6669   26.9366 C   0  0  0  0  0  0  0  0  0  0  0  0
    8.1233  -11.9993   27.2329 C   0  0  0  0  0  0  0  0  0  0  0  0
    8.5492  -13.2917   27.0191 C   0  0  0  0  0  0  0  0  0  0  0  0
    7.7106  -14.2517   26.5247 C   0  0  0  0  0  0  0  0  0  0  0  0
   11.1285  -17.3188   25.2331 C   0  0  0  0  0  0  0  0  0  0  0  0
   10.9289  -18.3810   25.8624 O   0  0  0  0  0  0  0  0  0  0  0  0
   12.3544  -17.1546   24.5362 N   0  0  0  0  0  0  0  0  0  0  0  0
   13.4052  -18.1496   24.5281 C   0  0  0  0  0  0  0  0  0  0  0  0
   14.6397  -17.6780   23.8845 C   0  0  0  0  0  0  0  0  0  0  0  0
   15.6483  -18.4259   23.8987 O   0  0  0  0  0  0  0  0  0  0  0  0
   14.7330  -16.4508   23.2684 O   0  0  0  0  0  0  0  0  0  0  0  0
  2  1  1  1
  2  3  1  0
  2 10  1  0
  3  4  1  0
  4  5  2  0
  4  9  1  0
  5  6  1  0
  6  7  2  0
  8  7  1  0
  9  8  2  0
 10 11  2  0
 12 10  1  0
 12 13  1  0
 13 14  1  1
 14 15  1  0
 15 16  2  0
 16 17  1  0
 18 17  1  0
 19 18  2  0
 20 19  1  0
 21 22  1  0
 21 20  2  0
 22 23  2  0
 23 15  1  0
 23 18  1  0
 24 13  1  0
 24 25  2  0
 26 24  1  0
 27 26  1  0
 27 28  1  0
 28 29  2  0
 28 30  1  0
M  END
$$$$
