FWG.pdb
     RDKit          3D

 30 32  0  0  1  0  0  0  0  0999 V2000
    8.5347  -16.4631   21.4106 N   0  0  0  0  0  0  0  0  0  0  0  0
    8.8282  -15.1065   21.7496 C   0  0  1  0  0  0  0  0  0  0  0  0
    7.6357  -14.2183   21.6097 C   0  0  0  0  0  0  0  0  0  0  0  0
    7.4302  -13.8881   20.1860 C   0  0  0  0  0  0  0  0  0  0  0  0
    6.7368  -14.7549   19.3911 C   0  0  0  0  0  0  0  0  0  0  0  0
    6.5644  -14.4172   18.0666 C   0  0  0  0  0  0  0  0  0  0  0  0
    7.0806  -13.2371   17.5688 C   0  0  0  0  0  0  0  0  0  0  0  0
    7.7864  -12.3552   18.3787 C   0  0  0  0  0  0  0  0  0  0  0  0
    7.9456  -12.7139   19.6972 C   0  0  0  0  0  0  0  0  0  0  0  0
    9.4582  -14.9938   23.0978 C   0  0  0  0  0  0  0  0  0  0  0  0
    9.9500  -13.8754   23.4702 O   0  0  0  0  0  0  0  0  0  0  0  0
    9.5610  -16.0494   24.0270 N   0  0  0  0  0  0  0  0  0  0  0  0
   10.2677  -15.9599   25.2788 C   0  0  1  0  0  0  0  0  0  0  0  0
    9.3673  -16.0865   26.4535 C   0  0  0  0  0  0  0  0  0  0  0  0
    8.0819  -15.3744   26.3360 C   0  0  0  0  0  0  0  0  0  0  0  0
    6.8629  -15.9642   26.0273 C   0  0  0  0  0  0  0  0  0  0  0  0
    5.9077  -15.0264   25.9801 N   0  0  0  0  0  0  0  0  0  0  0  0
    6.4486  -13.8230   26.2487 C   0  0  0  0  0  0  0  0  0  0  0  0
    5.8587  -12.5772   26.3206 C   0  0  0  0  0  0  0  0  0  0  0  0
    6.6696  -11.5105   26.6299 C   0  0  0  0  0  0  0  0  0  0  0  0
    8.0321  -11.6815   26.8611 C   0  0  0  0  0  0  0  0  0  0  0  0
    8.5689  -12.9473   26.7758 C   0  0  0  0  0  0  0  0  0  0  0  0
    7.7988  -14.0349   26.4706 C   0  0  0  0  0  0  0  0  0  0  0  0
   11.4219  -16.9024   25.3080 C   0  0  0  0  0  0  0  0  0  0  0  0
   11.2780  -18.0113   25.8682 O   0  0  0  0  0  0  0  0  0  0  0  0
   12.6765  -16.5872   24.7232 N   0  0  0  0  0  0  0  0  0  0  0  0
   13.8119  -17.4843   24.7423 C   0  0  0  0  0  0  0  0  0  0  0  0
   14.9643  -16.9706   23.9883 C   0  0  0  0  0  0  0  0  0  0  0  0
   16.1198  -17.2365   24.4018 O   0  0  0  0  0  0  0  0  0  0  0  0
   14.8264  -16.2108   22.8490 O   0  0  0  0  0  0  0  0  0  0  0  0
  2  1  1  1
  2  3  1  0
  2 10  1  0
  3  4  1  0
  4  5  2  0
  4  9  1  0
  5  6  1  0
  6  7  2  0
  8  7  1  0
  9  8  2  0
 10 11  2  0
 12 10  1  0
 12 13  1  0
 13 14  1  1
 14 15  1  0
 15 16  2  0
 16 17  1  0
 18 17  1  0
 19 18  2  0
 20 19  1  0
 21 22  1  0
 21 20  2  0
 22 23  2  0
 23 15  1  0
 23 18  1  0
 24 13  1  0
 24 25  2  0
 26 24  1  0
 27 26  1  0
 27 28  1  0
 28 29  2  0
 28 30  1  0
M  END
$$$$
