ACG.pdb
     RDKit          3D

 16 15  0  0  1  0  0  0  0  0999 V2000
    6.7100  -18.9610   19.6593 C   0  0  0  0  0  0  0  0  0  0  0  0
    6.9950  -17.8430   18.7004 C   0  0  2  0  0  0  0  0  0  0  0  0
    7.5494  -18.3154   17.4484 N   0  0  0  0  0  0  0  0  0  0  0  0
    7.8844  -16.8750   19.3714 C   0  0  0  0  0  0  0  0  0  0  0  0
    9.1056  -17.1535   19.4338 O   0  0  0  0  0  0  0  0  0  0  0  0
    7.4536  -15.6611   19.9455 N   0  0  0  0  0  0  0  0  0  0  0  0
    8.4074  -14.7810   20.5261 C   0  0  1  0  0  0  0  0  0  0  0  0
    7.8937  -13.3935   20.7984 C   0  0  0  0  0  0  0  0  0  0  0  0
    7.5190  -12.6398   19.1858 S   0  0  0  0  0  0  0  0  0  0  0  0
    8.8226  -15.3446   21.8602 C   0  0  0  0  0  0  0  0  0  0  0  0
    7.9255  -15.6758   22.6751 O   0  0  0  0  0  0  0  0  0  0  0  0
   10.1654  -15.5104   22.2199 N   0  0  0  0  0  0  0  0  0  0  0  0
   10.5128  -16.0831   23.4930 C   0  0  0  0  0  0  0  0  0  0  0  0
   11.9716  -16.0415   23.6844 C   0  0  0  0  0  0  0  0  0  0  0  0
   12.8183  -15.6450   22.6327 O   0  0  0  0  0  0  0  0  0  0  0  0
   12.4662  -16.3617   24.7931 O   0  0  0  0  0  0  0  0  0  0  0  0
  2  3  1  0
  2  1  1  1
  4  2  1  0
  5  4  2  0
  6  4  1  0
  7  6  1  0
  7  8  1  1
  9  8  1  0
 10  7  1  0
 10 12  1  0
 11 10  2  0
 13 12  1  0
 14 13  1  0
 15 14  1  0
 16 14  2  0
M  END
$$$$
