ACG.pdb
     RDKit          3D

 16 15  0  0  1  0  0  0  0  0999 V2000
    8.6004  -20.1822   21.5202 C   0  0  0  0  0  0  0  0  0  0  0  0
    7.7805  -19.0244   21.0323 C   0  0  2  0  0  0  0  0  0  0  0  0
    7.4272  -19.1471   19.6331 N   0  0  0  0  0  0  0  0  0  0  0  0
    8.5262  -17.7814   21.3098 C   0  0  0  0  0  0  0  0  0  0  0  0
    9.5971  -17.5936   20.6845 O   0  0  0  0  0  0  0  0  0  0  0  0
    8.1160  -16.7933   22.2286 N   0  0  0  0  0  0  0  0  0  0  0  0
    8.9083  -15.6262   22.4056 C   0  0  1  0  0  0  0  0  0  0  0  0
    8.1704  -14.4517   22.9880 C   0  0  0  0  0  0  0  0  0  0  0  0
    6.7079  -14.1721   21.9431 S   0  0  0  0  0  0  0  0  0  0  0  0
   10.0171  -15.9476   23.3737 C   0  0  0  0  0  0  0  0  0  0  0  0
    9.7238  -16.1215   24.5829 O   0  0  0  0  0  0  0  0  0  0  0  0
   11.3542  -16.0582   22.9736 N   0  0  0  0  0  0  0  0  0  0  0  0
   12.3782  -16.3706   23.9345 C   0  0  0  0  0  0  0  0  0  0  0  0
   13.6760  -16.5251   23.2575 C   0  0  0  0  0  0  0  0  0  0  0  0
   13.9888  -17.7168   22.5776 O   0  0  0  0  0  0  0  0  0  0  0  0
   14.5113  -15.5882   23.2854 O   0  0  0  0  0  0  0  0  0  0  0  0
  2  3  1  0
  2  1  1  6
  4  2  1  0
  5  4  2  0
  6  4  1  0
  7  6  1  0
  7  8  1  1
  9  8  1  0
 10  7  1  0
 10 12  1  0
 11 10  2  0
 13 12  1  0
 14 13  1  0
 15 14  1  0
 16 14  2  0
M  END
$$$$
