ACG.pdb
     RDKit          3D

 16 15  0  0  1  0  0  0  0  0999 V2000
    5.3586  -17.5359   21.9841 C   0  0  0  0  0  0  0  0  0  0  0  0
    5.9985  -16.2406   21.5799 C   0  0  2  0  0  0  0  0  0  0  0  0
    6.6243  -16.3157   20.2758 N   0  0  0  0  0  0  0  0  0  0  0  0
    6.9556  -15.8502   22.6334 C   0  0  0  0  0  0  0  0  0  0  0  0
    8.1036  -16.3534   22.5918 O   0  0  0  0  0  0  0  0  0  0  0  0
    6.6661  -14.9514   23.6808 N   0  0  0  0  0  0  0  0  0  0  0  0
    7.6818  -14.6111   24.6155 C   0  0  1  0  0  0  0  0  0  0  0  0
    7.3789  -13.4002   25.4551 C   0  0  0  0  0  0  0  0  0  0  0  0
    5.6875  -13.6053   26.0925 S   0  0  0  0  0  0  0  0  0  0  0  0
    7.8453  -15.7590   25.5775 C   0  0  0  0  0  0  0  0  0  0  0  0
    6.8123  -16.3215   26.0189 O   0  0  0  0  0  0  0  0  0  0  0  0
    9.1014  -16.2168   25.9932 N   0  0  0  0  0  0  0  0  0  0  0  0
    9.2074  -17.3209   26.9092 C   0  0  0  0  0  0  0  0  0  0  0  0
   10.6233  -17.6214   27.1765 C   0  0  0  0  0  0  0  0  0  0  0  0
   11.6411  -16.8956   26.5304 O   0  0  0  0  0  0  0  0  0  0  0  0
   10.9274  -18.5313   27.9865 O   0  0  0  0  0  0  0  0  0  0  0  0
  2  3  1  0
  2  1  1  1
  4  2  1  0
  5  4  2  0
  6  4  1  0
  7  6  1  0
  7  8  1  1
  9  8  1  0
 10  7  1  0
 10 12  1  0
 11 10  2  0
 13 12  1  0
 14 13  1  0
 15 14  1  0
 16 14  2  0
M  END
$$$$
