ACG.pdb
     RDKit          3D

 16 15  0  0  1  0  0  0  0  0999 V2000
    7.6705  -19.4085   21.2910 C   0  0  0  0  0  0  0  0  0  0  0  0
    7.0136  -18.0804   21.0560 C   0  0  2  0  0  0  0  0  0  0  0  0
    6.6074  -17.9000   19.6774 N   0  0  0  0  0  0  0  0  0  0  0  0
    7.9388  -17.0219   21.5053 C   0  0  0  0  0  0  0  0  0  0  0  0
    9.0099  -16.8770   20.8691 O   0  0  0  0  0  0  0  0  0  0  0  0
    7.6994  -16.1650   22.5994 N   0  0  0  0  0  0  0  0  0  0  0  0
    8.6895  -15.2184   22.9802 C   0  0  1  0  0  0  0  0  0  0  0  0
    8.1953  -14.1291   23.8926 C   0  0  0  0  0  0  0  0  0  0  0  0
    6.7331  -13.3938   23.0986 S   0  0  0  0  0  0  0  0  0  0  0  0
    9.7716  -15.9424   23.7382 C   0  0  0  0  0  0  0  0  0  0  0  0
    9.4507  -16.5935   24.7636 O   0  0  0  0  0  0  0  0  0  0  0  0
   11.1138  -15.9141   23.3409 N   0  0  0  0  0  0  0  0  0  0  0  0
   12.1169  -16.5950   24.1153 C   0  0  0  0  0  0  0  0  0  0  0  0
   13.4322  -16.4603   23.4684 C   0  0  0  0  0  0  0  0  0  0  0  0
   13.5510  -15.8245   22.2187 O   0  0  0  0  0  0  0  0  0  0  0  0
   14.4567  -16.9152   24.0339 O   0  0  0  0  0  0  0  0  0  0  0  0
  2  3  1  0
  2  1  1  6
  4  2  1  0
  5  4  2  0
  6  4  1  0
  7  6  1  0
  7  8  1  1
  9  8  1  0
 10  7  1  0
 10 12  1  0
 11 10  2  0
 13 12  1  0
 14 13  1  0
 15 14  1  0
 16 14  2  0
M  END
$$$$
