ACG.pdb
     RDKit          3D

 16 15  0  0  1  0  0  0  0  0999 V2000
    6.8329  -14.8371   20.4965 C   0  0  0  0  0  0  0  0  0  0  0  0
    7.2214  -13.4343   20.8598 C   0  0  2  0  0  0  0  0  0  0  0  0
    8.1788  -12.8674   19.9326 N   0  0  0  0  0  0  0  0  0  0  0  0
    7.7274  -13.4400   22.2462 C   0  0  0  0  0  0  0  0  0  0  0  0
    8.9637  -13.5684   22.4137 O   0  0  0  0  0  0  0  0  0  0  0  0
    6.9157  -13.3110   23.3921 N   0  0  0  0  0  0  0  0  0  0  0  0
    7.5088  -13.3651   24.6831 C   0  0  1  0  0  0  0  0  0  0  0  0
    6.6986  -12.7153   25.7714 C   0  0  0  0  0  0  0  0  0  0  0  0
    7.6409  -12.8986   27.3166 S   0  0  0  0  0  0  0  0  0  0  0  0
    7.6574  -14.8117   25.0768 C   0  0  0  0  0  0  0  0  0  0  0  0
    6.6444  -15.5531   25.0243 O   0  0  0  0  0  0  0  0  0  0  0  0
    8.8781  -15.3539   25.4963 N   0  0  0  0  0  0  0  0  0  0  0  0
    8.9657  -16.7363   25.8845 C   0  0  0  0  0  0  0  0  0  0  0  0
   10.2710  -17.0034   26.5102 C   0  0  0  0  0  0  0  0  0  0  0  0
   10.5808  -18.2880   26.9942 O   0  0  0  0  0  0  0  0  0  0  0  0
   11.1154  -16.0801   26.6139 O   0  0  0  0  0  0  0  0  0  0  0  0
  2  3  1  0
  2  1  1  6
  4  2  1  0
  5  4  2  0
  6  4  1  0
  7  6  1  0
  7  8  1  1
  9  8  1  0
 10  7  1  0
 10 12  1  0
 11 10  2  0
 13 12  1  0
 14 13  1  0
 15 14  1  0
 16 14  2  0
M  END
$$$$
