WFQ.pdb
     RDKit          3D

 35 37  0  0  1  0  0  0  0  0999 V2000
   10.9718  -15.7460   20.6298 N   0  0  0  0  0  0  0  0  0  0  0  0
    9.6741  -15.6958   21.2881 C   0  0  1  0  0  0  0  0  0  0  0  0
    8.6947  -16.5879   20.6038 C   0  0  0  0  0  0  0  0  0  0  0  0
    8.0392  -16.0048   19.4173 C   0  0  0  0  0  0  0  0  0  0  0  0
    7.3020  -16.7565   18.4991 C   0  0  0  0  0  0  0  0  0  0  0  0
    6.8267  -15.9374   17.5791 N   0  0  0  0  0  0  0  0  0  0  0  0
    7.2040  -14.6528   17.8215 C   0  0  0  0  0  0  0  0  0  0  0  0
    6.9574  -13.4821   17.1441 C   0  0  0  0  0  0  0  0  0  0  0  0
    7.4775  -12.3022   17.6128 C   0  0  0  0  0  0  0  0  0  0  0  0
    8.2376  -12.3298   18.7579 C   0  0  0  0  0  0  0  0  0  0  0  0
    8.4783  -13.5071   19.4285 C   0  0  0  0  0  0  0  0  0  0  0  0
    7.9671  -14.7142   18.9824 C   0  0  0  0  0  0  0  0  0  0  0  0
    9.7283  -15.9448   22.7289 C   0  0  0  0  0  0  0  0  0  0  0  0
   10.6252  -16.6644   23.2762 O   0  0  0  0  0  0  0  0  0  0  0  0
    8.7178  -15.3363   23.5456 N   0  0  0  0  0  0  0  0  0  0  0  0
    8.9828  -15.0553   24.9439 C   0  0  1  0  0  0  0  0  0  0  0  0
    7.8950  -14.1464   25.4949 C   0  0  0  0  0  0  0  0  0  0  0  0
    8.0690  -13.8489   26.9252 C   0  0  0  0  0  0  0  0  0  0  0  0
    7.1451  -13.0604   27.5648 C   0  0  0  0  0  0  0  0  0  0  0  0
    7.2908  -12.7687   28.9052 C   0  0  0  0  0  0  0  0  0  0  0  0
    8.3655  -13.2666   29.6134 C   0  0  0  0  0  0  0  0  0  0  0  0
    9.3052  -14.0588   28.9964 C   0  0  0  0  0  0  0  0  0  0  0  0
    9.1288  -14.3322   27.6500 C   0  0  0  0  0  0  0  0  0  0  0  0
    9.0833  -16.3168   25.6727 C   0  0  0  0  0  0  0  0  0  0  0  0
    8.0991  -17.0955   25.7284 O   0  0  0  0  0  0  0  0  0  0  0  0
   12.3621  -20.4139   24.0145 N   0  0  0  0  0  0  0  0  0  0  0  0
   12.0934  -21.0333   25.2637 C   0  0  0  0  0  0  0  0  0  0  0  0
   12.4663  -22.2243   25.4465 O   0  0  0  0  0  0  0  0  0  0  0  0
   11.4006  -20.3158   26.3387 C   0  0  0  0  0  0  0  0  0  0  0  0
   11.0593  -18.9288   25.9681 C   0  0  0  0  0  0  0  0  0  0  0  0
   10.3606  -18.0720   26.9836 C   0  0  2  0  0  0  0  0  0  0  0  0
   10.2627  -16.7513   26.3536 N   0  0  0  0  0  0  0  0  0  0  0  0
   10.8461  -18.0617   28.3398 C   0  0  0  0  0  0  0  0  0  0  0  0
   11.8023  -17.1044   28.7383 O   0  0  0  0  0  0  0  0  0  0  0  0
   10.4945  -18.8634   29.2508 O   0  0  0  0  0  0  0  0  0  0  0  0
  2  1  1  6
  3  2  1  0
  4  3  1  0
  4  5  2  0
  6  5  1  0
  7  6  1  0
  8  7  2  0
  9  8  1  0
 10  9  2  0
 10 11  1  0
 11 12  2  0
 12  7  1  0
 12  4  1  0
 13 14  2  0
 13  2  1  0
 15 13  1  0
 16 15  1  0
 16 17  1  1
 18 19  2  0
 18 17  1  0
 20 19  1  0
 21 20  2  0
 22 21  1  0
 22 23  2  0
 23 18  1  0
 24 25  2  0
 24 16  1  0
 26 27  1  0
 27 28  2  0
 29 27  1  0
 29 30  1  0
 31 30  1  6
 31 32  1  0
 32 24  1  0
 33 31  1  0
 34 33  1  0
 35 33  2  0
M  END
$$$$
