WFQ.pdb
     RDKit          3D

 35 37  0  0  1  0  0  0  0  0999 V2000
   10.8430  -18.6421   21.4201 N   0  0  0  0  0  0  0  0  0  0  0  0
   10.0965  -17.3950   21.5054 C   0  0  1  0  0  0  0  0  0  0  0  0
    8.8437  -17.4677   20.7003 C   0  0  0  0  0  0  0  0  0  0  0  0
    8.6505  -16.3629   19.7414 C   0  0  0  0  0  0  0  0  0  0  0  0
    8.9313  -16.4711   18.3772 C   0  0  0  0  0  0  0  0  0  0  0  0
    8.6234  -15.3251   17.7982 N   0  0  0  0  0  0  0  0  0  0  0  0
    8.1428  -14.4299   18.7032 C   0  0  0  0  0  0  0  0  0  0  0  0
    7.7093  -13.1323   18.5670 C   0  0  0  0  0  0  0  0  0  0  0  0
    7.2752  -12.4406   19.6695 C   0  0  0  0  0  0  0  0  0  0  0  0
    7.2885  -13.0753   20.8888 C   0  0  0  0  0  0  0  0  0  0  0  0
    7.7242  -14.3746   21.0141 C   0  0  0  0  0  0  0  0  0  0  0  0
    8.1673  -15.1003   19.9213 C   0  0  0  0  0  0  0  0  0  0  0  0
    9.8425  -16.9467   22.8749 C   0  0  0  0  0  0  0  0  0  0  0  0
   10.6004  -17.2428   23.8545 O   0  0  0  0  0  0  0  0  0  0  0  0
    8.6834  -16.1323   23.1020 N   0  0  0  0  0  0  0  0  0  0  0  0
    8.6250  -15.2535   24.2546 C   0  0  1  0  0  0  0  0  0  0  0  0
    7.4973  -14.2495   24.0719 C   0  0  0  0  0  0  0  0  0  0  0  0
    7.3259  -13.3646   25.2346 C   0  0  0  0  0  0  0  0  0  0  0  0
    8.2035  -12.3260   25.4238 C   0  0  0  0  0  0  0  0  0  0  0  0
    8.0608  -11.4857   26.5085 C   0  0  0  0  0  0  0  0  0  0  0  0
    7.0358  -11.6820   27.4114 C   0  0  0  0  0  0  0  0  0  0  0  0
    6.1432  -12.7150   27.2449 C   0  0  0  0  0  0  0  0  0  0  0  0
    6.3151  -13.5398   26.1454 C   0  0  0  0  0  0  0  0  0  0  0  0
    8.4686  -16.0605   25.4617 C   0  0  0  0  0  0  0  0  0  0  0  0
    8.6905  -15.5584   26.5916 O   0  0  0  0  0  0  0  0  0  0  0  0
    6.2212  -21.9490   25.5448 N   0  0  0  0  0  0  0  0  0  0  0  0
    5.9864  -20.8232   24.7118 C   0  0  0  0  0  0  0  0  0  0  0  0
    5.3120  -20.9753   23.6568 O   0  0  0  0  0  0  0  0  0  0  0  0
    6.5054  -19.4959   25.0571 C   0  0  0  0  0  0  0  0  0  0  0  0
    7.3368  -19.5105   26.2763 C   0  0  0  0  0  0  0  0  0  0  0  0
    8.0347  -18.2433   26.6772 C   0  0  2  0  0  0  0  0  0  0  0  0
    8.0654  -17.4319   25.4560 N   0  0  0  0  0  0  0  0  0  0  0  0
    9.2901  -18.3304   27.3783 C   0  0  0  0  0  0  0  0  0  0  0  0
   10.4983  -18.3960   26.6537 O   0  0  0  0  0  0  0  0  0  0  0  0
    9.4281  -18.3638   28.6338 O   0  0  0  0  0  0  0  0  0  0  0  0
  2  1  1  1
  3  2  1  0
  4  3  1  0
  4  5  2  0
  6  5  1  0
  7  6  1  0
  8  7  2  0
  9  8  1  0
 10  9  2  0
 10 11  1  0
 11 12  2  0
 12  7  1  0
 12  4  1  0
 13 14  2  0
 13  2  1  0
 15 13  1  0
 16 15  1  0
 16 17  1  6
 18 19  2  0
 18 17  1  0
 20 19  1  0
 21 20  2  0
 22 21  1  0
 22 23  2  0
 23 18  1  0
 24 25  2  0
 24 16  1  0
 26 27  1  0
 27 28  2  0
 29 27  1  0
 29 30  1  0
 31 30  1  6
 31 32  1  0
 32 24  1  0
 33 31  1  0
 34 33  1  0
 35 33  2  0
M  END
$$$$
