WFQ.pdb
     RDKit          3D

 35 37  0  0  1  0  0  0  0  0999 V2000
    8.1793  -18.7959   21.1671 N   0  0  0  0  0  0  0  0  0  0  0  0
    9.1864  -17.8188   20.7788 C   0  0  1  0  0  0  0  0  0  0  0  0
    8.7253  -17.0134   19.6118 C   0  0  0  0  0  0  0  0  0  0  0  0
    7.8595  -15.8661   19.9457 C   0  0  0  0  0  0  0  0  0  0  0  0
    6.5145  -15.9957   20.3007 C   0  0  0  0  0  0  0  0  0  0  0  0
    6.0377  -14.7932   20.5654 N   0  0  0  0  0  0  0  0  0  0  0  0
    6.9945  -13.8387   20.4079 C   0  0  0  0  0  0  0  0  0  0  0  0
    6.9603  -12.4729   20.5620 C   0  0  0  0  0  0  0  0  0  0  0  0
    8.0909  -11.7329   20.3246 C   0  0  0  0  0  0  0  0  0  0  0  0
    9.2344  -12.3891   19.9355 C   0  0  0  0  0  0  0  0  0  0  0  0
    9.2579  -13.7567   19.7844 C   0  0  0  0  0  0  0  0  0  0  0  0
    8.1347  -14.5322   20.0172 C   0  0  0  0  0  0  0  0  0  0  0  0
    9.6499  -16.9733   21.8794 C   0  0  0  0  0  0  0  0  0  0  0  0
   10.3918  -15.9528   21.7064 O   0  0  0  0  0  0  0  0  0  0  0  0
    9.2334  -17.3247   23.2066 N   0  0  0  0  0  0  0  0  0  0  0  0
    9.5681  -16.4657   24.3265 C   0  0  1  0  0  0  0  0  0  0  0  0
    8.3196  -15.7373   24.7995 C   0  0  0  0  0  0  0  0  0  0  0  0
    8.5961  -14.7629   25.8666 C   0  0  0  0  0  0  0  0  0  0  0  0
    8.5824  -15.1776   27.1752 C   0  0  0  0  0  0  0  0  0  0  0  0
    8.8379  -14.2793   28.1905 C   0  0  0  0  0  0  0  0  0  0  0  0
    9.1090  -12.9579   27.8995 C   0  0  0  0  0  0  0  0  0  0  0  0
    9.1287  -12.5168   26.5970 C   0  0  0  0  0  0  0  0  0  0  0  0
    8.8680  -13.4446   25.6020 C   0  0  0  0  0  0  0  0  0  0  0  0
   10.1808  -17.2717   25.3789 C   0  0  0  0  0  0  0  0  0  0  0  0
    9.4723  -17.7655   26.2912 O   0  0  0  0  0  0  0  0  0  0  0  0
   16.9023  -19.3786   27.2886 N   0  0  0  0  0  0  0  0  0  0  0  0
   15.8235  -19.5581   26.3829 C   0  0  0  0  0  0  0  0  0  0  0  0
   16.0772  -19.7391   25.1606 O   0  0  0  0  0  0  0  0  0  0  0  0
   14.4307  -19.5429   26.8413 C   0  0  0  0  0  0  0  0  0  0  0  0
   13.5848  -18.6218   26.0578 C   0  0  0  0  0  0  0  0  0  0  0  0
   12.1395  -18.4839   26.4395 C   0  0  2  0  0  0  0  0  0  0  0  0
   11.5802  -17.5540   25.4529 N   0  0  0  0  0  0  0  0  0  0  0  0
   11.8051  -18.1875   27.8089 C   0  0  0  0  0  0  0  0  0  0  0  0
   11.7872  -16.8499   28.2559 O   0  0  0  0  0  0  0  0  0  0  0  0
   11.5205  -19.0414   28.6957 O   0  0  0  0  0  0  0  0  0  0  0  0
  2  1  1  1
  3  2  1  0
  4  3  1  0
  4  5  2  0
  6  5  1  0
  7  6  1  0
  8  7  2  0
  9  8  1  0
 10  9  2  0
 10 11  1  0
 11 12  2  0
 12  7  1  0
 12  4  1  0
 13 14  2  0
 13  2  1  0
 15 13  1  0
 16 15  1  0
 16 17  1  1
 18 19  2  0
 18 17  1  0
 20 19  1  0
 21 20  2  0
 22 21  1  0
 22 23  2  0
 23 18  1  0
 24 25  2  0
 24 16  1  0
 26 27  1  0
 27 28  2  0
 29 27  1  0
 29 30  1  0
 31 30  1  1
 31 32  1  0
 32 24  1  0
 33 31  1  0
 34 33  1  0
 35 33  2  0
M  END
$$$$
