WFQ.pdb
     RDKit          3D

 35 37  0  0  1  0  0  0  0  0999 V2000
    6.4413  -18.9861   23.9228 N   0  0  0  0  0  0  0  0  0  0  0  0
    7.1042  -17.6975   24.0630 C   0  0  1  0  0  0  0  0  0  0  0  0
    7.3921  -17.3994   25.4953 C   0  0  0  0  0  0  0  0  0  0  0  0
    7.1042  -16.0150   25.9170 C   0  0  0  0  0  0  0  0  0  0  0  0
    5.8336  -15.4385   25.8467 C   0  0  0  0  0  0  0  0  0  0  0  0
    5.9085  -14.2101   26.3248 N   0  0  0  0  0  0  0  0  0  0  0  0
    7.1755  -13.9127   26.7215 C   0  0  0  0  0  0  0  0  0  0  0  0
    7.7221  -12.7741   27.2648 C   0  0  0  0  0  0  0  0  0  0  0  0
    9.0593  -12.7399   27.5698 C   0  0  0  0  0  0  0  0  0  0  0  0
    9.8178  -13.8586   27.3189 C   0  0  0  0  0  0  0  0  0  0  0  0
    9.2608  -14.9933   26.7750 C   0  0  0  0  0  0  0  0  0  0  0  0
    7.9148  -15.0604   26.4570 C   0  0  0  0  0  0  0  0  0  0  0  0
    8.2920  -17.5454   23.2222 C   0  0  0  0  0  0  0  0  0  0  0  0
    8.8270  -18.5153   22.5938 O   0  0  0  0  0  0  0  0  0  0  0  0
    8.8616  -16.2334   23.1099 N   0  0  0  0  0  0  0  0  0  0  0  0
   10.0129  -16.0097   22.2562 C   0  0  1  0  0  0  0  0  0  0  0  0
   10.0570  -14.5491   21.8345 C   0  0  0  0  0  0  0  0  0  0  0  0
    8.8574  -14.1322   21.0918 C   0  0  0  0  0  0  0  0  0  0  0  0
    7.8841  -13.4109   21.7376 C   0  0  0  0  0  0  0  0  0  0  0  0
    6.7512  -13.0116   21.0593 C   0  0  0  0  0  0  0  0  0  0  0  0
    6.5871  -13.3336   19.7275 C   0  0  0  0  0  0  0  0  0  0  0  0
    7.5470  -14.0553   19.0573 C   0  0  0  0  0  0  0  0  0  0  0  0
    8.6720  -14.4404   19.7680 C   0  0  0  0  0  0  0  0  0  0  0  0
   11.2198  -16.4265   22.9650 C   0  0  0  0  0  0  0  0  0  0  0  0
   12.3399  -16.3604   22.4002 O   0  0  0  0  0  0  0  0  0  0  0  0
    9.4207  -16.9360   27.8057 N   0  0  0  0  0  0  0  0  0  0  0  0
   10.5337  -17.7432   28.1607 C   0  0  0  0  0  0  0  0  0  0  0  0
   10.7252  -18.0169   29.3770 O   0  0  0  0  0  0  0  0  0  0  0  0
   11.4537  -18.2652   27.1451 C   0  0  0  0  0  0  0  0  0  0  0  0
   12.1818  -17.1960   26.4348 C   0  0  0  0  0  0  0  0  0  0  0  0
   12.4530  -17.3721   24.9689 C   0  0  2  0  0  0  0  0  0  0  0  0
   11.2247  -16.9226   24.3056 N   0  0  0  0  0  0  0  0  0  0  0  0
   12.9669  -18.6340   24.5014 C   0  0  0  0  0  0  0  0  0  0  0  0
   14.2225  -19.0931   24.9509 O   0  0  0  0  0  0  0  0  0  0  0  0
   12.3868  -19.4054   23.6861 O   0  0  0  0  0  0  0  0  0  0  0  0
  2  1  1  1
  3  2  1  0
  4  3  1  0
  4  5  2  0
  6  5  1  0
  7  6  1  0
  8  7  2  0
  9  8  1  0
 10  9  2  0
 10 11  1  0
 11 12  2  0
 12  7  1  0
 12  4  1  0
 13 14  2  0
 13  2  1  0
 15 13  1  0
 16 15  1  0
 16 17  1  1
 18 19  2  0
 18 17  1  0
 20 19  1  0
 21 20  2  0
 22 21  1  0
 22 23  2  0
 23 18  1  0
 24 25  2  0
 24 16  1  0
 26 27  1  0
 27 28  2  0
 29 27  1  0
 29 30  1  0
 31 30  1  1
 31 32  1  0
 32 24  1  0
 33 31  1  0
 34 33  1  0
 35 33  2  0
M  END
$$$$
