WFQ.pdb
     RDKit          3D

 35 37  0  0  1  0  0  0  0  0999 V2000
   11.5010  -17.5801   20.1379 N   0  0  0  0  0  0  0  0  0  0  0  0
   10.4927  -16.8781   20.9191 C   0  0  1  0  0  0  0  0  0  0  0  0
    9.1380  -17.4539   20.6811 C   0  0  0  0  0  0  0  0  0  0  0  0
    8.0416  -16.4686   20.6149 C   0  0  0  0  0  0  0  0  0  0  0  0
    6.6936  -16.8236   20.5230 C   0  0  0  0  0  0  0  0  0  0  0  0
    5.9730  -15.7173   20.5134 N   0  0  0  0  0  0  0  0  0  0  0  0
    6.7646  -14.6136   20.5940 C   0  0  0  0  0  0  0  0  0  0  0  0
    6.4666  -13.2716   20.6102 C   0  0  0  0  0  0  0  0  0  0  0  0
    7.4802  -12.3504   20.6905 C   0  0  0  0  0  0  0  0  0  0  0  0
    8.7760  -12.8051   20.7527 C   0  0  0  0  0  0  0  0  0  0  0  0
    9.0634  -14.1508   20.7359 C   0  0  0  0  0  0  0  0  0  0  0  0
    8.0638  -15.1056   20.6567 C   0  0  0  0  0  0  0  0  0  0  0  0
   10.8050  -16.7836   22.3454 C   0  0  0  0  0  0  0  0  0  0  0  0
   11.6962  -17.4968   22.9101 O   0  0  0  0  0  0  0  0  0  0  0  0
   10.0650  -15.8332   23.1249 N   0  0  0  0  0  0  0  0  0  0  0  0
   10.3355  -15.6856   24.5424 C   0  0  1  0  0  0  0  0  0  0  0  0
    9.4626  -14.5790   25.1140 C   0  0  0  0  0  0  0  0  0  0  0  0
    9.6158  -14.4242   26.5690 C   0  0  0  0  0  0  0  0  0  0  0  0
   10.8585  -14.1612   27.0897 C   0  0  0  0  0  0  0  0  0  0  0  0
   11.0234  -14.0139   28.4513 C   0  0  0  0  0  0  0  0  0  0  0  0
    9.9418  -14.1296   29.3004 C   0  0  0  0  0  0  0  0  0  0  0  0
    8.6863  -14.3929   28.8045 C   0  0  0  0  0  0  0  0  0  0  0  0
    8.5558  -14.5350   27.4328 C   0  0  0  0  0  0  0  0  0  0  0  0
   10.1208  -16.9692   25.2048 C   0  0  0  0  0  0  0  0  0  0  0  0
    8.9819  -17.4994   25.2031 O   0  0  0  0  0  0  0  0  0  0  0  0
   13.2894  -22.0641   25.2192 N   0  0  0  0  0  0  0  0  0  0  0  0
   12.6803  -21.2059   24.2659 C   0  0  0  0  0  0  0  0  0  0  0  0
   12.8978  -21.4050   23.0394 O   0  0  0  0  0  0  0  0  0  0  0  0
   11.8049  -20.1044   24.6790 C   0  0  0  0  0  0  0  0  0  0  0  0
   11.7259  -19.9609   26.1456 C   0  0  0  0  0  0  0  0  0  0  0  0
   10.8578  -18.8734   26.7087 C   0  0  2  0  0  0  0  0  0  0  0  0
   11.1479  -17.6981   25.8808 N   0  0  0  0  0  0  0  0  0  0  0  0
   10.8743  -18.6329   28.1289 C   0  0  0  0  0  0  0  0  0  0  0  0
   11.7284  -17.6477   28.6665 O   0  0  0  0  0  0  0  0  0  0  0  0
   10.1766  -19.2469   28.9849 O   0  0  0  0  0  0  0  0  0  0  0  0
  2  1  1  6
  3  2  1  0
  4  3  1  0
  4  5  2  0
  6  5  1  0
  7  6  1  0
  8  7  2  0
  9  8  1  0
 10  9  2  0
 10 11  1  0
 11 12  2  0
 12  7  1  0
 12  4  1  0
 13 14  2  0
 13  2  1  0
 15 13  1  0
 16 15  1  0
 16 17  1  1
 18 19  2  0
 18 17  1  0
 20 19  1  0
 21 20  2  0
 22 21  1  0
 22 23  2  0
 23 18  1  0
 24 25  2  0
 24 16  1  0
 26 27  1  0
 27 28  2  0
 29 27  1  0
 29 30  1  0
 31 30  1  1
 31 32  1  0
 32 24  1  0
 33 31  1  0
 34 33  1  0
 35 33  2  0
M  END
$$$$
