WFQ.pdb
     RDKit          3D

 35 37  0  0  1  0  0  0  0  0999 V2000
    8.2196  -18.6602   21.4992 N   0  0  0  0  0  0  0  0  0  0  0  0
    9.3206  -17.7504   21.2166 C   0  0  1  0  0  0  0  0  0  0  0  0
    9.1683  -17.1323   19.8683 C   0  0  0  0  0  0  0  0  0  0  0  0
    8.1072  -16.1123   19.7633 C   0  0  0  0  0  0  0  0  0  0  0  0
    6.7438  -16.4144   19.8036 C   0  0  0  0  0  0  0  0  0  0  0  0
    6.0659  -15.2849   19.7154 N   0  0  0  0  0  0  0  0  0  0  0  0
    6.9015  -14.2158   19.6153 C   0  0  0  0  0  0  0  0  0  0  0  0
    6.6554  -12.8684   19.4972 C   0  0  0  0  0  0  0  0  0  0  0  0
    7.7055  -11.9905   19.4029 C   0  0  0  0  0  0  0  0  0  0  0  0
    8.9847  -12.4932   19.4295 C   0  0  0  0  0  0  0  0  0  0  0  0
    9.2201  -13.8438   19.5482 C   0  0  0  0  0  0  0  0  0  0  0  0
    8.1828  -14.7556   19.6466 C   0  0  0  0  0  0  0  0  0  0  0  0
    9.5445  -16.7467   22.2575 C   0  0  0  0  0  0  0  0  0  0  0  0
   10.5624  -15.9816   22.2772 O   0  0  0  0  0  0  0  0  0  0  0  0
    8.5567  -16.6320   23.2917 N   0  0  0  0  0  0  0  0  0  0  0  0
    8.6305  -15.5475   24.2523 C   0  0  1  0  0  0  0  0  0  0  0  0
    7.3039  -15.4275   24.9864 C   0  0  0  0  0  0  0  0  0  0  0  0
    7.2725  -14.2986   25.9293 C   0  0  0  0  0  0  0  0  0  0  0  0
    6.6163  -13.1458   25.5756 C   0  0  0  0  0  0  0  0  0  0  0  0
    6.5764  -12.0754   26.4449 C   0  0  0  0  0  0  0  0  0  0  0  0
    7.1952  -12.1545   27.6759 C   0  0  0  0  0  0  0  0  0  0  0  0
    7.8593  -13.2978   28.0544 C   0  0  0  0  0  0  0  0  0  0  0  0
    7.8801  -14.3536   27.1580 C   0  0  0  0  0  0  0  0  0  0  0  0
    9.7528  -15.7864   25.1555 C   0  0  0  0  0  0  0  0  0  0  0  0
   10.0047  -14.9745   26.0804 O   0  0  0  0  0  0  0  0  0  0  0  0
   10.2186  -17.3942   29.9927 N   0  0  0  0  0  0  0  0  0  0  0  0
    9.7744  -18.3732   29.0651 C   0  0  0  0  0  0  0  0  0  0  0  0
    8.9926  -19.2797   29.4628 O   0  0  0  0  0  0  0  0  0  0  0  0
   10.2007  -18.3455   27.6623 C   0  0  0  0  0  0  0  0  0  0  0  0
   11.0708  -17.1937   27.3556 C   0  0  0  0  0  0  0  0  0  0  0  0
   11.7248  -17.1352   26.0057 C   0  0  2  0  0  0  0  0  0  0  0  0
   10.6206  -16.9188   25.0651 N   0  0  0  0  0  0  0  0  0  0  0  0
   12.6443  -18.1787   25.6305 C   0  0  0  0  0  0  0  0  0  0  0  0
   12.2185  -19.5233   25.6226 O   0  0  0  0  0  0  0  0  0  0  0  0
   13.8518  -18.0083   25.2998 O   0  0  0  0  0  0  0  0  0  0  0  0
  2  1  1  1
  3  2  1  0
  4  3  1  0
  4  5  2  0
  6  5  1  0
  7  6  1  0
  8  7  2  0
  9  8  1  0
 10  9  2  0
 10 11  1  0
 11 12  2  0
 12  7  1  0
 12  4  1  0
 13 14  2  0
 13  2  1  0
 15 13  1  0
 16 15  1  0
 16 17  1  1
 18 19  2  0
 18 17  1  0
 20 19  1  0
 21 20  2  0
 22 21  1  0
 22 23  2  0
 23 18  1  0
 24 25  2  0
 24 16  1  0
 26 27  1  0
 27 28  2  0
 29 27  1  0
 29 30  1  0
 31 30  1  1
 31 32  1  0
 32 24  1  0
 33 31  1  0
 34 33  1  0
 35 33  2  0
M  END
$$$$
