WFQ.pdb
     RDKit          3D

 35 37  0  0  1  0  0  0  0  0999 V2000
    9.3016  -17.9232   20.7509 N   0  0  0  0  0  0  0  0  0  0  0  0
    9.1812  -16.7689   21.6301 C   0  0  1  0  0  0  0  0  0  0  0  0
    7.7862  -16.2424   21.6302 C   0  0  0  0  0  0  0  0  0  0  0  0
    7.6227  -14.9023   22.2256 C   0  0  0  0  0  0  0  0  0  0  0  0
    7.9385  -13.7188   21.5538 C   0  0  0  0  0  0  0  0  0  0  0  0
    7.6506  -12.7026   22.3460 N   0  0  0  0  0  0  0  0  0  0  0  0
    7.1504  -13.1325   23.5361 C   0  0  0  0  0  0  0  0  0  0  0  0
    6.7262  -12.4504   24.6518 C   0  0  0  0  0  0  0  0  0  0  0  0
    6.2664  -13.1464   25.7410 C   0  0  0  0  0  0  0  0  0  0  0  0
    6.2452  -14.5196   25.6804 C   0  0  0  0  0  0  0  0  0  0  0  0
    6.6720  -15.1927   24.5587 C   0  0  0  0  0  0  0  0  0  0  0  0
    7.1404  -14.5200   23.4427 C   0  0  0  0  0  0  0  0  0  0  0  0
    9.6798  -16.9999   22.9862 C   0  0  0  0  0  0  0  0  0  0  0  0
   10.0046  -18.1524   23.4199 O   0  0  0  0  0  0  0  0  0  0  0  0
    9.8059  -15.8609   23.8495 N   0  0  0  0  0  0  0  0  0  0  0  0
   10.4262  -16.0003   25.1534 C   0  0  1  0  0  0  0  0  0  0  0  0
   10.3811  -14.6667   25.8830 C   0  0  0  0  0  0  0  0  0  0  0  0
   10.6114  -14.7988   27.3301 C   0  0  0  0  0  0  0  0  0  0  0  0
    9.8970  -14.0118   28.1988 C   0  0  0  0  0  0  0  0  0  0  0  0
   10.0990  -14.1195   29.5591 C   0  0  0  0  0  0  0  0  0  0  0  0
   11.0200  -15.0183   30.0574 C   0  0  0  0  0  0  0  0  0  0  0  0
   11.7488  -15.8183   29.2086 C   0  0  0  0  0  0  0  0  0  0  0  0
   11.5213  -15.6848   27.8488 C   0  0  0  0  0  0  0  0  0  0  0  0
    9.7529  -17.0666   25.8898 C   0  0  0  0  0  0  0  0  0  0  0  0
    8.5097  -17.2170   25.7901 O   0  0  0  0  0  0  0  0  0  0  0  0
    9.2960  -20.8686   22.9588 N   0  0  0  0  0  0  0  0  0  0  0  0
    9.1967  -21.2998   24.3080 C   0  0  0  0  0  0  0  0  0  0  0  0
    8.4469  -22.2762   24.5826 O   0  0  0  0  0  0  0  0  0  0  0  0
    9.9496  -20.6385   25.3786 C   0  0  0  0  0  0  0  0  0  0  0  0
    9.0832  -19.8620   26.2865 C   0  0  0  0  0  0  0  0  0  0  0  0
    9.7285  -19.0987   27.4065 C   0  0  2  0  0  0  0  0  0  0  0  0
   10.4267  -17.9896   26.7486 N   0  0  0  0  0  0  0  0  0  0  0  0
   10.5126  -19.8166   28.3786 C   0  0  0  0  0  0  0  0  0  0  0  0
    9.8858  -20.7243   29.2575 O   0  0  0  0  0  0  0  0  0  0  0  0
   11.7610  -19.7072   28.5392 O   0  0  0  0  0  0  0  0  0  0  0  0
  2  1  1  6
  3  2  1  0
  4  3  1  0
  4  5  2  0
  6  5  1  0
  7  6  1  0
  8  7  2  0
  9  8  1  0
 10  9  2  0
 10 11  1  0
 11 12  2  0
 12  7  1  0
 12  4  1  0
 13 14  2  0
 13  2  1  0
 15 13  1  0
 16 15  1  0
 16 17  1  1
 18 19  2  0
 18 17  1  0
 20 19  1  0
 21 20  2  0
 22 21  1  0
 22 23  2  0
 23 18  1  0
 24 25  2  0
 24 16  1  0
 26 27  1  0
 27 28  2  0
 29 27  1  0
 29 30  1  0
 31 30  1  6
 31 32  1  0
 32 24  1  0
 33 31  1  0
 34 33  1  0
 35 33  2  0
M  END
$$$$
