WFQ.pdb
     RDKit          3D

 35 37  0  0  1  0  0  0  0  0999 V2000
    7.3406  -17.7704   21.3487 N   0  0  0  0  0  0  0  0  0  0  0  0
    7.1689  -16.3389   21.5511 C   0  0  1  0  0  0  0  0  0  0  0  0
    6.2932  -15.7528   20.4961 C   0  0  0  0  0  0  0  0  0  0  0  0
    6.9811  -14.8813   19.5242 C   0  0  0  0  0  0  0  0  0  0  0  0
    6.6556  -14.8370   18.1664 C   0  0  0  0  0  0  0  0  0  0  0  0
    7.4307  -13.9413   17.5831 N   0  0  0  0  0  0  0  0  0  0  0  0
    8.2778  -13.3654   18.4787 C   0  0  0  0  0  0  0  0  0  0  0  0
    9.2504  -12.4048   18.3331 C   0  0  0  0  0  0  0  0  0  0  0  0
    9.9799  -12.0041   19.4238 C   0  0  0  0  0  0  0  0  0  0  0  0
    9.7112  -12.5837   20.6410 C   0  0  0  0  0  0  0  0  0  0  0  0
    8.7353  -13.5444   20.7760 C   0  0  0  0  0  0  0  0  0  0  0  0
    7.9810  -13.9697   19.6955 C   0  0  0  0  0  0  0  0  0  0  0  0
    6.7219  -15.9781   22.8969 C   0  0  0  0  0  0  0  0  0  0  0  0
    5.9490  -14.9936   23.1315 O   0  0  0  0  0  0  0  0  0  0  0  0
    7.1832  -16.7873   23.9882 N   0  0  0  0  0  0  0  0  0  0  0  0
    8.1006  -16.2357   24.9671 C   0  0  1  0  0  0  0  0  0  0  0  0
    7.3431  -15.9041   26.2435 C   0  0  0  0  0  0  0  0  0  0  0  0
    7.2547  -14.4574   26.4962 C   0  0  0  0  0  0  0  0  0  0  0  0
    8.3473  -13.7950   26.9984 C   0  0  0  0  0  0  0  0  0  0  0  0
    8.2844  -12.4389   27.2435 C   0  0  0  0  0  0  0  0  0  0  0  0
    7.1240  -11.7378   26.9862 C   0  0  0  0  0  0  0  0  0  0  0  0
    6.0154  -12.3776   26.4832 C   0  0  0  0  0  0  0  0  0  0  0  0
    6.1124  -13.7393   26.2486 C   0  0  0  0  0  0  0  0  0  0  0  0
    9.1876  -17.1851   25.1895 C   0  0  0  0  0  0  0  0  0  0  0  0
    8.9978  -18.4154   25.0201 O   0  0  0  0  0  0  0  0  0  0  0  0
   12.9694  -19.1627   21.7902 N   0  0  0  0  0  0  0  0  0  0  0  0
   12.9379  -17.7475   21.9020 C   0  0  0  0  0  0  0  0  0  0  0  0
   13.4404  -17.0515   20.9778 O   0  0  0  0  0  0  0  0  0  0  0  0
   12.3306  -17.0862   23.0613 C   0  0  0  0  0  0  0  0  0  0  0  0
   11.6884  -18.0392   23.9872 C   0  0  0  0  0  0  0  0  0  0  0  0
   11.6571  -17.7000   25.4492 C   0  0  2  0  0  0  0  0  0  0  0  0
   10.5036  -16.8071   25.6004 N   0  0  0  0  0  0  0  0  0  0  0  0
   12.8657  -17.2411   26.0846 C   0  0  0  0  0  0  0  0  0  0  0  0
   12.9409  -15.9257   26.5881 O   0  0  0  0  0  0  0  0  0  0  0  0
   13.9181  -17.9232   26.2383 O   0  0  0  0  0  0  0  0  0  0  0  0
  2  1  1  1
  3  2  1  0
  4  3  1  0
  4  5  2  0
  6  5  1  0
  7  6  1  0
  8  7  2  0
  9  8  1  0
 10  9  2  0
 10 11  1  0
 11 12  2  0
 12  7  1  0
 12  4  1  0
 13 14  2  0
 13  2  1  0
 15 13  1  0
 16 15  1  0
 16 17  1  1
 18 19  2  0
 18 17  1  0
 20 19  1  0
 21 20  2  0
 22 21  1  0
 22 23  2  0
 23 18  1  0
 24 25  2  0
 24 16  1  0
 26 27  1  0
 27 28  2  0
 29 27  1  0
 29 30  1  0
 31 30  1  6
 31 32  1  0
 32 24  1  0
 33 31  1  0
 34 33  1  0
 35 33  2  0
M  END
$$$$
