WFQ.pdb
     RDKit          3D

 35 37  0  0  1  0  0  0  0  0999 V2000
    6.8302  -18.0850   21.9427 N   0  0  0  0  0  0  0  0  0  0  0  0
    8.1956  -17.6247   21.7336 C   0  0  1  0  0  0  0  0  0  0  0  0
    8.2960  -16.7993   20.4959 C   0  0  0  0  0  0  0  0  0  0  0  0
    7.4354  -15.6009   20.4708 C   0  0  0  0  0  0  0  0  0  0  0  0
    6.0414  -15.6539   20.5443 C   0  0  0  0  0  0  0  0  0  0  0  0
    5.5779  -14.4177   20.5278 N   0  0  0  0  0  0  0  0  0  0  0  0
    6.5910  -13.5132   20.4455 C   0  0  0  0  0  0  0  0  0  0  0  0
    6.5908  -12.1394   20.3938 C   0  0  0  0  0  0  0  0  0  0  0  0
    7.7801  -11.4617   20.3017 C   0  0  0  0  0  0  0  0  0  0  0  0
    8.9470  -12.1875   20.2634 C   0  0  0  0  0  0  0  0  0  0  0  0
    8.9361  -13.5625   20.3159 C   0  0  0  0  0  0  0  0  0  0  0  0
    7.7532  -14.2760   20.4101 C   0  0  0  0  0  0  0  0  0  0  0  0
    8.7787  -16.9478   22.8924 C   0  0  0  0  0  0  0  0  0  0  0  0
    9.9240  -16.3916   22.8683 O   0  0  0  0  0  0  0  0  0  0  0  0
    8.0054  -16.9161   24.1005 N   0  0  0  0  0  0  0  0  0  0  0  0
    8.5962  -16.4245   25.3308 C   0  0  1  0  0  0  0  0  0  0  0  0
    7.5056  -15.8612   26.2289 C   0  0  0  0  0  0  0  0  0  0  0  0
    7.4162  -14.3940   26.1679 C   0  0  0  0  0  0  0  0  0  0  0  0
    8.5015  -13.6387   26.5368 C   0  0  0  0  0  0  0  0  0  0  0  0
    8.4374  -12.2615   26.4880 C   0  0  0  0  0  0  0  0  0  0  0  0
    7.2831  -11.6325   26.0684 C   0  0  0  0  0  0  0  0  0  0  0  0
    6.1817  -12.3659   25.6934 C   0  0  0  0  0  0  0  0  0  0  0  0
    6.2798  -13.7463   25.7543 C   0  0  0  0  0  0  0  0  0  0  0  0
    9.3439  -17.5062   25.9659 C   0  0  0  0  0  0  0  0  0  0  0  0
    8.7468  -18.5329   26.3751 O   0  0  0  0  0  0  0  0  0  0  0  0
   15.1986  -18.7093   24.7236 N   0  0  0  0  0  0  0  0  0  0  0  0
   15.0689  -19.5317   25.8738 C   0  0  0  0  0  0  0  0  0  0  0  0
   16.0507  -20.2379   26.2323 O   0  0  0  0  0  0  0  0  0  0  0  0
   13.8251  -19.5696   26.6496 C   0  0  0  0  0  0  0  0  0  0  0  0
   12.7892  -18.6697   26.1065 C   0  0  0  0  0  0  0  0  0  0  0  0
   11.4726  -18.5857   26.8227 C   0  0  2  0  0  0  0  0  0  0  0  0
   10.7593  -17.4862   26.1647 N   0  0  0  0  0  0  0  0  0  0  0  0
   11.4637  -18.5378   28.2624 C   0  0  0  0  0  0  0  0  0  0  0  0
   11.9225  -19.6445   29.0067 O   0  0  0  0  0  0  0  0  0  0  0  0
   11.0613  -17.5653   28.9614 O   0  0  0  0  0  0  0  0  0  0  0  0
  2  1  1  1
  3  2  1  0
  4  3  1  0
  4  5  2  0
  6  5  1  0
  7  6  1  0
  8  7  2  0
  9  8  1  0
 10  9  2  0
 10 11  1  0
 11 12  2  0
 12  7  1  0
 12  4  1  0
 13 14  2  0
 13  2  1  0
 15 13  1  0
 16 15  1  0
 16 17  1  1
 18 19  2  0
 18 17  1  0
 20 19  1  0
 21 20  2  0
 22 21  1  0
 22 23  2  0
 23 18  1  0
 24 25  2  0
 24 16  1  0
 26 27  1  0
 27 28  2  0
 29 27  1  0
 29 30  1  0
 31 30  1  6
 31 32  1  0
 32 24  1  0
 33 31  1  0
 34 33  1  0
 35 33  2  0
M  END
$$$$
