REN.pdb
     RDKit          3D

 29 28  0  0  1  0  0  0  0  0999 V2000
   10.4671  -21.5831   12.9564 N   0  0  0  0  0  0  0  0  0  0  0  0
   11.0260  -20.6548   13.8584 C   0  0  0  0  0  0  0  0  0  0  0  0
   11.5639  -19.5849   13.3756 N   0  0  0  0  0  0  0  0  0  0  0  0
   11.0060  -20.8723   15.2621 N   0  0  0  0  0  0  0  0  0  0  0  0
   11.3812  -19.8510   16.1942 C   0  0  0  0  0  0  0  0  0  0  0  0
   12.8804  -19.6793   16.2996 C   0  0  0  0  0  0  0  0  0  0  0  0
   13.2702  -18.6009   17.2668 C   0  0  0  0  0  0  0  0  0  0  0  0
   14.1839  -19.0369   18.3540 C   0  0  2  0  0  0  0  0  0  0  0  0
   13.7815  -20.3282   18.9075 N   0  0  0  0  0  0  0  0  0  0  0  0
   14.2261  -18.0467   19.4415 C   0  0  0  0  0  0  0  0  0  0  0  0
   14.5182  -16.8594   19.2286 O   0  0  0  0  0  0  0  0  0  0  0  0
   11.9577  -18.8185   13.9255 N   0  0  0  0  0  0  0  0  0  0  0  0
   13.9308  -18.4366   20.7754 C   0  0  1  0  0  0  0  0  0  0  0  0
   13.9097  -17.4739   21.8227 C   0  0  0  0  0  0  0  0  0  0  0  0
   12.6740  -17.5187   22.6503 C   0  0  0  0  0  0  0  0  0  0  0  0
   12.4233  -16.3944   23.5749 C   0  0  0  0  0  0  0  0  0  0  0  0
   11.1619  -16.3971   24.3242 O   0  0  0  0  0  0  0  0  0  0  0  0
   11.0751  -16.0990   25.5222 C   0  0  0  0  0  0  0  0  0  0  0  0
   15.1386  -17.6802   22.6502 O   0  0  0  0  0  0  0  0  0  0  0  0
   15.7362  -18.8033   22.6889 O   0  0  0  0  0  0  0  0  0  0  0  0
    9.9820  -16.7580   23.6540 N   0  0  0  0  0  0  0  0  0  0  0  0
   18.0214  -17.6891   26.6655 C   0  0  0  0  0  0  0  0  0  0  0  0
   17.4937  -18.6830   25.7798 O   0  0  0  0  0  0  0  0  0  0  0  0
   17.6746  -19.8752   26.0900 C   0  0  0  0  0  0  0  0  0  0  0  0
   16.7803  -18.2736   24.5750 C   0  0  2  0  0  0  0  0  0  0  0  0
   16.7524  -16.8034   24.3033 N   0  0  0  0  0  0  0  0  0  0  0  0
   15.6205  -16.5817   23.3946 C   0  0  0  0  0  0  0  0  0  0  0  0
   17.9583  -16.2948   23.6135 O   0  0  0  0  0  0  0  0  0  0  0  0
   18.4603  -17.0009   22.5245 O   0  0  0  0  0  0  0  0  0  0  0  0
  2  3  2  0
  2  1  1  0
  4  2  1  0
  5  6  1  0
  5  4  1  0
  7  6  1  0
  8 10  1  0
  8  7  1  0
  8  9  1  1
 10 11  2  0
 12 13  1  0
 12 10  1  0
 13 14  1  6
 14 15  1  0
 16 20  1  0
 16 15  1  0
 17 16  2  0
 18 19  2  0
 18 13  1  0
 21 22  1  0
 22 23  2  0
 22 24  1  0
 25 24  1  1
 25 26  1  0
 26 18  1  0
 27 25  1  0
 27 28  1  0
 29 27  2  0
M  END
$$$$
