REN.pdb
     RDKit          3D

 29 28  0  0  1  0  0  0  0  0999 V2000
    7.5207  -13.2117   16.9089 N   0  0  0  0  0  0  0  0  0  0  0  0
    8.0327  -13.2868   18.2205 C   0  0  0  0  0  0  0  0  0  0  0  0
    8.2639  -12.1824   18.8481 N   0  0  0  0  0  0  0  0  0  0  0  0
    8.2919  -14.5333   18.8507 N   0  0  0  0  0  0  0  0  0  0  0  0
    7.2359  -15.4021   19.2783 C   0  0  0  0  0  0  0  0  0  0  0  0
    6.7761  -15.1110   20.6897 C   0  0  0  0  0  0  0  0  0  0  0  0
    7.2427  -16.1440   21.6722 C   0  0  0  0  0  0  0  0  0  0  0  0
    6.1982  -17.1040   22.1132 C   0  0  2  0  0  0  0  0  0  0  0  0
    4.8545  -16.5925   21.8514 N   0  0  0  0  0  0  0  0  0  0  0  0
    6.3217  -17.4009   23.5490 C   0  0  0  0  0  0  0  0  0  0  0  0
    5.8957  -16.6190   24.4135 O   0  0  0  0  0  0  0  0  0  0  0  0
    8.7538  -12.0987   19.7412 N   0  0  0  0  0  0  0  0  0  0  0  0
    6.9414  -18.6048   23.9794 C   0  0  2  0  0  0  0  0  0  0  0  0
    7.0726  -18.8952   25.3660 C   0  0  0  0  0  0  0  0  0  0  0  0
    7.1278  -20.3509   25.6687 C   0  0  0  0  0  0  0  0  0  0  0  0
    7.2906  -20.7551   27.0801 C   0  0  0  0  0  0  0  0  0  0  0  0
    7.2906  -22.1909   27.3817 O   0  0  0  0  0  0  0  0  0  0  0  0
    8.1711  -22.7524   28.0458 C   0  0  0  0  0  0  0  0  0  0  0  0
    8.2880  -18.1791   25.8640 O   0  0  0  0  0  0  0  0  0  0  0  0
    9.0716  -17.5643   25.0717 O   0  0  0  0  0  0  0  0  0  0  0  0
    6.2378  -22.9810   26.8928 N   0  0  0  0  0  0  0  0  0  0  0  0
   10.1749  -15.1907   25.9698 C   0  0  0  0  0  0  0  0  0  0  0  0
    9.1120  -14.9186   26.8900 O   0  0  0  0  0  0  0  0  0  0  0  0
    8.5576  -13.8069   26.8063 C   0  0  0  0  0  0  0  0  0  0  0  0
    8.7255  -15.9289   27.8690 C   0  0  2  0  0  0  0  0  0  0  0  0
    9.4789  -17.2190   27.8045 N   0  0  0  0  0  0  0  0  0  0  0  0
    8.5429  -18.2063   27.2523 C   0  0  0  0  0  0  0  0  0  0  0  0
    9.9100  -17.7320   29.1235 O   0  0  0  0  0  0  0  0  0  0  0  0
    9.3143  -18.8850   29.6260 O   0  0  0  0  0  0  0  0  0  0  0  0
  2  3  2  0
  2  1  1  0
  4  2  1  0
  5  6  1  0
  5  4  1  0
  7  6  1  0
  8 10  1  0
  8  7  1  0
  8  9  1  1
 10 11  2  0
 12 13  1  0
 12 10  1  0
 13 14  1  6
 14 15  1  0
 16 20  1  0
 16 15  1  0
 17 16  2  0
 18 19  2  0
 18 13  1  0
 21 22  1  0
 22 23  2  0
 22 24  1  0
 25 24  1  6
 25 26  1  0
 26 18  1  0
 27 25  1  0
 27 28  1  0
 29 27  2  0
M  END
$$$$
