REN.pdb
     RDKit          3D

 29 28  0  0  1  0  0  0  0  0999 V2000
    8.1052  -12.3181   21.7238 N   0  0  0  0  0  0  0  0  0  0  0  0
    8.0323  -12.6158   20.3476 C   0  0  0  0  0  0  0  0  0  0  0  0
    7.6680  -11.6766   19.5399 N   0  0  0  0  0  0  0  0  0  0  0  0
    8.3484  -13.9064   19.8449 N   0  0  0  0  0  0  0  0  0  0  0  0
    7.5488  -14.5482   18.8441 C   0  0  0  0  0  0  0  0  0  0  0  0
    8.1110  -15.8862   18.4176 C   0  0  0  0  0  0  0  0  0  0  0  0
    9.3757  -16.2376   19.1437 C   0  0  0  0  0  0  0  0  0  0  0  0
   10.3455  -17.0418   18.3565 C   0  0  2  0  0  0  0  0  0  0  0  0
    9.8218  -18.3733   18.0589 N   0  0  0  0  0  0  0  0  0  0  0  0
   11.6231  -17.1834   19.0726 C   0  0  0  0  0  0  0  0  0  0  0  0
   11.8266  -18.1210   19.8598 O   0  0  0  0  0  0  0  0  0  0  0  0
    7.4577  -11.7963   18.5469 N   0  0  0  0  0  0  0  0  0  0  0  0
   12.6624  -16.2350   18.8751 C   0  0  2  0  0  0  0  0  0  0  0  0
   13.8524  -16.2934   19.6528 C   0  0  0  0  0  0  0  0  0  0  0  0
   14.9529  -15.4423   19.1252 C   0  0  0  0  0  0  0  0  0  0  0  0
   14.6030  -14.0993   18.6194 C   0  0  0  0  0  0  0  0  0  0  0  0
   15.6160  -13.3802   17.8389 O   0  0  0  0  0  0  0  0  0  0  0  0
   16.6806  -12.9648   18.3139 C   0  0  0  0  0  0  0  0  0  0  0  0
   13.4921  -15.9257   21.0573 O   0  0  0  0  0  0  0  0  0  0  0  0
   13.1266  -14.7461   21.3654 O   0  0  0  0  0  0  0  0  0  0  0  0
   15.3727  -13.1439   16.4763 N   0  0  0  0  0  0  0  0  0  0  0  0
   10.7876  -16.2754   25.6275 C   0  0  0  0  0  0  0  0  0  0  0  0
   11.4718  -17.4004   25.0647 O   0  0  0  0  0  0  0  0  0  0  0  0
   11.6616  -18.3811   25.8080 C   0  0  0  0  0  0  0  0  0  0  0  0
   11.9117  -17.3588   23.6743 C   0  0  1  0  0  0  0  0  0  0  0  0
   13.1727  -16.5986   23.4133 N   0  0  0  0  0  0  0  0  0  0  0  0
   13.5709  -16.9354   22.0408 C   0  0  0  0  0  0  0  0  0  0  0  0
   14.3006  -16.9825   24.2904 O   0  0  0  0  0  0  0  0  0  0  0  0
   15.4778  -16.2423   24.2378 O   0  0  0  0  0  0  0  0  0  0  0  0
  2  3  2  0
  2  1  1  0
  4  2  1  0
  5  6  1  0
  5  4  1  0
  7  6  1  0
  8 10  1  0
  8  7  1  0
  8  9  1  1
 10 11  2  0
 12 13  1  0
 12 10  1  0
 13 14  1  6
 14 15  1  0
 16 20  1  0
 16 15  1  0
 17 16  2  0
 18 19  2  0
 18 13  1  0
 21 22  1  0
 22 23  2  0
 22 24  1  0
 25 24  1  6
 25 26  1  0
 26 18  1  0
 27 25  1  0
 27 28  1  0
 29 27  2  0
M  END
$$$$
