REN.pdb
     RDKit          3D

 29 28  0  0  1  0  0  0  0  0999 V2000
    8.3673  -16.1458   16.0058 N   0  0  0  0  0  0  0  0  0  0  0  0
    8.0184  -15.0256   15.2239 C   0  0  0  0  0  0  0  0  0  0  0  0
    7.5379  -15.2328   14.0435 N   0  0  0  0  0  0  0  0  0  0  0  0
    8.1824  -13.6989   15.7047 N   0  0  0  0  0  0  0  0  0  0  0  0
    8.4804  -13.4204   17.0782 C   0  0  0  0  0  0  0  0  0  0  0  0
    7.2457  -13.4052   17.9519 C   0  0  0  0  0  0  0  0  0  0  0  0
    7.3066  -14.4220   19.0531 C   0  0  0  0  0  0  0  0  0  0  0  0
    8.1917  -14.0597   20.1900 C   0  0  2  0  0  0  0  0  0  0  0  0
    8.5278  -12.6375   20.1762 N   0  0  0  0  0  0  0  0  0  0  0  0
    9.4375  -14.8421   20.1636 C   0  0  0  0  0  0  0  0  0  0  0  0
    9.4254  -16.0826   20.1253 O   0  0  0  0  0  0  0  0  0  0  0  0
    7.3649  -14.5133   13.3385 N   0  0  0  0  0  0  0  0  0  0  0  0
   10.6962  -14.1833   20.1835 C   0  0  1  0  0  0  0  0  0  0  0  0
   11.9046  -14.9295   20.1002 C   0  0  0  0  0  0  0  0  0  0  0  0
   12.9399  -14.2957   19.2399 C   0  0  0  0  0  0  0  0  0  0  0  0
   14.1961  -15.0388   19.0130 C   0  0  0  0  0  0  0  0  0  0  0  0
   15.2197  -14.4061   18.1736 O   0  0  0  0  0  0  0  0  0  0  0  0
   15.7751  -13.3372   18.4576 C   0  0  0  0  0  0  0  0  0  0  0  0
   12.3994  -15.1444   21.4955 O   0  0  0  0  0  0  0  0  0  0  0  0
   12.3869  -14.2097   22.3593 O   0  0  0  0  0  0  0  0  0  0  0  0
   15.5960  -15.0402   16.9787 N   0  0  0  0  0  0  0  0  0  0  0  0
   10.7448  -16.7830   24.0286 C   0  0  0  0  0  0  0  0  0  0  0  0
   11.5020  -17.9976   23.9869 O   0  0  0  0  0  0  0  0  0  0  0  0
   10.9003  -19.0529   24.2602 C   0  0  0  0  0  0  0  0  0  0  0  0
   12.9171  -17.9568   23.6344 C   0  0  2  0  0  0  0  0  0  0  0  0
   13.4352  -16.6314   23.1753 N   0  0  0  0  0  0  0  0  0  0  0  0
   12.8858  -16.4270   21.8291 C   0  0  0  0  0  0  0  0  0  0  0  0
   14.9079  -16.5711   23.0479 O   0  0  0  0  0  0  0  0  0  0  0  0
   15.6748  -16.3501   24.1880 O   0  0  0  0  0  0  0  0  0  0  0  0
  2  3  2  0
  2  1  1  0
  4  2  1  0
  5  6  1  0
  5  4  1  0
  7  6  1  0
  8 10  1  0
  8  7  1  0
  8  9  1  6
 10 11  2  0
 12 13  1  0
 12 10  1  0
 13 14  1  6
 14 15  1  0
 16 20  1  0
 16 15  1  0
 17 16  2  0
 18 19  2  0
 18 13  1  0
 21 22  1  0
 22 23  2  0
 22 24  1  0
 25 24  1  1
 25 26  1  0
 26 18  1  0
 27 25  1  0
 27 28  1  0
 29 27  2  0
M  END
$$$$
