REN.pdb
     RDKit          3D

 29 28  0  0  1  0  0  0  0  0999 V2000
    7.2215  -12.9113   16.5111 N   0  0  0  0  0  0  0  0  0  0  0  0
    8.4283  -13.4292   17.0241 C   0  0  0  0  0  0  0  0  0  0  0  0
    9.0833  -14.2759   16.3021 N   0  0  0  0  0  0  0  0  0  0  0  0
    8.9264  -13.0412   18.2967 N   0  0  0  0  0  0  0  0  0  0  0  0
    8.1017  -13.0449   19.4683 C   0  0  0  0  0  0  0  0  0  0  0  0
    7.1583  -14.2264   19.5141 C   0  0  0  0  0  0  0  0  0  0  0  0
    7.6257  -15.3009   20.4508 C   0  0  0  0  0  0  0  0  0  0  0  0
    8.6733  -16.1983   19.8994 C   0  0  2  0  0  0  0  0  0  0  0  0
    8.0936  -17.2569   19.0753 N   0  0  0  0  0  0  0  0  0  0  0  0
    9.4652  -16.8145   20.9755 C   0  0  0  0  0  0  0  0  0  0  0  0
    9.0207  -17.7543   21.6533 O   0  0  0  0  0  0  0  0  0  0  0  0
    9.9916  -14.6802   16.5389 N   0  0  0  0  0  0  0  0  0  0  0  0
   10.7719  -16.3375   21.2647 C   0  0  1  0  0  0  0  0  0  0  0  0
   11.5574  -16.9502   22.2804 C   0  0  0  0  0  0  0  0  0  0  0  0
   12.9710  -16.4864   22.3036 C   0  0  0  0  0  0  0  0  0  0  0  0
   13.8918  -17.1317   23.2614 C   0  0  0  0  0  0  0  0  0  0  0  0
   15.3071  -16.7483   23.2095 O   0  0  0  0  0  0  0  0  0  0  0  0
   16.2247  -17.5432   22.9693 C   0  0  0  0  0  0  0  0  0  0  0  0
   10.8730  -16.7075   23.5882 O   0  0  0  0  0  0  0  0  0  0  0  0
   10.1731  -15.6640   23.7915 O   0  0  0  0  0  0  0  0  0  0  0  0
   15.6499  -15.4072   23.4453 N   0  0  0  0  0  0  0  0  0  0  0  0
    6.7187  -16.8845   26.4147 C   0  0  0  0  0  0  0  0  0  0  0  0
    7.7376  -17.8860   26.3174 O   0  0  0  0  0  0  0  0  0  0  0  0
    7.6935  -18.8239   27.1351 C   0  0  0  0  0  0  0  0  0  0  0  0
    8.7662  -17.7747   25.2888 C   0  0  1  0  0  0  0  0  0  0  0  0
   10.1649  -17.5905   25.7847 N   0  0  0  0  0  0  0  0  0  0  0  0
   11.0284  -17.6792   24.6005 C   0  0  0  0  0  0  0  0  0  0  0  0
   10.6162  -18.6436   26.7207 O   0  0  0  0  0  0  0  0  0  0  0  0
   10.6287  -18.3722   28.0856 O   0  0  0  0  0  0  0  0  0  0  0  0
  2  3  2  0
  2  1  1  0
  4  2  1  0
  5  6  1  0
  5  4  1  0
  7  6  1  0
  8 10  1  0
  8  7  1  0
  8  9  1  1
 10 11  2  0
 12 13  1  0
 12 10  1  0
 13 14  1  6
 14 15  1  0
 16 20  1  0
 16 15  1  0
 17 16  2  0
 18 19  2  0
 18 13  1  0
 21 22  1  0
 22 23  2  0
 22 24  1  0
 25 24  1  6
 25 26  1  0
 26 18  1  0
 27 25  1  0
 27 28  1  0
 29 27  2  0
M  END
$$$$
