WHI.pdb
     RDKit          3D

 33 35  0  0  1  0  0  0  0  0999 V2000
   28.0933  -21.8097  -12.0020 N   0  0  0  0  0  0  0  0  0  0  0  0
   26.9233  -21.2722  -11.3830 C   0  0  1  0  0  0  0  0  0  0  0  0
   27.1930  -19.9207  -10.8119 C   0  0  0  0  0  0  0  0  0  0  0  0
   28.1133  -20.0222   -9.6723 C   0  0  0  0  0  0  0  0  0  0  0  0
   29.5001  -20.2133   -9.7695 C   0  0  0  0  0  0  0  0  0  0  0  0
   30.0317  -20.2230   -8.5534 N   0  0  0  0  0  0  0  0  0  0  0  0
   29.0557  -20.0469   -7.6454 C   0  0  0  0  0  0  0  0  0  0  0  0
   29.1097  -19.9907   -6.2538 C   0  0  0  0  0  0  0  0  0  0  0  0
   27.9377  -19.8072   -5.5593 C   0  0  0  0  0  0  0  0  0  0  0  0
   26.7360  -19.6820   -6.2202 C   0  0  0  0  0  0  0  0  0  0  0  0
   26.6802  -19.7376   -7.6149 C   0  0  0  0  0  0  0  0  0  0  0  0
   27.8645  -19.9213   -8.3089 C   0  0  0  0  0  0  0  0  0  0  0  0
   25.8219  -21.2542  -12.3883 C   0  0  0  0  0  0  0  0  0  0  0  0
   25.9823  -20.6693  -13.5150 O   0  0  0  0  0  0  0  0  0  0  0  0
   24.5685  -21.8561  -12.1861 N   0  0  0  0  0  0  0  0  0  0  0  0
   23.5490  -21.9617  -13.2590 C   0  0  1  0  0  0  0  0  0  0  0  0
   23.4735  -23.4252  -13.5512 C   0  0  0  0  0  0  0  0  0  0  0  0
   24.4174  -23.9440  -14.5495 C   0  0  0  0  0  0  0  0  0  0  0  0
   25.3292  -23.2200  -15.2832 C   0  0  0  0  0  0  0  0  0  0  0  0
   26.0059  -24.0395  -16.1270 N   0  0  0  0  0  0  0  0  0  0  0  0
   25.5171  -25.2714  -15.9207 C   0  0  0  0  0  0  0  0  0  0  0  0
   24.5646  -25.2247  -14.9773 N   0  0  0  0  0  0  0  0  0  0  0  0
   22.3383  -21.3399  -12.7136 C   0  0  0  0  0  0  0  0  0  0  0  0
   22.0142  -21.5148  -11.4895 O   0  0  0  0  0  0  0  0  0  0  0  0
   19.0221  -16.2507  -12.7422 C   0  0  0  0  0  0  0  0  0  0  0  0
   19.0076  -17.7568  -12.4560 C   0  0  0  0  0  0  0  0  0  0  0  0
   20.1718  -18.4372  -13.1160 C   0  0  2  0  0  0  0  0  0  0  0  0
   20.0722  -18.2199  -14.6012 C   0  0  0  0  0  0  0  0  0  0  0  0
   20.2493  -19.9213  -12.8387 C   0  0  2  0  0  0  0  0  0  0  0  0
   21.4335  -20.5024  -13.4626 N   0  0  0  0  0  0  0  0  0  0  0  0
   19.0108  -20.6535  -13.1156 C   0  0  0  0  0  0  0  0  0  0  0  0
   17.9152  -20.7088  -12.2899 O   0  0  0  0  0  0  0  0  0  0  0  0
   18.9179  -21.2992  -14.1999 O   0  0  0  0  0  0  0  0  0  0  0  0
  2  1  1  6
  3  2  1  0
  4  3  1  0
  5  4  2  0
  6  7  1  0
  6  5  1  0
  7 12  2  0
  8  9  2  0
  8  7  1  0
  9 10  1  0
 10 11  2  0
 12 11  1  0
 12  4  1  0
 13  2  1  0
 13 14  2  0
 15 13  1  0
 16 15  1  0
 16 17  1  1
 18 17  1  0
 19 18  2  0
 20 21  1  0
 20 19  1  0
 21 22  2  0
 22 18  1  0
 23 16  1  0
 24 23  2  0
 26 25  1  0
 27 26  1  0
 27 28  1  6
 29 27  1  0
 29 30  1  6
 30 23  1  0
 31 29  1  0
 32 31  1  0
 33 31  2  0
M  END
$$$$
