WHI.pdb
     RDKit          3D

 33 35  0  0  1  0  0  0  0  0999 V2000
   27.9734  -20.5251  -12.0781 N   0  0  0  0  0  0  0  0  0  0  0  0
   26.8794  -21.4358  -12.1994 C   0  0  1  0  0  0  0  0  0  0  0  0
   26.6253  -22.1416  -10.9100 C   0  0  0  0  0  0  0  0  0  0  0  0
   26.6492  -21.1891   -9.7929 C   0  0  0  0  0  0  0  0  0  0  0  0
   25.5619  -20.4055   -9.3771 C   0  0  0  0  0  0  0  0  0  0  0  0
   25.9148  -19.6843   -8.3202 N   0  0  0  0  0  0  0  0  0  0  0  0
   27.1959  -19.9531   -8.0123 C   0  0  0  0  0  0  0  0  0  0  0  0
   28.0116  -19.4483   -7.0012 C   0  0  0  0  0  0  0  0  0  0  0  0
   29.3081  -19.8978   -6.9195 C   0  0  0  0  0  0  0  0  0  0  0  0
   29.7932  -20.8249   -7.8149 C   0  0  0  0  0  0  0  0  0  0  0  0
   28.9767  -21.3321   -8.8285 C   0  0  0  0  0  0  0  0  0  0  0  0
   27.6711  -20.8764   -8.9047 C   0  0  0  0  0  0  0  0  0  0  0  0
   25.6858  -20.6806  -12.6780 C   0  0  0  0  0  0  0  0  0  0  0  0
   25.3917  -19.5436  -12.1699 O   0  0  0  0  0  0  0  0  0  0  0  0
   24.8228  -21.1396  -13.6873 N   0  0  0  0  0  0  0  0  0  0  0  0
   23.6153  -20.3883  -14.1106 C   0  0  1  0  0  0  0  0  0  0  0  0
   23.7642  -20.2582  -15.5918 C   0  0  0  0  0  0  0  0  0  0  0  0
   22.6707  -19.5847  -16.3041 C   0  0  0  0  0  0  0  0  0  0  0  0
   21.4626  -20.1299  -16.6741 C   0  0  0  0  0  0  0  0  0  0  0  0
   20.7207  -19.2112  -17.3426 N   0  0  0  0  0  0  0  0  0  0  0  0
   21.4643  -18.0959  -17.3900 C   0  0  0  0  0  0  0  0  0  0  0  0
   22.6348  -18.3095  -16.7705 N   0  0  0  0  0  0  0  0  0  0  0  0
   22.4745  -21.1767  -13.6344 C   0  0  0  0  0  0  0  0  0  0  0  0
   22.5747  -22.4432  -13.4936 O   0  0  0  0  0  0  0  0  0  0  0  0
   18.7536  -22.4058   -9.3668 C   0  0  0  0  0  0  0  0  0  0  0  0
   18.8267  -22.4138  -10.8982 C   0  0  0  0  0  0  0  0  0  0  0  0
   19.9373  -21.5285  -11.3846 C   0  0  2  0  0  0  0  0  0  0  0  0
   19.6861  -20.1311  -10.8876 C   0  0  0  0  0  0  0  0  0  0  0  0
   20.0801  -21.4986  -12.8893 C   0  0  2  0  0  0  0  0  0  0  0  0
   21.1848  -20.6320  -13.2865 N   0  0  0  0  0  0  0  0  0  0  0  0
   18.8311  -21.2390  -13.6100 C   0  0  0  0  0  0  0  0  0  0  0  0
   17.7909  -22.1244  -13.7482 O   0  0  0  0  0  0  0  0  0  0  0  0
   18.6733  -20.1116  -14.1626 O   0  0  0  0  0  0  0  0  0  0  0  0
  2  1  1  1
  3  2  1  0
  4  3  1  0
  5  4  2  0
  6  7  1  0
  6  5  1  0
  7 12  2  0
  8  9  2  0
  8  7  1  0
  9 10  1  0
 10 11  2  0
 12 11  1  0
 12  4  1  0
 13  2  1  0
 13 14  2  0
 15 13  1  0
 16 15  1  0
 16 17  1  6
 18 17  1  0
 19 18  2  0
 20 21  1  0
 20 19  1  0
 21 22  2  0
 22 18  1  0
 23 16  1  0
 24 23  2  0
 26 25  1  0
 27 26  1  0
 27 28  1  6
 29 27  1  0
 29 30  1  1
 30 23  1  0
 31 29  1  0
 32 31  1  0
 33 31  2  0
M  END
$$$$
