WHI.pdb
     RDKit          3D

 33 35  0  0  1  0  0  0  0  0999 V2000
   38.1536   -0.0520   -6.1879 N   0  0  0  0  0  0  0  0  0  0  0  0
   36.7855    0.1246   -5.8167 C   0  0  1  0  0  0  0  0  0  0  0  0
   36.6567    1.1015   -4.6966 C   0  0  0  0  0  0  0  0  0  0  0  0
   36.1920    0.4245   -3.4794 C   0  0  0  0  0  0  0  0  0  0  0  0
   37.0221   -0.0413   -2.4482 C   0  0  0  0  0  0  0  0  0  0  0  0
   36.2770   -0.5687   -1.4847 N   0  0  0  0  0  0  0  0  0  0  0  0
   34.9808   -0.4754   -1.8301 C   0  0  0  0  0  0  0  0  0  0  0  0
   33.8307   -0.8884   -1.1598 C   0  0  0  0  0  0  0  0  0  0  0  0
   32.6113   -0.6734   -1.7570 C   0  0  0  0  0  0  0  0  0  0  0  0
   32.5246   -0.0647   -2.9893 C   0  0  0  0  0  0  0  0  0  0  0  0
   33.6764    0.3502   -3.6621 C   0  0  0  0  0  0  0  0  0  0  0  0
   34.9017    0.1320   -3.0547 C   0  0  0  0  0  0  0  0  0  0  0  0
   36.0173    0.5418   -7.0250 C   0  0  0  0  0  0  0  0  0  0  0  0
   36.4516    1.4820   -7.7764 O   0  0  0  0  0  0  0  0  0  0  0  0
   34.8022   -0.0429   -7.4197 N   0  0  0  0  0  0  0  0  0  0  0  0
   33.9993    0.4705   -8.5571 C   0  0  1  0  0  0  0  0  0  0  0  0
   33.5936   -0.7582   -9.3044 C   0  0  0  0  0  0  0  0  0  0  0  0
   34.5325   -1.2462  -10.3228 C   0  0  0  0  0  0  0  0  0  0  0  0
   35.7054   -0.6482  -10.7234 C   0  0  0  0  0  0  0  0  0  0  0  0
   36.2888   -1.3772  -11.7081 N   0  0  0  0  0  0  0  0  0  0  0  0
   35.4815   -2.4269  -11.9218 C   0  0  0  0  0  0  0  0  0  0  0  0
   34.4262   -2.3574  -11.0966 N   0  0  0  0  0  0  0  0  0  0  0  0
   32.9184    1.2556   -7.9527 C   0  0  0  0  0  0  0  0  0  0  0  0
   32.3271    0.8412   -6.8979 O   0  0  0  0  0  0  0  0  0  0  0  0
   31.4945    6.6848   -5.9717 C   0  0  0  0  0  0  0  0  0  0  0  0
   30.8625    5.4786   -6.6761 C   0  0  0  0  0  0  0  0  0  0  0  0
   31.9198    4.5843   -7.2559 C   0  0  2  0  0  0  0  0  0  0  0  0
   32.5895    5.3103   -8.3904 C   0  0  0  0  0  0  0  0  0  0  0  0
   31.3910    3.2611   -7.7608 C   0  0  2  0  0  0  0  0  0  0  0  0
   32.4365    2.5184   -8.4568 N   0  0  0  0  0  0  0  0  0  0  0  0
   30.1330    3.3575   -8.5057 C   0  0  0  0  0  0  0  0  0  0  0  0
   29.9592    3.0197   -9.8251 O   0  0  0  0  0  0  0  0  0  0  0  0
   29.1049    3.7873   -7.9060 O   0  0  0  0  0  0  0  0  0  0  0  0
  2  1  1  6
  3  2  1  0
  4  3  1  0
  5  4  2  0
  6  7  1  0
  6  5  1  0
  7 12  2  0
  8  9  2  0
  8  7  1  0
  9 10  1  0
 10 11  2  0
 12 11  1  0
 12  4  1  0
 13  2  1  0
 13 14  2  0
 15 13  1  0
 16 15  1  0
 16 17  1  1
 18 17  1  0
 19 18  2  0
 20 21  1  0
 20 19  1  0
 21 22  2  0
 22 18  1  0
 23 16  1  0
 24 23  2  0
 26 25  1  0
 27 26  1  0
 27 28  1  6
 29 27  1  0
 29 30  1  6
 30 23  1  0
 31 29  1  0
 32 31  1  0
 33 31  2  0
M  END
$$$$
