WHI.pdb
     RDKit          3D

 33 35  0  0  1  0  0  0  0  0999 V2000
   27.4622  -20.1584  -12.0206 N   0  0  0  0  0  0  0  0  0  0  0  0
   26.4946  -21.0790  -11.5136 C   0  0  1  0  0  0  0  0  0  0  0  0
   25.9958  -20.6481  -10.1754 C   0  0  0  0  0  0  0  0  0  0  0  0
   27.1188  -20.4566   -9.2490 C   0  0  0  0  0  0  0  0  0  0  0  0
   27.1825  -19.4725   -8.2506 C   0  0  0  0  0  0  0  0  0  0  0  0
   28.3163  -19.6026   -7.5729 N   0  0  0  0  0  0  0  0  0  0  0  0
   29.0150  -20.6342   -8.0787 C   0  0  0  0  0  0  0  0  0  0  0  0
   30.2556  -21.1554   -7.7154 C   0  0  0  0  0  0  0  0  0  0  0  0
   30.7475  -22.2282   -8.4201 C   0  0  0  0  0  0  0  0  0  0  0  0
   30.0339  -22.7774   -9.4620 C   0  0  0  0  0  0  0  0  0  0  0  0
   28.7902  -22.2565   -9.8271 C   0  0  0  0  0  0  0  0  0  0  0  0
   28.2994  -21.1766   -9.1124 C   0  0  0  0  0  0  0  0  0  0  0  0
   25.3962  -21.2096  -12.5138 C   0  0  0  0  0  0  0  0  0  0  0  0
   25.0107  -20.1937  -13.1896 O   0  0  0  0  0  0  0  0  0  0  0  0
   24.7234  -22.4131  -12.7840 N   0  0  0  0  0  0  0  0  0  0  0  0
   23.6819  -22.5294  -13.8345 C   0  0  1  0  0  0  0  0  0  0  0  0
   23.7694  -23.9523  -14.2825 C   0  0  0  0  0  0  0  0  0  0  0  0
   24.7706  -24.2547  -15.3134 C   0  0  0  0  0  0  0  0  0  0  0  0
   25.5725  -23.3560  -15.9793 C   0  0  0  0  0  0  0  0  0  0  0  0
   26.3505  -24.0042  -16.8825 N   0  0  0  0  0  0  0  0  0  0  0  0
   26.0344  -25.3038  -16.7810 C   0  0  0  0  0  0  0  0  0  0  0  0
   25.0885  -25.4642  -15.8435 N   0  0  0  0  0  0  0  0  0  0  0  0
   22.4285  -22.1214  -13.1925 C   0  0  0  0  0  0  0  0  0  0  0  0
   22.1455  -22.5186  -12.0109 O   0  0  0  0  0  0  0  0  0  0  0  0
   19.7334  -17.1884  -13.8016 C   0  0  0  0  0  0  0  0  0  0  0  0
   20.0812  -18.6494  -14.1098 C   0  0  0  0  0  0  0  0  0  0  0  0
   20.0513  -19.4807  -12.8601 C   0  0  2  0  0  0  0  0  0  0  0  0
   21.1735  -19.0345  -11.9632 C   0  0  0  0  0  0  0  0  0  0  0  0
   20.1813  -20.9658  -13.1112 C   0  0  2  0  0  0  0  0  0  0  0  0
   21.4347  -21.2665  -13.7949 N   0  0  0  0  0  0  0  0  0  0  0  0
   19.0035  -21.5795  -13.7301 C   0  0  0  0  0  0  0  0  0  0  0  0
   18.9771  -22.1967  -14.9563 O   0  0  0  0  0  0  0  0  0  0  0  0
   17.9048  -21.5504  -13.1031 O   0  0  0  0  0  0  0  0  0  0  0  0
  2  1  1  6
  3  2  1  0
  4  3  1  0
  5  4  2  0
  6  7  1  0
  6  5  1  0
  7 12  2  0
  8  9  2  0
  8  7  1  0
  9 10  1  0
 10 11  2  0
 12 11  1  0
 12  4  1  0
 13  2  1  0
 13 14  2  0
 15 13  1  0
 16 15  1  0
 16 17  1  1
 18 17  1  0
 19 18  2  0
 20 21  1  0
 20 19  1  0
 21 22  2  0
 22 18  1  0
 23 16  1  0
 24 23  2  0
 26 25  1  0
 27 26  1  0
 27 28  1  1
 29 27  1  0
 29 30  1  6
 30 23  1  0
 31 29  1  0
 32 31  1  0
 33 31  2  0
M  END
$$$$
