WHI.pdb
     RDKit          3D

 33 35  0  0  1  0  0  0  0  0999 V2000
   23.3959  -21.5500  -15.1637 N   0  0  0  0  0  0  0  0  0  0  0  0
   23.8364  -20.5138  -14.2845 C   0  0  1  0  0  0  0  0  0  0  0  0
   22.6772  -19.8195  -13.6524 C   0  0  0  0  0  0  0  0  0  0  0  0
   21.9480  -19.0293  -14.6522 C   0  0  0  0  0  0  0  0  0  0  0  0
   22.3209  -17.7529  -15.1005 C   0  0  0  0  0  0  0  0  0  0  0  0
   21.4656  -17.3426  -16.0288 N   0  0  0  0  0  0  0  0  0  0  0  0
   20.5339  -18.2933  -16.2193 C   0  0  0  0  0  0  0  0  0  0  0  0
   19.4335  -18.3277  -17.0741 C   0  0  0  0  0  0  0  0  0  0  0  0
   18.6262  -19.4401  -17.0586 C   0  0  0  0  0  0  0  0  0  0  0  0
   18.8952  -20.4978  -16.2186 C   0  0  0  0  0  0  0  0  0  0  0  0
   19.9979  -20.4650  -15.3617 C   0  0  0  0  0  0  0  0  0  0  0  0
   20.8083  -19.3422  -15.3830 C   0  0  0  0  0  0  0  0  0  0  0  0
   24.7600  -21.1094  -13.2764 C   0  0  0  0  0  0  0  0  0  0  0  0
   24.3629  -22.0571  -12.5138 O   0  0  0  0  0  0  0  0  0  0  0  0
   26.0894  -20.6937  -13.0915 N   0  0  0  0  0  0  0  0  0  0  0  0
   26.9841  -21.3016  -12.0759 C   0  0  1  0  0  0  0  0  0  0  0  0
   28.3547  -21.1367  -12.6480 C   0  0  0  0  0  0  0  0  0  0  0  0
   29.4792  -21.4467  -11.7559 C   0  0  0  0  0  0  0  0  0  0  0  0
   29.4080  -21.8633  -10.4462 C   0  0  0  0  0  0  0  0  0  0  0  0
   30.6562  -22.0207   -9.9376 N   0  0  0  0  0  0  0  0  0  0  0  0
   31.5039  -21.7024  -10.9272 C   0  0  0  0  0  0  0  0  0  0  0  0
   30.8084  -21.3570  -12.0210 N   0  0  0  0  0  0  0  0  0  0  0  0
   26.7057  -20.5853  -10.8273 C   0  0  0  0  0  0  0  0  0  0  0  0
   26.1466  -19.4360  -10.8494 O   0  0  0  0  0  0  0  0  0  0  0  0
   23.7090  -20.2389   -5.9316 C   0  0  0  0  0  0  0  0  0  0  0  0
   25.0566  -19.7978   -6.5147 C   0  0  0  0  0  0  0  0  0  0  0  0
   25.4356  -20.6521   -7.6895 C   0  0  2  0  0  0  0  0  0  0  0  0
   25.5001  -22.0851   -7.2365 C   0  0  0  0  0  0  0  0  0  0  0  0
   26.7571  -20.2738   -8.3188 C   0  0  2  0  0  0  0  0  0  0  0  0
   27.0131  -21.0803   -9.5075 N   0  0  0  0  0  0  0  0  0  0  0  0
   27.8811  -20.2236   -7.3803 C   0  0  0  0  0  0  0  0  0  0  0  0
   28.0929  -19.2448   -6.4409 O   0  0  0  0  0  0  0  0  0  0  0  0
   28.7450  -21.1474   -7.4191 O   0  0  0  0  0  0  0  0  0  0  0  0
  2  1  1  6
  3  2  1  0
  4  3  1  0
  5  4  2  0
  6  7  1  0
  6  5  1  0
  7 12  2  0
  8  9  2  0
  8  7  1  0
  9 10  1  0
 10 11  2  0
 12 11  1  0
 12  4  1  0
 13  2  1  0
 13 14  2  0
 15 13  1  0
 16 15  1  0
 16 17  1  6
 18 17  1  0
 19 18  2  0
 20 21  1  0
 20 19  1  0
 21 22  2  0
 22 18  1  0
 23 16  1  0
 24 23  2  0
 26 25  1  0
 27 26  1  0
 27 28  1  1
 29 27  1  0
 29 30  1  6
 30 23  1  0
 31 29  1  0
 32 31  1  0
 33 31  2  0
M  END
$$$$
