WHI.pdb
     RDKit          3D

 33 35  0  0  1  0  0  0  0  0999 V2000
   22.1617  -21.8889  -16.5919 N   0  0  0  0  0  0  0  0  0  0  0  0
   22.4344  -20.8200  -15.6843 C   0  0  1  0  0  0  0  0  0  0  0  0
   21.3739  -20.7212  -14.6398 C   0  0  0  0  0  0  0  0  0  0  0  0
   20.1773  -20.0695  -15.1869 C   0  0  0  0  0  0  0  0  0  0  0  0
   19.0758  -20.7393  -15.7413 C   0  0  0  0  0  0  0  0  0  0  0  0
   18.1568  -19.8535  -16.1053 N   0  0  0  0  0  0  0  0  0  0  0  0
   18.5996  -18.6168  -15.8175 C   0  0  0  0  0  0  0  0  0  0  0  0
   18.0059  -17.3713  -16.0145 C   0  0  0  0  0  0  0  0  0  0  0  0
   18.6971  -16.2475  -15.6285 C   0  0  0  0  0  0  0  0  0  0  0  0
   19.9478  -16.3465  -15.0605 C   0  0  0  0  0  0  0  0  0  0  0  0
   20.5439  -17.5941  -14.8621 C   0  0  0  0  0  0  0  0  0  0  0  0
   19.8420  -18.7226  -15.2517 C   0  0  0  0  0  0  0  0  0  0  0  0
   23.7899  -21.0304  -15.0990 C   0  0  0  0  0  0  0  0  0  0  0  0
   24.1660  -22.1992  -14.7389 O   0  0  0  0  0  0  0  0  0  0  0  0
   24.7263  -20.0011  -14.9047 N   0  0  0  0  0  0  0  0  0  0  0  0
   26.0797  -20.2451  -14.3474 C   0  0  1  0  0  0  0  0  0  0  0  0
   26.9773  -19.3791  -15.1704 C   0  0  0  0  0  0  0  0  0  0  0  0
   27.5108  -19.9724  -16.4032 C   0  0  0  0  0  0  0  0  0  0  0  0
   27.2728  -21.2398  -16.8838 C   0  0  0  0  0  0  0  0  0  0  0  0
   27.9629  -21.4400  -18.0350 N   0  0  0  0  0  0  0  0  0  0  0  0
   28.6302  -20.3008  -18.2716 C   0  0  0  0  0  0  0  0  0  0  0  0
   28.3660  -19.4151  -17.2994 N   0  0  0  0  0  0  0  0  0  0  0  0
   25.9825  -19.9183  -12.9214 C   0  0  0  0  0  0  0  0  0  0  0  0
   25.6061  -18.7558  -12.5463 O   0  0  0  0  0  0  0  0  0  0  0  0
   23.4615  -20.5891   -7.9299 C   0  0  0  0  0  0  0  0  0  0  0  0
   24.9469  -20.7094   -8.2897 C   0  0  0  0  0  0  0  0  0  0  0  0
   25.1175  -21.1411   -9.7174 C   0  0  2  0  0  0  0  0  0  0  0  0
   25.4170  -22.6151   -9.7377 C   0  0  0  0  0  0  0  0  0  0  0  0
   26.2150  -20.4046  -10.4512 C   0  0  2  0  0  0  0  0  0  0  0  0
   26.2812  -20.8313  -11.8450 N   0  0  0  0  0  0  0  0  0  0  0  0
   27.5096  -20.4093   -9.7651 C   0  0  0  0  0  0  0  0  0  0  0  0
   27.7900  -19.7643   -8.5860 O   0  0  0  0  0  0  0  0  0  0  0  0
   28.4677  -21.0535  -10.2832 O   0  0  0  0  0  0  0  0  0  0  0  0
  2  1  1  6
  3  2  1  0
  4  3  1  0
  5  4  2  0
  6  7  1  0
  6  5  1  0
  7 12  2  0
  8  9  2  0
  8  7  1  0
  9 10  1  0
 10 11  2  0
 12 11  1  0
 12  4  1  0
 13  2  1  0
 13 14  2  0
 15 13  1  0
 16 15  1  0
 16 17  1  6
 18 17  1  0
 19 18  2  0
 20 21  1  0
 20 19  1  0
 21 22  2  0
 22 18  1  0
 23 16  1  0
 24 23  2  0
 26 25  1  0
 27 26  1  0
 27 28  1  1
 29 27  1  0
 29 30  1  6
 30 23  1  0
 31 29  1  0
 32 31  1  0
 33 31  2  0
M  END
$$$$
