WHI.pdb
     RDKit          3D

 33 35  0  0  1  0  0  0  0  0999 V2000
   26.2499  -21.6760  -12.7773 N   0  0  0  0  0  0  0  0  0  0  0  0
   25.3844  -21.4692  -11.6598 C   0  0  1  0  0  0  0  0  0  0  0  0
   25.8719  -20.3475  -10.8057 C   0  0  0  0  0  0  0  0  0  0  0  0
   27.1102  -20.7312  -10.1164 C   0  0  0  0  0  0  0  0  0  0  0  0
   28.1458  -21.4913  -10.6811 C   0  0  0  0  0  0  0  0  0  0  0  0
   29.1291  -21.6234   -9.7995 N   0  0  0  0  0  0  0  0  0  0  0  0
   28.7926  -20.9826   -8.6661 C   0  0  0  0  0  0  0  0  0  0  0  0
   29.4833  -20.8415   -7.4638 C   0  0  0  0  0  0  0  0  0  0  0  0
   28.8914  -20.1294   -6.4478 C   0  0  0  0  0  0  0  0  0  0  0  0
   27.6446  -19.5678   -6.6106 C   0  0  0  0  0  0  0  0  0  0  0  0
   26.9513  -19.7080   -7.8152 C   0  0  0  0  0  0  0  0  0  0  0  0
   27.5535  -20.4253   -8.8355 C   0  0  0  0  0  0  0  0  0  0  0  0
   24.0021  -21.2360  -12.1686 C   0  0  0  0  0  0  0  0  0  0  0  0
   23.7326  -20.1920  -12.8576 O   0  0  0  0  0  0  0  0  0  0  0  0
   22.9268  -22.1114  -11.9413 N   0  0  0  0  0  0  0  0  0  0  0  0
   21.5584  -21.8475  -12.4507 C   0  0  1  0  0  0  0  0  0  0  0  0
   21.7471  -21.6365  -13.9179 C   0  0  0  0  0  0  0  0  0  0  0  0
   20.9677  -20.5527  -14.5300 C   0  0  0  0  0  0  0  0  0  0  0  0
   20.6454  -20.4126  -15.8606 C   0  0  0  0  0  0  0  0  0  0  0  0
   19.9407  -19.2689  -16.0525 N   0  0  0  0  0  0  0  0  0  0  0  0
   19.8243  -18.6967  -14.8450 C   0  0  0  0  0  0  0  0  0  0  0  0
   20.4365  -19.4583  -13.9260 N   0  0  0  0  0  0  0  0  0  0  0  0
   20.7599  -23.0116  -12.0543 C   0  0  0  0  0  0  0  0  0  0  0  0
   21.2140  -24.1954  -12.2163 O   0  0  0  0  0  0  0  0  0  0  0  0
   16.3929  -22.8044   -8.3147 C   0  0  0  0  0  0  0  0  0  0  0  0
   16.9705  -22.9603   -9.7263 C   0  0  0  0  0  0  0  0  0  0  0  0
   18.0565  -23.9966   -9.7477 C   0  0  2  0  0  0  0  0  0  0  0  0
   19.0978  -23.6177   -8.7304 C   0  0  0  0  0  0  0  0  0  0  0  0
   18.7202  -24.1580  -11.0964 C   0  0  2  0  0  0  0  0  0  0  0  0
   19.4453  -22.9462  -11.4638 N   0  0  0  0  0  0  0  0  0  0  0  0
   17.8356  -24.6644  -12.1488 C   0  0  0  0  0  0  0  0  0  0  0  0
   17.2588  -25.9102  -12.1751 O   0  0  0  0  0  0  0  0  0  0  0  0
   17.5656  -23.9105  -13.1286 O   0  0  0  0  0  0  0  0  0  0  0  0
  2  1  1  6
  3  2  1  0
  4  3  1  0
  5  4  2  0
  6  7  1  0
  6  5  1  0
  7 12  2  0
  8  9  2  0
  8  7  1  0
  9 10  1  0
 10 11  2  0
 12 11  1  0
 12  4  1  0
 13  2  1  0
 13 14  2  0
 15 13  1  0
 16 15  1  0
 16 17  1  6
 18 17  1  0
 19 18  2  0
 20 21  1  0
 20 19  1  0
 21 22  2  0
 22 18  1  0
 23 16  1  0
 24 23  2  0
 26 25  1  0
 27 26  1  0
 27 28  1  1
 29 27  1  0
 29 30  1  6
 30 23  1  0
 31 29  1  0
 32 31  1  0
 33 31  2  0
M  END
$$$$
