WHI.pdb
     RDKit          3D

 33 35  0  0  1  0  0  0  0  0999 V2000
   15.8841  -26.9655  -10.8084 N   0  0  0  0  0  0  0  0  0  0  0  0
   15.5123  -26.5843   -9.4829 C   0  0  1  0  0  0  0  0  0  0  0  0
   14.1247  -26.0375   -9.4527 C   0  0  0  0  0  0  0  0  0  0  0  0
   14.1444  -24.6135   -9.0951 C   0  0  0  0  0  0  0  0  0  0  0  0
   14.2267  -23.5528  -10.0101 C   0  0  0  0  0  0  0  0  0  0  0  0
   14.1849  -22.3992   -9.3551 N   0  0  0  0  0  0  0  0  0  0  0  0
   14.0789  -22.6453   -8.0373 C   0  0  0  0  0  0  0  0  0  0  0  0
   14.0076  -21.7718   -6.9536 C   0  0  0  0  0  0  0  0  0  0  0  0
   13.9113  -22.3028   -5.6893 C   0  0  0  0  0  0  0  0  0  0  0  0
   13.8862  -23.6659   -5.4944 C   0  0  0  0  0  0  0  0  0  0  0  0
   13.9571  -24.5425   -6.5796 C   0  0  0  0  0  0  0  0  0  0  0  0
   14.0526  -24.0016   -7.8510 C   0  0  0  0  0  0  0  0  0  0  0  0
   15.6768  -27.7652   -8.5871 C   0  0  0  0  0  0  0  0  0  0  0  0
   15.2805  -28.9228   -8.9616 O   0  0  0  0  0  0  0  0  0  0  0  0
   16.2586  -27.7031   -7.3097 N   0  0  0  0  0  0  0  0  0  0  0  0
   16.3952  -28.8929   -6.4337 C   0  0  1  0  0  0  0  0  0  0  0  0
   17.2350  -29.8396   -7.2284 C   0  0  0  0  0  0  0  0  0  0  0  0
   17.6820  -31.0567   -6.5389 C   0  0  0  0  0  0  0  0  0  0  0  0
   17.5386  -31.3526   -5.2026 C   0  0  0  0  0  0  0  0  0  0  0  0
   18.1035  -32.5553   -4.9273 N   0  0  0  0  0  0  0  0  0  0  0  0
   18.5987  -33.0083   -6.0887 C   0  0  0  0  0  0  0  0  0  0  0  0
   18.3512  -32.1173   -7.0606 N   0  0  0  0  0  0  0  0  0  0  0  0
   16.9756  -28.3955   -5.1825 C   0  0  0  0  0  0  0  0  0  0  0  0
   17.9590  -27.5791   -5.2029 O   0  0  0  0  0  0  0  0  0  0  0  0
   15.5936  -26.1722    0.2491 C   0  0  0  0  0  0  0  0  0  0  0  0
   16.6466  -26.9975   -0.4995 C   0  0  0  0  0  0  0  0  0  0  0  0
   16.1225  -27.4503   -1.8315 C   0  0  2  0  0  0  0  0  0  0  0  0
   14.9338  -28.3422   -1.5984 C   0  0  0  0  0  0  0  0  0  0  0  0
   17.1398  -28.1928   -2.6678 C   0  0  2  0  0  0  0  0  0  0  0  0
   16.5168  -28.7530   -3.8624 N   0  0  0  0  0  0  0  0  0  0  0  0
   17.9561  -29.1505   -1.9173 C   0  0  0  0  0  0  0  0  0  0  0  0
   17.9848  -30.5077   -2.1231 O   0  0  0  0  0  0  0  0  0  0  0  0
   18.7055  -28.7162   -0.9948 O   0  0  0  0  0  0  0  0  0  0  0  0
  2  1  1  6
  3  2  1  0
  4  3  1  0
  5  4  2  0
  6  7  1  0
  6  5  1  0
  7 12  2  0
  8  9  2  0
  8  7  1  0
  9 10  1  0
 10 11  2  0
 12 11  1  0
 12  4  1  0
 13  2  1  0
 13 14  2  0
 15 13  1  0
 16 15  1  0
 16 17  1  6
 18 17  1  0
 19 18  2  0
 20 21  1  0
 20 19  1  0
 21 22  2  0
 22 18  1  0
 23 16  1  0
 24 23  2  0
 26 25  1  0
 27 26  1  0
 27 28  1  1
 29 27  1  0
 29 30  1  6
 30 23  1  0
 31 29  1  0
 32 31  1  0
 33 31  2  0
M  END
$$$$
