WHI.pdb
     RDKit          3D

 33 35  0  0  1  0  0  0  0  0999 V2000
   23.0970  -21.5995  -14.9486 N   0  0  0  0  0  0  0  0  0  0  0  0
   24.1704  -22.5340  -15.0725 C   0  0  1  0  0  0  0  0  0  0  0  0
   24.5327  -22.7460  -16.5040 C   0  0  0  0  0  0  0  0  0  0  0  0
   23.3350  -23.0615  -17.2927 C   0  0  0  0  0  0  0  0  0  0  0  0
   22.8120  -22.2620  -18.3205 C   0  0  0  0  0  0  0  0  0  0  0  0
   21.7485  -22.8572  -18.8464 N   0  0  0  0  0  0  0  0  0  0  0  0
   21.5381  -24.0234  -18.2107 C   0  0  0  0  0  0  0  0  0  0  0  0
   20.5527  -24.9919  -18.3935 C   0  0  0  0  0  0  0  0  0  0  0  0
   20.5677  -26.1030  -17.5842 C   0  0  0  0  0  0  0  0  0  0  0  0
   21.5324  -26.2582  -16.6137 C   0  0  0  0  0  0  0  0  0  0  0  0
   22.5209  -25.2885  -16.4296 C   0  0  0  0  0  0  0  0  0  0  0  0
   22.5013  -24.1722  -17.2490 C   0  0  0  0  0  0  0  0  0  0  0  0
   25.3218  -22.0423  -14.2623 C   0  0  0  0  0  0  0  0  0  0  0  0
   26.5228  -22.3090  -14.6143 O   0  0  0  0  0  0  0  0  0  0  0  0
   25.1847  -21.2756  -13.0929 N   0  0  0  0  0  0  0  0  0  0  0  0
   26.3499  -20.7881  -12.3143 C   0  0  1  0  0  0  0  0  0  0  0  0
   26.3979  -19.3228  -12.6036 C   0  0  0  0  0  0  0  0  0  0  0  0
   27.0018  -18.9265  -13.8822 C   0  0  0  0  0  0  0  0  0  0  0  0
   27.5098  -19.7595  -14.8527 C   0  0  0  0  0  0  0  0  0  0  0  0
   28.0117  -19.0285  -15.8799 N   0  0  0  0  0  0  0  0  0  0  0  0
   27.8180  -17.7427  -15.5507 C   0  0  0  0  0  0  0  0  0  0  0  0
   27.2135  -17.6710  -14.3553 N   0  0  0  0  0  0  0  0  0  0  0  0
   26.0828  -21.1723  -10.9247 C   0  0  0  0  0  0  0  0  0  0  0  0
   25.1082  -21.9496  -10.6424 O   0  0  0  0  0  0  0  0  0  0  0  0
   28.2169  -20.3665   -5.0563 C   0  0  0  0  0  0  0  0  0  0  0  0
   27.1647  -20.9413   -6.0119 C   0  0  0  0  0  0  0  0  0  0  0  0
   27.4202  -20.4910   -7.4210 C   0  0  2  0  0  0  0  0  0  0  0  0
   27.3889  -18.9874   -7.4547 C   0  0  0  0  0  0  0  0  0  0  0  0
   26.4243  -21.0276   -8.4238 C   0  0  2  0  0  0  0  0  0  0  0  0
   26.8572  -20.7394   -9.7871 N   0  0  0  0  0  0  0  0  0  0  0  0
   25.0329  -20.6587   -8.1506 C   0  0  0  0  0  0  0  0  0  0  0  0
   24.2191  -21.2510   -7.2167 O   0  0  0  0  0  0  0  0  0  0  0  0
   24.5125  -19.7189   -8.8195 O   0  0  0  0  0  0  0  0  0  0  0  0
  2  1  1  6
  3  2  1  0
  4  3  1  0
  5  4  2  0
  6  7  1  0
  6  5  1  0
  7 12  2  0
  8  9  2  0
  8  7  1  0
  9 10  1  0
 10 11  2  0
 12 11  1  0
 12  4  1  0
 13  2  1  0
 13 14  2  0
 15 13  1  0
 16 15  1  0
 16 17  1  1
 18 17  1  0
 19 18  2  0
 20 21  1  0
 20 19  1  0
 21 22  2  0
 22 18  1  0
 23 16  1  0
 24 23  2  0
 26 25  1  0
 27 26  1  0
 27 28  1  1
 29 27  1  0
 29 30  1  6
 30 23  1  0
 31 29  1  0
 32 31  1  0
 33 31  2  0
M  END
$$$$
