DVC.pdb
     RDKit          3D

 22 21  0  0  1  0  0  0  0  0999 V2000
    8.8654  -15.7138   20.3206 N   0  0  0  0  0  0  0  0  0  0  0  0
    8.7762  -16.4100   21.5841 C   0  0  1  0  0  0  0  0  0  0  0  0
    9.7003  -17.5857   21.5733 C   0  0  0  0  0  0  0  0  0  0  0  0
    9.2040  -18.5527   20.5604 C   0  0  0  0  0  0  0  0  0  0  0  0
    9.8763  -18.8512   19.5451 O   0  0  0  0  0  0  0  0  0  0  0  0
    9.0430  -15.4652   22.6922 C   0  0  0  0  0  0  0  0  0  0  0  0
   10.0984  -14.7707   22.5816 O   0  0  0  0  0  0  0  0  0  0  0  0
    7.9653  -19.1296   20.7590 O   0  0  0  0  0  0  0  0  0  0  0  0
    6.6328  -12.7913   24.2422 C   0  0  0  0  0  0  0  0  0  0  0  0
    7.3024  -13.6138   25.2928 C   0  0  1  0  0  0  0  0  0  0  0  0
    6.3342  -14.5871   25.9163 C   0  0  0  0  0  0  0  0  0  0  0  0
    8.5479  -14.2586   24.7816 C   0  0  2  0  0  0  0  0  0  0  0  0
    8.2027  -15.3142   23.8198 N   0  0  0  0  0  0  0  0  0  0  0  0
    9.2509  -14.9138   25.8967 C   0  0  0  0  0  0  0  0  0  0  0  0
    9.5130  -16.1715   25.7404 O   0  0  0  0  0  0  0  0  0  0  0  0
    9.6383  -14.2634   27.0659 N   0  0  0  0  0  0  0  0  0  0  0  0
   10.4803  -15.0129   28.0058 C   0  0  1  0  0  0  0  0  0  0  0  0
   10.7910  -14.0227   29.1341 C   0  0  0  0  0  0  0  0  0  0  0  0
   11.6791  -14.9431   30.4158 S   0  0  0  0  0  0  0  0  0  0  0  0
    9.7236  -16.1422   28.5231 C   0  0  0  0  0  0  0  0  0  0  0  0
   10.3301  -17.3668   28.7635 O   0  0  0  0  0  0  0  0  0  0  0  0
    8.5036  -16.0488   28.7681 O   0  0  0  0  0  0  0  0  0  0  0  0
  2  1  1  6
  3  2  1  0
  3  4  1  0
  4  8  1  0
  5  4  2  0
  6  2  1  0
  6  7  2  0
 10  9  1  6
 10 12  1  0
 11 10  1  0
 12 14  1  0
 12 13  1  6
 13  6  1  0
 14 15  2  0
 16 14  1  0
 16 17  1  0
 17 20  1  0
 18 19  1  0
 17 18  1  1
 20 22  2  0
 20 21  1  0
M  END
$$$$
