DVC.pdb
     RDKit          3D

 22 21  0  0  1  0  0  0  0  0999 V2000
    9.6505  -15.8681   20.2141 N   0  0  0  0  0  0  0  0  0  0  0  0
    9.2997  -16.5969   21.4119 C   0  0  1  0  0  0  0  0  0  0  0  0
   10.1513  -17.8214   21.5195 C   0  0  0  0  0  0  0  0  0  0  0  0
    9.7205  -18.7765   20.4660 C   0  0  0  0  0  0  0  0  0  0  0  0
    8.5763  -19.2887   20.4650 O   0  0  0  0  0  0  0  0  0  0  0  0
    9.4074  -15.7031   22.5872 C   0  0  0  0  0  0  0  0  0  0  0  0
   10.4147  -14.9326   22.6025 O   0  0  0  0  0  0  0  0  0  0  0  0
   10.6187  -19.0974   19.4676 O   0  0  0  0  0  0  0  0  0  0  0  0
    7.5369  -13.5201   26.5575 C   0  0  0  0  0  0  0  0  0  0  0  0
    7.3889  -14.2062   25.2399 C   0  0  1  0  0  0  0  0  0  0  0  0
    6.6471  -13.3358   24.2573 C   0  0  0  0  0  0  0  0  0  0  0  0
    8.6984  -14.7035   24.7237 C   0  0  2  0  0  0  0  0  0  0  0  0
    8.4711  -15.6769   23.6469 N   0  0  0  0  0  0  0  0  0  0  0  0
    9.4070  -15.4173   25.7985 C   0  0  0  0  0  0  0  0  0  0  0  0
    9.4986  -16.7010   25.6616 O   0  0  0  0  0  0  0  0  0  0  0  0
    9.9684  -14.7954   26.9112 N   0  0  0  0  0  0  0  0  0  0  0  0
   10.9466  -15.5641   27.6900 C   0  0  1  0  0  0  0  0  0  0  0  0
   11.5473  -14.5554   28.6758 C   0  0  0  0  0  0  0  0  0  0  0  0
   10.1661  -13.6295   29.3923 S   0  0  0  0  0  0  0  0  0  0  0  0
   10.2534  -16.6197   28.4117 C   0  0  0  0  0  0  0  0  0  0  0  0
    8.8778  -16.7750   28.3159 O   0  0  0  0  0  0  0  0  0  0  0  0
   10.8713  -17.4213   29.1414 O   0  0  0  0  0  0  0  0  0  0  0  0
  2  1  1  6
  3  2  1  0
  3  4  1  0
  4  8  1  0
  5  4  2  0
  6  2  1  0
  6  7  2  0
 10  9  1  1
 10 12  1  0
 11 10  1  0
 12 14  1  0
 12 13  1  6
 13  6  1  0
 14 15  2  0
 16 14  1  0
 16 17  1  0
 17 20  1  0
 18 19  1  0
 17 18  1  1
 20 22  2  0
 20 21  1  0
M  END
$$$$
