DVC.pdb
     RDKit          3D

 22 21  0  0  1  0  0  0  0  0999 V2000
    8.7197  -17.6961   15.8227 N   0  0  0  0  0  0  0  0  0  0  0  0
    7.8937  -17.5689   17.0019 C   0  0  1  0  0  0  0  0  0  0  0  0
    7.6236  -18.9249   17.5717 C   0  0  0  0  0  0  0  0  0  0  0  0
    6.8356  -19.6951   16.5750 C   0  0  0  0  0  0  0  0  0  0  0  0
    5.8634  -19.1893   15.9663 O   0  0  0  0  0  0  0  0  0  0  0  0
    8.5390  -16.6470   17.9639 C   0  0  0  0  0  0  0  0  0  0  0  0
    9.7818  -16.8225   18.1458 O   0  0  0  0  0  0  0  0  0  0  0  0
    7.1987  -21.0036   16.3246 O   0  0  0  0  0  0  0  0  0  0  0  0
    6.5058  -14.0716   20.6196 C   0  0  0  0  0  0  0  0  0  0  0  0
    7.8152  -13.6390   20.0478 C   0  0  1  0  0  0  0  0  0  0  0  0
    8.5459  -12.7263   20.9998 C   0  0  0  0  0  0  0  0  0  0  0  0
    8.6328  -14.8022   19.5932 C   0  0  2  0  0  0  0  0  0  0  0  0
    7.8526  -15.6229   18.6571 N   0  0  0  0  0  0  0  0  0  0  0  0
    8.9470  -15.6588   20.7484 C   0  0  0  0  0  0  0  0  0  0  0  0
    8.3601  -16.8120   20.7750 O   0  0  0  0  0  0  0  0  0  0  0  0
    9.8203  -15.2999   21.7724 N   0  0  0  0  0  0  0  0  0  0  0  0
   10.1600  -16.3313   22.7600 C   0  0  1  0  0  0  0  0  0  0  0  0
   10.9824  -17.3661   21.9836 C   0  0  0  0  0  0  0  0  0  0  0  0
   11.5652  -18.5883   23.1858 S   0  0  0  0  0  0  0  0  0  0  0  0
   10.9686  -15.7331   23.8107 C   0  0  0  0  0  0  0  0  0  0  0  0
   10.9327  -16.2161   25.1110 O   0  0  0  0  0  0  0  0  0  0  0  0
   11.7217  -14.7656   23.5792 O   0  0  0  0  0  0  0  0  0  0  0  0
  2  1  1  6
  3  2  1  0
  3  4  1  0
  4  8  1  0
  5  4  2  0
  6  2  1  0
  6  7  2  0
 10  9  1  1
 10 12  1  0
 11 10  1  0
 12 14  1  0
 12 13  1  6
 13  6  1  0
 14 15  2  0
 16 14  1  0
 16 17  1  0
 17 20  1  0
 18 19  1  0
 17 18  1  6
 20 22  2  0
 20 21  1  0
M  END
$$$$
