DVC.pdb
     RDKit          3D

 22 21  0  0  1  0  0  0  0  0999 V2000
   11.6020  -16.7831   19.3551 N   0  0  0  0  0  0  0  0  0  0  0  0
   11.1653  -17.3746   20.5995 C   0  0  1  0  0  0  0  0  0  0  0  0
   12.2371  -18.2726   21.1294 C   0  0  0  0  0  0  0  0  0  0  0  0
   12.3278  -19.4579   20.2382 C   0  0  0  0  0  0  0  0  0  0  0  0
   11.3696  -20.2537   20.0958 O   0  0  0  0  0  0  0  0  0  0  0  0
   10.7739  -16.3067   21.5473 C   0  0  0  0  0  0  0  0  0  0  0  0
   11.5781  -15.3303   21.6392 O   0  0  0  0  0  0  0  0  0  0  0  0
   13.5083  -19.6734   19.5550 O   0  0  0  0  0  0  0  0  0  0  0  0
    7.3720  -14.3972   21.6717 C   0  0  0  0  0  0  0  0  0  0  0  0
    7.7917  -14.8688   23.0245 C   0  0  1  0  0  0  0  0  0  0  0  0
    6.9557  -16.0412   23.4718 C   0  0  0  0  0  0  0  0  0  0  0  0
    9.2607  -15.1259   23.0907 C   0  0  2  0  0  0  0  0  0  0  0  0
    9.5896  -16.3326   22.3199 N   0  0  0  0  0  0  0  0  0  0  0  0
    9.6463  -15.3950   24.4856 C   0  0  0  0  0  0  0  0  0  0  0  0
    9.9325  -16.6254   24.7670 O   0  0  0  0  0  0  0  0  0  0  0  0
    9.7208  -14.4200   25.4775 N   0  0  0  0  0  0  0  0  0  0  0  0
   10.1557  -14.8491   26.8121 C   0  0  1  0  0  0  0  0  0  0  0  0
   10.0854  -13.5848   27.6761 C   0  0  0  0  0  0  0  0  0  0  0  0
   10.6348  -14.0488   29.3379 S   0  0  0  0  0  0  0  0  0  0  0  0
    9.2284  -15.8517   27.3129 C   0  0  0  0  0  0  0  0  0  0  0  0
    9.6715  -16.9342   28.0593 O   0  0  0  0  0  0  0  0  0  0  0  0
    8.0035  -15.7729   27.0885 O   0  0  0  0  0  0  0  0  0  0  0  0
  2  1  1  6
  3  2  1  0
  3  4  1  0
  4  8  1  0
  5  4  2  0
  6  2  1  0
  6  7  2  0
 10  9  1  6
 10 12  1  0
 11 10  1  0
 12 14  1  0
 12 13  1  6
 13  6  1  0
 14 15  2  0
 16 14  1  0
 16 17  1  0
 17 20  1  0
 18 19  1  0
 17 18  1  1
 20 22  2  0
 20 21  1  0
M  END
$$$$
