DVC.pdb
     RDKit          3D

 22 21  0  0  1  0  0  0  0  0999 V2000
   10.9985  -17.3364   19.2109 N   0  0  0  0  0  0  0  0  0  0  0  0
   10.5553  -17.7760   20.5145 C   0  0  1  0  0  0  0  0  0  0  0  0
   11.5192  -18.7824   21.0570 C   0  0  0  0  0  0  0  0  0  0  0  0
   11.1657  -20.1104   20.4924 C   0  0  0  0  0  0  0  0  0  0  0  0
   11.7460  -20.5763   19.4835 O   0  0  0  0  0  0  0  0  0  0  0  0
   10.3727  -16.6032   21.3993 C   0  0  0  0  0  0  0  0  0  0  0  0
   11.2532  -15.6958   21.2994 O   0  0  0  0  0  0  0  0  0  0  0  0
   10.1676  -20.8384   21.1093 O   0  0  0  0  0  0  0  0  0  0  0  0
    7.3209  -14.2592   21.6202 C   0  0  0  0  0  0  0  0  0  0  0  0
    7.7347  -14.7358   22.9731 C   0  0  1  0  0  0  0  0  0  0  0  0
    6.7813  -15.7818   23.4929 C   0  0  0  0  0  0  0  0  0  0  0  0
    9.1631  -15.1691   22.9951 C   0  0  2  0  0  0  0  0  0  0  0  0
    9.3010  -16.4622   22.3113 N   0  0  0  0  0  0  0  0  0  0  0  0
    9.5877  -15.3785   24.3889 C   0  0  0  0  0  0  0  0  0  0  0  0
    9.6848  -16.6107   24.7726 O   0  0  0  0  0  0  0  0  0  0  0  0
    9.8853  -14.3485   25.2781 N   0  0  0  0  0  0  0  0  0  0  0  0
   10.2123  -14.7244   26.6587 C   0  0  1  0  0  0  0  0  0  0  0  0
    9.9578  -13.4577   27.4838 C   0  0  0  0  0  0  0  0  0  0  0  0
   10.3535  -13.8593   29.2046 S   0  0  0  0  0  0  0  0  0  0  0  0
    9.3176  -15.7892   27.0844 C   0  0  0  0  0  0  0  0  0  0  0  0
    7.9631  -15.7553   26.7849 O   0  0  0  0  0  0  0  0  0  0  0  0
    9.7369  -16.7691   27.7331 O   0  0  0  0  0  0  0  0  0  0  0  0
  2  1  1  6
  3  2  1  0
  3  4  1  0
  4  8  1  0
  5  4  2  0
  6  2  1  0
  6  7  2  0
 10  9  1  6
 10 12  1  0
 11 10  1  0
 12 14  1  0
 12 13  1  6
 13  6  1  0
 14 15  2  0
 16 14  1  0
 16 17  1  0
 17 20  1  0
 18 19  1  0
 17 18  1  1
 20 22  2  0
 20 21  1  0
M  END
$$$$
