DVC.pdb
     RDKit          3D

 22 21  0  0  1  0  0  0  0  0999 V2000
   11.7880  -17.0605   19.5987 N   0  0  0  0  0  0  0  0  0  0  0  0
   11.3341  -17.5399   20.8845 C   0  0  1  0  0  0  0  0  0  0  0  0
   12.4182  -18.3429   21.5296 C   0  0  0  0  0  0  0  0  0  0  0  0
   12.6859  -19.5276   20.6738 C   0  0  0  0  0  0  0  0  0  0  0  0
   13.7993  -19.7112   20.1275 O   0  0  0  0  0  0  0  0  0  0  0  0
   10.8812  -16.3973   21.7096 C   0  0  0  0  0  0  0  0  0  0  0  0
   11.6513  -15.3897   21.7249 O   0  0  0  0  0  0  0  0  0  0  0  0
   11.6684  -20.4419   20.4861 O   0  0  0  0  0  0  0  0  0  0  0  0
    7.4252  -14.4737   21.7532 C   0  0  0  0  0  0  0  0  0  0  0  0
    7.8623  -14.9210   23.1088 C   0  0  1  0  0  0  0  0  0  0  0  0
    7.0501  -16.1021   23.5764 C   0  0  0  0  0  0  0  0  0  0  0  0
    9.3360  -15.1514   23.1680 C   0  0  2  0  0  0  0  0  0  0  0  0
    9.6755  -16.3867   22.4488 N   0  0  0  0  0  0  0  0  0  0  0  0
    9.7427  -15.3502   24.5687 C   0  0  0  0  0  0  0  0  0  0  0  0
   10.0477  -16.5626   24.9035 O   0  0  0  0  0  0  0  0  0  0  0  0
    9.8177  -14.3289   25.5128 N   0  0  0  0  0  0  0  0  0  0  0  0
   10.2426  -14.6957   26.8690 C   0  0  1  0  0  0  0  0  0  0  0  0
   10.0054  -13.4371   27.7113 C   0  0  0  0  0  0  0  0  0  0  0  0
   10.5829  -13.8060   29.3874 S   0  0  0  0  0  0  0  0  0  0  0  0
    9.4074  -15.7857   27.3486 C   0  0  0  0  0  0  0  0  0  0  0  0
    8.0378  -15.7957   27.1265 O   0  0  0  0  0  0  0  0  0  0  0  0
    9.8935  -16.7485   27.9760 O   0  0  0  0  0  0  0  0  0  0  0  0
  2  1  1  6
  3  2  1  0
  3  4  1  0
  4  8  1  0
  5  4  2  0
  6  2  1  0
  6  7  2  0
 10  9  1  6
 10 12  1  0
 11 10  1  0
 12 14  1  0
 12 13  1  6
 13  6  1  0
 14 15  2  0
 16 14  1  0
 16 17  1  0
 17 20  1  0
 18 19  1  0
 17 18  1  1
 20 22  2  0
 20 21  1  0
M  END
$$$$
