DVC.pdb
     RDKit          3D

 22 21  0  0  1  0  0  0  0  0999 V2000
    9.8299  -17.8245   16.9842 N   0  0  0  0  0  0  0  0  0  0  0  0
    8.9513  -18.0013   18.1181 C   0  0  1  0  0  0  0  0  0  0  0  0
    9.1145  -19.3831   18.6663 C   0  0  0  0  0  0  0  0  0  0  0  0
    8.5841  -20.3424   17.6634 C   0  0  0  0  0  0  0  0  0  0  0  0
    9.0899  -21.4782   17.5019 O   0  0  0  0  0  0  0  0  0  0  0  0
    9.2097  -16.9402   19.1176 C   0  0  0  0  0  0  0  0  0  0  0  0
   10.4290  -16.7350   19.4000 O   0  0  0  0  0  0  0  0  0  0  0  0
    7.5029  -19.9555   16.8965 O   0  0  0  0  0  0  0  0  0  0  0  0
    7.7643  -13.2513   22.0415 C   0  0  0  0  0  0  0  0  0  0  0  0
    7.5009  -14.1596   20.8865 C   0  0  1  0  0  0  0  0  0  0  0  0
    7.1509  -13.3729   19.6487 C   0  0  0  0  0  0  0  0  0  0  0  0
    8.6160  -15.1302   20.6790 C   0  0  2  0  0  0  0  0  0  0  0  0
    8.1936  -16.1800   19.7420 N   0  0  0  0  0  0  0  0  0  0  0  0
    8.9246  -15.7982   21.9539 C   0  0  0  0  0  0  0  0  0  0  0  0
    8.0548  -16.6639   22.3650 O   0  0  0  0  0  0  0  0  0  0  0  0
   10.0713  -15.5545   22.7060 N   0  0  0  0  0  0  0  0  0  0  0  0
   10.2587  -16.3502   23.9250 C   0  0  1  0  0  0  0  0  0  0  0  0
   11.7241  -16.7982   23.8832 C   0  0  0  0  0  0  0  0  0  0  0  0
   12.7232  -15.3134   23.6074 S   0  0  0  0  0  0  0  0  0  0  0  0
   10.0255  -15.5031   25.0842 C   0  0  0  0  0  0  0  0  0  0  0  0
    9.6753  -14.1679   24.9424 O   0  0  0  0  0  0  0  0  0  0  0  0
   10.1323  -15.9475   26.2452 O   0  0  0  0  0  0  0  0  0  0  0  0
  2  1  1  6
  3  2  1  0
  3  4  1  0
  4  8  1  0
  5  4  2  0
  6  2  1  0
  6  7  2  0
 10  9  1  1
 10 12  1  0
 11 10  1  0
 12 14  1  0
 12 13  1  6
 13  6  1  0
 14 15  2  0
 16 14  1  0
 16 17  1  0
 17 20  1  0
 18 19  1  0
 17 18  1  1
 20 22  2  0
 20 21  1  0
M  END
$$$$
