DVC.pdb
     RDKit          3D

 22 21  0  0  1  0  0  0  0  0999 V2000
   10.5210  -17.4099   17.2052 N   0  0  0  0  0  0  0  0  0  0  0  0
    9.4077  -17.5797   18.1112 C   0  0  1  0  0  0  0  0  0  0  0  0
    9.3649  -18.9954   18.5908 C   0  0  0  0  0  0  0  0  0  0  0  0
    9.0626  -19.8676   17.4266 C   0  0  0  0  0  0  0  0  0  0  0  0
    7.9473  -19.8447   16.8545 O   0  0  0  0  0  0  0  0  0  0  0  0
    9.5052  -16.5917   19.2094 C   0  0  0  0  0  0  0  0  0  0  0  0
   10.6687  -16.4014   19.6771 O   0  0  0  0  0  0  0  0  0  0  0  0
   10.0498  -20.7211   16.9753 O   0  0  0  0  0  0  0  0  0  0  0  0
    7.8470  -13.0106   19.4687 C   0  0  0  0  0  0  0  0  0  0  0  0
    7.6896  -13.7918   20.7311 C   0  0  1  0  0  0  0  0  0  0  0  0
    6.2575  -14.2211   20.9263 C   0  0  0  0  0  0  0  0  0  0  0  0
    8.6647  -14.9193   20.8105 C   0  0  2  0  0  0  0  0  0  0  0  0
    8.3993  -15.8830   19.7338 N   0  0  0  0  0  0  0  0  0  0  0  0
    8.4758  -15.6390   22.0805 C   0  0  0  0  0  0  0  0  0  0  0  0
    7.7188  -16.6876   22.0304 O   0  0  0  0  0  0  0  0  0  0  0  0
    9.0590  -15.2603   23.2874 N   0  0  0  0  0  0  0  0  0  0  0  0
    8.7249  -16.0549   24.4753 C   0  0  1  0  0  0  0  0  0  0  0  0
    9.7979  -15.6919   25.5082 C   0  0  0  0  0  0  0  0  0  0  0  0
   11.3976  -16.1424   24.7894 S   0  0  0  0  0  0  0  0  0  0  0  0
    7.4106  -15.6586   24.9561 C   0  0  0  0  0  0  0  0  0  0  0  0
    6.7426  -16.3990   25.9209 O   0  0  0  0  0  0  0  0  0  0  0  0
    6.8389  -14.6398   24.5177 O   0  0  0  0  0  0  0  0  0  0  0  0
  2  1  1  6
  3  2  1  0
  3  4  1  0
  4  8  1  0
  5  4  2  0
  6  2  1  0
  6  7  2  0
 10  9  1  6
 10 12  1  0
 11 10  1  0
 12 14  1  0
 12 13  1  6
 13  6  1  0
 14 15  2  0
 16 14  1  0
 16 17  1  0
 17 20  1  0
 18 19  1  0
 17 18  1  1
 20 22  2  0
 20 21  1  0
M  END
$$$$
