DVC.pdb
     RDKit          3D

 22 21  0  0  1  0  0  0  0  0999 V2000
   11.2707  -18.4301   21.3033 N   0  0  0  0  0  0  0  0  0  0  0  0
   12.1852  -17.4140   21.7727 C   0  0  1  0  0  0  0  0  0  0  0  0
   12.8208  -16.7343   20.6021 C   0  0  0  0  0  0  0  0  0  0  0  0
   13.7652  -17.6916   19.9702 C   0  0  0  0  0  0  0  0  0  0  0  0
   14.2859  -18.6315   20.6162 O   0  0  0  0  0  0  0  0  0  0  0  0
   11.4721  -16.4819   22.6752 C   0  0  0  0  0  0  0  0  0  0  0  0
   12.1249  -15.4554   23.0338 O   0  0  0  0  0  0  0  0  0  0  0  0
   14.0663  -17.5264   18.6328 O   0  0  0  0  0  0  0  0  0  0  0  0
    7.4749  -14.9241   25.0796 C   0  0  0  0  0  0  0  0  0  0  0  0
    8.1003  -15.6899   23.9610 C   0  0  1  0  0  0  0  0  0  0  0  0
    7.5709  -15.2278   22.6270 C   0  0  0  0  0  0  0  0  0  0  0  0
    9.5906  -15.6778   24.0462 C   0  0  2  0  0  0  0  0  0  0  0  0
   10.1491  -16.6836   23.1325 N   0  0  0  0  0  0  0  0  0  0  0  0
   10.0045  -16.0626   25.4054 C   0  0  0  0  0  0  0  0  0  0  0  0
   10.4423  -17.2728   25.5430 O   0  0  0  0  0  0  0  0  0  0  0  0
    9.9546  -15.2123   26.5075 N   0  0  0  0  0  0  0  0  0  0  0  0
   10.6816  -15.6287   27.7126 C   0  0  1  0  0  0  0  0  0  0  0  0
   10.6246  -14.4152   28.6475 C   0  0  0  0  0  0  0  0  0  0  0  0
   10.5447  -12.9421   27.5976 S   0  0  0  0  0  0  0  0  0  0  0  0
    9.9925  -16.7593   28.3147 C   0  0  0  0  0  0  0  0  0  0  0  0
   10.5050  -17.4044   29.4311 O   0  0  0  0  0  0  0  0  0  0  0  0
    8.9174  -17.1878   27.8482 O   0  0  0  0  0  0  0  0  0  0  0  0
  2  1  1  6
  3  2  1  0
  3  4  1  0
  4  8  1  0
  5  4  2  0
  6  2  1  0
  6  7  2  0
 10  9  1  1
 10 12  1  0
 11 10  1  0
 12 14  1  0
 12 13  1  6
 13  6  1  0
 14 15  2  0
 16 14  1  0
 16 17  1  0
 17 20  1  0
 18 19  1  0
 17 18  1  1
 20 22  2  0
 20 21  1  0
M  END
$$$$
