DVC.pdb
     RDKit          3D

 22 21  0  0  1  0  0  0  0  0999 V2000
    9.3679  -17.8715   17.1425 N   0  0  0  0  0  0  0  0  0  0  0  0
    8.4538  -17.9271   18.2607 C   0  0  1  0  0  0  0  0  0  0  0  0
    8.4297  -19.3146   18.8181 C   0  0  0  0  0  0  0  0  0  0  0  0
    7.9749  -20.2350   17.7442 C   0  0  0  0  0  0  0  0  0  0  0  0
    7.0094  -19.9529   16.9958 O   0  0  0  0  0  0  0  0  0  0  0  0
    8.8273  -16.9006   19.2599 C   0  0  0  0  0  0  0  0  0  0  0  0
    9.9995  -16.9954   19.7348 O   0  0  0  0  0  0  0  0  0  0  0  0
    8.6462  -21.4304   17.5799 O   0  0  0  0  0  0  0  0  0  0  0  0
    7.9931  -12.7797   21.8247 C   0  0  0  0  0  0  0  0  0  0  0  0
    7.6320  -13.6857   20.6945 C   0  0  1  0  0  0  0  0  0  0  0  0
    7.6004  -12.9341   19.3878 C   0  0  0  0  0  0  0  0  0  0  0  0
    8.4973  -14.9017   20.6606 C   0  0  2  0  0  0  0  0  0  0  0  0
    7.9650  -15.8638   19.6862 N   0  0  0  0  0  0  0  0  0  0  0  0
    8.4597  -15.5638   21.9748 C   0  0  0  0  0  0  0  0  0  0  0  0
    7.5433  -16.4644   22.1295 O   0  0  0  0  0  0  0  0  0  0  0  0
    9.3379  -15.2798   23.0180 N   0  0  0  0  0  0  0  0  0  0  0  0
    9.5345  -16.3201   24.0346 C   0  0  1  0  0  0  0  0  0  0  0  0
   10.2315  -17.4681   23.2955 C   0  0  0  0  0  0  0  0  0  0  0  0
   10.7376  -18.6735   24.5484 S   0  0  0  0  0  0  0  0  0  0  0  0
   10.3981  -15.8004   25.0833 C   0  0  0  0  0  0  0  0  0  0  0  0
   11.1316  -14.6365   24.9022 O   0  0  0  0  0  0  0  0  0  0  0  0
   10.5092  -16.3830   26.1811 O   0  0  0  0  0  0  0  0  0  0  0  0
  2  1  1  6
  3  2  1  0
  3  4  1  0
  4  8  1  0
  5  4  2  0
  6  2  1  0
  6  7  2  0
 10  9  1  1
 10 12  1  0
 11 10  1  0
 12 14  1  0
 12 13  1  6
 13  6  1  0
 14 15  2  0
 16 14  1  0
 16 17  1  0
 17 20  1  0
 18 19  1  0
 17 18  1  6
 20 22  2  0
 20 21  1  0
M  END
$$$$
