DVC.pdb
     RDKit          3D

 22 21  0  0  1  0  0  0  0  0999 V2000
    7.7004  -14.5906   20.7557 N   0  0  0  0  0  0  0  0  0  0  0  0
    7.4791  -15.3348   21.9748 C   0  0  1  0  0  0  0  0  0  0  0  0
    7.9367  -16.7463   21.7888 C   0  0  0  0  0  0  0  0  0  0  0  0
    7.0749  -17.3781   20.7566 C   0  0  0  0  0  0  0  0  0  0  0  0
    5.9215  -17.7926   21.0207 O   0  0  0  0  0  0  0  0  0  0  0  0
    8.1441  -14.6473   23.1048 C   0  0  0  0  0  0  0  0  0  0  0  0
    9.3494  -14.3050   22.9084 O   0  0  0  0  0  0  0  0  0  0  0  0
    7.5744  -17.5039   19.4754 O   0  0  0  0  0  0  0  0  0  0  0  0
    7.1312  -11.5805   25.4182 C   0  0  0  0  0  0  0  0  0  0  0  0
    7.4901  -12.8061   26.1912 C   0  0  1  0  0  0  0  0  0  0  0  0
    6.2617  -13.4550   26.7773 C   0  0  0  0  0  0  0  0  0  0  0  0
    8.3312  -13.7417   25.3876 C   0  0  2  0  0  0  0  0  0  0  0  0
    7.5143  -14.3698   24.3403 N   0  0  0  0  0  0  0  0  0  0  0  0
    8.8177  -14.8272   26.2547 C   0  0  0  0  0  0  0  0  0  0  0  0
    8.0049  -15.8188   26.4313 O   0  0  0  0  0  0  0  0  0  0  0  0
   10.0697  -14.8379   26.8650 N   0  0  0  0  0  0  0  0  0  0  0  0
   10.4509  -16.0509   27.5983 C   0  0  1  0  0  0  0  0  0  0  0  0
   11.9398  -16.2469   27.2909 C   0  0  0  0  0  0  0  0  0  0  0  0
   12.4400  -14.8846   26.2079 S   0  0  0  0  0  0  0  0  0  0  0  0
   10.2577  -15.8241   29.0220 C   0  0  0  0  0  0  0  0  0  0  0  0
   10.4632  -16.8373   29.9476 O   0  0  0  0  0  0  0  0  0  0  0  0
    9.9007  -14.7116   29.4598 O   0  0  0  0  0  0  0  0  0  0  0  0
  2  1  1  6
  3  2  1  0
  3  4  1  0
  4  8  1  0
  5  4  2  0
  6  2  1  0
  6  7  2  0
 10  9  1  6
 10 12  1  0
 11 10  1  0
 12 14  1  0
 12 13  1  6
 13  6  1  0
 14 15  2  0
 16 14  1  0
 16 17  1  0
 17 20  1  0
 18 19  1  0
 17 18  1  1
 20 22  2  0
 20 21  1  0
M  END
$$$$
