DVC.pdb
     RDKit          3D

 22 21  0  0  1  0  0  0  0  0999 V2000
   10.1884  -18.9404   18.3632 N   0  0  0  0  0  0  0  0  0  0  0  0
    9.1361  -18.4570   19.2280 C   0  0  1  0  0  0  0  0  0  0  0  0
    9.0725  -19.3034   20.4592 C   0  0  0  0  0  0  0  0  0  0  0  0
    8.6257  -20.6634   20.0611 C   0  0  0  0  0  0  0  0  0  0  0  0
    8.6276  -21.0367   18.8643 O   0  0  0  0  0  0  0  0  0  0  0  0
    9.3489  -17.0204   19.5151 C   0  0  0  0  0  0  0  0  0  0  0  0
   10.5519  -16.6709   19.7136 O   0  0  0  0  0  0  0  0  0  0  0  0
    8.1999  -21.5274   21.0505 O   0  0  0  0  0  0  0  0  0  0  0  0
    6.3450  -14.2262   20.4121 C   0  0  0  0  0  0  0  0  0  0  0  0
    7.5011  -13.7799   19.5797 C   0  0  1  0  0  0  0  0  0  0  0  0
    7.7938  -12.3174   19.8005 C   0  0  0  0  0  0  0  0  0  0  0  0
    8.6921  -14.6600   19.7679 C   0  0  2  0  0  0  0  0  0  0  0  0
    8.3080  -16.0647   19.5736 N   0  0  0  0  0  0  0  0  0  0  0  0
    9.1735  -14.5394   21.1537 C   0  0  0  0  0  0  0  0  0  0  0  0
    9.5256  -13.3521   21.5299 O   0  0  0  0  0  0  0  0  0  0  0  0
    9.2575  -15.6047   22.0471 N   0  0  0  0  0  0  0  0  0  0  0  0
    9.5072  -15.2828   23.4572 C   0  0  1  0  0  0  0  0  0  0  0  0
    8.2069  -14.6391   23.9518 C   0  0  0  0  0  0  0  0  0  0  0  0
    8.4153  -14.3191   25.7218 S   0  0  0  0  0  0  0  0  0  0  0  0
    9.7664  -16.5148   24.1856 C   0  0  0  0  0  0  0  0  0  0  0  0
    9.1215  -17.6978   23.8536 O   0  0  0  0  0  0  0  0  0  0  0  0
   10.5769  -16.5504   25.1336 O   0  0  0  0  0  0  0  0  0  0  0  0
  2  1  1  6
  3  2  1  0
  3  4  1  0
  4  8  1  0
  5  4  2  0
  6  2  1  0
  6  7  2  0
 10  9  1  1
 10 12  1  0
 11 10  1  0
 12 14  1  0
 12 13  1  1
 13  6  1  0
 14 15  2  0
 16 14  1  0
 16 17  1  0
 17 20  1  0
 18 19  1  0
 17 18  1  1
 20 22  2  0
 20 21  1  0
M  END
$$$$
