DVC.pdb
     RDKit          3D

 22 21  0  0  1  0  0  0  0  0999 V2000
    8.5005  -15.7171   20.5477 N   0  0  0  0  0  0  0  0  0  0  0  0
    8.0061  -16.2370   21.8024 C   0  0  1  0  0  0  0  0  0  0  0  0
    8.3071  -17.6991   21.8910 C   0  0  0  0  0  0  0  0  0  0  0  0
    7.3831  -18.4163   20.9747 C   0  0  0  0  0  0  0  0  0  0  0  0
    6.1428  -18.2379   21.0127 O   0  0  0  0  0  0  0  0  0  0  0  0
    8.5728  -15.4532   22.9232 C   0  0  0  0  0  0  0  0  0  0  0  0
    9.8090  -15.1834   22.8368 O   0  0  0  0  0  0  0  0  0  0  0  0
    7.9234  -19.3002   20.0617 O   0  0  0  0  0  0  0  0  0  0  0  0
    7.1188  -12.1689   24.6854 C   0  0  0  0  0  0  0  0  0  0  0  0
    7.5476  -13.2248   25.6497 C   0  0  1  0  0  0  0  0  0  0  0  0
    6.3549  -13.8983   26.2798 C   0  0  0  0  0  0  0  0  0  0  0  0
    8.5130  -14.1809   25.0314 C   0  0  2  0  0  0  0  0  0  0  0  0
    7.8213  -15.0130   24.0375 N   0  0  0  0  0  0  0  0  0  0  0  0
    9.0258  -15.0937   26.0661 C   0  0  0  0  0  0  0  0  0  0  0  0
    8.3779  -16.2043   26.2136 O   0  0  0  0  0  0  0  0  0  0  0  0
   10.1397  -14.8287   26.8592 N   0  0  0  0  0  0  0  0  0  0  0  0
   10.5000  -15.8299   27.8702 C   0  0  1  0  0  0  0  0  0  0  0  0
   12.0171  -16.0016   27.7331 C   0  0  0  0  0  0  0  0  0  0  0  0
   12.5444  -17.1199   29.0561 S   0  0  0  0  0  0  0  0  0  0  0  0
   10.1705  -15.3116   29.1887 C   0  0  0  0  0  0  0  0  0  0  0  0
    9.9363  -13.9594   29.3938 O   0  0  0  0  0  0  0  0  0  0  0  0
   10.0872  -16.0646   30.1802 O   0  0  0  0  0  0  0  0  0  0  0  0
  2  1  1  6
  3  2  1  0
  3  4  1  0
  4  8  1  0
  5  4  2  0
  6  2  1  0
  6  7  2  0
 10  9  1  6
 10 12  1  0
 11 10  1  0
 12 14  1  0
 12 13  1  6
 13  6  1  0
 14 15  2  0
 16 14  1  0
 16 17  1  0
 17 20  1  0
 18 19  1  0
 17 18  1  1
 20 22  2  0
 20 21  1  0
M  END
$$$$
