HRW.pdb
     RDKit          3D

 36 38  0  0  1  0  0  0  0  0999 V2000
    6.5449  -21.2022   22.7248 N   0  0  0  0  0  0  0  0  0  0  0  0
    6.5423  -19.9088   23.3347 C   0  0  1  0  0  0  0  0  0  0  0  0
    7.0015  -19.9304   24.7618 C   0  0  0  0  0  0  0  0  0  0  0  0
    6.1299  -20.9007   25.4920 C   0  0  0  0  0  0  0  0  0  0  0  0
    5.0937  -21.6528   24.9963 C   0  0  0  0  0  0  0  0  0  0  0  0
    4.5687  -22.4110   26.0062 N   0  0  0  0  0  0  0  0  0  0  0  0
    5.2796  -22.1238   27.1029 C   0  0  0  0  0  0  0  0  0  0  0  0
    6.2376  -21.2005   26.7977 N   0  0  0  0  0  0  0  0  0  0  0  0
    7.1408  -18.8841   22.4803 C   0  0  0  0  0  0  0  0  0  0  0  0
    8.1652  -19.1355   21.8228 O   0  0  0  0  0  0  0  0  0  0  0  0
    7.9427  -12.3951   18.2183 N   0  0  0  0  0  0  0  0  0  0  0  0
    8.0780  -13.7132   17.7223 C   0  0  0  0  0  0  0  0  0  0  0  0
    8.0207  -13.9276   16.4434 N   0  0  0  0  0  0  0  0  0  0  0  0
    8.2702  -14.7990   18.5854 N   0  0  0  0  0  0  0  0  0  0  0  0
    8.5614  -14.6920   19.9832 C   0  0  0  0  0  0  0  0  0  0  0  0
    7.3562  -14.2849   20.7988 C   0  0  0  0  0  0  0  0  0  0  0  0
    6.5359  -15.4764   21.2468 C   0  0  0  0  0  0  0  0  0  0  0  0
    7.3831  -16.4831   21.9667 C   0  0  2  0  0  0  0  0  0  0  0  0
    6.5838  -17.5815   22.3687 N   0  0  0  0  0  0  0  0  0  0  0  0
    8.2358  -15.8911   23.0283 C   0  0  0  0  0  0  0  0  0  0  0  0
    8.3626  -14.6475   23.0599 O   0  0  0  0  0  0  0  0  0  0  0  0
    8.3528  -14.8420   16.0513 N   0  0  0  0  0  0  0  0  0  0  0  0
    8.8942  -16.6929   23.9884 C   0  0  1  0  0  0  0  0  0  0  0  0
    9.8241  -16.1715   24.9658 C   0  0  0  0  0  0  0  0  0  0  0  0
    9.1480  -16.0301   26.3043 C   0  0  0  0  0  0  0  0  0  0  0  0
    8.1166  -14.9806   26.2848 C   0  0  0  0  0  0  0  0  0  0  0  0
    6.8105  -15.1019   25.9454 N   0  0  0  0  0  0  0  0  0  0  0  0
    6.2148  -13.9042   26.0684 C   0  0  0  0  0  0  0  0  0  0  0  0
    7.1573  -13.0236   26.4877 C   0  0  0  0  0  0  0  0  0  0  0  0
    7.1065  -11.6650   26.7773 C   0  0  0  0  0  0  0  0  0  0  0  0
    8.2313  -10.9819   27.1994 C   0  0  0  0  0  0  0  0  0  0  0  0
    9.4449  -11.6349   27.3445 C   0  0  0  0  0  0  0  0  0  0  0  0
    9.4690  -12.9909   27.0475 C   0  0  0  0  0  0  0  0  0  0  0  0
    8.3537  -13.6612   26.6323 C   0  0  0  0  0  0  0  0  0  0  0  0
   11.0407  -17.0441   25.0584 O   0  0  0  0  0  0  0  0  0  0  0  0
   11.1419  -18.2122   24.3266 O   0  0  0  0  0  0  0  0  0  0  0  0
  2  3  1  0
  2  1  1  6
  4  3  1  0
  5  4  2  0
  6  7  1  0
  6  5  1  0
  7  8  2  0
  8  4  1  0
  9 10  2  0
  9  2  1  0
 11 12  1  0
 12 13  2  0
 14 15  1  0
 14 12  1  0
 16 15  1  0
 16 17  1  0
 18 17  1  1
 18 20  1  0
 18 19  1  0
 19  9  1  0
 20 21  2  0
 22 20  1  0
 22 23  1  0
 23 24  1  6
 24 25  1  0
 25 33  1  0
 26 25  2  0
 26 27  1  0
 27 28  1  0
 28 29  1  0
 29 30  2  0
 31 30  1  0
 32 31  2  0
 33 28  2  0
 33 32  1  0
 34 35  1  0
 34 23  1  0
 36 34  2  0
M  END
$$$$
