HRW.pdb
     RDKit          3D

 36 38  0  0  1  0  0  0  0  0999 V2000
   11.2407  -19.3314   20.1090 N   0  0  0  0  0  0  0  0  0  0  0  0
   10.1206  -18.8117   20.8302 C   0  0  1  0  0  0  0  0  0  0  0  0
    9.5785  -19.7717   21.8463 C   0  0  0  0  0  0  0  0  0  0  0  0
    9.0484  -20.9531   21.0998 C   0  0  0  0  0  0  0  0  0  0  0  0
    9.1167  -21.2080   19.7524 C   0  0  0  0  0  0  0  0  0  0  0  0
    8.5082  -22.4050   19.4926 N   0  0  0  0  0  0  0  0  0  0  0  0
    8.0767  -22.8728   20.6696 C   0  0  0  0  0  0  0  0  0  0  0  0
    8.4031  -21.9909   21.6592 N   0  0  0  0  0  0  0  0  0  0  0  0
   10.3359  -17.4402   21.2893 C   0  0  0  0  0  0  0  0  0  0  0  0
   11.4820  -17.0416   21.5588 O   0  0  0  0  0  0  0  0  0  0  0  0
    7.4149  -15.1683   17.2344 N   0  0  0  0  0  0  0  0  0  0  0  0
    7.8903  -13.8548   17.0099 C   0  0  0  0  0  0  0  0  0  0  0  0
    8.4326  -13.5538   15.8696 N   0  0  0  0  0  0  0  0  0  0  0  0
    7.7915  -12.8668   17.9972 N   0  0  0  0  0  0  0  0  0  0  0  0
    7.5970  -13.1208   19.3928 C   0  0  0  0  0  0  0  0  0  0  0  0
    8.6264  -14.0705   19.9601 C   0  0  0  0  0  0  0  0  0  0  0  0
    8.4589  -14.2763   21.4511 C   0  0  0  0  0  0  0  0  0  0  0  0
    9.4801  -15.2343   21.9883 C   0  0  2  0  0  0  0  0  0  0  0  0
    9.2613  -16.5231   21.4427 N   0  0  0  0  0  0  0  0  0  0  0  0
    9.6244  -15.1819   23.4651 C   0  0  0  0  0  0  0  0  0  0  0  0
    9.8943  -14.0816   23.9943 O   0  0  0  0  0  0  0  0  0  0  0  0
    8.8787  -12.6141   15.7347 N   0  0  0  0  0  0  0  0  0  0  0  0
    9.4634  -16.3324   24.2706 C   0  0  1  0  0  0  0  0  0  0  0  0
    9.6996  -16.3510   25.6974 C   0  0  0  0  0  0  0  0  0  0  0  0
    8.4035  -16.5550   26.4372 C   0  0  0  0  0  0  0  0  0  0  0  0
    7.4205  -15.5097   26.1110 C   0  0  0  0  0  0  0  0  0  0  0  0
    6.2244  -15.6547   25.4911 N   0  0  0  0  0  0  0  0  0  0  0  0
    5.6353  -14.4515   25.3929 C   0  0  0  0  0  0  0  0  0  0  0  0
    6.4711  -13.5435   25.9555 C   0  0  0  0  0  0  0  0  0  0  0  0
    6.3771  -12.1680   26.1326 C   0  0  0  0  0  0  0  0  0  0  0  0
    7.3866  -11.4568   26.7531 C   0  0  0  0  0  0  0  0  0  0  0  0
    8.5248  -12.0978   27.2159 C   0  0  0  0  0  0  0  0  0  0  0  0
    8.5945  -13.4713   27.0253 C   0  0  0  0  0  0  0  0  0  0  0  0
    7.5928  -14.1692   26.4128 C   0  0  0  0  0  0  0  0  0  0  0  0
   10.7039  -17.4064   26.0548 O   0  0  0  0  0  0  0  0  0  0  0  0
   11.2188  -18.2592   25.0967 O   0  0  0  0  0  0  0  0  0  0  0  0
  2  3  1  0
  2  1  1  1
  4  3  1  0
  5  4  2  0
  6  7  1  0
  6  5  1  0
  7  8  2  0
  8  4  1  0
  9 10  2  0
  9  2  1  0
 11 12  1  0
 12 13  2  0
 14 15  1  0
 14 12  1  0
 16 15  1  0
 16 17  1  0
 18 17  1  1
 18 20  1  0
 18 19  1  0
 19  9  1  0
 20 21  2  0
 22 20  1  0
 22 23  1  0
 23 24  1  1
 24 25  1  0
 25 33  1  0
 26 25  2  0
 26 27  1  0
 27 28  1  0
 28 29  1  0
 29 30  2  0
 31 30  1  0
 32 31  2  0
 33 28  2  0
 33 32  1  0
 34 35  1  0
 34 23  1  0
 36 34  2  0
M  END
$$$$
