HRW.pdb
     RDKit          3D

 36 38  0  0  1  0  0  0  0  0999 V2000
    6.6512  -16.3256   18.6161 N   0  0  0  0  0  0  0  0  0  0  0  0
    7.6787  -15.8938   19.5120 C   0  0  1  0  0  0  0  0  0  0  0  0
    8.0321  -14.4461   19.3478 C   0  0  0  0  0  0  0  0  0  0  0  0
    8.3285  -14.2248   17.8996 C   0  0  0  0  0  0  0  0  0  0  0  0
    7.7242  -13.3486   17.0322 C   0  0  0  0  0  0  0  0  0  0  0  0
    8.3055  -13.4671   15.8000 N   0  0  0  0  0  0  0  0  0  0  0  0
    9.2538  -14.4037   15.9182 C   0  0  0  0  0  0  0  0  0  0  0  0
    9.2754  -14.8729   17.1999 N   0  0  0  0  0  0  0  0  0  0  0  0
    7.4571  -16.3520   20.8829 C   0  0  0  0  0  0  0  0  0  0  0  0
    6.3899  -16.0941   21.4656 O   0  0  0  0  0  0  0  0  0  0  0  0
    7.9781  -22.9514   23.2964 N   0  0  0  0  0  0  0  0  0  0  0  0
    7.7412  -22.8452   24.6872 C   0  0  0  0  0  0  0  0  0  0  0  0
    8.0222  -23.8455   25.4651 N   0  0  0  0  0  0  0  0  0  0  0  0
    7.2039  -21.6793   25.2466 N   0  0  0  0  0  0  0  0  0  0  0  0
    6.7861  -20.5308   24.5006 C   0  0  0  0  0  0  0  0  0  0  0  0
    7.8600  -19.4712   24.4143 C   0  0  0  0  0  0  0  0  0  0  0  0
    8.0868  -18.9968   22.9941 C   0  0  0  0  0  0  0  0  0  0  0  0
    8.2111  -17.5035   22.9304 C   0  0  2  0  0  0  0  0  0  0  0  0
    8.4366  -17.0985   21.5918 N   0  0  0  0  0  0  0  0  0  0  0  0
    9.1503  -16.9425   23.9344 C   0  0  0  0  0  0  0  0  0  0  0  0
   10.3437  -17.3140   23.9001 O   0  0  0  0  0  0  0  0  0  0  0  0
    7.7839  -23.7972   26.4855 N   0  0  0  0  0  0  0  0  0  0  0  0
    8.7283  -16.0111   24.9103 C   0  0  2  0  0  0  0  0  0  0  0  0
    9.4757  -15.7166   26.1131 C   0  0  0  0  0  0  0  0  0  0  0  0
    8.5375  -15.3455   27.2315 C   0  0  0  0  0  0  0  0  0  0  0  0
    7.4692  -14.4452   26.7694 C   0  0  0  0  0  0  0  0  0  0  0  0
    6.1798  -14.7555   26.4917 N   0  0  0  0  0  0  0  0  0  0  0  0
    5.5366  -13.6415   26.1048 C   0  0  0  0  0  0  0  0  0  0  0  0
    6.4321  -12.6235   26.1391 C   0  0  0  0  0  0  0  0  0  0  0  0
    6.3220  -11.2692   25.8455 C   0  0  0  0  0  0  0  0  0  0  0  0
    7.4068  -10.4215   25.9659 C   0  0  0  0  0  0  0  0  0  0  0  0
    8.6386  -10.9006   26.3824 C   0  0  0  0  0  0  0  0  0  0  0  0
    8.7222  -12.2568   26.6678 C   0  0  0  0  0  0  0  0  0  0  0  0
    7.6461  -13.0895   26.5487 C   0  0  0  0  0  0  0  0  0  0  0  0
   10.3465  -16.8771   26.4937 O   0  0  0  0  0  0  0  0  0  0  0  0
   11.2714  -16.7740   27.5156 O   0  0  0  0  0  0  0  0  0  0  0  0
  2  3  1  0
  2  1  1  6
  4  3  1  0
  5  4  2  0
  6  7  1  0
  6  5  1  0
  7  8  2  0
  8  4  1  0
  9 10  2  0
  9  2  1  0
 11 12  1  0
 12 13  2  0
 14 15  1  0
 14 12  1  0
 16 15  1  0
 16 17  1  0
 18 17  1  6
 18 20  1  0
 18 19  1  0
 19  9  1  0
 20 21  2  0
 22 20  1  0
 22 23  1  0
 23 24  1  6
 24 25  1  0
 25 33  1  0
 26 25  2  0
 26 27  1  0
 27 28  1  0
 28 29  1  0
 29 30  2  0
 31 30  1  0
 32 31  2  0
 33 28  2  0
 33 32  1  0
 34 35  1  0
 34 23  1  0
 36 34  2  0
M  END
$$$$
