HRW.pdb
     RDKit          3D

 36 38  0  0  1  0  0  0  0  0999 V2000
    7.2184  -16.4328   18.2750 N   0  0  0  0  0  0  0  0  0  0  0  0
    8.3564  -15.9944   19.0216 C   0  0  1  0  0  0  0  0  0  0  0  0
    8.5930  -14.5173   18.9203 C   0  0  0  0  0  0  0  0  0  0  0  0
    8.4953  -14.1520   17.4742 C   0  0  0  0  0  0  0  0  0  0  0  0
    7.5712  -13.3413   16.8627 C   0  0  0  0  0  0  0  0  0  0  0  0
    7.8514  -13.2734   15.5258 N   0  0  0  0  0  0  0  0  0  0  0  0
    8.9350  -14.0331   15.3279 C   0  0  0  0  0  0  0  0  0  0  0  0
    9.3363  -14.5746   16.5150 N   0  0  0  0  0  0  0  0  0  0  0  0
    8.3975  -16.5631   20.3681 C   0  0  0  0  0  0  0  0  0  0  0  0
    7.4035  -16.4895   21.1107 O   0  0  0  0  0  0  0  0  0  0  0  0
   14.0566  -21.5298   18.6733 N   0  0  0  0  0  0  0  0  0  0  0  0
   12.8845  -20.8732   19.1171 C   0  0  0  0  0  0  0  0  0  0  0  0
   12.3632  -19.9301   18.3936 N   0  0  0  0  0  0  0  0  0  0  0  0
   12.2722  -21.2176   20.3285 N   0  0  0  0  0  0  0  0  0  0  0  0
   10.8874  -21.0168   20.6318 C   0  0  0  0  0  0  0  0  0  0  0  0
   10.5218  -19.5546   20.7400 C   0  0  0  0  0  0  0  0  0  0  0  0
   10.0425  -19.1829   22.1276 C   0  0  0  0  0  0  0  0  0  0  0  0
    9.5691  -17.7607   22.1792 C   0  0  2  0  0  0  0  0  0  0  0  0
    9.5562  -17.2127   20.8729 N   0  0  0  0  0  0  0  0  0  0  0  0
   10.2587  -16.9423   23.2084 C   0  0  0  0  0  0  0  0  0  0  0  0
   11.0806  -16.0811   22.8260 O   0  0  0  0  0  0  0  0  0  0  0  0
   11.5516  -19.3769   18.7617 N   0  0  0  0  0  0  0  0  0  0  0  0
   10.0066  -17.1143   24.5886 C   0  0  1  0  0  0  0  0  0  0  0  0
   10.3468  -16.1316   25.5939 C   0  0  0  0  0  0  0  0  0  0  0  0
    9.7421  -14.7973   25.2435 C   0  0  0  0  0  0  0  0  0  0  0  0
    8.3470  -14.6953   25.7002 C   0  0  0  0  0  0  0  0  0  0  0  0
    7.4118  -15.6746   25.7474 N   0  0  0  0  0  0  0  0  0  0  0  0
    6.2687  -15.1631   26.2335 C   0  0  0  0  0  0  0  0  0  0  0  0
    6.4896  -13.8502   26.4922 C   0  0  0  0  0  0  0  0  0  0  0  0
    5.6738  -12.8458   26.9999 C   0  0  0  0  0  0  0  0  0  0  0  0
    6.1488  -11.5598   27.1753 C   0  0  0  0  0  0  0  0  0  0  0  0
    7.4554  -11.2354   26.8471 C   0  0  0  0  0  0  0  0  0  0  0  0
    8.2487  -12.2561   26.3407 C   0  0  0  0  0  0  0  0  0  0  0  0
    7.7743  -13.5257   26.1711 C   0  0  0  0  0  0  0  0  0  0  0  0
    9.9078  -16.5896   26.9531 O   0  0  0  0  0  0  0  0  0  0  0  0
   10.3959  -15.9955   28.1017 O   0  0  0  0  0  0  0  0  0  0  0  0
  2  3  1  0
  2  1  1  1
  4  3  1  0
  5  4  2  0
  6  7  1  0
  6  5  1  0
  7  8  2  0
  8  4  1  0
  9 10  2  0
  9  2  1  0
 11 12  1  0
 12 13  2  0
 14 15  1  0
 14 12  1  0
 16 15  1  0
 16 17  1  0
 18 17  1  6
 18 20  1  0
 18 19  1  0
 19  9  1  0
 20 21  2  0
 22 20  1  0
 22 23  1  0
 23 24  1  1
 24 25  1  0
 25 33  1  0
 26 25  2  0
 26 27  1  0
 27 28  1  0
 28 29  1  0
 29 30  2  0
 31 30  1  0
 32 31  2  0
 33 28  2  0
 33 32  1  0
 34 35  1  0
 34 23  1  0
 36 34  2  0
M  END
$$$$
