HRW.pdb
     RDKit          3D

 36 38  0  0  1  0  0  0  0  0999 V2000
    6.8669  -20.7748   22.2103 N   0  0  0  0  0  0  0  0  0  0  0  0
    6.5623  -19.4655   22.6980 C   0  0  1  0  0  0  0  0  0  0  0  0
    6.4871  -19.3979   24.1939 C   0  0  0  0  0  0  0  0  0  0  0  0
    5.5517  -20.4756   24.6388 C   0  0  0  0  0  0  0  0  0  0  0  0
    4.2798  -20.7354   24.1918 C   0  0  0  0  0  0  0  0  0  0  0  0
    3.7816  -21.8166   24.8650 N   0  0  0  0  0  0  0  0  0  0  0  0
    4.7413  -22.2102   25.7104 C   0  0  0  0  0  0  0  0  0  0  0  0
    5.8286  -21.3955   25.5787 N   0  0  0  0  0  0  0  0  0  0  0  0
    7.3547  -18.4247   22.0446 C   0  0  0  0  0  0  0  0  0  0  0  0
    8.5784  -18.5744   21.8864 O   0  0  0  0  0  0  0  0  0  0  0  0
    8.0442  -12.9704   16.0716 N   0  0  0  0  0  0  0  0  0  0  0  0
    8.5415  -14.1028   16.7587 C   0  0  0  0  0  0  0  0  0  0  0  0
    9.1948  -15.0148   16.1059 N   0  0  0  0  0  0  0  0  0  0  0  0
    8.3408  -14.2646   18.1350 N   0  0  0  0  0  0  0  0  0  0  0  0
    7.6356  -13.3428   18.9734 C   0  0  0  0  0  0  0  0  0  0  0  0
    7.6135  -13.7734   20.4216 C   0  0  0  0  0  0  0  0  0  0  0  0
    6.7893  -15.0255   20.6367 C   0  0  0  0  0  0  0  0  0  0  0  0
    7.5333  -16.0344   21.4602 C   0  0  2  0  0  0  0  0  0  0  0  0
    6.7668  -17.2205   21.5715 N   0  0  0  0  0  0  0  0  0  0  0  0
    8.0553  -15.4887   22.7386 C   0  0  0  0  0  0  0  0  0  0  0  0
    7.6461  -14.3684   23.1142 O   0  0  0  0  0  0  0  0  0  0  0  0
    9.5448  -15.8670   16.6073 N   0  0  0  0  0  0  0  0  0  0  0  0
    8.9886  -16.2003   23.5263 C   0  0  1  0  0  0  0  0  0  0  0  0
    9.8120  -15.5854   24.5442 C   0  0  0  0  0  0  0  0  0  0  0  0
    9.1789  -15.7570   25.9001 C   0  0  0  0  0  0  0  0  0  0  0  0
    7.8818  -15.0673   25.9862 C   0  0  0  0  0  0  0  0  0  0  0  0
    6.6433  -15.6030   25.8642 N   0  0  0  0  0  0  0  0  0  0  0  0
    5.7302  -14.6293   26.0141 C   0  0  0  0  0  0  0  0  0  0  0  0
    6.4032  -13.4719   26.2308 C   0  0  0  0  0  0  0  0  0  0  0  0
    5.9762  -12.1673   26.4501 C   0  0  0  0  0  0  0  0  0  0  0  0
    6.8822  -11.1433   26.6515 C   0  0  0  0  0  0  0  0  0  0  0  0
    8.2458  -11.3899   26.6388 C   0  0  0  0  0  0  0  0  0  0  0  0
    8.6458  -12.7007   26.4162 C   0  0  0  0  0  0  0  0  0  0  0  0
    7.7458  -13.7090   26.2194 C   0  0  0  0  0  0  0  0  0  0  0  0
   11.2013  -16.1503   24.5152 O   0  0  0  0  0  0  0  0  0  0  0  0
   12.2052  -15.6244   25.3062 O   0  0  0  0  0  0  0  0  0  0  0  0
  2  3  1  0
  2  1  1  1
  4  3  1  0
  5  4  2  0
  6  7  1  0
  6  5  1  0
  7  8  2  0
  8  4  1  0
  9 10  2  0
  9  2  1  0
 11 12  1  0
 12 13  2  0
 14 15  1  0
 14 12  1  0
 16 15  1  0
 16 17  1  0
 18 17  1  1
 18 20  1  0
 18 19  1  0
 19  9  1  0
 20 21  2  0
 22 20  1  0
 22 23  1  0
 23 24  1  1
 24 25  1  0
 25 33  1  0
 26 25  2  0
 26 27  1  0
 27 28  1  0
 28 29  1  0
 29 30  2  0
 31 30  1  0
 32 31  2  0
 33 28  2  0
 33 32  1  0
 34 35  1  0
 34 23  1  0
 36 34  2  0
M  END
$$$$
