FGP.pdb
     RDKit          3D

 23 24  0  0  1  0  0  0  0  0999 V2000
   26.4513  -20.3977  -13.0936 N   0  0  0  0  0  0  0  0  0  0  0  0
   25.9854  -20.5262  -11.7488 C   0  0  1  0  0  0  0  0  0  0  0  0
   24.8449  -21.5123  -11.6134 C   0  0  0  0  0  0  0  0  0  0  0  0
   23.5749  -20.9554  -12.1165 C   0  0  0  0  0  0  0  0  0  0  0  0
   23.1231  -21.3461  -13.3816 C   0  0  0  0  0  0  0  0  0  0  0  0
   21.9414  -20.8369  -13.8662 C   0  0  0  0  0  0  0  0  0  0  0  0
   21.2286  -19.9482  -13.0854 C   0  0  0  0  0  0  0  0  0  0  0  0
   21.6736  -19.5652  -11.8428 C   0  0  0  0  0  0  0  0  0  0  0  0
   22.8541  -20.0678  -11.3473 C   0  0  0  0  0  0  0  0  0  0  0  0
   27.1223  -20.9513  -10.8919 C   0  0  0  0  0  0  0  0  0  0  0  0
   28.2152  -21.3405  -11.3825 O   0  0  0  0  0  0  0  0  0  0  0  0
   26.9956  -20.9264   -9.4749 N   0  0  0  0  0  0  0  0  0  0  0  0
   28.1391  -20.6960   -8.6476 C   0  0  0  0  0  0  0  0  0  0  0  0
   27.6934  -20.4653   -7.2519 C   0  0  0  0  0  0  0  0  0  0  0  0
   26.4677  -20.2627   -6.9749 O   0  0  0  0  0  0  0  0  0  0  0  0
   28.6752  -20.4756   -6.2238 N   0  0  0  0  0  0  0  0  0  0  0  0
   30.0592  -20.7218   -6.4582 C   0  0  0  0  0  0  0  0  0  0  0  0
   30.7588  -20.5734   -5.1562 C   0  0  0  0  0  0  0  0  0  0  0  0
   29.6339  -20.8454   -4.1555 C   0  0  0  0  0  0  0  0  0  0  0  0
   28.4174  -20.2485   -4.8378 C   0  0  1  0  0  0  0  0  0  0  0  0
   28.2912  -18.8022   -4.5652 C   0  0  0  0  0  0  0  0  0  0  0  0
   27.9069  -18.3761   -3.3181 O   0  0  0  0  0  0  0  0  0  0  0  0
   28.5456  -18.0030   -5.5042 O   0  0  0  0  0  0  0  0  0  0  0  0
  2 10  1  0
  2  1  1  6
  3  2  1  0
  4  3  1  0
  5  4  2  0
  6  5  1  0
  7  8  1  0
  7  6  2  0
  8  9  2  0
  9  4  1  0
 10 12  1  0
 11 10  2  0
 12 13  1  0
 13 14  1  0
 14 16  1  0
 15 14  2  0
 16 20  1  0
 16 17  1  0
 17 18  1  0
 19 18  1  0
 20 21  1  6
 20 19  1  0
 21 22  1  0
 23 21  2  0
M  END
$$$$
