FGP.pdb
     RDKit          3D

 23 24  0  0  1  0  0  0  0  0999 V2000
   26.7554  -22.2347  -13.3966 N   0  0  0  0  0  0  0  0  0  0  0  0
   26.4155  -21.6972  -12.1168 C   0  0  1  0  0  0  0  0  0  0  0  0
   27.5432  -20.9014  -11.4951 C   0  0  0  0  0  0  0  0  0  0  0  0
   27.3152  -20.6559  -10.0585 C   0  0  0  0  0  0  0  0  0  0  0  0
   26.2275  -19.8637   -9.6755 C   0  0  0  0  0  0  0  0  0  0  0  0
   26.0002  -19.6247   -8.3407 C   0  0  0  0  0  0  0  0  0  0  0  0
   26.8574  -20.1768   -7.4092 C   0  0  0  0  0  0  0  0  0  0  0  0
   27.9255  -20.9548   -7.7868 C   0  0  0  0  0  0  0  0  0  0  0  0
   28.1632  -21.2011   -9.1189 C   0  0  0  0  0  0  0  0  0  0  0  0
   25.2152  -20.8349  -12.2684 C   0  0  0  0  0  0  0  0  0  0  0  0
   25.1654  -19.9088  -13.1208 O   0  0  0  0  0  0  0  0  0  0  0  0
   24.0785  -21.0426  -11.4382 N   0  0  0  0  0  0  0  0  0  0  0  0
   22.9291  -20.1999  -11.5567 C   0  0  0  0  0  0  0  0  0  0  0  0
   21.9004  -20.8892  -12.3731 C   0  0  0  0  0  0  0  0  0  0  0  0
   22.1637  -21.3191  -13.5419 O   0  0  0  0  0  0  0  0  0  0  0  0
   20.6041  -21.0590  -11.8148 N   0  0  0  0  0  0  0  0  0  0  0  0
   20.2086  -20.5118  -10.5598 C   0  0  0  0  0  0  0  0  0  0  0  0
   18.7735  -20.8442  -10.3679 C   0  0  0  0  0  0  0  0  0  0  0  0
   18.6098  -22.0802  -11.2546 C   0  0  0  0  0  0  0  0  0  0  0  0
   19.5373  -21.7906  -12.4197 C   0  0  1  0  0  0  0  0  0  0  0  0
   18.8743  -20.9753  -13.4579 C   0  0  0  0  0  0  0  0  0  0  0  0
   19.1468  -19.6328  -13.5454 O   0  0  0  0  0  0  0  0  0  0  0  0
   18.0708  -21.5544  -14.2354 O   0  0  0  0  0  0  0  0  0  0  0  0
  2 10  1  0
  2  1  1  6
  3  2  1  0
  4  3  1  0
  5  4  2  0
  6  5  1  0
  7  8  1  0
  7  6  2  0
  8  9  2  0
  9  4  1  0
 10 12  1  0
 11 10  2  0
 12 13  1  0
 13 14  1  0
 14 16  1  0
 15 14  2  0
 16 20  1  0
 16 17  1  0
 17 18  1  0
 19 18  1  0
 20 21  1  6
 20 19  1  0
 21 22  1  0
 23 21  2  0
M  END
$$$$
