FGP.pdb
     RDKit          3D

 23 24  0  0  1  0  0  0  0  0999 V2000
   26.6729  -21.8912  -12.0723 N   0  0  0  0  0  0  0  0  0  0  0  0
   26.3852  -20.5880  -11.5614 C   0  0  1  0  0  0  0  0  0  0  0  0
   25.3341  -19.8583  -12.3701 C   0  0  0  0  0  0  0  0  0  0  0  0
   25.9257  -19.1253  -13.5054 C   0  0  0  0  0  0  0  0  0  0  0  0
   26.1959  -17.7606  -13.3579 C   0  0  0  0  0  0  0  0  0  0  0  0
   26.7473  -17.0618  -14.4059 C   0  0  0  0  0  0  0  0  0  0  0  0
   27.0207  -17.7310  -15.5827 C   0  0  0  0  0  0  0  0  0  0  0  0
   26.7547  -19.0716  -15.7263 C   0  0  0  0  0  0  0  0  0  0  0  0
   26.2033  -19.7813  -14.6851 C   0  0  0  0  0  0  0  0  0  0  0  0
   25.9334  -20.7204  -10.1522 C   0  0  0  0  0  0  0  0  0  0  0  0
   25.4113  -21.7816   -9.7185 O   0  0  0  0  0  0  0  0  0  0  0  0
   26.0846  -19.6311   -9.2494 N   0  0  0  0  0  0  0  0  0  0  0  0
   26.1501  -19.8604   -7.8394 C   0  0  0  0  0  0  0  0  0  0  0  0
   27.5642  -19.7868   -7.3979 C   0  0  0  0  0  0  0  0  0  0  0  0
   28.5222  -19.9403   -8.2219 O   0  0  0  0  0  0  0  0  0  0  0  0
   27.8256  -19.5392   -6.0227 N   0  0  0  0  0  0  0  0  0  0  0  0
   26.8058  -19.4391   -5.0322 C   0  0  0  0  0  0  0  0  0  0  0  0
   27.4817  -19.2526   -3.7226 C   0  0  0  0  0  0  0  0  0  0  0  0
   28.8271  -18.6548   -4.1389 C   0  0  0  0  0  0  0  0  0  0  0  0
   29.1215  -19.3561   -5.4516 C   0  0  1  0  0  0  0  0  0  0  0  0
   29.7825  -20.6601   -5.2396 C   0  0  0  0  0  0  0  0  0  0  0  0
   31.1108  -20.7014   -4.8956 O   0  0  0  0  0  0  0  0  0  0  0  0
   29.0890  -21.7008   -5.3855 O   0  0  0  0  0  0  0  0  0  0  0  0
  2 10  1  0
  2  1  1  6
  3  2  1  0
  4  3  1  0
  5  4  2  0
  6  5  1  0
  7  8  1  0
  7  6  2  0
  8  9  2  0
  9  4  1  0
 10 12  1  0
 11 10  2  0
 12 13  1  0
 13 14  1  0
 14 16  1  0
 15 14  2  0
 16 20  1  0
 16 17  1  0
 17 18  1  0
 19 18  1  0
 20 21  1  1
 20 19  1  0
 21 22  1  0
 23 21  2  0
M  END
$$$$
