FGP.pdb
     RDKit          3D

 23 24  0  0  1  0  0  0  0  0999 V2000
   28.9503  -21.2180   -8.8997 N   0  0  0  0  0  0  0  0  0  0  0  0
   27.5446  -20.9627   -8.9326 C   0  0  1  0  0  0  0  0  0  0  0  0
   27.1670  -19.6634   -8.2539 C   0  0  0  0  0  0  0  0  0  0  0  0
   27.5748  -19.6455   -6.8363 C   0  0  0  0  0  0  0  0  0  0  0  0
   28.5609  -18.7396   -6.4312 C   0  0  0  0  0  0  0  0  0  0  0  0
   28.9531  -18.7094   -5.1136 C   0  0  0  0  0  0  0  0  0  0  0  0
   28.3588  -19.5798   -4.2212 C   0  0  0  0  0  0  0  0  0  0  0  0
   27.3902  -20.4693   -4.6205 C   0  0  0  0  0  0  0  0  0  0  0  0
   26.9896  -20.5089   -5.9357 C   0  0  0  0  0  0  0  0  0  0  0  0
   27.1005  -20.9373  -10.3502 C   0  0  0  0  0  0  0  0  0  0  0  0
   27.7096  -20.2672  -11.2257 O   0  0  0  0  0  0  0  0  0  0  0  0
   25.9577  -21.6832  -10.7530 N   0  0  0  0  0  0  0  0  0  0  0  0
   25.5065  -21.6446  -12.1095 C   0  0  0  0  0  0  0  0  0  0  0  0
   24.3279  -20.7493  -12.2067 C   0  0  0  0  0  0  0  0  0  0  0  0
   23.8411  -20.1838  -11.1755 O   0  0  0  0  0  0  0  0  0  0  0  0
   23.7510  -20.5369  -13.4885 N   0  0  0  0  0  0  0  0  0  0  0  0
   24.2942  -21.0664  -14.6949 C   0  0  0  0  0  0  0  0  0  0  0  0
   23.3711  -20.6887  -15.7958 C   0  0  0  0  0  0  0  0  0  0  0  0
   22.6773  -19.4519  -15.2216 C   0  0  0  0  0  0  0  0  0  0  0  0
   22.5704  -19.7750  -13.7431 C   0  0  1  0  0  0  0  0  0  0  0  0
   21.3644  -20.5735  -13.4430 C   0  0  0  0  0  0  0  0  0  0  0  0
   20.1588  -19.9426  -13.2613 O   0  0  0  0  0  0  0  0  0  0  0  0
   21.4922  -21.8236  -13.3640 O   0  0  0  0  0  0  0  0  0  0  0  0
  2 10  1  0
  2  1  1  6
  3  2  1  0
  4  3  1  0
  5  4  2  0
  6  5  1  0
  7  8  1  0
  7  6  2  0
  8  9  2  0
  9  4  1  0
 10 12  1  0
 11 10  2  0
 12 13  1  0
 13 14  1  0
 14 16  1  0
 15 14  2  0
 16 20  1  0
 16 17  1  0
 17 18  1  0
 19 18  1  0
 20 21  1  6
 20 19  1  0
 21 22  1  0
 23 21  2  0
M  END
$$$$
