FGP.pdb
     RDKit          3D

 23 24  0  0  1  0  0  0  0  0999 V2000
   25.1967  -20.6555   -7.3352 N   0  0  0  0  0  0  0  0  0  0  0  0
   26.3754  -20.3402   -8.0792 C   0  0  1  0  0  0  0  0  0  0  0  0
   27.6362  -20.8823   -7.4406 C   0  0  0  0  0  0  0  0  0  0  0  0
   28.0369  -20.0934   -6.2602 C   0  0  0  0  0  0  0  0  0  0  0  0
   28.0511  -18.6978   -6.3568 C   0  0  0  0  0  0  0  0  0  0  0  0
   28.4220  -17.9468   -5.2664 C   0  0  0  0  0  0  0  0  0  0  0  0
   28.7726  -18.5954   -4.0985 C   0  0  0  0  0  0  0  0  0  0  0  0
   28.7582  -19.9664   -4.0050 C   0  0  0  0  0  0  0  0  0  0  0  0
   28.3890  -20.7283   -5.0889 C   0  0  0  0  0  0  0  0  0  0  0  0
   26.2305  -20.8896   -9.4520 C   0  0  0  0  0  0  0  0  0  0  0  0
   25.3350  -21.7266   -9.7419 O   0  0  0  0  0  0  0  0  0  0  0  0
   27.1170  -20.4729  -10.4840 N   0  0  0  0  0  0  0  0  0  0  0  0
   26.9638  -20.9685  -11.8167 C   0  0  0  0  0  0  0  0  0  0  0  0
   26.3873  -19.9019  -12.6710 C   0  0  0  0  0  0  0  0  0  0  0  0
   25.5049  -19.1015  -12.2229 O   0  0  0  0  0  0  0  0  0  0  0  0
   26.8472  -19.7945  -14.0119 N   0  0  0  0  0  0  0  0  0  0  0  0
   27.8109  -20.6727  -14.5872 C   0  0  0  0  0  0  0  0  0  0  0  0
   27.9667  -20.2818  -16.0119 C   0  0  0  0  0  0  0  0  0  0  0  0
   27.5230  -18.8177  -15.9926 C   0  0  0  0  0  0  0  0  0  0  0  0
   26.4190  -18.8086  -14.9520 C   0  0  1  0  0  0  0  0  0  0  0  0
   25.1140  -19.1818  -15.5349 C   0  0  0  0  0  0  0  0  0  0  0  0
   24.3714  -18.2382  -16.2002 O   0  0  0  0  0  0  0  0  0  0  0  0
   24.7273  -20.3720  -15.3959 O   0  0  0  0  0  0  0  0  0  0  0  0
  2 10  1  0
  2  1  1  1
  3  2  1  0
  4  3  1  0
  5  4  2  0
  6  5  1  0
  7  8  1  0
  7  6  2  0
  8  9  2  0
  9  4  1  0
 10 12  1  0
 11 10  2  0
 12 13  1  0
 13 14  1  0
 14 16  1  0
 15 14  2  0
 16 20  1  0
 16 17  1  0
 17 18  1  0
 19 18  1  0
 20 21  1  6
 20 19  1  0
 21 22  1  0
 23 21  2  0
M  END
$$$$
