RIQ.pdb
     RDKit          3D

 29 28  0  0  1  0  0  0  0  0999 V2000
   22.8133  -21.5382   -7.9099 N   0  0  0  0  0  0  0  0  0  0  0  0
   22.4822  -21.1863   -9.2350 C   0  0  0  0  0  0  0  0  0  0  0  0
   21.3062  -21.4140   -9.6811 N   0  0  0  0  0  0  0  0  0  0  0  0
   23.4446  -20.5719  -10.1041 N   0  0  0  0  0  0  0  0  0  0  0  0
   24.2771  -21.3515  -11.0068 C   0  0  0  0  0  0  0  0  0  0  0  0
   25.6632  -21.3704  -10.4347 C   0  0  0  0  0  0  0  0  0  0  0  0
   26.5854  -20.3641  -11.0662 C   0  0  0  0  0  0  0  0  0  0  0  0
   26.3465  -20.4528  -12.5795 C   0  0  2  0  0  0  0  0  0  0  0  0
   27.5385  -21.0416  -13.1398 N   0  0  0  0  0  0  0  0  0  0  0  0
   26.0410  -19.1279  -13.1517 C   0  0  0  0  0  0  0  0  0  0  0  0
   25.6177  -18.2414  -12.3663 O   0  0  0  0  0  0  0  0  0  0  0  0
   20.9573  -21.1099  -10.6093 C   0  0  0  0  0  0  0  0  0  0  0  0
   26.7726  -14.5892  -15.4469 C   0  0  0  0  0  0  0  0  0  0  0  0
   26.7847  -15.6461  -16.5419 C   0  0  2  0  0  0  0  0  0  0  0  0
   27.1022  -16.9621  -15.8757 C   0  0  0  0  0  0  0  0  0  0  0  0
   27.4970  -17.9458  -16.9568 C   0  0  2  0  0  0  0  0  0  0  0  0
   25.9418  -17.4905  -15.0677 N   0  0  0  0  0  0  0  0  0  0  0  0
   26.1891  -18.7847  -14.5132 C   0  0  0  0  0  0  0  0  0  0  0  0
   24.7894  -17.6217  -16.0252 O   0  0  0  0  0  0  0  0  0  0  0  0
   24.7621  -18.5254  -16.9103 N   0  0  0  0  0  0  0  0  0  0  0  0
   18.9550  -16.0532  -14.8116 C   0  0  0  0  0  0  0  0  0  0  0  0
   19.8312  -14.9717  -15.0091 O   0  0  0  0  0  0  0  0  0  0  0  0
   19.5084  -13.8146  -14.6087 C   0  0  0  0  0  0  0  0  0  0  0  0
   21.1316  -15.2011  -15.6887 C   0  0  0  0  0  0  0  0  0  0  0  0
   21.2431  -16.6714  -16.0708 C   0  0  1  0  0  0  0  0  0  0  0  0
   22.5561  -16.9122  -16.8239 N   0  0  0  0  0  0  0  0  0  0  0  0
   23.6902  -16.7384  -15.9728 C   0  0  0  0  0  0  0  0  0  0  0  0
   22.6122  -16.0149  -18.0031 O   0  0  0  0  0  0  0  0  0  0  0  0
   23.3697  -15.0148  -17.9738 O   0  0  0  0  0  0  0  0  0  0  0  0
  2  3  2  0
  2  1  1  0
  4  2  1  0
  5  4  1  0
  5  6  1  0
  7  6  1  0
  8  7  1  0
  8  9  1  6
 10 11  2  0
 10  8  1  0
 12 13  1  0
 13 14  1  0
 14 16  1  0
 14 15  1  1
 16 18  1  0
 16 17  1  6
 17 10  1  0
 18 26  1  0
 19 18  2  0
 20 21  1  0
 21 22  2  0
 21 23  1  0
 23 24  1  0
 25 24  1  1
 25 27  1  0
 26 25  1  0
 27 28  2  0
 27 29  1  0
M  END
$$$$
