RIQ.pdb
     RDKit          3D

 29 28  0  0  1  0  0  0  0  0999 V2000
   24.0403  -27.4190  -17.0606 N   0  0  0  0  0  0  0  0  0  0  0  0
   23.1214  -26.5752  -16.4025 C   0  0  0  0  0  0  0  0  0  0  0  0
   22.2803  -27.0686  -15.5761 N   0  0  0  0  0  0  0  0  0  0  0  0
   23.1080  -25.1603  -16.6410 N   0  0  0  0  0  0  0  0  0  0  0  0
   24.0670  -24.5182  -17.5263 C   0  0  0  0  0  0  0  0  0  0  0  0
   24.2408  -23.1065  -17.0511 C   0  0  0  0  0  0  0  0  0  0  0  0
   24.4506  -22.9962  -15.5659 C   0  0  0  0  0  0  0  0  0  0  0  0
   24.5435  -21.4962  -15.2555 C   0  0  2  0  0  0  0  0  0  0  0  0
   25.9451  -21.2124  -15.0641 N   0  0  0  0  0  0  0  0  0  0  0  0
   23.7236  -21.1406  -14.0819 C   0  0  0  0  0  0  0  0  0  0  0  0
   24.2840  -21.1609  -12.9561 O   0  0  0  0  0  0  0  0  0  0  0  0
   21.5125  -26.5361  -15.1259 C   0  0  0  0  0  0  0  0  0  0  0  0
   19.5499  -17.1899  -12.3853 C   0  0  0  0  0  0  0  0  0  0  0  0
   20.1538  -18.5398  -12.0257 C   0  0  2  0  0  0  0  0  0  0  0  0
   20.8735  -19.0380  -13.2546 C   0  0  0  0  0  0  0  0  0  0  0  0
   19.8543  -19.1730  -14.3661 C   0  0  2  0  0  0  0  0  0  0  0  0
   21.5802  -20.3499  -13.0128 N   0  0  0  0  0  0  0  0  0  0  0  0
   22.3593  -20.7803  -14.1314 C   0  0  0  0  0  0  0  0  0  0  0  0
   20.5005  -21.3735  -12.7933 O   0  0  0  0  0  0  0  0  0  0  0  0
   19.8530  -21.8722  -13.7591 N   0  0  0  0  0  0  0  0  0  0  0  0
   18.9694  -24.2574   -7.3308 C   0  0  0  0  0  0  0  0  0  0  0  0
   18.1302  -24.8886   -8.2655 O   0  0  0  0  0  0  0  0  0  0  0  0
   17.3686  -25.8306   -7.8972 C   0  0  0  0  0  0  0  0  0  0  0  0
   18.1478  -24.4402   -9.6812 C   0  0  0  0  0  0  0  0  0  0  0  0
   19.1688  -23.3207   -9.8381 C   0  0  2  0  0  0  0  0  0  0  0  0
   19.1754  -22.8259  -11.2887 N   0  0  0  0  0  0  0  0  0  0  0  0
   20.1670  -21.8187  -11.4964 C   0  0  0  0  0  0  0  0  0  0  0  0
   17.8194  -22.3426  -11.6441 O   0  0  0  0  0  0  0  0  0  0  0  0
   17.4790  -21.1810  -11.3131 O   0  0  0  0  0  0  0  0  0  0  0  0
  2  3  2  0
  2  1  1  0
  4  2  1  0
  5  4  1  0
  5  6  1  0
  7  6  1  0
  8  7  1  0
  8  9  1  1
 10 11  2  0
 10  8  1  0
 12 13  1  0
 13 14  1  0
 14 16  1  0
 14 15  1  6
 16 18  1  0
 16 17  1  1
 17 10  1  0
 18 26  1  0
 19 18  2  0
 20 21  1  0
 21 22  2  0
 21 23  1  0
 23 24  1  0
 25 24  1  6
 25 27  1  0
 26 25  1  0
 27 28  2  0
 27 29  1  0
M  END
$$$$
