RIQ.pdb
     RDKit          3D

 29 28  0  0  1  0  0  0  0  0999 V2000
   18.5298  -24.4300   -9.0559 N   0  0  0  0  0  0  0  0  0  0  0  0
   18.0277  -24.9307  -10.2751 C   0  0  0  0  0  0  0  0  0  0  0  0
   17.2771  -25.9652  -10.2797 N   0  0  0  0  0  0  0  0  0  0  0  0
   18.3430  -24.2996  -11.5247 N   0  0  0  0  0  0  0  0  0  0  0  0
   19.4621  -23.3809  -11.6640 C   0  0  0  0  0  0  0  0  0  0  0  0
   19.5150  -22.9531  -13.1004 C   0  0  0  0  0  0  0  0  0  0  0  0
   20.1139  -21.5876  -13.2968 C   0  0  0  0  0  0  0  0  0  0  0  0
   21.5035  -21.6305  -12.6470 C   0  0  2  0  0  0  0  0  0  0  0  0
   21.2871  -21.4876  -11.2277 N   0  0  0  0  0  0  0  0  0  0  0  0
   22.3848  -20.5838  -13.1983 C   0  0  0  0  0  0  0  0  0  0  0  0
   21.8549  -19.4878  -13.5145 O   0  0  0  0  0  0  0  0  0  0  0  0
   16.9595  -26.4610  -11.1336 C   0  0  0  0  0  0  0  0  0  0  0  0
   28.3287  -19.1015  -13.6150 C   0  0  0  0  0  0  0  0  0  0  0  0
   27.0028  -18.9912  -14.3537 C   0  0  2  0  0  0  0  0  0  0  0  0
   26.1039  -20.0702  -13.8019 C   0  0  0  0  0  0  0  0  0  0  0  0
   26.3896  -21.3466  -14.5644 C   0  0  2  0  0  0  0  0  0  0  0  0
   24.6427  -19.7038  -13.8980 N   0  0  0  0  0  0  0  0  0  0  0  0
   23.7758  -20.7236  -13.3960 C   0  0  0  0  0  0  0  0  0  0  0  0
   24.3469  -19.5403  -15.3635 O   0  0  0  0  0  0  0  0  0  0  0  0
   24.1174  -20.5364  -16.1090 N   0  0  0  0  0  0  0  0  0  0  0  0
   20.7258  -15.6555  -17.0061 C   0  0  0  0  0  0  0  0  0  0  0  0
   21.7434  -15.1648  -17.8428 O   0  0  0  0  0  0  0  0  0  0  0  0
   21.6821  -13.9801  -18.2856 C   0  0  0  0  0  0  0  0  0  0  0  0
   22.8839  -16.0469  -18.1988 C   0  0  0  0  0  0  0  0  0  0  0  0
   22.6691  -17.4186  -17.5722 C   0  0  1  0  0  0  0  0  0  0  0  0
   24.0218  -18.1057  -17.3548 N   0  0  0  0  0  0  0  0  0  0  0  0
   24.3139  -18.2644  -15.9655 C   0  0  0  0  0  0  0  0  0  0  0  0
   25.0776  -17.3333  -18.0529 O   0  0  0  0  0  0  0  0  0  0  0  0
   25.8927  -16.6623  -17.3746 O   0  0  0  0  0  0  0  0  0  0  0  0
  2  3  2  0
  2  1  1  0
  4  2  1  0
  5  4  1  0
  5  6  1  0
  7  6  1  0
  8  7  1  0
  8  9  1  1
 10 11  2  0
 10  8  1  0
 12 13  1  0
 13 14  1  0
 14 16  1  0
 14 15  1  1
 16 18  1  0
 16 17  1  6
 17 10  1  0
 18 26  1  0
 19 18  2  0
 20 21  1  0
 21 22  2  0
 21 23  1  0
 23 24  1  0
 25 24  1  6
 25 27  1  0
 26 25  1  0
 27 28  2  0
 27 29  1  0
M  END
$$$$
