RIQ.pdb
     RDKit          3D

 29 28  0  0  1  0  0  0  0  0999 V2000
   30.9263  -21.0841  -18.9136 N   0  0  0  0  0  0  0  0  0  0  0  0
   29.9359  -21.5997  -19.7754 C   0  0  0  0  0  0  0  0  0  0  0  0
   30.1869  -21.7482  -21.0199 N   0  0  0  0  0  0  0  0  0  0  0  0
   28.6387  -21.9655  -19.2832 N   0  0  0  0  0  0  0  0  0  0  0  0
   28.3580  -22.0818  -17.8606 C   0  0  0  0  0  0  0  0  0  0  0  0
   28.0835  -20.7012  -17.3433 C   0  0  0  0  0  0  0  0  0  0  0  0
   26.9775  -20.6522  -16.3254 C   0  0  0  0  0  0  0  0  0  0  0  0
   27.4507  -21.4985  -15.1359 C   0  0  2  0  0  0  0  0  0  0  0  0
   27.9904  -22.7130  -15.6973 N   0  0  0  0  0  0  0  0  0  0  0  0
   26.3505  -21.7485  -14.1855 C   0  0  0  0  0  0  0  0  0  0  0  0
   25.5213  -22.6464  -14.4825 O   0  0  0  0  0  0  0  0  0  0  0  0
   29.5038  -22.0839  -21.7244 C   0  0  0  0  0  0  0  0  0  0  0  0
   26.7844  -20.2177   -8.8295 C   0  0  0  0  0  0  0  0  0  0  0  0
   26.5328  -21.1318  -10.0199 C   0  0  2  0  0  0  0  0  0  0  0  0
   25.3006  -20.6114  -10.7180 C   0  0  0  0  0  0  0  0  0  0  0  0
   24.1162  -20.8457   -9.8044 C   0  0  2  0  0  0  0  0  0  0  0  0
   25.0812  -21.2680  -12.0594 N   0  0  0  0  0  0  0  0  0  0  0  0
   26.1620  -21.0546  -12.9704 C   0  0  0  0  0  0  0  0  0  0  0  0
   23.8588  -20.6196  -12.6487 O   0  0  0  0  0  0  0  0  0  0  0  0
   23.8109  -19.3754  -12.8733 N   0  0  0  0  0  0  0  0  0  0  0  0
   19.8411  -22.9857  -16.7060 C   0  0  0  0  0  0  0  0  0  0  0  0
   19.3198  -21.6972  -16.4948 O   0  0  0  0  0  0  0  0  0  0  0  0
   18.3963  -21.2582  -17.2415 C   0  0  0  0  0  0  0  0  0  0  0  0
   19.8619  -20.8626  -15.3925 C   0  0  0  0  0  0  0  0  0  0  0  0
   21.0396  -21.5852  -14.7514 C   0  0  2  0  0  0  0  0  0  0  0  0
   21.5636  -20.7690  -13.5646 N   0  0  0  0  0  0  0  0  0  0  0  0
   22.7139  -21.3773  -12.9749 C   0  0  0  0  0  0  0  0  0  0  0  0
   20.4715  -20.5888  -12.5780 O   0  0  0  0  0  0  0  0  0  0  0  0
   20.3216  -21.4423  -11.6703 O   0  0  0  0  0  0  0  0  0  0  0  0
  2  3  2  0
  2  1  1  0
  4  2  1  0
  5  4  1  0
  5  6  1  0
  7  6  1  0
  8  7  1  0
  8  9  1  6
 10 11  2  0
 10  8  1  0
 12 13  1  0
 13 14  1  0
 14 16  1  0
 14 15  1  6
 16 18  1  0
 16 17  1  6
 17 10  1  0
 18 26  1  0
 19 18  2  0
 20 21  1  0
 21 22  2  0
 21 23  1  0
 23 24  1  0
 25 24  1  6
 25 27  1  0
 26 25  1  0
 27 28  2  0
 27 29  1  0
M  END
$$$$
