LCC.pdb
     RDKit          3D

 21 20  0  0  1  0  0  0  0  0999 V2000
    5.5876  -16.1797   18.7923 C   0  0  0  0  0  0  0  0  0  0  0  0
    7.0303  -16.2811   18.2945 C   0  0  2  0  0  0  0  0  0  0  0  0
    7.2585  -17.6941   17.8568 C   0  0  0  0  0  0  0  0  0  0  0  0
    7.8985  -15.8545   19.4326 C   0  0  0  0  0  0  0  0  0  0  0  0
    7.6088  -14.4724   19.9664 C   0  0  2  0  0  0  0  0  0  0  0  0
    8.2391  -13.5475   19.0299 N   0  0  0  0  0  0  0  0  0  0  0  0
    8.1513  -14.3363   21.3173 C   0  0  0  0  0  0  0  0  0  0  0  0
    9.3798  -14.1797   21.5241 O   0  0  0  0  0  0  0  0  0  0  0  0
    7.3421  -14.3690   22.5036 N   0  0  0  0  0  0  0  0  0  0  0  0
    7.9278  -14.2819   23.8271 C   0  0  1  0  0  0  0  0  0  0  0  0
    6.8197  -13.7733   24.7519 C   0  0  0  0  0  0  0  0  0  0  0  0
    7.5131  -13.7427   26.4356 S   0  0  0  0  0  0  0  0  0  0  0  0
    8.3232  -15.6180   24.3429 C   0  0  0  0  0  0  0  0  0  0  0  0
    7.4920  -16.5623   24.3758 O   0  0  0  0  0  0  0  0  0  0  0  0
    9.6489  -15.8429   24.8057 N   0  0  0  0  0  0  0  0  0  0  0  0
   10.0979  -17.1096   25.3264 C   0  0  1  0  0  0  0  0  0  0  0  0
   11.3899  -17.5632   24.6830 C   0  0  0  0  0  0  0  0  0  0  0  0
   11.2854  -17.4498   22.8765 S   0  0  0  0  0  0  0  0  0  0  0  0
   10.1750  -17.1147   26.8055 C   0  0  0  0  0  0  0  0  0  0  0  0
   10.5914  -18.2261   27.5201 O   0  0  0  0  0  0  0  0  0  0  0  0
    9.8578  -16.0899   27.4561 O   0  0  0  0  0  0  0  0  0  0  0  0
  2  1  1  1
  2  3  1  0
  4  2  1  0
  5  4  1  0
  5  6  1  6
  7  5  1  0
  7  8  2  0
  9  7  1  0
 10 13  1  0
 10  9  1  0
 10 11  1  1
 12 11  1  0
 13 15  1  0
 14 13  2  0
 15 16  1  0
 16 19  1  0
 17 18  1  0
 16 17  1  6
 19 21  2  0
 19 20  1  0
M  END
$$$$
