LCC.pdb
     RDKit          3D

 21 20  0  0  1  0  0  0  0  0999 V2000
    9.2785  -13.1152   19.4779 C   0  0  0  0  0  0  0  0  0  0  0  0
    7.9645  -13.8808   19.3139 C   0  0  2  0  0  0  0  0  0  0  0  0
    6.9973  -12.9738   18.6196 C   0  0  0  0  0  0  0  0  0  0  0  0
    7.5367  -14.2803   20.6882 C   0  0  0  0  0  0  0  0  0  0  0  0
    8.5251  -15.1452   21.4325 C   0  0  2  0  0  0  0  0  0  0  0  0
    8.4195  -16.4713   20.8323 N   0  0  0  0  0  0  0  0  0  0  0  0
    8.1977  -15.1627   22.8574 C   0  0  0  0  0  0  0  0  0  0  0  0
    8.1852  -14.1130   23.5462 O   0  0  0  0  0  0  0  0  0  0  0  0
    7.8679  -16.3592   23.5804 N   0  0  0  0  0  0  0  0  0  0  0  0
    7.6318  -16.3435   25.0109 C   0  0  1  0  0  0  0  0  0  0  0  0
    7.0538  -17.7157   25.3636 C   0  0  0  0  0  0  0  0  0  0  0  0
    8.3691  -18.9360   25.0518 S   0  0  0  0  0  0  0  0  0  0  0  0
    8.8987  -16.2135   25.7763 C   0  0  0  0  0  0  0  0  0  0  0  0
    9.9850  -16.6205   25.2885 O   0  0  0  0  0  0  0  0  0  0  0  0
    8.8954  -15.6261   27.0713 N   0  0  0  0  0  0  0  0  0  0  0  0
   10.0925  -15.4235   27.8481 C   0  0  1  0  0  0  0  0  0  0  0  0
   10.0527  -14.1268   28.6264 C   0  0  0  0  0  0  0  0  0  0  0  0
    9.1712  -12.8436   27.6972 S   0  0  0  0  0  0  0  0  0  0  0  0
   10.4078  -16.5863   28.7097 C   0  0  0  0  0  0  0  0  0  0  0  0
    9.5577  -17.6743   28.8231 O   0  0  0  0  0  0  0  0  0  0  0  0
   11.4749  -16.6104   29.3691 O   0  0  0  0  0  0  0  0  0  0  0  0
  2  1  1  1
  2  3  1  0
  4  2  1  0
  5  4  1  0
  5  6  1  6
  7  5  1  0
  7  8  2  0
  9  7  1  0
 10 13  1  0
 10  9  1  0
 10 11  1  1
 12 11  1  0
 13 15  1  0
 14 13  2  0
 15 16  1  0
 16 19  1  0
 17 18  1  0
 16 17  1  1
 19 21  2  0
 19 20  1  0
M  END
$$$$
