LCC.pdb
     RDKit          3D

 21 20  0  0  1  0  0  0  0  0999 V2000
    8.8713  -27.9164   31.7206 C   0  0  0  0  0  0  0  0  0  0  0  0
   10.3881  -27.9608   31.9124 C   0  0  2  0  0  0  0  0  0  0  0  0
   10.6535  -28.1160   33.3771 C   0  0  0  0  0  0  0  0  0  0  0  0
   10.9220  -26.6914   31.3338 C   0  0  0  0  0  0  0  0  0  0  0  0
   10.9101  -25.5120   32.2761 C   0  0  2  0  0  0  0  0  0  0  0  0
    9.6005  -24.8891   32.1122 N   0  0  0  0  0  0  0  0  0  0  0  0
   11.9975  -24.5943   31.9395 C   0  0  0  0  0  0  0  0  0  0  0  0
   12.8765  -24.8922   31.0939 O   0  0  0  0  0  0  0  0  0  0  0  0
   12.1527  -23.2966   32.5352 N   0  0  0  0  0  0  0  0  0  0  0  0
   13.2250  -22.4027   32.1437 C   0  0  1  0  0  0  0  0  0  0  0  0
   12.8323  -21.0148   32.6549 C   0  0  0  0  0  0  0  0  0  0  0  0
   11.5582  -20.3778   31.5203 S   0  0  0  0  0  0  0  0  0  0  0  0
   14.5039  -22.7500   32.8156 C   0  0  0  0  0  0  0  0  0  0  0  0
   14.5133  -23.1287   34.0156 O   0  0  0  0  0  0  0  0  0  0  0  0
   15.7330  -22.6574   32.1066 N   0  0  0  0  0  0  0  0  0  0  0  0
   16.9912  -23.1060   32.6481 C   0  0  1  0  0  0  0  0  0  0  0  0
   17.6387  -24.1635   31.7812 C   0  0  0  0  0  0  0  0  0  0  0  0
   16.4498  -25.4641   31.3541 S   0  0  0  0  0  0  0  0  0  0  0  0
   17.9097  -21.9821   32.9432 C   0  0  0  0  0  0  0  0  0  0  0  0
   19.1694  -22.1797   33.4846 O   0  0  0  0  0  0  0  0  0  0  0  0
   17.5579  -20.8019   32.7037 O   0  0  0  0  0  0  0  0  0  0  0  0
  2  1  1  1
  2  3  1  0
  4  2  1  0
  5  4  1  0
  5  6  1  6
  7  5  1  0
  7  8  2  0
  9  7  1  0
 10 13  1  0
 10  9  1  0
 10 11  1  1
 12 11  1  0
 13 15  1  0
 14 13  2  0
 15 16  1  0
 16 19  1  0
 17 18  1  0
 16 17  1  6
 19 21  2  0
 19 20  1  0
M  END
$$$$
