LCC.pdb
     RDKit          3D

 21 20  0  0  1  0  0  0  0  0999 V2000
    9.2562  -12.9703   19.0462 C   0  0  0  0  0  0  0  0  0  0  0  0
    7.8210  -13.3363   19.4279 C   0  0  2  0  0  0  0  0  0  0  0  0
    6.9473  -12.1774   19.0621 C   0  0  0  0  0  0  0  0  0  0  0  0
    7.8396  -13.6398   20.8903 C   0  0  0  0  0  0  0  0  0  0  0  0
    8.7419  -14.7828   21.2882 C   0  0  2  0  0  0  0  0  0  0  0  0
    8.3691  -15.8989   20.4249 N   0  0  0  0  0  0  0  0  0  0  0  0
    8.5511  -15.0990   22.7030 C   0  0  0  0  0  0  0  0  0  0  0  0
    8.6609  -14.2241   23.5969 O   0  0  0  0  0  0  0  0  0  0  0  0
    8.2274  -16.4127   23.1851 N   0  0  0  0  0  0  0  0  0  0  0  0
    8.1882  -16.7150   24.6026 C   0  0  1  0  0  0  0  0  0  0  0  0
    7.6615  -18.1470   24.7195 C   0  0  0  0  0  0  0  0  0  0  0  0
    5.9576  -18.1345   24.0769 S   0  0  0  0  0  0  0  0  0  0  0  0
    9.5476  -16.7186   25.2022 C   0  0  0  0  0  0  0  0  0  0  0  0
   10.5531  -16.4156   24.5088 O   0  0  0  0  0  0  0  0  0  0  0  0
    9.7257  -17.0656   26.5697 N   0  0  0  0  0  0  0  0  0  0  0  0
   10.2990  -16.1695   27.5422 C   0  0  1  0  0  0  0  0  0  0  0  0
    9.5904  -14.8332   27.5715 C   0  0  0  0  0  0  0  0  0  0  0  0
   10.4904  -13.6484   28.6076 S   0  0  0  0  0  0  0  0  0  0  0  0
   10.3945  -16.7842   28.8865 C   0  0  0  0  0  0  0  0  0  0  0  0
   11.5206  -16.6502   29.6821 O   0  0  0  0  0  0  0  0  0  0  0  0
    9.4363  -17.4537   29.3422 O   0  0  0  0  0  0  0  0  0  0  0  0
  2  1  1  1
  2  3  1  0
  4  2  1  0
  5  4  1  0
  5  6  1  6
  7  5  1  0
  7  8  2  0
  9  7  1  0
 10 13  1  0
 10  9  1  0
 10 11  1  6
 12 11  1  0
 13 15  1  0
 14 13  2  0
 15 16  1  0
 16 19  1  0
 17 18  1  0
 16 17  1  1
 19 21  2  0
 19 20  1  0
M  END
$$$$
