LCC.pdb
     RDKit          3D

 21 20  0  0  1  0  0  0  0  0999 V2000
    7.7016  -14.2809   18.4232 C   0  0  0  0  0  0  0  0  0  0  0  0
    7.5482  -13.4472   19.6963 C   0  0  2  0  0  0  0  0  0  0  0  0
    7.6972  -12.0079   19.3139 C   0  0  0  0  0  0  0  0  0  0  0  0
    8.5964  -13.9310   20.6442 C   0  0  0  0  0  0  0  0  0  0  0  0
    8.1433  -15.0192   21.5873 C   0  0  2  0  0  0  0  0  0  0  0  0
    6.7227  -15.2121   21.3141 N   0  0  0  0  0  0  0  0  0  0  0  0
    8.3831  -14.6112   22.9708 C   0  0  0  0  0  0  0  0  0  0  0  0
    9.5355  -14.3433   23.3910 O   0  0  0  0  0  0  0  0  0  0  0  0
    7.3416  -14.4836   23.9516 N   0  0  0  0  0  0  0  0  0  0  0  0
    7.6360  -14.1906   25.3407 C   0  0  1  0  0  0  0  0  0  0  0  0
    6.6538  -13.0961   25.7639 C   0  0  0  0  0  0  0  0  0  0  0  0
    6.9682  -12.7603   27.5259 S   0  0  0  0  0  0  0  0  0  0  0  0
    7.3654  -15.3583   26.2187 C   0  0  0  0  0  0  0  0  0  0  0  0
    6.1851  -15.7431   26.4250 O   0  0  0  0  0  0  0  0  0  0  0  0
    8.4410  -16.0541   26.8359 N   0  0  0  0  0  0  0  0  0  0  0  0
    8.2863  -17.3358   27.4769 C   0  0  1  0  0  0  0  0  0  0  0  0
    7.6531  -18.3580   26.5588 C   0  0  0  0  0  0  0  0  0  0  0  0
    7.4976  -19.9622   27.3892 S   0  0  0  0  0  0  0  0  0  0  0  0
    9.5516  -17.8235   28.0727 C   0  0  0  0  0  0  0  0  0  0  0  0
    9.5905  -18.4731   29.2957 O   0  0  0  0  0  0  0  0  0  0  0  0
   10.6382  -17.6544   27.4688 O   0  0  0  0  0  0  0  0  0  0  0  0
  2  1  1  6
  2  3  1  0
  4  2  1  0
  5  4  1  0
  5  6  1  1
  7  5  1  0
  7  8  2  0
  9  7  1  0
 10 13  1  0
 10  9  1  0
 10 11  1  1
 12 11  1  0
 13 15  1  0
 14 13  2  0
 15 16  1  0
 16 19  1  0
 17 18  1  0
 16 17  1  6
 19 21  2  0
 19 20  1  0
M  END
$$$$
