LCC.pdb
     RDKit          3D

 21 20  0  0  1  0  0  0  0  0999 V2000
    8.2124  -12.1693   18.5639 C   0  0  0  0  0  0  0  0  0  0  0  0
    7.6559  -13.5298   18.9867 C   0  0  2  0  0  0  0  0  0  0  0  0
    6.7136  -13.2977   20.1261 C   0  0  0  0  0  0  0  0  0  0  0  0
    8.8356  -14.3743   19.3420 C   0  0  0  0  0  0  0  0  0  0  0  0
    9.7886  -14.6423   18.2023 C   0  0  2  0  0  0  0  0  0  0  0  0
    9.0552  -15.4869   17.2649 N   0  0  0  0  0  0  0  0  0  0  0  0
   10.9932  -15.3016   18.7046 C   0  0  0  0  0  0  0  0  0  0  0  0
   11.0204  -16.5330   18.9485 O   0  0  0  0  0  0  0  0  0  0  0  0
   12.2272  -14.6119   18.9582 N   0  0  0  0  0  0  0  0  0  0  0  0
   13.3689  -15.2854   19.5457 C   0  0  1  0  0  0  0  0  0  0  0  0
   14.6057  -14.5117   19.0837 C   0  0  0  0  0  0  0  0  0  0  0  0
   14.8837  -14.9577   17.3401 S   0  0  0  0  0  0  0  0  0  0  0  0
   13.3532  -15.2027   21.0291 C   0  0  0  0  0  0  0  0  0  0  0  0
   12.7769  -14.2467   21.6101 O   0  0  0  0  0  0  0  0  0  0  0  0
   13.9913  -16.2063   21.8086 N   0  0  0  0  0  0  0  0  0  0  0  0
   13.5145  -16.6201   23.1044 C   0  0  1  0  0  0  0  0  0  0  0  0
   12.0462  -16.9843   23.0804 C   0  0  0  0  0  0  0  0  0  0  0  0
   11.4667  -17.4365   24.7377 S   0  0  0  0  0  0  0  0  0  0  0  0
   14.3493  -17.6913   23.6955 C   0  0  0  0  0  0  0  0  0  0  0  0
   14.9388  -17.5655   24.9429 O   0  0  0  0  0  0  0  0  0  0  0  0
   14.5439  -18.7583   23.0649 O   0  0  0  0  0  0  0  0  0  0  0  0
  2  1  1  1
  2  3  1  0
  4  2  1  0
  5  4  1  0
  5  6  1  6
  7  5  1  0
  7  8  2  0
  9  7  1  0
 10 13  1  0
 10  9  1  0
 10 11  1  6
 12 11  1  0
 13 15  1  0
 14 13  2  0
 15 16  1  0
 16 19  1  0
 17 18  1  0
 16 17  1  6
 19 21  2  0
 19 20  1  0
M  END
$$$$
