WLA.pdb
     RDKit          3D

 28 29  0  0  1  0  0  0  0  0999 V2000
   27.7511  -21.1475  -14.4632 N   0  0  0  0  0  0  0  0  0  0  0  0
   26.8250  -20.2173  -13.8122 C   0  0  1  0  0  0  0  0  0  0  0  0
   25.9210  -19.5879  -14.8151 C   0  0  0  0  0  0  0  0  0  0  0  0
   26.6177  -18.6889  -15.7546 C   0  0  0  0  0  0  0  0  0  0  0  0
   26.9057  -19.0164  -17.0854 C   0  0  0  0  0  0  0  0  0  0  0  0
   27.5161  -17.9780  -17.6728 N   0  0  0  0  0  0  0  0  0  0  0  0
   27.6546  -16.9513  -16.7843 C   0  0  0  0  0  0  0  0  0  0  0  0
   28.2130  -15.6927  -16.9063 C   0  0  0  0  0  0  0  0  0  0  0  0
   28.2244  -14.8482  -15.8296 C   0  0  0  0  0  0  0  0  0  0  0  0
   27.6748  -15.2772  -14.6425 C   0  0  0  0  0  0  0  0  0  0  0  0
   27.1211  -16.5355  -14.5357 C   0  0  0  0  0  0  0  0  0  0  0  0
   27.0938  -17.4145  -15.6099 C   0  0  0  0  0  0  0  0  0  0  0  0
   26.2010  -20.8899  -12.6742 C   0  0  0  0  0  0  0  0  0  0  0  0
   26.0000  -22.1519  -12.7292 O   0  0  0  0  0  0  0  0  0  0  0  0
   27.1906  -21.6984   -8.6091 C   0  0  0  0  0  0  0  0  0  0  0  0
   26.7819  -20.2487   -8.8226 C   0  0  2  0  0  0  0  0  0  0  0  0
   27.0703  -19.5274   -7.5181 C   0  0  0  0  0  0  0  0  0  0  0  0
   25.3321  -20.2529   -9.1545 C   0  0  0  0  0  0  0  0  0  0  0  0
   25.0039  -20.9653  -10.4581 C   0  0  2  0  0  0  0  0  0  0  0  0
   25.7789  -20.2737  -11.4594 N   0  0  0  0  0  0  0  0  0  0  0  0
   23.5797  -20.8946  -10.7839 C   0  0  0  0  0  0  0  0  0  0  0  0
   22.6761  -21.3105   -9.9742 O   0  0  0  0  0  0  0  0  0  0  0  0
   21.4930  -19.5309  -13.5389 C   0  0  0  0  0  0  0  0  0  0  0  0
   21.6596  -20.4044  -12.2868 C   0  0  2  0  0  0  0  0  0  0  0  0
   23.0990  -20.3630  -12.0073 N   0  0  0  0  0  0  0  0  0  0  0  0
   21.1794  -21.7599  -12.5653 C   0  0  0  0  0  0  0  0  0  0  0  0
   21.8946  -22.7503  -12.8291 O   0  0  0  0  0  0  0  0  0  0  0  0
   19.8040  -21.9963  -12.5406 O   0  0  0  0  0  0  0  0  0  0  0  0
  2  1  1  6
  2 13  1  0
  3  2  1  0
  4  3  1  0
  5  4  2  0
  6  7  1  0
  6  5  1  0
  7 12  2  0
  8  9  2  0
  8  7  1  0
  9 10  1  0
 10 11  2  0
 12 11  1  0
 12  4  1  0
 13 14  2  0
 16 18  1  0
 16 15  1  1
 17 16  1  0
 19 18  1  1
 20 13  1  0
 20 19  1  0
 21 25  1  0
 21 19  1  0
 22 21  2  0
 24 23  1  6
 24 26  1  0
 24 25  1  0
 26 28  1  0
 27 26  2  0
M  END
$$$$
