WLA.pdb
     RDKit          3D

 28 29  0  0  1  0  0  0  0  0999 V2000
   27.1362  -21.8411   -9.6583 N   0  0  0  0  0  0  0  0  0  0  0  0
   26.6702  -20.4552   -9.5633 C   0  0  1  0  0  0  0  0  0  0  0  0
   27.7162  -19.5902   -8.9493 C   0  0  0  0  0  0  0  0  0  0  0  0
   28.4505  -20.2436   -7.8493 C   0  0  0  0  0  0  0  0  0  0  0  0
   29.4978  -21.1540   -8.0377 C   0  0  0  0  0  0  0  0  0  0  0  0
   29.9674  -21.5393   -6.8432 N   0  0  0  0  0  0  0  0  0  0  0  0
   29.2729  -20.9206   -5.8443 C   0  0  0  0  0  0  0  0  0  0  0  0
   29.3749  -20.9905   -4.4675 C   0  0  0  0  0  0  0  0  0  0  0  0
   28.5283  -20.2522   -3.6861 C   0  0  0  0  0  0  0  0  0  0  0  0
   27.5889  -19.4518   -4.2962 C   0  0  0  0  0  0  0  0  0  0  0  0
   27.4991  -19.3919   -5.6708 C   0  0  0  0  0  0  0  0  0  0  0  0
   28.3439  -20.1283   -6.4902 C   0  0  0  0  0  0  0  0  0  0  0  0
   26.1367  -20.0456  -10.8611 C   0  0  0  0  0  0  0  0  0  0  0  0
   25.4953  -18.9428  -10.9518 O   0  0  0  0  0  0  0  0  0  0  0  0
   28.2677  -20.7494  -16.3971 C   0  0  0  0  0  0  0  0  0  0  0  0
   27.1142  -20.1083  -15.6405 C   0  0  2  0  0  0  0  0  0  0  0  0
   27.3488  -18.6092  -15.6948 C   0  0  0  0  0  0  0  0  0  0  0  0
   27.1632  -20.6353  -14.2505 C   0  0  0  0  0  0  0  0  0  0  0  0
   26.0120  -20.1628  -13.3752 C   0  0  2  0  0  0  0  0  0  0  0  0
   26.2600  -20.7636  -12.0871 N   0  0  0  0  0  0  0  0  0  0  0  0
   24.7123  -20.5923  -13.8910 C   0  0  0  0  0  0  0  0  0  0  0  0
   24.2567  -20.1765  -15.0155 O   0  0  0  0  0  0  0  0  0  0  0  0
   22.2978  -23.2431  -13.4826 C   0  0  0  0  0  0  0  0  0  0  0  0
   22.5133  -21.7371  -13.6925 C   0  0  2  0  0  0  0  0  0  0  0  0
   23.8705  -21.4939  -13.1919 N   0  0  0  0  0  0  0  0  0  0  0  0
   21.4974  -20.9868  -12.9506 C   0  0  0  0  0  0  0  0  0  0  0  0
   21.7140  -20.1987  -12.0052 O   0  0  0  0  0  0  0  0  0  0  0  0
   20.1582  -21.1466  -13.3100 O   0  0  0  0  0  0  0  0  0  0  0  0
  2  1  1  6
  2 13  1  0
  3  2  1  0
  4  3  1  0
  5  4  2  0
  6  7  1  0
  6  5  1  0
  7 12  2  0
  8  9  2  0
  8  7  1  0
  9 10  1  0
 10 11  2  0
 12 11  1  0
 12  4  1  0
 13 14  2  0
 16 18  1  0
 16 15  1  6
 17 16  1  0
 19 18  1  6
 20 13  1  0
 20 19  1  0
 21 25  1  0
 21 19  1  0
 22 21  2  0
 24 23  1  1
 24 26  1  0
 24 25  1  0
 26 28  1  0
 27 26  2  0
M  END
$$$$
