WLA.pdb
     RDKit          3D

 28 29  0  0  1  0  0  0  0  0999 V2000
   27.3705  -19.1531  -10.8125 N   0  0  0  0  0  0  0  0  0  0  0  0
   26.1457  -19.7256  -11.3771 C   0  0  1  0  0  0  0  0  0  0  0  0
   25.0321  -19.6615  -10.3896 C   0  0  0  0  0  0  0  0  0  0  0  0
   25.3897  -20.1967   -9.0622 C   0  0  0  0  0  0  0  0  0  0  0  0
   24.6858  -21.2189   -8.4134 C   0  0  0  0  0  0  0  0  0  0  0  0
   25.2812  -21.4906   -7.2439 N   0  0  0  0  0  0  0  0  0  0  0  0
   26.3698  -20.6852   -7.0734 C   0  0  0  0  0  0  0  0  0  0  0  0
   27.2903  -20.5808   -6.0475 C   0  0  0  0  0  0  0  0  0  0  0  0
   28.3010  -19.6622   -6.1336 C   0  0  0  0  0  0  0  0  0  0  0  0
   28.3758  -18.8590   -7.2491 C   0  0  0  0  0  0  0  0  0  0  0  0
   27.4505  -18.9746   -8.2648 C   0  0  0  0  0  0  0  0  0  0  0  0
   26.4145  -19.8970   -8.2069 C   0  0  0  0  0  0  0  0  0  0  0  0
   25.9108  -19.1352  -12.6936 C   0  0  0  0  0  0  0  0  0  0  0  0
   25.6435  -17.8873  -12.7787 O   0  0  0  0  0  0  0  0  0  0  0  0
   28.5900  -18.7308  -17.6496 C   0  0  0  0  0  0  0  0  0  0  0  0
   27.3947  -18.2693  -16.8297 C   0  0  2  0  0  0  0  0  0  0  0  0
   27.8959  -17.1461  -15.9394 C   0  0  0  0  0  0  0  0  0  0  0  0
   26.9294  -19.4440  -16.0451 C   0  0  0  0  0  0  0  0  0  0  0  0
   25.6923  -19.1678  -15.2037 C   0  0  2  0  0  0  0  0  0  0  0  0
   25.9524  -19.8204  -13.9435 N   0  0  0  0  0  0  0  0  0  0  0  0
   24.4773  -19.7099  -15.8118 C   0  0  0  0  0  0  0  0  0  0  0  0
   24.0855  -19.3542  -16.9801 O   0  0  0  0  0  0  0  0  0  0  0  0
   22.1251  -22.4733  -15.1836 C   0  0  0  0  0  0  0  0  0  0  0  0
   22.4182  -21.1048  -15.8156 C   0  0  2  0  0  0  0  0  0  0  0  0
   23.6533  -20.6618  -15.1598 N   0  0  0  0  0  0  0  0  0  0  0  0
   21.2943  -20.1984  -15.5691 C   0  0  0  0  0  0  0  0  0  0  0  0
   20.3001  -20.0461  -16.3109 O   0  0  0  0  0  0  0  0  0  0  0  0
   21.3080  -19.4223  -14.4090 O   0  0  0  0  0  0  0  0  0  0  0  0
  2  1  1  1
  2 13  1  0
  3  2  1  0
  4  3  1  0
  5  4  2  0
  6  7  1  0
  6  5  1  0
  7 12  2  0
  8  9  2  0
  8  7  1  0
  9 10  1  0
 10 11  2  0
 12 11  1  0
 12  4  1  0
 13 14  2  0
 16 18  1  0
 16 15  1  6
 17 16  1  0
 19 18  1  6
 20 13  1  0
 20 19  1  0
 21 25  1  0
 21 19  1  0
 22 21  2  0
 24 23  1  1
 24 26  1  0
 24 25  1  0
 26 28  1  0
 27 26  2  0
M  END
$$$$
