WLA.pdb
     RDKit          3D

 28 29  0  0  1  0  0  0  0  0999 V2000
   25.5023  -18.5274   -8.5635 N   0  0  0  0  0  0  0  0  0  0  0  0
   26.0392  -19.7691   -9.1264 C   0  0  1  0  0  0  0  0  0  0  0  0
   25.7961  -20.9127   -8.2032 C   0  0  0  0  0  0  0  0  0  0  0  0
   26.2846  -20.6770   -6.8313 C   0  0  0  0  0  0  0  0  0  0  0  0
   25.4527  -20.5749   -5.7094 C   0  0  0  0  0  0  0  0  0  0  0  0
   26.2063  -20.3898   -4.6169 N   0  0  0  0  0  0  0  0  0  0  0  0
   27.5277  -20.3617   -4.9577 C   0  0  0  0  0  0  0  0  0  0  0  0
   28.6734  -20.1947   -4.2026 C   0  0  0  0  0  0  0  0  0  0  0  0
   29.8969  -20.2014   -4.8154 C   0  0  0  0  0  0  0  0  0  0  0  0
   29.9560  -20.3760   -6.1796 C   0  0  0  0  0  0  0  0  0  0  0  0
   28.8046  -20.5418   -6.9200 C   0  0  0  0  0  0  0  0  0  0  0  0
   27.5492  -20.5402   -6.3273 C   0  0  0  0  0  0  0  0  0  0  0  0
   25.5689  -19.9061  -10.5037 C   0  0  0  0  0  0  0  0  0  0  0  0
   24.5384  -19.2481  -10.8792 O   0  0  0  0  0  0  0  0  0  0  0  0
   27.4538  -18.8129  -14.4070 C   0  0  0  0  0  0  0  0  0  0  0  0
   28.0556  -20.0303  -13.7216 C   0  0  2  0  0  0  0  0  0  0  0  0
   29.2437  -20.4525  -14.5674 C   0  0  0  0  0  0  0  0  0  0  0  0
   26.9949  -21.0721  -13.6817 C   0  0  0  0  0  0  0  0  0  0  0  0
   25.7564  -20.6561  -12.9021 C   0  0  2  0  0  0  0  0  0  0  0  0
   26.1561  -20.7195  -11.5172 N   0  0  0  0  0  0  0  0  0  0  0  0
   24.6247  -21.5511  -13.1426 C   0  0  0  0  0  0  0  0  0  0  0  0
   24.6844  -22.8061  -12.8847 O   0  0  0  0  0  0  0  0  0  0  0  0
   21.0698  -21.2358  -14.1393 C   0  0  0  0  0  0  0  0  0  0  0  0
   22.3425  -22.0800  -13.9779 C   0  0  2  0  0  0  0  0  0  0  0  0
   23.3893  -21.0991  -13.6715 N   0  0  0  0  0  0  0  0  0  0  0  0
   22.6058  -22.8148  -15.2173 C   0  0  0  0  0  0  0  0  0  0  0  0
   23.4810  -22.5332  -16.0638 O   0  0  0  0  0  0  0  0  0  0  0  0
   21.8243  -23.9350  -15.5050 O   0  0  0  0  0  0  0  0  0  0  0  0
  2  1  1  1
  2 13  1  0
  3  2  1  0
  4  3  1  0
  5  4  2  0
  6  7  1  0
  6  5  1  0
  7 12  2  0
  8  9  2  0
  8  7  1  0
  9 10  1  0
 10 11  2  0
 12 11  1  0
 12  4  1  0
 13 14  2  0
 16 18  1  0
 16 15  1  6
 17 16  1  0
 19 18  1  6
 20 13  1  0
 20 19  1  0
 21 25  1  0
 21 19  1  0
 22 21  2  0
 24 23  1  6
 24 26  1  0
 24 25  1  0
 26 28  1  0
 27 26  2  0
M  END
$$$$
