WLA.pdb
     RDKit          3D

 28 29  0  0  1  0  0  0  0  0999 V2000
   23.7700  -20.0175  -11.7290 N   0  0  0  0  0  0  0  0  0  0  0  0
   25.2142  -19.8551  -11.9151 C   0  0  1  0  0  0  0  0  0  0  0  0
   25.9611  -20.9118  -11.1769 C   0  0  0  0  0  0  0  0  0  0  0  0
   26.0530  -20.6641   -9.7256 C   0  0  0  0  0  0  0  0  0  0  0  0
   24.9463  -20.5971   -8.8700 C   0  0  0  0  0  0  0  0  0  0  0  0
   25.3703  -20.3892   -7.6160 N   0  0  0  0  0  0  0  0  0  0  0  0
   26.7327  -20.3114   -7.5882 C   0  0  0  0  0  0  0  0  0  0  0  0
   27.6256  -20.1058   -6.5532 C   0  0  0  0  0  0  0  0  0  0  0  0
   28.9684  -20.0653   -6.8135 C   0  0  0  0  0  0  0  0  0  0  0  0
   29.3994  -20.2320   -8.1104 C   0  0  0  0  0  0  0  0  0  0  0  0
   28.4969  -20.4366   -9.1327 C   0  0  0  0  0  0  0  0  0  0  0  0
   27.1290  -20.4833   -8.9003 C   0  0  0  0  0  0  0  0  0  0  0  0
   25.4936  -19.7078  -13.3424 C   0  0  0  0  0  0  0  0  0  0  0  0
   24.7720  -20.3408  -14.1877 O   0  0  0  0  0  0  0  0  0  0  0  0
   24.9780  -16.5545  -16.3582 C   0  0  0  0  0  0  0  0  0  0  0  0
   26.0398  -16.2705  -15.3066 C   0  0  2  0  0  0  0  0  0  0  0  0
   26.5205  -14.8523  -15.5575 C   0  0  0  0  0  0  0  0  0  0  0  0
   27.1205  -17.2736  -15.5019 C   0  0  0  0  0  0  0  0  0  0  0  0
   26.6555  -18.7137  -15.3452 C   0  0  2  0  0  0  0  0  0  0  0  0
   26.5178  -18.9020  -13.9214 N   0  0  0  0  0  0  0  0  0  0  0  0
   27.6201  -19.6689  -15.8900 C   0  0  0  0  0  0  0  0  0  0  0  0
   28.0377  -19.5970  -17.1006 O   0  0  0  0  0  0  0  0  0  0  0  0
   29.8133  -22.3381  -14.5682 C   0  0  0  0  0  0  0  0  0  0  0  0
   29.1203  -21.6478  -15.7521 C   0  0  2  0  0  0  0  0  0  0  0  0
   28.1606  -20.7329  -15.1246 N   0  0  0  0  0  0  0  0  0  0  0  0
   28.4699  -22.6532  -16.5956 C   0  0  0  0  0  0  0  0  0  0  0  0
   27.2377  -22.7930  -16.7504 O   0  0  0  0  0  0  0  0  0  0  0  0
   29.2738  -23.5492  -17.3022 O   0  0  0  0  0  0  0  0  0  0  0  0
  2  1  1  6
  2 13  1  0
  3  2  1  0
  4  3  1  0
  5  4  2  0
  6  7  1  0
  6  5  1  0
  7 12  2  0
  8  9  2  0
  8  7  1  0
  9 10  1  0
 10 11  2  0
 12 11  1  0
 12  4  1  0
 13 14  2  0
 16 18  1  0
 16 15  1  6
 17 16  1  0
 19 18  1  1
 20 13  1  0
 20 19  1  0
 21 25  1  0
 21 19  1  0
 22 21  2  0
 24 23  1  1
 24 26  1  0
 24 25  1  0
 26 28  1  0
 27 26  2  0
M  END
$$$$
