WLA.pdb
     RDKit          3D

 28 29  0  0  1  0  0  0  0  0999 V2000
   27.4384  -20.5831  -15.0265 N   0  0  0  0  0  0  0  0  0  0  0  0
   26.4499  -19.8517  -14.2298 C   0  0  1  0  0  0  0  0  0  0  0  0
   25.4347  -19.2105  -15.1117 C   0  0  0  0  0  0  0  0  0  0  0  0
   26.0038  -18.2122  -16.0368 C   0  0  0  0  0  0  0  0  0  0  0  0
   25.9472  -18.3147  -17.4323 C   0  0  0  0  0  0  0  0  0  0  0  0
   26.5276  -17.2368  -17.9774 N   0  0  0  0  0  0  0  0  0  0  0  0
   26.9794  -16.4012  -16.9974 C   0  0  0  0  0  0  0  0  0  0  0  0
   27.6389  -15.1874  -17.0495 C   0  0  0  0  0  0  0  0  0  0  0  0
   27.9886  -14.5548  -15.8875 C   0  0  0  0  0  0  0  0  0  0  0  0
   27.6718  -15.1483  -14.6864 C   0  0  0  0  0  0  0  0  0  0  0  0
   27.0135  -16.3593  -14.6500 C   0  0  0  0  0  0  0  0  0  0  0  0
   26.6450  -17.0250  -15.8112 C   0  0  0  0  0  0  0  0  0  0  0  0
   25.9592  -20.7260  -13.1660 C   0  0  0  0  0  0  0  0  0  0  0  0
   25.9493  -21.9912  -13.3536 O   0  0  0  0  0  0  0  0  0  0  0  0
   27.2253  -21.8984   -9.5909 C   0  0  0  0  0  0  0  0  0  0  0  0
   26.5747  -20.5355   -9.4084 C   0  0  2  0  0  0  0  0  0  0  0  0
   26.9087  -20.0888   -7.9963 C   0  0  0  0  0  0  0  0  0  0  0  0
   25.1129  -20.7244   -9.6077 C   0  0  0  0  0  0  0  0  0  0  0  0
   24.7400  -21.1847  -11.0090 C   0  0  2  0  0  0  0  0  0  0  0  0
   25.4758  -20.3109  -11.8903 N   0  0  0  0  0  0  0  0  0  0  0  0
   23.3046  -21.0688  -11.2657 C   0  0  0  0  0  0  0  0  0  0  0  0
   22.4309  -21.5993  -10.4909 O   0  0  0  0  0  0  0  0  0  0  0  0
   21.0846  -19.1781  -13.5345 C   0  0  0  0  0  0  0  0  0  0  0  0
   21.3327  -20.3857  -12.6188 C   0  0  2  0  0  0  0  0  0  0  0  0
   22.7798  -20.3651  -12.3791 N   0  0  0  0  0  0  0  0  0  0  0  0
   20.8911  -21.6106  -13.2896 C   0  0  0  0  0  0  0  0  0  0  0  0
   21.6351  -22.5104  -13.7353 O   0  0  0  0  0  0  0  0  0  0  0  0
   19.5215  -21.8185  -13.4604 O   0  0  0  0  0  0  0  0  0  0  0  0
  2  1  1  6
  2 13  1  0
  3  2  1  0
  4  3  1  0
  5  4  2  0
  6  7  1  0
  6  5  1  0
  7 12  2  0
  8  9  2  0
  8  7  1  0
  9 10  1  0
 10 11  2  0
 12 11  1  0
 12  4  1  0
 13 14  2  0
 16 18  1  0
 16 15  1  1
 17 16  1  0
 19 18  1  1
 20 13  1  0
 20 19  1  0
 21 25  1  0
 21 19  1  0
 22 21  2  0
 24 23  1  6
 24 26  1  0
 24 25  1  0
 26 28  1  0
 27 26  2  0
M  END
$$$$
