NRF.pdb
     RDKit          3D

 31 31  0  0  1  0  0  0  0  0999 V2000
    9.3719  -13.2432   16.5074 N   0  0  0  0  0  0  0  0  0  0  0  0
    8.0731  -13.1687   17.0347 C   0  0  0  0  0  0  0  0  0  0  0  0
    7.1278  -12.5443   16.4879 O   0  0  0  0  0  0  0  0  0  0  0  0
    7.7621  -13.8537   18.3080 C   0  0  0  0  0  0  0  0  0  0  0  0
    8.9872  -14.3874   19.0142 C   0  0  2  0  0  0  0  0  0  0  0  0
    9.8199  -15.2071   18.1954 N   0  0  0  0  0  0  0  0  0  0  0  0
    8.5707  -15.0177   20.2839 C   0  0  0  0  0  0  0  0  0  0  0  0
    7.9210  -14.3872   21.1572 O   0  0  0  0  0  0  0  0  0  0  0  0
    6.3986  -21.9395   17.8134 N   0  0  0  0  0  0  0  0  0  0  0  0
    7.1571  -21.2977   18.8226 C   0  0  0  0  0  0  0  0  0  0  0  0
    8.1520  -20.5595   18.4214 N   0  0  0  0  0  0  0  0  0  0  0  0
    6.8912  -21.4211   20.2013 N   0  0  0  0  0  0  0  0  0  0  0  0
    7.6213  -20.6833   21.2312 C   0  0  0  0  0  0  0  0  0  0  0  0
    7.5777  -19.2114   20.9904 C   0  0  0  0  0  0  0  0  0  0  0  0
    8.3049  -18.4226   21.9864 C   0  0  0  0  0  0  0  0  0  0  0  0
    8.4885  -16.9702   21.8724 C   0  0  2  0  0  0  0  0  0  0  0  0
    8.8704  -16.3900   20.6271 N   0  0  0  0  0  0  0  0  0  0  0  0
    9.3963  -16.4051   22.9219 C   0  0  0  0  0  0  0  0  0  0  0  0
   10.6432  -16.4689   22.8054 O   0  0  0  0  0  0  0  0  0  0  0  0
    8.8411  -20.1270   19.0701 N   0  0  0  0  0  0  0  0  0  0  0  0
    8.8851  -15.7742   24.0903 C   0  0  1  0  0  0  0  0  0  0  0  0
    9.7434  -15.4416   25.2327 C   0  0  0  0  0  0  0  0  0  0  0  0
    9.6751  -13.9660   25.5263 C   0  0  0  0  0  0  0  0  0  0  0  0
    8.3294  -13.5244   25.9417 C   0  0  0  0  0  0  0  0  0  0  0  0
    7.9758  -13.3612   27.2680 C   0  0  0  0  0  0  0  0  0  0  0  0
    6.7065  -12.9283   27.5643 C   0  0  0  0  0  0  0  0  0  0  0  0
    5.7625  -12.6465   26.6145 C   0  0  0  0  0  0  0  0  0  0  0  0
    6.1177  -12.8102   25.2944 C   0  0  0  0  0  0  0  0  0  0  0  0
    7.3747  -13.2397   24.9728 C   0  0  0  0  0  0  0  0  0  0  0  0
    9.4180  -16.2854   26.3978 O   0  0  0  0  0  0  0  0  0  0  0  0
   10.2301  -16.2561   27.5387 O   0  0  0  0  0  0  0  0  0  0  0  0
  2  1  1  0
  3  2  2  0
  4  2  1  0
  5  4  1  0
  5  6  1  6
  7  8  2  0
  7  5  1  0
  9 10  1  0
 10 12  1  0
 10 11  2  0
 12 13  1  0
 14 13  1  0
 15 14  1  0
 16 15  1  6
 16 17  1  0
 17  7  1  0
 18 16  1  0
 19 18  2  0
 20 18  1  0
 21 20  1  0
 22 23  1  0
 21 22  1  6
 23 28  2  0
 24 25  2  0
 24 23  1  0
 25 26  1  0
 26 27  2  0
 28 27  1  0
 29 21  1  0
 29 30  1  0
 31 29  2  0
M  END
$$$$
