NRF.pdb
     RDKit          3D

 31 31  0  0  1  0  0  0  0  0999 V2000
    8.9108  -20.2961   17.2133 N   0  0  0  0  0  0  0  0  0  0  0  0
    8.2554  -19.6129   18.2497 C   0  0  0  0  0  0  0  0  0  0  0  0
    7.2565  -20.0642   18.8670 O   0  0  0  0  0  0  0  0  0  0  0  0
    8.7419  -18.2801   18.6669 C   0  0  0  0  0  0  0  0  0  0  0  0
    9.2831  -18.2561   20.0780 C   0  0  2  0  0  0  0  0  0  0  0  0
    8.5255  -19.0325   21.0049 N   0  0  0  0  0  0  0  0  0  0  0  0
    9.4916  -16.8516   20.4864 C   0  0  0  0  0  0  0  0  0  0  0  0
    9.8112  -15.9593   19.6594 O   0  0  0  0  0  0  0  0  0  0  0  0
    9.5801  -14.0730   18.0038 N   0  0  0  0  0  0  0  0  0  0  0  0
    8.3286  -13.6215   17.5184 C   0  0  0  0  0  0  0  0  0  0  0  0
    8.1263  -13.7358   16.2370 N   0  0  0  0  0  0  0  0  0  0  0  0
    7.3233  -13.0686   18.3370 N   0  0  0  0  0  0  0  0  0  0  0  0
    7.4555  -12.9208   19.7858 C   0  0  0  0  0  0  0  0  0  0  0  0
    7.9614  -14.1713   20.4235 C   0  0  0  0  0  0  0  0  0  0  0  0
    8.9034  -13.9421   21.5203 C   0  0  0  0  0  0  0  0  0  0  0  0
    9.5826  -15.0349   22.2281 C   0  0  2  0  0  0  0  0  0  0  0  0
    9.3504  -16.3898   21.8494 N   0  0  0  0  0  0  0  0  0  0  0  0
    9.4322  -14.9583   23.7168 C   0  0  0  0  0  0  0  0  0  0  0  0
    9.3105  -13.8559   24.3017 O   0  0  0  0  0  0  0  0  0  0  0  0
    7.3141  -13.3092   15.7462 N   0  0  0  0  0  0  0  0  0  0  0  0
    9.4204  -16.1278   24.5272 C   0  0  2  0  0  0  0  0  0  0  0  0
    9.0211  -16.0913   25.9385 C   0  0  0  0  0  0  0  0  0  0  0  0
    7.5777  -15.6797   26.0633 C   0  0  0  0  0  0  0  0  0  0  0  0
    7.4127  -14.2383   26.3351 C   0  0  0  0  0  0  0  0  0  0  0  0
    8.4622  -13.4305   26.7313 C   0  0  0  0  0  0  0  0  0  0  0  0
    8.2231  -12.0951   26.9447 C   0  0  0  0  0  0  0  0  0  0  0  0
    6.9952  -11.5118   26.7867 C   0  0  0  0  0  0  0  0  0  0  0  0
    5.9520  -12.3190   26.3921 C   0  0  0  0  0  0  0  0  0  0  0  0
    6.1635  -13.6514   26.1731 C   0  0  0  0  0  0  0  0  0  0  0  0
    9.3234  -17.3725   26.6035 O   0  0  0  0  0  0  0  0  0  0  0  0
    9.8583  -18.4391   25.8700 O   0  0  0  0  0  0  0  0  0  0  0  0
  2  1  1  0
  3  2  2  0
  4  2  1  0
  5  4  1  0
  5  6  1  1
  7  8  2  0
  7  5  1  0
  9 10  1  0
 10 12  1  0
 10 11  2  0
 12 13  1  0
 14 13  1  0
 15 14  1  0
 16 15  1  6
 16 17  1  0
 17  7  1  0
 18 16  1  0
 19 18  2  0
 20 18  1  0
 21 20  1  0
 22 23  1  0
 21 22  1  1
 23 28  2  0
 24 25  2  0
 24 23  1  0
 25 26  1  0
 26 27  2  0
 28 27  1  0
 29 21  1  0
 29 30  1  0
 31 29  2  0
M  END
$$$$
