NRF.pdb
     RDKit          3D

 31 31  0  0  1  0  0  0  0  0999 V2000
    8.1834  -12.6195   17.4768 N   0  0  0  0  0  0  0  0  0  0  0  0
    7.5003  -13.8450   17.4334 C   0  0  0  0  0  0  0  0  0  0  0  0
    6.8584  -14.2564   16.4329 O   0  0  0  0  0  0  0  0  0  0  0  0
    7.5150  -14.7309   18.6176 C   0  0  0  0  0  0  0  0  0  0  0  0
    8.0605  -14.0615   19.8581 C   0  0  2  0  0  0  0  0  0  0  0  0
    9.2077  -13.2465   19.6226 N   0  0  0  0  0  0  0  0  0  0  0  0
    8.2431  -15.0816   20.9110 C   0  0  0  0  0  0  0  0  0  0  0  0
    7.3057  -15.8382   21.2733 O   0  0  0  0  0  0  0  0  0  0  0  0
   13.5616  -20.1107   19.8623 N   0  0  0  0  0  0  0  0  0  0  0  0
   12.2996  -20.5075   20.3679 C   0  0  0  0  0  0  0  0  0  0  0  0
   11.4384  -20.9523   19.4982 N   0  0  0  0  0  0  0  0  0  0  0  0
   11.9450  -20.4421   21.7305 N   0  0  0  0  0  0  0  0  0  0  0  0
   12.2740  -19.3092   22.5945 C   0  0  0  0  0  0  0  0  0  0  0  0
   11.0547  -18.5466   22.9919 C   0  0  0  0  0  0  0  0  0  0  0  0
   10.8083  -17.3524   22.1819 C   0  0  0  0  0  0  0  0  0  0  0  0
    9.7155  -16.4121   22.4615 C   0  0  2  0  0  0  0  0  0  0  0  0
    9.4936  -15.2937   21.6054 N   0  0  0  0  0  0  0  0  0  0  0  0
    9.7232  -15.8987   23.8691 C   0  0  0  0  0  0  0  0  0  0  0  0
   10.5159  -14.9955   24.2269 O   0  0  0  0  0  0  0  0  0  0  0  0
   10.4785  -21.2636   19.7518 N   0  0  0  0  0  0  0  0  0  0  0  0
    8.8352  -16.4111   24.8557 C   0  0  2  0  0  0  0  0  0  0  0  0
    8.8373  -15.9148   26.2362 C   0  0  0  0  0  0  0  0  0  0  0  0
    7.4785  -15.3772   26.6010 C   0  0  0  0  0  0  0  0  0  0  0  0
    7.2936  -13.9669   26.2065 C   0  0  0  0  0  0  0  0  0  0  0  0
    8.1497  -12.9613   26.6147 C   0  0  0  0  0  0  0  0  0  0  0  0
    7.9136  -11.6785   26.1848 C   0  0  0  0  0  0  0  0  0  0  0  0
    6.8706  -11.3343   25.3684 C   0  0  0  0  0  0  0  0  0  0  0  0
    6.0196  -12.3382   24.9637 C   0  0  0  0  0  0  0  0  0  0  0  0
    6.2326  -13.6232   25.3774 C   0  0  0  0  0  0  0  0  0  0  0  0
    9.3256  -16.9500   27.1662 O   0  0  0  0  0  0  0  0  0  0  0  0
    9.6289  -18.2342   26.6962 O   0  0  0  0  0  0  0  0  0  0  0  0
  2  1  1  0
  3  2  2  0
  4  2  1  0
  5  4  1  0
  5  6  1  6
  7  8  2  0
  7  5  1  0
  9 10  1  0
 10 12  1  0
 10 11  2  0
 12 13  1  0
 14 13  1  0
 15 14  1  0
 16 15  1  6
 16 17  1  0
 17  7  1  0
 18 16  1  0
 19 18  2  0
 20 18  1  0
 21 20  1  0
 22 23  1  0
 21 22  1  6
 23 28  2  0
 24 25  2  0
 24 23  1  0
 25 26  1  0
 26 27  2  0
 28 27  1  0
 29 21  1  0
 29 30  1  0
 31 29  2  0
M  END
$$$$
