NRF.pdb
     RDKit          3D

 31 31  0  0  1  0  0  0  0  0999 V2000
    8.4852  -12.4595   18.0553 N   0  0  0  0  0  0  0  0  0  0  0  0
    7.6598  -13.5668   17.8042 C   0  0  0  0  0  0  0  0  0  0  0  0
    7.1618  -13.8311   16.6798 O   0  0  0  0  0  0  0  0  0  0  0  0
    7.3356  -14.4995   18.9051 C   0  0  0  0  0  0  0  0  0  0  0  0
    7.8901  -14.0626   20.2416 C   0  0  2  0  0  0  0  0  0  0  0  0
    9.3092  -13.9159   20.2628 N   0  0  0  0  0  0  0  0  0  0  0  0
    7.3530  -14.9485   21.2949 C   0  0  0  0  0  0  0  0  0  0  0  0
    6.1981  -15.4418   21.2236 O   0  0  0  0  0  0  0  0  0  0  0  0
    9.7584  -20.8771   17.8396 N   0  0  0  0  0  0  0  0  0  0  0  0
   10.4509  -19.7375   18.3167 C   0  0  0  0  0  0  0  0  0  0  0  0
   11.6869  -19.6036   17.9291 N   0  0  0  0  0  0  0  0  0  0  0  0
    9.8783  -18.7719   19.1689 N   0  0  0  0  0  0  0  0  0  0  0  0
    8.5499  -18.9099   19.7645 C   0  0  0  0  0  0  0  0  0  0  0  0
    8.1650  -17.6953   20.5408 C   0  0  0  0  0  0  0  0  0  0  0  0
    8.6122  -17.7121   21.9345 C   0  0  0  0  0  0  0  0  0  0  0  0
    8.2426  -16.6712   22.9022 C   0  0  2  0  0  0  0  0  0  0  0  0
    8.0956  -15.3174   22.4796 N   0  0  0  0  0  0  0  0  0  0  0  0
    9.1117  -16.6632   24.1226 C   0  0  0  0  0  0  0  0  0  0  0  0
    9.9057  -17.6040   24.3610 O   0  0  0  0  0  0  0  0  0  0  0  0
   12.3314  -18.8824   18.3126 N   0  0  0  0  0  0  0  0  0  0  0  0
    9.0742  -15.5925   25.0589 C   0  0  2  0  0  0  0  0  0  0  0  0
    9.1802  -15.8202   26.5044 C   0  0  0  0  0  0  0  0  0  0  0  0
    7.9784  -15.2526   27.2128 C   0  0  0  0  0  0  0  0  0  0  0  0
    7.6169  -13.9021   26.7393 C   0  0  0  0  0  0  0  0  0  0  0  0
    8.5483  -12.8917   26.5894 C   0  0  0  0  0  0  0  0  0  0  0  0
    8.1275  -11.6697   26.1248 C   0  0  0  0  0  0  0  0  0  0  0  0
    6.8280  -11.3912   25.7986 C   0  0  0  0  0  0  0  0  0  0  0  0
    5.9027  -12.3996   25.9492 C   0  0  0  0  0  0  0  0  0  0  0  0
    6.2956  -13.6249   26.4097 C   0  0  0  0  0  0  0  0  0  0  0  0
    9.4111  -17.2472   26.7962 O   0  0  0  0  0  0  0  0  0  0  0  0
   10.2896  -17.6248   27.8198 O   0  0  0  0  0  0  0  0  0  0  0  0
  2  1  1  0
  3  2  2  0
  4  2  1  0
  5  4  1  0
  5  6  1  6
  7  8  2  0
  7  5  1  0
  9 10  1  0
 10 12  1  0
 10 11  2  0
 12 13  1  0
 14 13  1  0
 15 14  1  0
 16 15  1  6
 16 17  1  0
 17  7  1  0
 18 16  1  0
 19 18  2  0
 20 18  1  0
 21 20  1  0
 22 23  1  0
 21 22  1  6
 23 28  2  0
 24 25  2  0
 24 23  1  0
 25 26  1  0
 26 27  2  0
 28 27  1  0
 29 21  1  0
 29 30  1  0
 31 29  2  0
M  END
$$$$
