NRF.pdb
     RDKit          3D

 31 31  0  0  1  0  0  0  0  0999 V2000
    9.2688  -14.6300   15.9431 N   0  0  0  0  0  0  0  0  0  0  0  0
    8.1484  -13.9219   16.4055 C   0  0  0  0  0  0  0  0  0  0  0  0
    7.3666  -13.2787   15.6588 O   0  0  0  0  0  0  0  0  0  0  0  0
    7.8387  -13.9098   17.8515 C   0  0  0  0  0  0  0  0  0  0  0  0
    8.8129  -14.7173   18.6782 C   0  0  2  0  0  0  0  0  0  0  0  0
    9.3697  -15.8373   17.9916 N   0  0  0  0  0  0  0  0  0  0  0  0
    8.1824  -15.0477   19.9728 C   0  0  0  0  0  0  0  0  0  0  0  0
    7.7448  -14.1569   20.7457 O   0  0  0  0  0  0  0  0  0  0  0  0
    6.7581  -20.8398   24.2197 N   0  0  0  0  0  0  0  0  0  0  0  0
    6.1101  -21.5512   23.1806 C   0  0  0  0  0  0  0  0  0  0  0  0
    6.1529  -22.8508   23.2512 N   0  0  0  0  0  0  0  0  0  0  0  0
    5.4425  -20.9323   22.1046 N   0  0  0  0  0  0  0  0  0  0  0  0
    6.1135  -20.0805   21.1235 C   0  0  0  0  0  0  0  0  0  0  0  0
    5.9381  -18.6328   21.4391 C   0  0  0  0  0  0  0  0  0  0  0  0
    7.0835  -18.0286   22.1218 C   0  0  0  0  0  0  0  0  0  0  0  0
    7.5976  -16.6946   21.7861 C   0  0  2  0  0  0  0  0  0  0  0  0
    8.0182  -16.4008   20.4558 N   0  0  0  0  0  0  0  0  0  0  0  0
    8.6843  -16.2310   22.7076 C   0  0  0  0  0  0  0  0  0  0  0  0
    9.6848  -15.6126   22.2730 O   0  0  0  0  0  0  0  0  0  0  0  0
    5.7491  -23.4765   22.5244 N   0  0  0  0  0  0  0  0  0  0  0  0
    8.6278  -16.4707   24.1090 C   0  0  2  0  0  0  0  0  0  0  0  0
    8.5252  -15.3767   25.0811 C   0  0  0  0  0  0  0  0  0  0  0  0
    7.4315  -14.4219   24.6807 C   0  0  0  0  0  0  0  0  0  0  0  0
    7.3102  -13.2705   25.5963 C   0  0  0  0  0  0  0  0  0  0  0  0
    8.2455  -12.2538   25.6417 C   0  0  0  0  0  0  0  0  0  0  0  0
    8.0441  -11.2100   26.5112 C   0  0  0  0  0  0  0  0  0  0  0  0
    6.9616  -11.1168   27.3433 C   0  0  0  0  0  0  0  0  0  0  0  0
    6.0319  -12.1313   27.2958 C   0  0  0  0  0  0  0  0  0  0  0  0
    6.2088  -13.1813   26.4391 C   0  0  0  0  0  0  0  0  0  0  0  0
    8.3701  -15.9029   26.4501 O   0  0  0  0  0  0  0  0  0  0  0  0
    9.2249  -15.4719   27.4725 O   0  0  0  0  0  0  0  0  0  0  0  0
  2  1  1  0
  3  2  2  0
  4  2  1  0
  5  4  1  0
  5  6  1  6
  7  8  2  0
  7  5  1  0
  9 10  1  0
 10 12  1  0
 10 11  2  0
 12 13  1  0
 14 13  1  0
 15 14  1  0
 16 15  1  6
 16 17  1  0
 17  7  1  0
 18 16  1  0
 19 18  2  0
 20 18  1  0
 21 20  1  0
 22 23  1  0
 21 22  1  6
 23 28  2  0
 24 25  2  0
 24 23  1  0
 25 26  1  0
 26 27  2  0
 28 27  1  0
 29 21  1  0
 29 30  1  0
 31 29  2  0
M  END
$$$$
