NRF.pdb
     RDKit          3D

 31 31  0  0  1  0  0  0  0  0999 V2000
    8.0996  -12.0595   18.4891 N   0  0  0  0  0  0  0  0  0  0  0  0
    7.4391  -13.2260   18.0728 C   0  0  0  0  0  0  0  0  0  0  0  0
    7.1216  -13.4656   16.8794 O   0  0  0  0  0  0  0  0  0  0  0  0
    7.0796  -14.2565   19.0708 C   0  0  0  0  0  0  0  0  0  0  0  0
    7.4810  -13.8888   20.4808 C   0  0  2  0  0  0  0  0  0  0  0  0
    8.5385  -12.9338   20.5542 N   0  0  0  0  0  0  0  0  0  0  0  0
    7.7245  -15.1281   21.2473 C   0  0  0  0  0  0  0  0  0  0  0  0
    6.8305  -15.9990   21.4046 O   0  0  0  0  0  0  0  0  0  0  0  0
   11.8600  -15.8819   18.4353 N   0  0  0  0  0  0  0  0  0  0  0  0
   11.7368  -17.1659   17.8505 C   0  0  0  0  0  0  0  0  0  0  0  0
   11.4334  -17.2015   16.5845 N   0  0  0  0  0  0  0  0  0  0  0  0
   11.9207  -18.3708   18.5582 N   0  0  0  0  0  0  0  0  0  0  0  0
   11.5688  -18.5385   19.9675 C   0  0  0  0  0  0  0  0  0  0  0  0
   10.6262  -17.4784   20.4302 C   0  0  0  0  0  0  0  0  0  0  0  0
   10.1319  -17.6743   21.7941 C   0  0  0  0  0  0  0  0  0  0  0  0
    9.2576  -16.7078   22.4707 C   0  0  2  0  0  0  0  0  0  0  0  0
    8.9897  -15.4409   21.8737 N   0  0  0  0  0  0  0  0  0  0  0  0
    9.6479  -16.4535   23.8947 C   0  0  0  0  0  0  0  0  0  0  0  0
   10.7014  -16.9345   24.3754 O   0  0  0  0  0  0  0  0  0  0  0  0
   11.3658  -18.0840   16.0374 N   0  0  0  0  0  0  0  0  0  0  0  0
    8.8441  -15.6586   24.7588 C   0  0  2  0  0  0  0  0  0  0  0  0
    8.9444  -15.7537   26.2193 C   0  0  0  0  0  0  0  0  0  0  0  0
    7.6669  -15.2827   26.8632 C   0  0  0  0  0  0  0  0  0  0  0  0
    7.3009  -13.9066   26.4746 C   0  0  0  0  0  0  0  0  0  0  0  0
    8.2429  -12.9522   26.1394 C   0  0  0  0  0  0  0  0  0  0  0  0
    7.8128  -11.7009   25.7714 C   0  0  0  0  0  0  0  0  0  0  0  0
    6.4938  -11.3402   25.7169 C   0  0  0  0  0  0  0  0  0  0  0  0
    5.5580  -12.2930   26.0516 C   0  0  0  0  0  0  0  0  0  0  0  0
    5.9599  -13.5459   26.4211 C   0  0  0  0  0  0  0  0  0  0  0  0
    9.3405  -17.1131   26.6316 O   0  0  0  0  0  0  0  0  0  0  0  0
    8.9198  -18.2254   25.8915 O   0  0  0  0  0  0  0  0  0  0  0  0
  2  1  1  0
  3  2  2  0
  4  2  1  0
  5  4  1  0
  5  6  1  6
  7  8  2  0
  7  5  1  0
  9 10  1  0
 10 12  1  0
 10 11  2  0
 12 13  1  0
 14 13  1  0
 15 14  1  0
 16 15  1  6
 16 17  1  0
 17  7  1  0
 18 16  1  0
 19 18  2  0
 20 18  1  0
 21 20  1  0
 22 23  1  0
 21 22  1  6
 23 28  2  0
 24 25  2  0
 24 23  1  0
 25 26  1  0
 26 27  2  0
 28 27  1  0
 29 21  1  0
 29 30  1  0
 31 29  2  0
M  END
$$$$
