MQN.pdb
     RDKit          3D

 26 25  0  0  1  0  0  0  0  0999 V2000
    7.9668  -12.4985   28.1402 C   0  0  0  0  0  0  0  0  0  0  0  0
    7.4893  -11.8239   26.5488 S   0  0  0  0  0  0  0  0  0  0  0  0
    6.1938  -12.8428   25.7718 C   0  0  0  0  0  0  0  0  0  0  0  0
    6.7070  -14.2260   25.5684 C   0  0  0  0  0  0  0  0  0  0  0  0
    7.6255  -14.3438   24.3920 C   0  0  2  0  0  0  0  0  0  0  0  0
    6.8704  -14.0211   23.1924 N   0  0  0  0  0  0  0  0  0  0  0  0
    8.2881  -15.6572   24.2541 C   0  0  0  0  0  0  0  0  0  0  0  0
    8.9227  -16.2484   25.1486 O   0  0  0  0  0  0  0  0  0  0  0  0
    8.6804  -19.1262   19.9669 N   0  0  0  0  0  0  0  0  0  0  0  0
   10.1078  -18.9589   19.9362 C   0  0  0  0  0  0  0  0  0  0  0  0
   10.7753  -19.8838   19.4601 O   0  0  0  0  0  0  0  0  0  0  0  0
   10.6638  -17.7121   20.4687 C   0  0  0  0  0  0  0  0  0  0  0  0
    9.5923  -16.7775   20.9834 C   0  0  0  0  0  0  0  0  0  0  0  0
    9.3429  -17.0158   22.4448 C   0  0  2  0  0  0  0  0  0  0  0  0
    8.2135  -16.3377   22.9907 N   0  0  0  0  0  0  0  0  0  0  0  0
   10.5817  -16.8007   23.2595 C   0  0  0  0  0  0  0  0  0  0  0  0
   10.8477  -15.6640   23.7069 O   0  0  0  0  0  0  0  0  0  0  0  0
   11.2884  -19.4275   27.9594 N   0  0  0  0  0  0  0  0  0  0  0  0
   11.4676  -18.1947   27.2366 C   0  0  0  0  0  0  0  0  0  0  0  0
   12.0884  -17.3114   27.8532 O   0  0  0  0  0  0  0  0  0  0  0  0
   10.9488  -18.0211   25.8791 C   0  0  0  0  0  0  0  0  0  0  0  0
   12.0480  -17.9851   24.8564 C   0  0  2  0  0  0  0  0  0  0  0  0
   11.4204  -17.8930   23.5019 N   0  0  0  0  0  0  0  0  0  0  0  0
   12.8824  -19.1921   24.8910 C   0  0  0  0  0  0  0  0  0  0  0  0
   14.2305  -19.1604   25.0582 O   0  0  0  0  0  0  0  0  0  0  0  0
   12.3323  -20.3207   24.7596 O   0  0  0  0  0  0  0  0  0  0  0  0
  2  1  1  0
  3  2  1  0
  4  5  1  0
  4  3  1  0
  5  7  1  0
  5  6  1  6
  7  8  2  0
  9 10  1  0
 10 11  2  0
 10 12  1  0
 12 13  1  0
 14 13  1  6
 15 14  1  0
 15  7  1  0
 16 14  1  0
 16 17  2  0
 19 21  1  0
 19 18  1  0
 20 19  2  0
 22 21  1  1
 22 23  1  0
 22 24  1  0
 23 16  1  0
 24 26  2  0
 24 25  1  0
M  END
$$$$
