MQN.pdb
     RDKit          3D

 26 25  0  0  1  0  0  0  0  0999 V2000
    5.5056  -11.4831   26.2467 C   0  0  0  0  0  0  0  0  0  0  0  0
    7.0324  -11.7828   27.1381 S   0  0  0  0  0  0  0  0  0  0  0  0
    8.1292  -12.8922   26.1966 C   0  0  0  0  0  0  0  0  0  0  0  0
    7.4475  -13.3146   24.9416 C   0  0  0  0  0  0  0  0  0  0  0  0
    7.2516  -14.7961   24.8505 C   0  0  2  0  0  0  0  0  0  0  0  0
    8.2214  -15.4367   25.7236 N   0  0  0  0  0  0  0  0  0  0  0  0
    7.3363  -15.3478   23.4825 C   0  0  0  0  0  0  0  0  0  0  0  0
    6.3835  -15.4746   22.6898 O   0  0  0  0  0  0  0  0  0  0  0  0
    8.7952  -12.8984   18.6463 N   0  0  0  0  0  0  0  0  0  0  0  0
    7.9145  -13.1743   19.7485 C   0  0  0  0  0  0  0  0  0  0  0  0
    6.7842  -12.6761   19.7073 O   0  0  0  0  0  0  0  0  0  0  0  0
    8.4182  -14.0204   20.8336 C   0  0  0  0  0  0  0  0  0  0  0  0
    8.1772  -15.4909   20.5763 C   0  0  0  0  0  0  0  0  0  0  0  0
    8.7637  -16.3221   21.6809 C   0  0  2  0  0  0  0  0  0  0  0  0
    8.6146  -15.7864   22.9940 N   0  0  0  0  0  0  0  0  0  0  0  0
   10.1791  -16.7145   21.3859 C   0  0  0  0  0  0  0  0  0  0  0  0
   10.8494  -16.0635   20.5552 O   0  0  0  0  0  0  0  0  0  0  0  0
   14.4157  -15.0827   23.8694 N   0  0  0  0  0  0  0  0  0  0  0  0
   13.7910  -15.9199   22.8780 C   0  0  0  0  0  0  0  0  0  0  0  0
   14.5377  -16.2821   21.9523 O   0  0  0  0  0  0  0  0  0  0  0  0
   12.3816  -16.3018   22.9769 C   0  0  0  0  0  0  0  0  0  0  0  0
   12.1445  -17.7078   22.5054 C   0  0  2  0  0  0  0  0  0  0  0  0
   10.7215  -17.8146   22.0572 N   0  0  0  0  0  0  0  0  0  0  0  0
   12.3634  -18.6971   23.5672 C   0  0  0  0  0  0  0  0  0  0  0  0
   13.5802  -19.2344   23.8446 O   0  0  0  0  0  0  0  0  0  0  0  0
   11.3807  -19.0756   24.2634 O   0  0  0  0  0  0  0  0  0  0  0  0
  2  1  1  0
  3  2  1  0
  4  5  1  0
  4  3  1  0
  5  7  1  0
  5  6  1  1
  7  8  2  0
  9 10  1  0
 10 11  2  0
 10 12  1  0
 12 13  1  0
 14 13  1  6
 15 14  1  0
 15  7  1  0
 16 14  1  0
 16 17  2  0
 19 21  1  0
 19 18  1  0
 20 19  2  0
 22 21  1  1
 22 23  1  0
 22 24  1  0
 23 16  1  0
 24 26  2  0
 24 25  1  0
M  END
$$$$
