MQN.pdb
     RDKit          3D

 26 25  0  0  1  0  0  0  0  0999 V2000
    5.9339  -11.9556   27.5493 C   0  0  0  0  0  0  0  0  0  0  0  0
    6.9995  -11.2083   26.3158 S   0  0  0  0  0  0  0  0  0  0  0  0
    7.8293  -12.4836   25.3132 C   0  0  0  0  0  0  0  0  0  0  0  0
    6.9374  -13.6691   25.1829 C   0  0  0  0  0  0  0  0  0  0  0  0
    7.6709  -14.9154   24.7954 C   0  0  2  0  0  0  0  0  0  0  0  0
    9.0969  -14.6372   24.8462 N   0  0  0  0  0  0  0  0  0  0  0  0
    7.2939  -15.4707   23.4791 C   0  0  0  0  0  0  0  0  0  0  0  0
    6.1663  -15.3954   22.9546 O   0  0  0  0  0  0  0  0  0  0  0  0
    8.2260  -12.1335   19.6708 N   0  0  0  0  0  0  0  0  0  0  0  0
    8.3626  -13.2210   18.7406 C   0  0  0  0  0  0  0  0  0  0  0  0
    8.4389  -12.9327   17.5411 O   0  0  0  0  0  0  0  0  0  0  0  0
    8.4008  -14.5833   19.2790 C   0  0  0  0  0  0  0  0  0  0  0  0
    8.3267  -14.6078   20.7891 C   0  0  0  0  0  0  0  0  0  0  0  0
    8.3727  -16.0205   21.2960 C   0  0  2  0  0  0  0  0  0  0  0  0
    8.2917  -16.1646   22.7124 N   0  0  0  0  0  0  0  0  0  0  0  0
    9.5258  -16.7796   20.7139 C   0  0  0  0  0  0  0  0  0  0  0  0
    9.4851  -17.1665   19.5257 O   0  0  0  0  0  0  0  0  0  0  0  0
   13.5467  -14.4292   18.8982 N   0  0  0  0  0  0  0  0  0  0  0  0
   13.3099  -14.7268   20.2872 C   0  0  0  0  0  0  0  0  0  0  0  0
   14.2903  -14.5598   21.0333 O   0  0  0  0  0  0  0  0  0  0  0  0
   12.0038  -15.1886   20.7592 C   0  0  0  0  0  0  0  0  0  0  0  0
   11.9790  -16.6732   20.9847 C   0  0  2  0  0  0  0  0  0  0  0  0
   10.6337  -17.0391   21.5265 N   0  0  0  0  0  0  0  0  0  0  0  0
   12.9935  -17.1079   21.9521 C   0  0  0  0  0  0  0  0  0  0  0  0
   12.9586  -16.7731   23.2685 O   0  0  0  0  0  0  0  0  0  0  0  0
   13.9506  -17.8282   21.5536 O   0  0  0  0  0  0  0  0  0  0  0  0
  2  1  1  0
  3  2  1  0
  4  5  1  0
  4  3  1  0
  5  7  1  0
  5  6  1  6
  7  8  2  0
  9 10  1  0
 10 11  2  0
 10 12  1  0
 12 13  1  0
 14 13  1  1
 15 14  1  0
 15  7  1  0
 16 14  1  0
 16 17  2  0
 19 21  1  0
 19 18  1  0
 20 19  2  0
 22 21  1  1
 22 23  1  0
 22 24  1  0
 23 16  1  0
 24 26  2  0
 24 25  1  0
M  END
$$$$
