MQN.pdb
     RDKit          3D

 26 25  0  0  1  0  0  0  0  0999 V2000
    5.2829  -11.7987   26.5586 C   0  0  0  0  0  0  0  0  0  0  0  0
    6.9831  -12.2444   26.9141 S   0  0  0  0  0  0  0  0  0  0  0  0
    7.1475  -14.0425   27.1590 C   0  0  0  0  0  0  0  0  0  0  0  0
    6.8245  -14.7471   25.8873 C   0  0  0  0  0  0  0  0  0  0  0  0
    8.0407  -15.2214   25.1542 C   0  0  2  0  0  0  0  0  0  0  0  0
    9.1097  -14.2624   25.3802 N   0  0  0  0  0  0  0  0  0  0  0  0
    7.8412  -15.4496   23.7082 C   0  0  0  0  0  0  0  0  0  0  0  0
    7.0203  -16.2394   23.2037 O   0  0  0  0  0  0  0  0  0  0  0  0
    8.1196  -11.8635   18.6392 N   0  0  0  0  0  0  0  0  0  0  0  0
    8.2140  -13.1898   18.0926 C   0  0  0  0  0  0  0  0  0  0  0  0
    8.1172  -13.3038   16.8657 O   0  0  0  0  0  0  0  0  0  0  0  0
    8.4165  -14.3027   19.0241 C   0  0  0  0  0  0  0  0  0  0  0  0
    8.4415  -13.8490   20.4664 C   0  0  0  0  0  0  0  0  0  0  0  0
    8.6441  -15.0204   21.3837 C   0  0  2  0  0  0  0  0  0  0  0  0
    8.6492  -14.7126   22.7761 N   0  0  0  0  0  0  0  0  0  0  0  0
    9.8313  -15.8402   20.9798 C   0  0  0  0  0  0  0  0  0  0  0  0
    9.8526  -16.4043   19.8643 O   0  0  0  0  0  0  0  0  0  0  0  0
   12.9952  -14.1376   19.3047 N   0  0  0  0  0  0  0  0  0  0  0  0
   13.0440  -15.5343   19.6525 C   0  0  0  0  0  0  0  0  0  0  0  0
   12.9632  -16.3170   18.6899 O   0  0  0  0  0  0  0  0  0  0  0  0
   13.1799  -15.9727   21.0422 C   0  0  0  0  0  0  0  0  0  0  0  0
   12.0344  -16.8431   21.4729 C   0  0  2  0  0  0  0  0  0  0  0  0
   10.9000  -15.9545   21.8741 N   0  0  0  0  0  0  0  0  0  0  0  0
   12.3778  -17.6903   22.6212 C   0  0  0  0  0  0  0  0  0  0  0  0
   13.3484  -18.6403   22.5814 O   0  0  0  0  0  0  0  0  0  0  0  0
   11.7473  -17.5385   23.7043 O   0  0  0  0  0  0  0  0  0  0  0  0
  2  1  1  0
  3  2  1  0
  4  5  1  0
  4  3  1  0
  5  7  1  0
  5  6  1  6
  7  8  2  0
  9 10  1  0
 10 11  2  0
 10 12  1  0
 12 13  1  0
 14 13  1  6
 15 14  1  0
 15  7  1  0
 16 14  1  0
 16 17  2  0
 19 21  1  0
 19 18  1  0
 20 19  2  0
 22 21  1  1
 22 23  1  0
 22 24  1  0
 23 16  1  0
 24 26  2  0
 24 25  1  0
M  END
$$$$
