MQN.pdb
     RDKit          3D

 26 25  0  0  1  0  0  0  0  0999 V2000
    7.0631  -11.5632   20.5619 C   0  0  0  0  0  0  0  0  0  0  0  0
    7.9722  -12.4434   19.2913 S   0  0  0  0  0  0  0  0  0  0  0  0
    7.7775  -14.2452   19.4811 C   0  0  0  0  0  0  0  0  0  0  0  0
    7.5669  -14.5718   20.9188 C   0  0  0  0  0  0  0  0  0  0  0  0
    7.1638  -15.9960   21.1438 C   0  0  2  0  0  0  0  0  0  0  0  0
    5.9851  -16.2670   20.3372 N   0  0  0  0  0  0  0  0  0  0  0  0
    6.9231  -16.3545   22.5568 C   0  0  0  0  0  0  0  0  0  0  0  0
    5.9828  -15.9405   23.2615 O   0  0  0  0  0  0  0  0  0  0  0  0
    5.5608  -21.0842   25.0282 N   0  0  0  0  0  0  0  0  0  0  0  0
    6.2664  -20.9088   23.7880 C   0  0  0  0  0  0  0  0  0  0  0  0
    6.0168  -21.7070   22.8779 O   0  0  0  0  0  0  0  0  0  0  0  0
    7.2241  -19.8038   23.6941 C   0  0  0  0  0  0  0  0  0  0  0  0
    7.2089  -18.9228   24.9230 C   0  0  0  0  0  0  0  0  0  0  0  0
    7.7261  -17.5518   24.5949 C   0  0  2  0  0  0  0  0  0  0  0  0
    7.8354  -17.2565   23.2041 N   0  0  0  0  0  0  0  0  0  0  0  0
    8.9882  -17.2437   25.3410 C   0  0  0  0  0  0  0  0  0  0  0  0
   10.0297  -16.9490   24.7151 O   0  0  0  0  0  0  0  0  0  0  0  0
   10.0672  -13.8133   29.6775 N   0  0  0  0  0  0  0  0  0  0  0  0
   10.2507  -14.1301   28.2846 C   0  0  0  0  0  0  0  0  0  0  0  0
   11.2148  -13.5637   27.7411 O   0  0  0  0  0  0  0  0  0  0  0  0
    9.3559  -15.0534   27.5853 C   0  0  0  0  0  0  0  0  0  0  0  0
    9.9464  -16.4291   27.4673 C   0  0  2  0  0  0  0  0  0  0  0  0
    8.9681  -17.2944   26.7381 N   0  0  0  0  0  0  0  0  0  0  0  0
   10.2069  -17.0392   28.7765 C   0  0  0  0  0  0  0  0  0  0  0  0
   11.2117  -16.6373   29.5982 O   0  0  0  0  0  0  0  0  0  0  0  0
    9.4684  -17.9847   29.1693 O   0  0  0  0  0  0  0  0  0  0  0  0
  2  1  1  0
  3  2  1  0
  4  5  1  0
  4  3  1  0
  5  7  1  0
  5  6  1  6
  7  8  2  0
  9 10  1  0
 10 11  2  0
 10 12  1  0
 12 13  1  0
 14 13  1  6
 15 14  1  0
 15  7  1  0
 16 14  1  0
 16 17  2  0
 19 21  1  0
 19 18  1  0
 20 19  2  0
 22 21  1  1
 22 23  1  0
 22 24  1  0
 23 16  1  0
 24 26  2  0
 24 25  1  0
M  END
$$$$
