MQN.pdb
     RDKit          3D

 26 25  0  0  1  0  0  0  0  0999 V2000
    6.5975  -11.2419   27.9786 C   0  0  0  0  0  0  0  0  0  0  0  0
    6.8427  -12.2406   26.5096 S   0  0  0  0  0  0  0  0  0  0  0  0
    5.8955  -13.7938   26.6125 C   0  0  0  0  0  0  0  0  0  0  0  0
    6.1106  -14.5882   25.3712 C   0  0  0  0  0  0  0  0  0  0  0  0
    7.5285  -15.0376   25.2007 C   0  0  2  0  0  0  0  0  0  0  0  0
    8.4015  -13.9345   25.5671 N   0  0  0  0  0  0  0  0  0  0  0  0
    7.8598  -15.5396   23.8512 C   0  0  0  0  0  0  0  0  0  0  0  0
    7.3288  -16.5160   23.2884 O   0  0  0  0  0  0  0  0  0  0  0  0
    9.1203  -12.8670   18.4480 N   0  0  0  0  0  0  0  0  0  0  0  0
    8.0712  -13.8381   18.5994 C   0  0  0  0  0  0  0  0  0  0  0  0
    7.2043  -13.8757   17.7192 O   0  0  0  0  0  0  0  0  0  0  0  0
    8.1057  -14.7069   19.7789 C   0  0  0  0  0  0  0  0  0  0  0  0
    9.2609  -14.3825   20.6992 C   0  0  0  0  0  0  0  0  0  0  0  0
    9.3211  -15.3631   21.8349 C   0  0  2  0  0  0  0  0  0  0  0  0
    8.8798  -14.8653   23.0962 N   0  0  0  0  0  0  0  0  0  0  0  0
   10.6626  -16.0242   21.9240 C   0  0  0  0  0  0  0  0  0  0  0  0
   11.6907  -15.3341   22.0976 O   0  0  0  0  0  0  0  0  0  0  0  0
   10.8772  -19.5381   25.2030 N   0  0  0  0  0  0  0  0  0  0  0  0
   11.8392  -18.9448   24.3105 C   0  0  0  0  0  0  0  0  0  0  0  0
   12.6290  -18.1479   24.8460 O   0  0  0  0  0  0  0  0  0  0  0  0
   11.8644  -19.2732   22.8844 C   0  0  0  0  0  0  0  0  0  0  0  0
   12.0651  -18.0551   22.0293 C   0  0  2  0  0  0  0  0  0  0  0  0
   10.7308  -17.4160   21.8092 N   0  0  0  0  0  0  0  0  0  0  0  0
   12.6360  -18.3819   20.7172 C   0  0  0  0  0  0  0  0  0  0  0  0
   11.9712  -18.1904   19.5478 O   0  0  0  0  0  0  0  0  0  0  0  0
   13.8007  -18.8654   20.6596 O   0  0  0  0  0  0  0  0  0  0  0  0
  2  1  1  0
  3  2  1  0
  4  5  1  0
  4  3  1  0
  5  7  1  0
  5  6  1  6
  7  8  2  0
  9 10  1  0
 10 11  2  0
 10 12  1  0
 12 13  1  0
 14 13  1  6
 15 14  1  0
 15  7  1  0
 16 14  1  0
 16 17  2  0
 19 21  1  0
 19 18  1  0
 20 19  2  0
 22 21  1  1
 22 23  1  0
 22 24  1  0
 23 16  1  0
 24 26  2  0
 24 25  1  0
M  END
$$$$
