MQN.pdb
     RDKit          3D

 26 25  0  0  1  0  0  0  0  0999 V2000
    5.8018  -11.1308   27.2433 C   0  0  0  0  0  0  0  0  0  0  0  0
    7.0701  -12.0994   26.4257 S   0  0  0  0  0  0  0  0  0  0  0  0
    7.0459  -13.8266   27.0058 C   0  0  0  0  0  0  0  0  0  0  0  0
    7.8223  -14.6772   26.0614 C   0  0  0  0  0  0  0  0  0  0  0  0
    6.9690  -15.3164   25.0104 C   0  0  2  0  0  0  0  0  0  0  0  0
    6.0644  -16.2475   25.6647 N   0  0  0  0  0  0  0  0  0  0  0  0
    7.7191  -15.9893   23.9300 C   0  0  0  0  0  0  0  0  0  0  0  0
    7.9083  -17.2169   23.8322 O   0  0  0  0  0  0  0  0  0  0  0  0
    7.9443  -12.1186   19.1520 N   0  0  0  0  0  0  0  0  0  0  0  0
    7.6363  -13.5170   19.0240 C   0  0  0  0  0  0  0  0  0  0  0  0
    7.3875  -13.9395   17.8895 O   0  0  0  0  0  0  0  0  0  0  0  0
    7.6393  -14.3340   20.2404 C   0  0  0  0  0  0  0  0  0  0  0  0
    8.9969  -14.9351   20.5269 C   0  0  0  0  0  0  0  0  0  0  0  0
    8.9479  -15.7804   21.7670 C   0  0  2  0  0  0  0  0  0  0  0  0
    8.2940  -15.1862   22.8863 N   0  0  0  0  0  0  0  0  0  0  0  0
   10.2994  -16.3213   22.1213 C   0  0  0  0  0  0  0  0  0  0  0  0
   11.0004  -16.8768   21.2477 O   0  0  0  0  0  0  0  0  0  0  0  0
   13.9617  -17.0483   21.5355 N   0  0  0  0  0  0  0  0  0  0  0  0
   13.6716  -15.7884   22.1699 C   0  0  0  0  0  0  0  0  0  0  0  0
   13.9172  -14.7848   21.4784 O   0  0  0  0  0  0  0  0  0  0  0  0
   13.1280  -15.7222   23.5272 C   0  0  0  0  0  0  0  0  0  0  0  0
   12.0842  -16.7748   23.7679 C   0  0  2  0  0  0  0  0  0  0  0  0
   10.7479  -16.1888   23.4390 N   0  0  0  0  0  0  0  0  0  0  0  0
   12.0542  -17.2220   25.1655 C   0  0  0  0  0  0  0  0  0  0  0  0
   10.9590  -17.1049   25.9611 O   0  0  0  0  0  0  0  0  0  0  0  0
   13.0908  -17.7421   25.6642 O   0  0  0  0  0  0  0  0  0  0  0  0
  2  1  1  0
  3  2  1  0
  4  5  1  0
  4  3  1  0
  5  7  1  0
  5  6  1  1
  7  8  2  0
  9 10  1  0
 10 11  2  0
 10 12  1  0
 12 13  1  0
 14 13  1  6
 15 14  1  0
 15  7  1  0
 16 14  1  0
 16 17  2  0
 19 21  1  0
 19 18  1  0
 20 19  2  0
 22 21  1  1
 22 23  1  0
 22 24  1  0
 23 16  1  0
 24 26  2  0
 24 25  1  0
M  END
$$$$
