MQN.pdb
     RDKit          3D

 26 25  0  0  1  0  0  0  0  0999 V2000
    7.8086  -11.2712   27.9446 C   0  0  0  0  0  0  0  0  0  0  0  0
    6.7949  -11.8014   26.5637 S   0  0  0  0  0  0  0  0  0  0  0  0
    6.1134  -13.4657   26.8572 C   0  0  0  0  0  0  0  0  0  0  0  0
    6.0657  -14.2152   25.5712 C   0  0  0  0  0  0  0  0  0  0  0  0
    7.3547  -14.9034   25.2451 C   0  0  2  0  0  0  0  0  0  0  0  0
    8.4470  -14.0085   25.5905 N   0  0  0  0  0  0  0  0  0  0  0  0
    7.4755  -15.3583   23.8446 C   0  0  0  0  0  0  0  0  0  0  0  0
    6.7244  -16.1754   23.2786 O   0  0  0  0  0  0  0  0  0  0  0  0
    7.9910  -12.1884   18.7689 N   0  0  0  0  0  0  0  0  0  0  0  0
    8.1987  -13.5271   18.2879 C   0  0  0  0  0  0  0  0  0  0  0  0
    8.0767  -13.7164   17.0726 O   0  0  0  0  0  0  0  0  0  0  0  0
    8.5373  -14.5630   19.2674 C   0  0  0  0  0  0  0  0  0  0  0  0
    8.4659  -14.0554   20.6901 C   0  0  0  0  0  0  0  0  0  0  0  0
    8.6744  -15.1808   21.6621 C   0  0  2  0  0  0  0  0  0  0  0  0
    8.5424  -14.8321   23.0385 N   0  0  0  0  0  0  0  0  0  0  0  0
    9.9462  -15.9226   21.3846 C   0  0  0  0  0  0  0  0  0  0  0  0
   10.1756  -16.3654   20.2381 O   0  0  0  0  0  0  0  0  0  0  0  0
   10.4712  -19.4787   23.9953 N   0  0  0  0  0  0  0  0  0  0  0  0
   11.5528  -18.5744   23.7010 C   0  0  0  0  0  0  0  0  0  0  0  0
   12.1137  -18.0865   24.6975 O   0  0  0  0  0  0  0  0  0  0  0  0
   11.9430  -18.2706   22.3235 C   0  0  0  0  0  0  0  0  0  0  0  0
   12.1408  -16.7979   22.1059 C   0  0  2  0  0  0  0  0  0  0  0  0
   10.8567  -16.1029   22.4303 N   0  0  0  0  0  0  0  0  0  0  0  0
   12.4921  -16.4810   20.7165 C   0  0  0  0  0  0  0  0  0  0  0  0
   13.7608  -16.2099   20.3128 O   0  0  0  0  0  0  0  0  0  0  0  0
   11.5793  -16.4556   19.8448 O   0  0  0  0  0  0  0  0  0  0  0  0
  2  1  1  0
  3  2  1  0
  4  5  1  0
  4  3  1  0
  5  7  1  0
  5  6  1  6
  7  8  2  0
  9 10  1  0
 10 11  2  0
 10 12  1  0
 12 13  1  0
 14 13  1  6
 15 14  1  0
 15  7  1  0
 16 14  1  0
 16 17  2  0
 19 21  1  0
 19 18  1  0
 20 19  2  0
 22 21  1  6
 22 23  1  0
 22 24  1  0
 23 16  1  0
 24 26  2  0
 24 25  1  0
M  END
$$$$
