MQN.pdb
     RDKit          3D

 26 25  0  0  1  0  0  0  0  0999 V2000
    9.0113  -12.0997   18.7277 C   0  0  0  0  0  0  0  0  0  0  0  0
    7.5231  -12.6976   19.5298 S   0  0  0  0  0  0  0  0  0  0  0  0
    7.6691  -14.4675   19.9374 C   0  0  0  0  0  0  0  0  0  0  0  0
    7.6088  -15.2709   18.6848 C   0  0  0  0  0  0  0  0  0  0  0  0
    7.7665  -16.7406   18.9223 C   0  0  2  0  0  0  0  0  0  0  0  0
    7.0423  -17.0847   20.1350 N   0  0  0  0  0  0  0  0  0  0  0  0
    9.1660  -17.2077   18.9998 C   0  0  0  0  0  0  0  0  0  0  0  0
    9.8452  -17.6297   18.0443 O   0  0  0  0  0  0  0  0  0  0  0  0
   14.1638  -13.6340   19.3046 N   0  0  0  0  0  0  0  0  0  0  0  0
   13.9971  -14.9725   18.8074 C   0  0  0  0  0  0  0  0  0  0  0  0
   14.4074  -15.2065   17.6652 O   0  0  0  0  0  0  0  0  0  0  0  0
   13.3566  -15.9554   19.6853 C   0  0  0  0  0  0  0  0  0  0  0  0
   11.8512  -15.9606   19.5423 C   0  0  0  0  0  0  0  0  0  0  0  0
   11.2470  -17.0576   20.3706 C   0  0  2  0  0  0  0  0  0  0  0  0
    9.8302  -17.1869   20.2739 N   0  0  0  0  0  0  0  0  0  0  0  0
   11.7153  -16.9988   21.7925 C   0  0  0  0  0  0  0  0  0  0  0  0
   12.9388  -16.9697   22.0483 O   0  0  0  0  0  0  0  0  0  0  0  0
    7.9415  -15.1587   24.6308 N   0  0  0  0  0  0  0  0  0  0  0  0
    9.3679  -15.2836   24.4765 C   0  0  0  0  0  0  0  0  0  0  0  0
    9.9030  -14.3842   23.8052 O   0  0  0  0  0  0  0  0  0  0  0  0
   10.1082  -16.3948   25.0759 C   0  0  0  0  0  0  0  0  0  0  0  0
   11.2563  -16.8365   24.2145 C   0  0  2  0  0  0  0  0  0  0  0  0
   10.7578  -16.9775   22.8113 N   0  0  0  0  0  0  0  0  0  0  0  0
   11.8045  -18.1312   24.6356 C   0  0  0  0  0  0  0  0  0  0  0  0
   11.8554  -19.2181   23.8219 O   0  0  0  0  0  0  0  0  0  0  0  0
   12.2532  -18.2535   25.8093 O   0  0  0  0  0  0  0  0  0  0  0  0
  2  1  1  0
  3  2  1  0
  4  5  1  0
  4  3  1  0
  5  7  1  0
  5  6  1  1
  7  8  2  0
  9 10  1  0
 10 11  2  0
 10 12  1  0
 12 13  1  0
 14 13  1  6
 15 14  1  0
 15  7  1  0
 16 14  1  0
 16 17  2  0
 19 21  1  0
 19 18  1  0
 20 19  2  0
 22 21  1  1
 22 23  1  0
 22 24  1  0
 23 16  1  0
 24 26  2  0
 24 25  1  0
M  END
$$$$
