MQN.pdb
     RDKit          3D

 26 25  0  0  1  0  0  0  0  0999 V2000
    6.0571  -11.7525   27.0798 C   0  0  0  0  0  0  0  0  0  0  0  0
    6.7882  -11.5999   25.4496 S   0  0  0  0  0  0  0  0  0  0  0  0
    5.8871  -12.6151   24.2340 C   0  0  0  0  0  0  0  0  0  0  0  0
    6.4342  -14.0003   24.2430 C   0  0  0  0  0  0  0  0  0  0  0  0
    7.9122  -14.0488   24.0097 C   0  0  2  0  0  0  0  0  0  0  0  0
    8.1558  -13.8282   22.5936 N   0  0  0  0  0  0  0  0  0  0  0  0
    8.5695  -15.2912   24.4651 C   0  0  0  0  0  0  0  0  0  0  0  0
    8.2823  -15.9295   25.4958 O   0  0  0  0  0  0  0  0  0  0  0  0
   12.2834  -18.7929   20.7257 N   0  0  0  0  0  0  0  0  0  0  0  0
   10.9214  -18.3927   20.4990 C   0  0  0  0  0  0  0  0  0  0  0  0
   10.4567  -18.5835   19.3698 O   0  0  0  0  0  0  0  0  0  0  0  0
   10.1884  -17.7911   21.6162 C   0  0  0  0  0  0  0  0  0  0  0  0
   11.0130  -17.7354   22.8825 C   0  0  0  0  0  0  0  0  0  0  0  0
   10.2318  -17.0926   23.9921 C   0  0  2  0  0  0  0  0  0  0  0  0
    9.6373  -15.8364   23.6729 N   0  0  0  0  0  0  0  0  0  0  0  0
   11.0202  -17.0399   25.2649 C   0  0  0  0  0  0  0  0  0  0  0  0
   12.2435  -16.7835   25.2338 O   0  0  0  0  0  0  0  0  0  0  0  0
    9.8377  -14.1435   28.2290 N   0  0  0  0  0  0  0  0  0  0  0  0
   10.9312  -15.0778   28.3027 C   0  0  0  0  0  0  0  0  0  0  0  0
   12.0393  -14.6138   27.9823 O   0  0  0  0  0  0  0  0  0  0  0  0
   10.7266  -16.4635   28.7269 C   0  0  0  0  0  0  0  0  0  0  0  0
   11.2035  -17.4448   27.6950 C   0  0  2  0  0  0  0  0  0  0  0  0
   10.3577  -17.2821   26.4722 N   0  0  0  0  0  0  0  0  0  0  0  0
   11.0846  -18.8353   28.1497 C   0  0  0  0  0  0  0  0  0  0  0  0
   10.3432  -19.7701   27.4996 O   0  0  0  0  0  0  0  0  0  0  0  0
   11.6960  -19.1920   29.1949 O   0  0  0  0  0  0  0  0  0  0  0  0
  2  1  1  0
  3  2  1  0
  4  5  1  0
  4  3  1  0
  5  7  1  0
  5  6  1  6
  7  8  2  0
  9 10  1  0
 10 11  2  0
 10 12  1  0
 12 13  1  0
 14 13  1  6
 15 14  1  0
 15  7  1  0
 16 14  1  0
 16 17  2  0
 19 21  1  0
 19 18  1  0
 20 19  2  0
 22 21  1  1
 22 23  1  0
 22 24  1  0
 23 16  1  0
 24 26  2  0
 24 25  1  0
M  END
$$$$
