MQN.pdb
     RDKit          3D

 26 25  0  0  1  0  0  0  0  0999 V2000
    6.3075  -11.9744   26.6540 C   0  0  0  0  0  0  0  0  0  0  0  0
    7.8209  -12.7449   27.2300 S   0  0  0  0  0  0  0  0  0  0  0  0
    8.0335  -14.3963   26.4896 C   0  0  0  0  0  0  0  0  0  0  0  0
    6.7586  -14.8183   25.8458 C   0  0  0  0  0  0  0  0  0  0  0  0
    6.8153  -16.2057   25.2859 C   0  0  2  0  0  0  0  0  0  0  0  0
    7.4228  -17.0727   26.2821 N   0  0  0  0  0  0  0  0  0  0  0  0
    7.5204  -16.3221   23.9928 C   0  0  0  0  0  0  0  0  0  0  0  0
    8.0654  -17.3523   23.5524 O   0  0  0  0  0  0  0  0  0  0  0  0
    7.8624  -11.9885   18.7143 N   0  0  0  0  0  0  0  0  0  0  0  0
    7.7554  -13.4138   18.5609 C   0  0  0  0  0  0  0  0  0  0  0  0
    7.1169  -13.8314   17.5885 O   0  0  0  0  0  0  0  0  0  0  0  0
    8.4067  -14.2622   19.5625 C   0  0  0  0  0  0  0  0  0  0  0  0
    7.8457  -14.0487   20.9504 C   0  0  0  0  0  0  0  0  0  0  0  0
    8.0941  -15.2544   21.8104 C   0  0  2  0  0  0  0  0  0  0  0  0
    7.6034  -15.1639   23.1462 N   0  0  0  0  0  0  0  0  0  0  0  0
    9.5289  -15.6826   21.7610 C   0  0  0  0  0  0  0  0  0  0  0  0
   10.0541  -15.9886   20.6684 O   0  0  0  0  0  0  0  0  0  0  0  0
   14.7554  -15.4101   22.1575 N   0  0  0  0  0  0  0  0  0  0  0  0
   13.9721  -15.4879   23.3635 C   0  0  0  0  0  0  0  0  0  0  0  0
   14.5876  -15.8989   24.3625 O   0  0  0  0  0  0  0  0  0  0  0  0
   12.5596  -15.1049   23.3848 C   0  0  0  0  0  0  0  0  0  0  0  0
   11.6704  -16.2035   22.8771 C   0  0  2  0  0  0  0  0  0  0  0  0
   10.2539  -15.7294   22.9557 N   0  0  0  0  0  0  0  0  0  0  0  0
   11.7857  -17.4293   23.6760 C   0  0  0  0  0  0  0  0  0  0  0  0
   11.0349  -17.6699   24.7827 O   0  0  0  0  0  0  0  0  0  0  0  0
   12.6201  -18.3105   23.3282 O   0  0  0  0  0  0  0  0  0  0  0  0
  2  1  1  0
  3  2  1  0
  4  5  1  0
  4  3  1  0
  5  7  1  0
  5  6  1  1
  7  8  2  0
  9 10  1  0
 10 11  2  0
 10 12  1  0
 12 13  1  0
 14 13  1  1
 15 14  1  0
 15  7  1  0
 16 14  1  0
 16 17  2  0
 19 21  1  0
 19 18  1  0
 20 19  2  0
 22 21  1  1
 22 23  1  0
 22 24  1  0
 23 16  1  0
 24 26  2  0
 24 25  1  0
M  END
$$$$
