MQN.pdb
     RDKit          3D

 26 25  0  0  1  0  0  0  0  0999 V2000
    7.2508  -11.1845   27.5786 C   0  0  0  0  0  0  0  0  0  0  0  0
    7.6424  -12.3275   26.2536 S   0  0  0  0  0  0  0  0  0  0  0  0
    6.1242  -13.0095   25.5119 C   0  0  0  0  0  0  0  0  0  0  0  0
    6.4859  -13.9051   24.3783 C   0  0  0  0  0  0  0  0  0  0  0  0
    6.7162  -15.3228   24.8010 C   0  0  2  0  0  0  0  0  0  0  0  0
    7.3318  -15.3094   26.1179 N   0  0  0  0  0  0  0  0  0  0  0  0
    7.5201  -16.1265   23.8572 C   0  0  0  0  0  0  0  0  0  0  0  0
    7.4015  -16.1245   22.6169 O   0  0  0  0  0  0  0  0  0  0  0  0
   12.1178  -17.3920   20.6249 N   0  0  0  0  0  0  0  0  0  0  0  0
   12.1398  -16.2972   21.5562 C   0  0  0  0  0  0  0  0  0  0  0  0
   12.9570  -15.3937   21.3474 O   0  0  0  0  0  0  0  0  0  0  0  0
   11.1980  -16.3322   22.6783 C   0  0  0  0  0  0  0  0  0  0  0  0
    9.9108  -17.0440   22.3275 C   0  0  0  0  0  0  0  0  0  0  0  0
    9.3681  -17.7714   23.5238 C   0  0  2  0  0  0  0  0  0  0  0  0
    8.5347  -16.9972   24.3837 N   0  0  0  0  0  0  0  0  0  0  0  0
   10.4503  -18.4852   24.2748 C   0  0  0  0  0  0  0  0  0  0  0  0
   11.1298  -19.3676   23.7066 O   0  0  0  0  0  0  0  0  0  0  0  0
   12.5133  -19.3836   29.7863 N   0  0  0  0  0  0  0  0  0  0  0  0
   12.6237  -19.7221   28.3908 C   0  0  0  0  0  0  0  0  0  0  0  0
   13.0475  -20.8682   28.1617 O   0  0  0  0  0  0  0  0  0  0  0  0
   12.2568  -18.7705   27.3411 C   0  0  0  0  0  0  0  0  0  0  0  0
   11.0755  -19.2409   26.5421 C   0  0  2  0  0  0  0  0  0  0  0  0
   10.6755  -18.1407   25.6111 N   0  0  0  0  0  0  0  0  0  0  0  0
    9.9211  -19.5633   27.3892 C   0  0  0  0  0  0  0  0  0  0  0  0
    9.9238  -20.5733   28.2981 O   0  0  0  0  0  0  0  0  0  0  0  0
    8.8682  -18.8759   27.2768 O   0  0  0  0  0  0  0  0  0  0  0  0
  2  1  1  0
  3  2  1  0
  4  5  1  0
  4  3  1  0
  5  7  1  0
  5  6  1  1
  7  8  2  0
  9 10  1  0
 10 11  2  0
 10 12  1  0
 12 13  1  0
 14 13  1  6
 15 14  1  0
 15  7  1  0
 16 14  1  0
 16 17  2  0
 19 21  1  0
 19 18  1  0
 20 19  2  0
 22 21  1  1
 22 23  1  0
 22 24  1  0
 23 16  1  0
 24 26  2  0
 24 25  1  0
M  END
$$$$
