LVN.pdb
     RDKit          3D

 24 23  0  0  1  0  0  0  0  0999 V2000
   29.3780  -19.1926   -4.8823 C   0  0  0  0  0  0  0  0  0  0  0  0
   28.1286  -19.8882   -5.3952 C   0  0  1  0  0  0  0  0  0  0  0  0
   27.0493  -19.5882   -4.3437 C   0  0  0  0  0  0  0  0  0  0  0  0
   27.6932  -19.3952   -6.7219 C   0  0  0  0  0  0  0  0  0  0  0  0
   26.5464  -20.0529   -7.3654 C   0  0  2  0  0  0  0  0  0  0  0  0
   26.5325  -21.4863   -7.1826 N   0  0  0  0  0  0  0  0  0  0  0  0
   26.2928  -19.7527   -8.7883 C   0  0  0  0  0  0  0  0  0  0  0  0
   26.0659  -18.5367   -9.1542 O   0  0  0  0  0  0  0  0  0  0  0  0
   27.1745  -21.2263  -13.1955 C   0  0  0  0  0  0  0  0  0  0  0  0
   27.4495  -20.4988  -11.8840 C   0  0  2  0  0  0  0  0  0  0  0  0
   28.4051  -21.3160  -11.0825 C   0  0  0  0  0  0  0  0  0  0  0  0
   26.1173  -20.2480  -11.2545 C   0  0  2  0  0  0  0  0  0  0  0  0
   26.2642  -20.6901   -9.8471 N   0  0  0  0  0  0  0  0  0  0  0  0
   24.9872  -20.9631  -11.8667 C   0  0  0  0  0  0  0  0  0  0  0  0
   24.7821  -22.2009  -11.6884 O   0  0  0  0  0  0  0  0  0  0  0  0
   19.5358  -20.5902  -13.9196 N   0  0  0  0  0  0  0  0  0  0  0  0
   20.4898  -21.3322  -13.1869 C   0  0  0  0  0  0  0  0  0  0  0  0
   20.3016  -22.5564  -13.0125 O   0  0  0  0  0  0  0  0  0  0  0  0
   21.6878  -20.6765  -12.6363 C   0  0  0  0  0  0  0  0  0  0  0  0
   22.9667  -21.0294  -13.3321 C   0  0  2  0  0  0  0  0  0  0  0  0
   24.0627  -20.2839  -12.6952 N   0  0  0  0  0  0  0  0  0  0  0  0
   22.8221  -20.6470  -14.7526 C   0  0  0  0  0  0  0  0  0  0  0  0
   23.4636  -19.5297  -15.2359 O   0  0  0  0  0  0  0  0  0  0  0  0
   22.1148  -21.3469  -15.5025 O   0  0  0  0  0  0  0  0  0  0  0  0
  2  1  1  1
  2  3  1  0
  4  2  1  0
  5  4  1  0
  5  7  1  0
  5  6  1  6
  7 13  1  0
  8  7  2  0
 10  9  1  6
 10 11  1  0
 12 10  1  0
 12 13  1  1
 14 21  1  0
 14 12  1  0
 15 14  2  0
 17 16  1  0
 17 18  2  0
 19 17  1  0
 20 19  1  1
 20 22  1  0
 20 21  1  0
 22 23  1  0
 24 22  2  0
M  END
$$$$
