LVN.pdb
     RDKit          3D

 24 23  0  0  1  0  0  0  0  0999 V2000
   14.5168  -13.6063  -13.6057 C   0  0  0  0  0  0  0  0  0  0  0  0
   15.5564  -12.5576  -13.2483 C   0  0  1  0  0  0  0  0  0  0  0  0
   16.2627  -12.2335  -14.5737 C   0  0  0  0  0  0  0  0  0  0  0  0
   14.9656  -11.3265  -12.6757 C   0  0  0  0  0  0  0  0  0  0  0  0
   15.8717  -10.2328  -12.2957 C   0  0  2  0  0  0  0  0  0  0  0  0
   16.8548  -10.6207  -11.3100 N   0  0  0  0  0  0  0  0  0  0  0  0
   15.2657   -8.9513  -11.8838 C   0  0  0  0  0  0  0  0  0  0  0  0
   14.3435   -8.4177  -12.6110 O   0  0  0  0  0  0  0  0  0  0  0  0
   15.9134   -7.2538   -8.2412 C   0  0  0  0  0  0  0  0  0  0  0  0
   14.5815   -7.0286   -8.9483 C   0  0  2  0  0  0  0  0  0  0  0  0
   13.6433   -8.1149   -8.5444 C   0  0  0  0  0  0  0  0  0  0  0  0
   14.8895   -6.9415  -10.4083 C   0  0  2  0  0  0  0  0  0  0  0  0
   15.5987   -8.2027  -10.7308 N   0  0  0  0  0  0  0  0  0  0  0  0
   15.7303   -5.8025  -10.8073 C   0  0  0  0  0  0  0  0  0  0  0  0
   16.9841   -5.7790  -10.6242 O   0  0  0  0  0  0  0  0  0  0  0  0
   18.1119   -2.2052  -14.0066 N   0  0  0  0  0  0  0  0  0  0  0  0
   16.7105   -2.2315  -13.8252 C   0  0  0  0  0  0  0  0  0  0  0  0
   16.0423   -1.2155  -14.1181 O   0  0  0  0  0  0  0  0  0  0  0  0
   16.0449   -3.4353  -13.2997 C   0  0  0  0  0  0  0  0  0  0  0  0
   16.0219   -3.5323  -11.8050 C   0  0  2  0  0  0  0  0  0  0  0  0
   15.1623   -4.6639  -11.4264 N   0  0  0  0  0  0  0  0  0  0  0  0
   15.4811   -2.2593  -11.2835 C   0  0  0  0  0  0  0  0  0  0  0  0
   14.1987   -2.2052  -10.7876 O   0  0  0  0  0  0  0  0  0  0  0  0
   16.1990   -1.2410  -11.2991 O   0  0  0  0  0  0  0  0  0  0  0  0
  2  1  1  6
  2  3  1  0
  4  2  1  0
  5  4  1  0
  5  7  1  0
  5  6  1  1
  7 13  1  0
  8  7  2  0
 10  9  1  1
 10 11  1  0
 12 10  1  0
 12 13  1  1
 14 21  1  0
 14 12  1  0
 15 14  2  0
 17 16  1  0
 17 18  2  0
 19 17  1  0
 20 19  1  6
 20 22  1  0
 20 21  1  0
 22 23  1  0
 24 22  2  0
M  END
$$$$
