LVN.pdb
     RDKit          3D

 24 23  0  0  1  0  0  0  0  0999 V2000
   17.6537  -14.9424    1.2268 C   0  0  0  0  0  0  0  0  0  0  0  0
   17.9695  -14.2060    2.5175 C   0  0  1  0  0  0  0  0  0  0  0  0
   16.5999  -13.8237    3.0996 C   0  0  0  0  0  0  0  0  0  0  0  0
   18.7189  -15.0343    3.4897 C   0  0  0  0  0  0  0  0  0  0  0  0
   19.0943  -14.4277    4.7753 C   0  0  2  0  0  0  0  0  0  0  0  0
   19.8959  -13.2338    4.6322 N   0  0  0  0  0  0  0  0  0  0  0  0
   19.7181  -15.3002    5.7896 C   0  0  0  0  0  0  0  0  0  0  0  0
   20.8558  -15.8555    5.5421 O   0  0  0  0  0  0  0  0  0  0  0  0
   19.1773  -15.1345    9.7626 C   0  0  0  0  0  0  0  0  0  0  0  0
   20.3907  -15.7660    9.0890 C   0  0  2  0  0  0  0  0  0  0  0  0
   21.3443  -14.6804    8.7209 C   0  0  0  0  0  0  0  0  0  0  0  0
   19.8640  -16.5844    7.9547 C   0  0  2  0  0  0  0  0  0  0  0  0
   19.1846  -15.6163    7.0608 N   0  0  0  0  0  0  0  0  0  0  0  0
   18.9120  -17.6411    8.3298 C   0  0  0  0  0  0  0  0  0  0  0  0
   17.6581  -17.4583    8.3493 O   0  0  0  0  0  0  0  0  0  0  0  0
   16.7031  -22.1860    9.4631 N   0  0  0  0  0  0  0  0  0  0  0  0
   17.9061  -22.3909    8.7499 C   0  0  0  0  0  0  0  0  0  0  0  0
   18.1776  -23.5400    8.3372 O   0  0  0  0  0  0  0  0  0  0  0  0
   18.8271  -21.2706    8.4955 C   0  0  0  0  0  0  0  0  0  0  0  0
   18.3972  -19.9636    9.0881 C   0  0  2  0  0  0  0  0  0  0  0  0
   19.3665  -18.9319    8.6896 N   0  0  0  0  0  0  0  0  0  0  0  0
   18.3716  -20.1265   10.5571 C   0  0  0  0  0  0  0  0  0  0  0  0
   17.3723  -20.8609   11.1532 O   0  0  0  0  0  0  0  0  0  0  0  0
   19.2631  -19.5923   11.2445 O   0  0  0  0  0  0  0  0  0  0  0  0
  2  1  1  6
  2  3  1  0
  4  2  1  0
  5  4  1  0
  5  7  1  0
  5  6  1  6
  7 13  1  0
  8  7  2  0
 10  9  1  6
 10 11  1  0
 12 10  1  0
 12 13  1  6
 14 21  1  0
 14 12  1  0
 15 14  2  0
 17 16  1  0
 17 18  2  0
 19 17  1  0
 20 19  1  6
 20 22  1  0
 20 21  1  0
 22 23  1  0
 24 22  2  0
M  END
$$$$
