LVN.pdb
     RDKit          3D

 24 23  0  0  1  0  0  0  0  0999 V2000
   16.5921  -15.8907  -18.4192 C   0  0  0  0  0  0  0  0  0  0  0  0
   17.9250  -16.3028  -17.8179 C   0  0  1  0  0  0  0  0  0  0  0  0
   18.8311  -16.5903  -19.0251 C   0  0  0  0  0  0  0  0  0  0  0  0
   18.5299  -15.2496  -16.9709 C   0  0  0  0  0  0  0  0  0  0  0  0
   19.8409  -15.5163  -16.3609 C   0  0  2  0  0  0  0  0  0  0  0  0
   19.8647  -16.7180  -15.5586 N   0  0  0  0  0  0  0  0  0  0  0  0
   20.4786  -14.4240  -15.5998 C   0  0  0  0  0  0  0  0  0  0  0  0
   20.0695  -14.1528  -14.4069 O   0  0  0  0  0  0  0  0  0  0  0  0
   24.1700  -11.5763  -14.4147 C   0  0  0  0  0  0  0  0  0  0  0  0
   23.5676  -12.7216  -15.2211 C   0  0  2  0  0  0  0  0  0  0  0  0
   24.1945  -12.7269  -16.5739 C   0  0  0  0  0  0  0  0  0  0  0  0
   22.0862  -12.5253  -15.1890 C   0  0  2  0  0  0  0  0  0  0  0  0
   21.5342  -13.5977  -16.0509 N   0  0  0  0  0  0  0  0  0  0  0  0
   21.6131  -11.2226  -15.6813 C   0  0  0  0  0  0  0  0  0  0  0  0
   21.5450  -10.9397  -16.9148 O   0  0  0  0  0  0  0  0  0  0  0  0
   18.1239   -6.7162  -15.1231 N   0  0  0  0  0  0  0  0  0  0  0  0
   19.4288   -6.9064  -14.6144 C   0  0  0  0  0  0  0  0  0  0  0  0
   20.1747   -5.9124  -14.4724 O   0  0  0  0  0  0  0  0  0  0  0  0
   19.9052   -8.2529  -14.2564 C   0  0  0  0  0  0  0  0  0  0  0  0
   20.7653   -8.9061  -15.2946 C   0  0  2  0  0  0  0  0  0  0  0  0
   21.2042  -10.2117  -14.7794 N   0  0  0  0  0  0  0  0  0  0  0  0
   21.9213   -8.0180  -15.5395 C   0  0  0  0  0  0  0  0  0  0  0  0
   21.9643   -7.2366  -16.6714 O   0  0  0  0  0  0  0  0  0  0  0  0
   22.8515   -7.9870  -14.7111 O   0  0  0  0  0  0  0  0  0  0  0  0
  2  1  1  6
  2  3  1  0
  4  2  1  0
  5  4  1  0
  5  7  1  0
  5  6  1  1
  7 13  1  0
  8  7  2  0
 10  9  1  1
 10 11  1  0
 12 10  1  0
 12 13  1  6
 14 21  1  0
 14 12  1  0
 15 14  2  0
 17 16  1  0
 17 18  2  0
 19 17  1  0
 20 19  1  1
 20 22  1  0
 20 21  1  0
 22 23  1  0
 24 22  2  0
M  END
$$$$
