LVN.pdb
     RDKit          3D

 24 23  0  0  1  0  0  0  0  0999 V2000
   27.8404  -19.1496   -6.9236 C   0  0  0  0  0  0  0  0  0  0  0  0
   27.2256  -20.2675   -7.7485 C   0  0  1  0  0  0  0  0  0  0  0  0
   26.3205  -21.0299   -6.7686 C   0  0  0  0  0  0  0  0  0  0  0  0
   26.4277  -19.7723   -8.8934 C   0  0  0  0  0  0  0  0  0  0  0  0
   25.8516  -20.7601   -9.8176 C   0  0  2  0  0  0  0  0  0  0  0  0
   26.8247  -21.6944  -10.3357 N   0  0  0  0  0  0  0  0  0  0  0  0
   25.0332  -20.2560  -10.9380 C   0  0  0  0  0  0  0  0  0  0  0  0
   24.1327  -19.3588  -10.7184 O   0  0  0  0  0  0  0  0  0  0  0  0
   24.4353  -19.1251  -15.5857 C   0  0  0  0  0  0  0  0  0  0  0  0
   25.2486  -19.7939  -14.4829 C   0  0  2  0  0  0  0  0  0  0  0  0
   25.8876  -21.0185  -15.0444 C   0  0  0  0  0  0  0  0  0  0  0  0
   24.3092  -20.0129  -13.3411 C   0  0  2  0  0  0  0  0  0  0  0  0
   25.1238  -20.6660  -12.2887 N   0  0  0  0  0  0  0  0  0  0  0  0
   23.1429  -20.8580  -13.6388 C   0  0  0  0  0  0  0  0  0  0  0  0
   23.2489  -22.0499  -14.0563 O   0  0  0  0  0  0  0  0  0  0  0  0
   19.3653  -22.4598  -10.4220 N   0  0  0  0  0  0  0  0  0  0  0  0
   20.0685  -22.3596  -11.6440 C   0  0  0  0  0  0  0  0  0  0  0  0
   20.9455  -23.2109  -11.9101 O   0  0  0  0  0  0  0  0  0  0  0  0
   19.7751  -21.2708  -12.5909 C   0  0  0  0  0  0  0  0  0  0  0  0
   20.6773  -21.2241  -13.7858 C   0  0  2  0  0  0  0  0  0  0  0  0
   21.8276  -20.3656  -13.4658 N   0  0  0  0  0  0  0  0  0  0  0  0
   19.8983  -20.6671  -14.9118 C   0  0  0  0  0  0  0  0  0  0  0  0
   19.0549  -21.4781  -15.6361 O   0  0  0  0  0  0  0  0  0  0  0  0
   20.0153  -19.4593  -15.1945 O   0  0  0  0  0  0  0  0  0  0  0  0
  2  1  1  1
  2  3  1  0
  4  2  1  0
  5  4  1  0
  5  7  1  0
  5  6  1  6
  7 13  1  0
  8  7  2  0
 10  9  1  6
 10 11  1  0
 12 10  1  0
 12 13  1  1
 14 21  1  0
 14 12  1  0
 15 14  2  0
 17 16  1  0
 17 18  2  0
 19 17  1  0
 20 19  1  1
 20 22  1  0
 20 21  1  0
 22 23  1  0
 24 22  2  0
M  END
$$$$
