LVN.pdb
     RDKit          3D

 24 23  0  0  1  0  0  0  0  0999 V2000
   21.3015  -21.7322   -9.9295 C   0  0  0  0  0  0  0  0  0  0  0  0
   21.7311  -21.7881  -11.3857 C   0  0  1  0  0  0  0  0  0  0  0  0
   20.4233  -21.9385  -12.1780 C   0  0  0  0  0  0  0  0  0  0  0  0
   22.4516  -20.5714  -11.8251 C   0  0  0  0  0  0  0  0  0  0  0  0
   23.1204  -20.5948  -13.1343 C   0  0  2  0  0  0  0  0  0  0  0  0
   23.1899  -21.9151  -13.7177 N   0  0  0  0  0  0  0  0  0  0  0  0
   24.4486  -19.9589  -13.2379 C   0  0  0  0  0  0  0  0  0  0  0  0
   24.6304  -18.7768  -12.7545 O   0  0  0  0  0  0  0  0  0  0  0  0
   29.2137  -19.9878  -13.2405 C   0  0  0  0  0  0  0  0  0  0  0  0
   27.8956  -20.7496  -13.3248 C   0  0  2  0  0  0  0  0  0  0  0  0
   28.1137  -21.9816  -14.1358 C   0  0  0  0  0  0  0  0  0  0  0  0
   26.8861  -19.7860  -13.8600 C   0  0  2  0  0  0  0  0  0  0  0  0
   25.5989  -20.5213  -13.8387 N   0  0  0  0  0  0  0  0  0  0  0  0
   27.1399  -19.3023  -15.2256 C   0  0  0  0  0  0  0  0  0  0  0  0
   28.2653  -18.8513  -15.5947 O   0  0  0  0  0  0  0  0  0  0  0  0
   28.8060  -20.7475  -19.7645 N   0  0  0  0  0  0  0  0  0  0  0  0
   27.5262  -21.0305  -19.2354 C   0  0  0  0  0  0  0  0  0  0  0  0
   26.6641  -21.5483  -19.9790 O   0  0  0  0  0  0  0  0  0  0  0  0
   27.2104  -20.7214  -17.8308 C   0  0  0  0  0  0  0  0  0  0  0  0
   26.4696  -19.4354  -17.6271 C   0  0  2  0  0  0  0  0  0  0  0  0
   26.1176  -19.3227  -16.2037 N   0  0  0  0  0  0  0  0  0  0  0  0
   25.2564  -19.4809  -18.4703 C   0  0  0  0  0  0  0  0  0  0  0  0
   25.3273  -19.1398  -19.8016 O   0  0  0  0  0  0  0  0  0  0  0  0
   24.1741  -19.8306  -17.9615 O   0  0  0  0  0  0  0  0  0  0  0  0
  2  1  1  1
  2  3  1  0
  4  2  1  0
  5  4  1  0
  5  7  1  0
  5  6  1  1
  7 13  1  0
  8  7  2  0
 10  9  1  6
 10 11  1  0
 12 10  1  0
 12 13  1  6
 14 21  1  0
 14 12  1  0
 15 14  2  0
 17 16  1  0
 17 18  2  0
 19 17  1  0
 20 19  1  1
 20 22  1  0
 20 21  1  0
 22 23  1  0
 24 22  2  0
M  END
$$$$
