LVN.pdb
     RDKit          3D

 24 23  0  0  1  0  0  0  0  0999 V2000
   19.1662  -19.0560  -15.6277 C   0  0  0  0  0  0  0  0  0  0  0  0
   20.4855  -18.9772  -14.8786 C   0  0  1  0  0  0  0  0  0  0  0  0
   20.5208  -17.5589  -14.2885 C   0  0  0  0  0  0  0  0  0  0  0  0
   20.5979  -19.9792  -13.7941 C   0  0  0  0  0  0  0  0  0  0  0  0
   21.7804  -19.9292  -12.9218 C   0  0  2  0  0  0  0  0  0  0  0  0
   23.0286  -20.0190  -13.6446 N   0  0  0  0  0  0  0  0  0  0  0  0
   21.8271  -20.8580  -11.7754 C   0  0  0  0  0  0  0  0  0  0  0  0
   21.7887  -22.1307  -11.9822 O   0  0  0  0  0  0  0  0  0  0  0  0
   22.5882  -19.7626   -7.8241 C   0  0  0  0  0  0  0  0  0  0  0  0
   23.0450  -21.0882   -8.4234 C   0  0  2  0  0  0  0  0  0  0  0  0
   24.3859  -20.8882   -9.0439 C   0  0  0  0  0  0  0  0  0  0  0  0
   21.9568  -21.5291   -9.3482 C   0  0  2  0  0  0  0  0  0  0  0  0
   21.9086  -20.4961  -10.4105 N   0  0  0  0  0  0  0  0  0  0  0  0
   20.6241  -21.6529   -8.7384 C   0  0  0  0  0  0  0  0  0  0  0  0
   19.7181  -20.7795   -8.8882 O   0  0  0  0  0  0  0  0  0  0  0  0
   15.7914  -23.2203   -8.6538 N   0  0  0  0  0  0  0  0  0  0  0  0
   16.8486  -24.1514   -8.5391 C   0  0  0  0  0  0  0  0  0  0  0  0
   16.5827  -25.3362   -8.2391 O   0  0  0  0  0  0  0  0  0  0  0  0
   18.2423  -23.7354   -8.7687 C   0  0  0  0  0  0  0  0  0  0  0  0
   18.8852  -23.0421   -7.6068 C   0  0  2  0  0  0  0  0  0  0  0  0
   20.2914  -22.7762   -7.9448 N   0  0  0  0  0  0  0  0  0  0  0  0
   18.7827  -23.9414   -6.4381 C   0  0  0  0  0  0  0  0  0  0  0  0
   19.9055  -24.5687   -5.9488 O   0  0  0  0  0  0  0  0  0  0  0  0
   17.6712  -24.1227   -5.9050 O   0  0  0  0  0  0  0  0  0  0  0  0
  2  1  1  1
  2  3  1  0
  4  2  1  0
  5  4  1  0
  5  7  1  0
  5  6  1  6
  7 13  1  0
  8  7  2  0
 10  9  1  6
 10 11  1  0
 12 10  1  0
 12 13  1  6
 14 21  1  0
 14 12  1  0
 15 14  2  0
 17 16  1  0
 17 18  2  0
 19 17  1  0
 20 19  1  6
 20 22  1  0
 20 21  1  0
 22 23  1  0
 24 22  2  0
M  END
$$$$
