LVN.pdb
     RDKit          3D

 24 23  0  0  1  0  0  0  0  0999 V2000
   20.6416  -18.0542  -15.6050 C   0  0  0  0  0  0  0  0  0  0  0  0
   21.5065  -19.2126  -15.1379 C   0  0  1  0  0  0  0  0  0  0  0  0
   20.6163  -20.4559  -15.2873 C   0  0  0  0  0  0  0  0  0  0  0  0
   22.7410  -19.3750  -15.9394 C   0  0  0  0  0  0  0  0  0  0  0  0
   23.6236  -20.5104  -15.6334 C   0  0  2  0  0  0  0  0  0  0  0  0
   24.1165  -20.5020  -14.2750 N   0  0  0  0  0  0  0  0  0  0  0  0
   24.7539  -20.7668  -16.5477 C   0  0  0  0  0  0  0  0  0  0  0  0
   24.5400  -20.8662  -17.8159 O   0  0  0  0  0  0  0  0  0  0  0  0
   28.5520  -19.6879  -15.9110 C   0  0  0  0  0  0  0  0  0  0  0  0
   27.9328  -19.9134  -17.2860 C   0  0  2  0  0  0  0  0  0  0  0  0
   27.1521  -18.6985  -17.6570 C   0  0  0  0  0  0  0  0  0  0  0  0
   27.1549  -21.1863  -17.1936 C   0  0  2  0  0  0  0  0  0  0  0  0
   26.1088  -20.9282  -16.1753 N   0  0  0  0  0  0  0  0  0  0  0  0
   27.9307  -22.3706  -16.7951 C   0  0  0  0  0  0  0  0  0  0  0  0
   28.0977  -22.7049  -15.5841 O   0  0  0  0  0  0  0  0  0  0  0  0
   28.1023  -27.8203  -16.5707 N   0  0  0  0  0  0  0  0  0  0  0  0
   28.8144  -26.6360  -16.2738 C   0  0  0  0  0  0  0  0  0  0  0  0
   29.9149  -26.7219  -15.6858 O   0  0  0  0  0  0  0  0  0  0  0  0
   28.2710  -25.3201  -16.6501 C   0  0  0  0  0  0  0  0  0  0  0  0
   29.2442  -24.4207  -17.3486 C   0  0  2  0  0  0  0  0  0  0  0  0
   28.5333  -23.2035  -17.7676 N   0  0  0  0  0  0  0  0  0  0  0  0
   29.7705  -25.1554  -18.5184 C   0  0  0  0  0  0  0  0  0  0  0  0
   30.8842  -25.9531  -18.3891 O   0  0  0  0  0  0  0  0  0  0  0  0
   29.1945  -25.0428  -19.6175 O   0  0  0  0  0  0  0  0  0  0  0  0
  2  1  1  6
  2  3  1  0
  4  2  1  0
  5  4  1  0
  5  7  1  0
  5  6  1  1
  7 13  1  0
  8  7  2  0
 10  9  1  1
 10 11  1  0
 12 10  1  0
 12 13  1  1
 14 21  1  0
 14 12  1  0
 15 14  2  0
 17 16  1  0
 17 18  2  0
 19 17  1  0
 20 19  1  6
 20 22  1  0
 20 21  1  0
 22 23  1  0
 24 22  2  0
M  END
$$$$
