LVN.pdb
     RDKit          3D

 24 23  0  0  1  0  0  0  0  0999 V2000
   28.7350  -20.3677   -6.4216 C   0  0  0  0  0  0  0  0  0  0  0  0
   27.3661  -20.0314   -6.9883 C   0  0  1  0  0  0  0  0  0  0  0  0
   27.2749  -18.4993   -6.9181 C   0  0  0  0  0  0  0  0  0  0  0  0
   27.1896  -20.4851   -8.3867 C   0  0  0  0  0  0  0  0  0  0  0  0
   25.9517  -20.1125   -9.0870 C   0  0  2  0  0  0  0  0  0  0  0  0
   24.8094  -20.9034   -8.6897 N   0  0  0  0  0  0  0  0  0  0  0  0
   25.9916  -20.0422  -10.5610 C   0  0  0  0  0  0  0  0  0  0  0  0
   26.9246  -19.3682  -11.1435 O   0  0  0  0  0  0  0  0  0  0  0  0
   24.0494  -22.5909  -13.0214 C   0  0  0  0  0  0  0  0  0  0  0  0
   25.2998  -21.8485  -13.4798 C   0  0  2  0  0  0  0  0  0  0  0  0
   26.4954  -22.6362  -13.0635 C   0  0  0  0  0  0  0  0  0  0  0  0
   25.1994  -20.4676  -12.9167 C   0  0  2  0  0  0  0  0  0  0  0  0
   25.0786  -20.6544  -11.4511 N   0  0  0  0  0  0  0  0  0  0  0  0
   24.0571  -19.6742  -13.3952 C   0  0  0  0  0  0  0  0  0  0  0  0
   22.9414  -19.6480  -12.7946 O   0  0  0  0  0  0  0  0  0  0  0  0
   21.2315  -16.0576  -15.8702 N   0  0  0  0  0  0  0  0  0  0  0  0
   22.5832  -15.9333  -16.2641 C   0  0  0  0  0  0  0  0  0  0  0  0
   22.9192  -14.9640  -16.9796 O   0  0  0  0  0  0  0  0  0  0  0  0
   23.5823  -16.9284  -15.8400 C   0  0  0  0  0  0  0  0  0  0  0  0
   23.0433  -18.0193  -14.9662 C   0  0  2  0  0  0  0  0  0  0  0  0
   24.1596  -18.8901  -14.5687 N   0  0  0  0  0  0  0  0  0  0  0  0
   22.0422  -18.7688  -15.7543 C   0  0  0  0  0  0  0  0  0  0  0  0
   20.7169  -18.4003  -15.7167 O   0  0  0  0  0  0  0  0  0  0  0  0
   22.4131  -19.7339  -16.4496 O   0  0  0  0  0  0  0  0  0  0  0  0
  2  1  1  6
  2  3  1  0
  4  2  1  0
  5  4  1  0
  5  7  1  0
  5  6  1  6
  7 13  1  0
  8  7  2  0
 10  9  1  1
 10 11  1  0
 12 10  1  0
 12 13  1  1
 14 21  1  0
 14 12  1  0
 15 14  2  0
 17 16  1  0
 17 18  2  0
 19 17  1  0
 20 19  1  6
 20 22  1  0
 20 21  1  0
 22 23  1  0
 24 22  2  0
M  END
$$$$
