LVN.pdb
     RDKit          3D

 24 23  0  0  1  0  0  0  0  0999 V2000
   18.7083  -17.6617  -14.5170 C   0  0  0  0  0  0  0  0  0  0  0  0
   19.6255  -17.4528  -15.7099 C   0  0  1  0  0  0  0  0  0  0  0  0
   18.7055  -17.5456  -16.9370 C   0  0  0  0  0  0  0  0  0  0  0  0
   20.3126  -16.1412  -15.6909 C   0  0  0  0  0  0  0  0  0  0  0  0
   21.2013  -15.8061  -16.8132 C   0  0  2  0  0  0  0  0  0  0  0  0
   22.2882  -16.7434  -16.9818 N   0  0  0  0  0  0  0  0  0  0  0  0
   21.7430  -14.4342  -16.8736 C   0  0  0  0  0  0  0  0  0  0  0  0
   22.7906  -14.1300  -16.1851 O   0  0  0  0  0  0  0  0  0  0  0  0
   21.1286  -11.8763  -19.8963 C   0  0  0  0  0  0  0  0  0  0  0  0
   22.3442  -11.7796  -18.9809 C   0  0  2  0  0  0  0  0  0  0  0  0
   23.3823  -12.7299  -19.4733 C   0  0  0  0  0  0  0  0  0  0  0  0
   21.8456  -12.0195  -17.5925 C   0  0  2  0  0  0  0  0  0  0  0  0
   21.2182  -13.3620  -17.6323 N   0  0  0  0  0  0  0  0  0  0  0  0
   20.8611  -11.0441  -17.0999 C   0  0  0  0  0  0  0  0  0  0  0  0
   19.6604  -11.0182  -17.5047 O   0  0  0  0  0  0  0  0  0  0  0  0
   18.3827   -7.4824  -14.2562 N   0  0  0  0  0  0  0  0  0  0  0  0
   19.1816   -8.3590  -13.4874 C   0  0  0  0  0  0  0  0  0  0  0  0
   19.0239   -8.3919  -12.2470 O   0  0  0  0  0  0  0  0  0  0  0  0
   20.1846   -9.2213  -14.1343 C   0  0  0  0  0  0  0  0  0  0  0  0
   20.2100   -9.1339  -15.6296 C   0  0  2  0  0  0  0  0  0  0  0  0
   21.2210  -10.0760  -16.1327 N   0  0  0  0  0  0  0  0  0  0  0  0
   20.5573   -7.7429  -15.9895 C   0  0  0  0  0  0  0  0  0  0  0  0
   19.5702   -6.7902  -16.0969 O   0  0  0  0  0  0  0  0  0  0  0  0
   21.7503   -7.4465  -16.1933 O   0  0  0  0  0  0  0  0  0  0  0  0
  2  1  1  1
  2  3  1  0
  4  2  1  0
  5  4  1  0
  5  7  1  0
  5  6  1  1
  7 13  1  0
  8  7  2  0
 10  9  1  6
 10 11  1  0
 12 10  1  0
 12 13  1  6
 14 21  1  0
 14 12  1  0
 15 14  2  0
 17 16  1  0
 17 18  2  0
 19 17  1  0
 20 19  1  1
 20 22  1  0
 20 21  1  0
 22 23  1  0
 24 22  2  0
M  END
$$$$
