LVN.pdb
     RDKit          3D

 24 23  0  0  1  0  0  0  0  0999 V2000
   29.7108  -21.1430  -18.2076 C   0  0  0  0  0  0  0  0  0  0  0  0
   29.0942  -20.2366  -17.1558 C   0  0  1  0  0  0  0  0  0  0  0  0
   28.5133  -19.0533  -17.9451 C   0  0  0  0  0  0  0  0  0  0  0  0
   28.0239  -20.8981  -16.3751 C   0  0  0  0  0  0  0  0  0  0  0  0
   27.3403  -20.1177  -15.3333 C   0  0  2  0  0  0  0  0  0  0  0  0
   28.2492  -19.4477  -14.4315 N   0  0  0  0  0  0  0  0  0  0  0  0
   26.2980  -20.7976  -14.5393 C   0  0  0  0  0  0  0  0  0  0  0  0
   25.6395  -21.7790  -15.0564 O   0  0  0  0  0  0  0  0  0  0  0  0
   24.8989  -19.7474  -10.6198 C   0  0  0  0  0  0  0  0  0  0  0  0
   25.1714  -21.1748  -11.0816 C   0  0  2  0  0  0  0  0  0  0  0  0
   26.5794  -21.5221  -10.7349 C   0  0  0  0  0  0  0  0  0  0  0  0
   24.8270  -21.2198  -12.5354 C   0  0  2  0  0  0  0  0  0  0  0  0
   25.9167  -20.4793  -13.2151 N   0  0  0  0  0  0  0  0  0  0  0  0
   23.5367  -20.6126  -12.8956 C   0  0  0  0  0  0  0  0  0  0  0  0
   23.3176  -19.3673  -12.8097 O   0  0  0  0  0  0  0  0  0  0  0  0
   19.6875  -19.3172  -16.5015 N   0  0  0  0  0  0  0  0  0  0  0  0
   19.6878  -20.4952  -15.7204 C   0  0  0  0  0  0  0  0  0  0  0  0
   18.5994  -21.0619  -15.4782 O   0  0  0  0  0  0  0  0  0  0  0  0
   20.9486  -21.0487  -15.1987 C   0  0  0  0  0  0  0  0  0  0  0  0
   21.1950  -20.7763  -13.7464 C   0  0  2  0  0  0  0  0  0  0  0  0
   22.4658  -21.4100  -13.3643 N   0  0  0  0  0  0  0  0  0  0  0  0
   20.0662  -21.3536  -12.9864 C   0  0  0  0  0  0  0  0  0  0  0  0
   18.9756  -20.5757  -12.6719 O   0  0  0  0  0  0  0  0  0  0  0  0
   20.1157  -22.5484  -12.6362 O   0  0  0  0  0  0  0  0  0  0  0  0
  2  1  1  6
  2  3  1  0
  4  2  1  0
  5  4  1  0
  5  7  1  0
  5  6  1  1
  7 13  1  0
  8  7  2  0
 10  9  1  6
 10 11  1  0
 12 10  1  0
 12 13  1  6
 14 21  1  0
 14 12  1  0
 15 14  2  0
 17 16  1  0
 17 18  2  0
 19 17  1  0
 20 19  1  6
 20 22  1  0
 20 21  1  0
 22 23  1  0
 24 22  2  0
M  END
$$$$
