LVN.pdb
     RDKit          3D

 24 23  0  0  1  0  0  0  0  0999 V2000
   28.9475  -19.9576   -6.6266 C   0  0  0  0  0  0  0  0  0  0  0  0
   27.5799  -20.1870   -7.2472 C   0  0  1  0  0  0  0  0  0  0  0  0
   26.6950  -19.0670   -6.6785 C   0  0  0  0  0  0  0  0  0  0  0  0
   27.5950  -20.1180   -8.7263 C   0  0  0  0  0  0  0  0  0  0  0  0
   26.3178  -20.2570   -9.4413 C   0  0  2  0  0  0  0  0  0  0  0  0
   25.7633  -21.5895   -9.3682 N   0  0  0  0  0  0  0  0  0  0  0  0
   26.2618  -19.7951  -10.8422 C   0  0  0  0  0  0  0  0  0  0  0  0
   26.1282  -18.5372  -11.0954 O   0  0  0  0  0  0  0  0  0  0  0  0
   27.2441  -21.9976  -14.3826 C   0  0  0  0  0  0  0  0  0  0  0  0
   27.5353  -20.5427  -14.0314 C   0  0  2  0  0  0  0  0  0  0  0  0
   28.7933  -20.4929  -13.2324 C   0  0  0  0  0  0  0  0  0  0  0  0
   26.3102  -20.0201  -13.3532 C   0  0  2  0  0  0  0  0  0  0  0  0
   26.3369  -20.6121  -11.9944 N   0  0  0  0  0  0  0  0  0  0  0  0
   25.0361  -20.3650  -14.0020 C   0  0  0  0  0  0  0  0  0  0  0  0
   24.7696  -20.0492  -15.2001 O   0  0  0  0  0  0  0  0  0  0  0  0
   23.8098  -24.6361  -15.0368 N   0  0  0  0  0  0  0  0  0  0  0  0
   22.7715  -23.6772  -15.0172 C   0  0  0  0  0  0  0  0  0  0  0  0
   22.0732  -23.5192  -16.0427 O   0  0  0  0  0  0  0  0  0  0  0  0
   22.5140  -22.8755  -13.8092 C   0  0  0  0  0  0  0  0  0  0  0  0
   22.7676  -21.4078  -13.9697 C   0  0  2  0  0  0  0  0  0  0  0  0
   24.0359  -21.0800  -13.3015 N   0  0  0  0  0  0  0  0  0  0  0  0
   21.6381  -20.6887  -13.3434 C   0  0  0  0  0  0  0  0  0  0  0  0
   20.4716  -20.4896  -14.0457 O   0  0  0  0  0  0  0  0  0  0  0  0
   21.7564  -20.2674  -12.1768 O   0  0  0  0  0  0  0  0  0  0  0  0
  2  1  1  1
  2  3  1  0
  4  2  1  0
  5  4  1  0
  5  7  1  0
  5  6  1  6
  7 13  1  0
  8  7  2  0
 10  9  1  1
 10 11  1  0
 12 10  1  0
 12 13  1  1
 14 21  1  0
 14 12  1  0
 15 14  2  0
 17 16  1  0
 17 18  2  0
 19 17  1  0
 20 19  1  1
 20 22  1  0
 20 21  1  0
 22 23  1  0
 24 22  2  0
M  END
$$$$
