LVN.pdb
     RDKit          3D

 24 23  0  0  1  0  0  0  0  0999 V2000
   27.1976  -15.6826  -15.5516 C   0  0  0  0  0  0  0  0  0  0  0  0
   25.6992  -15.4884  -15.7097 C   0  0  1  0  0  0  0  0  0  0  0  0
   25.1238  -15.6882  -14.2991 C   0  0  0  0  0  0  0  0  0  0  0  0
   25.3385  -14.1451  -16.2176 C   0  0  0  0  0  0  0  0  0  0  0  0
   23.9166  -13.8458  -16.4417 C   0  0  2  0  0  0  0  0  0  0  0  0
   23.2541  -14.8144  -17.2851 N   0  0  0  0  0  0  0  0  0  0  0  0
   23.5660  -12.4900  -16.9089 C   0  0  0  0  0  0  0  0  0  0  0  0
   24.4487  -11.7780  -17.5238 O   0  0  0  0  0  0  0  0  0  0  0  0
   19.8750  -11.3418  -17.7806 C   0  0  0  0  0  0  0  0  0  0  0  0
   21.0971  -10.6686  -18.3957 C   0  0  2  0  0  0  0  0  0  0  0  0
   21.5603  -11.4937  -19.5481 C   0  0  0  0  0  0  0  0  0  0  0  0
   22.0811  -10.4872  -17.2854 C   0  0  2  0  0  0  0  0  0  0  0  0
   22.3154  -11.8491  -16.7487 N   0  0  0  0  0  0  0  0  0  0  0  0
   21.6402   -9.6093  -16.1908 C   0  0  0  0  0  0  0  0  0  0  0  0
   21.0278  -10.0424  -15.1693 O   0  0  0  0  0  0  0  0  0  0  0  0
   20.9140   -5.6475  -12.9489 N   0  0  0  0  0  0  0  0  0  0  0  0
   22.2152   -5.6614  -13.5005 C   0  0  0  0  0  0  0  0  0  0  0  0
   23.0700   -4.8633  -13.0569 O   0  0  0  0  0  0  0  0  0  0  0  0
   22.5617   -6.6000  -14.5809 C   0  0  0  0  0  0  0  0  0  0  0  0
   21.3979   -7.3530  -15.1491 C   0  0  2  0  0  0  0  0  0  0  0  0
   21.8887   -8.2169  -16.2334 N   0  0  0  0  0  0  0  0  0  0  0  0
   20.4304   -6.3595  -15.6609 C   0  0  0  0  0  0  0  0  0  0  0  0
   20.2352   -6.2199  -17.0158 O   0  0  0  0  0  0  0  0  0  0  0  0
   19.7973   -5.6538  -14.8523 O   0  0  0  0  0  0  0  0  0  0  0  0
  2  1  1  1
  2  3  1  0
  4  2  1  0
  5  4  1  0
  5  7  1  0
  5  6  1  6
  7 13  1  0
  8  7  2  0
 10  9  1  1
 10 11  1  0
 12 10  1  0
 12 13  1  1
 14 21  1  0
 14 12  1  0
 15 14  2  0
 17 16  1  0
 17 18  2  0
 19 17  1  0
 20 19  1  6
 20 22  1  0
 20 21  1  0
 22 23  1  0
 24 22  2  0
M  END
$$$$
