LVN.pdb
     RDKit          3D

 24 23  0  0  1  0  0  0  0  0999 V2000
   15.9966  -13.8770  -18.3154 C   0  0  0  0  0  0  0  0  0  0  0  0
   17.4325  -14.1374  -17.8934 C   0  0  1  0  0  0  0  0  0  0  0  0
   18.2182  -14.2438  -19.2095 C   0  0  0  0  0  0  0  0  0  0  0  0
   17.9959  -13.0553  -17.0540 C   0  0  0  0  0  0  0  0  0  0  0  0
   19.3786  -13.1964  -16.5746 C   0  0  2  0  0  0  0  0  0  0  0  0
   19.6162  -14.4355  -15.8699 N   0  0  0  0  0  0  0  0  0  0  0  0
   19.9489  -12.0852  -15.7877 C   0  0  0  0  0  0  0  0  0  0  0  0
   19.4043  -11.7504  -14.6672 O   0  0  0  0  0  0  0  0  0  0  0  0
   23.5947  -10.3622  -16.4838 C   0  0  0  0  0  0  0  0  0  0  0  0
   22.9613  -10.3324  -15.0972 C   0  0  2  0  0  0  0  0  0  0  0  0
   23.3654  -11.5681  -14.3672 C   0  0  0  0  0  0  0  0  0  0  0  0
   21.4930  -10.1501  -15.3091 C   0  0  2  0  0  0  0  0  0  0  0  0
   21.0748  -11.3048  -16.1394 N   0  0  0  0  0  0  0  0  0  0  0  0
   21.1049   -8.9047  -15.9886 C   0  0  0  0  0  0  0  0  0  0  0  0
   20.9108   -8.8383  -17.2392 O   0  0  0  0  0  0  0  0  0  0  0  0
   18.3971   -5.1104  -18.1811 N   0  0  0  0  0  0  0  0  0  0  0  0
   18.5539   -5.2273  -16.7812 C   0  0  0  0  0  0  0  0  0  0  0  0
   18.2361   -4.2612  -16.0532 O   0  0  0  0  0  0  0  0  0  0  0  0
   19.0830   -6.4662  -16.1868 C   0  0  0  0  0  0  0  0  0  0  0  0
   20.5644   -6.4672  -15.9639 C   0  0  2  0  0  0  0  0  0  0  0  0
   20.9269   -7.7056  -15.2586 N   0  0  0  0  0  0  0  0  0  0  0  0
   20.8939   -5.2785  -15.1494 C   0  0  0  0  0  0  0  0  0  0  0  0
   21.0251   -4.0462  -15.7476 O   0  0  0  0  0  0  0  0  0  0  0  0
   21.0505   -5.4072  -13.9200 O   0  0  0  0  0  0  0  0  0  0  0  0
  2  1  1  6
  2  3  1  0
  4  2  1  0
  5  4  1  0
  5  7  1  0
  5  6  1  1
  7 13  1  0
  8  7  2  0
 10  9  1  6
 10 11  1  0
 12 10  1  0
 12 13  1  6
 14 21  1  0
 14 12  1  0
 15 14  2  0
 17 16  1  0
 17 18  2  0
 19 17  1  0
 20 19  1  1
 20 22  1  0
 20 21  1  0
 22 23  1  0
 24 22  2  0
M  END
$$$$
