QHF.pdb
     RDKit          3D

 31 32  0  0  1  0  0  0  0  0999 V2000
   29.9719  -23.9230  -16.6628 N   0  0  0  0  0  0  0  0  0  0  0  0
   30.5842  -23.2710  -17.7609 C   0  0  0  0  0  0  0  0  0  0  0  0
   31.5087  -23.8211  -18.3976 O   0  0  0  0  0  0  0  0  0  0  0  0
   30.1117  -21.9410  -18.1344 C   0  0  0  0  0  0  0  0  0  0  0  0
   28.9999  -21.3851  -17.3205 C   0  0  0  0  0  0  0  0  0  0  0  0
   27.6237  -21.7926  -17.7366 C   0  0  2  0  0  0  0  0  0  0  0  0
   27.3767  -21.4257  -19.1356 N   0  0  0  0  0  0  0  0  0  0  0  0
   26.5934  -21.0795  -16.9009 C   0  0  0  0  0  0  0  0  0  0  0  0
   26.7571  -20.9268  -15.6635 O   0  0  0  0  0  0  0  0  0  0  0  0
   25.4084  -20.5553  -17.4642 N   0  0  0  0  0  0  0  0  0  0  0  0
   24.4186  -19.8495  -16.7133 C   0  0  1  0  0  0  0  0  0  0  0  0
   23.3525  -19.2122  -17.5671 C   0  0  0  0  0  0  0  0  0  0  0  0
   22.3598  -18.4654  -16.7555 C   0  0  0  0  0  0  0  0  0  0  0  0
   22.4230  -18.3674  -15.3831 C   0  0  0  0  0  0  0  0  0  0  0  0
   21.3965  -17.6370  -14.9513 N   0  0  0  0  0  0  0  0  0  0  0  0
   20.6904  -17.2754  -16.0329 C   0  0  0  0  0  0  0  0  0  0  0  0
   21.2731  -17.7771  -17.1307 N   0  0  0  0  0  0  0  0  0  0  0  0
   23.7209  -20.7966  -15.7896 C   0  0  0  0  0  0  0  0  0  0  0  0
   23.0680  -21.7741  -16.2433 O   0  0  0  0  0  0  0  0  0  0  0  0
   23.7616  -20.6398  -14.3768 N   0  0  0  0  0  0  0  0  0  0  0  0
   23.0800  -21.5618  -13.4745 C   0  0  1  0  0  0  0  0  0  0  0  0
   24.0873  -22.3522  -12.6575 C   0  0  0  0  0  0  0  0  0  0  0  0
   24.8072  -21.3911  -11.7841 C   0  0  0  0  0  0  0  0  0  0  0  0
   24.4292  -21.2973  -10.4476 C   0  0  0  0  0  0  0  0  0  0  0  0
   25.0681  -20.4225   -9.6229 C   0  0  0  0  0  0  0  0  0  0  0  0
   26.0840  -19.6418  -10.1332 C   0  0  0  0  0  0  0  0  0  0  0  0
   26.4698  -19.7228  -11.4534 C   0  0  0  0  0  0  0  0  0  0  0  0
   25.8198  -20.6180  -12.3080 C   0  0  0  0  0  0  0  0  0  0  0  0
   22.1642  -20.7586  -12.6349 C   0  0  0  0  0  0  0  0  0  0  0  0
   22.2154  -19.3656  -12.5607 O   0  0  0  0  0  0  0  0  0  0  0  0
   21.2619  -21.2961  -11.9187 O   0  0  0  0  0  0  0  0  0  0  0  0
  2  3  2  0
  2  1  1  0
  4  2  1  0
  5  4  1  0
  6  5  1  0
  6  7  1  6
  8  6  1  0
  8  9  2  0
 10  8  1  0
 11 10  1  0
 11 12  1  6
 13 14  2  0
 13 12  1  0
 15 14  1  0
 16 17  2  0
 16 15  1  0
 17 13  1  0
 18 20  1  0
 18 11  1  0
 19 18  2  0
 21 20  1  0
 21 29  1  0
 21 22  1  1
 23 28  1  0
 23 22  1  0
 24 23  2  0
 25 26  2  0
 25 24  1  0
 26 27  1  0
 27 28  2  0
 29 30  1  0
 31 29  2  0
M  END
$$$$
