QHF.pdb
     RDKit          3D

 31 32  0  0  1  0  0  0  0  0999 V2000
   12.1406  -10.4735  -12.9863 N   0  0  0  0  0  0  0  0  0  0  0  0
   12.5525  -11.7133  -13.5331 C   0  0  0  0  0  0  0  0  0  0  0  0
   11.8882  -12.7534  -13.3332 O   0  0  0  0  0  0  0  0  0  0  0  0
   13.7707  -11.7510  -14.3367 C   0  0  0  0  0  0  0  0  0  0  0  0
   14.4071  -10.4405  -14.6289 C   0  0  0  0  0  0  0  0  0  0  0  0
   15.8483  -10.4914  -15.0207 C   0  0  2  0  0  0  0  0  0  0  0  0
   16.2609  -11.8725  -15.2954 N   0  0  0  0  0  0  0  0  0  0  0  0
   16.7126   -9.9840  -13.8965 C   0  0  0  0  0  0  0  0  0  0  0  0
   16.9201  -10.6845  -12.8730 O   0  0  0  0  0  0  0  0  0  0  0  0
   17.3233   -8.7106  -13.9410 N   0  0  0  0  0  0  0  0  0  0  0  0
   18.0460   -8.1395  -12.8486 C   0  0  1  0  0  0  0  0  0  0  0  0
   19.3498   -7.5012  -13.2540 C   0  0  0  0  0  0  0  0  0  0  0  0
   20.3461   -8.5042  -13.7048 C   0  0  0  0  0  0  0  0  0  0  0  0
   20.1187   -9.8624  -13.6789 C   0  0  0  0  0  0  0  0  0  0  0  0
   21.1957  -10.4928  -14.1441 N   0  0  0  0  0  0  0  0  0  0  0  0
   22.0951   -9.5498  -14.4615 C   0  0  0  0  0  0  0  0  0  0  0  0
   21.5820   -8.3405  -14.1958 N   0  0  0  0  0  0  0  0  0  0  0  0
   17.2225   -7.0672  -12.2092 C   0  0  0  0  0  0  0  0  0  0  0  0
   16.6164   -6.2157  -12.9131 O   0  0  0  0  0  0  0  0  0  0  0  0
   17.0874   -6.9605  -10.7977 N   0  0  0  0  0  0  0  0  0  0  0  0
   16.3572   -5.8648  -10.1693 C   0  0  1  0  0  0  0  0  0  0  0  0
   14.8801   -5.9397  -10.5147 C   0  0  0  0  0  0  0  0  0  0  0  0
   14.3168   -7.1221   -9.8150 C   0  0  0  0  0  0  0  0  0  0  0  0
   13.7705   -6.9447   -8.5470 C   0  0  0  0  0  0  0  0  0  0  0  0
   13.2498   -8.0107   -7.8788 C   0  0  0  0  0  0  0  0  0  0  0  0
   13.2749   -9.2530   -8.4773 C   0  0  0  0  0  0  0  0  0  0  0  0
   13.8120   -9.4447   -9.7315 C   0  0  0  0  0  0  0  0  0  0  0  0
   14.3491   -8.3565  -10.4254 C   0  0  0  0  0  0  0  0  0  0  0  0
   16.6110   -5.9450   -8.7140 C   0  0  0  0  0  0  0  0  0  0  0  0
   16.1110   -5.0193   -7.7965 O   0  0  0  0  0  0  0  0  0  0  0  0
   17.3107   -6.8751   -8.2029 O   0  0  0  0  0  0  0  0  0  0  0  0
  2  3  2  0
  2  1  1  0
  4  2  1  0
  5  4  1  0
  6  5  1  0
  6  7  1  1
  8  6  1  0
  8  9  2  0
 10  8  1  0
 11 10  1  0
 11 12  1  6
 13 14  2  0
 13 12  1  0
 15 14  1  0
 16 17  2  0
 16 15  1  0
 17 13  1  0
 18 20  1  0
 18 11  1  0
 19 18  2  0
 21 20  1  0
 21 29  1  0
 21 22  1  1
 23 28  1  0
 23 22  1  0
 24 23  2  0
 25 26  2  0
 25 24  1  0
 26 27  1  0
 27 28  2  0
 29 30  1  0
 31 29  2  0
M  END
$$$$
