QHF.pdb
     RDKit          3D

 31 32  0  0  1  0  0  0  0  0999 V2000
   28.8078  -14.9211  -18.1365 N   0  0  0  0  0  0  0  0  0  0  0  0
   29.8332  -15.8919  -18.2463 C   0  0  0  0  0  0  0  0  0  0  0  0
   30.7342  -15.7771  -19.1053 O   0  0  0  0  0  0  0  0  0  0  0  0
   29.8160  -17.0310  -17.3332 C   0  0  0  0  0  0  0  0  0  0  0  0
   28.6313  -17.1434  -16.4436 C   0  0  0  0  0  0  0  0  0  0  0  0
   27.7057  -18.2798  -16.7353 C   0  0  2  0  0  0  0  0  0  0  0  0
   26.9234  -18.0114  -17.9473 N   0  0  0  0  0  0  0  0  0  0  0  0
   26.7271  -18.4589  -15.6045 C   0  0  0  0  0  0  0  0  0  0  0  0
   26.5890  -17.5737  -14.7221 O   0  0  0  0  0  0  0  0  0  0  0  0
   25.9281  -19.6182  -15.4856 N   0  0  0  0  0  0  0  0  0  0  0  0
   24.9388  -19.7984  -14.4704 C   0  0  1  0  0  0  0  0  0  0  0  0
   23.6721  -20.4456  -14.9686 C   0  0  0  0  0  0  0  0  0  0  0  0
   22.6939  -20.6720  -13.8762 C   0  0  0  0  0  0  0  0  0  0  0  0
   22.9359  -20.3398  -12.5616 C   0  0  0  0  0  0  0  0  0  0  0  0
   21.8730  -20.6649  -11.8279 N   0  0  0  0  0  0  0  0  0  0  0  0
   20.9679  -21.1961  -12.6631 C   0  0  0  0  0  0  0  0  0  0  0  0
   21.4636  -21.2019  -13.9083 N   0  0  0  0  0  0  0  0  0  0  0  0
   25.4807  -20.6850  -13.3947 C   0  0  0  0  0  0  0  0  0  0  0  0
   26.2206  -21.6642  -13.6801 O   0  0  0  0  0  0  0  0  0  0  0  0
   25.1901  -20.4669  -12.0199 N   0  0  0  0  0  0  0  0  0  0  0  0
   25.6440  -21.3809  -10.9771 C   0  0  1  0  0  0  0  0  0  0  0  0
   27.1189  -21.1671  -10.6842 C   0  0  0  0  0  0  0  0  0  0  0  0
   27.2188  -20.4716   -9.3761 C   0  0  0  0  0  0  0  0  0  0  0  0
   27.5349  -21.2230   -8.2476 C   0  0  0  0  0  0  0  0  0  0  0  0
   27.6298  -20.6141   -7.0335 C   0  0  0  0  0  0  0  0  0  0  0  0
   27.4090  -19.2555   -6.9470 C   0  0  0  0  0  0  0  0  0  0  0  0
   27.0953  -18.4982   -8.0543 C   0  0  0  0  0  0  0  0  0  0  0  0
   26.9954  -19.1143   -9.3053 C   0  0  0  0  0  0  0  0  0  0  0  0
   24.7857  -21.1577   -9.7929 C   0  0  0  0  0  0  0  0  0  0  0  0
   24.6763  -22.0705   -8.7424 O   0  0  0  0  0  0  0  0  0  0  0  0
   24.0845  -20.1059   -9.6583 O   0  0  0  0  0  0  0  0  0  0  0  0
  2  3  2  0
  2  1  1  0
  4  2  1  0
  5  4  1  0
  6  5  1  0
  6  7  1  6
  8  6  1  0
  8  9  2  0
 10  8  1  0
 11 10  1  0
 11 12  1  6
 13 14  2  0
 13 12  1  0
 15 14  1  0
 16 17  2  0
 16 15  1  0
 17 13  1  0
 18 20  1  0
 18 11  1  0
 19 18  2  0
 21 20  1  0
 21 29  1  0
 21 22  1  1
 23 28  1  0
 23 22  1  0
 24 23  2  0
 25 26  2  0
 25 24  1  0
 26 27  1  0
 27 28  2  0
 29 30  1  0
 31 29  2  0
M  END
$$$$
