QHF.pdb
     RDKit          3D

 31 32  0  0  1  0  0  0  0  0999 V2000
   22.7818  -33.9131  -10.1509 N   0  0  0  0  0  0  0  0  0  0  0  0
   23.8266  -33.0217  -10.4968 C   0  0  0  0  0  0  0  0  0  0  0  0
   23.8648  -32.4879  -11.6266 O   0  0  0  0  0  0  0  0  0  0  0  0
   24.8592  -32.7385   -9.5044 C   0  0  0  0  0  0  0  0  0  0  0  0
   24.6798  -33.3676   -8.1703 C   0  0  0  0  0  0  0  0  0  0  0  0
   25.7688  -33.1110   -7.1797 C   0  0  2  0  0  0  0  0  0  0  0  0
   27.0535  -33.6108   -7.6825 N   0  0  0  0  0  0  0  0  0  0  0  0
   25.4830  -33.8359   -5.8908 C   0  0  0  0  0  0  0  0  0  0  0  0
   24.3727  -33.7148   -5.3129 O   0  0  0  0  0  0  0  0  0  0  0  0
   26.4401  -34.6762   -5.2791 N   0  0  0  0  0  0  0  0  0  0  0  0
   26.1807  -35.4513   -4.1070 C   0  0  1  0  0  0  0  0  0  0  0  0
   26.9635  -36.7378   -4.0474 C   0  0  0  0  0  0  0  0  0  0  0  0
   26.2704  -37.8461   -4.7498 C   0  0  0  0  0  0  0  0  0  0  0  0
   24.9282  -37.8256   -5.0583 C   0  0  0  0  0  0  0  0  0  0  0  0
   24.6081  -38.9571   -5.6834 N   0  0  0  0  0  0  0  0  0  0  0  0
   25.7300  -39.6869   -5.7716 C   0  0  0  0  0  0  0  0  0  0  0  0
   26.7417  -39.0147   -5.2052 N   0  0  0  0  0  0  0  0  0  0  0  0
   26.5551  -34.6631   -2.8923 C   0  0  0  0  0  0  0  0  0  0  0  0
   27.6239  -33.9965   -2.8623 O   0  0  0  0  0  0  0  0  0  0  0  0
   25.7340  -34.6302   -1.7318 N   0  0  0  0  0  0  0  0  0  0  0  0
   26.0979  -33.8619   -0.5461 C   0  0  1  0  0  0  0  0  0  0  0  0
   24.9170  -33.0406   -0.0584 C   0  0  0  0  0  0  0  0  0  0  0  0
   24.7472  -31.9015   -0.9956 C   0  0  0  0  0  0  0  0  0  0  0  0
   25.3134  -30.6752   -0.6589 C   0  0  0  0  0  0  0  0  0  0  0  0
   25.1713  -29.6110   -1.4962 C   0  0  0  0  0  0  0  0  0  0  0  0
   24.4640  -29.7720   -2.6692 C   0  0  0  0  0  0  0  0  0  0  0  0
   23.8978  -30.9790   -3.0165 C   0  0  0  0  0  0  0  0  0  0  0  0
   24.0381  -32.0775   -2.1633 C   0  0  0  0  0  0  0  0  0  0  0  0
   26.5863  -34.8226    0.4674 C   0  0  0  0  0  0  0  0  0  0  0  0
   27.3079  -34.4415    1.6000 O   0  0  0  0  0  0  0  0  0  0  0  0
   26.3761  -36.0723    0.3668 O   0  0  0  0  0  0  0  0  0  0  0  0
  2  3  2  0
  2  1  1  0
  4  2  1  0
  5  4  1  0
  6  5  1  0
  6  7  1  6
  8  6  1  0
  8  9  2  0
 10  8  1  0
 11 10  1  0
 11 12  1  6
 13 14  2  0
 13 12  1  0
 15 14  1  0
 16 17  2  0
 16 15  1  0
 17 13  1  0
 18 20  1  0
 18 11  1  0
 19 18  2  0
 21 20  1  0
 21 29  1  0
 21 22  1  1
 23 28  1  0
 23 22  1  0
 24 23  2  0
 25 26  2  0
 25 24  1  0
 26 27  1  0
 27 28  2  0
 29 30  1  0
 31 29  2  0
M  END
$$$$
