QHF.pdb
     RDKit          3D

 31 32  0  0  1  0  0  0  0  0999 V2000
   27.9598  -16.4190  -21.5685 N   0  0  0  0  0  0  0  0  0  0  0  0
   28.9540  -16.2388  -20.5761 C   0  0  0  0  0  0  0  0  0  0  0  0
   29.2953  -15.0924  -20.2126 O   0  0  0  0  0  0  0  0  0  0  0  0
   29.5723  -17.4220  -19.9852 C   0  0  0  0  0  0  0  0  0  0  0  0
   29.5544  -17.5024  -18.5016 C   0  0  0  0  0  0  0  0  0  0  0  0
   29.0578  -18.7895  -17.9271 C   0  0  2  0  0  0  0  0  0  0  0  0
   28.7110  -19.7331  -18.9959 N   0  0  0  0  0  0  0  0  0  0  0  0
   27.8086  -18.5527  -17.1198 C   0  0  0  0  0  0  0  0  0  0  0  0
   27.8114  -17.7653  -16.1393 O   0  0  0  0  0  0  0  0  0  0  0  0
   26.5893  -19.1984  -17.4248 N   0  0  0  0  0  0  0  0  0  0  0  0
   25.3968  -19.0460  -16.6525 C   0  0  1  0  0  0  0  0  0  0  0  0
   24.1780  -18.7256  -17.4792 C   0  0  0  0  0  0  0  0  0  0  0  0
   22.9544  -18.6093  -16.6479 C   0  0  0  0  0  0  0  0  0  0  0  0
   22.6616  -17.5030  -15.8814 C   0  0  0  0  0  0  0  0  0  0  0  0
   21.5025  -17.7012  -15.2562 N   0  0  0  0  0  0  0  0  0  0  0  0
   21.0641  -18.9157  -15.6193 C   0  0  0  0  0  0  0  0  0  0  0  0
   21.9440  -19.4700  -16.4648 N   0  0  0  0  0  0  0  0  0  0  0  0
   25.1026  -20.3211  -15.9284 C   0  0  0  0  0  0  0  0  0  0  0  0
   25.0918  -21.4216  -16.5420 O   0  0  0  0  0  0  0  0  0  0  0  0
   24.8255  -20.3499  -14.5340 N   0  0  0  0  0  0  0  0  0  0  0  0
   24.5288  -21.5918  -13.8279 C   0  0  1  0  0  0  0  0  0  0  0  0
   25.7297  -22.0447  -13.0159 C   0  0  0  0  0  0  0  0  0  0  0  0
   25.9299  -21.0573  -11.9251 C   0  0  0  0  0  0  0  0  0  0  0  0
   26.6367  -19.8916  -12.2068 C   0  0  0  0  0  0  0  0  0  0  0  0
   26.8398  -18.9691  -11.2261 C   0  0  0  0  0  0  0  0  0  0  0  0
   26.3370  -19.2113   -9.9649 C   0  0  0  0  0  0  0  0  0  0  0  0
   25.6356  -20.3599   -9.6704 C   0  0  0  0  0  0  0  0  0  0  0  0
   25.4220  -21.3130  -10.6705 C   0  0  0  0  0  0  0  0  0  0  0  0
   23.3313  -21.3482  -12.9941 C   0  0  0  0  0  0  0  0  0  0  0  0
   22.8377  -20.0725  -12.7155 O   0  0  0  0  0  0  0  0  0  0  0  0
   22.6693  -22.2998  -12.4723 O   0  0  0  0  0  0  0  0  0  0  0  0
  2  3  2  0
  2  1  1  0
  4  2  1  0
  5  4  1  0
  6  5  1  0
  6  7  1  6
  8  6  1  0
  8  9  2  0
 10  8  1  0
 11 10  1  0
 11 12  1  6
 13 14  2  0
 13 12  1  0
 15 14  1  0
 16 17  2  0
 16 15  1  0
 17 13  1  0
 18 20  1  0
 18 11  1  0
 19 18  2  0
 21 20  1  0
 21 29  1  0
 21 22  1  1
 23 28  1  0
 23 22  1  0
 24 23  2  0
 25 26  2  0
 25 24  1  0
 26 27  1  0
 27 28  2  0
 29 30  1  0
 31 29  2  0
M  END
$$$$
