QHF.pdb
     RDKit          3D

 31 32  0  0  1  0  0  0  0  0999 V2000
   22.9186  -21.7081  -21.2203 N   0  0  0  0  0  0  0  0  0  0  0  0
   22.7329  -21.0385  -22.4545 C   0  0  0  0  0  0  0  0  0  0  0  0
   21.8456  -21.4058  -23.2549 O   0  0  0  0  0  0  0  0  0  0  0  0
   23.6005  -19.9081  -22.7722 C   0  0  0  0  0  0  0  0  0  0  0  0
   24.6173  -19.5511  -21.7493 C   0  0  0  0  0  0  0  0  0  0  0  0
   24.1824  -18.5583  -20.7205 C   0  0  2  0  0  0  0  0  0  0  0  0
   24.7455  -17.2344  -21.0090 N   0  0  0  0  0  0  0  0  0  0  0  0
   24.6799  -18.9664  -19.3587 C   0  0  0  0  0  0  0  0  0  0  0  0
   24.9951  -20.1592  -19.1158 O   0  0  0  0  0  0  0  0  0  0  0  0
   24.8136  -18.0363  -18.3034 N   0  0  0  0  0  0  0  0  0  0  0  0
   25.2375  -18.3888  -16.9852 C   0  0  1  0  0  0  0  0  0  0  0  0
   26.2350  -17.4263  -16.3933 C   0  0  0  0  0  0  0  0  0  0  0  0
   27.4710  -17.3315  -17.2089 C   0  0  0  0  0  0  0  0  0  0  0  0
   28.2279  -18.4249  -17.5675 C   0  0  0  0  0  0  0  0  0  0  0  0
   29.2668  -18.0157  -18.2933 N   0  0  0  0  0  0  0  0  0  0  0  0
   29.1726  -16.6817  -18.3953 C   0  0  0  0  0  0  0  0  0  0  0  0
   28.0825  -16.2628  -17.7375 N   0  0  0  0  0  0  0  0  0  0  0  0
   24.0572  -18.4041  -16.0668 C   0  0  0  0  0  0  0  0  0  0  0  0
   24.2078  -18.2660  -14.8234 O   0  0  0  0  0  0  0  0  0  0  0  0
   22.7296  -18.5729  -16.5475 N   0  0  0  0  0  0  0  0  0  0  0  0
   21.5751  -18.5647  -15.6554 C   0  0  1  0  0  0  0  0  0  0  0  0
   21.3286  -17.1674  -15.1135 C   0  0  0  0  0  0  0  0  0  0  0  0
   20.9967  -16.2928  -16.2667 C   0  0  0  0  0  0  0  0  0  0  0  0
   19.6853  -16.2795  -16.7335 C   0  0  0  0  0  0  0  0  0  0  0  0
   19.3513  -15.4906  -17.7918 C   0  0  0  0  0  0  0  0  0  0  0  0
   20.3269  -14.7156  -18.3831 C   0  0  0  0  0  0  0  0  0  0  0  0
   21.6289  -14.7178  -17.9329 C   0  0  0  0  0  0  0  0  0  0  0  0
   21.9817  -15.5245  -16.8470 C   0  0  0  0  0  0  0  0  0  0  0  0
   20.4249  -19.0948  -16.4201 C   0  0  0  0  0  0  0  0  0  0  0  0
   19.1664  -19.3149  -15.8577 O   0  0  0  0  0  0  0  0  0  0  0  0
   20.5141  -19.3871  -17.6540 O   0  0  0  0  0  0  0  0  0  0  0  0
  2  3  2  0
  2  1  1  0
  4  2  1  0
  5  4  1  0
  6  5  1  0
  6  7  1  6
  8  6  1  0
  8  9  2  0
 10  8  1  0
 11 10  1  0
 11 12  1  1
 13 14  2  0
 13 12  1  0
 15 14  1  0
 16 17  2  0
 16 15  1  0
 17 13  1  0
 18 20  1  0
 18 11  1  0
 19 18  2  0
 21 20  1  0
 21 29  1  0
 21 22  1  6
 23 28  1  0
 23 22  1  0
 24 23  2  0
 25 26  2  0
 25 24  1  0
 26 27  1  0
 27 28  2  0
 29 30  1  0
 31 29  2  0
M  END
$$$$
