QHF.pdb
     RDKit          3D

 31 32  0  0  1  0  0  0  0  0999 V2000
   26.4883  -21.5896  -11.9855 N   0  0  0  0  0  0  0  0  0  0  0  0
   27.5961  -20.7920  -11.6082 C   0  0  0  0  0  0  0  0  0  0  0  0
   28.4069  -21.1901  -10.7439 O   0  0  0  0  0  0  0  0  0  0  0  0
   27.7719  -19.4933  -12.2516 C   0  0  0  0  0  0  0  0  0  0  0  0
   26.7465  -19.1130  -13.2574 C   0  0  0  0  0  0  0  0  0  0  0  0
   26.9560  -19.6537  -14.6346 C   0  0  2  0  0  0  0  0  0  0  0  0
   27.5131  -18.6215  -15.5161 N   0  0  0  0  0  0  0  0  0  0  0  0
   25.6422  -20.0862  -15.2307 C   0  0  0  0  0  0  0  0  0  0  0  0
   24.8155  -19.2401  -15.6573 O   0  0  0  0  0  0  0  0  0  0  0  0
   25.2831  -21.4487  -15.3363 N   0  0  0  0  0  0  0  0  0  0  0  0
   24.0127  -21.8991  -15.8108 C   0  0  1  0  0  0  0  0  0  0  0  0
   24.0374  -23.2991  -16.3686 C   0  0  0  0  0  0  0  0  0  0  0  0
   22.6957  -23.7438  -16.8202 C   0  0  0  0  0  0  0  0  0  0  0  0
   21.5427  -23.0262  -16.5906 C   0  0  0  0  0  0  0  0  0  0  0  0
   20.5097  -23.6832  -17.1149 N   0  0  0  0  0  0  0  0  0  0  0  0
   20.9979  -24.8023  -17.6699 C   0  0  0  0  0  0  0  0  0  0  0  0
   22.3258  -24.8421  -17.4926 N   0  0  0  0  0  0  0  0  0  0  0  0
   23.0295  -21.9023  -14.6838 C   0  0  0  0  0  0  0  0  0  0  0  0
   23.3011  -22.4749  -13.5947 O   0  0  0  0  0  0  0  0  0  0  0  0
   21.7609  -21.2683  -14.7878 N   0  0  0  0  0  0  0  0  0  0  0  0
   20.8315  -21.2047  -13.6649 C   0  0  1  0  0  0  0  0  0  0  0  0
   21.1506  -20.0168  -12.7740 C   0  0  0  0  0  0  0  0  0  0  0  0
   20.9882  -18.7881  -13.5918 C   0  0  0  0  0  0  0  0  0  0  0  0
   22.0875  -18.3134  -14.3017 C   0  0  0  0  0  0  0  0  0  0  0  0
   21.9706  -17.1870  -15.0574 C   0  0  0  0  0  0  0  0  0  0  0  0
   20.7561  -16.5352  -15.1038 C   0  0  0  0  0  0  0  0  0  0  0  0
   19.6589  -16.9922  -14.4071 C   0  0  0  0  0  0  0  0  0  0  0  0
   19.7691  -18.1480  -13.6283 C   0  0  0  0  0  0  0  0  0  0  0  0
   19.4647  -21.1487  -14.2282 C   0  0  0  0  0  0  0  0  0  0  0  0
   19.2004  -20.8935  -15.5749 O   0  0  0  0  0  0  0  0  0  0  0  0
   18.4322  -21.3315  -13.5093 O   0  0  0  0  0  0  0  0  0  0  0  0
  2  3  2  0
  2  1  1  0
  4  2  1  0
  5  4  1  0
  6  5  1  0
  6  7  1  6
  8  6  1  0
  8  9  2  0
 10  8  1  0
 11 10  1  0
 11 12  1  1
 13 14  2  0
 13 12  1  0
 15 14  1  0
 16 17  2  0
 16 15  1  0
 17 13  1  0
 18 20  1  0
 18 11  1  0
 19 18  2  0
 21 20  1  0
 21 29  1  0
 21 22  1  6
 23 28  1  0
 23 22  1  0
 24 23  2  0
 25 26  2  0
 25 24  1  0
 26 27  1  0
 27 28  2  0
 29 30  1  0
 31 29  2  0
M  END
$$$$
