QHF.pdb
     RDKit          3D

 31 32  0  0  1  0  0  0  0  0999 V2000
   18.3159  -11.9015  -16.7465 N   0  0  0  0  0  0  0  0  0  0  0  0
   18.9001  -13.1301  -16.3530 C   0  0  0  0  0  0  0  0  0  0  0  0
   18.2092  -14.1683  -16.2644 O   0  0  0  0  0  0  0  0  0  0  0  0
   20.3286  -13.1589  -16.0530 C   0  0  0  0  0  0  0  0  0  0  0  0
   21.0704  -11.8884  -16.2613 C   0  0  0  0  0  0  0  0  0  0  0  0
   21.4301  -11.5710  -17.6766 C   0  0  2  0  0  0  0  0  0  0  0  0
   22.5641  -12.3908  -18.1182 N   0  0  0  0  0  0  0  0  0  0  0  0
   21.8492  -10.1294  -17.7976 C   0  0  0  0  0  0  0  0  0  0  0  0
   23.0301   -9.7760  -17.5491 O   0  0  0  0  0  0  0  0  0  0  0  0
   20.9432   -9.1194  -18.1919 N   0  0  0  0  0  0  0  0  0  0  0  0
   21.3042   -7.7449  -18.3408 C   0  0  1  0  0  0  0  0  0  0  0  0
   20.5339   -7.0312  -19.4219 C   0  0  0  0  0  0  0  0  0  0  0  0
   20.9175   -7.4935  -20.7787 C   0  0  0  0  0  0  0  0  0  0  0  0
   22.2102   -7.8092  -21.1342 C   0  0  0  0  0  0  0  0  0  0  0  0
   22.2301   -8.1884  -22.4107 N   0  0  0  0  0  0  0  0  0  0  0  0
   20.9688   -8.1152  -22.8610 C   0  0  0  0  0  0  0  0  0  0  0  0
   20.1688   -7.6933  -21.8719 N   0  0  0  0  0  0  0  0  0  0  0  0
   21.0317   -7.0143  -17.0645 C   0  0  0  0  0  0  0  0  0  0  0  0
   20.0014   -7.2685  -16.3851 O   0  0  0  0  0  0  0  0  0  0  0  0
   21.9102   -6.0134  -16.5660 N   0  0  0  0  0  0  0  0  0  0  0  0
   21.6803   -5.3462  -15.2890 C   0  0  1  0  0  0  0  0  0  0  0  0
   22.8373   -5.5992  -14.3382 C   0  0  0  0  0  0  0  0  0  0  0  0
   22.7668   -7.0212  -13.9166 C   0  0  0  0  0  0  0  0  0  0  0  0
   21.8897   -7.3670  -12.8925 C   0  0  0  0  0  0  0  0  0  0  0  0
   21.8056   -8.6622  -12.4814 C   0  0  0  0  0  0  0  0  0  0  0  0
   22.5974   -9.6114  -13.0932 C   0  0  0  0  0  0  0  0  0  0  0  0
   23.4703   -9.2851  -14.1079 C   0  0  0  0  0  0  0  0  0  0  0  0
   23.5639   -7.9579  -14.5369 C   0  0  0  0  0  0  0  0  0  0  0  0
   21.4760   -3.9090  -15.5744 C   0  0  0  0  0  0  0  0  0  0  0  0
   20.9193   -3.0167  -14.6566 O   0  0  0  0  0  0  0  0  0  0  0  0
   21.7990   -3.3916  -16.6898 O   0  0  0  0  0  0  0  0  0  0  0  0
  2  3  2  0
  2  1  1  0
  4  2  1  0
  5  4  1  0
  6  5  1  0
  6  7  1  1
  8  6  1  0
  8  9  2  0
 10  8  1  0
 11 10  1  0
 11 12  1  6
 13 14  2  0
 13 12  1  0
 15 14  1  0
 16 17  2  0
 16 15  1  0
 17 13  1  0
 18 20  1  0
 18 11  1  0
 19 18  2  0
 21 20  1  0
 21 29  1  0
 21 22  1  1
 23 28  1  0
 23 22  1  0
 24 23  2  0
 25 26  2  0
 25 24  1  0
 26 27  1  0
 27 28  2  0
 29 30  1  0
 31 29  2  0
M  END
$$$$
