EWR.pdb
     RDKit          3D

 35 36  0  0  1  0  0  0  0  0999 V2000
    8.1169  -17.5759   18.1235 N   0  0  0  0  0  0  0  0  0  0  0  0
    7.3876  -17.8115   19.3847 C   0  0  1  0  0  0  0  0  0  0  0  0
    7.2642  -19.2760   19.6203 C   0  0  0  0  0  0  0  0  0  0  0  0
    6.9206  -20.0620   18.3864 C   0  0  0  0  0  0  0  0  0  0  0  0
    7.6973  -21.3485   18.3794 C   0  0  0  0  0  0  0  0  0  0  0  0
    7.4195  -22.2038   19.2327 O   0  0  0  0  0  0  0  0  0  0  0  0
    8.1167  -17.0688   20.4179 C   0  0  0  0  0  0  0  0  0  0  0  0
    9.3945  -17.1487   20.5091 O   0  0  0  0  0  0  0  0  0  0  0  0
    8.6878  -21.5642   17.4487 O   0  0  0  0  0  0  0  0  0  0  0  0
    7.4227  -16.2395   21.3372 N   0  0  0  0  0  0  0  0  0  0  0  0
    8.1986  -15.5688   22.3556 C   0  0  1  0  0  0  0  0  0  0  0  0
    7.3353  -14.4476   22.9193 C   0  0  0  0  0  0  0  0  0  0  0  0
    8.0136  -13.8128   24.0693 C   0  0  0  0  0  0  0  0  0  0  0  0
    9.3565  -13.5391   24.1921 C   0  0  0  0  0  0  0  0  0  0  0  0
    9.5925  -12.9534   25.3859 N   0  0  0  0  0  0  0  0  0  0  0  0
    8.4223  -12.8412   26.0440 C   0  0  0  0  0  0  0  0  0  0  0  0
    8.1241  -12.3272   27.2713 C   0  0  0  0  0  0  0  0  0  0  0  0
    6.8157  -12.3387   27.7099 C   0  0  0  0  0  0  0  0  0  0  0  0
    5.8156  -12.8610   26.9242 C   0  0  0  0  0  0  0  0  0  0  0  0
    6.1339  -13.3755   25.6883 C   0  0  0  0  0  0  0  0  0  0  0  0
    7.4181  -13.3765   25.2310 C   0  0  0  0  0  0  0  0  0  0  0  0
    8.6126  -16.5119   23.4029 C   0  0  0  0  0  0  0  0  0  0  0  0
    7.7400  -17.3115   23.8698 O   0  0  0  0  0  0  0  0  0  0  0  0
   14.5015  -18.2535   25.1279 N   0  0  0  0  0  0  0  0  0  0  0  0
   14.8614  -19.6118   25.3478 C   0  0  0  0  0  0  0  0  0  0  0  0
   15.9628  -19.9109   25.9848 N   0  0  0  0  0  0  0  0  0  0  0  0
   14.0617  -20.6901   24.8970 N   0  0  0  0  0  0  0  0  0  0  0  0
   12.8773  -20.5005   24.1054 C   0  0  0  0  0  0  0  0  0  0  0  0
   11.9537  -19.5766   24.9059 C   0  0  0  0  0  0  0  0  0  0  0  0
   11.5099  -18.4127   24.1049 C   0  0  0  0  0  0  0  0  0  0  0  0
   10.3134  -17.7469   24.7292 C   0  0  2  0  0  0  0  0  0  0  0  0
    9.9214  -16.5830   23.9223 N   0  0  0  0  0  0  0  0  0  0  0  0
   10.6871  -17.2589   26.0829 C   0  0  0  0  0  0  0  0  0  0  0  0
   10.7922  -18.0795   27.1627 O   0  0  0  0  0  0  0  0  0  0  0  0
   10.9209  -16.0226   26.2687 O   0  0  0  0  0  0  0  0  0  0  0  0
  2  1  1  6
  3  4  1  0
  3  2  1  0
  4  5  1  0
  5  9  1  0
  5  6  2  0
  7  8  2  0
  7  2  1  0
 10  7  1  0
 11 10  1  0
 11 12  1  1
 13 21  1  0
 13 12  1  0
 14 13  2  0
 15 14  1  0
 15 16  1  0
 16 17  1  0
 16 21  2  0
 17 18  2  0
 18 19  1  0
 20 19  2  0
 21 20  1  0
 22 11  1  0
 23 22  2  0
 24 25  1  0
 25 27  1  0
 26 25  2  0
 27 28  1  0
 29 28  1  0
 29 30  1  0
 31 30  1  6
 31 32  1  0
 31 33  1  0
 32 22  1  0
 33 34  1  0
 35 33  2  0
M  END
$$$$
