EWR.pdb
     RDKit          3D

 35 36  0  0  1  0  0  0  0  0999 V2000
    7.1648  -14.5438   19.8273 N   0  0  0  0  0  0  0  0  0  0  0  0
    7.5646  -15.8167   20.4584 C   0  0  1  0  0  0  0  0  0  0  0  0
    8.2510  -16.6743   19.4542 C   0  0  0  0  0  0  0  0  0  0  0  0
    7.3476  -17.1684   18.3597 C   0  0  0  0  0  0  0  0  0  0  0  0
    8.1304  -18.0413   17.4196 C   0  0  0  0  0  0  0  0  0  0  0  0
    9.3073  -18.3033   17.7081 O   0  0  0  0  0  0  0  0  0  0  0  0
    8.3703  -15.4520   21.6283 C   0  0  0  0  0  0  0  0  0  0  0  0
    9.1600  -14.4406   21.5953 O   0  0  0  0  0  0  0  0  0  0  0  0
    7.5505  -18.5324   16.2723 O   0  0  0  0  0  0  0  0  0  0  0  0
    8.2890  -16.2090   22.8261 N   0  0  0  0  0  0  0  0  0  0  0  0
    9.1694  -15.8442   23.9128 C   0  0  1  0  0  0  0  0  0  0  0  0
    8.4574  -16.1974   25.2121 C   0  0  0  0  0  0  0  0  0  0  0  0
    7.3651  -15.2355   25.4711 C   0  0  0  0  0  0  0  0  0  0  0  0
    6.0126  -15.4837   25.4220 C   0  0  0  0  0  0  0  0  0  0  0  0
    5.3334  -14.3555   25.7216 N   0  0  0  0  0  0  0  0  0  0  0  0
    6.2239  -13.3744   25.9654 C   0  0  0  0  0  0  0  0  0  0  0  0
    6.0518  -12.0652   26.3055 C   0  0  0  0  0  0  0  0  0  0  0  0
    7.1595  -11.2652   26.4993 C   0  0  0  0  0  0  0  0  0  0  0  0
    8.4283  -11.7743   26.3532 C   0  0  0  0  0  0  0  0  0  0  0  0
    8.5840  -13.0977   26.0098 C   0  0  0  0  0  0  0  0  0  0  0  0
    7.5068  -13.9096   25.8126 C   0  0  0  0  0  0  0  0  0  0  0  0
   10.4587  -16.5383   23.7961 C   0  0  0  0  0  0  0  0  0  0  0  0
   10.4555  -17.8103   23.7692 O   0  0  0  0  0  0  0  0  0  0  0  0
   15.7137  -13.2921   19.0717 N   0  0  0  0  0  0  0  0  0  0  0  0
   16.1707  -14.6074   18.7818 C   0  0  0  0  0  0  0  0  0  0  0  0
   16.6319  -14.9024   17.5948 N   0  0  0  0  0  0  0  0  0  0  0  0
   16.1505  -15.6459   19.7443 N   0  0  0  0  0  0  0  0  0  0  0  0
   15.7074  -15.4431   21.0963 C   0  0  0  0  0  0  0  0  0  0  0  0
   14.5478  -16.4164   21.3322 C   0  0  0  0  0  0  0  0  0  0  0  0
   13.3895  -15.7493   21.9697 C   0  0  0  0  0  0  0  0  0  0  0  0
   12.8465  -16.5711   23.1074 C   0  0  2  0  0  0  0  0  0  0  0  0
   11.7012  -15.8773   23.7125 N   0  0  0  0  0  0  0  0  0  0  0  0
   13.9000  -16.7066   24.1477 C   0  0  0  0  0  0  0  0  0  0  0  0
   15.0645  -17.3778   23.9389 O   0  0  0  0  0  0  0  0  0  0  0  0
   13.7289  -16.1842   25.2946 O   0  0  0  0  0  0  0  0  0  0  0  0
  2  1  1  6
  3  4  1  0
  3  2  1  0
  4  5  1  0
  5  9  1  0
  5  6  2  0
  7  8  2  0
  7  2  1  0
 10  7  1  0
 11 10  1  0
 11 12  1  1
 13 21  1  0
 13 12  1  0
 14 13  2  0
 15 14  1  0
 15 16  1  0
 16 17  1  0
 16 21  2  0
 17 18  2  0
 18 19  1  0
 20 19  2  0
 21 20  1  0
 22 11  1  0
 23 22  2  0
 24 25  1  0
 25 27  1  0
 26 25  2  0
 27 28  1  0
 29 28  1  0
 29 30  1  0
 31 30  1  6
 31 32  1  0
 31 33  1  0
 32 22  1  0
 33 34  1  0
 35 33  2  0
M  END
$$$$
