EWR.pdb
     RDKit          3D

 35 36  0  0  1  0  0  0  0  0999 V2000
    7.6541  -18.0413   21.2205 N   0  0  0  0  0  0  0  0  0  0  0  0
    9.0371  -17.5369   21.1152 C   0  0  1  0  0  0  0  0  0  0  0  0
    9.1421  -16.6164   19.9503 C   0  0  0  0  0  0  0  0  0  0  0  0
    7.8785  -16.5123   19.1437 C   0  0  0  0  0  0  0  0  0  0  0  0
    8.1326  -15.6785   17.9195 C   0  0  0  0  0  0  0  0  0  0  0  0
    9.2914  -15.2941   17.7041 O   0  0  0  0  0  0  0  0  0  0  0  0
    9.3495  -16.9395   22.4176 C   0  0  0  0  0  0  0  0  0  0  0  0
   10.3373  -16.1308   22.5518 O   0  0  0  0  0  0  0  0  0  0  0  0
    7.1029  -15.3544   17.0661 O   0  0  0  0  0  0  0  0  0  0  0  0
    8.5603  -17.2397   23.5583 N   0  0  0  0  0  0  0  0  0  0  0  0
    9.0889  -16.8805   24.8548 C   0  0  1  0  0  0  0  0  0  0  0  0
    7.9019  -16.6526   25.7817 C   0  0  0  0  0  0  0  0  0  0  0  0
    7.1042  -15.4998   25.3124 C   0  0  0  0  0  0  0  0  0  0  0  0
    5.9604  -15.5389   24.5485 C   0  0  0  0  0  0  0  0  0  0  0  0
    5.5207  -14.2815   24.3259 N   0  0  0  0  0  0  0  0  0  0  0  0
    6.3618  -13.4224   24.9338 C   0  0  0  0  0  0  0  0  0  0  0  0
    6.3606  -12.0608   25.0085 C   0  0  0  0  0  0  0  0  0  0  0  0
    7.3619  -11.4209   25.7102 C   0  0  0  0  0  0  0  0  0  0  0  0
    8.3552  -12.1405   26.3313 C   0  0  0  0  0  0  0  0  0  0  0  0
    8.3412  -13.5138   26.2461 C   0  0  0  0  0  0  0  0  0  0  0  0
    7.3638  -14.1708   25.5594 C   0  0  0  0  0  0  0  0  0  0  0  0
    9.9802  -17.9308   25.3649 C   0  0  0  0  0  0  0  0  0  0  0  0
    9.4839  -19.0791   25.5965 O   0  0  0  0  0  0  0  0  0  0  0  0
   16.3942  -17.9726   20.7038 N   0  0  0  0  0  0  0  0  0  0  0  0
   16.3025  -18.3375   22.0754 C   0  0  0  0  0  0  0  0  0  0  0  0
   16.9059  -19.4091   22.5181 N   0  0  0  0  0  0  0  0  0  0  0  0
   15.5672  -17.5745   23.0149 N   0  0  0  0  0  0  0  0  0  0  0  0
   15.4061  -17.9761   24.3854 C   0  0  0  0  0  0  0  0  0  0  0  0
   13.9046  -18.1797   24.6128 C   0  0  0  0  0  0  0  0  0  0  0  0
   13.6063  -18.5638   26.0116 C   0  0  0  0  0  0  0  0  0  0  0  0
   12.1385  -18.8372   26.1998 C   0  0  2  0  0  0  0  0  0  0  0  0
   11.3549  -17.7409   25.6138 N   0  0  0  0  0  0  0  0  0  0  0  0
   11.8413  -18.8835   27.6557 C   0  0  0  0  0  0  0  0  0  0  0  0
   12.2645  -19.8908   28.4660 O   0  0  0  0  0  0  0  0  0  0  0  0
   11.1593  -17.9542   28.1932 O   0  0  0  0  0  0  0  0  0  0  0  0
  2  1  1  1
  3  4  1  0
  3  2  1  0
  4  5  1  0
  5  9  1  0
  5  6  2  0
  7  8  2  0
  7  2  1  0
 10  7  1  0
 11 10  1  0
 11 12  1  1
 13 21  1  0
 13 12  1  0
 14 13  2  0
 15 14  1  0
 15 16  1  0
 16 17  1  0
 16 21  2  0
 17 18  2  0
 18 19  1  0
 20 19  2  0
 21 20  1  0
 22 11  1  0
 23 22  2  0
 24 25  1  0
 25 27  1  0
 26 25  2  0
 27 28  1  0
 29 28  1  0
 29 30  1  0
 31 30  1  1
 31 32  1  0
 31 33  1  0
 32 22  1  0
 33 34  1  0
 35 33  2  0
M  END
$$$$
