EWR.pdb
     RDKit          3D

 35 36  0  0  1  0  0  0  0  0999 V2000
    7.9055  -18.8196   21.1848 N   0  0  0  0  0  0  0  0  0  0  0  0
    8.5943  -17.6724   20.5619 C   0  0  1  0  0  0  0  0  0  0  0  0
    7.6373  -16.9286   19.6981 C   0  0  0  0  0  0  0  0  0  0  0  0
    7.1153  -17.7314   18.5400 C   0  0  0  0  0  0  0  0  0  0  0  0
    5.6127  -17.7199   18.5590 C   0  0  0  0  0  0  0  0  0  0  0  0
    5.0311  -16.6911   18.1846 O   0  0  0  0  0  0  0  0  0  0  0  0
    9.1736  -16.9007   21.6663 C   0  0  0  0  0  0  0  0  0  0  0  0
    9.9350  -15.8929   21.4379 O   0  0  0  0  0  0  0  0  0  0  0  0
    4.9086  -18.8241   18.9815 O   0  0  0  0  0  0  0  0  0  0  0  0
    8.8988  -17.2501   23.0141 N   0  0  0  0  0  0  0  0  0  0  0  0
    9.6487  -16.5759   24.0495 C   0  0  1  0  0  0  0  0  0  0  0  0
    8.8412  -16.6811   25.3368 C   0  0  0  0  0  0  0  0  0  0  0  0
    7.6925  -15.7514   25.2938 C   0  0  0  0  0  0  0  0  0  0  0  0
    6.3921  -16.0549   24.9617 C   0  0  0  0  0  0  0  0  0  0  0  0
    5.6325  -14.9410   25.0399 N   0  0  0  0  0  0  0  0  0  0  0  0
    6.4191  -13.9148   25.4182 C   0  0  0  0  0  0  0  0  0  0  0  0
    6.1396  -12.5983   25.6376 C   0  0  0  0  0  0  0  0  0  0  0  0
    7.1540  -11.7468   26.0254 C   0  0  0  0  0  0  0  0  0  0  0  0
    8.4370  -12.2120   26.1917 C   0  0  0  0  0  0  0  0  0  0  0  0
    8.7016  -13.5434   25.9663 C   0  0  0  0  0  0  0  0  0  0  0  0
    7.7181  -14.4059   25.5826 C   0  0  0  0  0  0  0  0  0  0  0  0
   10.9841  -17.1696   24.1984 C   0  0  0  0  0  0  0  0  0  0  0  0
   11.1489  -18.3763   23.8305 O   0  0  0  0  0  0  0  0  0  0  0  0
   18.9354  -14.5649   21.0596 N   0  0  0  0  0  0  0  0  0  0  0  0
   18.8189  -15.5588   22.0702 C   0  0  0  0  0  0  0  0  0  0  0  0
   19.7498  -16.4642   22.2200 N   0  0  0  0  0  0  0  0  0  0  0  0
   17.7106  -15.6190   22.9497 N   0  0  0  0  0  0  0  0  0  0  0  0
   16.3560  -15.4381   22.5052 C   0  0  0  0  0  0  0  0  0  0  0  0
   15.5168  -16.5200   23.1930 C   0  0  0  0  0  0  0  0  0  0  0  0
   14.1516  -16.0407   23.5086 C   0  0  0  0  0  0  0  0  0  0  0  0
   13.4493  -16.9803   24.4512 C   0  0  2  0  0  0  0  0  0  0  0  0
   12.0951  -16.4803   24.7259 N   0  0  0  0  0  0  0  0  0  0  0  0
   14.1931  -17.0147   25.7380 C   0  0  0  0  0  0  0  0  0  0  0  0
   15.2066  -17.8879   25.9840 O   0  0  0  0  0  0  0  0  0  0  0  0
   13.8860  -16.2048   26.6693 O   0  0  0  0  0  0  0  0  0  0  0  0
  2  1  1  1
  3  4  1  0
  3  2  1  0
  4  5  1  0
  5  9  1  0
  5  6  2  0
  7  8  2  0
  7  2  1  0
 10  7  1  0
 11 10  1  0
 11 12  1  1
 13 21  1  0
 13 12  1  0
 14 13  2  0
 15 14  1  0
 15 16  1  0
 16 17  1  0
 16 21  2  0
 17 18  2  0
 18 19  1  0
 20 19  2  0
 21 20  1  0
 22 11  1  0
 23 22  2  0
 24 25  1  0
 25 27  1  0
 26 25  2  0
 27 28  1  0
 29 28  1  0
 29 30  1  0
 31 30  1  6
 31 32  1  0
 31 33  1  0
 32 22  1  0
 33 34  1  0
 35 33  2  0
M  END
$$$$
