EWR.pdb
     RDKit          3D

 35 36  0  0  1  0  0  0  0  0999 V2000
    7.1405  -16.8072   21.3381 N   0  0  0  0  0  0  0  0  0  0  0  0
    8.4082  -16.2300   20.8503 C   0  0  1  0  0  0  0  0  0  0  0  0
    8.1159  -15.1321   19.8888 C   0  0  0  0  0  0  0  0  0  0  0  0
    7.1950  -15.5338   18.7712 C   0  0  0  0  0  0  0  0  0  0  0  0
    7.9548  -16.3521   17.7654 C   0  0  0  0  0  0  0  0  0  0  0  0
    9.1851  -16.2116   17.7068 O   0  0  0  0  0  0  0  0  0  0  0  0
    9.1585  -15.8337   22.0465 C   0  0  0  0  0  0  0  0  0  0  0  0
   10.0796  -14.9421   21.9814 O   0  0  0  0  0  0  0  0  0  0  0  0
    7.2964  -17.2307   16.9357 O   0  0  0  0  0  0  0  0  0  0  0  0
    8.8766  -16.4256   23.3053 N   0  0  0  0  0  0  0  0  0  0  0  0
    9.7528  -16.1059   24.4095 C   0  0  1  0  0  0  0  0  0  0  0  0
    8.9382  -16.2417   25.6894 C   0  0  0  0  0  0  0  0  0  0  0  0
    7.7404  -15.3777   25.6239 C   0  0  0  0  0  0  0  0  0  0  0  0
    6.4848  -15.7327   25.1870 C   0  0  0  0  0  0  0  0  0  0  0  0
    5.6556  -14.6707   25.2795 N   0  0  0  0  0  0  0  0  0  0  0  0
    6.3526  -13.6276   25.7704 C   0  0  0  0  0  0  0  0  0  0  0  0
    5.9803  -12.3455   26.0481 C   0  0  0  0  0  0  0  0  0  0  0  0
    6.9142  -11.4642   26.5535 C   0  0  0  0  0  0  0  0  0  0  0  0
    8.2098  -11.8657   26.7785 C   0  0  0  0  0  0  0  0  0  0  0  0
    8.5686  -13.1631   26.4930 C   0  0  0  0  0  0  0  0  0  0  0  0
    7.6658  -14.0538   25.9931 C   0  0  0  0  0  0  0  0  0  0  0  0
   10.9260  -16.9898   24.4183 C   0  0  0  0  0  0  0  0  0  0  0  0
   10.7307  -18.2469   24.4009 O   0  0  0  0  0  0  0  0  0  0  0  0
   16.8976  -15.1100   19.4148 N   0  0  0  0  0  0  0  0  0  0  0  0
   15.4974  -14.8825   19.5181 C   0  0  0  0  0  0  0  0  0  0  0  0
   14.8908  -14.0885   18.6753 N   0  0  0  0  0  0  0  0  0  0  0  0
   14.7026  -15.4917   20.5193 N   0  0  0  0  0  0  0  0  0  0  0  0
   15.1155  -16.6725   21.2269 C   0  0  0  0  0  0  0  0  0  0  0  0
   13.9847  -17.0232   22.1994 C   0  0  0  0  0  0  0  0  0  0  0  0
   14.4636  -17.0929   23.5991 C   0  0  0  0  0  0  0  0  0  0  0  0
   13.3560  -17.4985   24.5336 C   0  0  2  0  0  0  0  0  0  0  0  0
   12.2573  -16.5267   24.4454 N   0  0  0  0  0  0  0  0  0  0  0  0
   13.8723  -17.4785   25.9277 C   0  0  0  0  0  0  0  0  0  0  0  0
   14.7905  -18.3694   26.3898 O   0  0  0  0  0  0  0  0  0  0  0  0
   13.4507  -16.6020   26.7472 O   0  0  0  0  0  0  0  0  0  0  0  0
  2  1  1  1
  3  4  1  0
  3  2  1  0
  4  5  1  0
  5  9  1  0
  5  6  2  0
  7  8  2  0
  7  2  1  0
 10  7  1  0
 11 10  1  0
 11 12  1  1
 13 21  1  0
 13 12  1  0
 14 13  2  0
 15 14  1  0
 15 16  1  0
 16 17  1  0
 16 21  2  0
 17 18  2  0
 18 19  1  0
 20 19  2  0
 21 20  1  0
 22 11  1  0
 23 22  2  0
 24 25  1  0
 25 27  1  0
 26 25  2  0
 27 28  1  0
 29 28  1  0
 29 30  1  0
 31 30  1  6
 31 32  1  0
 31 33  1  0
 32 22  1  0
 33 34  1  0
 35 33  2  0
M  END
$$$$
