EWR.pdb
     RDKit          3D

 35 36  0  0  1  0  0  0  0  0999 V2000
    6.6341  -15.0184   20.0228 N   0  0  0  0  0  0  0  0  0  0  0  0
    6.9119  -16.2425   20.7991 C   0  0  1  0  0  0  0  0  0  0  0  0
    7.2472  -17.3547   19.8685 C   0  0  0  0  0  0  0  0  0  0  0  0
    8.4174  -17.0633   18.9718 C   0  0  0  0  0  0  0  0  0  0  0  0
    8.7066  -18.2662   18.1186 C   0  0  0  0  0  0  0  0  0  0  0  0
    9.5851  -19.0544   18.4979 O   0  0  0  0  0  0  0  0  0  0  0  0
    7.9652  -15.8845   21.7547 C   0  0  0  0  0  0  0  0  0  0  0  0
    8.9183  -15.0929   21.4191 O   0  0  0  0  0  0  0  0  0  0  0  0
    8.0119  -18.4801   16.9502 O   0  0  0  0  0  0  0  0  0  0  0  0
    7.9489  -16.4030   23.0758 N   0  0  0  0  0  0  0  0  0  0  0  0
    8.9586  -15.9303   23.9958 C   0  0  1  0  0  0  0  0  0  0  0  0
    8.3728  -16.0218   25.3989 C   0  0  0  0  0  0  0  0  0  0  0  0
    7.2955  -15.0233   25.5662 C   0  0  0  0  0  0  0  0  0  0  0  0
    5.9394  -15.2487   25.5065 C   0  0  0  0  0  0  0  0  0  0  0  0
    5.2777  -14.0893   25.7112 N   0  0  0  0  0  0  0  0  0  0  0  0
    6.1832  -13.1104   25.9035 C   0  0  0  0  0  0  0  0  0  0  0  0
    6.0313  -11.7772   26.1465 C   0  0  0  0  0  0  0  0  0  0  0  0
    7.1511  -10.9867   26.3063 C   0  0  0  0  0  0  0  0  0  0  0  0
    8.4118  -11.5290   26.2232 C   0  0  0  0  0  0  0  0  0  0  0  0
    8.5471  -12.8761   25.9776 C   0  0  0  0  0  0  0  0  0  0  0  0
    7.4576  -13.6794   25.8159 C   0  0  0  0  0  0  0  0  0  0  0  0
   10.1903  -16.7208   23.8709 C   0  0  0  0  0  0  0  0  0  0  0  0
   10.0940  -17.9223   23.4635 O   0  0  0  0  0  0  0  0  0  0  0  0
   17.6886  -18.3877   23.7358 N   0  0  0  0  0  0  0  0  0  0  0  0
   17.7262  -18.0279   22.3603 C   0  0  0  0  0  0  0  0  0  0  0  0
   18.4625  -18.7042   21.5182 N   0  0  0  0  0  0  0  0  0  0  0  0
   16.9832  -16.9400   21.8411 N   0  0  0  0  0  0  0  0  0  0  0  0
   16.1596  -16.0985   22.6650 C   0  0  0  0  0  0  0  0  0  0  0  0
   15.0099  -16.9714   23.1784 C   0  0  0  0  0  0  0  0  0  0  0  0
   13.7710  -16.1863   23.3830 C   0  0  0  0  0  0  0  0  0  0  0  0
   12.6529  -17.0564   23.8905 C   0  0  2  0  0  0  0  0  0  0  0  0
   11.4747  -16.2262   24.1767 N   0  0  0  0  0  0  0  0  0  0  0  0
   13.0811  -17.6955   25.1627 C   0  0  0  0  0  0  0  0  0  0  0  0
   12.5689  -17.3490   26.3742 O   0  0  0  0  0  0  0  0  0  0  0  0
   13.9673  -18.6076   25.1468 O   0  0  0  0  0  0  0  0  0  0  0  0
  2  1  1  6
  3  4  1  0
  3  2  1  0
  4  5  1  0
  5  9  1  0
  5  6  2  0
  7  8  2  0
  7  2  1  0
 10  7  1  0
 11 10  1  0
 11 12  1  1
 13 21  1  0
 13 12  1  0
 14 13  2  0
 15 14  1  0
 15 16  1  0
 16 17  1  0
 16 21  2  0
 17 18  2  0
 18 19  1  0
 20 19  2  0
 21 20  1  0
 22 11  1  0
 23 22  2  0
 24 25  1  0
 25 27  1  0
 26 25  2  0
 27 28  1  0
 29 28  1  0
 29 30  1  0
 31 30  1  1
 31 32  1  0
 31 33  1  0
 32 22  1  0
 33 34  1  0
 35 33  2  0
M  END
$$$$
