EWR.pdb
     RDKit          3D

 35 36  0  0  1  0  0  0  0  0999 V2000
    9.4961  -16.1488   18.3595 N   0  0  0  0  0  0  0  0  0  0  0  0
    9.3448  -17.2248   19.3583 C   0  0  1  0  0  0  0  0  0  0  0  0
   10.4076  -18.2462   19.1521 C   0  0  0  0  0  0  0  0  0  0  0  0
    9.9544  -19.4423   18.3633 C   0  0  0  0  0  0  0  0  0  0  0  0
   11.0892  -20.4196   18.2386 C   0  0  0  0  0  0  0  0  0  0  0  0
   10.9588  -21.5366   18.7604 O   0  0  0  0  0  0  0  0  0  0  0  0
    9.3542  -16.5646   20.6678 C   0  0  0  0  0  0  0  0  0  0  0  0
   10.4597  -16.2518   21.2403 O   0  0  0  0  0  0  0  0  0  0  0  0
   12.2379  -20.0773   17.5627 O   0  0  0  0  0  0  0  0  0  0  0  0
    8.1375  -16.2522   21.3283 N   0  0  0  0  0  0  0  0  0  0  0  0
    8.2125  -15.8148   22.7039 C   0  0  1  0  0  0  0  0  0  0  0  0
    6.8352  -15.2912   23.0896 C   0  0  0  0  0  0  0  0  0  0  0  0
    6.8330  -14.8593   24.5035 C   0  0  0  0  0  0  0  0  0  0  0  0
    6.5975  -15.6433   25.6095 C   0  0  0  0  0  0  0  0  0  0  0  0
    6.6841  -14.8891   26.7265 N   0  0  0  0  0  0  0  0  0  0  0  0
    6.9727  -13.6239   26.3648 C   0  0  0  0  0  0  0  0  0  0  0  0
    7.1615  -12.4952   27.1063 C   0  0  0  0  0  0  0  0  0  0  0  0
    7.4510  -11.3066   26.4678 C   0  0  0  0  0  0  0  0  0  0  0  0
    7.5504  -11.2510   25.0976 C   0  0  0  0  0  0  0  0  0  0  0  0
    7.3572  -12.3993   24.3645 C   0  0  0  0  0  0  0  0  0  0  0  0
    7.0701  -13.5864   24.9702 C   0  0  0  0  0  0  0  0  0  0  0  0
    8.6380  -16.9148   23.5795 C   0  0  0  0  0  0  0  0  0  0  0  0
    8.4228  -18.1077   23.1926 O   0  0  0  0  0  0  0  0  0  0  0  0
   14.4586  -19.8484   21.0400 N   0  0  0  0  0  0  0  0  0  0  0  0
   15.0631  -19.1162   22.0990 C   0  0  0  0  0  0  0  0  0  0  0  0
   16.1565  -18.4308   21.8913 N   0  0  0  0  0  0  0  0  0  0  0  0
   14.5233  -19.0919   23.4080 N   0  0  0  0  0  0  0  0  0  0  0  0
   13.1162  -19.2208   23.6702 C   0  0  0  0  0  0  0  0  0  0  0  0
   12.7481  -18.1129   24.6625 C   0  0  0  0  0  0  0  0  0  0  0  0
   11.5389  -17.3715   24.2369 C   0  0  0  0  0  0  0  0  0  0  0  0
   10.4004  -17.5903   25.1964 C   0  0  2  0  0  0  0  0  0  0  0  0
    9.2712  -16.7266   24.8250 N   0  0  0  0  0  0  0  0  0  0  0  0
   10.8419  -17.2027   26.5621 C   0  0  0  0  0  0  0  0  0  0  0  0
   11.8379  -16.3050   26.7911 O   0  0  0  0  0  0  0  0  0  0  0  0
   10.2827  -17.7212   27.5799 O   0  0  0  0  0  0  0  0  0  0  0  0
  2  1  1  6
  3  4  1  0
  3  2  1  0
  4  5  1  0
  5  9  1  0
  5  6  2  0
  7  8  2  0
  7  2  1  0
 10  7  1  0
 11 10  1  0
 11 12  1  1
 13 21  1  0
 13 12  1  0
 14 13  2  0
 15 14  1  0
 15 16  1  0
 16 17  1  0
 16 21  2  0
 17 18  2  0
 18 19  1  0
 20 19  2  0
 21 20  1  0
 22 11  1  0
 23 22  2  0
 24 25  1  0
 25 27  1  0
 26 25  2  0
 27 28  1  0
 29 28  1  0
 29 30  1  0
 31 30  1  6
 31 32  1  0
 31 33  1  0
 32 22  1  0
 33 34  1  0
 35 33  2  0
M  END
$$$$
