EWR.pdb
     RDKit          3D

 35 36  0  0  1  0  0  0  0  0999 V2000
    7.2926  -15.7155   18.5058 N   0  0  0  0  0  0  0  0  0  0  0  0
    8.1689  -16.6702   19.2121 C   0  0  1  0  0  0  0  0  0  0  0  0
    9.3804  -16.9342   18.3887 C   0  0  0  0  0  0  0  0  0  0  0  0
   10.2774  -17.9994   18.9536 C   0  0  0  0  0  0  0  0  0  0  0  0
   10.9748  -18.7145   17.8308 C   0  0  0  0  0  0  0  0  0  0  0  0
   10.9152  -18.2193   16.6959 O   0  0  0  0  0  0  0  0  0  0  0  0
    8.4227  -16.0850   20.5327 C   0  0  0  0  0  0  0  0  0  0  0  0
    9.1750  -15.0531   20.6627 O   0  0  0  0  0  0  0  0  0  0  0  0
   11.6583  -19.8860   18.0635 O   0  0  0  0  0  0  0  0  0  0  0  0
    7.8354  -16.6459   21.6966 N   0  0  0  0  0  0  0  0  0  0  0  0
    8.1102  -16.0060   22.9631 C   0  0  1  0  0  0  0  0  0  0  0  0
    6.7771  -15.8182   23.6756 C   0  0  0  0  0  0  0  0  0  0  0  0
    6.9921  -15.2040   25.0031 C   0  0  0  0  0  0  0  0  0  0  0  0
    7.3060  -15.8521   26.1756 C   0  0  0  0  0  0  0  0  0  0  0  0
    7.4243  -14.9507   27.1742 N   0  0  0  0  0  0  0  0  0  0  0  0
    7.1918  -13.7233   26.6698 C   0  0  0  0  0  0  0  0  0  0  0  0
    7.1892  -12.4929   27.2576 C   0  0  0  0  0  0  0  0  0  0  0  0
    6.9127  -11.3781   26.4926 C   0  0  0  0  0  0  0  0  0  0  0  0
    6.6414  -11.4968   25.1500 C   0  0  0  0  0  0  0  0  0  0  0  0
    6.6483  -12.7458   24.5727 C   0  0  0  0  0  0  0  0  0  0  0  0
    6.9184  -13.8632   25.3055 C   0  0  0  0  0  0  0  0  0  0  0  0
    9.0429  -16.8105   23.7635 C   0  0  0  0  0  0  0  0  0  0  0  0
    8.8995  -18.0747   23.7618 O   0  0  0  0  0  0  0  0  0  0  0  0
   13.0678  -19.9894   22.0473 N   0  0  0  0  0  0  0  0  0  0  0  0
   13.8478  -19.0438   21.3262 C   0  0  0  0  0  0  0  0  0  0  0  0
   14.0588  -19.1976   20.0454 N   0  0  0  0  0  0  0  0  0  0  0  0
   14.4257  -17.9088   21.9451 N   0  0  0  0  0  0  0  0  0  0  0  0
   14.2230  -17.5934   23.3325 C   0  0  0  0  0  0  0  0  0  0  0  0
   12.8048  -17.0265   23.4544 C   0  0  0  0  0  0  0  0  0  0  0  0
   12.4538  -16.7176   24.8595 C   0  0  0  0  0  0  0  0  0  0  0  0
   11.0532  -17.1642   25.1814 C   0  0  2  0  0  0  0  0  0  0  0  0
   10.0889  -16.2636   24.5347 N   0  0  0  0  0  0  0  0  0  0  0  0
   10.8465  -17.0752   26.6510 C   0  0  0  0  0  0  0  0  0  0  0  0
    9.9475  -16.2291   27.2222 O   0  0  0  0  0  0  0  0  0  0  0  0
   11.5304  -17.8091   27.4328 O   0  0  0  0  0  0  0  0  0  0  0  0
  2  1  1  6
  3  4  1  0
  3  2  1  0
  4  5  1  0
  5  9  1  0
  5  6  2  0
  7  8  2  0
  7  2  1  0
 10  7  1  0
 11 10  1  0
 11 12  1  1
 13 21  1  0
 13 12  1  0
 14 13  2  0
 15 14  1  0
 15 16  1  0
 16 17  1  0
 16 21  2  0
 17 18  2  0
 18 19  1  0
 20 19  2  0
 21 20  1  0
 22 11  1  0
 23 22  2  0
 24 25  1  0
 25 27  1  0
 26 25  2  0
 27 28  1  0
 29 28  1  0
 29 30  1  0
 31 30  1  1
 31 32  1  0
 31 33  1  0
 32 22  1  0
 33 34  1  0
 35 33  2  0
M  END
$$$$
