EWR.pdb
     RDKit          3D

 35 36  0  0  1  0  0  0  0  0999 V2000
    8.4447  -18.0791   20.1538 N   0  0  0  0  0  0  0  0  0  0  0  0
    9.6050  -17.1678   20.1170 C   0  0  1  0  0  0  0  0  0  0  0  0
    9.4105  -16.1601   19.0391 C   0  0  0  0  0  0  0  0  0  0  0  0
    7.9917  -16.0565   18.5545 C   0  0  0  0  0  0  0  0  0  0  0  0
    7.9851  -15.6697   17.1024 C   0  0  0  0  0  0  0  0  0  0  0  0
    7.2393  -16.2945   16.3342 O   0  0  0  0  0  0  0  0  0  0  0  0
    9.7325  -16.6211   21.4719 C   0  0  0  0  0  0  0  0  0  0  0  0
   10.6071  -15.7206   21.7397 O   0  0  0  0  0  0  0  0  0  0  0  0
    8.7874  -14.6493   16.6453 O   0  0  0  0  0  0  0  0  0  0  0  0
    8.8850  -17.0739   22.5165 N   0  0  0  0  0  0  0  0  0  0  0  0
    9.0660  -16.4938   23.8279 C   0  0  1  0  0  0  0  0  0  0  0  0
    7.6820  -16.3015   24.4342 C   0  0  0  0  0  0  0  0  0  0  0  0
    7.1983  -14.9292   24.1724 C   0  0  0  0  0  0  0  0  0  0  0  0
    6.7436  -14.4245   22.9758 C   0  0  0  0  0  0  0  0  0  0  0  0
    6.3877  -13.1315   23.1352 N   0  0  0  0  0  0  0  0  0  0  0  0
    6.6040  -12.7854   24.4191 C   0  0  0  0  0  0  0  0  0  0  0  0
    6.4101  -11.6086   25.0803 C   0  0  0  0  0  0  0  0  0  0  0  0
    6.7225  -11.5270   26.4220 C   0  0  0  0  0  0  0  0  0  0  0  0
    7.2247  -12.6161   27.0942 C   0  0  0  0  0  0  0  0  0  0  0  0
    7.4141  -13.7960   26.4119 C   0  0  0  0  0  0  0  0  0  0  0  0
    7.1137  -13.9036   25.0865 C   0  0  0  0  0  0  0  0  0  0  0  0
    9.9101  -17.3539   24.6678 C   0  0  0  0  0  0  0  0  0  0  0  0
    9.4944  -18.5265   24.9346 O   0  0  0  0  0  0  0  0  0  0  0  0
   15.6983  -14.5596   22.1873 N   0  0  0  0  0  0  0  0  0  0  0  0
   14.6923  -15.3889   21.6190 C   0  0  0  0  0  0  0  0  0  0  0  0
   14.3054  -15.2097   20.3834 N   0  0  0  0  0  0  0  0  0  0  0  0
   14.0690  -16.4313   22.3472 N   0  0  0  0  0  0  0  0  0  0  0  0
   14.6309  -16.9820   23.5499 C   0  0  0  0  0  0  0  0  0  0  0  0
   13.5963  -17.9620   24.1128 C   0  0  0  0  0  0  0  0  0  0  0  0
   13.4077  -17.7866   25.5711 C   0  0  0  0  0  0  0  0  0  0  0  0
   11.9588  -17.9262   25.9531 C   0  0  2  0  0  0  0  0  0  0  0  0
   11.1550  -16.9562   25.1967 N   0  0  0  0  0  0  0  0  0  0  0  0
   11.8109  -17.6130   27.3989 C   0  0  0  0  0  0  0  0  0  0  0  0
   12.3462  -18.3855   28.3823 O   0  0  0  0  0  0  0  0  0  0  0  0
   11.1562  -16.5843   27.7608 O   0  0  0  0  0  0  0  0  0  0  0  0
  2  1  1  1
  3  4  1  0
  3  2  1  0
  4  5  1  0
  5  9  1  0
  5  6  2  0
  7  8  2  0
  7  2  1  0
 10  7  1  0
 11 10  1  0
 11 12  1  1
 13 21  1  0
 13 12  1  0
 14 13  2  0
 15 14  1  0
 15 16  1  0
 16 17  1  0
 16 21  2  0
 17 18  2  0
 18 19  1  0
 20 19  2  0
 21 20  1  0
 22 11  1  0
 23 22  2  0
 24 25  1  0
 25 27  1  0
 26 25  2  0
 27 28  1  0
 29 28  1  0
 29 30  1  0
 31 30  1  6
 31 32  1  0
 31 33  1  0
 32 22  1  0
 33 34  1  0
 35 33  2  0
M  END
$$$$
