EWR.pdb
     RDKit          3D

 35 36  0  0  1  0  0  0  0  0999 V2000
    6.9078  -15.7073   20.0884 N   0  0  0  0  0  0  0  0  0  0  0  0
    7.0473  -16.7186   21.1543 C   0  0  1  0  0  0  0  0  0  0  0  0
    7.3339  -18.0458   20.5446 C   0  0  0  0  0  0  0  0  0  0  0  0
    7.9930  -17.9643   19.1965 C   0  0  0  0  0  0  0  0  0  0  0  0
    8.6188  -19.2894   18.8638 C   0  0  0  0  0  0  0  0  0  0  0  0
    9.6268  -19.2952   18.1422 O   0  0  0  0  0  0  0  0  0  0  0  0
    8.0799  -16.2087   22.0624 C   0  0  0  0  0  0  0  0  0  0  0  0
    8.9661  -15.3760   21.6515 O   0  0  0  0  0  0  0  0  0  0  0  0
    8.0824  -20.4597   19.3500 O   0  0  0  0  0  0  0  0  0  0  0  0
    8.1171  -16.6226   23.4194 N   0  0  0  0  0  0  0  0  0  0  0  0
    9.1237  -16.0346   24.2740 C   0  0  1  0  0  0  0  0  0  0  0  0
    8.5812  -16.0583   25.6971 C   0  0  0  0  0  0  0  0  0  0  0  0
    7.4573  -15.1069   25.8287 C   0  0  0  0  0  0  0  0  0  0  0  0
    6.1142  -15.4061   25.8360 C   0  0  0  0  0  0  0  0  0  0  0  0
    5.3975  -14.2702   25.9775 N   0  0  0  0  0  0  0  0  0  0  0  0
    6.2541  -13.2339   26.0625 C   0  0  0  0  0  0  0  0  0  0  0  0
    6.0380  -11.8957   26.2105 C   0  0  0  0  0  0  0  0  0  0  0  0
    7.1178  -11.0384   26.2694 C   0  0  0  0  0  0  0  0  0  0  0  0
    8.4027  -11.5195   26.1808 C   0  0  0  0  0  0  0  0  0  0  0  0
    8.6030  -12.8727   26.0320 C   0  0  0  0  0  0  0  0  0  0  0  0
    7.5541  -13.7413   25.9710 C   0  0  0  0  0  0  0  0  0  0  0  0
   10.3928  -16.7663   24.1663 C   0  0  0  0  0  0  0  0  0  0  0  0
   10.3467  -18.0262   23.9949 O   0  0  0  0  0  0  0  0  0  0  0  0
   18.2468  -18.3560   23.6500 N   0  0  0  0  0  0  0  0  0  0  0  0
   18.1180  -17.5356   22.4953 C   0  0  0  0  0  0  0  0  0  0  0  0
   18.7781  -17.8195   21.4034 N   0  0  0  0  0  0  0  0  0  0  0  0
   17.2849  -16.3908   22.4683 N   0  0  0  0  0  0  0  0  0  0  0  0
   16.5327  -15.9507   23.6111 C   0  0  0  0  0  0  0  0  0  0  0  0
   15.3027  -16.8592   23.7073 C   0  0  0  0  0  0  0  0  0  0  0  0
   14.0465  -16.0791   23.7882 C   0  0  0  0  0  0  0  0  0  0  0  0
   12.8674  -16.9731   24.0624 C   0  0  2  0  0  0  0  0  0  0  0  0
   11.6606  -16.1542   24.2423 N   0  0  0  0  0  0  0  0  0  0  0  0
   13.1100  -17.7131   25.3289 C   0  0  0  0  0  0  0  0  0  0  0  0
   13.7880  -18.8912   25.3796 O   0  0  0  0  0  0  0  0  0  0  0  0
   12.6715  -17.2482   26.4285 O   0  0  0  0  0  0  0  0  0  0  0  0
  2  1  1  6
  3  4  1  0
  3  2  1  0
  4  5  1  0
  5  9  1  0
  5  6  2  0
  7  8  2  0
  7  2  1  0
 10  7  1  0
 11 10  1  0
 11 12  1  1
 13 21  1  0
 13 12  1  0
 14 13  2  0
 15 14  1  0
 15 16  1  0
 16 17  1  0
 16 21  2  0
 17 18  2  0
 18 19  1  0
 20 19  2  0
 21 20  1  0
 22 11  1  0
 23 22  2  0
 24 25  1  0
 25 27  1  0
 26 25  2  0
 27 28  1  0
 29 28  1  0
 29 30  1  0
 31 30  1  1
 31 32  1  0
 31 33  1  0
 32 22  1  0
 33 34  1  0
 35 33  2  0
M  END
$$$$
