HRV.pdb
     RDKit          3D

 29 29  0  0  1  0  0  0  0  0999 V2000
    8.4153  -16.2629   20.7551 N   0  0  0  0  0  0  0  0  0  0  0  0
    8.0928  -15.0565   21.4774 C   0  0  1  0  0  0  0  0  0  0  0  0
    6.8755  -14.4465   20.8025 C   0  0  0  0  0  0  0  0  0  0  0  0
    7.1958  -14.2493   19.3659 C   0  0  0  0  0  0  0  0  0  0  0  0
    7.8502  -13.2300   18.7308 C   0  0  0  0  0  0  0  0  0  0  0  0
    7.9131  -13.4729   17.3982 N   0  0  0  0  0  0  0  0  0  0  0  0
    7.2961  -14.6506   17.1888 C   0  0  0  0  0  0  0  0  0  0  0  0
    6.8628  -15.1216   18.3698 N   0  0  0  0  0  0  0  0  0  0  0  0
    7.8415  -15.3564   22.8994 C   0  0  0  0  0  0  0  0  0  0  0  0
    7.2940  -14.5013   23.6230 O   0  0  0  0  0  0  0  0  0  0  0  0
    6.7935  -21.1278   21.8675 N   0  0  0  0  0  0  0  0  0  0  0  0
    5.6131  -21.3754   22.6021 C   0  0  0  0  0  0  0  0  0  0  0  0
    4.5484  -21.8244   22.0440 N   0  0  0  0  0  0  0  0  0  0  0  0
    5.5978  -21.1231   23.9930 N   0  0  0  0  0  0  0  0  0  0  0  0
    6.8013  -20.5928   24.6040 C   0  0  0  0  0  0  0  0  0  0  0  0
    6.7771  -19.0958   24.4419 C   0  0  0  0  0  0  0  0  0  0  0  0
    7.9216  -18.3921   25.0621 C   0  0  0  0  0  0  0  0  0  0  0  0
    7.8563  -16.9011   24.8907 C   0  0  2  0  0  0  0  0  0  0  0  0
    8.2021  -16.5884   23.4752 N   0  0  0  0  0  0  0  0  0  0  0  0
    8.9080  -16.2566   25.7178 C   0  0  0  0  0  0  0  0  0  0  0  0
   10.1359  -16.3766   25.3488 O   0  0  0  0  0  0  0  0  0  0  0  0
    3.6560  -21.8914   22.6148 C   0  0  0  0  0  0  0  0  0  0  0  0
    9.5494  -12.7425   26.8061 C   0  0  2  0  0  0  0  0  0  0  0  0
    9.6786  -13.5815   28.0560 C   0  0  0  0  0  0  0  0  0  0  0  0
    8.4473  -13.3129   28.8968 C   0  0  2  0  0  0  0  0  0  0  0  0
    9.8253  -15.0114   27.6790 N   0  0  0  0  0  0  0  0  0  0  0  0
    8.7139  -15.5073   26.8847 C   0  0  0  0  0  0  0  0  0  0  0  0
   10.0741  -15.8305   28.8822 O   0  0  0  0  0  0  0  0  0  0  0  0
    9.2540  -16.7089   29.2320 O   0  0  0  0  0  0  0  0  0  0  0  0
  2  1  1  6
  3  4  1  0
  3  2  1  0
  4  8  1  0
  5  4  2  0
  5  6  1  0
  6  7  1  0
  8  7  2  0
  9  2  1  0
  9 19  1  0
 10  9  2  0
 11 12  1  0
 12 14  1  0
 13 12  2  0
 14 15  1  0
 16 17  1  0
 16 15  1  0
 18 19  1  0
 18 17  1  6
 20 18  1  0
 21 20  2  0
 23 22  1  1
 23 24  1  0
 23 25  1  0
 25 27  1  0
 25 26  1  1
 26 20  1  0
 27 29  1  0
 28 27  2  0
M  END
$$$$
