HRV.pdb
     RDKit          3D

 29 29  0  0  1  0  0  0  0  0999 V2000
    9.3010  -15.5677   19.7179 N   0  0  0  0  0  0  0  0  0  0  0  0
    7.9903  -15.0138   19.9557 C   0  0  1  0  0  0  0  0  0  0  0  0
    7.1119  -15.4344   18.7891 C   0  0  0  0  0  0  0  0  0  0  0  0
    7.6127  -14.7552   17.5672 C   0  0  0  0  0  0  0  0  0  0  0  0
    8.7146  -13.9687   17.3732 C   0  0  0  0  0  0  0  0  0  0  0  0
    8.7770  -13.5608   16.0815 N   0  0  0  0  0  0  0  0  0  0  0  0
    7.7102  -14.0912   15.4552 C   0  0  0  0  0  0  0  0  0  0  0  0
    7.0067  -14.8107   16.3450 N   0  0  0  0  0  0  0  0  0  0  0  0
    7.4553  -15.4863   21.2462 C   0  0  0  0  0  0  0  0  0  0  0  0
    6.3272  -15.1104   21.6213 O   0  0  0  0  0  0  0  0  0  0  0  0
    8.9429  -20.1159   27.2009 N   0  0  0  0  0  0  0  0  0  0  0  0
    7.5530  -20.3507   27.1150 C   0  0  0  0  0  0  0  0  0  0  0  0
    7.0570  -21.5301   27.2132 N   0  0  0  0  0  0  0  0  0  0  0  0
    6.6777  -19.2588   26.9151 N   0  0  0  0  0  0  0  0  0  0  0  0
    6.7093  -18.5844   25.6317 C   0  0  0  0  0  0  0  0  0  0  0  0
    8.1480  -18.2752   25.3110 C   0  0  0  0  0  0  0  0  0  0  0  0
    8.4033  -17.9429   23.8919 C   0  0  0  0  0  0  0  0  0  0  0  0
    7.6868  -16.7015   23.4420 C   0  0  2  0  0  0  0  0  0  0  0  0
    8.1817  -16.3569   22.0792 N   0  0  0  0  0  0  0  0  0  0  0  0
    8.0681  -15.5609   24.3133 C   0  0  0  0  0  0  0  0  0  0  0  0
    9.2623  -15.0889   24.2158 O   0  0  0  0  0  0  0  0  0  0  0  0
    6.0063  -21.6561   27.1311 C   0  0  0  0  0  0  0  0  0  0  0  0
    7.1760  -11.6647   27.1482 C   0  0  1  0  0  0  0  0  0  0  0  0
    6.6161  -12.8182   26.3489 C   0  0  0  0  0  0  0  0  0  0  0  0
    5.9459  -12.2240   25.1271 C   0  0  1  0  0  0  0  0  0  0  0  0
    7.7118  -13.7630   26.0100 N   0  0  0  0  0  0  0  0  0  0  0  0
    7.2548  -14.9167   25.2536 C   0  0  0  0  0  0  0  0  0  0  0  0
    8.4520  -14.1407   27.2307 O   0  0  0  0  0  0  0  0  0  0  0  0
    8.1384  -15.1704   27.8694 O   0  0  0  0  0  0  0  0  0  0  0  0
  2  1  1  6
  3  4  1  0
  3  2  1  0
  4  8  1  0
  5  4  2  0
  5  6  1  0
  6  7  1  0
  8  7  2  0
  9  2  1  0
  9 19  1  0
 10  9  2  0
 11 12  1  0
 12 14  1  0
 13 12  2  0
 14 15  1  0
 16 17  1  0
 16 15  1  0
 18 19  1  0
 18 17  1  1
 20 18  1  0
 21 20  2  0
 23 22  1  1
 23 24  1  0
 23 25  1  0
 25 27  1  0
 25 26  1  1
 26 20  1  0
 27 29  1  0
 28 27  2  0
M  END
$$$$
