HRV.pdb
     RDKit          3D

 29 29  0  0  1  0  0  0  0  0999 V2000
    7.1165  -17.4928   19.7731 N   0  0  0  0  0  0  0  0  0  0  0  0
    7.4071  -16.3078   20.5429 C   0  0  1  0  0  0  0  0  0  0  0  0
    6.6714  -15.1555   19.8793 C   0  0  0  0  0  0  0  0  0  0  0  0
    7.6448  -14.4079   19.0433 C   0  0  0  0  0  0  0  0  0  0  0  0
    8.9507  -14.6781   18.7397 C   0  0  0  0  0  0  0  0  0  0  0  0
    9.4537  -13.7102   17.9342 N   0  0  0  0  0  0  0  0  0  0  0  0
    8.4623  -12.8237   17.7270 C   0  0  0  0  0  0  0  0  0  0  0  0
    7.3719  -13.2392   18.3923 N   0  0  0  0  0  0  0  0  0  0  0  0
    6.9943  -16.4888   21.9471 C   0  0  0  0  0  0  0  0  0  0  0  0
    5.7865  -16.6314   22.2217 O   0  0  0  0  0  0  0  0  0  0  0  0
    7.3169  -22.0527   27.3259 N   0  0  0  0  0  0  0  0  0  0  0  0
    6.7526  -22.3092   26.0571 C   0  0  0  0  0  0  0  0  0  0  0  0
    5.8816  -23.2341   25.8764 N   0  0  0  0  0  0  0  0  0  0  0  0
    7.1549  -21.5276   24.9499 N   0  0  0  0  0  0  0  0  0  0  0  0
    8.0649  -20.4239   25.1879 C   0  0  0  0  0  0  0  0  0  0  0  0
    7.3517  -19.1517   24.8121 C   0  0  0  0  0  0  0  0  0  0  0  0
    8.1709  -17.9265   24.9434 C   0  0  0  0  0  0  0  0  0  0  0  0
    7.4840  -16.7015   24.4101 C   0  0  2  0  0  0  0  0  0  0  0  0
    7.9267  -16.5065   23.0006 N   0  0  0  0  0  0  0  0  0  0  0  0
    7.9517  -15.5034   25.1524 C   0  0  0  0  0  0  0  0  0  0  0  0
    9.1324  -15.0525   24.9051 O   0  0  0  0  0  0  0  0  0  0  0  0
    5.4030  -23.3144   24.9325 C   0  0  0  0  0  0  0  0  0  0  0  0
    7.4937  -11.4549   27.8573 C   0  0  2  0  0  0  0  0  0  0  0  0
    6.8144  -12.5864   27.1217 C   0  0  0  0  0  0  0  0  0  0  0  0
    6.1841  -11.9896   25.8800 C   0  0  1  0  0  0  0  0  0  0  0  0
    7.8102  -13.6464   26.8168 N   0  0  0  0  0  0  0  0  0  0  0  0
    7.2356  -14.7823   26.1157 C   0  0  0  0  0  0  0  0  0  0  0  0
    8.5249  -14.0404   28.0475 O   0  0  0  0  0  0  0  0  0  0  0  0
    8.2841  -15.1391   28.5964 O   0  0  0  0  0  0  0  0  0  0  0  0
  2  1  1  6
  3  4  1  0
  3  2  1  0
  4  8  1  0
  5  4  2  0
  5  6  1  0
  6  7  1  0
  8  7  2  0
  9  2  1  0
  9 19  1  0
 10  9  2  0
 11 12  1  0
 12 14  1  0
 13 12  2  0
 14 15  1  0
 16 17  1  0
 16 15  1  0
 18 19  1  0
 18 17  1  1
 20 18  1  0
 21 20  2  0
 23 22  1  1
 23 24  1  0
 23 25  1  0
 25 27  1  0
 25 26  1  1
 26 20  1  0
 27 29  1  0
 28 27  2  0
M  END
$$$$
