HRV.pdb
     RDKit          3D

 29 29  0  0  1  0  0  0  0  0999 V2000
    8.8106  -17.2187   18.8413 N   0  0  0  0  0  0  0  0  0  0  0  0
    9.2398  -17.4379   20.2011 C   0  0  1  0  0  0  0  0  0  0  0  0
   10.6412  -16.8629   20.3228 C   0  0  0  0  0  0  0  0  0  0  0  0
   11.5579  -17.7091   19.5174 C   0  0  0  0  0  0  0  0  0  0  0  0
   11.2950  -18.7451   18.6641 C   0  0  0  0  0  0  0  0  0  0  0  0
   12.4505  -19.2279   18.1440 N   0  0  0  0  0  0  0  0  0  0  0  0
   13.4490  -18.4945   18.6703 C   0  0  0  0  0  0  0  0  0  0  0  0
   12.9169  -17.5795   19.4972 N   0  0  0  0  0  0  0  0  0  0  0  0
    8.3015  -16.8068   21.1479 C   0  0  0  0  0  0  0  0  0  0  0  0
    7.7606  -15.7234   20.8510 O   0  0  0  0  0  0  0  0  0  0  0  0
    6.0100  -22.6350   26.7243 N   0  0  0  0  0  0  0  0  0  0  0  0
    7.0913  -22.4105   25.8442 C   0  0  0  0  0  0  0  0  0  0  0  0
    7.7400  -23.3780   25.3060 N   0  0  0  0  0  0  0  0  0  0  0  0
    7.4751  -21.0834   25.5437 N   0  0  0  0  0  0  0  0  0  0  0  0
    6.7075  -20.3595   24.5488 C   0  0  0  0  0  0  0  0  0  0  0  0
    7.2061  -18.9385   24.5292 C   0  0  0  0  0  0  0  0  0  0  0  0
    6.2490  -17.9594   23.9680 C   0  0  0  0  0  0  0  0  0  0  0  0
    6.9235  -16.8202   23.2580 C   0  0  2  0  0  0  0  0  0  0  0  0
    7.9915  -17.3913   22.3896 N   0  0  0  0  0  0  0  0  0  0  0  0
    7.6209  -15.9584   24.2462 C   0  0  0  0  0  0  0  0  0  0  0  0
    8.8981  -16.0732   24.3647 O   0  0  0  0  0  0  0  0  0  0  0  0
    8.5263  -23.1575   24.6280 C   0  0  0  0  0  0  0  0  0  0  0  0
    5.8621  -12.9283   26.7759 C   0  0  2  0  0  0  0  0  0  0  0  0
    7.1486  -12.7345   26.0076 C   0  0  0  0  0  0  0  0  0  0  0  0
    7.9788  -11.7323   26.7831 C   0  0  1  0  0  0  0  0  0  0  0  0
    7.8267  -14.0460   25.8395 N   0  0  0  0  0  0  0  0  0  0  0  0
    7.0347  -15.0038   25.0862 C   0  0  0  0  0  0  0  0  0  0  0  0
    8.2526  -14.5691   27.1532 O   0  0  0  0  0  0  0  0  0  0  0  0
    9.1016  -13.9531   27.8360 O   0  0  0  0  0  0  0  0  0  0  0  0
  2  1  1  6
  3  4  1  0
  3  2  1  0
  4  8  1  0
  5  4  2  0
  5  6  1  0
  6  7  1  0
  8  7  2  0
  9  2  1  0
  9 19  1  0
 10  9  2  0
 11 12  1  0
 12 14  1  0
 13 12  2  0
 14 15  1  0
 16 17  1  0
 16 15  1  0
 18 19  1  0
 18 17  1  1
 20 18  1  0
 21 20  2  0
 23 22  1  6
 23 24  1  0
 23 25  1  0
 25 27  1  0
 25 26  1  6
 26 20  1  0
 27 29  1  0
 28 27  2  0
M  END
$$$$
