HRV.pdb
     RDKit          3D

 29 29  0  0  1  0  0  0  0  0999 V2000
    9.0424  -15.9612   20.1081 N   0  0  0  0  0  0  0  0  0  0  0  0
    8.1655  -14.9162   20.5773 C   0  0  1  0  0  0  0  0  0  0  0  0
    7.0220  -14.8154   19.5816 C   0  0  0  0  0  0  0  0  0  0  0  0
    7.5994  -14.5230   18.2451 C   0  0  0  0  0  0  0  0  0  0  0  0
    8.2176  -13.4002   17.7680 C   0  0  0  0  0  0  0  0  0  0  0  0
    8.5875  -13.5827   16.4762 N   0  0  0  0  0  0  0  0  0  0  0  0
    8.2019  -14.8260   16.1341 C   0  0  0  0  0  0  0  0  0  0  0  0
    7.6069  -15.3957   17.1951 N   0  0  0  0  0  0  0  0  0  0  0  0
    7.6851  -15.2165   21.9389 C   0  0  0  0  0  0  0  0  0  0  0  0
    6.6926  -14.6119   22.3905 O   0  0  0  0  0  0  0  0  0  0  0  0
    7.6802  -21.7709   25.5713 N   0  0  0  0  0  0  0  0  0  0  0  0
    6.4593  -21.2897   26.0928 C   0  0  0  0  0  0  0  0  0  0  0  0
    5.8477  -21.8876   27.0494 N   0  0  0  0  0  0  0  0  0  0  0  0
    5.8893  -20.1158   25.5493 N   0  0  0  0  0  0  0  0  0  0  0  0
    6.6934  -19.3254   24.6373 C   0  0  0  0  0  0  0  0  0  0  0  0
    7.6402  -18.4943   25.4625 C   0  0  0  0  0  0  0  0  0  0  0  0
    8.5452  -17.6291   24.6739 C   0  0  0  0  0  0  0  0  0  0  0  0
    7.8719  -16.3871   24.1630 C   0  0  2  0  0  0  0  0  0  0  0  0
    8.3149  -16.1729   22.7564 N   0  0  0  0  0  0  0  0  0  0  0  0
    8.3546  -15.2075   24.9252 C   0  0  0  0  0  0  0  0  0  0  0  0
    9.6141  -14.9398   24.9055 O   0  0  0  0  0  0  0  0  0  0  0  0
    4.9482  -21.4696   27.4273 C   0  0  0  0  0  0  0  0  0  0  0  0
    7.0420  -11.5150   25.2870 C   0  0  2  0  0  0  0  0  0  0  0  0
    7.3162  -12.0889   26.6575 C   0  0  0  0  0  0  0  0  0  0  0  0
    5.9711  -12.3771   27.2922 C   0  0  2  0  0  0  0  0  0  0  0  0
    8.1686  -13.2989   26.5255 N   0  0  0  0  0  0  0  0  0  0  0  0
    7.5761  -14.3232   25.6819 C   0  0  0  0  0  0  0  0  0  0  0  0
    8.5387  -13.8071   27.8617 O   0  0  0  0  0  0  0  0  0  0  0  0
    8.1195  -14.9186   28.2559 O   0  0  0  0  0  0  0  0  0  0  0  0
  2  1  1  6
  3  4  1  0
  3  2  1  0
  4  8  1  0
  5  4  2  0
  5  6  1  0
  6  7  1  0
  8  7  2  0
  9  2  1  0
  9 19  1  0
 10  9  2  0
 11 12  1  0
 12 14  1  0
 13 12  2  0
 14 15  1  0
 16 17  1  0
 16 15  1  0
 18 19  1  0
 18 17  1  1
 20 18  1  0
 21 20  2  0
 23 22  1  1
 23 24  1  0
 23 25  1  0
 25 27  1  0
 25 26  1  1
 26 20  1  0
 27 29  1  0
 28 27  2  0
M  END
$$$$
