HRV.pdb
     RDKit          3D

 29 29  0  0  1  0  0  0  0  0999 V2000
    7.2024  -16.3451   19.4138 N   0  0  0  0  0  0  0  0  0  0  0  0
    7.7919  -15.3249   20.2463 C   0  0  1  0  0  0  0  0  0  0  0  0
    7.4081  -13.9835   19.6439 C   0  0  0  0  0  0  0  0  0  0  0  0
    7.9618  -13.9214   18.2674 C   0  0  0  0  0  0  0  0  0  0  0  0
    7.5099  -13.2683   17.1540 C   0  0  0  0  0  0  0  0  0  0  0  0
    8.3419  -13.4964   16.1077 N   0  0  0  0  0  0  0  0  0  0  0  0
    9.3244  -14.2971   16.5606 C   0  0  0  0  0  0  0  0  0  0  0  0
    9.1001  -14.5555   17.8596 N   0  0  0  0  0  0  0  0  0  0  0  0
    7.3228  -15.4579   21.6381 C   0  0  0  0  0  0  0  0  0  0  0  0
    6.3459  -14.7877   22.0268 O   0  0  0  0  0  0  0  0  0  0  0  0
    6.7004  -21.9528   26.9320 N   0  0  0  0  0  0  0  0  0  0  0  0
    6.6760  -20.9214   27.8962 C   0  0  0  0  0  0  0  0  0  0  0  0
    6.0718  -21.0575   29.0200 N   0  0  0  0  0  0  0  0  0  0  0  0
    7.3346  -19.7011   27.6211 N   0  0  0  0  0  0  0  0  0  0  0  0
    7.8997  -19.5131   26.2988 C   0  0  0  0  0  0  0  0  0  0  0  0
    7.4065  -18.1910   25.7726 C   0  0  0  0  0  0  0  0  0  0  0  0
    7.7576  -17.9223   24.3605 C   0  0  0  0  0  0  0  0  0  0  0  0
    7.3753  -16.5399   23.9137 C   0  0  2  0  0  0  0  0  0  0  0  0
    7.9463  -16.3249   22.5541 N   0  0  0  0  0  0  0  0  0  0  0  0
    8.0253  -15.5335   24.7912 C   0  0  0  0  0  0  0  0  0  0  0  0
    9.3047  -15.4011   24.7274 O   0  0  0  0  0  0  0  0  0  0  0  0
    6.1381  -20.2793   29.7387 C   0  0  0  0  0  0  0  0  0  0  0  0
    7.5075  -11.7362   25.4582 C   0  0  2  0  0  0  0  0  0  0  0  0
    7.4971  -12.4794   26.7737 C   0  0  0  0  0  0  0  0  0  0  0  0
    6.0516  -12.5693   27.2181 C   0  0  2  0  0  0  0  0  0  0  0  0
    8.1349  -13.8096   26.5953 N   0  0  0  0  0  0  0  0  0  0  0  0
    7.3898  -14.6831   25.7042 C   0  0  0  0  0  0  0  0  0  0  0  0
    8.3953  -14.4281   27.9107 O   0  0  0  0  0  0  0  0  0  0  0  0
    7.8105  -15.4839   28.2419 O   0  0  0  0  0  0  0  0  0  0  0  0
  2  1  1  6
  3  4  1  0
  3  2  1  0
  4  8  1  0
  5  4  2  0
  5  6  1  0
  6  7  1  0
  8  7  2  0
  9  2  1  0
  9 19  1  0
 10  9  2  0
 11 12  1  0
 12 14  1  0
 13 12  2  0
 14 15  1  0
 16 17  1  0
 16 15  1  0
 18 19  1  0
 18 17  1  1
 20 18  1  0
 21 20  2  0
 23 22  1  1
 23 24  1  0
 23 25  1  0
 25 27  1  0
 25 26  1  1
 26 20  1  0
 27 29  1  0
 28 27  2  0
M  END
$$$$
