MHE.pdb
     RDKit          3D

 28 28  0  0  1  0  0  0  0  0999 V2000
   18.2493  -11.9848  -22.7587 C   0  0  0  0  0  0  0  0  0  0  0  0
   18.4996  -11.4629  -21.0688 S   0  0  0  0  0  0  0  0  0  0  0  0
   20.0908  -11.8723  -20.3772 C   0  0  0  0  0  0  0  0  0  0  0  0
   20.3049  -11.3336  -18.9799 C   0  0  0  0  0  0  0  0  0  0  0  0
   21.6882  -11.7345  -18.4657 C   0  0  2  0  0  0  0  0  0  0  0  0
   21.7684  -13.1508  -18.2315 N   0  0  0  0  0  0  0  0  0  0  0  0
   22.0180  -10.9286  -17.2758 C   0  0  0  0  0  0  0  0  0  0  0  0
   21.6658  -11.3764  -16.1580 O   0  0  0  0  0  0  0  0  0  0  0  0
   22.7225   -9.6627  -17.3636 N   0  0  0  0  0  0  0  0  0  0  0  0
   22.9721   -8.9663  -16.1477 C   0  0  1  0  0  0  0  0  0  0  0  0
   24.4101   -8.6631  -15.9588 C   0  0  0  0  0  0  0  0  0  0  0  0
   25.3200   -9.8028  -15.8342 C   0  0  0  0  0  0  0  0  0  0  0  0
   25.1330  -11.1525  -15.8114 C   0  0  0  0  0  0  0  0  0  0  0  0
   26.3455  -11.7482  -15.7031 N   0  0  0  0  0  0  0  0  0  0  0  0
   27.2737  -10.7843  -15.6597 C   0  0  0  0  0  0  0  0  0  0  0  0
   26.6665   -9.6051  -15.7382 N   0  0  0  0  0  0  0  0  0  0  0  0
   22.1060   -7.7578  -16.0323 C   0  0  0  0  0  0  0  0  0  0  0  0
   22.0610   -6.8691  -16.9159 O   0  0  0  0  0  0  0  0  0  0  0  0
   21.2916   -7.5828  -14.8864 N   0  0  0  0  0  0  0  0  0  0  0  0
   20.2373   -6.6151  -14.8782 C   0  0  1  0  0  0  0  0  0  0  0  0
   19.3103   -6.7034  -16.0666 C   0  0  0  0  0  0  0  0  0  0  0  0
   18.2666   -5.6387  -16.1295 C   0  0  0  0  0  0  0  0  0  0  0  0
   17.5466   -5.7847  -17.4124 C   0  0  0  0  0  0  0  0  0  0  0  0
   18.2157   -5.8255  -18.4666 O   0  0  0  0  0  0  0  0  0  0  0  0
   19.4368   -6.6680  -13.6315 C   0  0  0  0  0  0  0  0  0  0  0  0
   18.6047   -5.7565  -13.4180 O   0  0  0  0  0  0  0  0  0  0  0  0
   16.1734   -5.8775  -17.4956 O   0  0  0  0  0  0  0  0  0  0  0  0
   19.5621   -7.6716  -12.6915 O   0  0  0  0  0  0  0  0  0  0  0  0
  2  1  1  0
  3  2  1  0
  3  4  1  0
  5  4  1  0
  5  6  1  1
  7  5  1  0
  7  8  2  0
  9  7  1  0
 10  9  1  0
 10 11  1  6
 12 11  1  0
 12 16  1  0
 13 12  2  0
 14 13  1  0
 14 15  1  0
 15 16  2  0
 17 10  1  0
 18 17  2  0
 19 17  1  0
 20 19  1  0
 20 25  1  0
 20 21  1  6
 22 21  1  0
 22 23  1  0
 23 24  2  0
 25 28  1  0
 26 25  2  0
 27 23  1  0
M  END
$$$$
