MHE.pdb
     RDKit          3D

 28 28  0  0  1  0  0  0  0  0999 V2000
   29.3941  -16.4713  -18.4084 C   0  0  0  0  0  0  0  0  0  0  0  0
   29.0143  -17.4808  -16.9845 S   0  0  0  0  0  0  0  0  0  0  0  0
   27.9688  -18.8873  -17.3102 C   0  0  0  0  0  0  0  0  0  0  0  0
   27.7115  -19.7500  -16.0944 C   0  0  0  0  0  0  0  0  0  0  0  0
   26.4647  -19.2623  -15.3552 C   0  0  2  0  0  0  0  0  0  0  0  0
   26.6276  -17.9116  -14.8905 N   0  0  0  0  0  0  0  0  0  0  0  0
   26.1346  -20.2125  -14.2773 C   0  0  0  0  0  0  0  0  0  0  0  0
   25.9978  -21.4194  -14.5916 O   0  0  0  0  0  0  0  0  0  0  0  0
   25.9688  -19.7968  -12.8965 N   0  0  0  0  0  0  0  0  0  0  0  0
   25.4156  -20.7437  -11.9893 C   0  0  1  0  0  0  0  0  0  0  0  0
   26.1643  -20.8020  -10.7120 C   0  0  0  0  0  0  0  0  0  0  0  0
   27.6255  -20.7907  -10.7959 C   0  0  0  0  0  0  0  0  0  0  0  0
   28.5038  -20.7555  -11.8373 C   0  0  0  0  0  0  0  0  0  0  0  0
   29.7613  -20.7330  -11.3328 N   0  0  0  0  0  0  0  0  0  0  0  0
   29.6680  -20.7531   -9.9974 C   0  0  0  0  0  0  0  0  0  0  0  0
   28.3830  -20.7879   -9.6611 N   0  0  0  0  0  0  0  0  0  0  0  0
   23.9554  -20.5118  -11.7939 C   0  0  0  0  0  0  0  0  0  0  0  0
   23.4970  -19.4548  -11.2989 O   0  0  0  0  0  0  0  0  0  0  0  0
   23.0273  -21.5122  -12.1745 N   0  0  0  0  0  0  0  0  0  0  0  0
   21.6940  -21.1649  -12.5617 C   0  0  1  0  0  0  0  0  0  0  0  0
   21.6196  -20.0888  -13.6181 C   0  0  0  0  0  0  0  0  0  0  0  0
   20.2373  -19.6589  -13.9803 C   0  0  0  0  0  0  0  0  0  0  0  0
   20.3434  -18.6487  -15.0545 C   0  0  0  0  0  0  0  0  0  0  0  0
   19.7145  -17.5771  -14.9250 O   0  0  0  0  0  0  0  0  0  0  0  0
   20.9154  -22.3436  -13.0118 C   0  0  0  0  0  0  0  0  0  0  0  0
   19.6655  -22.2631  -13.0247 O   0  0  0  0  0  0  0  0  0  0  0  0
   21.1040  -18.8373  -16.1891 O   0  0  0  0  0  0  0  0  0  0  0  0
   21.4981  -23.5278  -13.4174 O   0  0  0  0  0  0  0  0  0  0  0  0
  2  1  1  0
  3  2  1  0
  3  4  1  0
  5  4  1  0
  5  6  1  1
  7  5  1  0
  7  8  2  0
  9  7  1  0
 10  9  1  0
 10 11  1  1
 12 11  1  0
 12 16  1  0
 13 12  2  0
 14 13  1  0
 14 15  1  0
 15 16  2  0
 17 10  1  0
 18 17  2  0
 19 17  1  0
 20 19  1  0
 20 25  1  0
 20 21  1  6
 22 21  1  0
 22 23  1  0
 23 24  2  0
 25 28  1  0
 26 25  2  0
 27 23  1  0
M  END
$$$$
