MHE.pdb
     RDKit          3D

 28 28  0  0  1  0  0  0  0  0999 V2000
   23.0149  -12.4132  -21.6037 C   0  0  0  0  0  0  0  0  0  0  0  0
   21.5613  -11.8818  -20.7117 S   0  0  0  0  0  0  0  0  0  0  0  0
   21.6499  -12.0657  -18.9408 C   0  0  0  0  0  0  0  0  0  0  0  0
   20.3767  -11.6751  -18.2231 C   0  0  0  0  0  0  0  0  0  0  0  0
   20.6395  -10.4953  -17.2862 C   0  0  2  0  0  0  0  0  0  0  0  0
   21.6486  -10.8153  -16.3134 N   0  0  0  0  0  0  0  0  0  0  0  0
   19.3668  -10.0600  -16.6824 C   0  0  0  0  0  0  0  0  0  0  0  0
   18.4122   -9.8145  -17.4587 O   0  0  0  0  0  0  0  0  0  0  0  0
   19.1953   -9.9126  -15.2486 N   0  0  0  0  0  0  0  0  0  0  0  0
   17.9545   -9.3893  -14.7878 C   0  0  1  0  0  0  0  0  0  0  0  0
   17.3264  -10.2540  -13.7616 C   0  0  0  0  0  0  0  0  0  0  0  0
   16.6418  -11.4582  -14.2343 C   0  0  0  0  0  0  0  0  0  0  0  0
   16.5117  -12.0422  -15.4587 C   0  0  0  0  0  0  0  0  0  0  0  0
   15.7832  -13.1757  -15.3142 N   0  0  0  0  0  0  0  0  0  0  0  0
   15.4648  -13.2965  -14.0195 C   0  0  0  0  0  0  0  0  0  0  0  0
   15.9778  -12.2652  -13.3572 N   0  0  0  0  0  0  0  0  0  0  0  0
   18.1004   -7.9739  -14.3411 C   0  0  0  0  0  0  0  0  0  0  0  0
   18.9808   -7.6072  -13.5270 O   0  0  0  0  0  0  0  0  0  0  0  0
   17.2197   -6.9839  -14.8423 N   0  0  0  0  0  0  0  0  0  0  0  0
   17.3601   -5.6139  -14.4528 C   0  0  1  0  0  0  0  0  0  0  0  0
   17.4941   -4.6546  -15.6109 C   0  0  0  0  0  0  0  0  0  0  0  0
   18.7018   -4.8628  -16.4623 C   0  0  0  0  0  0  0  0  0  0  0  0
   18.3518   -4.4811  -17.8470 C   0  0  0  0  0  0  0  0  0  0  0  0
   17.2583   -4.8686  -18.3104 O   0  0  0  0  0  0  0  0  0  0  0  0
   16.2542   -5.1643  -13.5737 C   0  0  0  0  0  0  0  0  0  0  0  0
   15.2909   -5.9417  -13.3824 O   0  0  0  0  0  0  0  0  0  0  0  0
   19.1768   -3.7184  -18.6462 O   0  0  0  0  0  0  0  0  0  0  0  0
   16.2309   -3.9304  -12.9548 O   0  0  0  0  0  0  0  0  0  0  0  0
  2  1  1  0
  3  2  1  0
  3  4  1  0
  5  4  1  0
  5  6  1  1
  7  5  1  0
  7  8  2  0
  9  7  1  0
 10  9  1  0
 10 11  1  1
 12 11  1  0
 12 16  1  0
 13 12  2  0
 14 13  1  0
 14 15  1  0
 15 16  2  0
 17 10  1  0
 18 17  2  0
 19 17  1  0
 20 19  1  0
 20 25  1  0
 20 21  1  6
 22 21  1  0
 22 23  1  0
 23 24  2  0
 25 28  1  0
 26 25  2  0
 27 23  1  0
M  END
$$$$
