MHE.pdb
     RDKit          3D

 28 28  0  0  1  0  0  0  0  0999 V2000
   31.9415  -22.5524   -9.0994 C   0  0  0  0  0  0  0  0  0  0  0  0
   30.3270  -21.8996   -9.4972 S   0  0  0  0  0  0  0  0  0  0  0  0
   30.0172  -21.6520  -11.2352 C   0  0  0  0  0  0  0  0  0  0  0  0
   28.6603  -21.0531  -11.5331 C   0  0  0  0  0  0  0  0  0  0  0  0
   28.4258  -21.0021  -13.0435 C   0  0  2  0  0  0  0  0  0  0  0  0
   29.6020  -20.5570  -13.7402 N   0  0  0  0  0  0  0  0  0  0  0  0
   27.2364  -20.1772  -13.3242 C   0  0  0  0  0  0  0  0  0  0  0  0
   27.2284  -19.0036  -12.8807 O   0  0  0  0  0  0  0  0  0  0  0  0
   26.1036  -20.6765  -14.0820 N   0  0  0  0  0  0  0  0  0  0  0  0
   25.0513  -19.7615  -14.3664 C   0  0  1  0  0  0  0  0  0  0  0  0
   25.0588  -19.3183  -15.7803 C   0  0  0  0  0  0  0  0  0  0  0  0
   26.1811  -18.4828  -16.2100 C   0  0  0  0  0  0  0  0  0  0  0  0
   27.2380  -17.9246  -15.5552 C   0  0  0  0  0  0  0  0  0  0  0  0
   27.9978  -17.2620  -16.4608 N   0  0  0  0  0  0  0  0  0  0  0  0
   27.4235  -17.4057  -17.6616 C   0  0  0  0  0  0  0  0  0  0  0  0
   26.3256  -18.1411  -17.5229 N   0  0  0  0  0  0  0  0  0  0  0  0
   23.7317  -20.3094  -13.9390 C   0  0  0  0  0  0  0  0  0  0  0  0
   23.5513  -21.5247  -13.6884 O   0  0  0  0  0  0  0  0  0  0  0  0
   22.6203  -19.4414  -13.8036 N   0  0  0  0  0  0  0  0  0  0  0  0
   21.3180  -19.9591  -13.5133 C   0  0  1  0  0  0  0  0  0  0  0  0
   20.2665  -18.8973  -13.2984 C   0  0  0  0  0  0  0  0  0  0  0  0
   19.6927  -18.3195  -14.5489 C   0  0  0  0  0  0  0  0  0  0  0  0
   18.4699  -17.5730  -14.1841 C   0  0  0  0  0  0  0  0  0  0  0  0
   18.1528  -17.5078  -12.9775 O   0  0  0  0  0  0  0  0  0  0  0  0
   20.8471  -20.9076  -14.5509 C   0  0  0  0  0  0  0  0  0  0  0  0
   21.2378  -20.7441  -15.7297 O   0  0  0  0  0  0  0  0  0  0  0  0
   17.6673  -16.9475  -15.1146 O   0  0  0  0  0  0  0  0  0  0  0  0
   19.9979  -21.9631  -14.2845 O   0  0  0  0  0  0  0  0  0  0  0  0
  2  1  1  0
  3  2  1  0
  3  4  1  0
  5  4  1  0
  5  6  1  6
  7  5  1  0
  7  8  2  0
  9  7  1  0
 10  9  1  0
 10 11  1  6
 12 11  1  0
 12 16  1  0
 13 12  2  0
 14 13  1  0
 14 15  1  0
 15 16  2  0
 17 10  1  0
 18 17  2  0
 19 17  1  0
 20 19  1  0
 20 25  1  0
 20 21  1  6
 22 21  1  0
 22 23  1  0
 23 24  2  0
 25 28  1  0
 26 25  2  0
 27 23  1  0
M  END
$$$$
