MHE.pdb
     RDKit          3D

 28 28  0  0  1  0  0  0  0  0999 V2000
   28.8159   -6.2298  -22.7803 C   0  0  0  0  0  0  0  0  0  0  0  0
   27.4406   -7.2315  -22.2362 S   0  0  0  0  0  0  0  0  0  0  0  0
   26.9479   -6.9851  -20.5408 C   0  0  0  0  0  0  0  0  0  0  0  0
   25.8209   -7.8909  -20.0959 C   0  0  0  0  0  0  0  0  0  0  0  0
   25.4540   -7.6009  -18.6398 C   0  0  2  0  0  0  0  0  0  0  0  0
   26.6182   -7.6085  -17.7962 N   0  0  0  0  0  0  0  0  0  0  0  0
   24.4123   -8.5481  -18.2021 C   0  0  0  0  0  0  0  0  0  0  0  0
   23.3515   -8.5910  -18.8707 O   0  0  0  0  0  0  0  0  0  0  0  0
   24.5798   -9.4104  -17.0466 N   0  0  0  0  0  0  0  0  0  0  0  0
   23.4688  -10.2122  -16.6613 C   0  0  1  0  0  0  0  0  0  0  0  0
   23.8860  -11.4618  -15.9832 C   0  0  0  0  0  0  0  0  0  0  0  0
   22.8237  -12.3703  -15.5491 C   0  0  0  0  0  0  0  0  0  0  0  0
   21.4631  -12.3142  -15.6030 C   0  0  0  0  0  0  0  0  0  0  0  0
   20.9687  -13.4591  -15.0726 N   0  0  0  0  0  0  0  0  0  0  0  0
   22.0055  -14.2172  -14.6946 C   0  0  0  0  0  0  0  0  0  0  0  0
   23.1310  -13.5703  -14.9773 N   0  0  0  0  0  0  0  0  0  0  0  0
   22.4858   -9.4224  -15.8650 C   0  0  0  0  0  0  0  0  0  0  0  0
   22.8247   -8.6818  -14.9116 O   0  0  0  0  0  0  0  0  0  0  0  0
   21.1062   -9.4953  -16.1785 N   0  0  0  0  0  0  0  0  0  0  0  0
   20.1425   -8.7598  -15.4178 C   0  0  1  0  0  0  0  0  0  0  0  0
   20.3417   -7.2637  -15.4525 C   0  0  0  0  0  0  0  0  0  0  0  0
   20.0226   -6.6179  -16.7595 C   0  0  0  0  0  0  0  0  0  0  0  0
   20.2861   -5.1693  -16.6258 C   0  0  0  0  0  0  0  0  0  0  0  0
   21.2588   -4.6843  -17.2415 O   0  0  0  0  0  0  0  0  0  0  0  0
   18.7509   -9.0752  -15.8202 C   0  0  0  0  0  0  0  0  0  0  0  0
   18.5685   -9.7356  -16.8687 O   0  0  0  0  0  0  0  0  0  0  0  0
   19.5073   -4.3334  -15.8539 O   0  0  0  0  0  0  0  0  0  0  0  0
   17.6437   -8.6770  -15.0979 O   0  0  0  0  0  0  0  0  0  0  0  0
  2  1  1  0
  3  2  1  0
  3  4  1  0
  5  4  1  0
  5  6  1  1
  7  5  1  0
  7  8  2  0
  9  7  1  0
 10  9  1  0
 10 11  1  1
 12 11  1  0
 12 16  1  0
 13 12  2  0
 14 13  1  0
 14 15  1  0
 15 16  2  0
 17 10  1  0
 18 17  2  0
 19 17  1  0
 20 19  1  0
 20 25  1  0
 20 21  1  6
 22 21  1  0
 22 23  1  0
 23 24  2  0
 25 28  1  0
 26 25  2  0
 27 23  1  0
M  END
$$$$
