MHE.pdb
     RDKit          3D

 28 28  0  0  1  0  0  0  0  0999 V2000
   24.4308  -13.7863  -20.8726 C   0  0  0  0  0  0  0  0  0  0  0  0
   25.6803  -13.7738  -19.5962 S   0  0  0  0  0  0  0  0  0  0  0  0
   25.0604  -13.6358  -17.9305 C   0  0  0  0  0  0  0  0  0  0  0  0
   23.9707  -12.5987  -17.7698 C   0  0  0  0  0  0  0  0  0  0  0  0
   24.3733  -11.5693  -16.7129 C   0  0  2  0  0  0  0  0  0  0  0  0
   24.6993  -12.2027  -15.4641 N   0  0  0  0  0  0  0  0  0  0  0  0
   23.3100  -10.5553  -16.5907 C   0  0  0  0  0  0  0  0  0  0  0  0
   23.0261   -9.8883  -17.6148 O   0  0  0  0  0  0  0  0  0  0  0  0
   22.6013  -10.3161  -15.3468 N   0  0  0  0  0  0  0  0  0  0  0  0
   21.5752   -9.3298  -15.3567 C   0  0  1  0  0  0  0  0  0  0  0  0
   20.3864   -9.7479  -14.5775 C   0  0  0  0  0  0  0  0  0  0  0  0
   19.5076  -10.7464  -15.1882 C   0  0  0  0  0  0  0  0  0  0  0  0
   19.5347  -11.4183  -16.3735 C   0  0  0  0  0  0  0  0  0  0  0  0
   18.4713  -12.2575  -16.4113 N   0  0  0  0  0  0  0  0  0  0  0  0
   17.7924  -12.1112  -15.2667 C   0  0  0  0  0  0  0  0  0  0  0  0
   18.4086  -11.2013  -14.5198 N   0  0  0  0  0  0  0  0  0  0  0  0
   22.1035   -7.9998  -14.9372 C   0  0  0  0  0  0  0  0  0  0  0  0
   23.0434   -7.8716  -14.1170 O   0  0  0  0  0  0  0  0  0  0  0  0
   21.5366   -6.8170  -15.4725 N   0  0  0  0  0  0  0  0  0  0  0  0
   22.0373   -5.5300  -15.0971 C   0  0  1  0  0  0  0  0  0  0  0  0
   21.5726   -4.4037  -15.9888 C   0  0  0  0  0  0  0  0  0  0  0  0
   22.0383   -3.0462  -15.5801 C   0  0  0  0  0  0  0  0  0  0  0  0
   21.4670   -2.0663  -16.5283 C   0  0  0  0  0  0  0  0  0  0  0  0
   20.8001   -2.4948  -17.4939 O   0  0  0  0  0  0  0  0  0  0  0  0
   21.7239   -5.1955  -13.6871 C   0  0  0  0  0  0  0  0  0  0  0  0
   20.6596   -5.6335  -13.1928 O   0  0  0  0  0  0  0  0  0  0  0  0
   21.6374   -0.7047  -16.3935 O   0  0  0  0  0  0  0  0  0  0  0  0
   22.5456   -4.4239  -12.8898 O   0  0  0  0  0  0  0  0  0  0  0  0
  2  1  1  0
  3  2  1  0
  3  4  1  0
  5  4  1  0
  5  6  1  1
  7  5  1  0
  7  8  2  0
  9  7  1  0
 10  9  1  0
 10 11  1  1
 12 11  1  0
 12 16  1  0
 13 12  2  0
 14 13  1  0
 14 15  1  0
 15 16  2  0
 17 10  1  0
 18 17  2  0
 19 17  1  0
 20 19  1  0
 20 25  1  0
 20 21  1  6
 22 21  1  0
 22 23  1  0
 23 24  2  0
 25 28  1  0
 26 25  2  0
 27 23  1  0
M  END
$$$$
