MHE.pdb
     RDKit          3D

 28 28  0  0  1  0  0  0  0  0999 V2000
   30.0848  -25.7786  -17.4527 C   0  0  0  0  0  0  0  0  0  0  0  0
   30.3782  -24.4459  -18.6055 S   0  0  0  0  0  0  0  0  0  0  0  0
   29.6902  -22.8706  -18.1334 C   0  0  0  0  0  0  0  0  0  0  0  0
   28.2825  -22.9598  -17.5863 C   0  0  0  0  0  0  0  0  0  0  0  0
   27.7817  -21.5705  -17.1888 C   0  0  2  0  0  0  0  0  0  0  0  0
   28.8740  -20.6535  -17.0071 N   0  0  0  0  0  0  0  0  0  0  0  0
   26.9159  -21.6864  -16.0010 C   0  0  0  0  0  0  0  0  0  0  0  0
   25.9303  -22.4592  -16.0767 O   0  0  0  0  0  0  0  0  0  0  0  0
   27.1694  -20.9478  -14.7775 N   0  0  0  0  0  0  0  0  0  0  0  0
   26.2409  -21.1089  -13.7109 C   0  0  1  0  0  0  0  0  0  0  0  0
   26.8284  -20.7580  -12.3967 C   0  0  0  0  0  0  0  0  0  0  0  0
   25.9373  -20.8010  -11.2363 C   0  0  0  0  0  0  0  0  0  0  0  0
   24.6181  -21.1044  -11.0791 C   0  0  0  0  0  0  0  0  0  0  0  0
   24.3134  -21.0083   -9.7621 N   0  0  0  0  0  0  0  0  0  0  0  0
   25.4260  -20.6512   -9.1087 C   0  0  0  0  0  0  0  0  0  0  0  0
   26.4135  -20.5231   -9.9884 N   0  0  0  0  0  0  0  0  0  0  0  0
   24.9699  -20.3802  -13.9895 C   0  0  0  0  0  0  0  0  0  0  0  0
   24.9332  -19.1518  -14.2386 O   0  0  0  0  0  0  0  0  0  0  0  0
   23.7395  -21.0823  -13.9774 N   0  0  0  0  0  0  0  0  0  0  0  0
   22.5035  -20.3977  -14.2051 C   0  0  1  0  0  0  0  0  0  0  0  0
   21.8953  -20.6588  -15.5621 C   0  0  0  0  0  0  0  0  0  0  0  0
   21.4959  -22.0752  -15.8093 C   0  0  0  0  0  0  0  0  0  0  0  0
   20.9623  -22.1624  -17.1853 C   0  0  0  0  0  0  0  0  0  0  0  0
   21.7735  -22.1965  -18.1347 O   0  0  0  0  0  0  0  0  0  0  0  0
   21.4978  -20.6916  -13.1562 C   0  0  0  0  0  0  0  0  0  0  0  0
   21.6898  -21.6751  -12.4048 O   0  0  0  0  0  0  0  0  0  0  0  0
   19.6130  -22.2078  -17.4651 O   0  0  0  0  0  0  0  0  0  0  0  0
   20.3579  -19.9362  -12.9653 O   0  0  0  0  0  0  0  0  0  0  0  0
  2  1  1  0
  3  2  1  0
  3  4  1  0
  5  4  1  0
  5  6  1  1
  7  5  1  0
  7  8  2  0
  9  7  1  0
 10  9  1  0
 10 11  1  1
 12 11  1  0
 12 16  1  0
 13 12  2  0
 14 13  1  0
 14 15  1  0
 15 16  2  0
 17 10  1  0
 18 17  2  0
 19 17  1  0
 20 19  1  0
 20 25  1  0
 20 21  1  6
 22 21  1  0
 22 23  1  0
 23 24  2  0
 25 28  1  0
 26 25  2  0
 27 23  1  0
M  END
$$$$
