MHE.pdb
     RDKit          3D

 28 28  0  0  1  0  0  0  0  0999 V2000
   35.0113  -35.4931   -1.7966 C   0  0  0  0  0  0  0  0  0  0  0  0
   34.9769  -35.8776   -3.5407 S   0  0  0  0  0  0  0  0  0  0  0  0
   33.3718  -35.7696   -4.3087 C   0  0  0  0  0  0  0  0  0  0  0  0
   32.4043  -34.8677   -3.5745 C   0  0  0  0  0  0  0  0  0  0  0  0
   31.0274  -34.9192   -4.2380 C   0  0  2  0  0  0  0  0  0  0  0  0
   31.0620  -34.3514   -5.5584 N   0  0  0  0  0  0  0  0  0  0  0  0
   30.0367  -34.2773   -3.3546 C   0  0  0  0  0  0  0  0  0  0  0  0
   29.9246  -33.0294   -3.4213 O   0  0  0  0  0  0  0  0  0  0  0  0
   29.2087  -35.0341   -2.4335 N   0  0  0  0  0  0  0  0  0  0  0  0
   28.2383  -34.3137   -1.6817 C   0  0  1  0  0  0  0  0  0  0  0  0
   26.8527  -34.6492   -2.0850 C   0  0  0  0  0  0  0  0  0  0  0  0
   26.3206  -33.9702   -3.2675 C   0  0  0  0  0  0  0  0  0  0  0  0
   26.8392  -33.0567   -4.1357 C   0  0  0  0  0  0  0  0  0  0  0  0
   25.9040  -32.7876   -5.0789 N   0  0  0  0  0  0  0  0  0  0  0  0
   24.8196  -33.5226   -4.8029 C   0  0  0  0  0  0  0  0  0  0  0  0
   25.0592  -34.2410   -3.7111 N   0  0  0  0  0  0  0  0  0  0  0  0
   28.4684  -34.4701   -0.2166 C   0  0  0  0  0  0  0  0  0  0  0  0
   29.1785  -35.3849    0.2644 O   0  0  0  0  0  0  0  0  0  0  0  0
   27.8703  -33.5608    0.6903 N   0  0  0  0  0  0  0  0  0  0  0  0
   28.0910  -33.6799    2.0993 C   0  0  1  0  0  0  0  0  0  0  0  0
   27.5145  -32.5453    2.9116 C   0  0  0  0  0  0  0  0  0  0  0  0
   27.8387  -32.5873    4.3676 C   0  0  0  0  0  0  0  0  0  0  0  0
   27.2282  -31.4000    5.0025 C   0  0  0  0  0  0  0  0  0  0  0  0
   26.5295  -30.6430    4.2958 O   0  0  0  0  0  0  0  0  0  0  0  0
   27.5917  -34.9675    2.6386 C   0  0  0  0  0  0  0  0  0  0  0  0
   26.5211  -35.4302    2.1819 O   0  0  0  0  0  0  0  0  0  0  0  0
   27.3957  -31.0931    6.3363 O   0  0  0  0  0  0  0  0  0  0  0  0
   28.2467  -35.6836    3.6207 O   0  0  0  0  0  0  0  0  0  0  0  0
  2  1  1  0
  3  2  1  0
  3  4  1  0
  5  4  1  0
  5  6  1  6
  7  5  1  0
  7  8  2  0
  9  7  1  0
 10  9  1  0
 10 11  1  1
 12 11  1  0
 12 16  1  0
 13 12  2  0
 14 13  1  0
 14 15  1  0
 15 16  2  0
 17 10  1  0
 18 17  2  0
 19 17  1  0
 20 19  1  0
 20 25  1  0
 20 21  1  1
 22 21  1  0
 22 23  1  0
 23 24  2  0
 25 28  1  0
 26 25  2  0
 27 23  1  0
M  END
$$$$
