MHE.pdb
     RDKit          3D

 28 28  0  0  1  0  0  0  0  0999 V2000
   23.4730  -14.1825  -22.1192 C   0  0  0  0  0  0  0  0  0  0  0  0
   23.2106  -12.6846  -23.0563 S   0  0  0  0  0  0  0  0  0  0  0  0
   23.5616  -11.1720  -22.1808 C   0  0  0  0  0  0  0  0  0  0  0  0
   22.8141  -11.0376  -20.8724 C   0  0  0  0  0  0  0  0  0  0  0  0
   23.2155   -9.7421  -20.1658 C   0  0  2  0  0  0  0  0  0  0  0  0
   24.6439   -9.5798  -20.1437 N   0  0  0  0  0  0  0  0  0  0  0  0
   22.6057   -9.7101  -18.8238 C   0  0  0  0  0  0  0  0  0  0  0  0
   21.4149  -10.0916  -18.7202 O   0  0  0  0  0  0  0  0  0  0  0  0
   23.3305   -9.2602  -17.6495 N   0  0  0  0  0  0  0  0  0  0  0  0
   22.6561   -9.3270  -16.3980 C   0  0  1  0  0  0  0  0  0  0  0  0
   23.4728   -9.9893  -15.3542 C   0  0  0  0  0  0  0  0  0  0  0  0
   23.8303  -11.3909  -15.5783 C   0  0  0  0  0  0  0  0  0  0  0  0
   23.6081  -12.2620  -16.6026 C   0  0  0  0  0  0  0  0  0  0  0  0
   24.1949  -13.4432  -16.2913 N   0  0  0  0  0  0  0  0  0  0  0  0
   24.7744  -13.3099  -15.0918 C   0  0  0  0  0  0  0  0  0  0  0  0
   24.5611  -12.0747  -14.6512 N   0  0  0  0  0  0  0  0  0  0  0  0
   22.1628   -7.9829  -15.9804 C   0  0  0  0  0  0  0  0  0  0  0  0
   22.8538   -6.9425  -16.0919 O   0  0  0  0  0  0  0  0  0  0  0  0
   20.8637   -7.8499  -15.4314 N   0  0  0  0  0  0  0  0  0  0  0  0
   20.3249   -6.5588  -15.1296 C   0  0  1  0  0  0  0  0  0  0  0  0
   20.3723   -5.5862  -16.2833 C   0  0  0  0  0  0  0  0  0  0  0  0
   19.5016   -5.9429  -17.4416 C   0  0  0  0  0  0  0  0  0  0  0  0
   19.5781   -4.8399  -18.4230 C   0  0  0  0  0  0  0  0  0  0  0  0
   20.1148   -3.7684  -18.0701 O   0  0  0  0  0  0  0  0  0  0  0  0
   18.9367   -6.6364  -14.6150 C   0  0  0  0  0  0  0  0  0  0  0  0
   18.3617   -7.7491  -14.6161 O   0  0  0  0  0  0  0  0  0  0  0  0
   19.0846   -4.9422  -19.7064 O   0  0  0  0  0  0  0  0  0  0  0  0
   18.2435   -5.5432  -14.1347 O   0  0  0  0  0  0  0  0  0  0  0  0
  2  1  1  0
  3  2  1  0
  3  4  1  0
  5  4  1  0
  5  6  1  1
  7  5  1  0
  7  8  2  0
  9  7  1  0
 10  9  1  0
 10 11  1  1
 12 11  1  0
 12 16  1  0
 13 12  2  0
 14 13  1  0
 14 15  1  0
 15 16  2  0
 17 10  1  0
 18 17  2  0
 19 17  1  0
 20 19  1  0
 20 25  1  0
 20 21  1  6
 22 21  1  0
 22 23  1  0
 23 24  2  0
 25 28  1  0
 26 25  2  0
 27 23  1  0
M  END
$$$$
