SIH.pdb
     RDKit          3D

 25 25  0  0  1  0  0  0  0  0999 V2000
   23.9905   -3.2868  -15.8663 O   0  0  0  0  0  0  0  0  0  0  0  0
   23.5497   -4.5029  -16.3795 C   0  0  0  0  0  0  0  0  0  0  0  0
   24.6975   -5.3023  -16.9830 C   0  0  2  0  0  0  0  0  0  0  0  0
   25.0198   -4.7846  -18.2886 N   0  0  0  0  0  0  0  0  0  0  0  0
   24.2645   -6.7091  -17.1174 C   0  0  0  0  0  0  0  0  0  0  0  0
   23.6969   -7.1138  -18.1867 O   0  0  0  0  0  0  0  0  0  0  0  0
   27.0367  -11.1011  -15.3278 C   0  0  0  0  0  0  0  0  0  0  0  0
   26.2441  -10.0967  -16.1390 C   0  0  0  0  0  0  0  0  0  0  0  0
   24.8593  -10.0337  -15.5501 C   0  0  2  0  0  0  0  0  0  0  0  0
   24.2160  -11.3798  -15.6098 C   0  0  0  0  0  0  0  0  0  0  0  0
   23.9810   -9.0266  -16.2524 C   0  0  2  0  0  0  0  0  0  0  0  0
   24.4406   -7.6839  -16.1024 N   0  0  0  0  0  0  0  0  0  0  0  0
   22.5760   -9.1277  -15.8511 C   0  0  0  0  0  0  0  0  0  0  0  0
   22.2354   -8.8654  -14.6819 O   0  0  0  0  0  0  0  0  0  0  0  0
   21.5963   -9.5236  -16.7870 N   0  0  0  0  0  0  0  0  0  0  0  0
   20.1965   -9.6765  -16.4151 C   0  0  1  0  0  0  0  0  0  0  0  0
   19.2859   -9.1661  -17.4905 C   0  0  0  0  0  0  0  0  0  0  0  0
   17.8795   -9.4000  -17.0988 C   0  0  0  0  0  0  0  0  0  0  0  0
   17.2952   -9.0713  -15.8650 C   0  0  0  0  0  0  0  0  0  0  0  0
   16.0034   -9.4300  -15.8670 N   0  0  0  0  0  0  0  0  0  0  0  0
   15.7302   -9.9782  -17.0554 C   0  0  0  0  0  0  0  0  0  0  0  0
   16.8580   -9.9556  -17.7844 N   0  0  0  0  0  0  0  0  0  0  0  0
   19.9263  -11.0946  -16.1546 C   0  0  0  0  0  0  0  0  0  0  0  0
   20.5849  -11.9724  -16.8117 O   0  0  0  0  0  0  0  0  0  0  0  0
   19.0143  -11.5831  -15.2510 O   0  0  0  0  0  0  0  0  0  0  0  0
  1  2  1  0
  3  4  1  6
  3  2  1  0
  5  3  1  0
  6  5  2  0
  7  8  1  0
  8  9  1  0
  9 10  1  6
 11  9  1  0
 11 12  1  1
 12  5  1  0
 13 15  1  0
 13 11  1  0
 14 13  2  0
 16 15  1  0
 16 17  1  6
 18 17  1  0
 18 19  2  0
 20 19  1  0
 21 20  1  0
 22 21  2  0
 22 18  1  0
 23 16  1  0
 24 23  2  0
 25 23  1  0
M  END
$$$$
