SIH.pdb
     RDKit          3D

 25 25  0  0  1  0  0  0  0  0999 V2000
   25.9316  -20.8006  -17.9441 O   0  0  0  0  0  0  0  0  0  0  0  0
   27.0929  -20.2649  -17.3955 C   0  0  0  0  0  0  0  0  0  0  0  0
   27.7359  -21.2260  -16.4036 C   0  0  2  0  0  0  0  0  0  0  0  0
   28.2157  -22.3945  -17.0970 N   0  0  0  0  0  0  0  0  0  0  0  0
   26.7099  -21.6369  -15.4222 C   0  0  0  0  0  0  0  0  0  0  0  0
   26.3255  -22.8522  -15.3561 O   0  0  0  0  0  0  0  0  0  0  0  0
   25.5905  -21.1488   -9.6683 C   0  0  0  0  0  0  0  0  0  0  0  0
   24.9340  -21.4907  -10.9901 C   0  0  0  0  0  0  0  0  0  0  0  0
   25.8096  -20.9391  -12.0845 C   0  0  2  0  0  0  0  0  0  0  0  0
   26.0023  -19.4707  -11.8946 C   0  0  0  0  0  0  0  0  0  0  0  0
   25.2424  -21.1967  -13.4596 C   0  0  2  0  0  0  0  0  0  0  0  0
   26.0952  -20.7420  -14.5097 N   0  0  0  0  0  0  0  0  0  0  0  0
   23.8963  -20.6440  -13.6264 C   0  0  0  0  0  0  0  0  0  0  0  0
   23.7342  -19.4184  -13.7800 O   0  0  0  0  0  0  0  0  0  0  0  0
   22.7715  -21.4965  -13.6142 N   0  0  0  0  0  0  0  0  0  0  0  0
   21.4285  -20.9997  -13.8801 C   0  0  1  0  0  0  0  0  0  0  0  0
   21.0763  -19.8614  -12.9710 C   0  0  0  0  0  0  0  0  0  0  0  0
   20.7710  -20.3832  -11.6217 C   0  0  0  0  0  0  0  0  0  0  0  0
   20.8647  -21.7218  -11.2079 C   0  0  0  0  0  0  0  0  0  0  0  0
   20.5098  -21.8220   -9.9190 N   0  0  0  0  0  0  0  0  0  0  0  0
   20.1902  -20.5991   -9.4835 C   0  0  0  0  0  0  0  0  0  0  0  0
   20.3496  -19.7462  -10.5088 N   0  0  0  0  0  0  0  0  0  0  0  0
   21.3491  -20.5715  -15.2809 C   0  0  0  0  0  0  0  0  0  0  0  0
   22.4335  -20.2759  -15.8914 O   0  0  0  0  0  0  0  0  0  0  0  0
   20.1962  -20.4558  -16.0186 O   0  0  0  0  0  0  0  0  0  0  0  0
  1  2  1  0
  3  4  1  6
  3  2  1  0
  5  3  1  0
  6  5  2  0
  7  8  1  0
  8  9  1  0
  9 10  1  1
 11  9  1  0
 11 12  1  6
 12  5  1  0
 13 15  1  0
 13 11  1  0
 14 13  2  0
 16 15  1  0
 16 17  1  1
 18 17  1  0
 18 19  2  0
 20 19  1  0
 21 20  1  0
 22 21  2  0
 22 18  1  0
 23 16  1  0
 24 23  2  0
 25 23  1  0
M  END
$$$$
