SIH.pdb
     RDKit          3D

 25 25  0  0  1  0  0  0  0  0999 V2000
   21.9866  -15.9606  -18.3235 O   0  0  0  0  0  0  0  0  0  0  0  0
   22.0823  -14.8406  -17.5032 C   0  0  0  0  0  0  0  0  0  0  0  0
   23.5347  -14.4500  -17.2600 C   0  0  2  0  0  0  0  0  0  0  0  0
   24.2421  -15.5513  -16.6576 N   0  0  0  0  0  0  0  0  0  0  0  0
   23.5579  -13.2991  -16.3329 C   0  0  0  0  0  0  0  0  0  0  0  0
   23.2936  -13.4585  -15.0943 O   0  0  0  0  0  0  0  0  0  0  0  0
   27.2260   -9.2356  -16.5904 C   0  0  0  0  0  0  0  0  0  0  0  0
   25.8428   -9.7675  -16.9044 C   0  0  0  0  0  0  0  0  0  0  0  0
   25.2616  -10.2985  -15.6203 C   0  0  2  0  0  0  0  0  0  0  0  0
   26.1664  -11.3341  -15.0387 C   0  0  0  0  0  0  0  0  0  0  0  0
   23.8844  -10.8864  -15.8121 C   0  0  2  0  0  0  0  0  0  0  0  0
   23.8653  -11.9744  -16.7354 N   0  0  0  0  0  0  0  0  0  0  0  0
   22.8909   -9.8807  -16.1951 C   0  0  0  0  0  0  0  0  0  0  0  0
   22.7369   -9.5729  -17.3924 O   0  0  0  0  0  0  0  0  0  0  0  0
   22.0998   -9.2519  -15.2098 N   0  0  0  0  0  0  0  0  0  0  0  0
   21.1263   -8.2229  -15.5481 C   0  0  1  0  0  0  0  0  0  0  0  0
   19.9016   -8.3252  -14.6903 C   0  0  0  0  0  0  0  0  0  0  0  0
   18.9204   -7.3003  -15.1062 C   0  0  0  0  0  0  0  0  0  0  0  0
   18.3561   -7.1609  -16.3844 C   0  0  0  0  0  0  0  0  0  0  0  0
   17.5078   -6.1228  -16.3930 N   0  0  0  0  0  0  0  0  0  0  0  0
   17.5021   -5.5855  -15.1688 C   0  0  0  0  0  0  0  0  0  0  0  0
   18.3497   -6.2964  -14.4071 N   0  0  0  0  0  0  0  0  0  0  0  0
   21.7506   -6.9057  -15.3832 C   0  0  0  0  0  0  0  0  0  0  0  0
   22.5849   -6.7407  -14.4277 O   0  0  0  0  0  0  0  0  0  0  0  0
   21.5223   -5.8067  -16.1749 O   0  0  0  0  0  0  0  0  0  0  0  0
  1  2  1  0
  3  4  1  1
  3  2  1  0
  5  3  1  0
  6  5  2  0
  7  8  1  0
  8  9  1  0
  9 10  1  6
 11  9  1  0
 11 12  1  6
 12  5  1  0
 13 15  1  0
 13 11  1  0
 14 13  2  0
 16 15  1  0
 16 17  1  1
 18 17  1  0
 18 19  2  0
 20 19  1  0
 21 20  1  0
 22 21  2  0
 22 18  1  0
 23 16  1  0
 24 23  2  0
 25 23  1  0
M  END
$$$$
