SIH.pdb
     RDKit          3D

 25 25  0  0  1  0  0  0  0  0999 V2000
   26.8770  -18.7582  -15.9591 O   0  0  0  0  0  0  0  0  0  0  0  0
   27.8280  -18.9810  -14.9678 C   0  0  0  0  0  0  0  0  0  0  0  0
   27.9248  -20.4586  -14.6099 C   0  0  2  0  0  0  0  0  0  0  0  0
   28.1439  -21.2367  -15.8028 N   0  0  0  0  0  0  0  0  0  0  0  0
   26.6465  -20.8727  -13.9941 C   0  0  0  0  0  0  0  0  0  0  0  0
   25.8736  -21.6930  -14.5932 O   0  0  0  0  0  0  0  0  0  0  0  0
   26.5251  -20.6782   -8.6823 C   0  0  0  0  0  0  0  0  0  0  0  0
   26.2264  -21.4246   -9.9662 C   0  0  0  0  0  0  0  0  0  0  0  0
   25.0342  -20.7626  -10.6059 C   0  0  2  0  0  0  0  0  0  0  0  0
   23.7720  -21.3223  -10.0376 C   0  0  0  0  0  0  0  0  0  0  0  0
   25.0233  -20.9239  -12.1068 C   0  0  2  0  0  0  0  0  0  0  0  0
   26.1966  -20.4058  -12.7327 N   0  0  0  0  0  0  0  0  0  0  0  0
   23.8255  -20.3521  -12.7261 C   0  0  0  0  0  0  0  0  0  0  0  0
   23.6625  -19.1174  -12.7581 O   0  0  0  0  0  0  0  0  0  0  0  0
   22.8459  -21.1962  -13.2917 N   0  0  0  0  0  0  0  0  0  0  0  0
   21.6548  -20.6642  -13.9391 C   0  0  1  0  0  0  0  0  0  0  0  0
   21.0610  -21.6562  -14.8928 C   0  0  0  0  0  0  0  0  0  0  0  0
   21.6099  -21.4290  -16.2468 C   0  0  0  0  0  0  0  0  0  0  0  0
   22.4852  -20.3986  -16.6262 C   0  0  0  0  0  0  0  0  0  0  0  0
   22.7707  -20.5062  -17.9317 N   0  0  0  0  0  0  0  0  0  0  0  0
   22.1132  -21.5670  -18.4109 C   0  0  0  0  0  0  0  0  0  0  0  0
   21.4223  -22.1117  -17.3960 N   0  0  0  0  0  0  0  0  0  0  0  0
   20.6747  -20.3043  -12.9086 C   0  0  0  0  0  0  0  0  0  0  0  0
   20.6128  -21.0181  -11.8490 O   0  0  0  0  0  0  0  0  0  0  0  0
   19.7972  -19.2494  -12.9717 O   0  0  0  0  0  0  0  0  0  0  0  0
  1  2  1  0
  3  4  1  6
  3  2  1  0
  5  3  1  0
  6  5  2  0
  7  8  1  0
  8  9  1  0
  9 10  1  1
 11  9  1  0
 11 12  1  6
 12  5  1  0
 13 15  1  0
 13 11  1  0
 14 13  2  0
 16 15  1  0
 16 17  1  6
 18 17  1  0
 18 19  2  0
 20 19  1  0
 21 20  1  0
 22 21  2  0
 22 18  1  0
 23 16  1  0
 24 23  2  0
 25 23  1  0
M  END
$$$$
