SIH.pdb
     RDKit          3D

 25 25  0  0  1  0  0  0  0  0999 V2000
   28.4023  -18.1644  -16.0218 O   0  0  0  0  0  0  0  0  0  0  0  0
   27.4639  -19.1170  -15.6364 C   0  0  0  0  0  0  0  0  0  0  0  0
   28.0809  -20.1712  -14.7259 C   0  0  2  0  0  0  0  0  0  0  0  0
   28.7416  -21.1759  -15.5199 N   0  0  0  0  0  0  0  0  0  0  0  0
   26.9962  -20.8083  -13.9501 C   0  0  0  0  0  0  0  0  0  0  0  0
   26.3804  -21.8267  -14.4116 O   0  0  0  0  0  0  0  0  0  0  0  0
   26.7689  -20.5245   -8.4784 C   0  0  0  0  0  0  0  0  0  0  0  0
   26.6842  -21.1772   -9.8428 C   0  0  0  0  0  0  0  0  0  0  0  0
   25.4471  -20.6483  -10.5198 C   0  0  2  0  0  0  0  0  0  0  0  0
   24.2286  -21.2538   -9.9048 C   0  0  0  0  0  0  0  0  0  0  0  0
   25.4451  -20.9165  -12.0054 C   0  0  2  0  0  0  0  0  0  0  0  0
   26.5710  -20.3518  -12.6764 N   0  0  0  0  0  0  0  0  0  0  0  0
   24.2033  -20.4884  -12.6535 C   0  0  0  0  0  0  0  0  0  0  0  0
   23.9124  -19.2788  -12.7182 O   0  0  0  0  0  0  0  0  0  0  0  0
   23.3261  -21.4438  -13.2101 N   0  0  0  0  0  0  0  0  0  0  0  0
   22.1196  -21.0533  -13.9262 C   0  0  1  0  0  0  0  0  0  0  0  0
   21.7164  -22.0937  -14.9268 C   0  0  0  0  0  0  0  0  0  0  0  0
   20.5254  -21.6289  -15.6696 C   0  0  0  0  0  0  0  0  0  0  0  0
   19.8621  -20.4039  -15.4933 C   0  0  0  0  0  0  0  0  0  0  0  0
   18.8252  -20.3257  -16.3394 N   0  0  0  0  0  0  0  0  0  0  0  0
   18.7927  -21.4537  -17.0563 C   0  0  0  0  0  0  0  0  0  0  0  0
   19.8130  -22.2261  -16.6485 N   0  0  0  0  0  0  0  0  0  0  0  0
   21.0400  -20.8391  -12.9564 C   0  0  0  0  0  0  0  0  0  0  0  0
   21.0098  -21.5675  -11.9055 O   0  0  0  0  0  0  0  0  0  0  0  0
   20.0354  -19.9091  -13.0692 O   0  0  0  0  0  0  0  0  0  0  0  0
  1  2  1  0
  3  4  1  6
  3  2  1  0
  5  3  1  0
  6  5  2  0
  7  8  1  0
  8  9  1  0
  9 10  1  1
 11  9  1  0
 11 12  1  6
 12  5  1  0
 13 15  1  0
 13 11  1  0
 14 13  2  0
 16 15  1  0
 16 17  1  6
 18 17  1  0
 18 19  2  0
 20 19  1  0
 21 20  1  0
 22 21  2  0
 22 18  1  0
 23 16  1  0
 24 23  2  0
 25 23  1  0
M  END
$$$$
