SIH.pdb
     RDKit          3D

 25 25  0  0  1  0  0  0  0  0999 V2000
   16.6796  -20.5876  -12.7398 O   0  0  0  0  0  0  0  0  0  0  0  0
   17.1737  -20.7265  -14.0333 C   0  0  0  0  0  0  0  0  0  0  0  0
   18.6840  -20.9263  -14.0348 C   0  0  2  0  0  0  0  0  0  0  0  0
   19.1103  -21.4372  -12.7567 N   0  0  0  0  0  0  0  0  0  0  0  0
   19.3264  -19.6156  -14.2670 C   0  0  0  0  0  0  0  0  0  0  0  0
   19.2037  -18.6731  -13.4150 O   0  0  0  0  0  0  0  0  0  0  0  0
   23.4835  -20.0710  -15.7426 C   0  0  0  0  0  0  0  0  0  0  0  0
   23.0155  -18.7760  -15.1110 C   0  0  0  0  0  0  0  0  0  0  0  0
   22.1107  -18.0920  -16.1020 C   0  0  2  0  0  0  0  0  0  0  0  0
   22.6049  -16.7100  -16.3770 C   0  0  0  0  0  0  0  0  0  0  0  0
   20.6799  -18.0273  -15.6252 C   0  0  2  0  0  0  0  0  0  0  0  0
   20.1022  -19.3154  -15.4156 N   0  0  0  0  0  0  0  0  0  0  0  0
   19.8273  -17.2286  -16.5086 C   0  0  0  0  0  0  0  0  0  0  0  0
   19.3507  -17.7299  -17.5447 O   0  0  0  0  0  0  0  0  0  0  0  0
   19.5389  -15.8836  -16.1925 N   0  0  0  0  0  0  0  0  0  0  0  0
   18.6537  -15.0735  -17.0179 C   0  0  1  0  0  0  0  0  0  0  0  0
   17.4823  -14.5684  -16.2313 C   0  0  0  0  0  0  0  0  0  0  0  0
   17.8962  -13.4008  -15.4241 C   0  0  0  0  0  0  0  0  0  0  0  0
   18.6039  -13.4378  -14.2118 C   0  0  0  0  0  0  0  0  0  0  0  0
   18.8030  -12.1890  -13.7667 N   0  0  0  0  0  0  0  0  0  0  0  0
   18.2509  -11.3458  -14.6450 C   0  0  0  0  0  0  0  0  0  0  0  0
   17.7115  -12.0799  -15.6320 N   0  0  0  0  0  0  0  0  0  0  0  0
   19.4161  -13.9479  -17.5690 C   0  0  0  0  0  0  0  0  0  0  0  0
   20.5446  -13.6581  -17.0413 O   0  0  0  0  0  0  0  0  0  0  0  0
   19.0273  -13.1571  -18.6227 O   0  0  0  0  0  0  0  0  0  0  0  0
  1  2  1  0
  3  4  1  1
  3  2  1  0
  5  3  1  0
  6  5  2  0
  7  8  1  0
  8  9  1  0
  9 10  1  1
 11  9  1  0
 11 12  1  6
 12  5  1  0
 13 15  1  0
 13 11  1  0
 14 13  2  0
 16 15  1  0
 16 17  1  1
 18 17  1  0
 18 19  2  0
 20 19  1  0
 21 20  1  0
 22 21  2  0
 22 18  1  0
 23 16  1  0
 24 23  2  0
 25 23  1  0
M  END
$$$$
