SIH.pdb
     RDKit          3D

 25 25  0  0  1  0  0  0  0  0999 V2000
   20.6209  -13.8127  -20.4729 O   0  0  0  0  0  0  0  0  0  0  0  0
   20.9075  -12.8969  -19.4650 C   0  0  0  0  0  0  0  0  0  0  0  0
   22.0770  -13.3611  -18.6060 C   0  0  2  0  0  0  0  0  0  0  0  0
   21.7172  -14.5651  -17.9008 N   0  0  0  0  0  0  0  0  0  0  0  0
   22.3812  -12.3007  -17.6223 C   0  0  0  0  0  0  0  0  0  0  0  0
   21.6778  -12.1760  -16.5645 O   0  0  0  0  0  0  0  0  0  0  0  0
   27.2037  -11.5027  -15.6557 C   0  0  0  0  0  0  0  0  0  0  0  0
   25.7261  -11.6709  -15.9442 C   0  0  0  0  0  0  0  0  0  0  0  0
   25.2052  -10.3405  -16.4209 C   0  0  2  0  0  0  0  0  0  0  0  0
   25.4227   -9.3003  -15.3720 C   0  0  0  0  0  0  0  0  0  0  0  0
   23.7399  -10.3917  -16.7802 C   0  0  2  0  0  0  0  0  0  0  0  0
   23.4424  -11.3721  -17.7738 N   0  0  0  0  0  0  0  0  0  0  0  0
   23.2131   -9.0863  -17.1844 C   0  0  0  0  0  0  0  0  0  0  0  0
   23.6428   -8.5248  -18.2101 O   0  0  0  0  0  0  0  0  0  0  0  0
   22.2136   -8.4538  -16.4143 N   0  0  0  0  0  0  0  0  0  0  0  0
   21.6797   -7.1471  -16.7729 C   0  0  1  0  0  0  0  0  0  0  0  0
   20.1815   -7.1390  -16.7348 C   0  0  0  0  0  0  0  0  0  0  0  0
   19.6526   -7.7328  -17.9813 C   0  0  0  0  0  0  0  0  0  0  0  0
   20.4118   -8.2811  -19.0275 C   0  0  0  0  0  0  0  0  0  0  0  0
   19.5953   -8.7246  -19.9939 N   0  0  0  0  0  0  0  0  0  0  0  0
   18.3369   -8.4840  -19.6123 C   0  0  0  0  0  0  0  0  0  0  0  0
   18.3818   -7.8909  -18.4081 N   0  0  0  0  0  0  0  0  0  0  0  0
   22.2146   -6.1445  -15.8451 C   0  0  0  0  0  0  0  0  0  0  0  0
   22.3688   -6.4692  -14.6176 O   0  0  0  0  0  0  0  0  0  0  0  0
   22.5760   -4.8609  -16.1747 O   0  0  0  0  0  0  0  0  0  0  0  0
  1  2  1  0
  3  4  1  1
  3  2  1  0
  5  3  1  0
  6  5  2  0
  7  8  1  0
  8  9  1  0
  9 10  1  1
 11  9  1  0
 11 12  1  6
 12  5  1  0
 13 15  1  0
 13 11  1  0
 14 13  2  0
 16 15  1  0
 16 17  1  1
 18 17  1  0
 18 19  2  0
 20 19  1  0
 21 20  1  0
 22 21  2  0
 22 18  1  0
 23 16  1  0
 24 23  2  0
 25 23  1  0
M  END
$$$$
