DAE.pdb
     RDKit          3D

 23 22  0  0  1  0  0  0  0  0999 V2000
   18.8907  -11.9950  -17.0926 N   0  0  0  0  0  0  0  0  0  0  0  0
   18.3588  -11.1233  -16.0948 C   0  0  1  0  0  0  0  0  0  0  0  0
   17.5267  -11.9483  -15.1360 C   0  0  0  0  0  0  0  0  0  0  0  0
   16.2660  -12.3001  -15.8387 C   0  0  0  0  0  0  0  0  0  0  0  0
   16.1494  -11.9510  -17.0334 O   0  0  0  0  0  0  0  0  0  0  0  0
   19.3804  -10.3838  -15.3365 C   0  0  0  0  0  0  0  0  0  0  0  0
   19.1087   -9.6602  -14.3392 O   0  0  0  0  0  0  0  0  0  0  0  0
   15.2435  -12.9876  -15.2193 O   0  0  0  0  0  0  0  0  0  0  0  0
   23.1716  -10.0478  -15.3314 C   0  0  0  0  0  0  0  0  0  0  0  0
   21.7502   -9.6497  -15.0057 C   0  0  2  0  0  0  0  0  0  0  0  0
   20.7762  -10.4370  -15.6863 N   0  0  0  0  0  0  0  0  0  0  0  0
   21.5237   -8.2114  -15.2819 C   0  0  0  0  0  0  0  0  0  0  0  0
   21.0577   -7.8282  -16.4142 O   0  0  0  0  0  0  0  0  0  0  0  0
   21.8327   -7.2686  -14.2694 N   0  0  0  0  0  0  0  0  0  0  0  0
   21.6391   -5.8435  -14.4510 C   0  0  1  0  0  0  0  0  0  0  0  0
   20.1854   -5.6056  -14.6991 C   0  0  0  0  0  0  0  0  0  0  0  0
   19.7580   -4.1919  -14.8536 C   0  0  0  0  0  0  0  0  0  0  0  0
   18.3022   -3.9992  -15.0562 C   0  0  0  0  0  0  0  0  0  0  0  0
   17.8844   -3.3551  -16.0527 O   0  0  0  0  0  0  0  0  0  0  0  0
   22.2213   -5.0482  -13.3692 C   0  0  0  0  0  0  0  0  0  0  0  0
   22.5781   -5.4634  -12.2589 O   0  0  0  0  0  0  0  0  0  0  0  0
   17.3283   -4.4912  -14.2009 O   0  0  0  0  0  0  0  0  0  0  0  0
   22.3993   -3.6756  -13.5976 O   0  0  0  0  0  0  0  0  0  0  0  0
  2  1  1  6
  2  3  1  0
  3  4  1  0
  4  8  1  0
  4  5  2  0
  6  2  1  0
  7  6  2  0
 10  9  1  6
 10 11  1  0
 11  6  1  0
 12 10  1  0
 12 14  1  0
 13 12  2  0
 15 14  1  0
 15 16  1  1
 15 20  1  0
 16 17  1  0
 17 18  1  0
 18 22  1  0
 19 18  2  0
 20 21  2  0
 20 23  1  0
M  END
$$$$
