DAE.pdb
     RDKit          3D

 23 22  0  0  1  0  0  0  0  0999 V2000
   14.4002   -8.5735   -7.7176 N   0  0  0  0  0  0  0  0  0  0  0  0
   14.5277   -7.7954   -8.9079 C   0  0  1  0  0  0  0  0  0  0  0  0
   14.9085   -6.3835   -8.5154 C   0  0  0  0  0  0  0  0  0  0  0  0
   13.7064   -5.7566   -7.9084 C   0  0  0  0  0  0  0  0  0  0  0  0
   13.8425   -5.1878   -6.8034 O   0  0  0  0  0  0  0  0  0  0  0  0
   15.5184   -8.3163   -9.8632 C   0  0  0  0  0  0  0  0  0  0  0  0
   16.7551   -8.3617   -9.6171 O   0  0  0  0  0  0  0  0  0  0  0  0
   12.4708   -5.7855   -8.5201 O   0  0  0  0  0  0  0  0  0  0  0  0
   15.4797  -10.3917  -13.0069 C   0  0  0  0  0  0  0  0  0  0  0  0
   16.0897   -9.3947  -12.0483 C   0  0  2  0  0  0  0  0  0  0  0  0
   15.1380   -8.8155  -11.1591 N   0  0  0  0  0  0  0  0  0  0  0  0
   16.8158   -8.3294  -12.7792 C   0  0  0  0  0  0  0  0  0  0  0  0
   16.2035   -7.2736  -13.1750 O   0  0  0  0  0  0  0  0  0  0  0  0
   18.2000   -8.5013  -13.0316 N   0  0  0  0  0  0  0  0  0  0  0  0
   18.9721   -7.5483  -13.8045 C   0  0  1  0  0  0  0  0  0  0  0  0
   20.1413   -7.1257  -12.9764 C   0  0  0  0  0  0  0  0  0  0  0  0
   21.1233   -6.2189  -13.6231 C   0  0  0  0  0  0  0  0  0  0  0  0
   22.2329   -5.7742  -12.7464 C   0  0  0  0  0  0  0  0  0  0  0  0
   22.6127   -4.5752  -12.7697 O   0  0  0  0  0  0  0  0  0  0  0  0
   19.3052   -8.0385  -15.1425 C   0  0  0  0  0  0  0  0  0  0  0  0
   19.5479   -9.2104  -15.4590 O   0  0  0  0  0  0  0  0  0  0  0  0
   22.9108   -6.6077  -11.8702 O   0  0  0  0  0  0  0  0  0  0  0  0
   19.3593   -7.0981  -16.1821 O   0  0  0  0  0  0  0  0  0  0  0  0
  2  1  1  1
  2  3  1  0
  3  4  1  0
  4  8  1  0
  4  5  2  0
  6  2  1  0
  7  6  2  0
 10  9  1  6
 10 11  1  0
 11  6  1  0
 12 10  1  0
 12 14  1  0
 13 12  2  0
 15 14  1  0
 15 16  1  1
 15 20  1  0
 16 17  1  0
 17 18  1  0
 18 22  1  0
 19 18  2  0
 20 21  2  0
 20 23  1  0
M  END
$$$$
