DAE.pdb
     RDKit          3D

 23 22  0  0  1  0  0  0  0  0999 V2000
   21.1185   -9.0607  -14.6655 N   0  0  0  0  0  0  0  0  0  0  0  0
   20.3667   -8.6489  -15.8073 C   0  0  1  0  0  0  0  0  0  0  0  0
   18.8980   -8.6595  -15.4397 C   0  0  0  0  0  0  0  0  0  0  0  0
   18.5232  -10.0708  -15.1671 C   0  0  0  0  0  0  0  0  0  0  0  0
   17.9162  -10.3158  -14.1019 O   0  0  0  0  0  0  0  0  0  0  0  0
   20.7288   -7.3165  -16.3165 C   0  0  0  0  0  0  0  0  0  0  0  0
   20.7360   -6.2817  -15.5948 O   0  0  0  0  0  0  0  0  0  0  0  0
   18.8215  -11.0952  -16.0408 O   0  0  0  0  0  0  0  0  0  0  0  0
   22.1059   -5.8585  -19.5516 C   0  0  0  0  0  0  0  0  0  0  0  0
   21.4998   -5.8185  -18.1674 C   0  0  2  0  0  0  0  0  0  0  0  0
   21.1038   -7.1019  -17.6901 N   0  0  0  0  0  0  0  0  0  0  0  0
   20.3531   -4.8813  -18.1154 C   0  0  0  0  0  0  0  0  0  0  0  0
   19.1479   -5.3216  -18.1127 O   0  0  0  0  0  0  0  0  0  0  0  0
   20.6154   -3.4890  -18.0687 N   0  0  0  0  0  0  0  0  0  0  0  0
   19.5584   -2.5036  -17.9543 C   0  0  1  0  0  0  0  0  0  0  0  0
   18.8030   -2.7845  -16.6966 C   0  0  0  0  0  0  0  0  0  0  0  0
   17.7615   -1.7992  -16.3102 C   0  0  0  0  0  0  0  0  0  0  0  0
   17.1119   -2.0587  -15.0033 C   0  0  0  0  0  0  0  0  0  0  0  0
   17.5103   -3.0067  -14.2786 O   0  0  0  0  0  0  0  0  0  0  0  0
   20.0443   -1.1301  -18.0916 C   0  0  0  0  0  0  0  0  0  0  0  0
   21.2222   -0.7548  -18.0256 O   0  0  0  0  0  0  0  0  0  0  0  0
   16.0596   -1.3107  -14.4981 O   0  0  0  0  0  0  0  0  0  0  0  0
   19.0920   -0.1259  -18.3213 O   0  0  0  0  0  0  0  0  0  0  0  0
  2  1  1  1
  2  3  1  0
  3  4  1  0
  4  8  1  0
  4  5  2  0
  6  2  1  0
  7  6  2  0
 10  9  1  6
 10 11  1  0
 11  6  1  0
 12 10  1  0
 12 14  1  0
 13 12  2  0
 15 14  1  0
 15 16  1  1
 15 20  1  0
 16 17  1  0
 17 18  1  0
 18 22  1  0
 19 18  2  0
 20 21  2  0
 20 23  1  0
M  END
$$$$
