DAE.pdb
     RDKit          3D

 23 22  0  0  1  0  0  0  0  0999 V2000
   26.5416  -35.7180   -7.5678 N   0  0  0  0  0  0  0  0  0  0  0  0
   25.5362  -35.1941   -6.7000 C   0  0  1  0  0  0  0  0  0  0  0  0
   24.4899  -36.2664   -6.4810 C   0  0  0  0  0  0  0  0  0  0  0  0
   23.8145  -36.4943   -7.7843 C   0  0  0  0  0  0  0  0  0  0  0  0
   23.3898  -37.6451   -8.0257 O   0  0  0  0  0  0  0  0  0  0  0  0
   26.0449  -34.7404   -5.3958 C   0  0  0  0  0  0  0  0  0  0  0  0
   26.9882  -35.3155   -4.7864 O   0  0  0  0  0  0  0  0  0  0  0  0
   23.6478  -35.4898   -8.7143 O   0  0  0  0  0  0  0  0  0  0  0  0
   25.4710  -31.7969   -3.0517 C   0  0  0  0  0  0  0  0  0  0  0  0
   25.9953  -33.1546   -3.4602 C   0  0  2  0  0  0  0  0  0  0  0  0
   25.4931  -33.5953   -4.7192 N   0  0  0  0  0  0  0  0  0  0  0  0
   25.7137  -34.1695   -2.4177 C   0  0  0  0  0  0  0  0  0  0  0  0
   24.6698  -34.9117   -2.4923 O   0  0  0  0  0  0  0  0  0  0  0  0
   26.6213  -34.3030   -1.3370 N   0  0  0  0  0  0  0  0  0  0  0  0
   26.3363  -35.1314   -0.1820 C   0  0  1  0  0  0  0  0  0  0  0  0
   27.5945  -35.2591    0.6130 C   0  0  0  0  0  0  0  0  0  0  0  0
   28.7895  -35.7674   -0.1072 C   0  0  0  0  0  0  0  0  0  0  0  0
   30.0583  -35.6860    0.6551 C   0  0  0  0  0  0  0  0  0  0  0  0
   30.1041  -35.0439    1.7359 O   0  0  0  0  0  0  0  0  0  0  0  0
   25.1701  -34.6720    0.5732 C   0  0  0  0  0  0  0  0  0  0  0  0
   24.7092  -33.5232    0.5911 O   0  0  0  0  0  0  0  0  0  0  0  0
   31.2432  -36.2843    0.2549 O   0  0  0  0  0  0  0  0  0  0  0  0
   24.4956  -35.6165    1.3614 O   0  0  0  0  0  0  0  0  0  0  0  0
  2  1  1  6
  2  3  1  0
  3  4  1  0
  4  8  1  0
  4  5  2  0
  6  2  1  0
  7  6  2  0
 10  9  1  1
 10 11  1  0
 11  6  1  0
 12 10  1  0
 12 14  1  0
 13 12  2  0
 15 14  1  0
 15 16  1  1
 15 20  1  0
 16 17  1  0
 17 18  1  0
 18 22  1  0
 19 18  2  0
 20 21  2  0
 20 23  1  0
M  END
$$$$
