DAE.pdb
     RDKit          3D

 23 22  0  0  1  0  0  0  0  0999 V2000
   16.4803  -13.8955  -15.5283 N   0  0  0  0  0  0  0  0  0  0  0  0
   16.4770  -12.5078  -15.8637 C   0  0  1  0  0  0  0  0  0  0  0  0
   15.3880  -11.8266  -15.0622 C   0  0  0  0  0  0  0  0  0  0  0  0
   14.1049  -12.0662  -15.7712 C   0  0  0  0  0  0  0  0  0  0  0  0
   13.2606  -11.1442  -15.7730 O   0  0  0  0  0  0  0  0  0  0  0  0
   17.7580  -11.8268  -15.6169 C   0  0  0  0  0  0  0  0  0  0  0  0
   18.0437  -11.2733  -14.5197 O   0  0  0  0  0  0  0  0  0  0  0  0
   13.8280  -13.2546  -16.4138 O   0  0  0  0  0  0  0  0  0  0  0  0
   21.1592  -11.6790  -17.2321 C   0  0  0  0  0  0  0  0  0  0  0  0
   20.0480  -11.1420  -16.3592 C   0  0  2  0  0  0  0  0  0  0  0  0
   18.7841  -11.7455  -16.6238 N   0  0  0  0  0  0  0  0  0  0  0  0
   19.9422   -9.6687  -16.4785 C   0  0  0  0  0  0  0  0  0  0  0  0
   19.1645   -9.1370  -17.3496 O   0  0  0  0  0  0  0  0  0  0  0  0
   20.7179   -8.8596  -15.6106 N   0  0  0  0  0  0  0  0  0  0  0  0
   20.7265   -7.4127  -15.6997 C   0  0  1  0  0  0  0  0  0  0  0  0
   21.3306   -6.8790  -14.4421 C   0  0  0  0  0  0  0  0  0  0  0  0
   21.4099   -5.4016  -14.3153 C   0  0  0  0  0  0  0  0  0  0  0  0
   21.9170   -4.9141  -13.0105 C   0  0  0  0  0  0  0  0  0  0  0  0
   22.0510   -3.6798  -12.8078 O   0  0  0  0  0  0  0  0  0  0  0  0
   21.3363   -6.9229  -16.9365 C   0  0  0  0  0  0  0  0  0  0  0  0
   22.3544   -7.3674  -17.4829 O   0  0  0  0  0  0  0  0  0  0  0  0
   22.2689   -5.7430  -11.9564 O   0  0  0  0  0  0  0  0  0  0  0  0
   20.7170   -5.8410  -17.5800 O   0  0  0  0  0  0  0  0  0  0  0  0
  2  1  1  1
  2  3  1  0
  3  4  1  0
  4  8  1  0
  4  5  2  0
  6  2  1  0
  7  6  2  0
 10  9  1  6
 10 11  1  0
 11  6  1  0
 12 10  1  0
 12 14  1  0
 13 12  2  0
 15 14  1  0
 15 16  1  1
 15 20  1  0
 16 17  1  0
 17 18  1  0
 18 22  1  0
 19 18  2  0
 20 21  2  0
 20 23  1  0
M  END
$$$$
