DAE.pdb
     RDKit          3D

 23 22  0  0  1  0  0  0  0  0999 V2000
   18.7110  -12.1747  -16.1136 N   0  0  0  0  0  0  0  0  0  0  0  0
   19.1689  -11.1110  -16.9485 C   0  0  1  0  0  0  0  0  0  0  0  0
   17.9629  -10.3407  -17.4431 C   0  0  0  0  0  0  0  0  0  0  0  0
   17.1801  -11.2587  -18.3098 C   0  0  0  0  0  0  0  0  0  0  0  0
   15.9908  -11.4818  -17.9958 O   0  0  0  0  0  0  0  0  0  0  0  0
   20.0973  -10.1825  -16.2840 C   0  0  0  0  0  0  0  0  0  0  0  0
   19.8016   -9.5447  -15.2363 O   0  0  0  0  0  0  0  0  0  0  0  0
   17.7209  -11.8578  -19.4280 O   0  0  0  0  0  0  0  0  0  0  0  0
   23.7196   -9.0841  -16.6866 C   0  0  0  0  0  0  0  0  0  0  0  0
   22.3009   -9.0012  -16.1713 C   0  0  2  0  0  0  0  0  0  0  0  0
   21.4222   -9.9364  -16.7916 N   0  0  0  0  0  0  0  0  0  0  0  0
   21.7627   -7.6277  -16.3129 C   0  0  0  0  0  0  0  0  0  0  0  0
   21.2309   -7.2439  -17.4157 O   0  0  0  0  0  0  0  0  0  0  0  0
   21.8478   -6.7473  -15.2051 N   0  0  0  0  0  0  0  0  0  0  0  0
   21.3369   -5.3914  -15.2504 C   0  0  1  0  0  0  0  0  0  0  0  0
   19.8459   -5.4604  -15.1903 C   0  0  0  0  0  0  0  0  0  0  0  0
   19.1199   -4.1659  -15.1465 C   0  0  0  0  0  0  0  0  0  0  0  0
   17.6419   -4.2798  -15.1390 C   0  0  0  0  0  0  0  0  0  0  0  0
   16.9947   -4.0158  -14.0930 O   0  0  0  0  0  0  0  0  0  0  0  0
   21.9573   -4.5166  -14.2549 C   0  0  0  0  0  0  0  0  0  0  0  0
   22.4762   -4.8668  -13.1868 O   0  0  0  0  0  0  0  0  0  0  0  0
   16.8885   -4.6698  -16.2355 O   0  0  0  0  0  0  0  0  0  0  0  0
   21.9736   -3.1396  -14.5228 O   0  0  0  0  0  0  0  0  0  0  0  0
  2  1  1  1
  2  3  1  0
  3  4  1  0
  4  8  1  0
  4  5  2  0
  6  2  1  0
  7  6  2  0
 10  9  1  6
 10 11  1  0
 11  6  1  0
 12 10  1  0
 12 14  1  0
 13 12  2  0
 15 14  1  0
 15 16  1  1
 15 20  1  0
 16 17  1  0
 17 18  1  0
 18 22  1  0
 19 18  2  0
 20 21  2  0
 20 23  1  0
M  END
$$$$
