DAE.pdb
     RDKit          3D

 23 22  0  0  1  0  0  0  0  0999 V2000
   16.3213  -10.8936  -14.6347 N   0  0  0  0  0  0  0  0  0  0  0  0
   17.0782  -10.2380  -13.6170 C   0  0  1  0  0  0  0  0  0  0  0  0
   18.0993   -9.3419  -14.2855 C   0  0  0  0  0  0  0  0  0  0  0  0
   19.0696  -10.2246  -14.9824 C   0  0  0  0  0  0  0  0  0  0  0  0
   19.9634  -10.7638  -14.2944 O   0  0  0  0  0  0  0  0  0  0  0  0
   16.2669   -9.4373  -12.6863 C   0  0  0  0  0  0  0  0  0  0  0  0
   15.5238   -8.4888  -13.0606 O   0  0  0  0  0  0  0  0  0  0  0  0
   19.0103  -10.4592  -16.3401 O   0  0  0  0  0  0  0  0  0  0  0  0
   15.2264   -9.5934   -9.0488 C   0  0  0  0  0  0  0  0  0  0  0  0
   15.4820   -8.9050  -10.3701 C   0  0  2  0  0  0  0  0  0  0  0  0
   16.2667   -9.6859  -11.2679 N   0  0  0  0  0  0  0  0  0  0  0  0
   16.1122   -7.5793  -10.1663 C   0  0  0  0  0  0  0  0  0  0  0  0
   17.3706   -7.4170  -10.3564 O   0  0  0  0  0  0  0  0  0  0  0  0
   15.2959   -6.4950   -9.7571 N   0  0  0  0  0  0  0  0  0  0  0  0
   15.8126   -5.1492   -9.6041 C   0  0  1  0  0  0  0  0  0  0  0  0
   16.2354   -4.6639  -10.9521 C   0  0  0  0  0  0  0  0  0  0  0  0
   16.6996   -3.2560  -11.0384 C   0  0  0  0  0  0  0  0  0  0  0  0
   17.1466   -2.8282  -12.3855 C   0  0  0  0  0  0  0  0  0  0  0  0
   17.5022   -1.6378  -12.5829 O   0  0  0  0  0  0  0  0  0  0  0  0
   14.8925   -4.2650   -8.8877 C   0  0  0  0  0  0  0  0  0  0  0  0
   13.6571   -4.3423   -8.8732 O   0  0  0  0  0  0  0  0  0  0  0  0
   17.2051   -3.6687  -13.4865 O   0  0  0  0  0  0  0  0  0  0  0  0
   15.4511   -3.2195   -8.1374 O   0  0  0  0  0  0  0  0  0  0  0  0
  2  1  1  6
  2  3  1  0
  3  4  1  0
  4  8  1  0
  4  5  2  0
  6  2  1  0
  7  6  2  0
 10  9  1  1
 10 11  1  0
 11  6  1  0
 12 10  1  0
 12 14  1  0
 13 12  2  0
 15 14  1  0
 15 16  1  6
 15 20  1  0
 16 17  1  0
 17 18  1  0
 18 22  1  0
 19 18  2  0
 20 21  2  0
 20 23  1  0
M  END
$$$$
