DAE.pdb
     RDKit          3D

 23 22  0  0  1  0  0  0  0  0999 V2000
   16.3789  -13.8243  -14.9716 N   0  0  0  0  0  0  0  0  0  0  0  0
   16.4861  -12.6531  -15.7810 C   0  0  1  0  0  0  0  0  0  0  0  0
   15.4363  -11.6617  -15.3258 C   0  0  0  0  0  0  0  0  0  0  0  0
   14.1369  -12.1063  -15.8920 C   0  0  0  0  0  0  0  0  0  0  0  0
   14.0495  -12.2105  -17.1348 O   0  0  0  0  0  0  0  0  0  0  0  0
   17.8096  -12.0113  -15.7371 C   0  0  0  0  0  0  0  0  0  0  0  0
   18.3574  -11.6347  -14.6647 O   0  0  0  0  0  0  0  0  0  0  0  0
   13.0483  -12.4006  -15.0982 O   0  0  0  0  0  0  0  0  0  0  0  0
   20.8060  -11.7385  -17.9551 C   0  0  0  0  0  0  0  0  0  0  0  0
   19.8885  -11.2090  -16.8767 C   0  0  2  0  0  0  0  0  0  0  0  0
   18.5779  -11.7669  -16.9302 N   0  0  0  0  0  0  0  0  0  0  0  0
   19.8129   -9.7297  -16.9215 C   0  0  0  0  0  0  0  0  0  0  0  0
   18.8714   -9.1419  -17.5651 O   0  0  0  0  0  0  0  0  0  0  0  0
   20.8021   -8.9782  -16.2387 N   0  0  0  0  0  0  0  0  0  0  0  0
   20.8242   -7.5288  -16.2550 C   0  0  1  0  0  0  0  0  0  0  0  0
   21.3019   -7.0619  -14.9189 C   0  0  0  0  0  0  0  0  0  0  0  0
   21.5004   -5.5994  -14.7555 C   0  0  0  0  0  0  0  0  0  0  0  0
   21.9626   -5.1792  -13.4112 C   0  0  0  0  0  0  0  0  0  0  0  0
   21.3566   -4.2661  -12.7934 O   0  0  0  0  0  0  0  0  0  0  0  0
   21.5557   -6.9842  -17.3995 C   0  0  0  0  0  0  0  0  0  0  0  0
   22.4738   -7.5377  -18.0187 O   0  0  0  0  0  0  0  0  0  0  0  0
   23.0517   -5.7339  -12.7569 O   0  0  0  0  0  0  0  0  0  0  0  0
   21.1921   -5.7073  -17.8528 O   0  0  0  0  0  0  0  0  0  0  0  0
  2  1  1  1
  2  3  1  0
  3  4  1  0
  4  8  1  0
  4  5  2  0
  6  2  1  0
  7  6  2  0
 10  9  1  6
 10 11  1  0
 11  6  1  0
 12 10  1  0
 12 14  1  0
 13 12  2  0
 15 14  1  0
 15 16  1  1
 15 20  1  0
 16 17  1  0
 17 18  1  0
 18 22  1  0
 19 18  2  0
 20 21  2  0
 20 23  1  0
M  END
$$$$
