TPV.pdb
     RDKit          3D

 22 22  0  0  1  0  0  0  0  0999 V2000
   10.6380  -19.2926   21.4820 C   0  0  0  0  0  0  0  0  0  0  0  0
   11.3711  -18.3035   20.6035 C   0  0  1  0  0  0  0  0  0  0  0  0
   11.7953  -18.8903   19.4339 O   0  0  0  0  0  0  0  0  0  0  0  0
   10.4728  -17.0879   20.3423 C   0  0  2  0  0  0  0  0  0  0  0  0
   11.0047  -16.3157   19.2923 N   0  0  0  0  0  0  0  0  0  0  0  0
   10.2580  -16.3196   21.5860 C   0  0  0  0  0  0  0  0  0  0  0  0
   11.3690  -16.1306   22.2282 O   0  0  0  0  0  0  0  0  0  0  0  0
    9.0845  -15.8102   22.1104 N   0  0  0  0  0  0  0  0  0  0  0  0
    7.9309  -15.3458   21.3369 C   0  0  0  0  0  0  0  0  0  0  0  0
    6.7908  -16.0871   22.0592 C   0  0  0  0  0  0  0  0  0  0  0  0
    7.3879  -16.5703   23.3880 C   0  0  0  0  0  0  0  0  0  0  0  0
    8.6226  -15.6436   23.4436 C   0  0  1  0  0  0  0  0  0  0  0  0
    9.4547  -15.8261   24.5836 C   0  0  0  0  0  0  0  0  0  0  0  0
   10.3637  -16.6525   24.7022 O   0  0  0  0  0  0  0  0  0  0  0  0
   10.5887  -14.0760   29.1298 C   0  0  0  0  0  0  0  0  0  0  0  0
    9.8161  -13.9119   27.8529 C   0  0  2  0  0  0  0  0  0  0  0  0
    8.3608  -13.6378   28.1266 C   0  0  0  0  0  0  0  0  0  0  0  0
    9.9803  -15.0958   26.9267 C   0  0  2  0  0  0  0  0  0  0  0  0
    9.2310  -14.9769   25.7154 N   0  0  0  0  0  0  0  0  0  0  0  0
    9.5334  -16.3255   27.6287 C   0  0  0  0  0  0  0  0  0  0  0  0
    8.3945  -16.8260   27.4388 O   0  0  0  0  0  0  0  0  0  0  0  0
   10.4277  -16.9164   28.5173 O   0  0  0  0  0  0  0  0  0  0  0  0
  2  3  1  0
  2  1  1  1
  4  2  1  0
  4  5  1  6
  6  4  1  0
  7  6  2  0
  8  6  1  0
  8 12  1  0
  9 10  1  0
  9  8  1  0
 10 11  1  0
 11 12  1  0
 12 13  1  1
 13 19  1  0
 13 14  2  0
 16 18  1  0
 16 15  1  1
 17 16  1  0
 18 20  1  0
 18 19  1  6
 20 22  1  0
 21 20  2  0
M  END
$$$$
