TPV.pdb
     RDKit          3D

 22 22  0  0  1  0  0  0  0  0999 V2000
   10.2057  -19.0926   19.6240 C   0  0  0  0  0  0  0  0  0  0  0  0
   10.1861  -18.3783   20.9569 C   0  0  1  0  0  0  0  0  0  0  0  0
   11.1663  -18.8555   21.7958 O   0  0  0  0  0  0  0  0  0  0  0  0
   10.3124  -16.8667   20.7290 C   0  0  2  0  0  0  0  0  0  0  0  0
   11.4753  -16.5896   19.9857 N   0  0  0  0  0  0  0  0  0  0  0  0
   10.2478  -16.1373   22.0123 C   0  0  0  0  0  0  0  0  0  0  0  0
   11.3898  -16.1507   22.6270 O   0  0  0  0  0  0  0  0  0  0  0  0
    9.1790  -15.4826   22.5959 N   0  0  0  0  0  0  0  0  0  0  0  0
    8.1798  -14.6762   21.8915 C   0  0  0  0  0  0  0  0  0  0  0  0
    6.8815  -15.2672   22.4712 C   0  0  0  0  0  0  0  0  0  0  0  0
    7.3071  -16.0616   23.7136 C   0  0  0  0  0  0  0  0  0  0  0  0
    8.6999  -15.4305   23.9325 C   0  0  1  0  0  0  0  0  0  0  0  0
    9.4250  -15.9541   25.0396 C   0  0  0  0  0  0  0  0  0  0  0  0
    9.8903  -17.0930   25.1377 O   0  0  0  0  0  0  0  0  0  0  0  0
    9.1135  -14.1518   29.0377 C   0  0  0  0  0  0  0  0  0  0  0  0
   10.4393  -14.4434   28.3962 C   0  0  2  0  0  0  0  0  0  0  0  0
   11.0644  -13.1908   27.8409 C   0  0  0  0  0  0  0  0  0  0  0  0
   10.3399  -15.5163   27.3354 C   0  0  2  0  0  0  0  0  0  0  0  0
    9.6468  -15.0900   26.1603 N   0  0  0  0  0  0  0  0  0  0  0  0
    9.6212  -16.6878   27.8973 C   0  0  0  0  0  0  0  0  0  0  0  0
    8.4312  -16.9533   27.5857 O   0  0  0  0  0  0  0  0  0  0  0  0
   10.3159  -17.4957   28.7935 O   0  0  0  0  0  0  0  0  0  0  0  0
  2  3  1  0
  2  1  1  6
  4  2  1  0
  4  5  1  1
  6  4  1  0
  7  6  2  0
  8  6  1  0
  8 12  1  0
  9 10  1  0
  9  8  1  0
 10 11  1  0
 11 12  1  0
 12 13  1  1
 13 19  1  0
 13 14  2  0
 16 18  1  0
 16 15  1  6
 17 16  1  0
 18 20  1  0
 18 19  1  6
 20 22  1  0
 21 20  2  0
M  END
$$$$
