TPV.pdb
     RDKit          3D

 22 22  0  0  1  0  0  0  0  0999 V2000
   10.6837  -14.4701   17.5228 C   0  0  0  0  0  0  0  0  0  0  0  0
   10.2236  -14.4633   18.9635 C   0  0  1  0  0  0  0  0  0  0  0  0
   11.0852  -13.7467   19.7614 O   0  0  0  0  0  0  0  0  0  0  0  0
    8.7895  -13.9246   19.0398 C   0  0  2  0  0  0  0  0  0  0  0  0
    8.7338  -12.6301   18.4896 N   0  0  0  0  0  0  0  0  0  0  0  0
    8.2766  -13.9973   20.4236 C   0  0  0  0  0  0  0  0  0  0  0  0
    8.8378  -13.1121   21.1877 O   0  0  0  0  0  0  0  0  0  0  0  0
    7.3271  -14.8449   20.9634 N   0  0  0  0  0  0  0  0  0  0  0  0
    6.2414  -15.4957   20.2268 C   0  0  0  0  0  0  0  0  0  0  0  0
    6.4035  -16.9482   20.7114 C   0  0  0  0  0  0  0  0  0  0  0  0
    7.3044  -16.8725   21.9517 C   0  0  0  0  0  0  0  0  0  0  0  0
    7.1423  -15.3699   22.2707 C   0  0  1  0  0  0  0  0  0  0  0  0
    7.8781  -14.9173   23.4018 C   0  0  0  0  0  0  0  0  0  0  0  0
    9.0823  -15.0907   23.6094 O   0  0  0  0  0  0  0  0  0  0  0  0
    7.7683  -12.0744   27.4904 C   0  0  0  0  0  0  0  0  0  0  0  0
    7.0632  -12.5740   26.2626 C   0  0  2  0  0  0  0  0  0  0  0  0
    5.6355  -12.9455   26.5659 C   0  0  0  0  0  0  0  0  0  0  0  0
    7.7956  -13.7236   25.6081 C   0  0  2  0  0  0  0  0  0  0  0  0
    7.1693  -14.1868   24.4097 N   0  0  0  0  0  0  0  0  0  0  0  0
    7.8659  -14.8590   26.5624 C   0  0  0  0  0  0  0  0  0  0  0  0
    7.0879  -15.8451   26.4850 O   0  0  0  0  0  0  0  0  0  0  0  0
    8.8345  -14.7974   27.5606 O   0  0  0  0  0  0  0  0  0  0  0  0
  2  3  1  0
  2  1  1  6
  4  2  1  0
  4  5  1  1
  6  4  1  0
  7  6  2  0
  8  6  1  0
  8 12  1  0
  9 10  1  0
  9  8  1  0
 10 11  1  0
 11 12  1  0
 12 13  1  1
 13 19  1  0
 13 14  2  0
 16 18  1  0
 16 15  1  1
 17 16  1  0
 18 20  1  0
 18 19  1  6
 20 22  1  0
 21 20  2  0
M  END
$$$$
