TPV.pdb
     RDKit          3D

 22 22  0  0  1  0  0  0  0  0999 V2000
    9.9578  -20.1696   20.9991 C   0  0  0  0  0  0  0  0  0  0  0  0
    9.5226  -18.8952   21.6877 C   0  0  1  0  0  0  0  0  0  0  0  0
    9.9617  -18.8545   22.9906 O   0  0  0  0  0  0  0  0  0  0  0  0
   10.0101  -17.6856   20.8802 C   0  0  2  0  0  0  0  0  0  0  0  0
   11.3798  -17.8256   20.5869 N   0  0  0  0  0  0  0  0  0  0  0  0
    9.6850  -16.4250   21.5791 C   0  0  0  0  0  0  0  0  0  0  0  0
   10.5276  -16.1774   22.5336 O   0  0  0  0  0  0  0  0  0  0  0  0
    8.6528  -15.5349   21.3472 N   0  0  0  0  0  0  0  0  0  0  0  0
    7.9310  -15.3701   20.0836 C   0  0  0  0  0  0  0  0  0  0  0  0
    6.4751  -15.4243   20.5819 C   0  0  0  0  0  0  0  0  0  0  0  0
    6.5501  -15.2223   22.1015 C   0  0  0  0  0  0  0  0  0  0  0  0
    7.9690  -14.6183   22.1904 C   0  0  1  0  0  0  0  0  0  0  0  0
    8.4017  -14.3029   23.5090 C   0  0  0  0  0  0  0  0  0  0  0  0
    9.5672  -14.2952   23.9152 O   0  0  0  0  0  0  0  0  0  0  0  0
    6.5116  -11.4227   25.6950 C   0  0  0  0  0  0  0  0  0  0  0  0
    6.7014  -12.6970   26.4659 C   0  0  2  0  0  0  0  0  0  0  0  0
    7.0553  -12.4182   27.9030 C   0  0  0  0  0  0  0  0  0  0  0  0
    7.7214  -13.6098   25.8234 C   0  0  2  0  0  0  0  0  0  0  0  0
    7.4014  -13.9579   24.4745 N   0  0  0  0  0  0  0  0  0  0  0  0
    7.8168  -14.8626   26.6146 C   0  0  0  0  0  0  0  0  0  0  0  0
    8.4141  -14.9093   27.7212 O   0  0  0  0  0  0  0  0  0  0  0  0
    7.2153  -16.0014   26.0855 O   0  0  0  0  0  0  0  0  0  0  0  0
  2  3  1  0
  2  1  1  6
  4  2  1  0
  4  5  1  1
  6  4  1  0
  7  6  2  0
  8  6  1  0
  8 12  1  0
  9 10  1  0
  9  8  1  0
 10 11  1  0
 11 12  1  0
 12 13  1  1
 13 19  1  0
 13 14  2  0
 16 18  1  0
 16 15  1  6
 17 16  1  0
 18 20  1  0
 18 19  1  6
 20 22  1  0
 21 20  2  0
M  END
$$$$
