TPV.pdb
     RDKit          3D

 22 22  0  0  1  0  0  0  0  0999 V2000
    6.0515  -14.7430   20.7411 C   0  0  0  0  0  0  0  0  0  0  0  0
    6.5657  -14.9782   22.1439 C   0  0  1  0  0  0  0  0  0  0  0  0
    6.9309  -16.2913   22.3302 O   0  0  0  0  0  0  0  0  0  0  0  0
    7.7236  -14.0145   22.4324 C   0  0  2  0  0  0  0  0  0  0  0  0
    8.7285  -14.1675   21.4586 N   0  0  0  0  0  0  0  0  0  0  0  0
    8.2147  -14.1865   23.8153 C   0  0  0  0  0  0  0  0  0  0  0  0
    8.9420  -15.2539   23.9343 O   0  0  0  0  0  0  0  0  0  0  0  0
    8.0032  -13.3911   24.9262 N   0  0  0  0  0  0  0  0  0  0  0  0
    7.7361  -11.9512   24.9108 C   0  0  0  0  0  0  0  0  0  0  0  0
    6.5051  -11.8834   25.8333 C   0  0  0  0  0  0  0  0  0  0  0  0
    6.4618  -13.2317   26.5654 C   0  0  0  0  0  0  0  0  0  0  0  0
    7.9170  -13.6846   26.3137 C   0  0  1  0  0  0  0  0  0  0  0  0
    8.2499  -14.9550   26.8621 C   0  0  0  0  0  0  0  0  0  0  0  0
    7.5035  -15.9342   26.9475 O   0  0  0  0  0  0  0  0  0  0  0  0
   12.4589  -15.9040   27.4473 C   0  0  0  0  0  0  0  0  0  0  0  0
   11.3221  -16.8615   27.2342 C   0  0  2  0  0  0  0  0  0  0  0  0
   11.1133  -17.1439   25.7697 C   0  0  0  0  0  0  0  0  0  0  0  0
   10.0418  -16.3856   27.8828 C   0  0  2  0  0  0  0  0  0  0  0  0
    9.5770  -15.1348   27.3705 N   0  0  0  0  0  0  0  0  0  0  0  0
   10.2660  -16.2333   29.3427 C   0  0  0  0  0  0  0  0  0  0  0  0
   10.2676  -15.1070   29.9039 O   0  0  0  0  0  0  0  0  0  0  0  0
   10.4777  -17.3937   30.0825 O   0  0  0  0  0  0  0  0  0  0  0  0
  2  3  1  0
  2  1  1  6
  4  2  1  0
  4  5  1  6
  6  4  1  0
  7  6  2  0
  8  6  1  0
  8 12  1  0
  9 10  1  0
  9  8  1  0
 10 11  1  0
 11 12  1  0
 12 13  1  6
 13 19  1  0
 13 14  2  0
 16 18  1  0
 16 15  1  6
 17 16  1  0
 18 20  1  0
 18 19  1  6
 20 22  1  0
 21 20  2  0
M  END
$$$$
