TPV.pdb
     RDKit          3D

 22 22  0  0  1  0  0  0  0  0999 V2000
    7.1856  -19.1526   19.4790 C   0  0  0  0  0  0  0  0  0  0  0  0
    7.4379  -18.2683   20.6797 C   0  0  1  0  0  0  0  0  0  0  0  0
    7.4511  -18.9981   21.8457 O   0  0  0  0  0  0  0  0  0  0  0  0
    8.7435  -17.4894   20.4759 C   0  0  2  0  0  0  0  0  0  0  0  0
    9.8045  -18.3849   20.2435 N   0  0  0  0  0  0  0  0  0  0  0  0
    8.9868  -16.5714   21.6078 C   0  0  0  0  0  0  0  0  0  0  0  0
    9.3631  -17.2131   22.6704 O   0  0  0  0  0  0  0  0  0  0  0  0
    8.8685  -15.1950   21.6616 N   0  0  0  0  0  0  0  0  0  0  0  0
    9.1612  -14.2664   20.5675 C   0  0  0  0  0  0  0  0  0  0  0  0
    7.8858  -13.4038   20.5816 C   0  0  0  0  0  0  0  0  0  0  0  0
    7.2031  -13.6965   21.9247 C   0  0  0  0  0  0  0  0  0  0  0  0
    8.4067  -14.3108   22.6732 C   0  0  1  0  0  0  0  0  0  0  0  0
    8.1306  -14.7291   24.0052 C   0  0  0  0  0  0  0  0  0  0  0  0
    7.2329  -15.4982   24.3602 O   0  0  0  0  0  0  0  0  0  0  0  0
    9.6534  -14.7496   28.7316 C   0  0  0  0  0  0  0  0  0  0  0  0
    9.9354  -14.3758   27.3051 C   0  0  2  0  0  0  0  0  0  0  0  0
   10.5669  -13.0117   27.2127 C   0  0  0  0  0  0  0  0  0  0  0  0
    8.7020  -14.4626   26.4347 C   0  0  2  0  0  0  0  0  0  0  0  0
    8.9654  -14.2183   25.0512 N   0  0  0  0  0  0  0  0  0  0  0  0
    7.7089  -13.4620   26.9006 C   0  0  0  0  0  0  0  0  0  0  0  0
    7.5962  -12.3314   26.3596 O   0  0  0  0  0  0  0  0  0  0  0  0
    6.8939  -13.8194   27.9714 O   0  0  0  0  0  0  0  0  0  0  0  0
  2  3  1  0
  2  1  1  6
  4  2  1  0
  4  5  1  1
  6  4  1  0
  7  6  2  0
  8  6  1  0
  8 12  1  0
  9 10  1  0
  9  8  1  0
 10 11  1  0
 11 12  1  0
 12 13  1  1
 13 19  1  0
 13 14  2  0
 16 18  1  0
 16 15  1  1
 17 16  1  0
 18 20  1  0
 18 19  1  6
 20 22  1  0
 21 20  2  0
M  END
$$$$
