AMW.pdb
     RDKit          3D

 28 29  0  0  1  0  0  0  0  0999 V2000
   24.3489  -18.8875  -15.6665 C   0  0  0  0  0  0  0  0  0  0  0  0
   24.1092  -19.0354  -14.1752 C   0  0  2  0  0  0  0  0  0  0  0  0
   24.5946  -17.8131  -13.5604 N   0  0  0  0  0  0  0  0  0  0  0  0
   24.8511  -20.2150  -13.6579 C   0  0  0  0  0  0  0  0  0  0  0  0
   24.6055  -21.3944  -14.0632 O   0  0  0  0  0  0  0  0  0  0  0  0
   30.8392  -19.3372  -12.3795 C   0  0  0  0  0  0  0  0  0  0  0  0
   30.2338  -20.1789  -13.8851 S   0  0  0  0  0  0  0  0  0  0  0  0
   28.4393  -20.3753  -13.7085 C   0  0  0  0  0  0  0  0  0  0  0  0
   28.0855  -20.9702  -12.3908 C   0  0  0  0  0  0  0  0  0  0  0  0
   26.6079  -21.1794  -12.1910 C   0  0  2  0  0  0  0  0  0  0  0  0
   25.8673  -20.0335  -12.6820 N   0  0  0  0  0  0  0  0  0  0  0  0
   26.2404  -21.4856  -10.8098 C   0  0  0  0  0  0  0  0  0  0  0  0
   26.6874  -22.4539  -10.1466 O   0  0  0  0  0  0  0  0  0  0  0  0
   25.3115  -20.6394  -10.1490 N   0  0  0  0  0  0  0  0  0  0  0  0
   24.8345  -20.9505   -8.7932 C   0  0  1  0  0  0  0  0  0  0  0  0
   24.9376  -19.7211   -7.9132 C   0  0  0  0  0  0  0  0  0  0  0  0
   26.3671  -19.4426   -7.6747 C   0  0  0  0  0  0  0  0  0  0  0  0
   27.2636  -18.8246   -8.5477 C   0  0  0  0  0  0  0  0  0  0  0  0
   28.4733  -18.7595   -7.9755 N   0  0  0  0  0  0  0  0  0  0  0  0
   28.4098  -19.3120   -6.7549 C   0  0  0  0  0  0  0  0  0  0  0  0
   29.3891  -19.4881   -5.7715 C   0  0  0  0  0  0  0  0  0  0  0  0
   29.0404  -20.0978   -4.5917 C   0  0  0  0  0  0  0  0  0  0  0  0
   27.7404  -20.5170   -4.4116 C   0  0  0  0  0  0  0  0  0  0  0  0
   26.7675  -20.3536   -5.3623 C   0  0  0  0  0  0  0  0  0  0  0  0
   27.1178  -19.7402   -6.5497 C   0  0  0  0  0  0  0  0  0  0  0  0
   23.4222  -21.3265   -8.9000 C   0  0  0  0  0  0  0  0  0  0  0  0
   22.8468  -21.2826  -10.0051 O   0  0  0  0  0  0  0  0  0  0  0  0
   22.7209  -21.7292   -7.7895 O   0  0  0  0  0  0  0  0  0  0  0  0
  2  1  1  6
  3  2  1  0
  4 11  1  0
  4  2  1  0
  5  4  2  0
  6  7  1  0
  8  7  1  0
  9  8  1  0
 10  9  1  1
 10 11  1  0
 12 10  1  0
 12 14  1  0
 13 12  2  0
 15 14  1  0
 15 16  1  1
 16 17  1  0
 17 25  1  0
 18 19  1  0
 18 17  2  0
 19 20  1  0
 20 25  2  0
 20 21  1  0
 21 22  2  0
 22 23  1  0
 24 23  2  0
 25 24  1  0
 26 15  1  0
 27 26  2  0
 28 26  1  0
M  END
$$$$
