AMW.pdb
     RDKit          3D

 28 29  0  0  1  0  0  0  0  0999 V2000
   28.9945  -18.2101  -14.3323 C   0  0  0  0  0  0  0  0  0  0  0  0
   28.1415  -19.1908  -15.1159 C   0  0  2  0  0  0  0  0  0  0  0  0
   27.7153  -18.4934  -16.3156 N   0  0  0  0  0  0  0  0  0  0  0  0
   26.9679  -19.6033  -14.3023 C   0  0  0  0  0  0  0  0  0  0  0  0
   25.9519  -18.8531  -14.1591 O   0  0  0  0  0  0  0  0  0  0  0  0
   23.4823  -24.3200  -15.3827 C   0  0  0  0  0  0  0  0  0  0  0  0
   23.3230  -24.5052  -13.5710 S   0  0  0  0  0  0  0  0  0  0  0  0
   23.9666  -22.9872  -12.8151 C   0  0  0  0  0  0  0  0  0  0  0  0
   25.2434  -22.5630  -13.4517 C   0  0  0  0  0  0  0  0  0  0  0  0
   25.8135  -21.2881  -12.8891 C   0  0  2  0  0  0  0  0  0  0  0  0
   26.9682  -20.8707  -13.6605 N   0  0  0  0  0  0  0  0  0  0  0  0
   26.1377  -21.3684  -11.4660 C   0  0  0  0  0  0  0  0  0  0  0  0
   27.0367  -22.0951  -10.9752 O   0  0  0  0  0  0  0  0  0  0  0  0
   25.3945  -20.5750  -10.5529 N   0  0  0  0  0  0  0  0  0  0  0  0
   25.5336  -20.7603   -9.1007 C   0  0  1  0  0  0  0  0  0  0  0  0
   26.2263  -19.5590   -8.4894 C   0  0  0  0  0  0  0  0  0  0  0  0
   27.5214  -20.0035   -7.9388 C   0  0  0  0  0  0  0  0  0  0  0  0
   28.5054  -20.7472   -8.5918 C   0  0  0  0  0  0  0  0  0  0  0  0
   29.5328  -20.9602   -7.7586 N   0  0  0  0  0  0  0  0  0  0  0  0
   29.2642  -20.3840   -6.5775 C   0  0  0  0  0  0  0  0  0  0  0  0
   30.0064  -20.3216   -5.3932 C   0  0  0  0  0  0  0  0  0  0  0  0
   29.4793  -19.6530   -4.3161 C   0  0  0  0  0  0  0  0  0  0  0  0
   28.2387  -19.0650   -4.4327 C   0  0  0  0  0  0  0  0  0  0  0  0
   27.4969  -19.1152   -5.5836 C   0  0  0  0  0  0  0  0  0  0  0  0
   28.0269  -19.7879   -6.6678 C   0  0  0  0  0  0  0  0  0  0  0  0
   24.1836  -20.8522   -8.5383 C   0  0  0  0  0  0  0  0  0  0  0  0
   23.2139  -20.3798   -9.1634 O   0  0  0  0  0  0  0  0  0  0  0  0
   23.9732  -21.4566   -7.3228 O   0  0  0  0  0  0  0  0  0  0  0  0
  2  1  1  1
  3  2  1  0
  4 11  1  0
  4  2  1  0
  5  4  2  0
  6  7  1  0
  8  7  1  0
  9  8  1  0
 10  9  1  6
 10 11  1  0
 12 10  1  0
 12 14  1  0
 13 12  2  0
 15 14  1  0
 15 16  1  1
 16 17  1  0
 17 25  1  0
 18 19  1  0
 18 17  2  0
 19 20  1  0
 20 25  2  0
 20 21  1  0
 21 22  2  0
 22 23  1  0
 24 23  2  0
 25 24  1  0
 26 15  1  0
 27 26  2  0
 28 26  1  0
M  END
$$$$
