AMW.pdb
     RDKit          3D

 28 29  0  0  1  0  0  0  0  0999 V2000
   26.0185  -19.2238  -16.3376 C   0  0  0  0  0  0  0  0  0  0  0  0
   24.7917  -19.9844  -15.8686 C   0  0  2  0  0  0  0  0  0  0  0  0
   23.7040  -19.5837  -16.7425 N   0  0  0  0  0  0  0  0  0  0  0  0
   24.4883  -19.6339  -14.4563 C   0  0  0  0  0  0  0  0  0  0  0  0
   24.6364  -18.4530  -14.0100 O   0  0  0  0  0  0  0  0  0  0  0  0
   19.8094  -21.7953  -10.7997 C   0  0  0  0  0  0  0  0  0  0  0  0
   19.6066  -20.3732  -11.9303 S   0  0  0  0  0  0  0  0  0  0  0  0
   21.2638  -19.8763  -12.4746 C   0  0  0  0  0  0  0  0  0  0  0  0
   22.3175  -20.7149  -11.8405 C   0  0  0  0  0  0  0  0  0  0  0  0
   23.7221  -20.2999  -12.1897 C   0  0  2  0  0  0  0  0  0  0  0  0
   24.0178  -20.6380  -13.5684 N   0  0  0  0  0  0  0  0  0  0  0  0
   24.7360  -20.8459  -11.2893 C   0  0  0  0  0  0  0  0  0  0  0  0
   25.2106  -22.0062  -11.3632 O   0  0  0  0  0  0  0  0  0  0  0  0
   25.2358  -20.0214  -10.2472 N   0  0  0  0  0  0  0  0  0  0  0  0
   26.2301  -20.5291   -9.2902 C   0  0  1  0  0  0  0  0  0  0  0  0
   27.0122  -19.3756   -8.6951 C   0  0  0  0  0  0  0  0  0  0  0  0
   28.0422  -19.9313   -7.7961 C   0  0  0  0  0  0  0  0  0  0  0  0
   28.9462  -20.9561   -8.0797 C   0  0  0  0  0  0  0  0  0  0  0  0
   29.7160  -21.1840   -7.0072 N   0  0  0  0  0  0  0  0  0  0  0  0
   29.3543  -20.3468   -6.0236 C   0  0  0  0  0  0  0  0  0  0  0  0
   29.8435  -20.1881   -4.7226 C   0  0  0  0  0  0  0  0  0  0  0  0
   29.2757  -19.2352   -3.9135 C   0  0  0  0  0  0  0  0  0  0  0  0
   28.2441  -18.4656   -4.4050 C   0  0  0  0  0  0  0  0  0  0  0  0
   27.7513  -18.6059   -5.6757 C   0  0  0  0  0  0  0  0  0  0  0  0
   28.3222  -19.5647   -6.4904 C   0  0  0  0  0  0  0  0  0  0  0  0
   25.4991  -21.1986   -8.2109 C   0  0  0  0  0  0  0  0  0  0  0  0
   24.3764  -20.7811   -7.8654 O   0  0  0  0  0  0  0  0  0  0  0  0
   26.0402  -22.2876   -7.5718 O   0  0  0  0  0  0  0  0  0  0  0  0
  2  1  1  6
  3  2  1  0
  4 11  1  0
  4  2  1  0
  5  4  2  0
  6  7  1  0
  8  7  1  0
  9  8  1  0
 10  9  1  1
 10 11  1  0
 12 10  1  0
 12 14  1  0
 13 12  2  0
 15 14  1  0
 15 16  1  1
 16 17  1  0
 17 25  1  0
 18 19  1  0
 18 17  2  0
 19 20  1  0
 20 25  2  0
 20 21  1  0
 21 22  2  0
 22 23  1  0
 24 23  2  0
 25 24  1  0
 26 15  1  0
 27 26  2  0
 28 26  1  0
M  END
$$$$
