AMW.pdb
     RDKit          3D

 28 29  0  0  1  0  0  0  0  0999 V2000
   27.5313  -24.1397  -16.1421 C   0  0  0  0  0  0  0  0  0  0  0  0
   27.3593  -22.7369  -16.6954 C   0  0  2  0  0  0  0  0  0  0  0  0
   28.5919  -22.4195  -17.3936 N   0  0  0  0  0  0  0  0  0  0  0  0
   27.1233  -21.7796  -15.5831 C   0  0  0  0  0  0  0  0  0  0  0  0
   28.0554  -21.0574  -15.1085 O   0  0  0  0  0  0  0  0  0  0  0  0
   21.7282  -19.0755  -15.9154 C   0  0  0  0  0  0  0  0  0  0  0  0
   22.9989  -17.8070  -15.5722 S   0  0  0  0  0  0  0  0  0  0  0  0
   24.5478  -18.6790  -15.2115 C   0  0  0  0  0  0  0  0  0  0  0  0
   24.3101  -19.8803  -14.3654 C   0  0  0  0  0  0  0  0  0  0  0  0
   25.5613  -20.6439  -14.0216 C   0  0  2  0  0  0  0  0  0  0  0  0
   25.8228  -21.6577  -15.0247 N   0  0  0  0  0  0  0  0  0  0  0  0
   25.5426  -21.2278  -12.6817 C   0  0  0  0  0  0  0  0  0  0  0  0
   24.9504  -22.2908  -12.3710 O   0  0  0  0  0  0  0  0  0  0  0  0
   26.2386  -20.5615  -11.6390 N   0  0  0  0  0  0  0  0  0  0  0  0
   26.1510  -21.0317  -10.2485 C   0  0  1  0  0  0  0  0  0  0  0  0
   27.2999  -20.4669   -9.4375 C   0  0  0  0  0  0  0  0  0  0  0  0
   26.9210  -20.5046   -8.0117 C   0  0  0  0  0  0  0  0  0  0  0  0
   25.7998  -21.1195   -7.4524 C   0  0  0  0  0  0  0  0  0  0  0  0
   25.7983  -20.9275   -6.1265 N   0  0  0  0  0  0  0  0  0  0  0  0
   26.8783  -20.2077   -5.7878 C   0  0  0  0  0  0  0  0  0  0  0  0
   27.3263  -19.7483   -4.5447 C   0  0  0  0  0  0  0  0  0  0  0  0
   28.4879  -19.0185   -4.4880 C   0  0  0  0  0  0  0  0  0  0  0  0
   29.1761  -18.7607   -5.6534 C   0  0  0  0  0  0  0  0  0  0  0  0
   28.7536  -19.2018   -6.8799 C   0  0  0  0  0  0  0  0  0  0  0  0
   27.5848  -19.9363   -6.9375 C   0  0  0  0  0  0  0  0  0  0  0  0
   24.8956  -20.5216   -9.6906 C   0  0  0  0  0  0  0  0  0  0  0  0
   24.3781  -19.4893  -10.1604 O   0  0  0  0  0  0  0  0  0  0  0  0
   24.2789  -21.1721   -8.6496 O   0  0  0  0  0  0  0  0  0  0  0  0
  2  1  1  1
  3  2  1  0
  4 11  1  0
  4  2  1  0
  5  4  2  0
  6  7  1  0
  8  7  1  0
  9  8  1  0
 10  9  1  6
 10 11  1  0
 12 10  1  0
 12 14  1  0
 13 12  2  0
 15 14  1  0
 15 16  1  1
 16 17  1  0
 17 25  1  0
 18 19  1  0
 18 17  2  0
 19 20  1  0
 20 25  2  0
 20 21  1  0
 21 22  2  0
 22 23  1  0
 24 23  2  0
 25 24  1  0
 26 15  1  0
 27 26  2  0
 28 26  1  0
M  END
$$$$
