AMW.pdb
     RDKit          3D

 28 29  0  0  1  0  0  0  0  0999 V2000
   25.9571  -13.1982  -24.5658 C   0  0  0  0  0  0  0  0  0  0  0  0
   24.9715  -12.4535  -23.6841 C   0  0  2  0  0  0  0  0  0  0  0  0
   25.5472  -11.1424  -23.4452 N   0  0  0  0  0  0  0  0  0  0  0  0
   24.7830  -13.1863  -22.4047 C   0  0  0  0  0  0  0  0  0  0  0  0
   24.3030  -14.3626  -22.3681 O   0  0  0  0  0  0  0  0  0  0  0  0
   27.3159  -14.2581  -15.1083 C   0  0  0  0  0  0  0  0  0  0  0  0
   27.5226  -13.3374  -16.6740 S   0  0  0  0  0  0  0  0  0  0  0  0
   26.0446  -13.6445  -17.6794 C   0  0  0  0  0  0  0  0  0  0  0  0
   26.1554  -13.0024  -19.0176 C   0  0  0  0  0  0  0  0  0  0  0  0
   24.9946  -13.2902  -19.9323 C   0  0  2  0  0  0  0  0  0  0  0  0
   25.1460  -12.5659  -21.1794 N   0  0  0  0  0  0  0  0  0  0  0  0
   23.6910  -13.0221  -19.3278 C   0  0  0  0  0  0  0  0  0  0  0  0
   23.2765  -11.8852  -18.9919 O   0  0  0  0  0  0  0  0  0  0  0  0
   22.8120  -14.1123  -19.0942 N   0  0  0  0  0  0  0  0  0  0  0  0
   21.5125  -13.9101  -18.4364 C   0  0  1  0  0  0  0  0  0  0  0  0
   20.6160  -15.1069  -18.6821 C   0  0  0  0  0  0  0  0  0  0  0  0
   19.3085  -14.8416  -18.0511 C   0  0  0  0  0  0  0  0  0  0  0  0
   18.8801  -15.2582  -16.7898 C   0  0  0  0  0  0  0  0  0  0  0  0
   17.6291  -14.8284  -16.5770 N   0  0  0  0  0  0  0  0  0  0  0  0
   17.2140  -14.1420  -17.6521 C   0  0  0  0  0  0  0  0  0  0  0  0
   16.0012  -13.4994  -17.9226 C   0  0  0  0  0  0  0  0  0  0  0  0
   15.8446  -12.8613  -19.1282 C   0  0  0  0  0  0  0  0  0  0  0  0
   16.8833  -12.8726  -20.0334 C   0  0  0  0  0  0  0  0  0  0  0  0
   18.0782  -13.4962  -19.7869 C   0  0  0  0  0  0  0  0  0  0  0  0
   18.2362  -14.1385  -18.5738 C   0  0  0  0  0  0  0  0  0  0  0  0
   21.7609  -13.8055  -16.9959 C   0  0  0  0  0  0  0  0  0  0  0  0
   22.7316  -14.3984  -16.4857 O   0  0  0  0  0  0  0  0  0  0  0  0
   20.9312  -13.0570  -16.1968 O   0  0  0  0  0  0  0  0  0  0  0  0
  2  1  1  6
  3  2  1  0
  4 11  1  0
  4  2  1  0
  5  4  2  0
  6  7  1  0
  8  7  1  0
  9  8  1  0
 10  9  1  1
 10 11  1  0
 12 10  1  0
 12 14  1  0
 13 12  2  0
 15 14  1  0
 15 16  1  1
 16 17  1  0
 17 25  1  0
 18 19  1  0
 18 17  2  0
 19 20  1  0
 20 25  2  0
 20 21  1  0
 21 22  2  0
 22 23  1  0
 24 23  2  0
 25 24  1  0
 26 15  1  0
 27 26  2  0
 28 26  1  0
M  END
$$$$
