AMW.pdb
     RDKit          3D

 28 29  0  0  1  0  0  0  0  0999 V2000
   18.5953   -7.8065  -27.1615 C   0  0  0  0  0  0  0  0  0  0  0  0
   17.9215   -8.4692  -25.9739 C   0  0  2  0  0  0  0  0  0  0  0  0
   16.5451   -8.7100  -26.3675 N   0  0  0  0  0  0  0  0  0  0  0  0
   17.9810   -7.5701  -24.7917 C   0  0  0  0  0  0  0  0  0  0  0  0
   19.0835   -7.2445  -24.2494 O   0  0  0  0  0  0  0  0  0  0  0  0
   15.3253   -0.9804  -24.2029 C   0  0  0  0  0  0  0  0  0  0  0  0
   14.6829   -2.6400  -23.7846 S   0  0  0  0  0  0  0  0  0  0  0  0
   16.1044   -3.7634  -23.7012 C   0  0  0  0  0  0  0  0  0  0  0  0
   15.6971   -5.1214  -23.2481 C   0  0  0  0  0  0  0  0  0  0  0  0
   16.8366   -6.1006  -23.1489 C   0  0  2  0  0  0  0  0  0  0  0  0
   16.7781   -7.0519  -24.2417 N   0  0  0  0  0  0  0  0  0  0  0  0
   16.9083   -6.7885  -21.8612 C   0  0  0  0  0  0  0  0  0  0  0  0
   16.0516   -7.6012  -21.4336 O   0  0  0  0  0  0  0  0  0  0  0  0
   18.0196   -6.5348  -21.0149 N   0  0  0  0  0  0  0  0  0  0  0  0
   18.1469   -7.2022  -19.7108 C   0  0  1  0  0  0  0  0  0  0  0  0
   19.0598   -8.4057  -19.8318 C   0  0  0  0  0  0  0  0  0  0  0  0
   18.4227   -9.5403  -19.1355 C   0  0  0  0  0  0  0  0  0  0  0  0
   18.0416   -9.6009  -17.7943 C   0  0  0  0  0  0  0  0  0  0  0  0
   17.5047  -10.8007  -17.5349 N   0  0  0  0  0  0  0  0  0  0  0  0
   17.5166  -11.5366  -18.6563 C   0  0  0  0  0  0  0  0  0  0  0  0
   17.0757  -12.8403  -18.9071 C   0  0  0  0  0  0  0  0  0  0  0  0
   17.2133  -13.3536  -20.1731 C   0  0  0  0  0  0  0  0  0  0  0  0
   17.7799  -12.5721  -21.1562 C   0  0  0  0  0  0  0  0  0  0  0  0
   18.2178  -11.2936  -20.9302 C   0  0  0  0  0  0  0  0  0  0  0  0
   18.0795  -10.7766  -19.6564 C   0  0  0  0  0  0  0  0  0  0  0  0
   18.7615   -6.2459  -18.7861 C   0  0  0  0  0  0  0  0  0  0  0  0
   19.7150   -5.5373  -19.1641 O   0  0  0  0  0  0  0  0  0  0  0  0
   18.2961   -6.1207  -17.4996 O   0  0  0  0  0  0  0  0  0  0  0  0
  2  1  1  6
  3  2  1  0
  4 11  1  0
  4  2  1  0
  5  4  2  0
  6  7  1  0
  8  7  1  0
  9  8  1  0
 10  9  1  1
 10 11  1  0
 12 10  1  0
 12 14  1  0
 13 12  2  0
 15 14  1  0
 15 16  1  6
 16 17  1  0
 17 25  1  0
 18 19  1  0
 18 17  2  0
 19 20  1  0
 20 25  2  0
 20 21  1  0
 21 22  2  0
 22 23  1  0
 24 23  2  0
 25 24  1  0
 26 15  1  0
 27 26  2  0
 28 26  1  0
M  END
$$$$
