AMW.pdb
     RDKit          3D

 28 29  0  0  1  0  0  0  0  0999 V2000
   27.3573  -16.9144  -15.7236 C   0  0  0  0  0  0  0  0  0  0  0  0
   26.7817  -18.3187  -15.7161 C   0  0  2  0  0  0  0  0  0  0  0  0
   25.9475  -18.4244  -16.8995 N   0  0  0  0  0  0  0  0  0  0  0  0
   25.9765  -18.5291  -14.4845 C   0  0  0  0  0  0  0  0  0  0  0  0
   25.6276  -17.5628  -13.7361 O   0  0  0  0  0  0  0  0  0  0  0  0
   20.8498  -21.6290  -14.3757 C   0  0  0  0  0  0  0  0  0  0  0  0
   21.1564  -22.0156  -12.6155 S   0  0  0  0  0  0  0  0  0  0  0  0
   22.6454  -21.1087  -12.1156 C   0  0  0  0  0  0  0  0  0  0  0  0
   23.5143  -20.8049  -13.2853 C   0  0  0  0  0  0  0  0  0  0  0  0
   24.7688  -20.0493  -12.9358 C   0  0  2  0  0  0  0  0  0  0  0  0
   25.5780  -19.8434  -14.1212 N   0  0  0  0  0  0  0  0  0  0  0  0
   25.5520  -20.6734  -11.8710 C   0  0  0  0  0  0  0  0  0  0  0  0
   26.0144  -21.8404  -11.9108 O   0  0  0  0  0  0  0  0  0  0  0  0
   25.8224  -19.9238  -10.6961 N   0  0  0  0  0  0  0  0  0  0  0  0
   26.6278  -20.4907   -9.6042 C   0  0  1  0  0  0  0  0  0  0  0  0
   27.3644  -19.3847   -8.8758 C   0  0  0  0  0  0  0  0  0  0  0  0
   28.3287  -20.0059   -7.9472 C   0  0  0  0  0  0  0  0  0  0  0  0
   29.2419  -21.0217   -8.2338 C   0  0  0  0  0  0  0  0  0  0  0  0
   29.9375  -21.3234   -7.1292 N   0  0  0  0  0  0  0  0  0  0  0  0
   29.5176  -20.5438   -6.1216 C   0  0  0  0  0  0  0  0  0  0  0  0
   29.9209  -20.4705   -4.7841 C   0  0  0  0  0  0  0  0  0  0  0  0
   29.3079  -19.5624   -3.9566 C   0  0  0  0  0  0  0  0  0  0  0  0
   28.3166  -18.7525   -4.4663 C   0  0  0  0  0  0  0  0  0  0  0  0
   27.9079  -18.8094   -5.7728 C   0  0  0  0  0  0  0  0  0  0  0  0
   28.5244  -19.7230   -6.6059 C   0  0  0  0  0  0  0  0  0  0  0  0
   25.7039  -21.1297   -8.6630 C   0  0  0  0  0  0  0  0  0  0  0  0
   24.5902  -20.6171   -8.4370 O   0  0  0  0  0  0  0  0  0  0  0  0
   26.0534  -22.2940   -8.0232 O   0  0  0  0  0  0  0  0  0  0  0  0
  2  1  1  1
  3  2  1  0
  4 11  1  0
  4  2  1  0
  5  4  2  0
  6  7  1  0
  8  7  1  0
  9  8  1  0
 10  9  1  6
 10 11  1  0
 12 10  1  0
 12 14  1  0
 13 12  2  0
 15 14  1  0
 15 16  1  1
 16 17  1  0
 17 25  1  0
 18 19  1  0
 18 17  2  0
 19 20  1  0
 20 25  2  0
 20 21  1  0
 21 22  2  0
 22 23  1  0
 24 23  2  0
 25 24  1  0
 26 15  1  0
 27 26  2  0
 28 26  1  0
M  END
$$$$
