AMW.pdb
     RDKit          3D

 28 29  0  0  1  0  0  0  0  0999 V2000
   27.2740  -18.6197  -17.2465 C   0  0  0  0  0  0  0  0  0  0  0  0
   27.9070  -19.4331  -16.1324 C   0  0  2  0  0  0  0  0  0  0  0  0
   27.6017  -20.8234  -16.4178 N   0  0  0  0  0  0  0  0  0  0  0  0
   27.3350  -19.0274  -14.8218 C   0  0  0  0  0  0  0  0  0  0  0  0
   27.1788  -17.8062  -14.5055 O   0  0  0  0  0  0  0  0  0  0  0  0
   21.6493  -18.7135  -12.9634 C   0  0  0  0  0  0  0  0  0  0  0  0
   22.3232  -20.4072  -12.8246 S   0  0  0  0  0  0  0  0  0  0  0  0
   23.9732  -20.3945  -13.5777 C   0  0  0  0  0  0  0  0  0  0  0  0
   24.7942  -19.2628  -13.0671 C   0  0  0  0  0  0  0  0  0  0  0  0
   26.2031  -19.6461  -12.6996 C   0  0  2  0  0  0  0  0  0  0  0  0
   26.9470  -20.0230  -13.8858 N   0  0  0  0  0  0  0  0  0  0  0  0
   26.2796  -20.6919  -11.6812 C   0  0  0  0  0  0  0  0  0  0  0  0
   26.0188  -21.9046  -11.8776 O   0  0  0  0  0  0  0  0  0  0  0  0
   26.6761  -20.3334  -10.3659 N   0  0  0  0  0  0  0  0  0  0  0  0
   26.7786  -21.3448   -9.3033 C   0  0  1  0  0  0  0  0  0  0  0  0
   28.0901  -21.1851   -8.5611 C   0  0  0  0  0  0  0  0  0  0  0  0
   27.9300  -20.1052   -7.5680 C   0  0  0  0  0  0  0  0  0  0  0  0
   27.2040  -18.9226   -7.7169 C   0  0  0  0  0  0  0  0  0  0  0  0
   27.3050  -18.1912   -6.5988 N   0  0  0  0  0  0  0  0  0  0  0  0
   28.0716  -18.8473   -5.7151 C   0  0  0  0  0  0  0  0  0  0  0  0
   28.4749  -18.5121   -4.4181 C   0  0  0  0  0  0  0  0  0  0  0  0
   29.2762  -19.3871   -3.7271 C   0  0  0  0  0  0  0  0  0  0  0  0
   29.6586  -20.5657   -4.3295 C   0  0  0  0  0  0  0  0  0  0  0  0
   29.2742  -20.9116   -5.5983 C   0  0  0  0  0  0  0  0  0  0  0  0
   28.4678  -20.0316   -6.2941 C   0  0  0  0  0  0  0  0  0  0  0  0
   25.6815  -21.1053   -8.3618 C   0  0  0  0  0  0  0  0  0  0  0  0
   24.9796  -20.0806   -8.4694 O   0  0  0  0  0  0  0  0  0  0  0  0
   25.4162  -22.0025   -7.3559 O   0  0  0  0  0  0  0  0  0  0  0  0
  2  1  1  6
  3  2  1  0
  4 11  1  0
  4  2  1  0
  5  4  2  0
  6  7  1  0
  8  7  1  0
  9  8  1  0
 10  9  1  6
 10 11  1  0
 12 10  1  0
 12 14  1  0
 13 12  2  0
 15 14  1  0
 15 16  1  1
 16 17  1  0
 17 25  1  0
 18 19  1  0
 18 17  2  0
 19 20  1  0
 20 25  2  0
 20 21  1  0
 21 22  2  0
 22 23  1  0
 24 23  2  0
 25 24  1  0
 26 15  1  0
 27 26  2  0
 28 26  1  0
M  END
$$$$
