AMW.pdb
     RDKit          3D

 28 29  0  0  1  0  0  0  0  0999 V2000
   27.3482  -22.9054  -19.8465 C   0  0  0  0  0  0  0  0  0  0  0  0
   26.3667  -23.0358  -18.6962 C   0  0  2  0  0  0  0  0  0  0  0  0
   25.1342  -22.4088  -19.1381 N   0  0  0  0  0  0  0  0  0  0  0  0
   26.9039  -22.3492  -17.4923 C   0  0  0  0  0  0  0  0  0  0  0  0
   27.9398  -22.7674  -16.8859 O   0  0  0  0  0  0  0  0  0  0  0  0
   27.1698  -16.3023  -16.9763 C   0  0  0  0  0  0  0  0  0  0  0  0
   27.3759  -16.5082  -15.1717 S   0  0  0  0  0  0  0  0  0  0  0  0
   27.2250  -18.2792  -14.8102 C   0  0  0  0  0  0  0  0  0  0  0  0
   26.8887  -19.0563  -16.0343 C   0  0  0  0  0  0  0  0  0  0  0  0
   26.7524  -20.5374  -15.8005 C   0  0  2  0  0  0  0  0  0  0  0  0
   26.2507  -21.1904  -16.9940 N   0  0  0  0  0  0  0  0  0  0  0  0
   25.9335  -20.8746  -14.6375 C   0  0  0  0  0  0  0  0  0  0  0  0
   24.6777  -20.8786  -14.6216 O   0  0  0  0  0  0  0  0  0  0  0  0
   26.5843  -21.2270  -13.4260 N   0  0  0  0  0  0  0  0  0  0  0  0
   25.8161  -21.4659  -12.1950 C   0  0  1  0  0  0  0  0  0  0  0  0
   26.7370  -21.9601  -11.0976 C   0  0  0  0  0  0  0  0  0  0  0  0
   26.4881  -21.1528   -9.8876 C   0  0  0  0  0  0  0  0  0  0  0  0
   25.3041  -20.5033   -9.5352 C   0  0  0  0  0  0  0  0  0  0  0  0
   25.4726  -19.8664   -8.3686 N   0  0  0  0  0  0  0  0  0  0  0  0
   26.7256  -20.0712   -7.9358 C   0  0  0  0  0  0  0  0  0  0  0  0
   27.3872  -19.6266   -6.7862 C   0  0  0  0  0  0  0  0  0  0  0  0
   28.6957  -19.9941   -6.5915 C   0  0  0  0  0  0  0  0  0  0  0  0
   29.3169  -20.7874   -7.5312 C   0  0  0  0  0  0  0  0  0  0  0  0
   28.6861  -21.2326   -8.6631 C   0  0  0  0  0  0  0  0  0  0  0  0
   27.3694  -20.8631   -8.8595 C   0  0  0  0  0  0  0  0  0  0  0  0
   25.2454  -20.1824  -11.7774 C   0  0  0  0  0  0  0  0  0  0  0  0
   25.9118  -19.1354  -11.8952 O   0  0  0  0  0  0  0  0  0  0  0  0
   23.9766  -20.1195  -11.2545 O   0  0  0  0  0  0  0  0  0  0  0  0
  2  1  1  6
  3  2  1  0
  4 11  1  0
  4  2  1  0
  5  4  2  0
  6  7  1  0
  8  7  1  0
  9  8  1  0
 10  9  1  6
 10 11  1  0
 12 10  1  0
 12 14  1  0
 13 12  2  0
 15 14  1  0
 15 16  1  1
 16 17  1  0
 17 25  1  0
 18 19  1  0
 18 17  2  0
 19 20  1  0
 20 25  2  0
 20 21  1  0
 21 22  2  0
 22 23  1  0
 24 23  2  0
 25 24  1  0
 26 15  1  0
 27 26  2  0
 28 26  1  0
M  END
$$$$
