AHL.pdb
     RDKit          3D

 24 24  0  0  1  0  0  0  0  0999 V2000
    7.9400  -12.0290   20.3576 C   0  0  0  0  0  0  0  0  0  0  0  0
    8.0143  -13.3828   19.6842 C   0  0  2  0  0  0  0  0  0  0  0  0
    6.8747  -13.5042   18.7933 N   0  0  0  0  0  0  0  0  0  0  0  0
    7.9677  -14.4479   20.7597 C   0  0  0  0  0  0  0  0  0  0  0  0
    6.8209  -14.8428   21.0564 O   0  0  0  0  0  0  0  0  0  0  0  0
    9.1552  -14.9273   21.3530 N   0  0  0  0  0  0  0  0  0  0  0  0
    9.2775  -15.9758   22.2901 C   0  0  1  0  0  0  0  0  0  0  0  0
   10.4353  -16.9301   22.0108 C   0  0  0  0  0  0  0  0  0  0  0  0
   10.1620  -17.8200   20.8646 C   0  0  0  0  0  0  0  0  0  0  0  0
    8.9312  -17.9284   20.1929 C   0  0  0  0  0  0  0  0  0  0  0  0
    9.1068  -18.8397   19.2221 N   0  0  0  0  0  0  0  0  0  0  0  0
   10.3592  -19.3116   19.2354 C   0  0  0  0  0  0  0  0  0  0  0  0
   10.9671  -18.6623   20.2529 N   0  0  0  0  0  0  0  0  0  0  0  0
    9.2300  -15.5094   23.6820 C   0  0  0  0  0  0  0  0  0  0  0  0
    9.5750  -14.3336   23.9764 O   0  0  0  0  0  0  0  0  0  0  0  0
    8.4614  -12.7664   26.6998 C   0  0  0  0  0  0  0  0  0  0  0  0
    7.5479  -13.4039   25.6875 C   0  0  2  0  0  0  0  0  0  0  0  0
    6.2198  -12.6280   25.7470 C   0  0  0  0  0  0  0  0  0  0  0  0
    7.2061  -14.8227   25.9302 C   0  0  0  0  0  0  0  0  0  0  0  0
    8.3163  -15.8067   26.0104 C   0  0  2  0  0  0  0  0  0  0  0  0
    8.7982  -16.3382   24.7784 N   0  0  0  0  0  0  0  0  0  0  0  0
    8.0032  -16.8568   27.0138 C   0  0  0  0  0  0  0  0  0  0  0  0
    8.6312  -16.8288   28.0972 O   0  0  0  0  0  0  0  0  0  0  0  0
    7.0715  -17.8631   26.8436 O   0  0  0  0  0  0  0  0  0  0  0  0
  2  1  1  1
  2  3  1  0
  4  2  1  0
  4  5  2  0
  6  4  1  0
  7  6  1  0
  7 14  1  0
  7  8  1  6
  9 10  2  0
  9  8  1  0
 11 10  1  0
 12 13  2  0
 12 11  1  0
 13  9  1  0
 14 15  2  0
 17 18  1  1
 17 16  1  0
 19 17  1  0
 20 19  1  6
 21 14  1  0
 21 20  1  0
 22 24  1  0
 22 20  1  0
 23 22  2  0
M  END
$$$$
