AHL.pdb
     RDKit          3D

 24 24  0  0  1  0  0  0  0  0999 V2000
    8.5603  -12.1628   19.5345 C   0  0  0  0  0  0  0  0  0  0  0  0
    8.7630  -13.6050   19.1211 C   0  0  2  0  0  0  0  0  0  0  0  0
    8.1627  -13.7853   17.8118 N   0  0  0  0  0  0  0  0  0  0  0  0
    8.0849  -14.4895   20.1463 C   0  0  0  0  0  0  0  0  0  0  0  0
    7.1412  -15.1764   19.7031 O   0  0  0  0  0  0  0  0  0  0  0  0
    8.5205  -14.5034   21.4888 N   0  0  0  0  0  0  0  0  0  0  0  0
    8.9114  -15.6281   22.2471 C   0  0  1  0  0  0  0  0  0  0  0  0
    9.9942  -16.4784   21.5887 C   0  0  0  0  0  0  0  0  0  0  0  0
    9.5446  -17.8632   21.3422 C   0  0  0  0  0  0  0  0  0  0  0  0
    8.2950  -18.3918   21.7118 C   0  0  0  0  0  0  0  0  0  0  0  0
    8.2894  -19.6726   21.3076 N   0  0  0  0  0  0  0  0  0  0  0  0
    9.4454  -19.9867   20.7107 C   0  0  0  0  0  0  0  0  0  0  0  0
   10.1809  -18.8538   20.7541 N   0  0  0  0  0  0  0  0  0  0  0  0
    9.1993  -15.3020   23.6499 C   0  0  0  0  0  0  0  0  0  0  0  0
   10.3301  -14.8585   23.9860 O   0  0  0  0  0  0  0  0  0  0  0  0
    7.6663  -11.8403   25.9439 C   0  0  0  0  0  0  0  0  0  0  0  0
    6.8167  -13.0827   25.9648 C   0  0  2  0  0  0  0  0  0  0  0  0
    5.5153  -12.7103   26.6975 C   0  0  0  0  0  0  0  0  0  0  0  0
    7.3824  -14.2389   26.6941 C   0  0  0  0  0  0  0  0  0  0  0  0
    8.4718  -15.0121   26.0439 C   0  0  2  0  0  0  0  0  0  0  0  0
    8.2381  -15.4610   24.7112 N   0  0  0  0  0  0  0  0  0  0  0  0
    8.9471  -16.0924   26.9465 C   0  0  0  0  0  0  0  0  0  0  0  0
    8.7898  -17.2757   26.5670 O   0  0  0  0  0  0  0  0  0  0  0  0
    9.5499  -15.8919   28.1737 O   0  0  0  0  0  0  0  0  0  0  0  0
  2  1  1  1
  2  3  1  0
  4  2  1  0
  4  5  2  0
  6  4  1  0
  7  6  1  0
  7 14  1  0
  7  8  1  6
  9 10  2  0
  9  8  1  0
 11 10  1  0
 12 13  2  0
 12 11  1  0
 13  9  1  0
 14 15  2  0
 17 18  1  1
 17 16  1  0
 19 17  1  0
 20 19  1  1
 21 14  1  0
 21 20  1  0
 22 24  1  0
 22 20  1  0
 23 22  2  0
M  END
$$$$
