AHL.pdb
     RDKit          3D

 24 24  0  0  1  0  0  0  0  0999 V2000
    8.1954  -19.3527   19.4629 C   0  0  0  0  0  0  0  0  0  0  0  0
    8.1055  -18.9754   20.9263 C   0  0  2  0  0  0  0  0  0  0  0  0
    6.7059  -18.7696   21.2516 N   0  0  0  0  0  0  0  0  0  0  0  0
    8.8956  -17.7004   21.1343 C   0  0  0  0  0  0  0  0  0  0  0  0
   10.1204  -17.8013   20.9136 O   0  0  0  0  0  0  0  0  0  0  0  0
    8.2541  -16.5127   21.5465 N   0  0  0  0  0  0  0  0  0  0  0  0
    8.8541  -15.2569   21.7825 C   0  0  1  0  0  0  0  0  0  0  0  0
    8.1373  -14.0876   21.1131 C   0  0  0  0  0  0  0  0  0  0  0  0
    8.2575  -14.1268   19.6419 C   0  0  0  0  0  0  0  0  0  0  0  0
    9.0778  -15.0077   18.9148 C   0  0  0  0  0  0  0  0  0  0  0  0
    8.8946  -14.7143   17.6171 N   0  0  0  0  0  0  0  0  0  0  0  0
    8.0182  -13.7125   17.4765 C   0  0  0  0  0  0  0  0  0  0  0  0
    7.6557  -13.3852   18.7365 N   0  0  0  0  0  0  0  0  0  0  0  0
    9.1531  -15.0217   23.2011 C   0  0  0  0  0  0  0  0  0  0  0  0
   10.2511  -14.5098   23.5487 O   0  0  0  0  0  0  0  0  0  0  0  0
    8.2314  -11.8837   26.3228 C   0  0  0  0  0  0  0  0  0  0  0  0
    7.2153  -12.9288   25.9474 C   0  0  2  0  0  0  0  0  0  0  0  0
    5.8994  -12.5274   26.6377 C   0  0  0  0  0  0  0  0  0  0  0  0
    7.5112  -14.3070   26.3966 C   0  0  0  0  0  0  0  0  0  0  0  0
    8.5219  -15.0888   25.6387 C   0  0  2  0  0  0  0  0  0  0  0  0
    8.2397  -15.3496   24.2658 N   0  0  0  0  0  0  0  0  0  0  0  0
    8.9039  -16.3089   26.3957 C   0  0  0  0  0  0  0  0  0  0  0  0
    8.8394  -17.4068   25.7963 O   0  0  0  0  0  0  0  0  0  0  0  0
    9.3254  -16.3256   27.7117 O   0  0  0  0  0  0  0  0  0  0  0  0
  2  1  1  6
  2  3  1  0
  4  2  1  0
  4  5  2  0
  6  4  1  0
  7  6  1  0
  7 14  1  0
  7  8  1  1
  9 10  2  0
  9  8  1  0
 11 10  1  0
 12 13  2  0
 12 11  1  0
 13  9  1  0
 14 15  2  0
 17 18  1  1
 17 16  1  0
 19 17  1  0
 20 19  1  1
 21 14  1  0
 21 20  1  0
 22 24  1  0
 22 20  1  0
 23 22  2  0
M  END
$$$$
