HTF.pdb
     RDKit          3D

 29 30  0  0  1  0  0  0  0  0999 V2000
    8.3126  -16.8132   19.0532 N   0  0  0  0  0  0  0  0  0  0  0  0
    8.3383  -15.8877   20.1682 C   0  0  1  0  0  0  0  0  0  0  0  0
    7.3204  -14.8140   19.9116 C   0  0  0  0  0  0  0  0  0  0  0  0
    7.7462  -14.0638   18.7087 C   0  0  0  0  0  0  0  0  0  0  0  0
    8.5214  -12.9284   18.6919 C   0  0  0  0  0  0  0  0  0  0  0  0
    8.7071  -12.5217   17.4154 N   0  0  0  0  0  0  0  0  0  0  0  0
    8.0484  -13.4027   16.6371 C   0  0  0  0  0  0  0  0  0  0  0  0
    7.4610  -14.3456   17.4295 N   0  0  0  0  0  0  0  0  0  0  0  0
    8.0904  -16.5935   21.4631 C   0  0  0  0  0  0  0  0  0  0  0  0
    7.2287  -17.5019   21.4915 O   0  0  0  0  0  0  0  0  0  0  0  0
    8.5036  -19.1923   22.5442 C   0  0  0  0  0  0  0  0  0  0  0  0
    9.4177  -18.4576   23.5132 C   0  0  1  0  0  0  0  0  0  0  0  0
   10.6898  -18.5480   22.9959 O   0  0  0  0  0  0  0  0  0  0  0  0
    8.9412  -17.0891   23.8263 C   0  0  2  0  0  0  0  0  0  0  0  0
    8.7876  -16.2740   22.6431 N   0  0  0  0  0  0  0  0  0  0  0  0
    9.6640  -16.4207   24.9332 C   0  0  0  0  0  0  0  0  0  0  0  0
   10.7135  -15.7268   24.7854 O   0  0  0  0  0  0  0  0  0  0  0  0
    9.1740  -16.5451   26.2384 N   0  0  0  0  0  0  0  0  0  0  0  0
    9.6531  -15.6911   27.3418 C   0  0  1  0  0  0  0  0  0  0  0  0
    8.4309  -15.1219   27.9786 C   0  0  0  0  0  0  0  0  0  0  0  0
    7.9033  -13.9002   27.3816 C   0  0  0  0  0  0  0  0  0  0  0  0
    6.5632  -13.7858   27.0847 C   0  0  0  0  0  0  0  0  0  0  0  0
    6.0628  -12.6283   26.5225 C   0  0  0  0  0  0  0  0  0  0  0  0
    6.9492  -11.5783   26.2631 C   0  0  0  0  0  0  0  0  0  0  0  0
    8.3009  -11.6880   26.5602 C   0  0  0  0  0  0  0  0  0  0  0  0
    8.7762  -12.8592   27.1232 C   0  0  0  0  0  0  0  0  0  0  0  0
   10.4357  -16.5829   28.2322 C   0  0  0  0  0  0  0  0  0  0  0  0
   10.2371  -17.8280   28.1301 O   0  0  0  0  0  0  0  0  0  0  0  0
   11.3645  -16.1175   29.1607 O   0  0  0  0  0  0  0  0  0  0  0  0
  2  1  1  6
  2  9  1  0
  3  2  1  0
  4  8  1  0
  4  3  1  0
  5  4  2  0
  6  5  1  0
  6  7  1  0
  7  8  2  0
  9 10  2  0
 12 11  1  6
 13 12  1  0
 14 12  1  0
 15  9  1  0
 14 15  1  6
 16 14  1  0
 16 17  2  0
 18 16  1  0
 19 27  1  0
 19 18  1  0
 19 20  1  1
 21 20  1  0
 21 22  2  0
 23 22  1  0
 24 23  2  0
 25 26  2  0
 25 24  1  0
 26 21  1  0
 27 29  1  0
 28 27  2  0
M  END
$$$$
