HTF.pdb
     RDKit          3D

 29 30  0  0  1  0  0  0  0  0999 V2000
    8.6533  -16.7154   19.3618 N   0  0  0  0  0  0  0  0  0  0  0  0
    8.7091  -15.7448   20.4366 C   0  0  1  0  0  0  0  0  0  0  0  0
    7.5342  -14.8202   20.2967 C   0  0  0  0  0  0  0  0  0  0  0  0
    7.6440  -14.1429   18.9851 C   0  0  0  0  0  0  0  0  0  0  0  0
    8.3065  -12.9649   18.7325 C   0  0  0  0  0  0  0  0  0  0  0  0
    8.1944  -12.6505   17.4218 N   0  0  0  0  0  0  0  0  0  0  0  0
    7.4626  -13.6315   16.8579 C   0  0  0  0  0  0  0  0  0  0  0  0
    7.1265  -14.5438   17.8153 N   0  0  0  0  0  0  0  0  0  0  0  0
    8.7340  -16.4172   21.7720 C   0  0  0  0  0  0  0  0  0  0  0  0
    7.7207  -17.0568   22.1365 O   0  0  0  0  0  0  0  0  0  0  0  0
   11.2271  -19.0185   24.9500 C   0  0  0  0  0  0  0  0  0  0  0  0
   11.0339  -18.2038   23.6799 C   0  0  1  0  0  0  0  0  0  0  0  0
   10.7474  -19.1030   22.6781 O   0  0  0  0  0  0  0  0  0  0  0  0
   10.0655  -17.0944   23.8512 C   0  0  2  0  0  0  0  0  0  0  0  0
    9.8496  -16.3564   22.6278 N   0  0  0  0  0  0  0  0  0  0  0  0
   10.3051  -16.2422   25.0389 C   0  0  0  0  0  0  0  0  0  0  0  0
   11.0905  -15.2484   25.0589 O   0  0  0  0  0  0  0  0  0  0  0  0
    9.6286  -16.5300   26.2300 N   0  0  0  0  0  0  0  0  0  0  0  0
    9.8348  -15.7423   27.4602 C   0  0  1  0  0  0  0  0  0  0  0  0
    8.4730  -15.3728   27.9421 C   0  0  0  0  0  0  0  0  0  0  0  0
    7.9043  -14.1489   27.3888 C   0  0  0  0  0  0  0  0  0  0  0  0
    8.6028  -12.9631   27.4430 C   0  0  0  0  0  0  0  0  0  0  0  0
    8.0661  -11.8050   26.9165 C   0  0  0  0  0  0  0  0  0  0  0  0
    6.7988  -11.8672   26.3287 C   0  0  0  0  0  0  0  0  0  0  0  0
    6.0902  -13.0596   26.2714 C   0  0  0  0  0  0  0  0  0  0  0  0
    6.6513  -14.2056   26.8065 C   0  0  0  0  0  0  0  0  0  0  0  0
   10.5810  -16.6283   28.3868 C   0  0  0  0  0  0  0  0  0  0  0  0
   10.5075  -17.8752   28.1864 O   0  0  0  0  0  0  0  0  0  0  0  0
   11.3468  -16.1558   29.4507 O   0  0  0  0  0  0  0  0  0  0  0  0
  2  1  1  6
  2  9  1  0
  3  2  1  0
  4  8  1  0
  4  3  1  0
  5  4  2  0
  6  5  1  0
  6  7  1  0
  7  8  2  0
  9 10  2  0
 12 11  1  1
 13 12  1  0
 14 12  1  0
 15  9  1  0
 14 15  1  6
 16 14  1  0
 16 17  2  0
 18 16  1  0
 19 27  1  0
 19 18  1  0
 19 20  1  1
 21 20  1  0
 21 22  2  0
 23 22  1  0
 24 23  2  0
 25 26  2  0
 25 24  1  0
 26 21  1  0
 27 29  1  0
 28 27  2  0
M  END
$$$$
