HTF.pdb
     RDKit          3D

 29 30  0  0  1  0  0  0  0  0999 V2000
    9.5751  -17.0500   14.2885 N   0  0  0  0  0  0  0  0  0  0  0  0
   10.5163  -17.0532   15.3905 C   0  0  1  0  0  0  0  0  0  0  0  0
   11.4127  -15.8571   15.2469 C   0  0  0  0  0  0  0  0  0  0  0  0
   12.3319  -16.1128   14.1152 C   0  0  0  0  0  0  0  0  0  0  0  0
   13.5366  -16.7722   14.1805 C   0  0  0  0  0  0  0  0  0  0  0  0
   14.0996  -16.8166   12.9515 N   0  0  0  0  0  0  0  0  0  0  0  0
   13.2467  -16.1855   12.1208 C   0  0  0  0  0  0  0  0  0  0  0  0
   12.1657  -15.7554   12.8338 N   0  0  0  0  0  0  0  0  0  0  0  0
    9.8076  -17.0644   16.7073 C   0  0  0  0  0  0  0  0  0  0  0  0
    8.8309  -16.2965   16.8652 O   0  0  0  0  0  0  0  0  0  0  0  0
    8.6620  -20.2432   18.5158 C   0  0  0  0  0  0  0  0  0  0  0  0
    9.4284  -19.4010   19.5246 C   0  0  1  0  0  0  0  0  0  0  0  0
   10.5832  -20.0916   19.8136 O   0  0  0  0  0  0  0  0  0  0  0  0
    9.6063  -17.9970   19.0830 C   0  0  2  0  0  0  0  0  0  0  0  0
   10.1980  -17.9027   17.7682 N   0  0  0  0  0  0  0  0  0  0  0  0
   10.2244  -17.1052   20.0914 C   0  0  0  0  0  0  0  0  0  0  0  0
   11.3961  -16.6313   20.0040 O   0  0  0  0  0  0  0  0  0  0  0  0
    9.4854  -16.7435   21.2237 N   0  0  0  0  0  0  0  0  0  0  0  0
    9.9845  -15.7641   22.2075 C   0  0  1  0  0  0  0  0  0  0  0  0
    8.8234  -14.8894   22.5388 C   0  0  0  0  0  0  0  0  0  0  0  0
    8.2562  -14.1258   21.4331 C   0  0  0  0  0  0  0  0  0  0  0  0
    8.9992  -13.1579   20.7942 C   0  0  0  0  0  0  0  0  0  0  0  0
    8.4638  -12.4370   19.7454 C   0  0  0  0  0  0  0  0  0  0  0  0
    7.1515  -12.7143   19.3500 C   0  0  0  0  0  0  0  0  0  0  0  0
    6.3979  -13.6886   19.9903 C   0  0  0  0  0  0  0  0  0  0  0  0
    6.9588  -14.3964   21.0386 C   0  0  0  0  0  0  0  0  0  0  0  0
   10.4834  -16.5618   23.3543 C   0  0  0  0  0  0  0  0  0  0  0  0
   10.0883  -17.7600   23.4462 O   0  0  0  0  0  0  0  0  0  0  0  0
   11.3538  -16.0582   24.3188 O   0  0  0  0  0  0  0  0  0  0  0  0
  2  1  1  6
  2  9  1  0
  3  2  1  0
  4  8  1  0
  4  3  1  0
  5  4  2  0
  6  5  1  0
  6  7  1  0
  7  8  2  0
  9 10  2  0
 12 11  1  6
 13 12  1  0
 14 12  1  0
 15  9  1  0
 14 15  1  6
 16 14  1  0
 16 17  2  0
 18 16  1  0
 19 27  1  0
 19 18  1  0
 19 20  1  1
 21 20  1  0
 21 22  2  0
 23 22  1  0
 24 23  2  0
 25 26  2  0
 25 24  1  0
 26 21  1  0
 27 29  1  0
 28 27  2  0
M  END
$$$$
