HTF.pdb
     RDKit          3D

 29 30  0  0  1  0  0  0  0  0999 V2000
   11.2426  -14.4188   17.7733 N   0  0  0  0  0  0  0  0  0  0  0  0
   11.5371  -14.7488   19.1534 C   0  0  1  0  0  0  0  0  0  0  0  0
   12.8069  -14.0486   19.5437 C   0  0  0  0  0  0  0  0  0  0  0  0
   13.9279  -14.7241   18.8522 C   0  0  0  0  0  0  0  0  0  0  0  0
   14.3565  -16.0127   19.0673 C   0  0  0  0  0  0  0  0  0  0  0  0
   15.4032  -16.2868   18.2558 N   0  0  0  0  0  0  0  0  0  0  0  0
   15.6270  -15.1702   17.5355 C   0  0  0  0  0  0  0  0  0  0  0  0
   14.7239  -14.2150   17.9013 N   0  0  0  0  0  0  0  0  0  0  0  0
   10.3993  -14.3826   20.0520 C   0  0  0  0  0  0  0  0  0  0  0  0
   10.1898  -13.1700   20.2847 O   0  0  0  0  0  0  0  0  0  0  0  0
    6.6763  -14.9494   20.2187 C   0  0  0  0  0  0  0  0  0  0  0  0
    7.2785  -15.6441   21.4307 C   0  0  1  0  0  0  0  0  0  0  0  0
    7.1487  -16.9966   21.2109 O   0  0  0  0  0  0  0  0  0  0  0  0
    8.6465  -15.1671   21.7451 C   0  0  2  0  0  0  0  0  0  0  0  0
    9.5612  -15.3475   20.6412 N   0  0  0  0  0  0  0  0  0  0  0  0
    9.1756  -15.6231   23.0514 C   0  0  0  0  0  0  0  0  0  0  0  0
   10.2005  -16.3543   23.1915 O   0  0  0  0  0  0  0  0  0  0  0  0
    8.5205  -15.2313   24.2247 N   0  0  0  0  0  0  0  0  0  0  0  0
    9.0252  -15.5908   25.5635 C   0  0  1  0  0  0  0  0  0  0  0  0
    9.0977  -14.3137   26.3295 C   0  0  0  0  0  0  0  0  0  0  0  0
    7.8273  -13.6461   26.5900 C   0  0  0  0  0  0  0  0  0  0  0  0
    7.2903  -13.6289   27.8582 C   0  0  0  0  0  0  0  0  0  0  0  0
    6.0894  -12.9942   28.1060 C   0  0  0  0  0  0  0  0  0  0  0  0
    5.4345  -12.3714   27.0390 C   0  0  0  0  0  0  0  0  0  0  0  0
    5.9709  -12.3856   25.7586 C   0  0  0  0  0  0  0  0  0  0  0  0
    7.1759  -13.0287   25.5379 C   0  0  0  0  0  0  0  0  0  0  0  0
    8.0533  -16.5676   26.1127 C   0  0  0  0  0  0  0  0  0  0  0  0
    7.0043  -16.7864   25.4404 O   0  0  0  0  0  0  0  0  0  0  0  0
    8.2415  -17.2436   27.3164 O   0  0  0  0  0  0  0  0  0  0  0  0
  2  1  1  6
  2  9  1  0
  3  2  1  0
  4  8  1  0
  4  3  1  0
  5  4  2  0
  6  5  1  0
  6  7  1  0
  7  8  2  0
  9 10  2  0
 12 11  1  6
 13 12  1  0
 14 12  1  0
 15  9  1  0
 14 15  1  6
 16 14  1  0
 16 17  2  0
 18 16  1  0
 19 27  1  0
 19 18  1  0
 19 20  1  1
 21 20  1  0
 21 22  2  0
 23 22  1  0
 24 23  2  0
 25 26  2  0
 25 24  1  0
 26 21  1  0
 27 29  1  0
 28 27  2  0
M  END
$$$$
