HTF.pdb
     RDKit          3D

 29 30  0  0  1  0  0  0  0  0999 V2000
    8.8058  -17.2830   16.7130 N   0  0  0  0  0  0  0  0  0  0  0  0
    8.6801  -16.3020   17.7723 C   0  0  1  0  0  0  0  0  0  0  0  0
    7.4708  -15.4576   17.4901 C   0  0  0  0  0  0  0  0  0  0  0  0
    7.7420  -14.6725   16.2649 C   0  0  0  0  0  0  0  0  0  0  0  0
    8.2836  -13.4098   16.2128 C   0  0  0  0  0  0  0  0  0  0  0  0
    8.3854  -13.0099   14.9248 N   0  0  0  0  0  0  0  0  0  0  0  0
    7.9077  -14.0223   14.1746 C   0  0  0  0  0  0  0  0  0  0  0  0
    7.5145  -15.0388   14.9955 N   0  0  0  0  0  0  0  0  0  0  0  0
    8.6005  -16.9601   19.1127 C   0  0  0  0  0  0  0  0  0  0  0  0
    7.5878  -17.6465   19.3807 O   0  0  0  0  0  0  0  0  0  0  0  0
   10.3316  -19.5535   20.8622 C   0  0  0  0  0  0  0  0  0  0  0  0
   10.5317  -18.3400   21.7575 C   0  0  1  0  0  0  0  0  0  0  0  0
   11.8660  -18.0119   21.6792 O   0  0  0  0  0  0  0  0  0  0  0  0
    9.5768  -17.2450   21.4622 C   0  0  2  0  0  0  0  0  0  0  0  0
    9.6179  -16.8355   20.0771 N   0  0  0  0  0  0  0  0  0  0  0  0
    9.6060  -16.1219   22.4275 C   0  0  0  0  0  0  0  0  0  0  0  0
   10.3816  -15.1241   22.3399 O   0  0  0  0  0  0  0  0  0  0  0  0
    8.7260  -16.1375   23.5160 N   0  0  0  0  0  0  0  0  0  0  0  0
    8.7471  -15.0935   24.5580 C   0  0  1  0  0  0  0  0  0  0  0  0
    7.5385  -14.2536   24.3198 C   0  0  0  0  0  0  0  0  0  0  0  0
    7.2928  -13.1898   25.2869 C   0  0  0  0  0  0  0  0  0  0  0  0
    8.1592  -12.1246   25.3943 C   0  0  0  0  0  0  0  0  0  0  0  0
    7.9253  -11.1157   26.3074 C   0  0  0  0  0  0  0  0  0  0  0  0
    6.7893  -11.2034   27.1180 C   0  0  0  0  0  0  0  0  0  0  0  0
    5.9125  -12.2747   27.0143 C   0  0  0  0  0  0  0  0  0  0  0  0
    6.1706  -13.2722   26.0908 C   0  0  0  0  0  0  0  0  0  0  0  0
    8.7322  -15.8157   25.8536 C   0  0  0  0  0  0  0  0  0  0  0  0
    8.1008  -16.9107   25.9029 O   0  0  0  0  0  0  0  0  0  0  0  0
    9.3723  -15.3490   27.0000 O   0  0  0  0  0  0  0  0  0  0  0  0
  2  1  1  6
  2  9  1  0
  3  2  1  0
  4  8  1  0
  4  3  1  0
  5  4  2  0
  6  5  1  0
  6  7  1  0
  7  8  2  0
  9 10  2  0
 12 11  1  6
 13 12  1  0
 14 12  1  0
 15  9  1  0
 14 15  1  6
 16 14  1  0
 16 17  2  0
 18 16  1  0
 19 27  1  0
 19 18  1  0
 19 20  1  6
 21 20  1  0
 21 22  2  0
 23 22  1  0
 24 23  2  0
 25 26  2  0
 25 24  1  0
 26 21  1  0
 27 29  1  0
 28 27  2  0
M  END
$$$$
