HTF.pdb
     RDKit          3D

 29 30  0  0  1  0  0  0  0  0999 V2000
    8.6828  -16.7321   19.6513 N   0  0  0  0  0  0  0  0  0  0  0  0
    8.6067  -15.7280   20.6937 C   0  0  1  0  0  0  0  0  0  0  0  0
    7.4485  -14.8218   20.3900 C   0  0  0  0  0  0  0  0  0  0  0  0
    7.7264  -14.1471   19.1021 C   0  0  0  0  0  0  0  0  0  0  0  0
    8.3016  -12.9086   18.9418 C   0  0  0  0  0  0  0  0  0  0  0  0
    8.3988  -12.6179   17.6245 N   0  0  0  0  0  0  0  0  0  0  0  0
    7.8847  -13.6741   16.9642 C   0  0  0  0  0  0  0  0  0  0  0  0
    7.4737  -14.6088   17.8693 N   0  0  0  0  0  0  0  0  0  0  0  0
    8.4828  -16.3583   22.0441 C   0  0  0  0  0  0  0  0  0  0  0  0
    7.5755  -17.2020   22.2272 O   0  0  0  0  0  0  0  0  0  0  0  0
    9.2979  -18.9971   23.2915 C   0  0  0  0  0  0  0  0  0  0  0  0
   10.1229  -18.0796   24.1814 C   0  0  1  0  0  0  0  0  0  0  0  0
   11.4015  -18.0868   23.6721 O   0  0  0  0  0  0  0  0  0  0  0  0
    9.5040  -16.7443   24.3598 C   0  0  2  0  0  0  0  0  0  0  0  0
    9.3451  -16.0381   23.1092 N   0  0  0  0  0  0  0  0  0  0  0  0
   10.0954  -15.9286   25.4456 C   0  0  0  0  0  0  0  0  0  0  0  0
   11.0084  -15.0668   25.2760 O   0  0  0  0  0  0  0  0  0  0  0  0
    9.6302  -16.0988   26.7548 N   0  0  0  0  0  0  0  0  0  0  0  0
   10.0751  -15.2352   27.8649 C   0  0  1  0  0  0  0  0  0  0  0  0
    8.8351  -14.6477   28.4481 C   0  0  0  0  0  0  0  0  0  0  0  0
    8.1256  -13.6836   27.6148 C   0  0  0  0  0  0  0  0  0  0  0  0
    6.9298  -14.0170   27.0181 C   0  0  0  0  0  0  0  0  0  0  0  0
    6.2563  -13.1037   26.2318 C   0  0  0  0  0  0  0  0  0  0  0  0
    6.8181  -11.8351   26.0573 C   0  0  0  0  0  0  0  0  0  0  0  0
    8.0231  -11.4934   26.6561 C   0  0  0  0  0  0  0  0  0  0  0  0
    8.6774  -12.4278   27.4393 C   0  0  0  0  0  0  0  0  0  0  0  0
   10.8157  -16.1223   28.7949 C   0  0  0  0  0  0  0  0  0  0  0  0
   10.6830  -17.3706   28.6391 O   0  0  0  0  0  0  0  0  0  0  0  0
   11.6376  -15.6493   29.8159 O   0  0  0  0  0  0  0  0  0  0  0  0
  2  1  1  6
  2  9  1  0
  3  2  1  0
  4  8  1  0
  4  3  1  0
  5  4  2  0
  6  5  1  0
  6  7  1  0
  7  8  2  0
  9 10  2  0
 12 11  1  6
 13 12  1  0
 14 12  1  0
 15  9  1  0
 14 15  1  6
 16 14  1  0
 16 17  2  0
 18 16  1  0
 19 27  1  0
 19 18  1  0
 19 20  1  1
 21 20  1  0
 21 22  2  0
 23 22  1  0
 24 23  2  0
 25 26  2  0
 25 24  1  0
 26 21  1  0
 27 29  1  0
 28 27  2  0
M  END
$$$$
