HTF.pdb
     RDKit          3D

 29 30  0  0  1  0  0  0  0  0999 V2000
    9.5100  -17.6515   18.4115 N   0  0  0  0  0  0  0  0  0  0  0  0
   10.1298  -17.4795   19.7103 C   0  0  1  0  0  0  0  0  0  0  0  0
   11.0555  -16.2994   19.6368 C   0  0  0  0  0  0  0  0  0  0  0  0
   12.3158  -16.7505   19.0051 C   0  0  0  0  0  0  0  0  0  0  0  0
   12.5971  -18.0254   18.5740 C   0  0  0  0  0  0  0  0  0  0  0  0
   13.8433  -18.0651   18.0498 N   0  0  0  0  0  0  0  0  0  0  0  0
   14.3384  -16.8162   18.1540 C   0  0  0  0  0  0  0  0  0  0  0  0
   13.4031  -16.0130   18.7386 N   0  0  0  0  0  0  0  0  0  0  0  0
    9.1012  -17.3157   20.7833 C   0  0  0  0  0  0  0  0  0  0  0  0
    7.8916  -17.3682   20.4627 O   0  0  0  0  0  0  0  0  0  0  0  0
    7.3255  -19.0584   21.9931 C   0  0  0  0  0  0  0  0  0  0  0  0
    8.0602  -18.7417   23.2869 C   0  0  1  0  0  0  0  0  0  0  0  0
    8.9490  -19.7719   23.4943 O   0  0  0  0  0  0  0  0  0  0  0  0
    8.6368  -17.3759   23.3002 C   0  0  2  0  0  0  0  0  0  0  0  0
    9.4434  -17.1060   22.1322 N   0  0  0  0  0  0  0  0  0  0  0  0
    9.2731  -16.9857   24.5797 C   0  0  0  0  0  0  0  0  0  0  0  0
   10.5243  -16.9568   24.7761 O   0  0  0  0  0  0  0  0  0  0  0  0
    8.4611  -16.6162   25.6583 N   0  0  0  0  0  0  0  0  0  0  0  0
    9.0218  -16.1250   26.9313 C   0  0  1  0  0  0  0  0  0  0  0  0
    7.9268  -15.3579   27.5913 C   0  0  0  0  0  0  0  0  0  0  0  0
    7.4670  -14.1624   26.8937 C   0  0  0  0  0  0  0  0  0  0  0  0
    8.2267  -13.0136   26.8938 C   0  0  0  0  0  0  0  0  0  0  0  0
    7.7934  -11.8826   26.2309 C   0  0  0  0  0  0  0  0  0  0  0  0
    6.5667  -11.9337   25.5616 C   0  0  0  0  0  0  0  0  0  0  0  0
    5.7967  -13.0888   25.5581 C   0  0  0  0  0  0  0  0  0  0  0  0
    6.2545  -14.2082   26.2304 C   0  0  0  0  0  0  0  0  0  0  0  0
    9.4450  -17.3340   27.6794 C   0  0  0  0  0  0  0  0  0  0  0  0
   10.1715  -17.1626   28.7006 O   0  0  0  0  0  0  0  0  0  0  0  0
    9.0837  -18.6290   27.3131 O   0  0  0  0  0  0  0  0  0  0  0  0
  2  1  1  6
  2  9  1  0
  3  2  1  0
  4  8  1  0
  4  3  1  0
  5  4  2  0
  6  5  1  0
  6  7  1  0
  7  8  2  0
  9 10  2  0
 12 11  1  6
 13 12  1  0
 14 12  1  0
 15  9  1  0
 14 15  1  6
 16 14  1  0
 16 17  2  0
 18 16  1  0
 19 27  1  0
 19 18  1  0
 19 20  1  1
 21 20  1  0
 21 22  2  0
 23 22  1  0
 24 23  2  0
 25 26  2  0
 25 24  1  0
 26 21  1  0
 27 29  1  0
 28 27  2  0
M  END
$$$$
