HTF.pdb
     RDKit          3D

 29 30  0  0  1  0  0  0  0  0999 V2000
    7.9960  -17.3703   19.2223 N   0  0  0  0  0  0  0  0  0  0  0  0
    8.4149  -16.3774   20.1913 C   0  0  1  0  0  0  0  0  0  0  0  0
    7.4097  -15.2618   20.1861 C   0  0  0  0  0  0  0  0  0  0  0  0
    7.7808  -14.3222   19.1041 C   0  0  0  0  0  0  0  0  0  0  0  0
    8.8669  -14.4342   18.2684 C   0  0  0  0  0  0  0  0  0  0  0  0
    8.8866  -13.3939   17.4043 N   0  0  0  0  0  0  0  0  0  0  0  0
    7.8140  -12.6341   17.7010 C   0  0  0  0  0  0  0  0  0  0  0  0
    7.1384  -13.2031   18.7410 N   0  0  0  0  0  0  0  0  0  0  0  0
    8.5720  -16.9804   21.5506 C   0  0  0  0  0  0  0  0  0  0  0  0
    7.5969  -17.5875   22.0498 O   0  0  0  0  0  0  0  0  0  0  0  0
   11.0625  -19.5059   22.5539 C   0  0  0  0  0  0  0  0  0  0  0  0
   11.2252  -18.3705   23.5532 C   0  0  1  0  0  0  0  0  0  0  0  0
   12.4407  -17.7838   23.2841 O   0  0  0  0  0  0  0  0  0  0  0  0
   10.0571  -17.4580   23.5806 C   0  0  2  0  0  0  0  0  0  0  0  0
    9.7701  -16.8898   22.2834 N   0  0  0  0  0  0  0  0  0  0  0  0
   10.0688  -16.4713   24.6854 C   0  0  0  0  0  0  0  0  0  0  0  0
   10.5269  -15.2943   24.5876 O   0  0  0  0  0  0  0  0  0  0  0  0
    9.5415  -16.8370   25.9294 N   0  0  0  0  0  0  0  0  0  0  0  0
    9.6361  -15.9590   27.1112 C   0  0  1  0  0  0  0  0  0  0  0  0
    8.2351  -15.5784   27.4508 C   0  0  0  0  0  0  0  0  0  0  0  0
    7.8728  -14.1843   27.2211 C   0  0  0  0  0  0  0  0  0  0  0  0
    6.5977  -13.8464   26.8249 C   0  0  0  0  0  0  0  0  0  0  0  0
    6.2534  -12.5266   26.6104 C   0  0  0  0  0  0  0  0  0  0  0  0
    7.2301  -11.5450   26.8052 C   0  0  0  0  0  0  0  0  0  0  0  0
    8.5169  -11.8797   27.2044 C   0  0  0  0  0  0  0  0  0  0  0  0
    8.8353  -13.2101   27.4125 C   0  0  0  0  0  0  0  0  0  0  0  0
   10.3119  -16.7631   28.1586 C   0  0  0  0  0  0  0  0  0  0  0  0
   10.3322  -18.0187   28.0066 O   0  0  0  0  0  0  0  0  0  0  0  0
   10.9154  -16.2057   29.2840 O   0  0  0  0  0  0  0  0  0  0  0  0
  2  1  1  6
  2  9  1  0
  3  2  1  0
  4  8  1  0
  4  3  1  0
  5  4  2  0
  6  5  1  0
  6  7  1  0
  7  8  2  0
  9 10  2  0
 12 11  1  6
 13 12  1  0
 14 12  1  0
 15  9  1  0
 14 15  1  6
 16 14  1  0
 16 17  2  0
 18 16  1  0
 19 27  1  0
 19 18  1  0
 19 20  1  1
 21 20  1  0
 21 22  2  0
 23 22  1  0
 24 23  2  0
 25 26  2  0
 25 24  1  0
 26 21  1  0
 27 29  1  0
 28 27  2  0
M  END
$$$$
