HTF.pdb
     RDKit          3D

 29 30  0  0  1  0  0  0  0  0999 V2000
    6.8522  -17.0655   19.4274 N   0  0  0  0  0  0  0  0  0  0  0  0
    7.5383  -16.0452   20.1945 C   0  0  1  0  0  0  0  0  0  0  0  0
    7.0660  -14.7017   19.7183 C   0  0  0  0  0  0  0  0  0  0  0  0
    7.8063  -14.3740   18.4791 C   0  0  0  0  0  0  0  0  0  0  0  0
    8.7349  -15.1716   17.8529 C   0  0  0  0  0  0  0  0  0  0  0  0
    9.2026  -14.5463   16.7486 N   0  0  0  0  0  0  0  0  0  0  0  0
    8.5664  -13.3601   16.6863 C   0  0  0  0  0  0  0  0  0  0  0  0
    7.7125  -13.2559   17.7455 N   0  0  0  0  0  0  0  0  0  0  0  0
    7.3129  -16.2280   21.6615 C   0  0  0  0  0  0  0  0  0  0  0  0
    6.2176  -15.8625   22.1465 O   0  0  0  0  0  0  0  0  0  0  0  0
    6.5195  -18.8224   23.6082 C   0  0  0  0  0  0  0  0  0  0  0  0
    7.8056  -18.3815   24.2909 C   0  0  1  0  0  0  0  0  0  0  0  0
    8.7415  -19.3560   24.0286 O   0  0  0  0  0  0  0  0  0  0  0  0
    8.1968  -16.9957   23.9383 C   0  0  2  0  0  0  0  0  0  0  0  0
    8.2830  -16.7930   22.5102 N   0  0  0  0  0  0  0  0  0  0  0  0
    9.3548  -16.4681   24.6964 C   0  0  0  0  0  0  0  0  0  0  0  0
   10.5348  -16.3969   24.2410 O   0  0  0  0  0  0  0  0  0  0  0  0
    9.1592  -16.0078   26.0038 N   0  0  0  0  0  0  0  0  0  0  0  0
   10.2502  -15.4120   26.7981 C   0  0  1  0  0  0  0  0  0  0  0  0
    9.9826  -13.9454   26.8248 C   0  0  0  0  0  0  0  0  0  0  0  0
    8.6119  -13.5463   27.1239 C   0  0  0  0  0  0  0  0  0  0  0  0
    7.5870  -13.8491   26.2550 C   0  0  0  0  0  0  0  0  0  0  0  0
    6.2889  -13.4743   26.5392 C   0  0  0  0  0  0  0  0  0  0  0  0
    6.0427  -12.7812   27.7285 C   0  0  0  0  0  0  0  0  0  0  0  0
    7.0717  -12.4732   28.6079 C   0  0  0  0  0  0  0  0  0  0  0  0
    8.3635  -12.8606   28.2988 C   0  0  0  0  0  0  0  0  0  0  0  0
   10.1807  -16.0607   28.1303 C   0  0  0  0  0  0  0  0  0  0  0  0
   10.9361  -15.6084   29.0386 O   0  0  0  0  0  0  0  0  0  0  0  0
    9.3340  -17.1285   28.4208 O   0  0  0  0  0  0  0  0  0  0  0  0
  2  1  1  6
  2  9  1  0
  3  2  1  0
  4  8  1  0
  4  3  1  0
  5  4  2  0
  6  5  1  0
  6  7  1  0
  7  8  2  0
  9 10  2  0
 12 11  1  6
 13 12  1  0
 14 12  1  0
 15  9  1  0
 14 15  1  6
 16 14  1  0
 16 17  2  0
 18 16  1  0
 19 27  1  0
 19 18  1  0
 19 20  1  1
 21 20  1  0
 21 22  2  0
 23 22  1  0
 24 23  2  0
 25 26  2  0
 25 24  1  0
 26 21  1  0
 27 29  1  0
 28 27  2  0
M  END
$$$$
