ESV.pdb
     RDKit          3D

 23 22  0  0  1  0  0  0  0  0999 V2000
    8.5473  -13.3005   18.6190 N   0  0  0  0  0  0  0  0  0  0  0  0
    9.0673  -14.3490   19.4721 C   0  0  1  0  0  0  0  0  0  0  0  0
   10.5116  -14.0472   19.7567 C   0  0  0  0  0  0  0  0  0  0  0  0
   11.4919  -14.6796   18.8363 C   0  0  0  0  0  0  0  0  0  0  0  0
   12.8818  -14.5029   19.2445 C   0  0  0  0  0  0  0  0  0  0  0  0
   13.7222  -14.0113   18.4887 O   0  0  0  0  0  0  0  0  0  0  0  0
    8.3756  -14.3816   20.7873 C   0  0  0  0  0  0  0  0  0  0  0  0
    7.9684  -13.2846   21.2438 O   0  0  0  0  0  0  0  0  0  0  0  0
   13.2268  -14.9196   20.5456 O   0  0  0  0  0  0  0  0  0  0  0  0
    7.8398  -17.7822   23.5411 O   0  0  0  0  0  0  0  0  0  0  0  0
    6.8656  -16.9835   22.9518 C   0  0  0  0  0  0  0  0  0  0  0  0
    7.3532  -15.5749   22.6870 C   0  0  2  0  0  0  0  0  0  0  0  0
    8.1699  -15.5836   21.5179 N   0  0  0  0  0  0  0  0  0  0  0  0
    8.0257  -14.9879   23.8710 C   0  0  0  0  0  0  0  0  0  0  0  0
    9.2836  -14.9706   23.8867 O   0  0  0  0  0  0  0  0  0  0  0  0
    5.7977  -13.1445   26.9281 C   0  0  0  0  0  0  0  0  0  0  0  0
    7.2200  -12.6709   26.6708 C   0  0  2  0  0  0  0  0  0  0  0  0
    7.1552  -11.6166   25.5912 C   0  0  0  0  0  0  0  0  0  0  0  0
    7.9857  -13.8536   26.1304 C   0  0  2  0  0  0  0  0  0  0  0  0
    7.3510  -14.4471   24.9822 N   0  0  0  0  0  0  0  0  0  0  0  0
    8.1346  -14.9202   27.1695 C   0  0  0  0  0  0  0  0  0  0  0  0
    7.6074  -16.2005   26.9843 O   0  0  0  0  0  0  0  0  0  0  0  0
    8.7374  -14.7246   28.2578 O   0  0  0  0  0  0  0  0  0  0  0  0
  2  1  1  6
  2  7  1  0
  3  2  1  0
  4  3  1  0
  5  6  2  0
  5  4  1  0
  7 13  1  0
  8  7  2  0
  9  5  1  0
 10 11  1  0
 12 11  1  1
 12 14  1  0
 13 12  1  0
 14 20  1  0
 14 15  2  0
 17 16  1  6
 17 18  1  0
 19 17  1  0
 19 20  1  6
 21 19  1  0
 21 22  1  0
 23 21  2  0
M  END
$$$$
