ESV.pdb
     RDKit          3D

 23 22  0  0  1  0  0  0  0  0999 V2000
    9.1851  -14.3881   18.0727 N   0  0  0  0  0  0  0  0  0  0  0  0
    9.6873  -14.9924   19.2894 C   0  0  1  0  0  0  0  0  0  0  0  0
   10.9699  -14.3024   19.6595 C   0  0  0  0  0  0  0  0  0  0  0  0
   12.2154  -15.0097   19.2640 C   0  0  0  0  0  0  0  0  0  0  0  0
   13.4357  -14.3570   19.7271 C   0  0  0  0  0  0  0  0  0  0  0  0
   13.6931  -14.2394   20.9267 O   0  0  0  0  0  0  0  0  0  0  0  0
    8.7551  -14.7905   20.4292 C   0  0  0  0  0  0  0  0  0  0  0  0
    8.3196  -13.6262   20.6093 O   0  0  0  0  0  0  0  0  0  0  0  0
   14.3136  -13.8635   18.7416 O   0  0  0  0  0  0  0  0  0  0  0  0
    7.4201  -17.8912   23.0984 O   0  0  0  0  0  0  0  0  0  0  0  0
    6.6185  -16.8896   22.5611 C   0  0  0  0  0  0  0  0  0  0  0  0
    7.3839  -15.6082   22.3079 C   0  0  2  0  0  0  0  0  0  0  0  0
    8.3567  -15.8472   21.2928 N   0  0  0  0  0  0  0  0  0  0  0  0
    7.9589  -15.0487   23.5549 C   0  0  0  0  0  0  0  0  0  0  0  0
    9.2068  -15.1034   23.7054 O   0  0  0  0  0  0  0  0  0  0  0  0
    6.5427  -11.9124   25.7432 C   0  0  0  0  0  0  0  0  0  0  0  0
    6.7669  -13.1420   26.6099 C   0  0  2  0  0  0  0  0  0  0  0  0
    7.4474  -12.6816   27.8773 C   0  0  0  0  0  0  0  0  0  0  0  0
    7.7213  -14.0392   25.8608 C   0  0  2  0  0  0  0  0  0  0  0  0
    7.2019  -14.4588   24.5851 N   0  0  0  0  0  0  0  0  0  0  0  0
    8.0364  -15.2706   26.6507 C   0  0  0  0  0  0  0  0  0  0  0  0
    9.1969  -15.3678   27.4221 O   0  0  0  0  0  0  0  0  0  0  0  0
    7.2802  -16.2777   26.6636 O   0  0  0  0  0  0  0  0  0  0  0  0
  2  1  1  6
  2  7  1  0
  3  2  1  0
  4  3  1  0
  5  6  2  0
  5  4  1  0
  7 13  1  0
  8  7  2  0
  9  5  1  0
 10 11  1  0
 12 11  1  1
 12 14  1  0
 13 12  1  0
 14 20  1  0
 14 15  2  0
 17 16  1  6
 17 18  1  0
 19 17  1  0
 19 20  1  6
 21 19  1  0
 21 22  1  0
 23 21  2  0
M  END
$$$$
