ESV.pdb
     RDKit          3D

 23 22  0  0  1  0  0  0  0  0999 V2000
    9.4310  -16.2260   20.1467 N   0  0  0  0  0  0  0  0  0  0  0  0
    9.2729  -17.2207   21.1875 C   0  0  1  0  0  0  0  0  0  0  0  0
   10.5633  -17.9815   21.3073 C   0  0  0  0  0  0  0  0  0  0  0  0
   11.4761  -17.8831   20.1390 C   0  0  0  0  0  0  0  0  0  0  0  0
   12.6957  -18.6726   20.2764 C   0  0  0  0  0  0  0  0  0  0  0  0
   13.6815  -18.4726   19.5640 O   0  0  0  0  0  0  0  0  0  0  0  0
    9.0268  -16.5954   22.5132 C   0  0  0  0  0  0  0  0  0  0  0  0
    9.4297  -15.4160   22.6701 O   0  0  0  0  0  0  0  0  0  0  0  0
   12.7013  -19.6793   21.2624 O   0  0  0  0  0  0  0  0  0  0  0  0
    7.0184  -18.5355   25.7460 O   0  0  0  0  0  0  0  0  0  0  0  0
    6.8901  -17.1825   25.4505 C   0  0  0  0  0  0  0  0  0  0  0  0
    8.1370  -16.6080   24.8124 C   0  0  2  0  0  0  0  0  0  0  0  0
    8.3685  -17.2758   23.5737 N   0  0  0  0  0  0  0  0  0  0  0  0
    9.3006  -16.6495   25.7305 C   0  0  0  0  0  0  0  0  0  0  0  0
   10.2860  -17.3595   25.4022 O   0  0  0  0  0  0  0  0  0  0  0  0
    9.4229  -14.8038   29.6638 C   0  0  0  0  0  0  0  0  0  0  0  0
   10.5466  -14.6251   28.6546 C   0  0  2  0  0  0  0  0  0  0  0  0
   10.1947  -13.4343   27.7948 C   0  0  0  0  0  0  0  0  0  0  0  0
   10.5505  -15.8545   27.7795 C   0  0  2  0  0  0  0  0  0  0  0  0
    9.3786  -15.9468   26.9481 N   0  0  0  0  0  0  0  0  0  0  0  0
   10.6233  -17.1022   28.6027 C   0  0  0  0  0  0  0  0  0  0  0  0
    9.5715  -18.0211   28.6328 O   0  0  0  0  0  0  0  0  0  0  0  0
   11.6269  -17.3902   29.3069 O   0  0  0  0  0  0  0  0  0  0  0  0
  2  1  1  6
  2  7  1  0
  3  2  1  0
  4  3  1  0
  5  6  2  0
  5  4  1  0
  7 13  1  0
  8  7  2  0
  9  5  1  0
 10 11  1  0
 12 11  1  1
 12 14  1  0
 13 12  1  0
 14 20  1  0
 14 15  2  0
 17 16  1  1
 17 18  1  0
 19 17  1  0
 19 20  1  1
 21 19  1  0
 21 22  1  0
 23 21  2  0
M  END
$$$$
