ESV.pdb
     RDKit          3D

 23 22  0  0  1  0  0  0  0  0999 V2000
    9.5927  -15.9832   18.5895 N   0  0  0  0  0  0  0  0  0  0  0  0
   10.1443  -16.1835   19.9136 C   0  0  1  0  0  0  0  0  0  0  0  0
   11.3714  -15.3259   20.0438 C   0  0  0  0  0  0  0  0  0  0  0  0
   12.5537  -15.7764   19.2645 C   0  0  0  0  0  0  0  0  0  0  0  0
   13.7088  -14.8925   19.3831 C   0  0  0  0  0  0  0  0  0  0  0  0
   13.9074  -13.9743   18.5852 O   0  0  0  0  0  0  0  0  0  0  0  0
    9.2034  -15.7381   20.9744 C   0  0  0  0  0  0  0  0  0  0  0  0
    8.4879  -14.7381   20.7178 O   0  0  0  0  0  0  0  0  0  0  0  0
   14.5937  -15.1322   20.4531 O   0  0  0  0  0  0  0  0  0  0  0  0
    8.2411  -18.0882   24.3763 O   0  0  0  0  0  0  0  0  0  0  0  0
    7.3830  -17.2673   23.6523 C   0  0  0  0  0  0  0  0  0  0  0  0
    8.0684  -16.0162   23.1453 C   0  0  2  0  0  0  0  0  0  0  0  0
    9.0960  -16.3937   22.2313 N   0  0  0  0  0  0  0  0  0  0  0  0
    8.5522  -15.1593   24.2545 C   0  0  0  0  0  0  0  0  0  0  0  0
    9.7701  -15.2256   24.5631 O   0  0  0  0  0  0  0  0  0  0  0  0
    5.8923  -12.6873   26.4502 C   0  0  0  0  0  0  0  0  0  0  0  0
    7.3580  -12.2875   26.3780 C   0  0  2  0  0  0  0  0  0  0  0  0
    7.5273  -11.4156   25.1563 C   0  0  0  0  0  0  0  0  0  0  0  0
    8.1491  -13.5550   26.1667 C   0  0  2  0  0  0  0  0  0  0  0  0
    7.7397  -14.2740   24.9883 N   0  0  0  0  0  0  0  0  0  0  0  0
    8.0085  -14.4795   27.3351 C   0  0  0  0  0  0  0  0  0  0  0  0
    7.4068  -15.7337   27.2072 O   0  0  0  0  0  0  0  0  0  0  0  0
    8.4208  -14.1811   28.4871 O   0  0  0  0  0  0  0  0  0  0  0  0
  2  1  1  6
  2  7  1  0
  3  2  1  0
  4  3  1  0
  5  6  2  0
  5  4  1  0
  7 13  1  0
  8  7  2  0
  9  5  1  0
 10 11  1  0
 12 11  1  1
 12 14  1  0
 13 12  1  0
 14 20  1  0
 14 15  2  0
 17 16  1  6
 17 18  1  0
 19 17  1  0
 19 20  1  6
 21 19  1  0
 21 22  1  0
 23 21  2  0
M  END
$$$$
