ESV.pdb
     RDKit          3D

 23 22  0  0  1  0  0  0  0  0999 V2000
   10.5049  -15.3982   19.6699 N   0  0  0  0  0  0  0  0  0  0  0  0
   11.2708  -15.9427   20.7720 C   0  0  1  0  0  0  0  0  0  0  0  0
   12.5294  -15.1336   20.9118 C   0  0  0  0  0  0  0  0  0  0  0  0
   12.9542  -14.3938   19.6952 C   0  0  0  0  0  0  0  0  0  0  0  0
   14.3886  -14.4617   19.4355 C   0  0  0  0  0  0  0  0  0  0  0  0
   15.2164  -14.3959   20.3463 O   0  0  0  0  0  0  0  0  0  0  0  0
   10.5432  -15.8181   22.0620 C   0  0  0  0  0  0  0  0  0  0  0  0
    9.7873  -14.8237   22.1957 O   0  0  0  0  0  0  0  0  0  0  0  0
   14.7919  -14.6066   18.0932 O   0  0  0  0  0  0  0  0  0  0  0  0
    9.9273  -19.0478   24.6245 O   0  0  0  0  0  0  0  0  0  0  0  0
    9.0891  -17.9514   24.4517 C   0  0  0  0  0  0  0  0  0  0  0  0
    9.8558  -16.6579   24.2757 C   0  0  2  0  0  0  0  0  0  0  0  0
   10.6765  -16.7647   23.1142 N   0  0  0  0  0  0  0  0  0  0  0  0
   10.6097  -16.2881   25.4978 C   0  0  0  0  0  0  0  0  0  0  0  0
   11.8436  -16.5320   25.5261 O   0  0  0  0  0  0  0  0  0  0  0  0
    8.7265  -14.4802   28.8912 C   0  0  0  0  0  0  0  0  0  0  0  0
   10.1851  -14.1880   28.5743 C   0  0  2  0  0  0  0  0  0  0  0  0
   10.2125  -13.0236   27.6126 C   0  0  0  0  0  0  0  0  0  0  0  0
   10.7314  -15.4012   27.8624 C   0  0  2  0  0  0  0  0  0  0  0  0
   10.0377  -15.6811   26.6321 N   0  0  0  0  0  0  0  0  0  0  0  0
   10.6373  -16.6205   28.7250 C   0  0  0  0  0  0  0  0  0  0  0  0
    9.8207  -17.6999   28.3792 O   0  0  0  0  0  0  0  0  0  0  0  0
   11.2828  -16.7400   29.7998 O   0  0  0  0  0  0  0  0  0  0  0  0
  2  1  1  6
  2  7  1  0
  3  2  1  0
  4  3  1  0
  5  6  2  0
  5  4  1  0
  7 13  1  0
  8  7  2  0
  9  5  1  0
 10 11  1  0
 12 11  1  1
 12 14  1  0
 13 12  1  0
 14 20  1  0
 14 15  2  0
 17 16  1  6
 17 18  1  0
 19 17  1  0
 19 20  1  6
 21 19  1  0
 21 22  1  0
 23 21  2  0
M  END
$$$$
