ESV.pdb
     RDKit          3D

 23 22  0  0  1  0  0  0  0  0999 V2000
    9.1746  -18.5867   19.4633 N   0  0  0  0  0  0  0  0  0  0  0  0
    9.6373  -18.4415   20.8280 C   0  0  1  0  0  0  0  0  0  0  0  0
   10.9401  -17.6929   20.8031 C   0  0  0  0  0  0  0  0  0  0  0  0
   12.1521  -18.5064   21.0807 C   0  0  0  0  0  0  0  0  0  0  0  0
   13.3885  -17.7315   21.1057 C   0  0  0  0  0  0  0  0  0  0  0  0
   14.0748  -17.5726   20.0944 O   0  0  0  0  0  0  0  0  0  0  0  0
    8.6983  -17.6278   21.6435 C   0  0  0  0  0  0  0  0  0  0  0  0
    8.0918  -16.6982   21.0554 O   0  0  0  0  0  0  0  0  0  0  0  0
   13.7687  -17.1688   22.3403 O   0  0  0  0  0  0  0  0  0  0  0  0
    7.4960  -18.6722   25.5720 O   0  0  0  0  0  0  0  0  0  0  0  0
    6.7034  -18.0359   24.6226 C   0  0  0  0  0  0  0  0  0  0  0  0
    7.4994  -17.1045   23.7333 C   0  0  2  0  0  0  0  0  0  0  0  0
    8.4762  -17.8668   23.0272 N   0  0  0  0  0  0  0  0  0  0  0  0
    8.0748  -15.9682   24.4925 C   0  0  0  0  0  0  0  0  0  0  0  0
    9.3079  -15.9891   24.7413 O   0  0  0  0  0  0  0  0  0  0  0  0
    7.6203  -11.4987   26.5718 C   0  0  0  0  0  0  0  0  0  0  0  0
    6.8932  -12.6198   25.8453 C   0  0  2  0  0  0  0  0  0  0  0  0
    5.7593  -13.0718   26.7347 C   0  0  0  0  0  0  0  0  0  0  0  0
    7.8707  -13.7614   25.7096 C   0  0  2  0  0  0  0  0  0  0  0  0
    7.3337  -14.8642   24.9555 N   0  0  0  0  0  0  0  0  0  0  0  0
    8.2791  -14.2841   27.0511 C   0  0  0  0  0  0  0  0  0  0  0  0
    9.1591  -13.5775   27.8745 O   0  0  0  0  0  0  0  0  0  0  0  0
    7.8564  -15.3790   27.5076 O   0  0  0  0  0  0  0  0  0  0  0  0
  2  1  1  6
  2  7  1  0
  3  2  1  0
  4  3  1  0
  5  6  2  0
  5  4  1  0
  7 13  1  0
  8  7  2  0
  9  5  1  0
 10 11  1  0
 12 11  1  1
 12 14  1  0
 13 12  1  0
 14 20  1  0
 14 15  2  0
 17 16  1  1
 17 18  1  0
 19 17  1  0
 19 20  1  6
 21 19  1  0
 21 22  1  0
 23 21  2  0
M  END
$$$$
