ESV.pdb
     RDKit          3D

 23 22  0  0  1  0  0  0  0  0999 V2000
   11.3107  -18.5780   21.9467 N   0  0  0  0  0  0  0  0  0  0  0  0
   11.3403  -17.1738   21.5931 C   0  0  1  0  0  0  0  0  0  0  0  0
   11.2400  -17.0659   20.0975 C   0  0  0  0  0  0  0  0  0  0  0  0
   10.5009  -18.1649   19.4238 C   0  0  0  0  0  0  0  0  0  0  0  0
   10.3539  -17.9795   17.9838 C   0  0  0  0  0  0  0  0  0  0  0  0
    9.7818  -18.8122   17.2778 O   0  0  0  0  0  0  0  0  0  0  0  0
   10.1721  -16.4419   22.1486 C   0  0  0  0  0  0  0  0  0  0  0  0
   10.0723  -15.2241   21.8576 O   0  0  0  0  0  0  0  0  0  0  0  0
   10.8957  -16.8029   17.4293 O   0  0  0  0  0  0  0  0  0  0  0  0
    7.3879  -18.0640   24.9959 O   0  0  0  0  0  0  0  0  0  0  0  0
    7.0222  -17.2144   23.9572 C   0  0  0  0  0  0  0  0  0  0  0  0
    8.1454  -16.2874   23.5439 C   0  0  2  0  0  0  0  0  0  0  0  0
    9.1965  -17.0648   22.9740 N   0  0  0  0  0  0  0  0  0  0  0  0
    8.5922  -15.4227   24.6626 C   0  0  0  0  0  0  0  0  0  0  0  0
    9.7223  -15.6482   25.1674 O   0  0  0  0  0  0  0  0  0  0  0  0
    5.9449  -12.8098   26.6631 C   0  0  0  0  0  0  0  0  0  0  0  0
    7.3671  -12.3103   26.4601 C   0  0  2  0  0  0  0  0  0  0  0  0
    7.3923  -11.5382   25.1622 C   0  0  0  0  0  0  0  0  0  0  0  0
    8.2422  -13.5293   26.3013 C   0  0  2  0  0  0  0  0  0  0  0  0
    7.8362  -14.3635   25.2001 N   0  0  0  0  0  0  0  0  0  0  0  0
    8.2252  -14.3704   27.5391 C   0  0  0  0  0  0  0  0  0  0  0  0
    8.8565  -13.9554   28.7141 O   0  0  0  0  0  0  0  0  0  0  0  0
    7.6465  -15.4878   27.5895 O   0  0  0  0  0  0  0  0  0  0  0  0
  2  1  1  6
  2  7  1  0
  3  2  1  0
  4  3  1  0
  5  6  2  0
  5  4  1  0
  7 13  1  0
  8  7  2  0
  9  5  1  0
 10 11  1  0
 12 11  1  1
 12 14  1  0
 13 12  1  0
 14 20  1  0
 14 15  2  0
 17 16  1  6
 17 18  1  0
 19 17  1  0
 19 20  1  6
 21 19  1  0
 21 22  1  0
 23 21  2  0
M  END
$$$$
