ESV.pdb
     RDKit          3D

 23 22  0  0  1  0  0  0  0  0999 V2000
   10.6352  -16.7561   19.0345 N   0  0  0  0  0  0  0  0  0  0  0  0
   11.0487  -15.9691   20.1778 C   0  0  1  0  0  0  0  0  0  0  0  0
   11.7012  -14.7140   19.6705 C   0  0  0  0  0  0  0  0  0  0  0  0
   13.1425  -14.5633   19.9987 C   0  0  0  0  0  0  0  0  0  0  0  0
   13.9922  -14.3439   18.8326 C   0  0  0  0  0  0  0  0  0  0  0  0
   13.5188  -14.1889   17.7052 O   0  0  0  0  0  0  0  0  0  0  0  0
    9.8867  -15.5388   20.9986 C   0  0  0  0  0  0  0  0  0  0  0  0
    9.2376  -14.5443   20.5894 O   0  0  0  0  0  0  0  0  0  0  0  0
   15.3843  -14.3161   19.0487 O   0  0  0  0  0  0  0  0  0  0  0  0
    7.8630  -17.8779   23.8687 O   0  0  0  0  0  0  0  0  0  0  0  0
    7.3846  -16.8038   23.1258 C   0  0  0  0  0  0  0  0  0  0  0  0
    8.4131  -15.7042   22.9682 C   0  0  2  0  0  0  0  0  0  0  0  0
    9.5037  -16.2025   22.1960 N   0  0  0  0  0  0  0  0  0  0  0  0
    8.8265  -15.1385   24.2750 C   0  0  0  0  0  0  0  0  0  0  0  0
    9.9577  -15.4569   24.7243 O   0  0  0  0  0  0  0  0  0  0  0  0
    6.1044  -13.0449   26.7508 C   0  0  0  0  0  0  0  0  0  0  0  0
    7.5501  -12.5724   26.7569 C   0  0  2  0  0  0  0  0  0  0  0  0
    7.6789  -11.5030   25.6981 C   0  0  0  0  0  0  0  0  0  0  0  0
    8.3987  -13.7500   26.3443 C   0  0  2  0  0  0  0  0  0  0  0  0
    8.0375  -14.2670   25.0499 N   0  0  0  0  0  0  0  0  0  0  0  0
    8.2826  -14.8702   27.3298 C   0  0  0  0  0  0  0  0  0  0  0  0
    8.8797  -14.7999   28.5908 O   0  0  0  0  0  0  0  0  0  0  0  0
    7.6464  -15.9279   27.0796 O   0  0  0  0  0  0  0  0  0  0  0  0
  2  1  1  6
  2  7  1  0
  3  2  1  0
  4  3  1  0
  5  6  2  0
  5  4  1  0
  7 13  1  0
  8  7  2  0
  9  5  1  0
 10 11  1  0
 12 11  1  1
 12 14  1  0
 13 12  1  0
 14 20  1  0
 14 15  2  0
 17 16  1  6
 17 18  1  0
 19 17  1  0
 19 20  1  6
 21 19  1  0
 21 22  1  0
 23 21  2  0
M  END
$$$$
