ESV.pdb
     RDKit          3D

 23 22  0  0  1  0  0  0  0  0999 V2000
    8.6670  -18.4230   19.6076 N   0  0  0  0  0  0  0  0  0  0  0  0
    9.1335  -18.4977   20.9767 C   0  0  1  0  0  0  0  0  0  0  0  0
   10.5322  -17.9503   21.0248 C   0  0  0  0  0  0  0  0  0  0  0  0
   11.5357  -18.6834   20.2103 C   0  0  0  0  0  0  0  0  0  0  0  0
   12.8628  -18.0765   20.2247 C   0  0  0  0  0  0  0  0  0  0  0  0
   13.3263  -17.5072   19.2346 O   0  0  0  0  0  0  0  0  0  0  0  0
    8.3165  -17.6492   21.8831 C   0  0  0  0  0  0  0  0  0  0  0  0
    7.7204  -16.6724   21.3652 O   0  0  0  0  0  0  0  0  0  0  0  0
   13.5977  -18.1679   21.4235 O   0  0  0  0  0  0  0  0  0  0  0  0
    7.6046  -18.6181   25.9602 O   0  0  0  0  0  0  0  0  0  0  0  0
    6.6529  -18.0930   25.0925 C   0  0  0  0  0  0  0  0  0  0  0  0
    7.2592  -17.1689   24.0579 C   0  0  2  0  0  0  0  0  0  0  0  0
    8.1966  -17.9066   23.2761 N   0  0  0  0  0  0  0  0  0  0  0  0
    7.8356  -15.9487   24.6725 C   0  0  0  0  0  0  0  0  0  0  0  0
    9.0833  -15.8989   24.8264 O   0  0  0  0  0  0  0  0  0  0  0  0
    7.3756  -11.2817   26.2292 C   0  0  0  0  0  0  0  0  0  0  0  0
    6.6466  -12.4907   25.6631 C   0  0  2  0  0  0  0  0  0  0  0  0
    5.5127  -12.8153   26.6065 C   0  0  0  0  0  0  0  0  0  0  0  0
    7.6225  -13.6414   25.6843 C   0  0  2  0  0  0  0  0  0  0  0  0
    7.0802  -14.8390   25.0968 N   0  0  0  0  0  0  0  0  0  0  0  0
    8.0389  -13.9699   27.0837 C   0  0  0  0  0  0  0  0  0  0  0  0
    8.9244  -13.1555   27.7936 O   0  0  0  0  0  0  0  0  0  0  0  0
    7.6181  -14.9886   27.6930 O   0  0  0  0  0  0  0  0  0  0  0  0
  2  1  1  6
  2  7  1  0
  3  2  1  0
  4  3  1  0
  5  6  2  0
  5  4  1  0
  7 13  1  0
  8  7  2  0
  9  5  1  0
 10 11  1  0
 12 11  1  1
 12 14  1  0
 13 12  1  0
 14 20  1  0
 14 15  2  0
 17 16  1  1
 17 18  1  0
 19 17  1  0
 19 20  1  1
 21 19  1  0
 21 22  1  0
 23 21  2  0
M  END
$$$$
