ESV.pdb
     RDKit          3D

 23 22  0  0  1  0  0  0  0  0999 V2000
    9.0586  -17.0995   20.0320 N   0  0  0  0  0  0  0  0  0  0  0  0
    9.5309  -17.7813   21.2192 C   0  0  1  0  0  0  0  0  0  0  0  0
   11.0332  -17.7961   21.1837 C   0  0  0  0  0  0  0  0  0  0  0  0
   11.6402  -18.0641   19.8542 C   0  0  0  0  0  0  0  0  0  0  0  0
   13.0991  -18.0967   19.8686 C   0  0  0  0  0  0  0  0  0  0  0  0
   13.7730  -17.1958   19.3653 O   0  0  0  0  0  0  0  0  0  0  0  0
    9.1449  -17.0583   22.4590 C   0  0  0  0  0  0  0  0  0  0  0  0
    9.1278  -15.8035   22.4045 O   0  0  0  0  0  0  0  0  0  0  0  0
   13.7105  -19.2066   20.4851 O   0  0  0  0  0  0  0  0  0  0  0  0
    7.5850  -18.9378   25.9474 O   0  0  0  0  0  0  0  0  0  0  0  0
    7.2587  -17.6663   25.4879 C   0  0  0  0  0  0  0  0  0  0  0  0
    8.4264  -16.9756   24.8160 C   0  0  2  0  0  0  0  0  0  0  0  0
    8.8056  -17.7288   23.6658 N   0  0  0  0  0  0  0  0  0  0  0  0
    9.5461  -16.7344   25.7577 C   0  0  0  0  0  0  0  0  0  0  0  0
   10.5845  -17.4334   25.6309 O   0  0  0  0  0  0  0  0  0  0  0  0
    9.2834  -13.9228   28.9987 C   0  0  0  0  0  0  0  0  0  0  0  0
   10.6121  -14.1796   28.3046 C   0  0  2  0  0  0  0  0  0  0  0  0
   10.6980  -13.2322   27.1315 C   0  0  0  0  0  0  0  0  0  0  0  0
   10.5628  -15.5898   27.7699 C   0  0  2  0  0  0  0  0  0  0  0  0
    9.5267  -15.7741   26.7872 N   0  0  0  0  0  0  0  0  0  0  0  0
   10.3262  -16.5760   28.8704 C   0  0  0  0  0  0  0  0  0  0  0  0
    9.1496  -17.3259   28.9401 O   0  0  0  0  0  0  0  0  0  0  0  0
   11.1662  -16.7825   29.7857 O   0  0  0  0  0  0  0  0  0  0  0  0
  2  1  1  6
  2  7  1  0
  3  2  1  0
  4  3  1  0
  5  6  2  0
  5  4  1  0
  7 13  1  0
  8  7  2  0
  9  5  1  0
 10 11  1  0
 12 11  1  1
 12 14  1  0
 13 12  1  0
 14 20  1  0
 14 15  2  0
 17 16  1  6
 17 18  1  0
 19 17  1  0
 19 20  1  6
 21 19  1  0
 21 22  1  0
 23 21  2  0
M  END
$$$$
