QEL.pdb
     RDKit          3D

 27 26  0  0  1  0  0  0  0  0999 V2000
   30.2529  -19.7371  -16.8885 N   0  0  0  0  0  0  0  0  0  0  0  0
   29.4916  -18.8424  -17.6785 C   0  0  0  0  0  0  0  0  0  0  0  0
   29.8080  -18.6553  -18.8752 O   0  0  0  0  0  0  0  0  0  0  0  0
   28.3250  -18.1202  -17.1189 C   0  0  0  0  0  0  0  0  0  0  0  0
   28.3520  -18.1719  -15.6312 C   0  0  0  0  0  0  0  0  0  0  0  0
   28.0257  -19.5238  -15.0377 C   0  0  2  0  0  0  0  0  0  0  0  0
   27.3353  -20.2630  -16.0714 N   0  0  0  0  0  0  0  0  0  0  0  0
   27.2049  -19.4292  -13.8096 C   0  0  0  0  0  0  0  0  0  0  0  0
   27.5564  -18.6737  -12.8604 O   0  0  0  0  0  0  0  0  0  0  0  0
   25.9945  -20.1580  -13.6068 N   0  0  0  0  0  0  0  0  0  0  0  0
   25.2609  -20.0307  -12.4072 C   0  0  1  0  0  0  0  0  0  0  0  0
   23.8127  -20.4121  -12.5424 C   0  0  0  0  0  0  0  0  0  0  0  0
   22.9644  -20.1008  -11.3595 C   0  0  0  0  0  0  0  0  0  0  0  0
   21.5790  -20.5722  -11.3980 C   0  0  0  0  0  0  0  0  0  0  0  0
   20.7294  -20.2500  -12.2766 O   0  0  0  0  0  0  0  0  0  0  0  0
   25.8229  -20.7976  -11.2686 C   0  0  0  0  0  0  0  0  0  0  0  0
   26.2053  -21.9894  -11.3639 O   0  0  0  0  0  0  0  0  0  0  0  0
   21.0726  -21.4556  -10.4184 O   0  0  0  0  0  0  0  0  0  0  0  0
   28.7107  -18.9505   -6.4914 C   0  0  0  0  0  0  0  0  0  0  0  0
   27.9471  -20.2577   -6.8814 C   0  0  1  0  0  0  0  0  0  0  0  0
   27.1185  -20.5739   -5.6908 C   0  0  0  0  0  0  0  0  0  0  0  0
   27.2860  -19.9361   -8.1490 C   0  0  0  0  0  0  0  0  0  0  0  0
   26.3430  -20.8644   -8.7987 C   0  0  2  0  0  0  0  0  0  0  0  0
   25.9210  -20.1282  -10.0307 N   0  0  0  0  0  0  0  0  0  0  0  0
   25.0967  -21.0497   -8.0628 C   0  0  0  0  0  0  0  0  0  0  0  0
   24.1683  -20.2118   -8.1481 O   0  0  0  0  0  0  0  0  0  0  0  0
   24.8812  -22.1375   -7.2570 O   0  0  0  0  0  0  0  0  0  0  0  0
  2  3  2  0
  2  1  1  0
  4  2  1  0
  5  4  1  0
  6  8  1  0
  6  5  1  0
  6  7  1  6
  8  9  2  0
 10 11  1  0
 10  8  1  0
 11 12  1  6
 12 13  1  0
 13 14  1  0
 14 18  1  0
 15 14  2  0
 16 11  1  0
 17 16  2  0
 20 19  1  1
 20 22  1  0
 21 20  1  0
 23 22  1  1
 23 24  1  0
 24 16  1  0
 25 23  1  0
 25 27  1  0
 26 25  2  0
M  END
$$$$
