QEL.pdb
     RDKit          3D

 27 26  0  0  1  0  0  0  0  0999 V2000
   20.3484  -14.4343  -19.0697 N   0  0  0  0  0  0  0  0  0  0  0  0
   19.2145  -14.8322  -18.3215 C   0  0  0  0  0  0  0  0  0  0  0  0
   18.8001  -16.0101  -18.4104 O   0  0  0  0  0  0  0  0  0  0  0  0
   18.5048  -13.8826  -17.4324 C   0  0  0  0  0  0  0  0  0  0  0  0
   19.1087  -12.5260  -17.5405 C   0  0  0  0  0  0  0  0  0  0  0  0
   19.4400  -11.8723  -16.2179 C   0  0  2  0  0  0  0  0  0  0  0  0
   18.5073  -12.4139  -15.2544 N   0  0  0  0  0  0  0  0  0  0  0  0
   19.3570  -10.3954  -16.2701 C   0  0  0  0  0  0  0  0  0  0  0  0
   20.0366   -9.7446  -17.1128 O   0  0  0  0  0  0  0  0  0  0  0  0
   18.5326   -9.6164  -15.4035 N   0  0  0  0  0  0  0  0  0  0  0  0
   18.5605   -8.2055  -15.4469 C   0  0  1  0  0  0  0  0  0  0  0  0
   17.3587   -7.5587  -14.8159 C   0  0  0  0  0  0  0  0  0  0  0  0
   17.2410   -6.0916  -15.0385 C   0  0  0  0  0  0  0  0  0  0  0  0
   16.0476   -5.4358  -14.5011 C   0  0  0  0  0  0  0  0  0  0  0  0
   15.1167   -6.0237  -13.8802 O   0  0  0  0  0  0  0  0  0  0  0  0
   19.7690   -7.6037  -14.8323 C   0  0  0  0  0  0  0  0  0  0  0  0
   20.2936   -8.0386  -13.7780 O   0  0  0  0  0  0  0  0  0  0  0  0
   15.8428   -4.0449  -14.6429 O   0  0  0  0  0  0  0  0  0  0  0  0
   24.4918   -5.7534  -17.4602 C   0  0  0  0  0  0  0  0  0  0  0  0
   23.8815   -5.4246  -16.0590 C   0  0  1  0  0  0  0  0  0  0  0  0
   24.0921   -3.9643  -15.8946 C   0  0  0  0  0  0  0  0  0  0  0  0
   22.5143   -5.9487  -16.1185 C   0  0  0  0  0  0  0  0  0  0  0  0
   21.5909   -5.8613  -14.9727 C   0  0  2  0  0  0  0  0  0  0  0  0
   20.3350   -6.4900  -15.4875 N   0  0  0  0  0  0  0  0  0  0  0  0
   21.1859   -4.4984  -14.6445 C   0  0  0  0  0  0  0  0  0  0  0  0
   21.7980   -3.8375  -13.7728 O   0  0  0  0  0  0  0  0  0  0  0  0
   20.1336   -3.8806  -15.2689 O   0  0  0  0  0  0  0  0  0  0  0  0
  2  3  2  0
  2  1  1  0
  4  2  1  0
  5  4  1  0
  6  8  1  0
  6  5  1  0
  6  7  1  1
  8  9  2  0
 10 11  1  0
 10  8  1  0
 11 12  1  1
 12 13  1  0
 13 14  1  0
 14 18  1  0
 15 14  2  0
 16 11  1  0
 17 16  2  0
 20 19  1  6
 20 22  1  0
 21 20  1  0
 23 22  1  6
 23 24  1  0
 24 16  1  0
 25 23  1  0
 25 27  1  0
 26 25  2  0
M  END
$$$$
