QEL.pdb
     RDKit          3D

 27 26  0  0  1  0  0  0  0  0999 V2000
   27.1562  -11.5333  -15.5023 N   0  0  0  0  0  0  0  0  0  0  0  0
   27.2348  -12.8150  -16.0980 C   0  0  0  0  0  0  0  0  0  0  0  0
   28.0480  -13.6542  -15.6489 O   0  0  0  0  0  0  0  0  0  0  0  0
   26.3734  -13.1869  -17.2450 C   0  0  0  0  0  0  0  0  0  0  0  0
   25.4042  -12.0949  -17.5369 C   0  0  0  0  0  0  0  0  0  0  0  0
   23.9675  -12.4126  -17.1890 C   0  0  2  0  0  0  0  0  0  0  0  0
   23.5325  -13.4113  -18.1403 N   0  0  0  0  0  0  0  0  0  0  0  0
   23.0902  -11.2211  -17.2265 C   0  0  0  0  0  0  0  0  0  0  0  0
   22.8039  -10.6703  -18.3265 O   0  0  0  0  0  0  0  0  0  0  0  0
   22.5184  -10.6205  -16.0646 N   0  0  0  0  0  0  0  0  0  0  0  0
   21.7164   -9.4628  -16.1639 C   0  0  1  0  0  0  0  0  0  0  0  0
   20.3579   -9.6145  -15.5375 C   0  0  0  0  0  0  0  0  0  0  0  0
   19.4913  -10.6567  -16.1528 C   0  0  0  0  0  0  0  0  0  0  0  0
   18.1809  -10.8736  -15.5372 C   0  0  0  0  0  0  0  0  0  0  0  0
   17.0754  -10.8044  -16.1460 O   0  0  0  0  0  0  0  0  0  0  0  0
   22.3397   -8.2428  -15.5951 C   0  0  0  0  0  0  0  0  0  0  0  0
   23.0829   -8.2578  -14.5836 O   0  0  0  0  0  0  0  0  0  0  0  0
   18.0529  -11.1886  -14.1658 O   0  0  0  0  0  0  0  0  0  0  0  0
   23.1716   -2.8906  -17.5723 C   0  0  0  0  0  0  0  0  0  0  0  0
   24.1387   -4.0099  -17.0665 C   0  0  1  0  0  0  0  0  0  0  0  0
   24.6834   -3.4823  -15.7902 C   0  0  0  0  0  0  0  0  0  0  0  0
   23.3205   -5.2254  -17.0478 C   0  0  0  0  0  0  0  0  0  0  0  0
   22.7366   -5.7580  -15.8033 C   0  0  2  0  0  0  0  0  0  0  0  0
   22.0665   -7.0206  -16.2443 N   0  0  0  0  0  0  0  0  0  0  0  0
   21.6415   -4.9521  -15.2738 C   0  0  0  0  0  0  0  0  0  0  0  0
   20.4803   -5.0634  -15.7325 O   0  0  0  0  0  0  0  0  0  0  0  0
   21.8257   -4.0497  -14.2585 O   0  0  0  0  0  0  0  0  0  0  0  0
  2  3  2  0
  2  1  1  0
  4  2  1  0
  5  4  1  0
  6  8  1  0
  6  5  1  0
  6  7  1  6
  8  9  2  0
 10 11  1  0
 10  8  1  0
 11 12  1  1
 12 13  1  0
 13 14  1  0
 14 18  1  0
 15 14  2  0
 16 11  1  0
 17 16  2  0
 20 19  1  1
 20 22  1  0
 21 20  1  0
 23 22  1  6
 23 24  1  0
 24 16  1  0
 25 23  1  0
 25 27  1  0
 26 25  2  0
M  END
$$$$
