QEL.pdb
     RDKit          3D

 27 26  0  0  1  0  0  0  0  0999 V2000
   15.0207  -12.7282  -14.3784 N   0  0  0  0  0  0  0  0  0  0  0  0
   16.3552  -12.9454  -14.7976 C   0  0  0  0  0  0  0  0  0  0  0  0
   17.0554  -13.7987  -14.2069 O   0  0  0  0  0  0  0  0  0  0  0  0
   16.9440  -12.1830  -15.9236 C   0  0  0  0  0  0  0  0  0  0  0  0
   15.9656  -11.1854  -16.4379 C   0  0  0  0  0  0  0  0  0  0  0  0
   16.4069  -10.4475  -17.6817 C   0  0  2  0  0  0  0  0  0  0  0  0
   16.9829  -11.4425  -18.5590 N   0  0  0  0  0  0  0  0  0  0  0  0
   17.3739   -9.3643  -17.3945 C   0  0  0  0  0  0  0  0  0  0  0  0
   18.6133   -9.5541  -17.5480 O   0  0  0  0  0  0  0  0  0  0  0  0
   16.9972   -8.0656  -16.9374 N   0  0  0  0  0  0  0  0  0  0  0  0
   17.9711   -7.0853  -16.6481 C   0  0  1  0  0  0  0  0  0  0  0  0
   17.3931   -5.7277  -16.3585 C   0  0  0  0  0  0  0  0  0  0  0  0
   18.3852   -4.6202  -16.2897 C   0  0  0  0  0  0  0  0  0  0  0  0
   17.8570   -3.2733  -16.0658 C   0  0  0  0  0  0  0  0  0  0  0  0
   18.4029   -2.3934  -15.3411 O   0  0  0  0  0  0  0  0  0  0  0  0
   18.8722   -7.4389  -15.5242 C   0  0  0  0  0  0  0  0  0  0  0  0
   18.4966   -8.0938  -14.5213 O   0  0  0  0  0  0  0  0  0  0  0  0
   16.6528   -2.8436  -16.6672 O   0  0  0  0  0  0  0  0  0  0  0  0
   22.4239   -9.7755  -13.1472 C   0  0  0  0  0  0  0  0  0  0  0  0
   23.0966   -9.0312  -14.3461 C   0  0  1  0  0  0  0  0  0  0  0  0
   23.9254  -10.0685  -15.0104 C   0  0  0  0  0  0  0  0  0  0  0  0
   21.9811   -8.4277  -15.0801 C   0  0  0  0  0  0  0  0  0  0  0  0
   21.1878   -7.3160  -14.5250 C   0  0  2  0  0  0  0  0  0  0  0  0
   20.2115   -7.0052  -15.6150 N   0  0  0  0  0  0  0  0  0  0  0  0
   21.9396   -6.0751  -14.3700 C   0  0  0  0  0  0  0  0  0  0  0  0
   22.2211   -5.6311  -13.2321 O   0  0  0  0  0  0  0  0  0  0  0  0
   22.3736   -5.3467  -15.4471 O   0  0  0  0  0  0  0  0  0  0  0  0
  2  3  2  0
  2  1  1  0
  4  2  1  0
  5  4  1  0
  6  8  1  0
  6  5  1  0
  6  7  1  6
  8  9  2  0
 10 11  1  0
 10  8  1  0
 11 12  1  1
 12 13  1  0
 13 14  1  0
 14 18  1  0
 15 14  2  0
 16 11  1  0
 17 16  2  0
 20 19  1  1
 20 22  1  0
 21 20  1  0
 23 22  1  6
 23 24  1  0
 24 16  1  0
 25 23  1  0
 25 27  1  0
 26 25  2  0
M  END
$$$$
