QEL.pdb
     RDKit          3D

 27 26  0  0  1  0  0  0  0  0999 V2000
   30.7764  -22.7755  -16.7491 N   0  0  0  0  0  0  0  0  0  0  0  0
   30.3950  -22.4915  -18.0825 C   0  0  0  0  0  0  0  0  0  0  0  0
   31.0123  -23.0318  -19.0281 O   0  0  0  0  0  0  0  0  0  0  0  0
   29.2779  -21.5661  -18.3850 C   0  0  0  0  0  0  0  0  0  0  0  0
   28.8076  -20.9012  -17.1385 C   0  0  0  0  0  0  0  0  0  0  0  0
   28.0617  -21.8034  -16.1814 C   0  0  2  0  0  0  0  0  0  0  0  0
   27.3799  -22.7833  -16.9978 N   0  0  0  0  0  0  0  0  0  0  0  0
   27.1076  -21.0665  -15.3226 C   0  0  0  0  0  0  0  0  0  0  0  0
   27.4569  -19.9980  -14.7467 O   0  0  0  0  0  0  0  0  0  0  0  0
   25.7651  -21.4891  -15.0848 N   0  0  0  0  0  0  0  0  0  0  0  0
   24.8853  -20.7109  -14.3015 C   0  0  1  0  0  0  0  0  0  0  0  0
   23.6004  -20.3644  -15.0016 C   0  0  0  0  0  0  0  0  0  0  0  0
   22.7008  -19.4451  -14.2524 C   0  0  0  0  0  0  0  0  0  0  0  0
   21.3794  -19.1970  -14.8316 C   0  0  0  0  0  0  0  0  0  0  0  0
   21.1643  -18.8952  -16.0400 O   0  0  0  0  0  0  0  0  0  0  0  0
   24.5349  -21.3213  -12.9958 C   0  0  0  0  0  0  0  0  0  0  0  0
   24.1391  -22.5063  -12.8746 O   0  0  0  0  0  0  0  0  0  0  0  0
   20.2043  -19.2807  -14.0515 O   0  0  0  0  0  0  0  0  0  0  0  0
   26.9196  -19.3731   -8.2252 C   0  0  0  0  0  0  0  0  0  0  0  0
   26.5075  -20.5003   -9.2269 C   0  0  1  0  0  0  0  0  0  0  0  0
   26.8018  -21.7645   -8.5063 C   0  0  0  0  0  0  0  0  0  0  0  0
   25.1219  -20.1872   -9.5869 C   0  0  0  0  0  0  0  0  0  0  0  0
   24.3355  -21.0425  -10.4942 C   0  0  2  0  0  0  0  0  0  0  0  0
   24.6635  -20.5062  -11.8516 N   0  0  0  0  0  0  0  0  0  0  0  0
   22.8934  -20.8485  -10.3851 C   0  0  0  0  0  0  0  0  0  0  0  0
   22.3083  -19.9741  -11.0665 O   0  0  0  0  0  0  0  0  0  0  0  0
   22.1176  -21.6066   -9.5470 O   0  0  0  0  0  0  0  0  0  0  0  0
  2  3  2  0
  2  1  1  0
  4  2  1  0
  5  4  1  0
  6  8  1  0
  6  5  1  0
  6  7  1  6
  8  9  2  0
 10 11  1  0
 10  8  1  0
 11 12  1  6
 12 13  1  0
 13 14  1  0
 14 18  1  0
 15 14  2  0
 16 11  1  0
 17 16  2  0
 20 19  1  1
 20 22  1  0
 21 20  1  0
 23 22  1  1
 23 24  1  0
 24 16  1  0
 25 23  1  0
 25 27  1  0
 26 25  2  0
M  END
$$$$
