QEL.pdb
     RDKit          3D

 27 26  0  0  1  0  0  0  0  0999 V2000
   17.0496  -25.2376    2.6779 N   0  0  0  0  0  0  0  0  0  0  0  0
   16.1154  -25.6384    1.6927 C   0  0  0  0  0  0  0  0  0  0  0  0
   16.2504  -26.7493    1.1315 O   0  0  0  0  0  0  0  0  0  0  0  0
   14.9776  -24.7697    1.3096 C   0  0  0  0  0  0  0  0  0  0  0  0
   14.9615  -23.5410    2.1502 C   0  0  0  0  0  0  0  0  0  0  0  0
   13.8058  -22.6039    1.8811 C   0  0  2  0  0  0  0  0  0  0  0  0
   13.6781  -22.5222    0.4428 N   0  0  0  0  0  0  0  0  0  0  0  0
   14.0022  -21.2633    2.4771 C   0  0  0  0  0  0  0  0  0  0  0  0
   14.0958  -20.2417    1.7402 O   0  0  0  0  0  0  0  0  0  0  0  0
   14.0984  -21.0262    3.8814 N   0  0  0  0  0  0  0  0  0  0  0  0
   14.1886  -19.7135    4.3930 C   0  0  1  0  0  0  0  0  0  0  0  0
   13.6187  -19.5648    5.7765 C   0  0  0  0  0  0  0  0  0  0  0  0
   13.4574  -18.1614    6.2458 C   0  0  0  0  0  0  0  0  0  0  0  0
   14.0120  -17.8371    7.5613 C   0  0  0  0  0  0  0  0  0  0  0  0
   13.9865  -18.6035    8.5660 O   0  0  0  0  0  0  0  0  0  0  0  0
   15.5663  -19.1640    4.4134 C   0  0  0  0  0  0  0  0  0  0  0  0
   16.5936  -19.8844    4.4544 O   0  0  0  0  0  0  0  0  0  0  0  0
   14.6402  -16.5965    7.8118 O   0  0  0  0  0  0  0  0  0  0  0  0
   19.0151  -16.0003    2.1200 C   0  0  0  0  0  0  0  0  0  0  0  0
   18.0397  -15.1737    3.0195 C   0  0  1  0  0  0  0  0  0  0  0  0
   17.7579  -13.9465    2.2330 C   0  0  0  0  0  0  0  0  0  0  0  0
   16.9432  -16.0974    3.3227 C   0  0  0  0  0  0  0  0  0  0  0  0
   17.0502  -17.1215    4.3777 C   0  0  2  0  0  0  0  0  0  0  0  0
   15.6974  -17.7598    4.3834 N   0  0  0  0  0  0  0  0  0  0  0  0
   17.1785  -16.5710    5.7229 C   0  0  0  0  0  0  0  0  0  0  0  0
   16.1813  -16.1124    6.3283 O   0  0  0  0  0  0  0  0  0  0  0  0
   18.3789  -16.5339    6.3836 O   0  0  0  0  0  0  0  0  0  0  0  0
  2  3  2  0
  2  1  1  0
  4  2  1  0
  5  4  1  0
  6  8  1  0
  6  5  1  0
  6  7  1  6
  8  9  2  0
 10 11  1  0
 10  8  1  0
 11 12  1  1
 12 13  1  0
 13 14  1  0
 14 18  1  0
 15 14  2  0
 16 11  1  0
 17 16  2  0
 20 19  1  6
 20 22  1  0
 21 20  1  0
 23 22  1  6
 23 24  1  0
 24 16  1  0
 25 23  1  0
 25 27  1  0
 26 25  2  0
M  END
$$$$
