QEL.pdb
     RDKit          3D

 27 26  0  0  1  0  0  0  0  0999 V2000
   28.1717  -25.3016  -16.5322 N   0  0  0  0  0  0  0  0  0  0  0  0
   29.0633  -24.7967  -17.5090 C   0  0  0  0  0  0  0  0  0  0  0  0
   29.0080  -25.2366  -18.6797 O   0  0  0  0  0  0  0  0  0  0  0  0
   30.0639  -23.7557  -17.1757 C   0  0  0  0  0  0  0  0  0  0  0  0
   29.4361  -22.6799  -16.3600 C   0  0  0  0  0  0  0  0  0  0  0  0
   28.4788  -21.7872  -17.1170 C   0  0  2  0  0  0  0  0  0  0  0  0
   29.2973  -20.9034  -17.9174 N   0  0  0  0  0  0  0  0  0  0  0  0
   27.5800  -21.0211  -16.2247 C   0  0  0  0  0  0  0  0  0  0  0  0
   27.9767  -19.9534  -15.6786 O   0  0  0  0  0  0  0  0  0  0  0  0
   26.2417  -21.4134  -15.9206 N   0  0  0  0  0  0  0  0  0  0  0  0
   25.4358  -20.6410  -15.0562 C   0  0  1  0  0  0  0  0  0  0  0  0
   24.1364  -20.2033  -15.6734 C   0  0  0  0  0  0  0  0  0  0  0  0
   23.2792  -19.3519  -14.8040 C   0  0  0  0  0  0  0  0  0  0  0  0
   21.9843  -18.9428  -15.3508 C   0  0  0  0  0  0  0  0  0  0  0  0
   21.0642  -18.3827  -14.6895 O   0  0  0  0  0  0  0  0  0  0  0  0
   25.1200  -21.3045  -13.7676 C   0  0  0  0  0  0  0  0  0  0  0  0
   24.7766  -22.5087  -13.6800 O   0  0  0  0  0  0  0  0  0  0  0  0
   21.6575  -19.1523  -16.7094 O   0  0  0  0  0  0  0  0  0  0  0  0
   26.3624  -21.5785   -8.4721 C   0  0  0  0  0  0  0  0  0  0  0  0
   25.4956  -20.3406   -8.8724 C   0  0  1  0  0  0  0  0  0  0  0  0
   25.9936  -19.2420   -8.0070 C   0  0  0  0  0  0  0  0  0  0  0  0
   25.6513  -20.2341  -10.3256 C   0  0  0  0  0  0  0  0  0  0  0  0
   24.9157  -21.1067  -11.2587 C   0  0  2  0  0  0  0  0  0  0  0  0
   25.2200  -20.5188  -12.6002 N   0  0  0  0  0  0  0  0  0  0  0  0
   23.4648  -20.9932  -11.1525 C   0  0  0  0  0  0  0  0  0  0  0  0
   22.8040  -21.8085  -10.4672 O   0  0  0  0  0  0  0  0  0  0  0  0
   22.7635  -19.9993  -11.7845 O   0  0  0  0  0  0  0  0  0  0  0  0
  2  3  2  0
  2  1  1  0
  4  2  1  0
  5  4  1  0
  6  8  1  0
  6  5  1  0
  6  7  1  1
  8  9  2  0
 10 11  1  0
 10  8  1  0
 11 12  1  6
 12 13  1  0
 13 14  1  0
 14 18  1  0
 15 14  2  0
 16 11  1  0
 17 16  2  0
 20 19  1  1
 20 22  1  0
 21 20  1  0
 23 22  1  1
 23 24  1  0
 24 16  1  0
 25 23  1  0
 25 27  1  0
 26 25  2  0
M  END
$$$$
