QEL.pdb
     RDKit          3D

 27 26  0  0  1  0  0  0  0  0999 V2000
   26.0285  -37.2171  -14.9780 N   0  0  0  0  0  0  0  0  0  0  0  0
   25.9999  -38.6254  -15.1191 C   0  0  0  0  0  0  0  0  0  0  0  0
   26.3457  -39.1427  -16.2054 O   0  0  0  0  0  0  0  0  0  0  0  0
   25.5685  -39.5037  -14.0064 C   0  0  0  0  0  0  0  0  0  0  0  0
   25.3056  -38.6954  -12.7840 C   0  0  0  0  0  0  0  0  0  0  0  0
   23.8995  -38.8083  -12.2396 C   0  0  2  0  0  0  0  0  0  0  0  0
   23.0392  -38.1590  -13.2038 N   0  0  0  0  0  0  0  0  0  0  0  0
   23.7523  -38.2009  -10.8978 C   0  0  0  0  0  0  0  0  0  0  0  0
   23.3453  -37.0116  -10.7738 O   0  0  0  0  0  0  0  0  0  0  0  0
   24.0480  -38.8855   -9.6807 N   0  0  0  0  0  0  0  0  0  0  0  0
   23.7976  -38.2839   -8.4283 C   0  0  1  0  0  0  0  0  0  0  0  0
   23.6796  -39.2692   -7.2986 C   0  0  0  0  0  0  0  0  0  0  0  0
   23.2348  -38.6919   -6.0007 C   0  0  0  0  0  0  0  0  0  0  0  0
   23.0416  -39.6290   -4.8927 C   0  0  0  0  0  0  0  0  0  0  0  0
   22.6836  -39.3044   -3.7248 O   0  0  0  0  0  0  0  0  0  0  0  0
   24.8015  -37.2658   -8.0332 C   0  0  0  0  0  0  0  0  0  0  0  0
   26.0356  -37.4120   -8.2096 O   0  0  0  0  0  0  0  0  0  0  0  0
   23.2491  -41.0172   -5.0555 O   0  0  0  0  0  0  0  0  0  0  0  0
   24.9500  -32.0768   -9.5579 C   0  0  0  0  0  0  0  0  0  0  0  0
   25.8152  -33.0814   -8.7296 C   0  0  1  0  0  0  0  0  0  0  0  0
   26.7735  -32.2238   -7.9878 C   0  0  0  0  0  0  0  0  0  0  0  0
   24.8406  -33.8795   -7.9809 C   0  0  0  0  0  0  0  0  0  0  0  0
   25.2494  -34.9715   -7.0788 C   0  0  2  0  0  0  0  0  0  0  0  0
   24.3157  -36.0852   -7.4330 N   0  0  0  0  0  0  0  0  0  0  0  0
   24.9614  -34.7130   -5.6719 C   0  0  0  0  0  0  0  0  0  0  0  0
   23.8593  -35.0374   -5.1705 O   0  0  0  0  0  0  0  0  0  0  0  0
   25.8721  -34.1155   -4.8396 O   0  0  0  0  0  0  0  0  0  0  0  0
  2  3  2  0
  2  1  1  0
  4  2  1  0
  5  4  1  0
  6  8  1  0
  6  5  1  0
  6  7  1  6
  8  9  2  0
 10 11  1  0
 10  8  1  0
 11 12  1  1
 12 13  1  0
 13 14  1  0
 14 18  1  0
 15 14  2  0
 16 11  1  0
 17 16  2  0
 20 19  1  6
 20 22  1  0
 21 20  1  0
 23 22  1  6
 23 24  1  0
 24 16  1  0
 25 23  1  0
 25 27  1  0
 26 25  2  0
M  END
$$$$
