QEL.pdb
     RDKit          3D

 27 26  0  0  1  0  0  0  0  0999 V2000
   17.3597  -16.1677  -15.3748 N   0  0  0  0  0  0  0  0  0  0  0  0
   16.8104  -16.3477  -16.6670 C   0  0  0  0  0  0  0  0  0  0  0  0
   16.0798  -17.3389  -16.8931 O   0  0  0  0  0  0  0  0  0  0  0  0
   17.0817  -15.3864  -17.7615 C   0  0  0  0  0  0  0  0  0  0  0  0
   18.0341  -14.3381  -17.3024 C   0  0  0  0  0  0  0  0  0  0  0  0
   17.3907  -13.1507  -16.6226 C   0  0  2  0  0  0  0  0  0  0  0  0
   16.0469  -13.0622  -17.1500 N   0  0  0  0  0  0  0  0  0  0  0  0
   18.1349  -11.8902  -16.8419 C   0  0  0  0  0  0  0  0  0  0  0  0
   19.3873  -11.8493  -16.6828 O   0  0  0  0  0  0  0  0  0  0  0  0
   17.5192  -10.6642  -17.2361 N   0  0  0  0  0  0  0  0  0  0  0  0
   18.2562   -9.4607  -17.2784 C   0  0  1  0  0  0  0  0  0  0  0  0
   17.4255   -8.2566  -17.6266 C   0  0  0  0  0  0  0  0  0  0  0  0
   18.1983   -7.0157  -17.9073 C   0  0  0  0  0  0  0  0  0  0  0  0
   17.8848   -6.3095  -19.1507 C   0  0  0  0  0  0  0  0  0  0  0  0
   18.4787   -5.2730  -19.5634 O   0  0  0  0  0  0  0  0  0  0  0  0
   18.9887   -9.1539  -16.0255 C   0  0  0  0  0  0  0  0  0  0  0  0
   18.5094   -9.3520  -14.8824 O   0  0  0  0  0  0  0  0  0  0  0  0
   16.8564   -6.7532  -20.0122 O   0  0  0  0  0  0  0  0  0  0  0  0
   22.6820  -10.1912  -12.9005 C   0  0  0  0  0  0  0  0  0  0  0  0
   23.3231   -9.6135  -14.2040 C   0  0  1  0  0  0  0  0  0  0  0  0
   24.4196  -10.5596  -14.5303 C   0  0  0  0  0  0  0  0  0  0  0  0
   22.2012   -9.4689  -15.1356 C   0  0  0  0  0  0  0  0  0  0  0  0
   21.1616   -8.4391  -14.9567 C   0  0  2  0  0  0  0  0  0  0  0  0
   20.2857   -8.6148  -16.1565 N   0  0  0  0  0  0  0  0  0  0  0  0
   21.6567   -7.0727  -15.0871 C   0  0  0  0  0  0  0  0  0  0  0  0
   22.0925   -6.4483  -14.0913 O   0  0  0  0  0  0  0  0  0  0  0  0
   21.6741   -6.4157  -16.2900 O   0  0  0  0  0  0  0  0  0  0  0  0
  2  3  2  0
  2  1  1  0
  4  2  1  0
  5  4  1  0
  6  8  1  0
  6  5  1  0
  6  7  1  6
  8  9  2  0
 10 11  1  0
 10  8  1  0
 11 12  1  1
 12 13  1  0
 13 14  1  0
 14 18  1  0
 15 14  2  0
 16 11  1  0
 17 16  2  0
 20 19  1  1
 20 22  1  0
 21 20  1  0
 23 22  1  6
 23 24  1  0
 24 16  1  0
 25 23  1  0
 25 27  1  0
 26 25  2  0
M  END
$$$$
