CRC.pdb
     RDKit          3D

 24 23  0  0  1  0  0  0  0  0999 V2000
   27.9754  -22.8520  -18.2721 N   0  0  0  0  0  0  0  0  0  0  0  0
   27.3356  -23.3143  -17.0566 C   0  0  1  0  0  0  0  0  0  0  0  0
   28.0878  -24.5305  -16.5699 C   0  0  0  0  0  0  0  0  0  0  0  0
   27.4642  -26.0731  -17.2342 S   0  0  0  0  0  0  0  0  0  0  0  0
   27.3850  -22.2087  -16.0496 C   0  0  0  0  0  0  0  0  0  0  0  0
   28.1012  -21.2001  -16.2570 O   0  0  0  0  0  0  0  0  0  0  0  0
   22.8454  -21.5316  -17.6193 N   0  0  0  0  0  0  0  0  0  0  0  0
   22.0641  -20.4212  -17.2557 C   0  0  0  0  0  0  0  0  0  0  0  0
   20.7843  -20.4269  -17.5179 N   0  0  0  0  0  0  0  0  0  0  0  0
   22.5822  -19.2730  -16.6145 N   0  0  0  0  0  0  0  0  0  0  0  0
   23.9118  -19.1190  -16.1434 C   0  0  0  0  0  0  0  0  0  0  0  0
   24.4204  -20.2487  -15.2942 C   0  0  0  0  0  0  0  0  0  0  0  0
   25.7971  -19.9909  -14.7985 C   0  0  0  0  0  0  0  0  0  0  0  0
   26.3802  -21.1299  -13.9906 C   0  0  2  0  0  0  0  0  0  0  0  0
   26.6254  -22.2844  -14.8499 N   0  0  0  0  0  0  0  0  0  0  0  0
   25.5955  -21.5040  -12.7969 C   0  0  0  0  0  0  0  0  0  0  0  0
   24.4301  -21.9299  -12.9487 O   0  0  0  0  0  0  0  0  0  0  0  0
   20.1422  -19.6570  -17.2922 N   0  0  0  0  0  0  0  0  0  0  0  0
   26.0953  -21.4066  -11.4798 C   0  0  2  0  0  0  0  0  0  0  0  0
   25.4081  -21.0136  -10.3050 C   0  0  0  0  0  0  0  0  0  0  0  0
   26.2301  -20.1976   -9.3305 S   0  0  0  0  0  0  0  0  0  0  0  0
   25.2436  -20.0472   -7.7975 C   0  0  0  0  0  0  0  0  0  0  0  0
   24.0403  -20.4668  -10.4790 O   0  0  0  0  0  0  0  0  0  0  0  0
   23.0555  -21.0463   -9.9462 O   0  0  0  0  0  0  0  0  0  0  0  0
  2  1  1  6
  3  4  1  0
  3  2  1  0
  5  6  2  0
  5  2  1  0
  7  8  1  0
  8 10  1  0
  9  8  2  0
 10 11  1  0
 11 12  1  0
 12 13  1  0
 14 13  1  6
 14 15  1  0
 15  5  1  0
 16 14  1  0
 17 16  2  0
 18 16  1  0
 19 22  1  0
 19 18  1  0
 19 20  1  6
 21 20  1  0
 22 24  1  0
 23 22  2  0
M  END
$$$$
