CRC.pdb
     RDKit          3D

 24 23  0  0  1  0  0  0  0  0999 V2000
   22.5737  -21.0467   -9.1757 N   0  0  0  0  0  0  0  0  0  0  0  0
   21.8464  -20.7095  -10.3831 C   0  0  1  0  0  0  0  0  0  0  0  0
   20.7474  -19.7433  -10.0084 C   0  0  0  0  0  0  0  0  0  0  0  0
   19.0992  -20.3950  -10.2701 S   0  0  0  0  0  0  0  0  0  0  0  0
   22.8043  -20.0903  -11.3514 C   0  0  0  0  0  0  0  0  0  0  0  0
   23.5841  -19.1838  -10.9728 O   0  0  0  0  0  0  0  0  0  0  0  0
   28.1887  -20.9171  -16.4640 N   0  0  0  0  0  0  0  0  0  0  0  0
   27.3269  -22.0248  -16.3882 C   0  0  0  0  0  0  0  0  0  0  0  0
   26.9573  -22.6234  -17.4890 N   0  0  0  0  0  0  0  0  0  0  0  0
   26.8202  -22.5436  -15.1749 N   0  0  0  0  0  0  0  0  0  0  0  0
   27.0704  -22.0151  -13.8820 C   0  0  0  0  0  0  0  0  0  0  0  0
   26.1274  -20.9308  -13.4451 C   0  0  0  0  0  0  0  0  0  0  0  0
   24.7878  -21.0783  -14.0707 C   0  0  0  0  0  0  0  0  0  0  0  0
   23.8052  -19.9973  -13.6758 C   0  0  2  0  0  0  0  0  0  0  0  0
   22.8449  -20.5177  -12.7070 N   0  0  0  0  0  0  0  0  0  0  0  0
   23.1242  -19.3394  -14.8090 C   0  0  0  0  0  0  0  0  0  0  0  0
   22.1346  -19.9000  -15.3276 O   0  0  0  0  0  0  0  0  0  0  0  0
   26.3030  -23.4149  -17.5277 N   0  0  0  0  0  0  0  0  0  0  0  0
   23.5337  -18.0982  -15.3437 C   0  0  1  0  0  0  0  0  0  0  0  0
   22.9635  -17.3722  -16.4181 C   0  0  0  0  0  0  0  0  0  0  0  0
   22.7329  -15.9021  -16.1406 S   0  0  0  0  0  0  0  0  0  0  0  0
   22.0461  -15.7810  -14.4497 C   0  0  0  0  0  0  0  0  0  0  0  0
   23.5396  -17.6042  -17.7652 O   0  0  0  0  0  0  0  0  0  0  0  0
   24.5529  -18.3419  -17.9007 O   0  0  0  0  0  0  0  0  0  0  0  0
  2  1  1  1
  3  4  1  0
  3  2  1  0
  5  6  2  0
  5  2  1  0
  7  8  1  0
  8 10  1  0
  9  8  2  0
 10 11  1  0
 11 12  1  0
 12 13  1  0
 14 13  1  6
 14 15  1  0
 15  5  1  0
 16 14  1  0
 17 16  2  0
 18 16  1  0
 19 22  1  0
 19 18  1  0
 19 20  1  6
 21 20  1  0
 22 24  1  0
 23 22  2  0
M  END
$$$$
