CRC.pdb
     RDKit          3D

 24 23  0  0  1  0  0  0  0  0999 V2000
   26.5736  -21.9214  -10.8304 N   0  0  0  0  0  0  0  0  0  0  0  0
   25.4318  -21.0507  -11.0272 C   0  0  1  0  0  0  0  0  0  0  0  0
   25.5005  -19.9537   -9.9910 C   0  0  0  0  0  0  0  0  0  0  0  0
   25.1417  -20.5145   -8.3277 S   0  0  0  0  0  0  0  0  0  0  0  0
   25.5009  -20.4911  -12.4131 C   0  0  0  0  0  0  0  0  0  0  0  0
   26.5852  -20.0447  -12.8583 O   0  0  0  0  0  0  0  0  0  0  0  0
   25.5608  -25.5043  -15.4793 N   0  0  0  0  0  0  0  0  0  0  0  0
   24.1908  -25.1977  -15.5483 C   0  0  0  0  0  0  0  0  0  0  0  0
   23.3335  -25.9578  -14.9206 N   0  0  0  0  0  0  0  0  0  0  0  0
   23.6673  -24.1005  -16.2694 N   0  0  0  0  0  0  0  0  0  0  0  0
   24.4306  -23.0606  -16.8607 C   0  0  0  0  0  0  0  0  0  0  0  0
   24.9401  -22.0222  -15.9026 C   0  0  0  0  0  0  0  0  0  0  0  0
   23.8977  -21.0160  -15.5728 C   0  0  0  0  0  0  0  0  0  0  0  0
   24.3627  -19.9462  -14.6088 C   0  0  2  0  0  0  0  0  0  0  0  0
   24.3454  -20.4571  -13.2412 N   0  0  0  0  0  0  0  0  0  0  0  0
   23.6373  -18.6642  -14.7139 C   0  0  0  0  0  0  0  0  0  0  0  0
   22.5705  -18.5194  -14.0786 O   0  0  0  0  0  0  0  0  0  0  0  0
   22.3222  -25.7798  -14.8784 N   0  0  0  0  0  0  0  0  0  0  0  0
   24.0882  -17.5815  -15.5004 C   0  0  1  0  0  0  0  0  0  0  0  0
   23.5077  -16.2974  -15.6450 C   0  0  0  0  0  0  0  0  0  0  0  0
   24.4413  -15.1414  -15.3565 S   0  0  0  0  0  0  0  0  0  0  0  0
   23.4131  -13.6300  -15.2925 C   0  0  0  0  0  0  0  0  0  0  0  0
   22.6867  -16.0650  -16.8583 O   0  0  0  0  0  0  0  0  0  0  0  0
   23.0817  -16.4867  -17.9789 O   0  0  0  0  0  0  0  0  0  0  0  0
  2  1  1  1
  3  4  1  0
  3  2  1  0
  5  6  2  0
  5  2  1  0
  7  8  1  0
  8 10  1  0
  9  8  2  0
 10 11  1  0
 11 12  1  0
 12 13  1  0
 14 13  1  6
 14 15  1  0
 15  5  1  0
 16 14  1  0
 17 16  2  0
 18 16  1  0
 19 22  1  0
 19 18  1  0
 19 20  1  6
 21 20  1  0
 22 24  1  0
 23 22  2  0
M  END
$$$$
