CRC.pdb
     RDKit          3D

 24 23  0  0  1  0  0  0  0  0999 V2000
   26.7369  -13.5702  -17.4821 N   0  0  0  0  0  0  0  0  0  0  0  0
   26.1133  -12.9679  -16.3206 C   0  0  1  0  0  0  0  0  0  0  0  0
   27.1726  -12.1897  -15.5763 C   0  0  0  0  0  0  0  0  0  0  0  0
   28.3835  -13.2270  -14.7593 S   0  0  0  0  0  0  0  0  0  0  0  0
   25.0125  -12.0701  -16.7907 C   0  0  0  0  0  0  0  0  0  0  0  0
   25.2348  -11.2145  -17.6804 O   0  0  0  0  0  0  0  0  0  0  0  0
   17.3306  -14.6686  -15.6274 N   0  0  0  0  0  0  0  0  0  0  0  0
   17.5961  -13.4261  -15.0263 C   0  0  0  0  0  0  0  0  0  0  0  0
   16.8216  -13.0039  -14.0627 N   0  0  0  0  0  0  0  0  0  0  0  0
   18.6660  -12.5835  -15.4049 N   0  0  0  0  0  0  0  0  0  0  0  0
   18.8171  -11.9577  -16.6694 C   0  0  0  0  0  0  0  0  0  0  0  0
   20.1024  -11.2032  -16.8558 C   0  0  0  0  0  0  0  0  0  0  0  0
   21.2810  -12.0099  -16.4463 C   0  0  0  0  0  0  0  0  0  0  0  0
   22.6044  -11.3013  -16.6378 C   0  0  2  0  0  0  0  0  0  0  0  0
   23.7058  -12.1729  -16.2393 N   0  0  0  0  0  0  0  0  0  0  0  0
   22.6976   -9.9816  -15.9818 C   0  0  0  0  0  0  0  0  0  0  0  0
   22.8104   -9.9314  -14.7379 O   0  0  0  0  0  0  0  0  0  0  0  0
   16.9698  -12.1326  -13.5384 N   0  0  0  0  0  0  0  0  0  0  0  0
   22.6668   -8.7606  -16.6905 C   0  0  1  0  0  0  0  0  0  0  0  0
   22.7945   -7.4447  -16.1817 C   0  0  0  0  0  0  0  0  0  0  0  0
   23.6288   -6.5119  -17.0333 S   0  0  0  0  0  0  0  0  0  0  0  0
   25.2559   -7.3148  -17.2648 C   0  0  0  0  0  0  0  0  0  0  0  0
   21.5572   -6.7940  -15.6858 O   0  0  0  0  0  0  0  0  0  0  0  0
   20.4366   -7.1216  -16.1616 O   0  0  0  0  0  0  0  0  0  0  0  0
  2  1  1  6
  3  4  1  0
  3  2  1  0
  5  6  2  0
  5  2  1  0
  7  8  1  0
  8 10  1  0
  9  8  2  0
 10 11  1  0
 11 12  1  0
 12 13  1  0
 14 13  1  1
 14 15  1  0
 15  5  1  0
 16 14  1  0
 17 16  2  0
 18 16  1  0
 19 22  1  0
 19 18  1  0
 19 20  1  1
 21 20  1  0
 22 24  1  0
 23 22  2  0
M  END
$$$$
