CRC.pdb
     RDKit          3D

 24 23  0  0  1  0  0  0  0  0999 V2000
   14.5787  -12.2616  -10.3410 N   0  0  0  0  0  0  0  0  0  0  0  0
   14.2152  -11.0176  -10.9900 C   0  0  1  0  0  0  0  0  0  0  0  0
   12.7816  -10.7074  -10.6288 C   0  0  0  0  0  0  0  0  0  0  0  0
   11.6023  -11.8719  -11.3091 S   0  0  0  0  0  0  0  0  0  0  0  0
   15.1397   -9.9463  -10.5040 C   0  0  0  0  0  0  0  0  0  0  0  0
   15.3889   -9.8379   -9.2795 O   0  0  0  0  0  0  0  0  0  0  0  0
   21.6142   -5.6929  -12.5873 N   0  0  0  0  0  0  0  0  0  0  0  0
   21.4370   -6.6326  -13.6175 C   0  0  0  0  0  0  0  0  0  0  0  0
   22.2550   -6.6260  -14.6361 N   0  0  0  0  0  0  0  0  0  0  0  0
   20.4093   -7.6030  -13.6266 N   0  0  0  0  0  0  0  0  0  0  0  0
   19.7536   -8.1227  -12.4805 C   0  0  0  0  0  0  0  0  0  0  0  0
   18.8293   -7.1631  -11.7871 C   0  0  0  0  0  0  0  0  0  0  0  0
   17.4081   -7.4099  -12.1431 C   0  0  0  0  0  0  0  0  0  0  0  0
   16.5661   -7.9109  -10.9898 C   0  0  2  0  0  0  0  0  0  0  0  0
   15.7458   -9.0405  -11.4173 N   0  0  0  0  0  0  0  0  0  0  0  0
   15.7508   -6.8742  -10.3257 C   0  0  0  0  0  0  0  0  0  0  0  0
   14.5395   -6.7778  -10.6190 O   0  0  0  0  0  0  0  0  0  0  0  0
   22.1770   -7.2523  -15.4471 N   0  0  0  0  0  0  0  0  0  0  0  0
   16.2701   -5.9770   -9.3668 C   0  0  1  0  0  0  0  0  0  0  0  0
   15.6062   -4.9139   -8.7065 C   0  0  0  0  0  0  0  0  0  0  0  0
   14.4605   -5.3374   -7.8126 S   0  0  0  0  0  0  0  0  0  0  0  0
   13.7686   -3.8129   -7.0759 C   0  0  0  0  0  0  0  0  0  0  0  0
   16.4605   -3.8813   -8.0708 O   0  0  0  0  0  0  0  0  0  0  0  0
   15.9647   -2.7735   -7.7295 O   0  0  0  0  0  0  0  0  0  0  0  0
  2  1  1  1
  3  4  1  0
  3  2  1  0
  5  6  2  0
  5  2  1  0
  7  8  1  0
  8 10  1  0
  9  8  2  0
 10 11  1  0
 11 12  1  0
 12 13  1  0
 14 13  1  6
 14 15  1  0
 15  5  1  0
 16 14  1  0
 17 16  2  0
 18 16  1  0
 19 22  1  0
 19 18  1  0
 19 20  1  1
 21 20  1  0
 22 24  1  0
 23 22  2  0
M  END
$$$$
