CRC.pdb
     RDKit          3D

 24 23  0  0  1  0  0  0  0  0999 V2000
   27.8011  -21.9461  -16.9421 N   0  0  0  0  0  0  0  0  0  0  0  0
   27.2332  -20.6373  -16.6868 C   0  0  1  0  0  0  0  0  0  0  0  0
   27.0582  -19.9402  -18.0154 C   0  0  0  0  0  0  0  0  0  0  0  0
   28.5947  -19.6899  -18.9021 S   0  0  0  0  0  0  0  0  0  0  0  0
   25.9192  -20.8219  -15.9954 C   0  0  0  0  0  0  0  0  0  0  0  0
   25.2213  -21.8371  -16.2308 O   0  0  0  0  0  0  0  0  0  0  0  0
   25.0838  -20.7632   -7.9885 N   0  0  0  0  0  0  0  0  0  0  0  0
   23.9824  -20.7956   -8.8612 C   0  0  0  0  0  0  0  0  0  0  0  0
   22.7754  -20.7010   -8.3706 N   0  0  0  0  0  0  0  0  0  0  0  0
   24.0959  -20.9298  -10.2637 N   0  0  0  0  0  0  0  0  0  0  0  0
   25.2993  -21.1714  -10.9758 C   0  0  0  0  0  0  0  0  0  0  0  0
   25.1709  -21.1353  -12.4719 C   0  0  0  0  0  0  0  0  0  0  0  0
   24.2918  -20.0262  -12.9243 C   0  0  0  0  0  0  0  0  0  0  0  0
   24.1354  -19.9431  -14.4272 C   0  0  2  0  0  0  0  0  0  0  0  0
   25.4449  -19.8551  -15.0668 N   0  0  0  0  0  0  0  0  0  0  0  0
   23.2345  -18.8705  -14.8949 C   0  0  0  0  0  0  0  0  0  0  0  0
   23.7019  -17.7258  -15.0787 O   0  0  0  0  0  0  0  0  0  0  0  0
   21.9157  -20.7443   -8.9320 N   0  0  0  0  0  0  0  0  0  0  0  0
   21.8599  -19.0698  -15.1492 C   0  0  1  0  0  0  0  0  0  0  0  0
   21.0834  -18.5740  -16.2253 C   0  0  0  0  0  0  0  0  0  0  0  0
   21.8773  -18.1718  -17.4497 S   0  0  0  0  0  0  0  0  0  0  0  0
   21.3564  -16.4740  -17.8878 C   0  0  0  0  0  0  0  0  0  0  0  0
   19.8598  -19.3354  -16.5764 O   0  0  0  0  0  0  0  0  0  0  0  0
   19.7678  -20.5567  -16.2774 O   0  0  0  0  0  0  0  0  0  0  0  0
  2  1  1  6
  3  4  1  0
  3  2  1  0
  5  6  2  0
  5  2  1  0
  7  8  1  0
  8 10  1  0
  9  8  2  0
 10 11  1  0
 11 12  1  0
 12 13  1  0
 14 13  1  1
 14 15  1  0
 15  5  1  0
 16 14  1  0
 17 16  2  0
 18 16  1  0
 19 22  1  0
 19 18  1  0
 19 20  1  6
 21 20  1  0
 22 24  1  0
 23 22  2  0
M  END
$$$$
