CRC.pdb
     RDKit          3D

 24 23  0  0  1  0  0  0  0  0999 V2000
   27.9031  -27.2739  -16.6324 N   0  0  0  0  0  0  0  0  0  0  0  0
   26.8795  -26.4421  -17.2333 C   0  0  1  0  0  0  0  0  0  0  0  0
   25.8420  -27.3530  -17.8463 C   0  0  0  0  0  0  0  0  0  0  0  0
   26.3825  -28.1374  -19.3636 S   0  0  0  0  0  0  0  0  0  0  0  0
   26.2820  -25.5847  -16.1625 C   0  0  0  0  0  0  0  0  0  0  0  0
   25.9606  -26.0880  -15.0596 O   0  0  0  0  0  0  0  0  0  0  0  0
   28.7615  -19.8138  -16.4676 N   0  0  0  0  0  0  0  0  0  0  0  0
   27.5632  -19.1264  -16.7269 C   0  0  0  0  0  0  0  0  0  0  0  0
   27.4361  -18.4631  -17.8451 N   0  0  0  0  0  0  0  0  0  0  0  0
   26.4642  -19.1019  -15.8384 N   0  0  0  0  0  0  0  0  0  0  0  0
   26.4422  -19.6645  -14.5358 C   0  0  0  0  0  0  0  0  0  0  0  0
   25.7245  -20.9791  -14.4231 C   0  0  0  0  0  0  0  0  0  0  0  0
   26.2987  -22.0020  -15.3350 C   0  0  0  0  0  0  0  0  0  0  0  0
   25.5301  -23.3055  -15.3545 C   0  0  2  0  0  0  0  0  0  0  0  0
   26.0710  -24.1951  -16.3779 N   0  0  0  0  0  0  0  0  0  0  0  0
   24.0671  -23.1565  -15.4889 C   0  0  0  0  0  0  0  0  0  0  0  0
   23.6089  -22.5723  -16.4945 O   0  0  0  0  0  0  0  0  0  0  0  0
   26.5636  -18.0228  -18.1629 N   0  0  0  0  0  0  0  0  0  0  0  0
   23.1480  -23.6439  -14.5340 C   0  0  2  0  0  0  0  0  0  0  0  0
   21.7325  -23.6113  -14.5790 C   0  0  0  0  0  0  0  0  0  0  0  0
   21.0487  -24.8051  -13.9477 S   0  0  0  0  0  0  0  0  0  0  0  0
   22.0191  -25.2506  -12.4627 C   0  0  0  0  0  0  0  0  0  0  0  0
   21.0788  -22.3319  -14.2103 O   0  0  0  0  0  0  0  0  0  0  0  0
   21.7256  -21.4492  -13.5843 O   0  0  0  0  0  0  0  0  0  0  0  0
  2  1  1  1
  3  4  1  0
  3  2  1  0
  5  6  2  0
  5  2  1  0
  7  8  1  0
  8 10  1  0
  9  8  2  0
 10 11  1  0
 11 12  1  0
 12 13  1  0
 14 13  1  6
 14 15  1  0
 15  5  1  0
 16 14  1  0
 17 16  2  0
 18 16  1  0
 19 22  1  0
 19 18  1  0
 19 20  1  1
 21 20  1  0
 22 24  1  0
 23 22  2  0
M  END
$$$$
