CRC.pdb
     RDKit          3D

 24 23  0  0  1  0  0  0  0  0999 V2000
   17.2152  -12.5044  -16.3044 N   0  0  0  0  0  0  0  0  0  0  0  0
   18.1209  -11.9167  -15.3375 C   0  0  1  0  0  0  0  0  0  0  0  0
   19.4917  -12.5088  -15.5660 C   0  0  0  0  0  0  0  0  0  0  0  0
   19.7135  -14.1175  -14.8094 S   0  0  0  0  0  0  0  0  0  0  0  0
   18.1305  -10.4347  -15.5428 C   0  0  0  0  0  0  0  0  0  0  0  0
   17.9472   -9.9567  -16.6878 O   0  0  0  0  0  0  0  0  0  0  0  0
   13.8900   -8.3156   -9.9964 N   0  0  0  0  0  0  0  0  0  0  0  0
   14.9996   -7.6100   -9.4999 C   0  0  0  0  0  0  0  0  0  0  0  0
   15.1335   -7.4555   -8.2097 N   0  0  0  0  0  0  0  0  0  0  0  0
   15.9999   -7.0416  -10.3210 N   0  0  0  0  0  0  0  0  0  0  0  0
   15.9877   -7.0152  -11.7397 C   0  0  0  0  0  0  0  0  0  0  0  0
   17.2263   -7.5544  -12.3963 C   0  0  0  0  0  0  0  0  0  0  0  0
   17.1267   -7.5177  -13.8783 C   0  0  0  0  0  0  0  0  0  0  0  0
   18.3311   -8.0979  -14.5875 C   0  0  2  0  0  0  0  0  0  0  0  0
   18.3462   -9.5513  -14.4496 N   0  0  0  0  0  0  0  0  0  0  0  0
   19.6244   -7.5059  -14.1909 C   0  0  0  0  0  0  0  0  0  0  0  0
   20.1309   -7.8373  -13.0972 O   0  0  0  0  0  0  0  0  0  0  0  0
   15.9388   -7.0025   -7.7598 N   0  0  0  0  0  0  0  0  0  0  0  0
   20.3279   -6.5768  -14.9884 C   0  0  1  0  0  0  0  0  0  0  0  0
   21.5532   -5.9247  -14.7054 C   0  0  0  0  0  0  0  0  0  0  0  0
   22.2775   -5.3786  -15.9172 S   0  0  0  0  0  0  0  0  0  0  0  0
   23.9697   -4.9448  -15.3752 C   0  0  0  0  0  0  0  0  0  0  0  0
   21.5580   -4.9681  -13.5719 O   0  0  0  0  0  0  0  0  0  0  0  0
   20.6956   -4.0502  -13.5159 O   0  0  0  0  0  0  0  0  0  0  0  0
  2  1  1  6
  3  4  1  0
  3  2  1  0
  5  6  2  0
  5  2  1  0
  7  8  1  0
  8 10  1  0
  9  8  2  0
 10 11  1  0
 11 12  1  0
 12 13  1  0
 14 13  1  1
 14 15  1  0
 15  5  1  0
 16 14  1  0
 17 16  2  0
 18 16  1  0
 19 22  1  0
 19 18  1  0
 19 20  1  6
 21 20  1  0
 22 24  1  0
 23 22  2  0
M  END
$$$$
