CRC.pdb
     RDKit          3D

 24 23  0  0  1  0  0  0  0  0999 V2000
   28.7976  -21.0755  -15.8979 N   0  0  0  0  0  0  0  0  0  0  0  0
   27.8074  -20.2656  -15.2166 C   0  0  1  0  0  0  0  0  0  0  0  0
   28.2107  -18.8174  -15.3646 C   0  0  0  0  0  0  0  0  0  0  0  0
   27.1234  -17.6789  -14.5095 S   0  0  0  0  0  0  0  0  0  0  0  0
   26.4750  -20.5234  -15.8468 C   0  0  0  0  0  0  0  0  0  0  0  0
   26.3823  -20.6563  -17.0906 O   0  0  0  0  0  0  0  0  0  0  0  0
   22.7103  -27.3482  -16.0589 N   0  0  0  0  0  0  0  0  0  0  0  0
   22.0170  -26.1255  -16.0440 C   0  0  0  0  0  0  0  0  0  0  0  0
   20.7107  -26.1317  -16.0379 N   0  0  0  0  0  0  0  0  0  0  0  0
   22.6524  -24.8629  -16.0382 N   0  0  0  0  0  0  0  0  0  0  0  0
   24.0540  -24.6432  -16.0690 C   0  0  0  0  0  0  0  0  0  0  0  0
   24.4692  -23.2101  -16.2413 C   0  0  0  0  0  0  0  0  0  0  0  0
   23.5741  -22.2828  -15.5020 C   0  0  0  0  0  0  0  0  0  0  0  0
   23.9715  -20.8271  -15.6163 C   0  0  2  0  0  0  0  0  0  0  0  0
   25.3013  -20.6211  -15.0501 N   0  0  0  0  0  0  0  0  0  0  0  0
   22.9931  -19.8750  -15.0534 C   0  0  0  0  0  0  0  0  0  0  0  0
   22.9402  -19.7248  -13.8135 O   0  0  0  0  0  0  0  0  0  0  0  0
   20.1263  -25.2864  -16.0286 N   0  0  0  0  0  0  0  0  0  0  0  0
   22.1054  -19.1165  -15.8476 C   0  0  2  0  0  0  0  0  0  0  0  0
   21.1061  -18.2057  -15.4250 C   0  0  0  0  0  0  0  0  0  0  0  0
   20.6373  -17.2372  -16.4896 S   0  0  0  0  0  0  0  0  0  0  0  0
   22.1330  -16.4504  -17.1892 C   0  0  0  0  0  0  0  0  0  0  0  0
   19.9782  -18.7638  -14.6398 O   0  0  0  0  0  0  0  0  0  0  0  0
   19.6777  -19.9837  -14.7449 O   0  0  0  0  0  0  0  0  0  0  0  0
  2  1  1  6
  3  4  1  0
  3  2  1  0
  5  6  2  0
  5  2  1  0
  7  8  1  0
  8 10  1  0
  9  8  2  0
 10 11  1  0
 11 12  1  0
 12 13  1  0
 14 13  1  1
 14 15  1  0
 15  5  1  0
 16 14  1  0
 17 16  2  0
 18 16  1  0
 19 22  1  0
 19 18  1  0
 19 20  1  6
 21 20  1  0
 22 24  1  0
 23 22  2  0
M  END
$$$$
