CRC.pdb
     RDKit          3D

 24 23  0  0  1  0  0  0  0  0999 V2000
   18.3020  -23.4673  -11.2410 N   0  0  0  0  0  0  0  0  0  0  0  0
   19.1160  -23.6415  -12.4275 C   0  0  1  0  0  0  0  0  0  0  0  0
   18.3073  -24.4255  -13.4341 C   0  0  0  0  0  0  0  0  0  0  0  0
   18.0727  -26.1436  -12.9839 S   0  0  0  0  0  0  0  0  0  0  0  0
   19.4722  -22.2878  -12.9560 C   0  0  0  0  0  0  0  0  0  0  0  0
   18.6093  -21.3781  -12.9892 O   0  0  0  0  0  0  0  0  0  0  0  0
   25.2519  -24.6045  -14.7267 N   0  0  0  0  0  0  0  0  0  0  0  0
   25.7479  -23.5806  -15.5521 C   0  0  0  0  0  0  0  0  0  0  0  0
   26.3755  -23.8954  -16.6538 N   0  0  0  0  0  0  0  0  0  0  0  0
   25.6129  -22.2038  -15.2620 N   0  0  0  0  0  0  0  0  0  0  0  0
   24.8980  -21.6568  -14.1651 C   0  0  0  0  0  0  0  0  0  0  0  0
   23.4099  -21.8543  -14.2141 C   0  0  0  0  0  0  0  0  0  0  0  0
   22.6761  -20.5811  -13.9947 C   0  0  0  0  0  0  0  0  0  0  0  0
   21.1704  -20.7320  -14.0089 C   0  0  2  0  0  0  0  0  0  0  0  0
   20.7861  -22.0140  -13.4255 N   0  0  0  0  0  0  0  0  0  0  0  0
   20.5433  -20.5324  -15.3309 C   0  0  0  0  0  0  0  0  0  0  0  0
   20.4868  -21.4962  -16.1249 O   0  0  0  0  0  0  0  0  0  0  0  0
   26.7498  -23.2123  -17.3240 N   0  0  0  0  0  0  0  0  0  0  0  0
   19.9977  -19.2995  -15.7510 C   0  0  1  0  0  0  0  0  0  0  0  0
   19.4322  -18.9704  -17.0074 C   0  0  0  0  0  0  0  0  0  0  0  0
   18.2209  -18.0650  -16.9419 S   0  0  0  0  0  0  0  0  0  0  0  0
   17.1514  -18.7029  -15.6022 C   0  0  0  0  0  0  0  0  0  0  0  0
   20.3728  -18.5706  -18.0825 O   0  0  0  0  0  0  0  0  0  0  0  0
   19.9466  -18.3664  -19.2513 O   0  0  0  0  0  0  0  0  0  0  0  0
  2  1  1  1
  3  4  1  0
  3  2  1  0
  5  6  2  0
  5  2  1  0
  7  8  1  0
  8 10  1  0
  9  8  2  0
 10 11  1  0
 11 12  1  0
 12 13  1  0
 14 13  1  6
 14 15  1  0
 15  5  1  0
 16 14  1  0
 17 16  2  0
 18 16  1  0
 19 22  1  0
 19 18  1  0
 19 20  1  6
 21 20  1  0
 22 24  1  0
 23 22  2  0
M  END
$$$$
