CRC.pdb
     RDKit          3D

 24 23  0  0  1  0  0  0  0  0999 V2000
   25.9560  -19.5565  -18.3878 N   0  0  0  0  0  0  0  0  0  0  0  0
   24.6644  -19.0365  -17.9856 C   0  0  1  0  0  0  0  0  0  0  0  0
   23.9872  -18.4751  -19.2136 C   0  0  0  0  0  0  0  0  0  0  0  0
   22.3445  -17.8339  -18.8971 S   0  0  0  0  0  0  0  0  0  0  0  0
   23.8696  -20.1580  -17.3945 C   0  0  0  0  0  0  0  0  0  0  0  0
   23.9985  -21.3235  -17.8393 O   0  0  0  0  0  0  0  0  0  0  0  0
   24.9235  -23.0287  -12.4990 N   0  0  0  0  0  0  0  0  0  0  0  0
   25.3627  -21.7744  -12.0412 C   0  0  0  0  0  0  0  0  0  0  0  0
   26.6276  -21.6026  -11.7632 N   0  0  0  0  0  0  0  0  0  0  0  0
   24.5086  -20.6637  -11.8547 N   0  0  0  0  0  0  0  0  0  0  0  0
   23.0946  -20.6798  -11.9731 C   0  0  0  0  0  0  0  0  0  0  0  0
   22.5643  -20.2650  -13.3157 C   0  0  0  0  0  0  0  0  0  0  0  0
   22.7653  -21.3226  -14.3399 C   0  0  0  0  0  0  0  0  0  0  0  0
   22.1830  -20.9817  -15.6944 C   0  0  2  0  0  0  0  0  0  0  0  0
   22.9619  -19.9206  -16.3260 N   0  0  0  0  0  0  0  0  0  0  0  0
   20.7423  -20.6580  -15.6823 C   0  0  0  0  0  0  0  0  0  0  0  0
   20.3868  -19.4928  -15.4022 O   0  0  0  0  0  0  0  0  0  0  0  0
   27.0447  -20.7045  -11.4887 N   0  0  0  0  0  0  0  0  0  0  0  0
   19.7339  -21.6026  -15.9738 C   0  0  2  0  0  0  0  0  0  0  0  0
   18.3286  -21.4412  -15.8968 C   0  0  0  0  0  0  0  0  0  0  0  0
   17.5251  -22.5415  -16.5562 S   0  0  0  0  0  0  0  0  0  0  0  0
   18.2197  -22.7767  -18.2319 C   0  0  0  0  0  0  0  0  0  0  0  0
   17.7691  -21.0518  -14.5794 O   0  0  0  0  0  0  0  0  0  0  0  0
   18.4374  -21.2429  -13.5276 O   0  0  0  0  0  0  0  0  0  0  0  0
  2  1  1  6
  3  4  1  0
  3  2  1  0
  5  6  2  0
  5  2  1  0
  7  8  1  0
  8 10  1  0
  9  8  2  0
 10 11  1  0
 11 12  1  0
 12 13  1  0
 14 13  1  1
 14 15  1  0
 15  5  1  0
 16 14  1  0
 17 16  2  0
 18 16  1  0
 19 22  1  0
 19 18  1  0
 19 20  1  6
 21 20  1  0
 22 24  1  0
 23 22  2  0
M  END
$$$$
