CRC.pdb
     RDKit          3D

 24 23  0  0  1  0  0  0  0  0999 V2000
   28.5511  -20.9274  -16.8961 N   0  0  0  0  0  0  0  0  0  0  0  0
   27.8900  -20.0413  -15.9589 C   0  0  1  0  0  0  0  0  0  0  0  0
   27.6829  -18.7114  -16.6447 C   0  0  0  0  0  0  0  0  0  0  0  0
   29.1922  -17.7691  -16.8534 S   0  0  0  0  0  0  0  0  0  0  0  0
   26.5838  -20.6587  -15.5698 C   0  0  0  0  0  0  0  0  0  0  0  0
   25.9956  -21.4366  -16.3585 O   0  0  0  0  0  0  0  0  0  0  0  0
   24.2921  -21.2062   -7.2843 N   0  0  0  0  0  0  0  0  0  0  0  0
   23.3934  -21.0956   -8.3594 C   0  0  0  0  0  0  0  0  0  0  0  0
   22.1152  -21.2567   -8.1429 N   0  0  0  0  0  0  0  0  0  0  0  0
   23.7890  -20.8190   -9.6879 N   0  0  0  0  0  0  0  0  0  0  0  0
   25.1235  -20.6232  -10.1288 C   0  0  0  0  0  0  0  0  0  0  0  0
   25.2653  -20.2330  -11.5722 C   0  0  0  0  0  0  0  0  0  0  0  0
   24.6209  -21.2196  -12.4771 C   0  0  0  0  0  0  0  0  0  0  0  0
   24.6547  -20.8243  -13.9375 C   0  0  2  0  0  0  0  0  0  0  0  0
   25.9934  -20.3746  -14.3078 N   0  0  0  0  0  0  0  0  0  0  0  0
   23.6273  -19.8404  -14.3337 C   0  0  0  0  0  0  0  0  0  0  0  0
   23.7027  -18.6749  -13.8881 O   0  0  0  0  0  0  0  0  0  0  0  0
   21.3903  -21.1862   -8.8679 N   0  0  0  0  0  0  0  0  0  0  0  0
   22.5537  -20.1473  -15.1982 C   0  0  1  0  0  0  0  0  0  0  0  0
   21.4796  -19.3141  -15.5970 C   0  0  0  0  0  0  0  0  0  0  0  0
   21.2342  -19.2639  -17.0898 S   0  0  0  0  0  0  0  0  0  0  0  0
   22.8395  -18.8855  -17.8807 C   0  0  0  0  0  0  0  0  0  0  0  0
   20.2180  -19.4304  -14.8256 O   0  0  0  0  0  0  0  0  0  0  0  0
   20.0849  -20.3427  -13.9658 O   0  0  0  0  0  0  0  0  0  0  0  0
  2  1  1  6
  3  4  1  0
  3  2  1  0
  5  6  2  0
  5  2  1  0
  7  8  1  0
  8 10  1  0
  9  8  2  0
 10 11  1  0
 11 12  1  0
 12 13  1  0
 14 13  1  1
 14 15  1  0
 15  5  1  0
 16 14  1  0
 17 16  2  0
 18 16  1  0
 19 22  1  0
 19 18  1  0
 19 20  1  6
 21 20  1  0
 22 24  1  0
 23 22  2  0
M  END
$$$$
