CFM.pdb
     RDKit          3D

 26 26  0  0  1  0  0  0  0  0999 V2000
    9.5976  -21.3637   20.8005 N   0  0  0  0  0  0  0  0  0  0  0  0
    8.6342  -20.5789   21.5382 C   0  0  1  0  0  0  0  0  0  0  0  0
    8.5976  -20.9736   23.0050 C   0  0  0  0  0  0  0  0  0  0  0  0
   10.1335  -20.4572   23.8142 S   0  0  0  0  0  0  0  0  0  0  0  0
    8.8934  -19.1209   21.3828 C   0  0  0  0  0  0  0  0  0  0  0  0
   10.0555  -18.6904   21.1753 O   0  0  0  0  0  0  0  0  0  0  0  0
    7.8488  -18.1628   21.4615 N   0  0  0  0  0  0  0  0  0  0  0  0
    8.0983  -16.7550   21.4593 C   0  0  1  0  0  0  0  0  0  0  0  0
    6.8289  -15.9339   21.4340 C   0  0  0  0  0  0  0  0  0  0  0  0
    7.0489  -14.5288   21.0818 C   0  0  0  0  0  0  0  0  0  0  0  0
    6.9853  -13.5384   22.0686 C   0  0  0  0  0  0  0  0  0  0  0  0
    7.1937  -12.2178   21.7283 C   0  0  0  0  0  0  0  0  0  0  0  0
    7.4675  -11.8136   20.4381 C   0  0  0  0  0  0  0  0  0  0  0  0
    7.5315  -12.7841   19.4621 C   0  0  0  0  0  0  0  0  0  0  0  0
    7.3230  -14.1143   19.7963 C   0  0  0  0  0  0  0  0  0  0  0  0
    9.0145  -16.3223   22.5360 C   0  0  0  0  0  0  0  0  0  0  0  0
   10.1418  -15.8910   22.2285 O   0  0  0  0  0  0  0  0  0  0  0  0
    6.6854  -11.7577   26.3084 C   0  0  0  0  0  0  0  0  0  0  0  0
    7.3553  -12.9306   27.5214 S   0  0  0  0  0  0  0  0  0  0  0  0
    8.6630  -13.8918   26.6832 C   0  0  0  0  0  0  0  0  0  0  0  0
    8.0944  -14.6929   25.5439 C   0  0  0  0  0  0  0  0  0  0  0  0
    9.1320  -15.5437   24.9305 C   0  0  2  0  0  0  0  0  0  0  0  0
    8.6241  -16.3957   23.8701 N   0  0  0  0  0  0  0  0  0  0  0  0
    9.9320  -16.3046   25.9002 C   0  0  0  0  0  0  0  0  0  0  0  0
   10.9981  -15.5965   26.5111 O   0  0  0  0  0  0  0  0  0  0  0  0
    9.7805  -17.4836   26.2401 O   0  0  0  0  0  0  0  0  0  0  0  0
  2  1  1  6
  3  4  1  0
  3  2  1  0
  5  2  1  0
  5  6  2  0
  7  5  1  0
  8  7  1  0
  8  9  1  1
 10  9  1  0
 10 11  2  0
 12 11  1  0
 13 12  2  0
 14 15  2  0
 14 13  1  0
 15 10  1  0
 16  8  1  0
 17 16  2  0
 18 19  1  0
 19 20  1  0
 20 21  1  0
 22 21  1  1
 22 24  1  0
 22 23  1  0
 23 16  1  0
 24 25  1  0
 26 24  2  0
M  END
$$$$
