CFM.pdb
     RDKit          3D

 26 26  0  0  1  0  0  0  0  0999 V2000
   11.4213  -16.6753   18.8042 N   0  0  0  0  0  0  0  0  0  0  0  0
   10.4729  -17.3144   19.6875 C   0  0  1  0  0  0  0  0  0  0  0  0
   10.9122  -18.7214   20.0555 C   0  0  0  0  0  0  0  0  0  0  0  0
   10.6529  -19.8297   18.6466 S   0  0  0  0  0  0  0  0  0  0  0  0
   10.2322  -16.4932   20.9061 C   0  0  0  0  0  0  0  0  0  0  0  0
   11.1717  -15.8688   21.4596 O   0  0  0  0  0  0  0  0  0  0  0  0
    8.9431  -16.3809   21.4900 N   0  0  0  0  0  0  0  0  0  0  0  0
    8.6997  -15.6068   22.6671 C   0  0  1  0  0  0  0  0  0  0  0  0
    7.2764  -15.1041   22.7552 C   0  0  0  0  0  0  0  0  0  0  0  0
    7.0230  -14.2707   23.9334 C   0  0  0  0  0  0  0  0  0  0  0  0
    7.4533  -12.9392   23.9584 C   0  0  0  0  0  0  0  0  0  0  0  0
    7.2107  -12.1615   25.0716 C   0  0  0  0  0  0  0  0  0  0  0  0
    6.5516  -12.6380   26.1859 C   0  0  0  0  0  0  0  0  0  0  0  0
    6.1255  -13.9482   26.1673 C   0  0  0  0  0  0  0  0  0  0  0  0
    6.3657  -14.7368   25.0515 C   0  0  0  0  0  0  0  0  0  0  0  0
    9.1236  -16.2852   23.9105 C   0  0  0  0  0  0  0  0  0  0  0  0
    9.0423  -17.5263   23.9754 O   0  0  0  0  0  0  0  0  0  0  0  0
    9.9241  -13.1836   29.4636 C   0  0  0  0  0  0  0  0  0  0  0  0
   10.8879  -14.6459   29.9417 S   0  0  0  0  0  0  0  0  0  0  0  0
   10.8238  -15.8200   28.5438 C   0  0  0  0  0  0  0  0  0  0  0  0
   10.2105  -15.1770   27.3299 C   0  0  0  0  0  0  0  0  0  0  0  0
   10.1674  -16.1237   26.1991 C   0  0  2  0  0  0  0  0  0  0  0  0
    9.6053  -15.5497   24.9897 N   0  0  0  0  0  0  0  0  0  0  0  0
    9.5474  -17.4158   26.5241 C   0  0  0  0  0  0  0  0  0  0  0  0
    8.1501  -17.5035   26.2987 O   0  0  0  0  0  0  0  0  0  0  0  0
   10.1037  -18.4266   26.9685 O   0  0  0  0  0  0  0  0  0  0  0  0
  2  1  1  6
  3  4  1  0
  3  2  1  0
  5  2  1  0
  5  6  2  0
  7  5  1  0
  8  7  1  0
  8  9  1  1
 10  9  1  0
 10 11  2  0
 12 11  1  0
 13 12  2  0
 14 15  2  0
 14 13  1  0
 15 10  1  0
 16  8  1  0
 17 16  2  0
 18 19  1  0
 19 20  1  0
 20 21  1  0
 22 21  1  1
 22 24  1  0
 22 23  1  0
 23 16  1  0
 24 25  1  0
 26 24  2  0
M  END
$$$$
