CFM.pdb
     RDKit          3D

 26 26  0  0  1  0  0  0  0  0999 V2000
   63.3813  -64.4100  -86.7609 N   0  0  0  0  0  0  0  0  0  0  0  0
   63.7133  -64.9020  -88.0784 C   0  0  1  0  0  0  0  0  0  0  0  0
   62.4690  -65.2823  -88.8629 C   0  0  0  0  0  0  0  0  0  0  0  0
   61.8120  -63.8225  -89.7100 S   0  0  0  0  0  0  0  0  0  0  0  0
   64.5394  -63.9171  -88.8300 C   0  0  0  0  0  0  0  0  0  0  0  0
   65.6077  -64.2661  -89.3919 O   0  0  0  0  0  0  0  0  0  0  0  0
   64.1596  -62.5539  -88.9432 N   0  0  0  0  0  0  0  0  0  0  0  0
   64.5292  -61.5721  -87.9720 C   0  0  1  0  0  0  0  0  0  0  0  0
   63.7649  -60.2766  -88.1266 C   0  0  0  0  0  0  0  0  0  0  0  0
   64.1953  -59.2297  -87.1963 C   0  0  0  0  0  0  0  0  0  0  0  0
   64.3286  -57.9083  -87.6377 C   0  0  0  0  0  0  0  0  0  0  0  0
   64.7343  -56.9288  -86.7552 C   0  0  0  0  0  0  0  0  0  0  0  0
   65.0219  -57.1892  -85.4314 C   0  0  0  0  0  0  0  0  0  0  0  0
   64.8925  -58.4883  -84.9907 C   0  0  0  0  0  0  0  0  0  0  0  0
   64.4849  -59.4791  -85.8721 C   0  0  0  0  0  0  0  0  0  0  0  0
   64.4837  -62.0778  -86.5834 C   0  0  0  0  0  0  0  0  0  0  0  0
   64.8550  -61.3299  -85.6592 O   0  0  0  0  0  0  0  0  0  0  0  0
   61.9807  -68.2692  -86.9725 C   0  0  0  0  0  0  0  0  0  0  0  0
   61.0737  -66.7602  -87.4150 S   0  0  0  0  0  0  0  0  0  0  0  0
   62.0847  -65.3392  -86.8717 C   0  0  0  0  0  0  0  0  0  0  0  0
   63.5394  -65.7141  -86.7920 C   0  0  0  0  0  0  0  0  0  0  0  0
   64.3986  -64.5485  -87.0749 C   0  0  2  0  0  0  0  0  0  0  0  0
   64.0338  -63.3670  -86.3137 N   0  0  0  0  0  0  0  0  0  0  0  0
   64.5456  -64.2469  -88.5056 C   0  0  0  0  0  0  0  0  0  0  0  0
   64.6897  -65.3688  -89.3608 O   0  0  0  0  0  0  0  0  0  0  0  0
   64.5575  -63.1332  -89.0422 O   0  0  0  0  0  0  0  0  0  0  0  0
  2  1  1  1
  3  4  1  0
  3  2  1  0
  5  2  1  0
  5  6  2  0
  7  5  1  0
  8  7  1  0
  8  9  1  1
 10  9  1  0
 10 11  2  0
 12 11  1  0
 13 12  2  0
 14 15  2  0
 14 13  1  0
 15 10  1  0
 16  8  1  0
 17 16  2  0
 18 19  1  0
 19 20  1  0
 20 21  1  0
 22 21  1  6
 22 24  1  0
 22 23  1  0
 23 16  1  0
 24 25  1  0
 26 24  2  0
M  END
$$$$
