CFM.pdb
     RDKit          3D

 26 26  0  0  1  0  0  0  0  0999 V2000
    9.0413  -18.0578   19.0203 N   0  0  0  0  0  0  0  0  0  0  0  0
    9.1473  -18.4114   20.4174 C   0  0  1  0  0  0  0  0  0  0  0  0
   10.3409  -19.3151   20.6762 C   0  0  0  0  0  0  0  0  0  0  0  0
   10.3928  -19.7704   22.4284 S   0  0  0  0  0  0  0  0  0  0  0  0
    9.1981  -17.1980   21.2789 C   0  0  0  0  0  0  0  0  0  0  0  0
   10.0402  -16.2900   21.0658 O   0  0  0  0  0  0  0  0  0  0  0  0
    8.3060  -17.0158   22.3681 N   0  0  0  0  0  0  0  0  0  0  0  0
    8.3051  -15.8308   23.1680 C   0  0  1  0  0  0  0  0  0  0  0  0
    6.9745  -15.5773   23.8400 C   0  0  0  0  0  0  0  0  0  0  0  0
    6.9665  -14.3824   24.6879 C   0  0  0  0  0  0  0  0  0  0  0  0
    6.3607  -14.4193   25.9490 C   0  0  0  0  0  0  0  0  0  0  0  0
    6.3576  -13.2898   26.7409 C   0  0  0  0  0  0  0  0  0  0  0  0
    6.9331  -12.0998   26.3462 C   0  0  0  0  0  0  0  0  0  0  0  0
    7.5312  -12.0572   25.1057 C   0  0  0  0  0  0  0  0  0  0  0  0
    7.5384  -13.1889   24.3033 C   0  0  0  0  0  0  0  0  0  0  0  0
    9.4283  -15.7728   24.1276 C   0  0  0  0  0  0  0  0  0  0  0  0
   10.1814  -14.7808   24.1118 O   0  0  0  0  0  0  0  0  0  0  0  0
    9.3763  -13.3413   28.7167 C   0  0  0  0  0  0  0  0  0  0  0  0
   10.8556  -14.1835   29.3476 S   0  0  0  0  0  0  0  0  0  0  0  0
   11.1632  -15.6241   28.2675 C   0  0  0  0  0  0  0  0  0  0  0  0
   10.2621  -15.5947   27.0632 C   0  0  0  0  0  0  0  0  0  0  0  0
   10.5345  -16.7409   26.1751 C   0  0  2  0  0  0  0  0  0  0  0  0
    9.6406  -16.8085   25.0329 N   0  0  0  0  0  0  0  0  0  0  0  0
   10.6199  -18.0313   26.8730 C   0  0  0  0  0  0  0  0  0  0  0  0
    9.8006  -19.0673   26.3566 O   0  0  0  0  0  0  0  0  0  0  0  0
   11.3206  -18.3121   27.8521 O   0  0  0  0  0  0  0  0  0  0  0  0
  2  1  1  6
  3  4  1  0
  3  2  1  0
  5  2  1  0
  5  6  2  0
  7  5  1  0
  8  7  1  0
  8  9  1  1
 10  9  1  0
 10 11  2  0
 12 11  1  0
 13 12  2  0
 14 15  2  0
 14 13  1  0
 15 10  1  0
 16  8  1  0
 17 16  2  0
 18 19  1  0
 19 20  1  0
 20 21  1  0
 22 21  1  1
 22 24  1  0
 22 23  1  0
 23 16  1  0
 24 25  1  0
 26 24  2  0
M  END
$$$$
