CFM.pdb
     RDKit          3D

 26 26  0  0  1  0  0  0  0  0999 V2000
   10.4991  -16.6924   18.3138 N   0  0  0  0  0  0  0  0  0  0  0  0
    9.9751  -17.4168   19.4490 C   0  0  1  0  0  0  0  0  0  0  0  0
   10.7831  -18.6718   19.7325 C   0  0  0  0  0  0  0  0  0  0  0  0
   10.0580  -19.5607   21.1340 S   0  0  0  0  0  0  0  0  0  0  0  0
    9.8970  -16.5470   20.6550 C   0  0  0  0  0  0  0  0  0  0  0  0
   10.8432  -15.7781   20.9585 O   0  0  0  0  0  0  0  0  0  0  0  0
    8.7609  -16.5486   21.5062 N   0  0  0  0  0  0  0  0  0  0  0  0
    8.6634  -15.7041   22.6558 C   0  0  1  0  0  0  0  0  0  0  0  0
    7.2532  -15.2227   22.9126 C   0  0  0  0  0  0  0  0  0  0  0  0
    7.1391  -14.3449   24.0802 C   0  0  0  0  0  0  0  0  0  0  0  0
    7.5812  -13.0190   24.0089 C   0  0  0  0  0  0  0  0  0  0  0  0
    7.4700  -12.1994   25.1129 C   0  0  0  0  0  0  0  0  0  0  0  0
    6.9342  -12.6277   26.3097 C   0  0  0  0  0  0  0  0  0  0  0  0
    6.4972  -13.9322   26.3862 C   0  0  0  0  0  0  0  0  0  0  0  0
    6.6055  -14.7627   25.2803 C   0  0  0  0  0  0  0  0  0  0  0  0
    9.2751  -16.2924   23.8664 C   0  0  0  0  0  0  0  0  0  0  0  0
    9.0987  -17.5029   24.1010 O   0  0  0  0  0  0  0  0  0  0  0  0
    9.0667  -13.4368   29.3692 C   0  0  0  0  0  0  0  0  0  0  0  0
   10.5853  -14.3503   29.7629 S   0  0  0  0  0  0  0  0  0  0  0  0
   10.8784  -15.5306   28.4000 C   0  0  0  0  0  0  0  0  0  0  0  0
   10.3436  -14.9941   27.1003 C   0  0  0  0  0  0  0  0  0  0  0  0
   10.5689  -15.9543   26.0030 C   0  0  2  0  0  0  0  0  0  0  0  0
   10.0348  -15.5073   24.7290 N   0  0  0  0  0  0  0  0  0  0  0  0
   10.1489  -17.3277   26.3144 C   0  0  0  0  0  0  0  0  0  0  0  0
    8.7526  -17.5276   26.4606 O   0  0  0  0  0  0  0  0  0  0  0  0
   10.8713  -18.3201   26.4619 O   0  0  0  0  0  0  0  0  0  0  0  0
  2  1  1  6
  3  4  1  0
  3  2  1  0
  5  2  1  0
  5  6  2  0
  7  5  1  0
  8  7  1  0
  8  9  1  1
 10  9  1  0
 10 11  2  0
 12 11  1  0
 13 12  2  0
 14 15  2  0
 14 13  1  0
 15 10  1  0
 16  8  1  0
 17 16  2  0
 18 19  1  0
 19 20  1  0
 20 21  1  0
 22 21  1  1
 22 24  1  0
 22 23  1  0
 23 16  1  0
 24 25  1  0
 26 24  2  0
M  END
$$$$
