CFM.pdb
     RDKit          3D

 26 26  0  0  1  0  0  0  0  0999 V2000
    6.1111  -19.1909   21.5641 N   0  0  0  0  0  0  0  0  0  0  0  0
    6.4075  -18.2219   22.5943 C   0  0  1  0  0  0  0  0  0  0  0  0
    6.3189  -18.8358   23.9812 C   0  0  0  0  0  0  0  0  0  0  0  0
    6.3467  -17.5256   25.2314 S   0  0  0  0  0  0  0  0  0  0  0  0
    7.7371  -17.5890   22.3733 C   0  0  0  0  0  0  0  0  0  0  0  0
    8.7240  -18.2730   22.0029 O   0  0  0  0  0  0  0  0  0  0  0  0
    7.9458  -16.1986   22.5697 N   0  0  0  0  0  0  0  0  0  0  0  0
    9.2382  -15.5957   22.4679 C   0  0  1  0  0  0  0  0  0  0  0  0
    9.1729  -14.1026   22.2381 C   0  0  0  0  0  0  0  0  0  0  0  0
    8.3677  -13.7255   21.0734 C   0  0  0  0  0  0  0  0  0  0  0  0
    6.9734  -13.6592   21.1744 C   0  0  0  0  0  0  0  0  0  0  0  0
    6.2229  -13.3033   20.0730 C   0  0  0  0  0  0  0  0  0  0  0  0
    6.7872  -13.0026   18.8507 C   0  0  0  0  0  0  0  0  0  0  0  0
    8.1595  -13.0660   18.7449 C   0  0  0  0  0  0  0  0  0  0  0  0
    8.9213  -13.4232   19.8480 C   0  0  0  0  0  0  0  0  0  0  0  0
   10.1349  -15.9428   23.5909 C   0  0  0  0  0  0  0  0  0  0  0  0
   11.3582  -15.7442   23.4664 O   0  0  0  0  0  0  0  0  0  0  0  0
    7.4736  -12.2611   27.4432 C   0  0  0  0  0  0  0  0  0  0  0  0
    7.7878  -13.5742   28.6568 S   0  0  0  0  0  0  0  0  0  0  0  0
    9.1412  -14.6097   27.9992 C   0  0  0  0  0  0  0  0  0  0  0  0
    8.8440  -15.0525   26.5926 C   0  0  0  0  0  0  0  0  0  0  0  0
    9.8881  -15.9708   26.0992 C   0  0  2  0  0  0  0  0  0  0  0  0
    9.6212  -16.4823   24.7667 N   0  0  0  0  0  0  0  0  0  0  0  0
   10.2260  -17.0512   27.0363 C   0  0  0  0  0  0  0  0  0  0  0  0
   10.1687  -18.3661   26.5082 O   0  0  0  0  0  0  0  0  0  0  0  0
   10.5518  -16.9425   28.2239 O   0  0  0  0  0  0  0  0  0  0  0  0
  2  1  1  6
  3  4  1  0
  3  2  1  0
  5  2  1  0
  5  6  2  0
  7  5  1  0
  8  7  1  0
  8  9  1  1
 10  9  1  0
 10 11  2  0
 12 11  1  0
 13 12  2  0
 14 15  2  0
 14 13  1  0
 15 10  1  0
 16  8  1  0
 17 16  2  0
 18 19  1  0
 19 20  1  0
 20 21  1  0
 22 21  1  1
 22 24  1  0
 22 23  1  0
 23 16  1  0
 24 25  1  0
 26 24  2  0
M  END
$$$$
