CFM.pdb
     RDKit          3D

 26 26  0  0  1  0  0  0  0  0999 V2000
    9.3994  -18.5438   19.2383 N   0  0  0  0  0  0  0  0  0  0  0  0
    9.2280  -18.6120   20.6715 C   0  0  1  0  0  0  0  0  0  0  0  0
   10.1969  -19.5967   21.3040 C   0  0  0  0  0  0  0  0  0  0  0  0
    9.8122  -19.7862   23.0637 S   0  0  0  0  0  0  0  0  0  0  0  0
    9.3512  -17.2652   21.2944 C   0  0  0  0  0  0  0  0  0  0  0  0
   10.3431  -16.5318   21.0555 O   0  0  0  0  0  0  0  0  0  0  0  0
    8.3627  -16.7559   22.1770 N   0  0  0  0  0  0  0  0  0  0  0  0
    8.4097  -15.4236   22.6935 C   0  0  1  0  0  0  0  0  0  0  0  0
    7.0377  -14.8561   22.9795 C   0  0  0  0  0  0  0  0  0  0  0  0
    7.0069  -13.9565   24.1356 C   0  0  0  0  0  0  0  0  0  0  0  0
    6.5425  -14.4172   25.3728 C   0  0  0  0  0  0  0  0  0  0  0  0
    6.5169  -13.5636   26.4561 C   0  0  0  0  0  0  0  0  0  0  0  0
    6.9341  -12.2508   26.3821 C   0  0  0  0  0  0  0  0  0  0  0  0
    7.3924  -11.7912   25.1666 C   0  0  0  0  0  0  0  0  0  0  0  0
    7.4213  -12.6435   24.0724 C   0  0  0  0  0  0  0  0  0  0  0  0
    9.3199  -15.2768   23.8494 C   0  0  0  0  0  0  0  0  0  0  0  0
    9.5348  -14.1373   24.3040 O   0  0  0  0  0  0  0  0  0  0  0  0
   10.0179  -13.1280   28.8694 C   0  0  0  0  0  0  0  0  0  0  0  0
   10.3123  -14.8496   29.3642 S   0  0  0  0  0  0  0  0  0  0  0  0
   11.0751  -15.7017   27.9399 C   0  0  0  0  0  0  0  0  0  0  0  0
   10.1394  -15.7221   26.7621 C   0  0  0  0  0  0  0  0  0  0  0  0
   10.7766  -16.3633   25.5960 C   0  0  2  0  0  0  0  0  0  0  0  0
    9.9259  -16.3926   24.4197 N   0  0  0  0  0  0  0  0  0  0  0  0
   11.3528  -17.6849   25.8807 C   0  0  0  0  0  0  0  0  0  0  0  0
   12.6601  -17.6824   26.4302 O   0  0  0  0  0  0  0  0  0  0  0  0
   10.8292  -18.7895   25.6959 O   0  0  0  0  0  0  0  0  0  0  0  0
  2  1  1  6
  3  4  1  0
  3  2  1  0
  5  2  1  0
  5  6  2  0
  7  5  1  0
  8  7  1  0
  8  9  1  1
 10  9  1  0
 10 11  2  0
 12 11  1  0
 13 12  2  0
 14 15  2  0
 14 13  1  0
 15 10  1  0
 16  8  1  0
 17 16  2  0
 18 19  1  0
 19 20  1  0
 20 21  1  0
 22 21  1  1
 22 24  1  0
 22 23  1  0
 23 16  1  0
 24 25  1  0
 26 24  2  0
M  END
$$$$
