CFM.pdb
     RDKit          3D

 26 26  0  0  1  0  0  0  0  0999 V2000
    3.9304  -19.5994   22.0086 N   0  0  0  0  0  0  0  0  0  0  0  0
    4.9573  -19.5990   23.0253 C   0  0  1  0  0  0  0  0  0  0  0  0
    6.0391  -20.6234   22.7274 C   0  0  0  0  0  0  0  0  0  0  0  0
    5.5533  -21.6260   21.2994 S   0  0  0  0  0  0  0  0  0  0  0  0
    5.5410  -18.2406   23.2022 C   0  0  0  0  0  0  0  0  0  0  0  0
    5.6456  -17.4514   22.2301 O   0  0  0  0  0  0  0  0  0  0  0  0
    6.0003  -17.7823   24.4649 N   0  0  0  0  0  0  0  0  0  0  0  0
    6.6620  -16.5257   24.6298 C   0  0  1  0  0  0  0  0  0  0  0  0
    6.4591  -15.9315   26.0053 C   0  0  0  0  0  0  0  0  0  0  0  0
    6.8601  -14.5254   26.0992 C   0  0  0  0  0  0  0  0  0  0  0  0
    8.1843  -14.1908   26.4046 C   0  0  0  0  0  0  0  0  0  0  0  0
    8.5533  -12.8644   26.4911 C   0  0  0  0  0  0  0  0  0  0  0  0
    7.6660  -11.8279   26.2878 C   0  0  0  0  0  0  0  0  0  0  0  0
    6.3608  -12.1509   25.9868 C   0  0  0  0  0  0  0  0  0  0  0  0
    5.9818  -13.4824   25.8981 C   0  0  0  0  0  0  0  0  0  0  0  0
    8.0903  -16.5632   24.2497 C   0  0  0  0  0  0  0  0  0  0  0  0
    8.8068  -17.4792   24.6957 O   0  0  0  0  0  0  0  0  0  0  0  0
    7.9876  -11.7730   21.3708 C   0  0  0  0  0  0  0  0  0  0  0  0
    8.3595  -12.9247   20.0176 S   0  0  0  0  0  0  0  0  0  0  0  0
    8.4906  -14.5948   20.7458 C   0  0  0  0  0  0  0  0  0  0  0  0
    9.8162  -14.7786   21.4329 C   0  0  0  0  0  0  0  0  0  0  0  0
    9.7243  -15.8091   22.4848 C   0  0  2  0  0  0  0  0  0  0  0  0
    8.6249  -15.5919   23.4081 N   0  0  0  0  0  0  0  0  0  0  0  0
   10.9875  -16.0536   23.1948 C   0  0  0  0  0  0  0  0  0  0  0  0
   10.9239  -15.9808   24.6096 O   0  0  0  0  0  0  0  0  0  0  0  0
   12.0903  -16.3135   22.7002 O   0  0  0  0  0  0  0  0  0  0  0  0
  2  1  1  6
  3  4  1  0
  3  2  1  0
  5  2  1  0
  5  6  2  0
  7  5  1  0
  8  7  1  0
  8  9  1  1
 10  9  1  0
 10 11  2  0
 12 11  1  0
 13 12  2  0
 14 15  2  0
 14 13  1  0
 15 10  1  0
 16  8  1  0
 17 16  2  0
 18 19  1  0
 19 20  1  0
 20 21  1  0
 22 21  1  6
 22 24  1  0
 22 23  1  0
 23 16  1  0
 24 25  1  0
 26 24  2  0
M  END
$$$$
