CFM.pdb
     RDKit          3D

 26 26  0  0  1  0  0  0  0  0999 V2000
   11.3760  -16.8580   18.6895 N   0  0  0  0  0  0  0  0  0  0  0  0
   10.4936  -17.4872   19.6455 C   0  0  1  0  0  0  0  0  0  0  0  0
   11.0257  -18.8385   20.0919 C   0  0  0  0  0  0  0  0  0  0  0  0
   10.6834  -20.0800   18.8184 S   0  0  0  0  0  0  0  0  0  0  0  0
   10.2418  -16.5989   20.8136 C   0  0  0  0  0  0  0  0  0  0  0  0
   11.1532  -15.8689   21.2776 O   0  0  0  0  0  0  0  0  0  0  0  0
    8.9732  -16.5385   21.4479 N   0  0  0  0  0  0  0  0  0  0  0  0
    8.7318  -15.7321   22.6036 C   0  0  1  0  0  0  0  0  0  0  0  0
    7.3104  -15.2217   22.6766 C   0  0  0  0  0  0  0  0  0  0  0  0
    7.0699  -14.3226   23.8083 C   0  0  0  0  0  0  0  0  0  0  0  0
    7.3753  -12.9610   23.7015 C   0  0  0  0  0  0  0  0  0  0  0  0
    7.1458  -12.1214   24.7718 C   0  0  0  0  0  0  0  0  0  0  0  0
    6.6195  -12.5634   25.9679 C   0  0  0  0  0  0  0  0  0  0  0  0
    6.3168  -13.9030   26.0792 C   0  0  0  0  0  0  0  0  0  0  0  0
    6.5448  -14.7538   25.0073 C   0  0  0  0  0  0  0  0  0  0  0  0
    9.1519  -16.3785   23.8651 C   0  0  0  0  0  0  0  0  0  0  0  0
    9.1045  -17.6203   23.9487 O   0  0  0  0  0  0  0  0  0  0  0  0
    9.9595  -13.1781   29.3635 C   0  0  0  0  0  0  0  0  0  0  0  0
   10.9131  -14.6377   29.8693 S   0  0  0  0  0  0  0  0  0  0  0  0
   10.8891  -15.8137   28.4718 C   0  0  0  0  0  0  0  0  0  0  0  0
   10.2347  -15.1999   27.2643 C   0  0  0  0  0  0  0  0  0  0  0  0
   10.2295  -16.1456   26.1318 C   0  0  2  0  0  0  0  0  0  0  0  0
    9.5927  -15.6127   24.9407 N   0  0  0  0  0  0  0  0  0  0  0  0
    9.7157  -17.4803   26.4695 C   0  0  0  0  0  0  0  0  0  0  0  0
    8.3078  -17.6352   26.3993 O   0  0  0  0  0  0  0  0  0  0  0  0
   10.3687  -18.4750   26.8051 O   0  0  0  0  0  0  0  0  0  0  0  0
  2  1  1  6
  3  4  1  0
  3  2  1  0
  5  2  1  0
  5  6  2  0
  7  5  1  0
  8  7  1  0
  8  9  1  1
 10  9  1  0
 10 11  2  0
 12 11  1  0
 13 12  2  0
 14 15  2  0
 14 13  1  0
 15 10  1  0
 16  8  1  0
 17 16  2  0
 18 19  1  0
 19 20  1  0
 20 21  1  0
 22 21  1  1
 22 24  1  0
 22 23  1  0
 23 16  1  0
 24 25  1  0
 26 24  2  0
M  END
$$$$
