CFM.pdb
     RDKit          3D

 26 26  0  0  1  0  0  0  0  0999 V2000
   10.8777  -17.0230   18.6021 N   0  0  0  0  0  0  0  0  0  0  0  0
   10.0133  -17.5787   19.6182 C   0  0  1  0  0  0  0  0  0  0  0  0
   10.4727  -18.9620   20.0471 C   0  0  0  0  0  0  0  0  0  0  0  0
   10.2767  -20.1238   18.6715 S   0  0  0  0  0  0  0  0  0  0  0  0
    9.9002  -16.6656   20.7889 C   0  0  0  0  0  0  0  0  0  0  0  0
   10.8691  -15.9489   21.1445 O   0  0  0  0  0  0  0  0  0  0  0  0
    8.7041  -16.5659   21.5471 N   0  0  0  0  0  0  0  0  0  0  0  0
    8.5869  -15.7072   22.6841 C   0  0  1  0  0  0  0  0  0  0  0  0
    7.1858  -15.1709   22.8727 C   0  0  0  0  0  0  0  0  0  0  0  0
    7.0398  -14.3217   24.0577 C   0  0  0  0  0  0  0  0  0  0  0  0
    6.4347  -14.8267   25.2143 C   0  0  0  0  0  0  0  0  0  0  0  0
    6.3013  -14.0204   26.3256 C   0  0  0  0  0  0  0  0  0  0  0  0
    6.7428  -12.7139   26.3573 C   0  0  0  0  0  0  0  0  0  0  0  0
    7.3394  -12.2109   25.2217 C   0  0  0  0  0  0  0  0  0  0  0  0
    7.4773  -13.0155   24.1000 C   0  0  0  0  0  0  0  0  0  0  0  0
    9.1207  -16.3060   23.9260 C   0  0  0  0  0  0  0  0  0  0  0  0
    8.9709  -17.5278   24.1165 O   0  0  0  0  0  0  0  0  0  0  0  0
    9.4242  -14.1225   30.3311 C   0  0  0  0  0  0  0  0  0  0  0  0
   10.9858  -13.9687   29.4181 S   0  0  0  0  0  0  0  0  0  0  0  0
   11.1051  -15.4074   28.2990 C   0  0  0  0  0  0  0  0  0  0  0  0
   11.0864  -14.9713   26.8594 C   0  0  0  0  0  0  0  0  0  0  0  0
   10.5322  -16.0318   25.9963 C   0  0  2  0  0  0  0  0  0  0  0  0
    9.7791  -15.5183   24.8660 N   0  0  0  0  0  0  0  0  0  0  0  0
    9.7803  -17.0635   26.7242 C   0  0  0  0  0  0  0  0  0  0  0  0
    8.3701  -16.9140   26.7246 O   0  0  0  0  0  0  0  0  0  0  0  0
   10.2364  -18.0391   27.3312 O   0  0  0  0  0  0  0  0  0  0  0  0
  2  1  1  6
  3  4  1  0
  3  2  1  0
  5  2  1  0
  5  6  2  0
  7  5  1  0
  8  7  1  0
  8  9  1  1
 10  9  1  0
 10 11  2  0
 12 11  1  0
 13 12  2  0
 14 15  2  0
 14 13  1  0
 15 10  1  0
 16  8  1  0
 17 16  2  0
 18 19  1  0
 19 20  1  0
 20 21  1  0
 22 21  1  1
 22 24  1  0
 22 23  1  0
 23 16  1  0
 24 25  1  0
 26 24  2  0
M  END
$$$$
