CQC.pdb
     RDKit          3D

 22 21  0  0  1  0  0  0  0  0999 V2000
    4.3081  -19.8807   21.1483 N   0  0  0  0  0  0  0  0  0  0  0  0
    5.3848  -18.9735   21.4016 C   0  0  1  0  0  0  0  0  0  0  0  0
    5.4397  -17.9648   20.2762 C   0  0  0  0  0  0  0  0  0  0  0  0
    6.7781  -16.7971   20.6564 S   0  0  0  0  0  0  0  0  0  0  0  0
    5.3190  -18.3358   22.7277 C   0  0  0  0  0  0  0  0  0  0  0  0
    4.1896  -17.9080   23.1048 O   0  0  0  0  0  0  0  0  0  0  0  0
    6.9061  -20.6425   27.7889 N   0  0  0  0  0  0  0  0  0  0  0  0
    7.9133  -19.6613   27.6654 C   0  0  0  0  0  0  0  0  0  0  0  0
    8.8872  -19.7239   28.4537 O   0  0  0  0  0  0  0  0  0  0  0  0
    7.8511  -18.5850   26.6526 C   0  0  0  0  0  0  0  0  0  0  0  0
    6.5368  -18.6476   25.9486 C   0  0  0  0  0  0  0  0  0  0  0  0
    6.3579  -17.5758   24.9127 C   0  0  2  0  0  0  0  0  0  0  0  0
    6.4205  -18.1700   23.6006 N   0  0  0  0  0  0  0  0  0  0  0  0
    7.3886  -16.4891   25.0774 C   0  0  0  0  0  0  0  0  0  0  0  0
    8.4567  -16.5971   24.4422 O   0  0  0  0  0  0  0  0  0  0  0  0
    7.1466  -15.4070   25.9122 N   0  0  0  0  0  0  0  0  0  0  0  0
    8.0226  -14.3092   26.0980 C   0  0  1  0  0  0  0  0  0  0  0  0
    7.3946  -13.0326   26.4953 C   0  0  0  0  0  0  0  0  0  0  0  0
    5.6175  -13.0978   26.1569 S   0  0  0  0  0  0  0  0  0  0  0  0
    9.2808  -14.6016   26.8511 C   0  0  0  0  0  0  0  0  0  0  0  0
    9.6109  -15.7662   27.4748 O   0  0  0  0  0  0  0  0  0  0  0  0
   10.1148  -13.6392   26.8921 O   0  0  0  0  0  0  0  0  0  0  0  0
  2  1  1  6
  2  5  1  0
  3  2  1  0
  4  3  1  0
  5  6  2  0
  7  8  1  0
  8  9  2  0
  8 10  1  0
 10 11  1  0
 12 11  1  1
 12 14  1  0
 13 12  1  0
 13  5  1  0
 14 15  2  0
 14 16  1  0
 16 17  1  0
 17 20  1  0
 17 18  1  1
 19 18  1  0
 20 22  2  0
 20 21  1  0
M  END
$$$$
