CQC.pdb
     RDKit          3D

 22 21  0  0  1  0  0  0  0  0999 V2000
    8.8978  -12.7200   19.1555 N   0  0  0  0  0  0  0  0  0  0  0  0
    8.0001  -13.4799   19.9699 C   0  0  1  0  0  0  0  0  0  0  0  0
    7.7640  -14.8185   19.3071 C   0  0  0  0  0  0  0  0  0  0  0  0
    6.5501  -14.5625   17.9803 S   0  0  0  0  0  0  0  0  0  0  0  0
    8.4423  -13.6133   21.3686 C   0  0  0  0  0  0  0  0  0  0  0  0
    9.6844  -13.7463   21.5688 O   0  0  0  0  0  0  0  0  0  0  0  0
    5.3850  -11.7287   26.4691 N   0  0  0  0  0  0  0  0  0  0  0  0
    6.5061  -12.3795   27.0278 C   0  0  0  0  0  0  0  0  0  0  0  0
    6.7102  -12.2356   28.2571 O   0  0  0  0  0  0  0  0  0  0  0  0
    7.4260  -13.2083   26.2186 C   0  0  0  0  0  0  0  0  0  0  0  0
    7.1201  -13.0124   24.7712 C   0  0  0  0  0  0  0  0  0  0  0  0
    7.9973  -13.8175   23.8568 C   0  0  2  0  0  0  0  0  0  0  0  0
    7.5827  -13.6033   22.4927 N   0  0  0  0  0  0  0  0  0  0  0  0
    7.9611  -15.2786   24.2230 C   0  0  0  0  0  0  0  0  0  0  0  0
    7.1900  -16.0214   23.5830 O   0  0  0  0  0  0  0  0  0  0  0  0
    8.7645  -15.7714   25.2419 N   0  0  0  0  0  0  0  0  0  0  0  0
    9.5744  -16.9303   25.1528 C   0  0  1  0  0  0  0  0  0  0  0  0
   10.3072  -17.1189   23.8841 C   0  0  0  0  0  0  0  0  0  0  0  0
   11.2379  -18.6704   23.9443 S   0  0  0  0  0  0  0  0  0  0  0  0
   10.4031  -17.2387   26.3585 C   0  0  0  0  0  0  0  0  0  0  0  0
   10.3983  -18.3914   27.0835 O   0  0  0  0  0  0  0  0  0  0  0  0
   11.1907  -16.3041   26.7188 O   0  0  0  0  0  0  0  0  0  0  0  0
  2  1  1  6
  2  5  1  0
  3  2  1  0
  4  3  1  0
  5  6  2  0
  7  8  1  0
  8  9  2  0
  8 10  1  0
 10 11  1  0
 12 11  1  1
 12 14  1  0
 13 12  1  0
 13  5  1  0
 14 15  2  0
 14 16  1  0
 16 17  1  0
 17 20  1  0
 17 18  1  6
 19 18  1  0
 20 22  2  0
 20 21  1  0
M  END
$$$$
