CQC.pdb
     RDKit          3D

 22 21  0  0  1  0  0  0  0  0999 V2000
   16.7481  -10.8911   15.2357 N   0  0  0  0  0  0  0  0  0  0  0  0
   16.7797  -12.3135   15.3847 C   0  0  1  0  0  0  0  0  0  0  0  0
   18.2233  -12.7588   15.4537 C   0  0  0  0  0  0  0  0  0  0  0  0
   18.9539  -12.4939   13.8119 S   0  0  0  0  0  0  0  0  0  0  0  0
   15.9830  -12.8052   16.5218 C   0  0  0  0  0  0  0  0  0  0  0  0
   16.0221  -12.1253   17.5881 O   0  0  0  0  0  0  0  0  0  0  0  0
   11.4289  -17.1229   16.2893 N   0  0  0  0  0  0  0  0  0  0  0  0
   11.6480  -17.0288   17.6805 C   0  0  0  0  0  0  0  0  0  0  0  0
   10.9181  -17.7178   18.4330 O   0  0  0  0  0  0  0  0  0  0  0  0
   12.6932  -16.1578   18.2611 C   0  0  0  0  0  0  0  0  0  0  0  0
   13.4540  -15.5007   17.1582 C   0  0  0  0  0  0  0  0  0  0  0  0
   14.4761  -14.5117   17.6390 C   0  0  2  0  0  0  0  0  0  0  0  0
   15.1847  -13.9735   16.5046 N   0  0  0  0  0  0  0  0  0  0  0  0
   15.4178  -15.1473   18.6287 C   0  0  0  0  0  0  0  0  0  0  0  0
   16.4875  -15.6202   18.1951 O   0  0  0  0  0  0  0  0  0  0  0  0
   15.0949  -15.1993   19.9776 N   0  0  0  0  0  0  0  0  0  0  0  0
   15.8952  -15.7928   20.9847 C   0  0  1  0  0  0  0  0  0  0  0  0
   16.7872  -14.8822   21.7311 C   0  0  0  0  0  0  0  0  0  0  0  0
   15.7963  -13.7519   22.7398 S   0  0  0  0  0  0  0  0  0  0  0  0
   15.2039  -16.7852   21.8639 C   0  0  0  0  0  0  0  0  0  0  0  0
   15.7849  -17.6365   22.7539 O   0  0  0  0  0  0  0  0  0  0  0  0
   13.9353  -16.8101   21.7470 O   0  0  0  0  0  0  0  0  0  0  0  0
  2  1  1  1
  2  5  1  0
  3  2  1  0
  4  3  1  0
  5  6  2  0
  7  8  1  0
  8  9  2  0
  8 10  1  0
 10 11  1  0
 12 11  1  6
 12 14  1  0
 13 12  1  0
 13  5  1  0
 14 15  2  0
 14 16  1  0
 16 17  1  0
 17 20  1  0
 17 18  1  1
 19 18  1  0
 20 22  2  0
 20 21  1  0
M  END
$$$$
