CQC.pdb
     RDKit          3D

 22 21  0  0  1  0  0  0  0  0999 V2000
    8.0690  -14.5118   16.9595 N   0  0  0  0  0  0  0  0  0  0  0  0
    8.8671  -13.8506   17.9455 C   0  0  1  0  0  0  0  0  0  0  0  0
    7.9641  -13.3945   19.0696 C   0  0  0  0  0  0  0  0  0  0  0  0
    6.8492  -12.1299   18.3933 S   0  0  0  0  0  0  0  0  0  0  0  0
   10.0008  -14.6592   18.4257 C   0  0  0  0  0  0  0  0  0  0  0  0
    9.8602  -15.9164   18.4045 O   0  0  0  0  0  0  0  0  0  0  0  0
   16.1107  -14.2156   17.0727 N   0  0  0  0  0  0  0  0  0  0  0  0
   16.0144  -14.3739   18.4720 C   0  0  0  0  0  0  0  0  0  0  0  0
   16.9561  -13.9337   19.1742 O   0  0  0  0  0  0  0  0  0  0  0  0
   14.8569  -15.0313   19.1173 C   0  0  0  0  0  0  0  0  0  0  0  0
   13.5993  -14.3681   18.6642 C   0  0  0  0  0  0  0  0  0  0  0  0
   12.3622  -14.9175   19.3134 C   0  0  2  0  0  0  0  0  0  0  0  0
   11.2241  -14.1328   18.9043 N   0  0  0  0  0  0  0  0  0  0  0  0
   12.5061  -14.9430   20.8131 C   0  0  0  0  0  0  0  0  0  0  0  0
   12.6683  -13.8556   21.4021 O   0  0  0  0  0  0  0  0  0  0  0  0
   12.4582  -16.1443   21.5068 N   0  0  0  0  0  0  0  0  0  0  0  0
   12.5814  -16.2795   22.9116 C   0  0  1  0  0  0  0  0  0  0  0  0
   11.3734  -16.7296   23.6328 C   0  0  0  0  0  0  0  0  0  0  0  0
   10.9236  -18.3954   23.0855 S   0  0  0  0  0  0  0  0  0  0  0  0
   13.8318  -16.9428   23.3937 C   0  0  0  0  0  0  0  0  0  0  0  0
   14.3565  -16.8889   24.6492 O   0  0  0  0  0  0  0  0  0  0  0  0
   14.4473  -17.6274   22.5128 O   0  0  0  0  0  0  0  0  0  0  0  0
  2  1  1  6
  2  5  1  0
  3  2  1  0
  4  3  1  0
  5  6  2  0
  7  8  1  0
  8  9  2  0
  8 10  1  0
 10 11  1  0
 12 11  1  6
 12 14  1  0
 13 12  1  0
 13  5  1  0
 14 15  2  0
 14 16  1  0
 16 17  1  0
 17 20  1  0
 17 18  1  6
 19 18  1  0
 20 22  2  0
 20 21  1  0
M  END
$$$$
