CQC.pdb
     RDKit          3D

 22 21  0  0  1  0  0  0  0  0999 V2000
    7.3585  -16.2160   18.4207 N   0  0  0  0  0  0  0  0  0  0  0  0
    7.9959  -15.2062   19.2084 C   0  0  1  0  0  0  0  0  0  0  0  0
    7.4852  -13.8541   18.7634 C   0  0  0  0  0  0  0  0  0  0  0  0
    8.3724  -12.5936   19.7244 S   0  0  0  0  0  0  0  0  0  0  0  0
    7.8534  -15.4130   20.6598 C   0  0  0  0  0  0  0  0  0  0  0  0
    6.6820  -15.5925   21.1029 O   0  0  0  0  0  0  0  0  0  0  0  0
   12.2232  -17.8015   24.3348 N   0  0  0  0  0  0  0  0  0  0  0  0
   11.2748  -17.3993   25.2998 C   0  0  0  0  0  0  0  0  0  0  0  0
   11.5164  -17.6680   26.5011 O   0  0  0  0  0  0  0  0  0  0  0  0
   10.0309  -16.6850   24.9386 C   0  0  0  0  0  0  0  0  0  0  0  0
   10.0410  -16.3885   23.4761 C   0  0  0  0  0  0  0  0  0  0  0  0
    8.8015  -15.6912   22.9954 C   0  0  2  0  0  0  0  0  0  0  0  0
    8.9251  -15.4247   21.5839 N   0  0  0  0  0  0  0  0  0  0  0  0
    8.5561  -14.4269   23.7775 C   0  0  0  0  0  0  0  0  0  0  0  0
    8.5224  -13.3497   23.1495 O   0  0  0  0  0  0  0  0  0  0  0  0
    8.3749  -14.4714   25.1529 N   0  0  0  0  0  0  0  0  0  0  0  0
    7.8223  -13.4282   25.9361 C   0  0  1  0  0  0  0  0  0  0  0  0
    6.6187  -12.7686   25.3898 C   0  0  0  0  0  0  0  0  0  0  0  0
    5.9168  -11.6569   26.6340 S   0  0  0  0  0  0  0  0  0  0  0  0
    7.7263  -13.6978   27.4037 C   0  0  0  0  0  0  0  0  0  0  0  0
    7.9670  -14.8788   28.0375 O   0  0  0  0  0  0  0  0  0  0  0  0
    7.3842  -12.6942   28.1101 O   0  0  0  0  0  0  0  0  0  0  0  0
  2  1  1  6
  2  5  1  0
  3  2  1  0
  4  3  1  0
  5  6  2  0
  7  8  1  0
  8  9  2  0
  8 10  1  0
 10 11  1  0
 12 11  1  1
 12 14  1  0
 13 12  1  0
 13  5  1  0
 14 15  2  0
 14 16  1  0
 16 17  1  0
 17 20  1  0
 17 18  1  6
 19 18  1  0
 20 22  2  0
 20 21  1  0
M  END
$$$$
