CQC.pdb
     RDKit          3D

 22 21  0  0  1  0  0  0  0  0999 V2000
    6.9191  -15.1895   19.6298 N   0  0  0  0  0  0  0  0  0  0  0  0
    8.1549  -14.8074   20.2408 C   0  0  1  0  0  0  0  0  0  0  0  0
    7.9467  -13.5007   20.9730 C   0  0  0  0  0  0  0  0  0  0  0  0
    7.8772  -12.1824   19.7253 S   0  0  0  0  0  0  0  0  0  0  0  0
    8.7337  -15.8514   21.1038 C   0  0  0  0  0  0  0  0  0  0  0  0
    7.9389  -16.4708   21.8690 O   0  0  0  0  0  0  0  0  0  0  0  0
   14.6223  -20.0471   21.7704 N   0  0  0  0  0  0  0  0  0  0  0  0
   14.1377  -18.7275   21.8974 C   0  0  0  0  0  0  0  0  0  0  0  0
   14.8751  -17.7951   21.4967 O   0  0  0  0  0  0  0  0  0  0  0  0
   12.8118  -18.4227   22.4781 C   0  0  0  0  0  0  0  0  0  0  0  0
   12.0601  -17.5316   21.5466 C   0  0  0  0  0  0  0  0  0  0  0  0
   10.6927  -17.1599   22.0424 C   0  0  2  0  0  0  0  0  0  0  0  0
   10.1032  -16.2061   21.1362 N   0  0  0  0  0  0  0  0  0  0  0  0
   10.7568  -16.6208   23.4480 C   0  0  0  0  0  0  0  0  0  0  0  0
   11.3064  -15.5150   23.6241 O   0  0  0  0  0  0  0  0  0  0  0  0
   10.2180  -17.3403   24.5056 N   0  0  0  0  0  0  0  0  0  0  0  0
   10.2040  -16.9155   25.8570 C   0  0  1  0  0  0  0  0  0  0  0  0
    9.1375  -15.9645   26.2316 C   0  0  0  0  0  0  0  0  0  0  0  0
    7.5239  -16.6552   25.7891 S   0  0  0  0  0  0  0  0  0  0  0  0
   10.4173  -17.9871   26.8777 C   0  0  0  0  0  0  0  0  0  0  0  0
   10.6530  -17.8167   28.2080 O   0  0  0  0  0  0  0  0  0  0  0  0
   10.3630  -19.1762   26.4233 O   0  0  0  0  0  0  0  0  0  0  0  0
  2  1  1  1
  2  5  1  0
  3  2  1  0
  4  3  1  0
  5  6  2  0
  7  8  1  0
  8  9  2  0
  8 10  1  0
 10 11  1  0
 12 11  1  6
 12 14  1  0
 13 12  1  0
 13  5  1  0
 14 15  2  0
 14 16  1  0
 16 17  1  0
 17 20  1  0
 17 18  1  1
 19 18  1  0
 20 22  2  0
 20 21  1  0
M  END
$$$$
