CQC.pdb
     RDKit          3D

 22 21  0  0  1  0  0  0  0  0999 V2000
    6.9414  -16.6907   18.5924 N   0  0  0  0  0  0  0  0  0  0  0  0
    7.6367  -15.6436   19.2755 C   0  0  1  0  0  0  0  0  0  0  0  0
    6.8904  -14.3467   19.0561 C   0  0  0  0  0  0  0  0  0  0  0  0
    7.8412  -13.0276   19.8657 S   0  0  0  0  0  0  0  0  0  0  0  0
    7.8715  -15.9247   20.7022 C   0  0  0  0  0  0  0  0  0  0  0  0
    6.8994  -16.3916   21.3639 O   0  0  0  0  0  0  0  0  0  0  0  0
   13.2486  -17.5402   23.2459 N   0  0  0  0  0  0  0  0  0  0  0  0
   12.4864  -17.3039   24.4102 C   0  0  0  0  0  0  0  0  0  0  0  0
   13.0211  -17.5540   25.5171 O   0  0  0  0  0  0  0  0  0  0  0  0
   11.1038  -16.7804   24.3596 C   0  0  0  0  0  0  0  0  0  0  0  0
   10.7452  -16.4751   22.9436 C   0  0  0  0  0  0  0  0  0  0  0  0
    9.3355  -15.9881   22.7719 C   0  0  2  0  0  0  0  0  0  0  0  0
    9.0966  -15.7108   21.3775 N   0  0  0  0  0  0  0  0  0  0  0  0
    9.0752  -14.7767   23.6293 C   0  0  0  0  0  0  0  0  0  0  0  0
    9.1070  -13.6566   23.0814 O   0  0  0  0  0  0  0  0  0  0  0  0
    8.8095  -14.9147   24.9846 N   0  0  0  0  0  0  0  0  0  0  0  0
    8.2999  -13.8929   25.8232 C   0  0  1  0  0  0  0  0  0  0  0  0
    7.0963  -13.1883   25.3365 C   0  0  0  0  0  0  0  0  0  0  0  0
    6.5942  -11.9368   26.5442 S   0  0  0  0  0  0  0  0  0  0  0  0
    8.2374  -14.2191   27.2811 C   0  0  0  0  0  0  0  0  0  0  0  0
    8.2734  -13.3396   28.3201 O   0  0  0  0  0  0  0  0  0  0  0  0
    8.1362  -15.4611   27.5469 O   0  0  0  0  0  0  0  0  0  0  0  0
  2  1  1  1
  2  5  1  0
  3  2  1  0
  4  3  1  0
  5  6  2  0
  7  8  1  0
  8  9  2  0
  8 10  1  0
 10 11  1  0
 12 11  1  6
 12 14  1  0
 13 12  1  0
 13  5  1  0
 14 15  2  0
 14 16  1  0
 16 17  1  0
 17 20  1  0
 17 18  1  6
 19 18  1  0
 20 22  2  0
 20 21  1  0
M  END
$$$$
