CQC.pdb
     RDKit          3D

 22 21  0  0  1  0  0  0  0  0999 V2000
    6.6624  -15.6919   19.3326 N   0  0  0  0  0  0  0  0  0  0  0  0
    7.4671  -15.0698   20.3386 C   0  0  1  0  0  0  0  0  0  0  0  0
    7.5261  -13.5849   20.0584 C   0  0  0  0  0  0  0  0  0  0  0  0
    8.5949  -13.3462   18.6093 S   0  0  0  0  0  0  0  0  0  0  0  0
    7.0278  -15.3674   21.7127 C   0  0  0  0  0  0  0  0  0  0  0  0
    5.8176  -15.1286   21.9939 O   0  0  0  0  0  0  0  0  0  0  0  0
    8.1875  -20.1101   25.2167 N   0  0  0  0  0  0  0  0  0  0  0  0
    7.6161  -19.2507   26.1797 C   0  0  0  0  0  0  0  0  0  0  0  0
    7.3311  -19.7385   27.2997 O   0  0  0  0  0  0  0  0  0  0  0  0
    7.3507  -17.8211   25.9079 C   0  0  0  0  0  0  0  0  0  0  0  0
    7.6483  -17.5295   24.4749 C   0  0  0  0  0  0  0  0  0  0  0  0
    7.4666  -16.0860   24.1048 C   0  0  2  0  0  0  0  0  0  0  0  0
    7.8571  -15.8967   22.7299 N   0  0  0  0  0  0  0  0  0  0  0  0
    8.2480  -15.1894   25.0300 C   0  0  0  0  0  0  0  0  0  0  0  0
    9.4849  -15.1314   24.8792 O   0  0  0  0  0  0  0  0  0  0  0  0
    7.6016  -14.4560   26.0152 N   0  0  0  0  0  0  0  0  0  0  0  0
    8.2439  -13.6247   26.9657 C   0  0  1  0  0  0  0  0  0  0  0  0
    7.4393  -12.5115   27.5092 C   0  0  0  0  0  0  0  0  0  0  0  0
    6.3893  -11.8261   26.2036 S   0  0  0  0  0  0  0  0  0  0  0  0
    9.0460  -14.3316   28.0111 C   0  0  0  0  0  0  0  0  0  0  0  0
    9.8479  -13.7624   28.9531 O   0  0  0  0  0  0  0  0  0  0  0  0
    8.9440  -15.6016   27.9949 O   0  0  0  0  0  0  0  0  0  0  0  0
  2  1  1  6
  2  5  1  0
  3  2  1  0
  4  3  1  0
  5  6  2  0
  7  8  1  0
  8  9  2  0
  8 10  1  0
 10 11  1  0
 12 11  1  1
 12 14  1  0
 13 12  1  0
 13  5  1  0
 14 15  2  0
 14 16  1  0
 16 17  1  0
 17 20  1  0
 17 18  1  1
 19 18  1  0
 20 22  2  0
 20 21  1  0
M  END
$$$$
