CQC.pdb
     RDKit          3D

 22 21  0  0  1  0  0  0  0  0999 V2000
    6.9046  -15.3065   19.3559 N   0  0  0  0  0  0  0  0  0  0  0  0
    7.7449  -14.6838   20.3319 C   0  0  1  0  0  0  0  0  0  0  0  0
    7.6348  -13.1836   20.1759 C   0  0  0  0  0  0  0  0  0  0  0  0
    8.4774  -12.7335   18.6310 S   0  0  0  0  0  0  0  0  0  0  0  0
    7.4773  -15.1285   21.7104 C   0  0  0  0  0  0  0  0  0  0  0  0
    6.2761  -15.0857   22.1055 O   0  0  0  0  0  0  0  0  0  0  0  0
    5.5595  -18.9169   23.2756 N   0  0  0  0  0  0  0  0  0  0  0  0
    6.7734  -18.8062   23.9872 C   0  0  0  0  0  0  0  0  0  0  0  0
    6.7445  -19.0140   25.2240 O   0  0  0  0  0  0  0  0  0  0  0  0
    8.0505  -18.4589   23.3265 C   0  0  0  0  0  0  0  0  0  0  0  0
    8.7584  -17.4253   24.1373 C   0  0  0  0  0  0  0  0  0  0  0  0
    8.2052  -16.0408   23.9619 C   0  0  2  0  0  0  0  0  0  0  0  0
    8.4606  -15.5958   22.6145 N   0  0  0  0  0  0  0  0  0  0  0  0
    8.7901  -15.0936   24.9774 C   0  0  0  0  0  0  0  0  0  0  0  0
    9.9465  -14.6694   24.7812 O   0  0  0  0  0  0  0  0  0  0  0  0
    8.0561  -14.7120   26.0919 N   0  0  0  0  0  0  0  0  0  0  0  0
    8.5206  -13.8535   27.1186 C   0  0  1  0  0  0  0  0  0  0  0  0
    7.5086  -12.9804   27.7475 C   0  0  0  0  0  0  0  0  0  0  0  0
    6.0075  -12.9629   26.7361 S   0  0  0  0  0  0  0  0  0  0  0  0
    9.4572  -14.4701   28.1077 C   0  0  0  0  0  0  0  0  0  0  0  0
   10.1260  -13.8350   29.1095 O   0  0  0  0  0  0  0  0  0  0  0  0
    9.6234  -15.7264   27.9748 O   0  0  0  0  0  0  0  0  0  0  0  0
  2  1  1  6
  2  5  1  0
  3  2  1  0
  4  3  1  0
  5  6  2  0
  7  8  1  0
  8  9  2  0
  8 10  1  0
 10 11  1  0
 12 11  1  6
 12 14  1  0
 13 12  1  0
 13  5  1  0
 14 15  2  0
 14 16  1  0
 16 17  1  0
 17 20  1  0
 17 18  1  1
 19 18  1  0
 20 22  2  0
 20 21  1  0
M  END
$$$$
