CQC.pdb
     RDKit          3D

 22 21  0  0  1  0  0  0  0  0999 V2000
    7.0569  -15.2166   19.5888 N   0  0  0  0  0  0  0  0  0  0  0  0
    8.1373  -14.6861   20.3619 C   0  0  1  0  0  0  0  0  0  0  0  0
    7.8943  -13.2094   20.5798 C   0  0  0  0  0  0  0  0  0  0  0  0
    8.0237  -12.3919   18.9629 S   0  0  0  0  0  0  0  0  0  0  0  0
    8.3720  -15.4110   21.6225 C   0  0  0  0  0  0  0  0  0  0  0  0
    7.3512  -15.7689   22.2787 O   0  0  0  0  0  0  0  0  0  0  0  0
   11.2173  -20.8404   23.8618 N   0  0  0  0  0  0  0  0  0  0  0  0
   11.8912  -19.6005   23.8913 C   0  0  0  0  0  0  0  0  0  0  0  0
   13.0951  -19.5834   23.5393 O   0  0  0  0  0  0  0  0  0  0  0  0
   11.2286  -18.3485   24.3174 C   0  0  0  0  0  0  0  0  0  0  0  0
   10.9121  -17.5254   23.1135 C   0  0  0  0  0  0  0  0  0  0  0  0
    9.8848  -16.4604   23.3665 C   0  0  2  0  0  0  0  0  0  0  0  0
    9.6473  -15.7316   22.1454 N   0  0  0  0  0  0  0  0  0  0  0  0
   10.3202  -15.5448   24.4812 C   0  0  0  0  0  0  0  0  0  0  0  0
   10.6177  -14.3695   24.1881 O   0  0  0  0  0  0  0  0  0  0  0  0
   10.3846  -16.0055   25.7889 N   0  0  0  0  0  0  0  0  0  0  0  0
   10.2121  -15.2043   26.9445 C   0  0  1  0  0  0  0  0  0  0  0  0
    9.0743  -14.2625   26.9223 C   0  0  0  0  0  0  0  0  0  0  0  0
    9.0766  -13.2703   28.4364 S   0  0  0  0  0  0  0  0  0  0  0  0
   10.3612  -15.9110   28.2538 C   0  0  0  0  0  0  0  0  0  0  0  0
   10.9918  -15.4475   29.3682 O   0  0  0  0  0  0  0  0  0  0  0  0
    9.8269  -17.0667   28.3010 O   0  0  0  0  0  0  0  0  0  0  0  0
  2  1  1  1
  2  5  1  0
  3  2  1  0
  4  3  1  0
  5  6  2  0
  7  8  1  0
  8  9  2  0
  8 10  1  0
 10 11  1  0
 12 11  1  6
 12 14  1  0
 13 12  1  0
 13  5  1  0
 14 15  2  0
 14 16  1  0
 16 17  1  0
 17 20  1  0
 17 18  1  6
 19 18  1  0
 20 22  2  0
 20 21  1  0
M  END
$$$$
