CQC.pdb
     RDKit          3D

 22 21  0  0  1  0  0  0  0  0999 V2000
    7.4714  -15.4109   18.9044 N   0  0  0  0  0  0  0  0  0  0  0  0
    8.0622  -14.5690   19.8987 C   0  0  1  0  0  0  0  0  0  0  0  0
    7.3574  -13.2312   19.8779 C   0  0  0  0  0  0  0  0  0  0  0  0
    7.8614  -12.3737   18.3581 S   0  0  0  0  0  0  0  0  0  0  0  0
    8.0880  -15.1721   21.2423 C   0  0  0  0  0  0  0  0  0  0  0  0
    7.0337  -15.7523   21.6326 O   0  0  0  0  0  0  0  0  0  0  0  0
   12.1995  -18.8080   23.4062 N   0  0  0  0  0  0  0  0  0  0  0  0
   11.4699  -18.6006   24.5966 C   0  0  0  0  0  0  0  0  0  0  0  0
   11.7290  -19.3417   25.5751 O   0  0  0  0  0  0  0  0  0  0  0  0
   10.4307  -17.5548   24.7171 C   0  0  0  0  0  0  0  0  0  0  0  0
   10.3160  -16.8239   23.4212 C   0  0  0  0  0  0  0  0  0  0  0  0
    9.2461  -15.7708   23.4175 C   0  0  2  0  0  0  0  0  0  0  0  0
    9.1992  -15.1477   22.1182 N   0  0  0  0  0  0  0  0  0  0  0  0
    9.4822  -14.7583   24.5082 C   0  0  0  0  0  0  0  0  0  0  0  0
   10.4953  -14.0357   24.4240 O   0  0  0  0  0  0  0  0  0  0  0  0
    8.5937  -14.6423   25.5683 N   0  0  0  0  0  0  0  0  0  0  0  0
    8.7508  -13.7669   26.6710 C   0  0  1  0  0  0  0  0  0  0  0  0
    7.6574  -12.8000   26.8981 C   0  0  0  0  0  0  0  0  0  0  0  0
    6.0614  -13.6175   26.6505 S   0  0  0  0  0  0  0  0  0  0  0  0
    9.2485  -14.3945   27.9337 C   0  0  0  0  0  0  0  0  0  0  0  0
    9.6818  -13.7515   29.0531 O   0  0  0  0  0  0  0  0  0  0  0  0
    9.2515  -15.6686   27.9319 O   0  0  0  0  0  0  0  0  0  0  0  0
  2  1  1  6
  2  5  1  0
  3  2  1  0
  4  3  1  0
  5  6  2  0
  7  8  1  0
  8  9  2  0
  8 10  1  0
 10 11  1  0
 12 11  1  6
 12 14  1  0
 13 12  1  0
 13  5  1  0
 14 15  2  0
 14 16  1  0
 16 17  1  0
 17 20  1  0
 17 18  1  1
 19 18  1  0
 20 22  2  0
 20 21  1  0
M  END
$$$$
