CQC.pdb
     RDKit          3D

 22 21  0  0  1  0  0  0  0  0999 V2000
    7.1342  -14.6206   17.1089 N   0  0  0  0  0  0  0  0  0  0  0  0
    7.9125  -14.1369   18.2074 C   0  0  1  0  0  0  0  0  0  0  0  0
    7.0856  -13.1325   18.9784 C   0  0  0  0  0  0  0  0  0  0  0  0
    8.0226  -12.6855   20.4690 S   0  0  0  0  0  0  0  0  0  0  0  0
    8.4468  -15.2065   19.0677 C   0  0  0  0  0  0  0  0  0  0  0  0
    7.6958  -16.2022   19.2808 O   0  0  0  0  0  0  0  0  0  0  0  0
   12.2476  -20.0429   19.2894 N   0  0  0  0  0  0  0  0  0  0  0  0
   12.7949  -18.7980   19.6674 C   0  0  0  0  0  0  0  0  0  0  0  0
   13.8836  -18.4577   19.1452 O   0  0  0  0  0  0  0  0  0  0  0  0
   12.1322  -17.9040   20.6419 C   0  0  0  0  0  0  0  0  0  0  0  0
   11.5560  -16.7314   19.9208 C   0  0  0  0  0  0  0  0  0  0  0  0
   10.2614  -16.2438   20.5038 C   0  0  2  0  0  0  0  0  0  0  0  0
    9.7290  -15.1979   19.6665 N   0  0  0  0  0  0  0  0  0  0  0  0
   10.4520  -15.7734   21.9226 C   0  0  0  0  0  0  0  0  0  0  0  0
   10.3154  -14.5559   22.1567 O   0  0  0  0  0  0  0  0  0  0  0  0
   10.7694  -16.6751   22.9289 N   0  0  0  0  0  0  0  0  0  0  0  0
   10.5119  -16.4805   24.3083 C   0  0  1  0  0  0  0  0  0  0  0  0
    9.2116  -15.8687   24.6500 C   0  0  0  0  0  0  0  0  0  0  0  0
    9.1312  -15.5670   26.4331 S   0  0  0  0  0  0  0  0  0  0  0  0
   10.8755  -17.6207   25.2047 C   0  0  0  0  0  0  0  0  0  0  0  0
   11.4494  -17.5436   26.4372 O   0  0  0  0  0  0  0  0  0  0  0  0
   10.6032  -18.7748   24.7385 O   0  0  0  0  0  0  0  0  0  0  0  0
  2  1  1  6
  2  5  1  0
  3  2  1  0
  4  3  1  0
  5  6  2  0
  7  8  1  0
  8  9  2  0
  8 10  1  0
 10 11  1  0
 12 11  1  6
 12 14  1  0
 13 12  1  0
 13  5  1  0
 14 15  2  0
 14 16  1  0
 16 17  1  0
 17 20  1  0
 17 18  1  6
 19 18  1  0
 20 22  2  0
 20 21  1  0
M  END
$$$$
