QHW.pdb
     RDKit          3D

 34 36  0  0  1  0  0  0  0  0999 V2000
   34.9830  -26.4363  -16.2573 N   0  0  0  0  0  0  0  0  0  0  0  0
   36.2637  -26.4028  -16.8424 C   0  0  0  0  0  0  0  0  0  0  0  0
   36.9685  -25.3757  -16.6907 O   0  0  0  0  0  0  0  0  0  0  0  0
   36.8302  -27.5413  -17.6430 C   0  0  0  0  0  0  0  0  0  0  0  0
   35.9226  -28.7197  -17.5893 C   0  0  0  0  0  0  0  0  0  0  0  0
   36.4839  -29.8697  -18.3574 C   0  0  2  0  0  0  0  0  0  0  0  0
   36.3909  -29.6117  -19.8070 N   0  0  0  0  0  0  0  0  0  0  0  0
   35.7442  -31.0928  -18.0835 C   0  0  0  0  0  0  0  0  0  0  0  0
   34.7779  -31.4621  -18.8433 O   0  0  0  0  0  0  0  0  0  0  0  0
   36.0419  -31.9411  -16.9746 N   0  0  0  0  0  0  0  0  0  0  0  0
   35.2949  -33.1425  -16.6933 C   0  0  1  0  0  0  0  0  0  0  0  0
   36.0937  -34.1550  -15.9205 C   0  0  0  0  0  0  0  0  0  0  0  0
   36.9949  -34.9454  -16.8119 C   0  0  0  0  0  0  0  0  0  0  0  0
   36.8167  -35.1567  -18.1642 C   0  0  0  0  0  0  0  0  0  0  0  0
   37.8168  -35.9033  -18.6118 N   0  0  0  0  0  0  0  0  0  0  0  0
   38.6435  -36.1884  -17.6018 C   0  0  0  0  0  0  0  0  0  0  0  0
   38.1313  -35.5979  -16.5064 N   0  0  0  0  0  0  0  0  0  0  0  0
   33.9813  -32.8621  -16.0889 C   0  0  0  0  0  0  0  0  0  0  0  0
   33.9339  -32.1931  -14.9993 O   0  0  0  0  0  0  0  0  0  0  0  0
   32.7415  -33.2713  -16.6104 N   0  0  0  0  0  0  0  0  0  0  0  0
   31.4774  -33.0030  -15.9883 C   0  0  1  0  0  0  0  0  0  0  0  0
   30.4971  -32.3565  -16.9487 C   0  0  0  0  0  0  0  0  0  0  0  0
   29.1944  -32.1250  -16.3023 C   0  0  0  0  0  0  0  0  0  0  0  0
   28.7517  -30.9971  -15.6275 C   0  0  0  0  0  0  0  0  0  0  0  0
   27.4983  -31.2274  -15.2059 N   0  0  0  0  0  0  0  0  0  0  0  0
   27.0807  -32.4388  -15.5588 C   0  0  0  0  0  0  0  0  0  0  0  0
   25.9054  -33.1556  -15.3804 C   0  0  0  0  0  0  0  0  0  0  0  0
   25.7954  -34.4368  -15.8905 C   0  0  0  0  0  0  0  0  0  0  0  0
   26.8643  -34.9800  -16.5714 C   0  0  0  0  0  0  0  0  0  0  0  0
   28.0449  -34.2968  -16.7667 C   0  0  0  0  0  0  0  0  0  0  0  0
   28.1334  -33.0131  -16.2467 C   0  0  0  0  0  0  0  0  0  0  0  0
   30.9533  -34.2686  -15.4353 C   0  0  0  0  0  0  0  0  0  0  0  0
   30.2569  -34.2829  -14.3957 O   0  0  0  0  0  0  0  0  0  0  0  0
   31.2232  -35.4683  -16.0589 O   0  0  0  0  0  0  0  0  0  0  0  0
  2  3  2  0
  2  1  1  0
  4  2  1  0
  5  4  1  0
  6  5  1  0
  6  7  1  6
  8 10  1  0
  8  6  1  0
  9  8  2  0
 11 10  1  0
 11 12  1  1
 12 13  1  0
 13 17  1  0
 14 13  2  0
 14 15  1  0
 15 16  1  0
 17 16  2  0
 18 11  1  0
 19 18  2  0
 20 18  1  0
 21 20  1  0
 22 23  1  0
 21 22  1  6
 23 31  1  0
 24 25  1  0
 24 23  2  0
 25 26  1  0
 26 31  2  0
 26 27  1  0
 27 28  2  0
 28 29  1  0
 30 29  2  0
 31 30  1  0
 32 21  1  0
 32 34  1  0
 33 32  2  0
M  END
$$$$
