QHW.pdb
     RDKit          3D

 34 36  0  0  1  0  0  0  0  0999 V2000
   31.2479  -25.7137  -15.9427 N   0  0  0  0  0  0  0  0  0  0  0  0
   31.8634  -24.8885  -16.9039 C   0  0  0  0  0  0  0  0  0  0  0  0
   33.0705  -25.0868  -17.1836 O   0  0  0  0  0  0  0  0  0  0  0  0
   31.1429  -23.7774  -17.6140 C   0  0  0  0  0  0  0  0  0  0  0  0
   29.7465  -23.6569  -17.1132 C   0  0  0  0  0  0  0  0  0  0  0  0
   29.0488  -22.4918  -17.7322 C   0  0  2  0  0  0  0  0  0  0  0  0
   29.9568  -21.7807  -18.6522 N   0  0  0  0  0  0  0  0  0  0  0  0
   28.6206  -21.5393  -16.7187 C   0  0  0  0  0  0  0  0  0  0  0  0
   29.4704  -20.7814  -16.1265 O   0  0  0  0  0  0  0  0  0  0  0  0
   27.2555  -21.3917  -16.3281 N   0  0  0  0  0  0  0  0  0  0  0  0
   26.8480  -20.5449  -15.2338 C   0  0  1  0  0  0  0  0  0  0  0  0
   25.9600  -19.4145  -15.6741 C   0  0  0  0  0  0  0  0  0  0  0  0
   26.6806  -18.4628  -16.5721 C   0  0  0  0  0  0  0  0  0  0  0  0
   28.0158  -18.5253  -16.9163 C   0  0  0  0  0  0  0  0  0  0  0  0
   28.2920  -17.5140  -17.7280 N   0  0  0  0  0  0  0  0  0  0  0  0
   27.1860  -16.7915  -17.9279 C   0  0  0  0  0  0  0  0  0  0  0  0
   26.2073  -17.3806  -17.2165 N   0  0  0  0  0  0  0  0  0  0  0  0
   26.2900  -21.3100  -14.1055 C   0  0  0  0  0  0  0  0  0  0  0  0
   25.8099  -22.4749  -14.3276 O   0  0  0  0  0  0  0  0  0  0  0  0
   26.2338  -20.8687  -12.7718 N   0  0  0  0  0  0  0  0  0  0  0  0
   25.7195  -21.6509  -11.6853 C   0  0  1  0  0  0  0  0  0  0  0  0
   26.7602  -21.8764  -10.6048 C   0  0  0  0  0  0  0  0  0  0  0  0
   26.6901  -20.8284   -9.5727 C   0  0  0  0  0  0  0  0  0  0  0  0
   25.6328  -19.9844   -9.2672 C   0  0  0  0  0  0  0  0  0  0  0  0
   26.0114  -19.1905   -8.2533 N   0  0  0  0  0  0  0  0  0  0  0  0
   27.2551  -19.4547   -7.8660 C   0  0  0  0  0  0  0  0  0  0  0  0
   28.1034  -18.9428   -6.8938 C   0  0  0  0  0  0  0  0  0  0  0  0
   29.3785  -19.4596   -6.7503 C   0  0  0  0  0  0  0  0  0  0  0  0
   29.7841  -20.4813   -7.5828 C   0  0  0  0  0  0  0  0  0  0  0  0
   28.9682  -21.0127   -8.5579 C   0  0  0  0  0  0  0  0  0  0  0  0
   27.6932  -20.4793   -8.6842 C   0  0  0  0  0  0  0  0  0  0  0  0
   24.5146  -20.9786  -11.1576 C   0  0  0  0  0  0  0  0  0  0  0  0
   24.2889  -19.7711  -11.3960 O   0  0  0  0  0  0  0  0  0  0  0  0
   23.6080  -21.6741  -10.3860 O   0  0  0  0  0  0  0  0  0  0  0  0
  2  3  2  0
  2  1  1  0
  4  2  1  0
  5  4  1  0
  6  5  1  0
  6  7  1  6
  8 10  1  0
  8  6  1  0
  9  8  2  0
 11 10  1  0
 11 12  1  6
 12 13  1  0
 13 17  1  0
 14 13  2  0
 14 15  1  0
 15 16  1  0
 17 16  2  0
 18 11  1  0
 19 18  2  0
 20 18  1  0
 21 20  1  0
 22 23  1  0
 21 22  1  1
 23 31  1  0
 24 25  1  0
 24 23  2  0
 25 26  1  0
 26 31  2  0
 26 27  1  0
 27 28  2  0
 28 29  1  0
 30 29  2  0
 31 30  1  0
 32 21  1  0
 32 34  1  0
 33 32  2  0
M  END
$$$$
