QHW.pdb
     RDKit          3D

 34 36  0  0  1  0  0  0  0  0999 V2000
   16.9197  -23.3607    3.9706 N   0  0  0  0  0  0  0  0  0  0  0  0
   16.3238  -23.4015    2.6950 C   0  0  0  0  0  0  0  0  0  0  0  0
   16.3944  -24.4639    2.0311 O   0  0  0  0  0  0  0  0  0  0  0  0
   15.6048  -22.2303    2.0873 C   0  0  0  0  0  0  0  0  0  0  0  0
   15.6453  -21.0594    3.0052 C   0  0  0  0  0  0  0  0  0  0  0  0
   14.2746  -20.5304    3.2674 C   0  0  2  0  0  0  0  0  0  0  0  0
   13.6820  -20.0039    2.0231 N   0  0  0  0  0  0  0  0  0  0  0  0
   14.3100  -19.4391    4.2297 C   0  0  0  0  0  0  0  0  0  0  0  0
   14.6648  -18.2583    3.8734 O   0  0  0  0  0  0  0  0  0  0  0  0
   13.9589  -19.6113    5.6027 N   0  0  0  0  0  0  0  0  0  0  0  0
   14.0407  -18.5402    6.5653 C   0  0  1  0  0  0  0  0  0  0  0  0
   13.2944  -18.8427    7.8349 C   0  0  0  0  0  0  0  0  0  0  0  0
   13.2910  -17.6745    8.7659 C   0  0  0  0  0  0  0  0  0  0  0  0
   12.5705  -16.5086    8.6021 C   0  0  0  0  0  0  0  0  0  0  0  0
   12.8221  -15.7073    9.6280 N   0  0  0  0  0  0  0  0  0  0  0  0
   13.6811  -16.3061   10.4577 C   0  0  0  0  0  0  0  0  0  0  0  0
   13.9610  -17.5079    9.9209 N   0  0  0  0  0  0  0  0  0  0  0  0
   15.4259  -18.0988    6.8024 C   0  0  0  0  0  0  0  0  0  0  0  0
   16.3666  -18.9642    6.7487 O   0  0  0  0  0  0  0  0  0  0  0  0
   15.8220  -16.7809    7.0900 N   0  0  0  0  0  0  0  0  0  0  0  0
   17.1752  -16.3856    7.3537 C   0  0  1  0  0  0  0  0  0  0  0  0
   17.5382  -15.0940    6.6457 C   0  0  0  0  0  0  0  0  0  0  0  0
   17.8280  -15.3320    5.2217 C   0  0  0  0  0  0  0  0  0  0  0  0
   17.6836  -16.5034    4.4935 C   0  0  0  0  0  0  0  0  0  0  0  0
   18.0641  -16.2595    3.2297 N   0  0  0  0  0  0  0  0  0  0  0  0
   18.4526  -14.9982    3.0729 C   0  0  0  0  0  0  0  0  0  0  0  0
   18.9258  -14.2490    2.0043 C   0  0  0  0  0  0  0  0  0  0  0  0
   19.2510  -12.9169    2.1870 C   0  0  0  0  0  0  0  0  0  0  0  0
   19.0971  -12.3558    3.4372 C   0  0  0  0  0  0  0  0  0  0  0  0
   18.6304  -13.0701    4.5192 C   0  0  0  0  0  0  0  0  0  0  0  0
   18.3101  -14.4047    4.3133 C   0  0  0  0  0  0  0  0  0  0  0  0
   17.3524  -16.2804    8.8165 C   0  0  0  0  0  0  0  0  0  0  0  0
   16.4001  -16.4870    9.6017 O   0  0  0  0  0  0  0  0  0  0  0  0
   18.5803  -15.9499    9.3495 O   0  0  0  0  0  0  0  0  0  0  0  0
  2  3  2  0
  2  1  1  0
  4  2  1  0
  5  4  1  0
  6  5  1  0
  6  7  1  6
  8 10  1  0
  8  6  1  0
  9  8  2  0
 11 10  1  0
 11 12  1  1
 12 13  1  0
 13 17  1  0
 14 13  2  0
 14 15  1  0
 15 16  1  0
 17 16  2  0
 18 11  1  0
 19 18  2  0
 20 18  1  0
 21 20  1  0
 22 23  1  0
 21 22  1  6
 23 31  1  0
 24 25  1  0
 24 23  2  0
 25 26  1  0
 26 31  2  0
 26 27  1  0
 27 28  2  0
 28 29  1  0
 30 29  2  0
 31 30  1  0
 32 21  1  0
 32 34  1  0
 33 32  2  0
M  END
$$$$
