QHW.pdb
     RDKit          3D

 34 36  0  0  1  0  0  0  0  0999 V2000
   30.7212  -18.5118  -18.3232 N   0  0  0  0  0  0  0  0  0  0  0  0
   29.4415  -17.9730  -18.5590 C   0  0  0  0  0  0  0  0  0  0  0  0
   29.0512  -17.8448  -19.7447 O   0  0  0  0  0  0  0  0  0  0  0  0
   28.5165  -17.5420  -17.4561 C   0  0  0  0  0  0  0  0  0  0  0  0
   29.2072  -17.6090  -16.1394 C   0  0  0  0  0  0  0  0  0  0  0  0
   29.0946  -18.9705  -15.5385 C   0  0  2  0  0  0  0  0  0  0  0  0
   28.7500  -19.9613  -16.5759 N   0  0  0  0  0  0  0  0  0  0  0  0
   28.0465  -19.0124  -14.5297 C   0  0  0  0  0  0  0  0  0  0  0  0
   28.0235  -18.1623  -13.5685 O   0  0  0  0  0  0  0  0  0  0  0  0
   26.9994  -19.9826  -14.5467 N   0  0  0  0  0  0  0  0  0  0  0  0
   25.9603  -20.0212  -13.5471 C   0  0  1  0  0  0  0  0  0  0  0  0
   24.6184  -20.3860  -14.1186 C   0  0  0  0  0  0  0  0  0  0  0  0
   23.5484  -20.3614  -13.0765 C   0  0  0  0  0  0  0  0  0  0  0  0
   23.7156  -20.0183  -11.7501 C   0  0  0  0  0  0  0  0  0  0  0  0
   22.5441  -20.1143  -11.1367 N   0  0  0  0  0  0  0  0  0  0  0  0
   21.6158  -20.5077  -12.0133 C   0  0  0  0  0  0  0  0  0  0  0  0
   22.2409  -20.6559  -13.1957 N   0  0  0  0  0  0  0  0  0  0  0  0
   26.3306  -20.8390  -12.3792 C   0  0  0  0  0  0  0  0  0  0  0  0
   26.8360  -21.9982  -12.5733 O   0  0  0  0  0  0  0  0  0  0  0  0
   26.1768  -20.4553  -11.0354 N   0  0  0  0  0  0  0  0  0  0  0  0
   26.4116  -21.3228   -9.9178 C   0  0  1  0  0  0  0  0  0  0  0  0
   27.7790  -21.0974   -9.3008 C   0  0  0  0  0  0  0  0  0  0  0  0
   27.6933  -20.2105   -8.1285 C   0  0  0  0  0  0  0  0  0  0  0  0
   26.8756  -19.1068   -7.9366 C   0  0  0  0  0  0  0  0  0  0  0  0
   27.1319  -18.6034   -6.7191 N   0  0  0  0  0  0  0  0  0  0  0  0
   28.0697  -19.3043   -6.0898 C   0  0  0  0  0  0  0  0  0  0  0  0
   28.6867  -19.2148   -4.8496 C   0  0  0  0  0  0  0  0  0  0  0  0
   29.6567  -20.1348   -4.4945 C   0  0  0  0  0  0  0  0  0  0  0  0
   29.9937  -21.1303   -5.3872 C   0  0  0  0  0  0  0  0  0  0  0  0
   29.4016  -21.2484   -6.6258 C   0  0  0  0  0  0  0  0  0  0  0  0
   28.4310  -20.3148   -6.9613 C   0  0  0  0  0  0  0  0  0  0  0  0
   25.3252  -21.1225   -8.9372 C   0  0  0  0  0  0  0  0  0  0  0  0
   24.5524  -20.1414   -9.0167 O   0  0  0  0  0  0  0  0  0  0  0  0
   25.1399  -22.0198   -7.9068 O   0  0  0  0  0  0  0  0  0  0  0  0
  2  3  2  0
  2  1  1  0
  4  2  1  0
  5  4  1  0
  6  5  1  0
  6  7  1  6
  8 10  1  0
  8  6  1  0
  9  8  2  0
 11 10  1  0
 11 12  1  6
 12 13  1  0
 13 17  1  0
 14 13  2  0
 14 15  1  0
 15 16  1  0
 17 16  2  0
 18 11  1  0
 19 18  2  0
 20 18  1  0
 21 20  1  0
 22 23  1  0
 21 22  1  1
 23 31  1  0
 24 25  1  0
 24 23  2  0
 25 26  1  0
 26 31  2  0
 26 27  1  0
 27 28  2  0
 28 29  1  0
 30 29  2  0
 31 30  1  0
 32 21  1  0
 32 34  1  0
 33 32  2  0
M  END
$$$$
