QHW.pdb
     RDKit          3D

 34 36  0  0  1  0  0  0  0  0999 V2000
   18.9958  -17.0134  -14.0575 N   0  0  0  0  0  0  0  0  0  0  0  0
   19.3484  -17.7338  -15.2152 C   0  0  0  0  0  0  0  0  0  0  0  0
   18.6913  -17.5424  -16.2670 O   0  0  0  0  0  0  0  0  0  0  0  0
   20.4774  -18.7246  -15.2533 C   0  0  0  0  0  0  0  0  0  0  0  0
   21.0949  -18.8645  -13.9063 C   0  0  0  0  0  0  0  0  0  0  0  0
   22.5806  -18.7415  -13.9772 C   0  0  2  0  0  0  0  0  0  0  0  0
   23.0449  -18.9342  -15.3642 N   0  0  0  0  0  0  0  0  0  0  0  0
   23.2292  -19.7525  -13.1554 C   0  0  0  0  0  0  0  0  0  0  0  0
   22.8328  -19.9798  -11.9561 O   0  0  0  0  0  0  0  0  0  0  0  0
   24.3250  -20.5386  -13.6235 N   0  0  0  0  0  0  0  0  0  0  0  0
   25.0653  -21.4290  -12.7633 C   0  0  1  0  0  0  0  0  0  0  0  0
   25.8257  -22.4762  -13.5285 C   0  0  0  0  0  0  0  0  0  0  0  0
   24.9169  -23.5228  -14.0854 C   0  0  0  0  0  0  0  0  0  0  0  0
   23.5555  -23.6103  -13.8755 C   0  0  0  0  0  0  0  0  0  0  0  0
   23.0930  -24.6673  -14.5289 N   0  0  0  0  0  0  0  0  0  0  0  0
   24.1021  -25.2751  -15.1591 C   0  0  0  0  0  0  0  0  0  0  0  0
   25.2122  -24.5670  -14.8810 N   0  0  0  0  0  0  0  0  0  0  0  0
   25.9013  -20.7070  -11.7889 C   0  0  0  0  0  0  0  0  0  0  0  0
   26.7394  -19.8405  -12.2175 O   0  0  0  0  0  0  0  0  0  0  0  0
   25.8640  -20.8852  -10.3948 N   0  0  0  0  0  0  0  0  0  0  0  0
   26.7975  -20.2927   -9.4814 C   0  0  1  0  0  0  0  0  0  0  0  0
   26.3963  -20.5142   -8.0353 C   0  0  0  0  0  0  0  0  0  0  0  0
   27.2810  -19.7749   -7.1193 C   0  0  0  0  0  0  0  0  0  0  0  0
   27.7216  -18.4632   -7.2127 C   0  0  0  0  0  0  0  0  0  0  0  0
   28.5088  -18.2104   -6.1554 N   0  0  0  0  0  0  0  0  0  0  0  0
   28.6187  -19.2732   -5.3649 C   0  0  0  0  0  0  0  0  0  0  0  0
   29.2905  -19.5424   -4.1803 C   0  0  0  0  0  0  0  0  0  0  0  0
   29.1912  -20.7946   -3.6010 C   0  0  0  0  0  0  0  0  0  0  0  0
   28.4206  -21.7579   -4.2172 C   0  0  0  0  0  0  0  0  0  0  0  0
   27.7409  -21.5247   -5.3929 C   0  0  0  0  0  0  0  0  0  0  0  0
   27.8544  -20.2616   -5.9566 C   0  0  0  0  0  0  0  0  0  0  0  0
   28.1400  -20.8371   -9.7700 C   0  0  0  0  0  0  0  0  0  0  0  0
   28.2992  -22.0380  -10.0839 O   0  0  0  0  0  0  0  0  0  0  0  0
   29.2529  -20.0262   -9.6986 O   0  0  0  0  0  0  0  0  0  0  0  0
  2  3  2  0
  2  1  1  0
  4  2  1  0
  5  4  1  0
  6  5  1  0
  6  7  1  6
  8 10  1  0
  8  6  1  0
  9  8  2  0
 11 10  1  0
 11 12  1  6
 12 13  1  0
 13 17  1  0
 14 13  2  0
 14 15  1  0
 15 16  1  0
 17 16  2  0
 18 11  1  0
 19 18  2  0
 20 18  1  0
 21 20  1  0
 22 23  1  0
 21 22  1  1
 23 31  1  0
 24 25  1  0
 24 23  2  0
 25 26  1  0
 26 31  2  0
 26 27  1  0
 27 28  2  0
 28 29  1  0
 30 29  2  0
 31 30  1  0
 32 21  1  0
 32 34  1  0
 33 32  2  0
M  END
$$$$
