VLF.pdb
     RDKit          3D

 27 27  0  0  1  0  0  0  0  0999 V2000
    6.0851  -20.6096   21.6481 C   0  0  0  0  0  0  0  0  0  0  0  0
    7.1576  -19.6122   22.0407 C   0  0  1  0  0  0  0  0  0  0  0  0
    8.3981  -20.3681   22.3953 C   0  0  0  0  0  0  0  0  0  0  0  0
    7.3467  -18.6845   20.8547 C   0  0  2  0  0  0  0  0  0  0  0  0
    7.6875  -19.4714   19.7065 N   0  0  0  0  0  0  0  0  0  0  0  0
    8.2934  -17.5976   21.1194 C   0  0  0  0  0  0  0  0  0  0  0  0
    9.5102  -17.7880   20.7779 O   0  0  0  0  0  0  0  0  0  0  0  0
    6.7061  -12.5495   20.2322 C   0  0  0  0  0  0  0  0  0  0  0  0
    7.5098  -13.9046   20.2442 C   0  0  1  0  0  0  0  0  0  0  0  0
    8.5212  -13.7147   19.1292 C   0  0  0  0  0  0  0  0  0  0  0  0
    8.0656  -14.0290   21.5973 C   0  0  0  0  0  0  0  0  0  0  0  0
    8.8296  -15.2601   21.9262 C   0  0  2  0  0  0  0  0  0  0  0  0
    7.8747  -16.4063   21.7204 N   0  0  0  0  0  0  0  0  0  0  0  0
    9.2743  -15.3603   23.3041 C   0  0  0  0  0  0  0  0  0  0  0  0
   10.2357  -14.6059   23.7332 O   0  0  0  0  0  0  0  0  0  0  0  0
    8.7540  -16.2173   24.3133 N   0  0  0  0  0  0  0  0  0  0  0  0
    9.2639  -16.1340   25.6907 C   0  0  1  0  0  0  0  0  0  0  0  0
    7.9752  -15.9421   26.5194 C   0  0  0  0  0  0  0  0  0  0  0  0
    7.5155  -14.5645   26.3600 C   0  0  0  0  0  0  0  0  0  0  0  0
    6.3048  -14.3282   25.7098 C   0  0  0  0  0  0  0  0  0  0  0  0
    5.8302  -13.0426   25.5467 C   0  0  0  0  0  0  0  0  0  0  0  0
    6.5864  -12.0178   26.0430 C   0  0  0  0  0  0  0  0  0  0  0  0
    7.7912  -12.2416   26.6910 C   0  0  0  0  0  0  0  0  0  0  0  0
    8.2603  -13.5258   26.8513 C   0  0  0  0  0  0  0  0  0  0  0  0
    9.9412  -17.3625   26.0427 C   0  0  0  0  0  0  0  0  0  0  0  0
    9.9801  -18.3172   25.2236 O   0  0  0  0  0  0  0  0  0  0  0  0
   10.5631  -17.5531   27.2482 O   0  0  0  0  0  0  0  0  0  0  0  0
  2  1  1  6
  3  2  1  0
  4  5  1  6
  4  2  1  0
  6  4  1  0
  7  6  2  0
  9  8  1  1
  9 11  1  0
 10  9  1  0
 12 11  1  1
 12 13  1  0
 13  6  1  0
 14 16  1  0
 14 12  1  0
 15 14  2  0
 17 25  1  0
 17 16  1  0
 17 18  1  1
 19 18  1  0
 19 24  2  0
 20 19  1  0
 21 20  2  0
 21 22  1  0
 22 23  2  0
 23 24  1  0
 25 27  1  0
 26 25  2  0
M  END
$$$$
