VLF.pdb
     RDKit          3D

 27 27  0  0  1  0  0  0  0  0999 V2000
    5.1635  -20.1247   23.0538 C   0  0  0  0  0  0  0  0  0  0  0  0
    6.4013  -19.2550   23.1564 C   0  0  1  0  0  0  0  0  0  0  0  0
    7.5178  -20.0856   23.7036 C   0  0  0  0  0  0  0  0  0  0  0  0
    6.6823  -18.7284   21.7611 C   0  0  2  0  0  0  0  0  0  0  0  0
    6.8890  -19.8422   20.8834 N   0  0  0  0  0  0  0  0  0  0  0  0
    7.7697  -17.7467   21.7246 C   0  0  0  0  0  0  0  0  0  0  0  0
    8.9379  -18.1807   21.4412 O   0  0  0  0  0  0  0  0  0  0  0  0
    7.0519  -12.5053   20.1707 C   0  0  0  0  0  0  0  0  0  0  0  0
    7.5911  -13.9799   20.3012 C   0  0  1  0  0  0  0  0  0  0  0  0
    8.6274  -14.0665   19.1963 C   0  0  0  0  0  0  0  0  0  0  0  0
    8.1055  -14.0987   21.6711 C   0  0  0  0  0  0  0  0  0  0  0  0
    8.6642  -15.4088   22.0943 C   0  0  2  0  0  0  0  0  0  0  0  0
    7.5305  -16.3945   21.9899 N   0  0  0  0  0  0  0  0  0  0  0  0
    9.1146  -15.4709   23.4727 C   0  0  0  0  0  0  0  0  0  0  0  0
   10.1887  -14.8439   23.8342 O   0  0  0  0  0  0  0  0  0  0  0  0
    8.4881  -16.1571   24.5497 N   0  0  0  0  0  0  0  0  0  0  0  0
    9.0617  -16.0919   25.9028 C   0  0  1  0  0  0  0  0  0  0  0  0
    7.8394  -15.7270   26.7731 C   0  0  0  0  0  0  0  0  0  0  0  0
    7.5570  -14.3026   26.6119 C   0  0  0  0  0  0  0  0  0  0  0  0
    6.3441  -13.9153   26.0437 C   0  0  0  0  0  0  0  0  0  0  0  0
    6.0344  -12.5801   25.8822 C   0  0  0  0  0  0  0  0  0  0  0  0
    6.9551  -11.6591   26.2974 C   0  0  0  0  0  0  0  0  0  0  0  0
    8.1638  -12.0332   26.8636 C   0  0  0  0  0  0  0  0  0  0  0  0
    8.4680  -13.3664   27.0226 C   0  0  0  0  0  0  0  0  0  0  0  0
    9.6080  -17.3795   26.2713 C   0  0  0  0  0  0  0  0  0  0  0  0
    9.5210  -18.3512   25.4764 O   0  0  0  0  0  0  0  0  0  0  0  0
   10.2348  -17.6098   27.4673 O   0  0  0  0  0  0  0  0  0  0  0  0
  2  1  1  6
  3  2  1  0
  4  5  1  6
  4  2  1  0
  6  4  1  0
  7  6  2  0
  9  8  1  1
  9 11  1  0
 10  9  1  0
 12 11  1  1
 12 13  1  0
 13  6  1  0
 14 16  1  0
 14 12  1  0
 15 14  2  0
 17 25  1  0
 17 16  1  0
 17 18  1  1
 19 18  1  0
 19 24  2  0
 20 19  1  0
 21 20  2  0
 21 22  1  0
 22 23  2  0
 23 24  1  0
 25 27  1  0
 26 25  2  0
M  END
$$$$
