VLF.pdb
     RDKit          3D

 27 27  0  0  1  0  0  0  0  0999 V2000
    6.4667  -18.3234   24.5308 C   0  0  0  0  0  0  0  0  0  0  0  0
    6.7077  -19.3895   23.4797 C   0  0  1  0  0  0  0  0  0  0  0  0
    5.6136  -20.4042   23.5771 C   0  0  0  0  0  0  0  0  0  0  0  0
    6.7420  -18.6807   22.1383 C   0  0  2  0  0  0  0  0  0  0  0  0
    6.6683  -19.6637   21.0980 N   0  0  0  0  0  0  0  0  0  0  0  0
    7.8795  -17.7674   21.9989 C   0  0  0  0  0  0  0  0  0  0  0  0
    9.0214  -18.2901   21.7614 O   0  0  0  0  0  0  0  0  0  0  0  0
    7.2216  -12.5062   20.1950 C   0  0  0  0  0  0  0  0  0  0  0  0
    7.7425  -13.9901   20.2893 C   0  0  1  0  0  0  0  0  0  0  0  0
    8.7221  -14.0851   19.1345 C   0  0  0  0  0  0  0  0  0  0  0  0
    8.3210  -14.1273   21.6315 C   0  0  0  0  0  0  0  0  0  0  0  0
    8.8872  -15.4464   22.0148 C   0  0  2  0  0  0  0  0  0  0  0  0
    7.7137  -16.3842   22.1220 N   0  0  0  0  0  0  0  0  0  0  0  0
    9.5413  -15.4841   23.3099 C   0  0  0  0  0  0  0  0  0  0  0  0
   10.7916  -15.1631   23.4160 O   0  0  0  0  0  0  0  0  0  0  0  0
    8.9540  -15.8326   24.5577 N   0  0  0  0  0  0  0  0  0  0  0  0
    9.7899  -15.9491   25.7627 C   0  0  1  0  0  0  0  0  0  0  0  0
    9.7064  -14.5329   26.3727 C   0  0  0  0  0  0  0  0  0  0  0  0
    8.3545  -14.0157   26.1748 C   0  0  0  0  0  0  0  0  0  0  0  0
    8.1922  -12.7402   25.6354 C   0  0  0  0  0  0  0  0  0  0  0  0
    6.9323  -12.2181   25.4238 C   0  0  0  0  0  0  0  0  0  0  0  0
    5.8580  -12.9931   25.7606 C   0  0  0  0  0  0  0  0  0  0  0  0
    6.0080  -14.2624   26.2974 C   0  0  0  0  0  0  0  0  0  0  0  0
    7.2668  -14.7787   26.5065 C   0  0  0  0  0  0  0  0  0  0  0  0
    9.2355  -16.9431   26.6553 C   0  0  0  0  0  0  0  0  0  0  0  0
    8.2324  -17.6164   26.3029 O   0  0  0  0  0  0  0  0  0  0  0  0
    9.7540  -17.2044   27.8959 O   0  0  0  0  0  0  0  0  0  0  0  0
  2  1  1  1
  3  2  1  0
  4  5  1  6
  4  2  1  0
  6  4  1  0
  7  6  2  0
  9  8  1  1
  9 11  1  0
 10  9  1  0
 12 11  1  1
 12 13  1  0
 13  6  1  0
 14 16  1  0
 14 12  1  0
 15 14  2  0
 17 25  1  0
 17 16  1  0
 17 18  1  1
 19 18  1  0
 19 24  2  0
 20 19  1  0
 21 20  2  0
 21 22  1  0
 22 23  2  0
 23 24  1  0
 25 27  1  0
 26 25  2  0
M  END
$$$$
