HGQ.pdb
     RDKit          3D

 24 24  0  0  1  0  0  0  0  0999 V2000
   26.2713  -20.7598  -18.6565 N   0  0  0  0  0  0  0  0  0  0  0  0
   26.8711  -19.4809  -18.4309 C   0  0  1  0  0  0  0  0  0  0  0  0
   26.9259  -18.6780  -19.7088 C   0  0  0  0  0  0  0  0  0  0  0  0
   27.7550  -19.3484  -20.7264 C   0  0  0  0  0  0  0  0  0  0  0  0
   27.3622  -19.9147  -21.9136 C   0  0  0  0  0  0  0  0  0  0  0  0
   28.4558  -20.4250  -22.5493 N   0  0  0  0  0  0  0  0  0  0  0  0
   29.5187  -20.1778  -21.7638 C   0  0  0  0  0  0  0  0  0  0  0  0
   29.0799  -19.5200  -20.6531 N   0  0  0  0  0  0  0  0  0  0  0  0
   26.1297  -18.7798  -17.3580 C   0  0  0  0  0  0  0  0  0  0  0  0
   26.4930  -17.6451  -16.9903 O   0  0  0  0  0  0  0  0  0  0  0  0
   25.0149  -19.3614  -16.7334 N   0  0  0  0  0  0  0  0  0  0  0  0
   24.2663  -18.6926  -15.6591 C   0  0  0  0  0  0  0  0  0  0  0  0
   24.1509  -19.6003  -14.4933 C   0  0  0  0  0  0  0  0  0  0  0  0
   25.1780  -20.0819  -13.9643 O   0  0  0  0  0  0  0  0  0  0  0  0
   25.8061  -21.0666  -10.6378 N   0  0  0  0  0  0  0  0  0  0  0  0
   24.5941  -21.2034   -9.9301 C   0  0  0  0  0  0  0  0  0  0  0  0
   24.6184  -21.9211   -8.8888 O   0  0  0  0  0  0  0  0  0  0  0  0
   23.3337  -20.5660  -10.3378 C   0  0  0  0  0  0  0  0  0  0  0  0
   23.3902  -19.9579  -11.6892 C   0  0  0  0  0  0  0  0  0  0  0  0
   22.7707  -20.7487  -12.7949 C   0  0  2  0  0  0  0  0  0  0  0  0
   22.8657  -19.9092  -13.9937 N   0  0  0  0  0  0  0  0  0  0  0  0
   21.3028  -20.9697  -12.5492 C   0  0  0  0  0  0  0  0  0  0  0  0
   20.4753  -20.1532  -13.0202 O   0  0  0  0  0  0  0  0  0  0  0  0
   20.8393  -22.0506  -11.8168 O   0  0  0  0  0  0  0  0  0  0  0  0
  2  1  1  6
  3  2  1  0
  4  3  1  0
  5  4  2  0
  6  5  1  0
  7  8  2  0
  7  6  1  0
  8  4  1  0
  9 11  1  0
  9  2  1  0
 10  9  2  0
 12 13  1  0
 12 11  1  0
 13 21  1  0
 14 13  2  0
 16 17  2  0
 16 15  1  0
 18 16  1  0
 19 18  1  0
 20 19  1  1
 21 20  1  0
 22 24  1  0
 22 20  1  0
 23 22  2  0
M  END
$$$$
