HGQ.pdb
     RDKit          3D

 24 24  0  0  1  0  0  0  0  0999 V2000
   18.1534  -11.8533  -16.0748 N   0  0  0  0  0  0  0  0  0  0  0  0
   19.2562  -11.0318  -16.4690 C   0  0  1  0  0  0  0  0  0  0  0  0
   19.0604  -10.5019  -17.8695 C   0  0  0  0  0  0  0  0  0  0  0  0
   18.9309  -11.6004  -18.8436 C   0  0  0  0  0  0  0  0  0  0  0  0
   17.7870  -12.1675  -19.3478 C   0  0  0  0  0  0  0  0  0  0  0  0
   18.1264  -13.1562  -20.2240 N   0  0  0  0  0  0  0  0  0  0  0  0
   19.4696  -13.2028  -20.2638 C   0  0  0  0  0  0  0  0  0  0  0  0
   19.9512  -12.2487  -19.4173 N   0  0  0  0  0  0  0  0  0  0  0  0
   19.4320   -9.9469  -15.4769 C   0  0  0  0  0  0  0  0  0  0  0  0
   20.3676   -9.1327  -15.6051 O   0  0  0  0  0  0  0  0  0  0  0  0
   18.5656   -9.8046  -14.3814 N   0  0  0  0  0  0  0  0  0  0  0  0
   18.7308   -8.7521  -13.3682 C   0  0  0  0  0  0  0  0  0  0  0  0
   17.4386   -8.0581  -13.1561 C   0  0  0  0  0  0  0  0  0  0  0  0
   16.4973   -8.2155  -13.9660 O   0  0  0  0  0  0  0  0  0  0  0  0
   15.0246   -7.2576   -7.6119 N   0  0  0  0  0  0  0  0  0  0  0  0
   14.1651   -6.4926   -8.4270 C   0  0  0  0  0  0  0  0  0  0  0  0
   13.1351   -6.0085   -7.8750 O   0  0  0  0  0  0  0  0  0  0  0  0
   14.4050   -6.2388   -9.8550 C   0  0  0  0  0  0  0  0  0  0  0  0
   15.6524   -6.8595  -10.3630 C   0  0  0  0  0  0  0  0  0  0  0  0
   15.9860   -6.5937  -11.7947 C   0  0  2  0  0  0  0  0  0  0  0  0
   17.2915   -7.2200  -12.0280 N   0  0  0  0  0  0  0  0  0  0  0  0
   16.1729   -5.1218  -12.0453 C   0  0  0  0  0  0  0  0  0  0  0  0
   17.2959   -4.6044  -11.8347 O   0  0  0  0  0  0  0  0  0  0  0  0
   15.1384   -4.3215  -12.5026 O   0  0  0  0  0  0  0  0  0  0  0  0
  2  1  1  1
  3  2  1  0
  4  3  1  0
  5  4  2  0
  6  5  1  0
  7  8  2  0
  7  6  1  0
  8  4  1  0
  9 11  1  0
  9  2  1  0
 10  9  2  0
 12 13  1  0
 12 11  1  0
 13 21  1  0
 14 13  2  0
 16 17  2  0
 16 15  1  0
 18 16  1  0
 19 18  1  0
 20 19  1  1
 21 20  1  0
 22 24  1  0
 22 20  1  0
 23 22  2  0
M  END
$$$$
