HGQ.pdb
     RDKit          3D

 24 24  0  0  1  0  0  0  0  0999 V2000
   25.3587  -21.5554  -14.6287 N   0  0  0  0  0  0  0  0  0  0  0  0
   24.0795  -21.3000  -14.0415 C   0  0  1  0  0  0  0  0  0  0  0  0
   24.1856  -20.2646  -12.9471 C   0  0  0  0  0  0  0  0  0  0  0  0
   25.2073  -20.6398  -11.9533 C   0  0  0  0  0  0  0  0  0  0  0  0
   26.0691  -21.7081  -11.9726 C   0  0  0  0  0  0  0  0  0  0  0  0
   26.8472  -21.6755  -10.8527 N   0  0  0  0  0  0  0  0  0  0  0  0
   26.4718  -20.5963  -10.1439 C   0  0  0  0  0  0  0  0  0  0  0  0
   25.4698  -19.9708  -10.8247 N   0  0  0  0  0  0  0  0  0  0  0  0
   23.1292  -20.8995  -15.1039 C   0  0  0  0  0  0  0  0  0  0  0  0
   23.5008  -20.1320  -16.0136 O   0  0  0  0  0  0  0  0  0  0  0  0
   21.8043  -21.3637  -15.1187 N   0  0  0  0  0  0  0  0  0  0  0  0
   20.8363  -20.9736  -16.1543 C   0  0  0  0  0  0  0  0  0  0  0  0
   19.5003  -21.5195  -15.8178 C   0  0  0  0  0  0  0  0  0  0  0  0
   18.5053  -21.2309  -16.5204 O   0  0  0  0  0  0  0  0  0  0  0  0
   18.6959  -25.8279  -11.2346 N   0  0  0  0  0  0  0  0  0  0  0  0
   18.5330  -24.4651  -10.9115 C   0  0  0  0  0  0  0  0  0  0  0  0
   18.5704  -24.1605   -9.6842 O   0  0  0  0  0  0  0  0  0  0  0  0
   18.3258  -23.4074  -11.9113 C   0  0  0  0  0  0  0  0  0  0  0  0
   18.2547  -23.9165  -13.3024 C   0  0  0  0  0  0  0  0  0  0  0  0
   18.0428  -22.8928  -14.3695 C   0  0  2  0  0  0  0  0  0  0  0  0
   19.3728  -22.3673  -14.6945 N   0  0  0  0  0  0  0  0  0  0  0  0
   17.2426  -21.7274  -13.8539 C   0  0  0  0  0  0  0  0  0  0  0  0
   15.9905  -21.7727  -13.9129 O   0  0  0  0  0  0  0  0  0  0  0  0
   17.8506  -20.6049  -13.3155 O   0  0  0  0  0  0  0  0  0  0  0  0
  2  1  1  6
  3  2  1  0
  4  3  1  0
  5  4  2  0
  6  5  1  0
  7  8  2  0
  7  6  1  0
  8  4  1  0
  9 11  1  0
  9  2  1  0
 10  9  2  0
 12 13  1  0
 12 11  1  0
 13 21  1  0
 14 13  2  0
 16 17  2  0
 16 15  1  0
 18 16  1  0
 19 18  1  0
 20 19  1  1
 21 20  1  0
 22 24  1  0
 22 20  1  0
 23 22  2  0
M  END
$$$$
