HGQ.pdb
     RDKit          3D

 24 24  0  0  1  0  0  0  0  0999 V2000
   14.9879  -21.5939    3.4604 N   0  0  0  0  0  0  0  0  0  0  0  0
   15.5719  -21.2951    2.1892 C   0  0  1  0  0  0  0  0  0  0  0  0
   16.6061  -20.2017    2.3145 C   0  0  0  0  0  0  0  0  0  0  0  0
   16.0086  -18.9571    2.8307 C   0  0  0  0  0  0  0  0  0  0  0  0
   15.0154  -18.1894    2.2751 C   0  0  0  0  0  0  0  0  0  0  0  0
   14.7674  -17.1223    3.0876 N   0  0  0  0  0  0  0  0  0  0  0  0
   15.5994  -17.2262    4.1388 C   0  0  0  0  0  0  0  0  0  0  0  0
   16.3530  -18.3500    3.9722 N   0  0  0  0  0  0  0  0  0  0  0  0
   16.1337  -22.5363    1.6096 C   0  0  0  0  0  0  0  0  0  0  0  0
   16.6694  -22.5099    0.4840 O   0  0  0  0  0  0  0  0  0  0  0  0
   16.0810  -23.7589    2.2978 N   0  0  0  0  0  0  0  0  0  0  0  0
   16.5938  -25.0142    1.7297 C   0  0  0  0  0  0  0  0  0  0  0  0
   16.4915  -26.0954    2.7381 C   0  0  0  0  0  0  0  0  0  0  0  0
   16.0445  -25.8517    3.8816 O   0  0  0  0  0  0  0  0  0  0  0  0
   18.3768  -27.7619    6.8364 N   0  0  0  0  0  0  0  0  0  0  0  0
   17.2613  -28.6232    6.8842 C   0  0  0  0  0  0  0  0  0  0  0  0
   17.1627  -29.3747    7.8969 O   0  0  0  0  0  0  0  0  0  0  0  0
   16.2329  -28.6869    5.8357 C   0  0  0  0  0  0  0  0  0  0  0  0
   16.5117  -27.7990    4.6811 C   0  0  0  0  0  0  0  0  0  0  0  0
   16.7255  -28.4743    3.3659 C   0  0  2  0  0  0  0  0  0  0  0  0
   16.9061  -27.3993    2.3848 N   0  0  0  0  0  0  0  0  0  0  0  0
   15.4989  -29.2341    2.9389 C   0  0  0  0  0  0  0  0  0  0  0  0
   14.7605  -28.7503    2.0478 O   0  0  0  0  0  0  0  0  0  0  0  0
   15.1620  -30.4539    3.5029 O   0  0  0  0  0  0  0  0  0  0  0  0
  2  1  1  1
  3  2  1  0
  4  3  1  0
  5  4  2  0
  6  5  1  0
  7  8  2  0
  7  6  1  0
  8  4  1  0
  9 11  1  0
  9  2  1  0
 10  9  2  0
 12 13  1  0
 12 11  1  0
 13 21  1  0
 14 13  2  0
 16 17  2  0
 16 15  1  0
 18 16  1  0
 19 18  1  0
 20 19  1  1
 21 20  1  0
 22 24  1  0
 22 20  1  0
 23 22  2  0
M  END
$$$$
