HGQ.pdb
     RDKit          3D

 24 24  0  0  1  0  0  0  0  0999 V2000
   20.1420  -13.2223  -16.5785 N   0  0  0  0  0  0  0  0  0  0  0  0
   18.9562  -12.4386  -16.7403 C   0  0  1  0  0  0  0  0  0  0  0  0
   17.7213  -13.3024  -16.6423 C   0  0  0  0  0  0  0  0  0  0  0  0
   17.7648  -14.4096  -17.6142 C   0  0  0  0  0  0  0  0  0  0  0  0
   17.9076  -14.3467  -18.9781 C   0  0  0  0  0  0  0  0  0  0  0  0
   17.8957  -15.6117  -19.4879 N   0  0  0  0  0  0  0  0  0  0  0  0
   17.7468  -16.4532  -18.4498 C   0  0  0  0  0  0  0  0  0  0  0  0
   17.6678  -15.7090  -17.3102 N   0  0  0  0  0  0  0  0  0  0  0  0
   18.9577  -11.3449  -15.7423 C   0  0  0  0  0  0  0  0  0  0  0  0
   18.9872  -11.6138  -14.5251 O   0  0  0  0  0  0  0  0  0  0  0  0
   18.9265   -9.9957  -16.1296 N   0  0  0  0  0  0  0  0  0  0  0  0
   18.9633   -8.8894  -15.1621 C   0  0  0  0  0  0  0  0  0  0  0  0
   20.2815   -8.2153  -15.2267 C   0  0  0  0  0  0  0  0  0  0  0  0
   21.1982   -8.6881  -15.9359 O   0  0  0  0  0  0  0  0  0  0  0  0
   21.2451   -3.3830  -17.7636 N   0  0  0  0  0  0  0  0  0  0  0  0
   20.4757   -3.3074  -16.5844 C   0  0  0  0  0  0  0  0  0  0  0  0
   19.6551   -2.3485  -16.4982 O   0  0  0  0  0  0  0  0  0  0  0  0
   20.5815   -4.2682  -15.4768 C   0  0  0  0  0  0  0  0  0  0  0  0
   21.5685   -5.3470  -15.7241 C   0  0  0  0  0  0  0  0  0  0  0  0
   21.7609   -6.3317  -14.6172 C   0  0  2  0  0  0  0  0  0  0  0  0
   20.4818   -7.0350  -14.4759 N   0  0  0  0  0  0  0  0  0  0  0  0
   22.0069   -5.6351  -13.3063 C   0  0  0  0  0  0  0  0  0  0  0  0
   21.1054   -5.6390  -12.4343 O   0  0  0  0  0  0  0  0  0  0  0  0
   23.2023   -4.9892  -13.0354 O   0  0  0  0  0  0  0  0  0  0  0  0
  2  1  1  1
  3  2  1  0
  4  3  1  0
  5  4  2  0
  6  5  1  0
  7  8  2  0
  7  6  1  0
  8  4  1  0
  9 11  1  0
  9  2  1  0
 10  9  2  0
 12 13  1  0
 12 11  1  0
 13 21  1  0
 14 13  2  0
 16 17  2  0
 16 15  1  0
 18 16  1  0
 19 18  1  0
 20 19  1  6
 21 20  1  0
 22 24  1  0
 22 20  1  0
 23 22  2  0
M  END
$$$$
