HGQ.pdb
     RDKit          3D

 24 24  0  0  1  0  0  0  0  0999 V2000
   30.4021   -9.7558  -17.7595 N   0  0  0  0  0  0  0  0  0  0  0  0
   29.6951   -9.9985  -18.9793 C   0  0  1  0  0  0  0  0  0  0  0  0
   29.3975  -11.4696  -19.1466 C   0  0  0  0  0  0  0  0  0  0  0  0
   30.6294  -12.2757  -19.0769 C   0  0  0  0  0  0  0  0  0  0  0  0
   31.8281  -12.0645  -19.7117 C   0  0  0  0  0  0  0  0  0  0  0  0
   32.6987  -13.0556  -19.3650 N   0  0  0  0  0  0  0  0  0  0  0  0
   32.0464  -13.8754  -18.5221 C   0  0  0  0  0  0  0  0  0  0  0  0
   30.7836  -13.3902  -18.3528 N   0  0  0  0  0  0  0  0  0  0  0  0
   28.4678   -9.1706  -19.0016 C   0  0  0  0  0  0  0  0  0  0  0  0
   27.6830   -9.2480  -19.9674 O   0  0  0  0  0  0  0  0  0  0  0  0
   28.1562   -8.2889  -17.9543 N   0  0  0  0  0  0  0  0  0  0  0  0
   26.9703   -7.4201  -17.9724 C   0  0  0  0  0  0  0  0  0  0  0  0
   25.9266   -7.9839  -17.0841 C   0  0  0  0  0  0  0  0  0  0  0  0
   25.9410   -9.1994  -16.7856 O   0  0  0  0  0  0  0  0  0  0  0  0
   22.4178   -4.4443  -13.2135 N   0  0  0  0  0  0  0  0  0  0  0  0
   22.2398   -4.4179  -14.6121 C   0  0  0  0  0  0  0  0  0  0  0  0
   21.5955   -3.4387  -15.0876 O   0  0  0  0  0  0  0  0  0  0  0  0
   22.7555   -5.4519  -15.5210 C   0  0  0  0  0  0  0  0  0  0  0  0
   23.4515   -6.5587  -14.8210 C   0  0  0  0  0  0  0  0  0  0  0  0
   23.9162   -7.6916  -15.6767 C   0  0  2  0  0  0  0  0  0  0  0  0
   24.9207   -7.1268  -16.5837 N   0  0  0  0  0  0  0  0  0  0  0  0
   22.8030   -8.2073  -16.5479 C   0  0  0  0  0  0  0  0  0  0  0  0
   21.8683   -8.8582  -16.0227 O   0  0  0  0  0  0  0  0  0  0  0  0
   22.7816   -7.9832  -17.9150 O   0  0  0  0  0  0  0  0  0  0  0  0
  2  1  1  1
  3  2  1  0
  4  3  1  0
  5  4  2  0
  6  5  1  0
  7  8  2  0
  7  6  1  0
  8  4  1  0
  9 11  1  0
  9  2  1  0
 10  9  2  0
 12 13  1  0
 12 11  1  0
 13 21  1  0
 14 13  2  0
 16 17  2  0
 16 15  1  0
 18 16  1  0
 19 18  1  0
 20 19  1  1
 21 20  1  0
 22 24  1  0
 22 20  1  0
 23 22  2  0
M  END
$$$$
