HGQ.pdb
     RDKit          3D

 24 24  0  0  1  0  0  0  0  0999 V2000
   18.0199  -12.5219  -15.4161 N   0  0  0  0  0  0  0  0  0  0  0  0
   16.9340  -11.5990  -15.2917 C   0  0  1  0  0  0  0  0  0  0  0  0
   15.7815  -12.2205  -14.5393 C   0  0  0  0  0  0  0  0  0  0  0  0
   15.3457  -13.4781  -15.1724 C   0  0  0  0  0  0  0  0  0  0  0  0
   15.5590  -14.7673  -14.7519 C   0  0  0  0  0  0  0  0  0  0  0  0
   14.9812  -15.6283  -15.6381 N   0  0  0  0  0  0  0  0  0  0  0  0
   14.4139  -14.8804  -16.6008 C   0  0  0  0  0  0  0  0  0  0  0  0
   14.6422  -13.5688  -16.3070 N   0  0  0  0  0  0  0  0  0  0  0  0
   17.4227  -10.3589  -14.6470 C   0  0  0  0  0  0  0  0  0  0  0  0
   18.1249  -10.4277  -13.6190 O   0  0  0  0  0  0  0  0  0  0  0  0
   17.1154   -9.0905  -15.1647 N   0  0  0  0  0  0  0  0  0  0  0  0
   17.6207   -7.8448  -14.5694 C   0  0  0  0  0  0  0  0  0  0  0  0
   16.5845   -7.2590  -13.6865 C   0  0  0  0  0  0  0  0  0  0  0  0
   15.5722   -7.9252  -13.3731 O   0  0  0  0  0  0  0  0  0  0  0  0
   15.2908   -7.8060   -8.8420 N   0  0  0  0  0  0  0  0  0  0  0  0
   14.6090   -6.5753   -8.9371 C   0  0  0  0  0  0  0  0  0  0  0  0
   13.8939   -6.2405   -7.9488 O   0  0  0  0  0  0  0  0  0  0  0  0
   14.6885   -5.6854  -10.1044 C   0  0  0  0  0  0  0  0  0  0  0  0
   15.5961   -6.1843  -11.1659 C   0  0  0  0  0  0  0  0  0  0  0  0
   15.6915   -5.3474  -12.3996 C   0  0  2  0  0  0  0  0  0  0  0  0
   16.7611   -5.9411  -13.2084 N   0  0  0  0  0  0  0  0  0  0  0  0
   16.1358   -3.9472  -12.0738 C   0  0  0  0  0  0  0  0  0  0  0  0
   17.3616   -3.6810  -12.0700 O   0  0  0  0  0  0  0  0  0  0  0  0
   15.2283   -2.9430  -11.7779 O   0  0  0  0  0  0  0  0  0  0  0  0
  2  1  1  1
  3  2  1  0
  4  3  1  0
  5  4  2  0
  6  5  1  0
  7  8  2  0
  7  6  1  0
  8  4  1  0
  9 11  1  0
  9  2  1  0
 10  9  2  0
 12 13  1  0
 12 11  1  0
 13 21  1  0
 14 13  2  0
 16 17  2  0
 16 15  1  0
 18 16  1  0
 19 18  1  0
 20 19  1  1
 21 20  1  0
 22 24  1  0
 22 20  1  0
 23 22  2  0
M  END
$$$$
