HGQ.pdb
     RDKit          3D

 24 24  0  0  1  0  0  0  0  0999 V2000
   19.1973  -14.1948  -19.0541 N   0  0  0  0  0  0  0  0  0  0  0  0
   20.1473  -13.7907  -18.0639 C   0  0  1  0  0  0  0  0  0  0  0  0
   21.2219  -14.8373  -17.8887 C   0  0  0  0  0  0  0  0  0  0  0  0
   20.6463  -16.1319  -17.4825 C   0  0  0  0  0  0  0  0  0  0  0  0
   20.2096  -17.1622  -18.2777 C   0  0  0  0  0  0  0  0  0  0  0  0
   19.7506  -18.1742  -17.4867 N   0  0  0  0  0  0  0  0  0  0  0  0
   19.9009  -17.7760  -16.2112 C   0  0  0  0  0  0  0  0  0  0  0  0
   20.4486  -16.5275  -16.2197 N   0  0  0  0  0  0  0  0  0  0  0  0
   20.7041  -12.4702  -18.4361 C   0  0  0  0  0  0  0  0  0  0  0  0
   20.8577  -12.1766  -19.6382 O   0  0  0  0  0  0  0  0  0  0  0  0
   21.0695  -11.5256  -17.4639 N   0  0  0  0  0  0  0  0  0  0  0  0
   21.5796  -10.1896  -17.8051 C   0  0  0  0  0  0  0  0  0  0  0  0
   20.7117   -9.1547  -17.1952 C   0  0  0  0  0  0  0  0  0  0  0  0
   19.6654   -9.4837  -16.5921 O   0  0  0  0  0  0  0  0  0  0  0  0
   21.9717   -5.5660  -12.4049 N   0  0  0  0  0  0  0  0  0  0  0  0
   22.4024   -5.9032  -13.7045 C   0  0  0  0  0  0  0  0  0  0  0  0
   23.5202   -5.4405  -14.0740 O   0  0  0  0  0  0  0  0  0  0  0  0
   21.6299   -6.7467  -14.6280 C   0  0  0  0  0  0  0  0  0  0  0  0
   21.0598   -5.9980  -15.7742 C   0  0  0  0  0  0  0  0  0  0  0  0
   20.2072   -6.7831  -16.7166 C   0  0  2  0  0  0  0  0  0  0  0  0
   21.0868   -7.7969  -17.3076 N   0  0  0  0  0  0  0  0  0  0  0  0
   19.7249   -5.9266  -17.8559 C   0  0  0  0  0  0  0  0  0  0  0  0
   20.2978   -6.0113  -18.9685 O   0  0  0  0  0  0  0  0  0  0  0  0
   18.6649   -5.0464  -17.7102 O   0  0  0  0  0  0  0  0  0  0  0  0
  2  1  1  6
  3  2  1  0
  4  3  1  0
  5  4  2  0
  6  5  1  0
  7  8  2  0
  7  6  1  0
  8  4  1  0
  9 11  1  0
  9  2  1  0
 10  9  2  0
 12 13  1  0
 12 11  1  0
 13 21  1  0
 14 13  2  0
 16 17  2  0
 16 15  1  0
 18 16  1  0
 19 18  1  0
 20 19  1  1
 21 20  1  0
 22 24  1  0
 22 20  1  0
 23 22  2  0
M  END
$$$$
