HGQ.pdb
     RDKit          3D

 24 24  0  0  1  0  0  0  0  0999 V2000
   29.8021  -23.6875  -16.2630 N   0  0  0  0  0  0  0  0  0  0  0  0
   29.2526  -22.5942  -17.0039 C   0  0  1  0  0  0  0  0  0  0  0  0
   28.6247  -23.0759  -18.2902 C   0  0  0  0  0  0  0  0  0  0  0  0
   29.6043  -23.7897  -19.1288 C   0  0  0  0  0  0  0  0  0  0  0  0
   30.5440  -23.2663  -19.9817 C   0  0  0  0  0  0  0  0  0  0  0  0
   31.2419  -24.2864  -20.5588 N   0  0  0  0  0  0  0  0  0  0  0  0
   30.7400  -25.4335  -20.0686 C   0  0  0  0  0  0  0  0  0  0  0  0
   29.7405  -25.1191  -19.1963 N   0  0  0  0  0  0  0  0  0  0  0  0
   28.2906  -21.8630  -16.1483 C   0  0  0  0  0  0  0  0  0  0  0  0
   27.7860  -22.4273  -15.1575 O   0  0  0  0  0  0  0  0  0  0  0  0
   27.9241  -20.5357  -16.4220 N   0  0  0  0  0  0  0  0  0  0  0  0
   27.0357  -19.7589  -15.5450 C   0  0  0  0  0  0  0  0  0  0  0  0
   25.6837  -20.3660  -15.5425 C   0  0  0  0  0  0  0  0  0  0  0  0
   25.5325  -21.5716  -15.8432 O   0  0  0  0  0  0  0  0  0  0  0  0
   25.1886  -20.5897  -10.3768 N   0  0  0  0  0  0  0  0  0  0  0  0
   23.8415  -20.9239  -10.6259 C   0  0  0  0  0  0  0  0  0  0  0  0
   23.1659  -21.3442   -9.6425 O   0  0  0  0  0  0  0  0  0  0  0  0
   23.2019  -20.8099  -11.9446 C   0  0  0  0  0  0  0  0  0  0  0  0
   24.1144  -20.3110  -13.0017 C   0  0  0  0  0  0  0  0  0  0  0  0
   23.5219  -20.1523  -14.3638 C   0  0  2  0  0  0  0  0  0  0  0  0
   24.5751  -19.5612  -15.1958 N   0  0  0  0  0  0  0  0  0  0  0  0
   22.3881  -19.1632  -14.3519 C   0  0  0  0  0  0  0  0  0  0  0  0
   22.6293  -17.9551  -14.5875 O   0  0  0  0  0  0  0  0  0  0  0  0
   21.0841  -19.5498  -14.0876 O   0  0  0  0  0  0  0  0  0  0  0  0
  2  1  1  1
  3  2  1  0
  4  3  1  0
  5  4  2  0
  6  5  1  0
  7  8  2  0
  7  6  1  0
  8  4  1  0
  9 11  1  0
  9  2  1  0
 10  9  2  0
 12 13  1  0
 12 11  1  0
 13 21  1  0
 14 13  2  0
 16 17  2  0
 16 15  1  0
 18 16  1  0
 19 18  1  0
 20 19  1  1
 21 20  1  0
 22 24  1  0
 22 20  1  0
 23 22  2  0
M  END
$$$$
