HGQ.pdb
     RDKit          3D

 24 24  0  0  1  0  0  0  0  0999 V2000
   21.5324  -20.9570  -14.0913 N   0  0  0  0  0  0  0  0  0  0  0  0
   22.6697  -20.9584  -14.9589 C   0  0  1  0  0  0  0  0  0  0  0  0
   23.2392  -19.5672  -15.1038 C   0  0  0  0  0  0  0  0  0  0  0  0
   22.2485  -18.6413  -15.6812 C   0  0  0  0  0  0  0  0  0  0  0  0
   20.9424  -18.8892  -16.0237 C   0  0  0  0  0  0  0  0  0  0  0  0
   20.3870  -17.7485  -16.5246 N   0  0  0  0  0  0  0  0  0  0  0  0
   21.3397  -16.8002  -16.4934 C   0  0  0  0  0  0  0  0  0  0  0  0
   22.4725  -17.3557  -15.9766 N   0  0  0  0  0  0  0  0  0  0  0  0
   23.6688  -21.9242  -14.4477 C   0  0  0  0  0  0  0  0  0  0  0  0
   24.0103  -21.8897  -13.2490 O   0  0  0  0  0  0  0  0  0  0  0  0
   24.2513  -22.8911  -15.2825 N   0  0  0  0  0  0  0  0  0  0  0  0
   25.2157  -23.8872  -14.7935 C   0  0  0  0  0  0  0  0  0  0  0  0
   25.7399  -24.6744  -15.9344 C   0  0  0  0  0  0  0  0  0  0  0  0
   25.8699  -24.1439  -17.0607 O   0  0  0  0  0  0  0  0  0  0  0  0
   30.8563  -26.3315  -16.5953 N   0  0  0  0  0  0  0  0  0  0  0  0
   30.3005  -26.8168  -17.7969 C   0  0  0  0  0  0  0  0  0  0  0  0
   31.0968  -27.3589  -18.6168 O   0  0  0  0  0  0  0  0  0  0  0  0
   28.8724  -26.7233  -18.1328 C   0  0  0  0  0  0  0  0  0  0  0  0
   28.0470  -26.1454  -17.0446 C   0  0  0  0  0  0  0  0  0  0  0  0
   26.7035  -26.7642  -16.8358 C   0  0  2  0  0  0  0  0  0  0  0  0
   26.0881  -26.0281  -15.7266 N   0  0  0  0  0  0  0  0  0  0  0  0
   26.8277  -28.1921  -16.3777 C   0  0  0  0  0  0  0  0  0  0  0  0
   26.4995  -29.1152  -17.1609 O   0  0  0  0  0  0  0  0  0  0  0  0
   27.2948  -28.5160  -15.1141 O   0  0  0  0  0  0  0  0  0  0  0  0
  2  1  1  1
  3  2  1  0
  4  3  1  0
  5  4  2  0
  6  5  1  0
  7  8  2  0
  7  6  1  0
  8  4  1  0
  9 11  1  0
  9  2  1  0
 10  9  2  0
 12 13  1  0
 12 11  1  0
 13 21  1  0
 14 13  2  0
 16 17  2  0
 16 15  1  0
 18 16  1  0
 19 18  1  0
 20 19  1  1
 21 20  1  0
 22 24  1  0
 22 20  1  0
 23 22  2  0
M  END
$$$$
