HWA.pdb
     RDKit          3D

 30 32  0  0  1  0  0  0  0  0999 V2000
   25.6068  -19.9010  -18.0771 N   0  0  0  0  0  0  0  0  0  0  0  0
   25.3140  -19.1646  -16.8878 C   0  0  1  0  0  0  0  0  0  0  0  0
   23.9218  -18.6224  -16.8261 C   0  0  0  0  0  0  0  0  0  0  0  0
   23.5870  -17.7024  -17.9057 C   0  0  0  0  0  0  0  0  0  0  0  0
   24.4167  -17.2030  -18.8758 C   0  0  0  0  0  0  0  0  0  0  0  0
   23.6862  -16.3796  -19.6768 N   0  0  0  0  0  0  0  0  0  0  0  0
   22.4484  -16.3821  -19.2025 C   0  0  0  0  0  0  0  0  0  0  0  0
   22.3778  -17.1745  -18.1374 N   0  0  0  0  0  0  0  0  0  0  0  0
   25.5229  -19.9746  -15.6480 C   0  0  0  0  0  0  0  0  0  0  0  0
   25.2485  -21.2004  -15.6656 O   0  0  0  0  0  0  0  0  0  0  0  0
   26.0165  -19.3930  -14.4741 N   0  0  0  0  0  0  0  0  0  0  0  0
   26.3358  -20.1765  -13.2730 C   0  0  1  0  0  0  0  0  0  0  0  0
   27.3266  -19.4113  -12.4121 C   0  0  0  0  0  0  0  0  0  0  0  0
   27.9255  -20.2460  -11.3674 C   0  0  0  0  0  0  0  0  0  0  0  0
   28.7810  -21.3145  -11.5144 C   0  0  0  0  0  0  0  0  0  0  0  0
   29.0828  -21.7875  -10.2964 N   0  0  0  0  0  0  0  0  0  0  0  0
   28.4630  -21.0781   -9.3352 C   0  0  0  0  0  0  0  0  0  0  0  0
   28.4463  -21.1614   -7.9600 C   0  0  0  0  0  0  0  0  0  0  0  0
   27.6815  -20.2488   -7.2698 C   0  0  0  0  0  0  0  0  0  0  0  0
   26.9408  -19.2679   -7.8812 C   0  0  0  0  0  0  0  0  0  0  0  0
   26.9916  -19.2265   -9.2728 C   0  0  0  0  0  0  0  0  0  0  0  0
   27.7362  -20.1099  -10.0111 C   0  0  0  0  0  0  0  0  0  0  0  0
   25.0715  -20.2802  -12.5069 C   0  0  0  0  0  0  0  0  0  0  0  0
   24.3660  -19.2522  -12.3829 O   0  0  0  0  0  0  0  0  0  0  0  0
   23.6773  -20.8230   -9.7204 C   0  0  0  0  0  0  0  0  0  0  0  0
   23.4229  -21.4792  -11.0612 C   0  0  2  0  0  0  0  0  0  0  0  0
   24.6106  -21.4758  -11.9035 N   0  0  0  0  0  0  0  0  0  0  0  0
   22.2638  -20.8775  -11.7681 C   0  0  0  0  0  0  0  0  0  0  0  0
   21.7938  -19.7705  -11.4066 O   0  0  0  0  0  0  0  0  0  0  0  0
   21.6363  -21.4905  -12.8559 O   0  0  0  0  0  0  0  0  0  0  0  0
  2  3  1  0
  2  1  1  6
  4  3  1  0
  4  8  1  0
  5  6  1  0
  5  4  2  0
  6  7  1  0
  7  8  2  0
  9  2  1  0
 10  9  2  0
 11  9  1  0
 12 11  1  0
 12 13  1  1
 13 14  1  0
 14 15  2  0
 15 16  1  0
 17 16  1  0
 18 17  2  0
 19 18  1  0
 20 21  1  0
 20 19  2  0
 21 22  2  0
 22 14  1  0
 22 17  1  0
 23 24  2  0
 23 12  1  0
 26 25  1  1
 26 27  1  0
 27 23  1  0
 28 26  1  0
 29 28  2  0
 30 28  1  0
M  END
$$$$
