HWA.pdb
     RDKit          3D

 30 32  0  0  1  0  0  0  0  0999 V2000
   13.7397  -15.5649    7.2487 N   0  0  0  0  0  0  0  0  0  0  0  0
   15.1575  -15.7444    7.2476 C   0  0  1  0  0  0  0  0  0  0  0  0
   15.7251  -16.1738    8.5628 C   0  0  0  0  0  0  0  0  0  0  0  0
   15.6478  -15.1625    9.6094 C   0  0  0  0  0  0  0  0  0  0  0  0
   14.6307  -14.9501   10.5033 C   0  0  0  0  0  0  0  0  0  0  0  0
   14.9771  -13.9018   11.2996 N   0  0  0  0  0  0  0  0  0  0  0  0
   16.1718  -13.4924   10.8967 C   0  0  0  0  0  0  0  0  0  0  0  0
   16.5843  -14.2440    9.8806 N   0  0  0  0  0  0  0  0  0  0  0  0
   15.6064  -16.7447    6.2304 C   0  0  0  0  0  0  0  0  0  0  0  0
   14.8952  -17.7575    6.0143 O   0  0  0  0  0  0  0  0  0  0  0  0
   16.7994  -16.5726    5.5184 N   0  0  0  0  0  0  0  0  0  0  0  0
   17.2626  -17.5270    4.5021 C   0  0  1  0  0  0  0  0  0  0  0  0
   18.4688  -16.9555    3.7763 C   0  0  0  0  0  0  0  0  0  0  0  0
   18.8778  -17.7758    2.6333 C   0  0  0  0  0  0  0  0  0  0  0  0
   18.2430  -18.8751    2.1008 C   0  0  0  0  0  0  0  0  0  0  0  0
   18.9635  -19.3193    1.0607 N   0  0  0  0  0  0  0  0  0  0  0  0
   20.0592  -18.5608    0.8727 C   0  0  0  0  0  0  0  0  0  0  0  0
   21.0923  -18.6004   -0.0380 C   0  0  0  0  0  0  0  0  0  0  0  0
   22.0755  -17.6427    0.0629 C   0  0  0  0  0  0  0  0  0  0  0  0
   22.0758  -16.6582    1.0196 C   0  0  0  0  0  0  0  0  0  0  0  0
   21.0095  -16.6620    1.9162 C   0  0  0  0  0  0  0  0  0  0  0  0
   20.0029  -17.5914    1.8625 C   0  0  0  0  0  0  0  0  0  0  0  0
   17.7202  -18.7239    5.2465 C   0  0  0  0  0  0  0  0  0  0  0  0
   18.6061  -18.5773    6.1202 O   0  0  0  0  0  0  0  0  0  0  0  0
   16.7617  -21.9909    6.4463 C   0  0  0  0  0  0  0  0  0  0  0  0
   17.8011  -21.1800    5.7012 C   0  0  2  0  0  0  0  0  0  0  0  0
   17.2150  -20.0290    5.0290 N   0  0  0  0  0  0  0  0  0  0  0  0
   18.5855  -22.0111    4.7530 C   0  0  0  0  0  0  0  0  0  0  0  0
   18.3966  -21.9258    3.5143 O   0  0  0  0  0  0  0  0  0  0  0  0
   19.5617  -22.9207    5.1685 O   0  0  0  0  0  0  0  0  0  0  0  0
  2  3  1  0
  2  1  1  1
  4  3  1  0
  4  8  1  0
  5  6  1  0
  5  4  2  0
  6  7  1  0
  7  8  2  0
  9  2  1  0
 10  9  2  0
 11  9  1  0
 12 11  1  0
 12 13  1  1
 13 14  1  0
 14 15  2  0
 15 16  1  0
 17 16  1  0
 18 17  2  0
 19 18  1  0
 20 21  1  0
 20 19  2  0
 21 22  2  0
 22 14  1  0
 22 17  1  0
 23 24  2  0
 23 12  1  0
 26 25  1  6
 26 27  1  0
 27 23  1  0
 28 26  1  0
 29 28  2  0
 30 28  1  0
M  END
$$$$
