HWA.pdb
     RDKit          3D

 30 32  0  0  1  0  0  0  0  0999 V2000
   15.2400  -19.3252    4.4742 N   0  0  0  0  0  0  0  0  0  0  0  0
   15.4273  -18.8732    5.8170 C   0  0  1  0  0  0  0  0  0  0  0  0
   15.2712  -19.9396    6.8535 C   0  0  0  0  0  0  0  0  0  0  0  0
   13.8929  -20.3492    7.0911 C   0  0  0  0  0  0  0  0  0  0  0  0
   12.9471  -19.7214    7.8593 C   0  0  0  0  0  0  0  0  0  0  0  0
   11.7992  -20.4507    7.7999 N   0  0  0  0  0  0  0  0  0  0  0  0
   12.0458  -21.4912    7.0166 C   0  0  0  0  0  0  0  0  0  0  0  0
   13.3022  -21.4398    6.5849 N   0  0  0  0  0  0  0  0  0  0  0  0
   16.7710  -18.2514    6.0287 C   0  0  0  0  0  0  0  0  0  0  0  0
   17.7257  -18.5925    5.2867 O   0  0  0  0  0  0  0  0  0  0  0  0
   16.9821  -17.3006    7.0343 N   0  0  0  0  0  0  0  0  0  0  0  0
   18.2708  -16.6226    7.2284 C   0  0  1  0  0  0  0  0  0  0  0  0
   18.0342  -15.2130    7.7438 C   0  0  0  0  0  0  0  0  0  0  0  0
   18.3133  -14.1903    6.7325 C   0  0  0  0  0  0  0  0  0  0  0  0
   17.5362  -13.8166    5.6593 C   0  0  0  0  0  0  0  0  0  0  0  0
   18.1729  -12.8427    4.9926 N   0  0  0  0  0  0  0  0  0  0  0  0
   19.3489  -12.5466    5.5762 C   0  0  0  0  0  0  0  0  0  0  0  0
   20.3484  -11.6438    5.2856 C   0  0  0  0  0  0  0  0  0  0  0  0
   21.4438  -11.6074    6.1180 C   0  0  0  0  0  0  0  0  0  0  0  0
   21.5868  -12.4207    7.2146 C   0  0  0  0  0  0  0  0  0  0  0  0
   20.5487  -13.3156    7.4647 C   0  0  0  0  0  0  0  0  0  0  0  0
   19.4347  -13.3951    6.6695 C   0  0  0  0  0  0  0  0  0  0  0  0
   18.9688  -17.3737    8.2983 C   0  0  0  0  0  0  0  0  0  0  0  0
   18.3070  -17.7353    9.2989 O   0  0  0  0  0  0  0  0  0  0  0  0
   22.1518  -19.2845    8.8176 C   0  0  0  0  0  0  0  0  0  0  0  0
   20.9509  -18.5072    9.3142 C   0  0  2  0  0  0  0  0  0  0  0  0
   20.3442  -17.7086    8.2584 N   0  0  0  0  0  0  0  0  0  0  0  0
   21.2754  -17.6712   10.4979 C   0  0  0  0  0  0  0  0  0  0  0  0
   21.6803  -18.1959   11.5646 O   0  0  0  0  0  0  0  0  0  0  0  0
   21.1536  -16.2791   10.5007 O   0  0  0  0  0  0  0  0  0  0  0  0
  2  3  1  0
  2  1  1  6
  4  3  1  0
  4  8  1  0
  5  6  1  0
  5  4  2  0
  6  7  1  0
  7  8  2  0
  9  2  1  0
 10  9  2  0
 11  9  1  0
 12 11  1  0
 12 13  1  1
 13 14  1  0
 14 15  2  0
 15 16  1  0
 17 16  1  0
 18 17  2  0
 19 18  1  0
 20 21  1  0
 20 19  2  0
 21 22  2  0
 22 14  1  0
 22 17  1  0
 23 24  2  0
 23 12  1  0
 26 25  1  6
 26 27  1  0
 27 23  1  0
 28 26  1  0
 29 28  2  0
 30 28  1  0
M  END
$$$$
