HWA.pdb
     RDKit          3D

 30 32  0  0  1  0  0  0  0  0999 V2000
   27.1177  -21.3610  -15.0703 N   0  0  0  0  0  0  0  0  0  0  0  0
   27.0891  -20.3286  -14.0824 C   0  0  1  0  0  0  0  0  0  0  0  0
   26.3129  -19.1146  -14.4823 C   0  0  0  0  0  0  0  0  0  0  0  0
   26.8478  -18.4151  -15.6436 C   0  0  0  0  0  0  0  0  0  0  0  0
   27.7809  -17.4114  -15.6675 C   0  0  0  0  0  0  0  0  0  0  0  0
   27.9844  -17.0514  -16.9645 N   0  0  0  0  0  0  0  0  0  0  0  0
   27.1948  -17.8178  -17.7037 C   0  0  0  0  0  0  0  0  0  0  0  0
   26.5069  -18.6416  -16.9191 N   0  0  0  0  0  0  0  0  0  0  0  0
   26.5242  -20.7991  -12.7800 C   0  0  0  0  0  0  0  0  0  0  0  0
   25.6711  -21.7214  -12.7817 O   0  0  0  0  0  0  0  0  0  0  0  0
   26.9277  -20.2324  -11.5652 N   0  0  0  0  0  0  0  0  0  0  0  0
   26.3913  -20.6678  -10.2686 C   0  0  1  0  0  0  0  0  0  0  0  0
   27.2033  -20.0463   -9.1449 C   0  0  0  0  0  0  0  0  0  0  0  0
   26.7040  -20.4179   -7.8185 C   0  0  0  0  0  0  0  0  0  0  0  0
   25.6174  -21.2025   -7.5044 C   0  0  0  0  0  0  0  0  0  0  0  0
   25.5231  -21.2826   -6.1691 N   0  0  0  0  0  0  0  0  0  0  0  0
   26.5049  -20.5817   -5.5724 C   0  0  0  0  0  0  0  0  0  0  0  0
   26.8383  -20.3537   -4.2551 C   0  0  0  0  0  0  0  0  0  0  0  0
   27.9366  -19.5656   -3.9969 C   0  0  0  0  0  0  0  0  0  0  0  0
   28.7092  -19.0007   -4.9811 C   0  0  0  0  0  0  0  0  0  0  0  0
   28.3301  -19.2616   -6.2960 C   0  0  0  0  0  0  0  0  0  0  0  0
   27.2457  -20.0391   -6.6113 C   0  0  0  0  0  0  0  0  0  0  0  0
   25.0214  -20.1086  -10.1864 C   0  0  0  0  0  0  0  0  0  0  0  0
   24.8263  -18.9490  -10.6189 O   0  0  0  0  0  0  0  0  0  0  0  0
   22.4682  -18.8864  -10.1720 C   0  0  0  0  0  0  0  0  0  0  0  0
   22.5512  -20.3771   -9.9191 C   0  0  2  0  0  0  0  0  0  0  0  0
   23.9149  -20.8083   -9.6461 N   0  0  0  0  0  0  0  0  0  0  0  0
   21.9516  -21.1668  -11.0245 C   0  0  0  0  0  0  0  0  0  0  0  0
   20.9542  -21.9026  -10.8221 O   0  0  0  0  0  0  0  0  0  0  0  0
   22.4473  -21.1425  -12.3309 O   0  0  0  0  0  0  0  0  0  0  0  0
  2  3  1  0
  2  1  1  6
  4  3  1  0
  4  8  1  0
  5  6  1  0
  5  4  2  0
  6  7  1  0
  7  8  2  0
  9  2  1  0
 10  9  2  0
 11  9  1  0
 12 11  1  0
 12 13  1  1
 13 14  1  0
 14 15  2  0
 15 16  1  0
 17 16  1  0
 18 17  2  0
 19 18  1  0
 20 21  1  0
 20 19  2  0
 21 22  2  0
 22 14  1  0
 22 17  1  0
 23 24  2  0
 23 12  1  0
 26 25  1  6
 26 27  1  0
 27 23  1  0
 28 26  1  0
 29 28  2  0
 30 28  1  0
M  END
$$$$
