HWA.pdb
     RDKit          3D

 30 32  0  0  1  0  0  0  0  0999 V2000
   23.7311  -14.6945  -18.7766 N   0  0  0  0  0  0  0  0  0  0  0  0
   23.6610  -15.4042  -17.5380 C   0  0  1  0  0  0  0  0  0  0  0  0
   23.8460  -14.5481  -16.3261 C   0  0  0  0  0  0  0  0  0  0  0  0
   25.1486  -13.8999  -16.2415 C   0  0  0  0  0  0  0  0  0  0  0  0
   26.1796  -13.9583  -17.1428 C   0  0  0  0  0  0  0  0  0  0  0  0
   27.2065  -13.2045  -16.6628 N   0  0  0  0  0  0  0  0  0  0  0  0
   26.8056  -12.7045  -15.5025 C   0  0  0  0  0  0  0  0  0  0  0  0
   25.5692  -13.1164  -15.2397 N   0  0  0  0  0  0  0  0  0  0  0  0
   22.3640  -16.1291  -17.3672 C   0  0  0  0  0  0  0  0  0  0  0  0
   21.3071  -15.5981  -17.7904 O   0  0  0  0  0  0  0  0  0  0  0  0
   22.3079  -17.3830  -16.7471 N   0  0  0  0  0  0  0  0  0  0  0  0
   21.0606  -18.1475  -16.6126 C   0  0  1  0  0  0  0  0  0  0  0  0
   21.3073  -19.5984  -16.9897 C   0  0  0  0  0  0  0  0  0  0  0  0
   21.3305  -19.8064  -18.4398 C   0  0  0  0  0  0  0  0  0  0  0  0
   22.3379  -19.5074  -19.3290 C   0  0  0  0  0  0  0  0  0  0  0  0
   21.9385  -19.8634  -20.5587 N   0  0  0  0  0  0  0  0  0  0  0  0
   20.7006  -20.3906  -20.5310 C   0  0  0  0  0  0  0  0  0  0  0  0
   19.8652  -20.8950  -21.5037 C   0  0  0  0  0  0  0  0  0  0  0  0
   18.6325  -21.3651  -21.1120 C   0  0  0  0  0  0  0  0  0  0  0  0
   18.1993  -21.3555  -19.8094 C   0  0  0  0  0  0  0  0  0  0  0  0
   19.0811  -20.8353  -18.8646 C   0  0  0  0  0  0  0  0  0  0  0  0
   20.3207  -20.3535  -19.1981 C   0  0  0  0  0  0  0  0  0  0  0  0
   20.7180  -18.1169  -15.1711 C   0  0  0  0  0  0  0  0  0  0  0  0
   21.5636  -17.6567  -14.3692 O   0  0  0  0  0  0  0  0  0  0  0  0
   20.3493  -17.9019  -12.4376 C   0  0  0  0  0  0  0  0  0  0  0  0
   19.1593  -18.3900  -13.2368 C   0  0  2  0  0  0  0  0  0  0  0  0
   19.4877  -18.5785  -14.6428 N   0  0  0  0  0  0  0  0  0  0  0  0
   17.9770  -17.5058  -13.0774 C   0  0  0  0  0  0  0  0  0  0  0  0
   18.0800  -16.2621  -13.2189 O   0  0  0  0  0  0  0  0  0  0  0  0
   16.7033  -17.9896  -12.7669 O   0  0  0  0  0  0  0  0  0  0  0  0
  2  3  1  0
  2  1  1  6
  4  3  1  0
  4  8  1  0
  5  6  1  0
  5  4  2  0
  6  7  1  0
  7  8  2  0
  9  2  1  0
 10  9  2  0
 11  9  1  0
 12 11  1  0
 12 13  1  1
 13 14  1  0
 14 15  2  0
 15 16  1  0
 17 16  1  0
 18 17  2  0
 19 18  1  0
 20 21  1  0
 20 19  2  0
 21 22  2  0
 22 14  1  0
 22 17  1  0
 23 24  2  0
 23 12  1  0
 26 25  1  1
 26 27  1  0
 27 23  1  0
 28 26  1  0
 29 28  2  0
 30 28  1  0
M  END
$$$$
