HWA.pdb
     RDKit          3D

 30 32  0  0  1  0  0  0  0  0999 V2000
   21.4005  -31.8666  -11.7543 N   0  0  0  0  0  0  0  0  0  0  0  0
   22.3355  -31.3691  -10.7947 C   0  0  1  0  0  0  0  0  0  0  0  0
   21.7463  -30.4333   -9.7883 C   0  0  0  0  0  0  0  0  0  0  0  0
   21.1313  -29.2432  -10.3622 C   0  0  0  0  0  0  0  0  0  0  0  0
   21.7551  -28.1478  -10.9006 C   0  0  0  0  0  0  0  0  0  0  0  0
   20.7968  -27.2749  -11.3163 N   0  0  0  0  0  0  0  0  0  0  0  0
   19.6256  -27.8290  -11.0362 C   0  0  0  0  0  0  0  0  0  0  0  0
   19.8155  -29.0130  -10.4622 N   0  0  0  0  0  0  0  0  0  0  0  0
   23.0086  -32.4649  -10.0312 C   0  0  0  0  0  0  0  0  0  0  0  0
   22.4142  -33.5620   -9.8850 O   0  0  0  0  0  0  0  0  0  0  0  0
   24.2832  -32.2900   -9.4794 N   0  0  0  0  0  0  0  0  0  0  0  0
   25.0604  -33.3982   -8.9082 C   0  0  1  0  0  0  0  0  0  0  0  0
   26.5276  -33.2311   -9.2659 C   0  0  0  0  0  0  0  0  0  0  0  0
   26.8725  -33.8708  -10.5381 C   0  0  0  0  0  0  0  0  0  0  0  0
   26.6618  -33.4007  -11.8147 C   0  0  0  0  0  0  0  0  0  0  0  0
   27.1322  -34.3070  -12.6840 N   0  0  0  0  0  0  0  0  0  0  0  0
   27.6515  -35.3692  -12.0412 C   0  0  0  0  0  0  0  0  0  0  0  0
   28.2442  -36.5371  -12.4693 C   0  0  0  0  0  0  0  0  0  0  0  0
   28.6721  -37.4291  -11.5126 C   0  0  0  0  0  0  0  0  0  0  0  0
   28.5376  -37.2126  -10.1637 C   0  0  0  0  0  0  0  0  0  0  0  0
   27.9320  -36.0171   -9.7831 C   0  0  0  0  0  0  0  0  0  0  0  0
   27.4870  -35.0926  -10.6925 C   0  0  0  0  0  0  0  0  0  0  0  0
   24.9450  -33.2605   -7.4372 C   0  0  0  0  0  0  0  0  0  0  0  0
   25.2425  -32.1594   -6.9186 O   0  0  0  0  0  0  0  0  0  0  0  0
   23.1586  -34.8723   -4.6056 C   0  0  0  0  0  0  0  0  0  0  0  0
   24.3149  -34.0644   -5.1563 C   0  0  2  0  0  0  0  0  0  0  0  0
   24.5173  -34.3023   -6.5786 N   0  0  0  0  0  0  0  0  0  0  0  0
   25.5687  -34.2886   -4.3928 C   0  0  0  0  0  0  0  0  0  0  0  0
   26.5459  -34.8765   -4.9187 O   0  0  0  0  0  0  0  0  0  0  0  0
   25.7375  -33.8697   -3.0703 O   0  0  0  0  0  0  0  0  0  0  0  0
  2  3  1  0
  2  1  1  6
  4  3  1  0
  4  8  1  0
  5  6  1  0
  5  4  2  0
  6  7  1  0
  7  8  2  0
  9  2  1  0
 10  9  2  0
 11  9  1  0
 12 11  1  0
 12 13  1  1
 13 14  1  0
 14 15  2  0
 15 16  1  0
 17 16  1  0
 18 17  2  0
 19 18  1  0
 20 21  1  0
 20 19  2  0
 21 22  2  0
 22 14  1  0
 22 17  1  0
 23 24  2  0
 23 12  1  0
 26 25  1  1
 26 27  1  0
 27 23  1  0
 28 26  1  0
 29 28  2  0
 30 28  1  0
M  END
$$$$
