HWA.pdb
     RDKit          3D

 30 32  0  0  1  0  0  0  0  0999 V2000
   20.9268  -13.3960  -16.9086 N   0  0  0  0  0  0  0  0  0  0  0  0
   20.4189  -12.0662  -16.7808 C   0  0  1  0  0  0  0  0  0  0  0  0
   19.1556  -11.9628  -15.9876 C   0  0  0  0  0  0  0  0  0  0  0  0
   18.0601  -12.7804  -16.4931 C   0  0  0  0  0  0  0  0  0  0  0  0
   17.3070  -12.5775  -17.6202 C   0  0  0  0  0  0  0  0  0  0  0  0
   16.3944  -13.5838  -17.7081 N   0  0  0  0  0  0  0  0  0  0  0  0
   16.5917  -14.3731  -16.6616 C   0  0  0  0  0  0  0  0  0  0  0  0
   17.5913  -13.8990  -15.9244 N   0  0  0  0  0  0  0  0  0  0  0  0
   21.4066  -11.1350  -16.1531 C   0  0  0  0  0  0  0  0  0  0  0  0
   21.8651  -11.4069  -15.0155 O   0  0  0  0  0  0  0  0  0  0  0  0
   21.8270   -9.9714  -16.8083 N   0  0  0  0  0  0  0  0  0  0  0  0
   22.8341   -9.0623  -16.2447 C   0  0  1  0  0  0  0  0  0  0  0  0
   23.9218   -8.8036  -17.2735 C   0  0  0  0  0  0  0  0  0  0  0  0
   24.7788   -9.9718  -17.4916 C   0  0  0  0  0  0  0  0  0  0  0  0
   24.8424  -10.7893  -18.5974 C   0  0  0  0  0  0  0  0  0  0  0  0
   25.7637  -11.7373  -18.3722 N   0  0  0  0  0  0  0  0  0  0  0  0
   26.3226  -11.5891  -17.1570 C   0  0  0  0  0  0  0  0  0  0  0  0
   27.2928  -12.2863  -16.4705 C   0  0  0  0  0  0  0  0  0  0  0  0
   27.6313  -11.8461  -15.2113 C   0  0  0  0  0  0  0  0  0  0  0  0
   27.0534  -10.7547  -14.6118 C   0  0  0  0  0  0  0  0  0  0  0  0
   26.0783  -10.0847  -15.3475 C   0  0  0  0  0  0  0  0  0  0  0  0
   25.7018  -10.4788  -16.6055 C   0  0  0  0  0  0  0  0  0  0  0  0
   22.1350   -7.7775  -16.0071 C   0  0  0  0  0  0  0  0  0  0  0  0
   21.2556   -7.4197  -16.8247 O   0  0  0  0  0  0  0  0  0  0  0  0
   21.6285   -5.2831  -13.2442 C   0  0  0  0  0  0  0  0  0  0  0  0
   21.6274   -5.7108  -14.6968 C   0  0  2  0  0  0  0  0  0  0  0  0
   22.4019   -6.9258  -14.9075 N   0  0  0  0  0  0  0  0  0  0  0  0
   22.0811   -4.6237  -15.6009 C   0  0  0  0  0  0  0  0  0  0  0  0
   23.2567   -4.6025  -16.0422 O   0  0  0  0  0  0  0  0  0  0  0  0
   21.2482   -3.5785  -16.0092 O   0  0  0  0  0  0  0  0  0  0  0  0
  2  3  1  0
  2  1  1  1
  4  3  1  0
  4  8  1  0
  5  6  1  0
  5  4  2  0
  6  7  1  0
  7  8  2  0
  9  2  1  0
 10  9  2  0
 11  9  1  0
 12 11  1  0
 12 13  1  6
 13 14  1  0
 14 15  2  0
 15 16  1  0
 17 16  1  0
 18 17  2  0
 19 18  1  0
 20 21  1  0
 20 19  2  0
 21 22  2  0
 22 14  1  0
 22 17  1  0
 23 24  2  0
 23 12  1  0
 26 25  1  1
 26 27  1  0
 27 23  1  0
 28 26  1  0
 29 28  2  0
 30 28  1  0
M  END
$$$$
