HWA.pdb
     RDKit          3D

 30 32  0  0  1  0  0  0  0  0999 V2000
   27.7925  -21.5913  -14.7276 N   0  0  0  0  0  0  0  0  0  0  0  0
   27.2883  -20.5983  -13.8319 C   0  0  1  0  0  0  0  0  0  0  0  0
   26.4636  -19.5379  -14.4887 C   0  0  0  0  0  0  0  0  0  0  0  0
   27.1673  -18.7791  -15.5149 C   0  0  0  0  0  0  0  0  0  0  0  0
   28.3012  -18.0219  -15.3751 C   0  0  0  0  0  0  0  0  0  0  0  0
   28.6092  -17.4900  -16.5897 N   0  0  0  0  0  0  0  0  0  0  0  0
   27.6855  -17.9150  -17.4400 C   0  0  0  0  0  0  0  0  0  0  0  0
   26.8134  -18.6912  -16.8039 N   0  0  0  0  0  0  0  0  0  0  0  0
   26.4544  -21.1857  -12.7381 C   0  0  0  0  0  0  0  0  0  0  0  0
   26.0195  -22.3576  -12.8637 O   0  0  0  0  0  0  0  0  0  0  0  0
   26.1517  -20.4557  -11.5825 N   0  0  0  0  0  0  0  0  0  0  0  0
   25.3423  -21.0040  -10.4859 C   0  0  1  0  0  0  0  0  0  0  0  0
   25.7175  -20.3199   -9.1822 C   0  0  0  0  0  0  0  0  0  0  0  0
   27.0445  -20.7139   -8.7022 C   0  0  0  0  0  0  0  0  0  0  0  0
   27.9576  -21.5486   -9.3060 C   0  0  0  0  0  0  0  0  0  0  0  0
   29.0408  -21.6327   -8.5199 N   0  0  0  0  0  0  0  0  0  0  0  0
   28.8916  -20.8864   -7.4100 C   0  0  0  0  0  0  0  0  0  0  0  0
   29.6964  -20.6430   -6.3184 C   0  0  0  0  0  0  0  0  0  0  0  0
   29.2152  -19.8045   -5.3390 C   0  0  0  0  0  0  0  0  0  0  0  0
   27.9819  -19.2043   -5.3972 C   0  0  0  0  0  0  0  0  0  0  0  0
   27.2073  -19.4827   -6.5212 C   0  0  0  0  0  0  0  0  0  0  0  0
   27.6360  -20.3100   -7.5270 C   0  0  0  0  0  0  0  0  0  0  0  0
   23.9399  -20.6353  -10.7915 C   0  0  0  0  0  0  0  0  0  0  0  0
   23.1011  -20.6674   -9.8613 O   0  0  0  0  0  0  0  0  0  0  0  0
   22.0062  -18.8339  -13.4434 C   0  0  0  0  0  0  0  0  0  0  0  0
   22.1174  -19.8036  -12.2856 C   0  0  2  0  0  0  0  0  0  0  0  0
   23.4883  -20.2476  -12.0766 N   0  0  0  0  0  0  0  0  0  0  0  0
   21.1972  -20.9597  -12.4331 C   0  0  0  0  0  0  0  0  0  0  0  0
   21.6323  -22.0901  -12.7649 O   0  0  0  0  0  0  0  0  0  0  0  0
   19.8197  -20.8661  -12.2171 O   0  0  0  0  0  0  0  0  0  0  0  0
  2  3  1  0
  2  1  1  6
  4  3  1  0
  4  8  1  0
  5  6  1  0
  5  4  2  0
  6  7  1  0
  7  8  2  0
  9  2  1  0
 10  9  2  0
 11  9  1  0
 12 11  1  0
 12 13  1  1
 13 14  1  0
 14 15  2  0
 15 16  1  0
 17 16  1  0
 18 17  2  0
 19 18  1  0
 20 21  1  0
 20 19  2  0
 21 22  2  0
 22 14  1  0
 22 17  1  0
 23 24  2  0
 23 12  1  0
 26 25  1  6
 26 27  1  0
 27 23  1  0
 28 26  1  0
 29 28  2  0
 30 28  1  0
M  END
$$$$
