HWA.pdb
     RDKit          3D

 30 32  0  0  1  0  0  0  0  0999 V2000
   14.4177  -19.7729    1.9641 N   0  0  0  0  0  0  0  0  0  0  0  0
   14.2881  -18.8928    3.0826 C   0  0  1  0  0  0  0  0  0  0  0  0
   13.1294  -19.1994    3.9767 C   0  0  0  0  0  0  0  0  0  0  0  0
   11.8246  -19.0096    3.3556 C   0  0  0  0  0  0  0  0  0  0  0  0
   11.1324  -19.8876    2.5626 C   0  0  0  0  0  0  0  0  0  0  0  0
    9.9594  -19.2991    2.2010 N   0  0  0  0  0  0  0  0  0  0  0  0
    9.9441  -18.0978    2.7610 C   0  0  0  0  0  0  0  0  0  0  0  0
   11.0613  -17.9136    3.4578 N   0  0  0  0  0  0  0  0  0  0  0  0
   15.5116  -18.8772    3.9426 C   0  0  0  0  0  0  0  0  0  0  0  0
   16.3337  -19.8228    3.8524 O   0  0  0  0  0  0  0  0  0  0  0  0
   15.7551  -17.8323    4.8419 N   0  0  0  0  0  0  0  0  0  0  0  0
   16.9945  -17.7300    5.6238 C   0  0  1  0  0  0  0  0  0  0  0  0
   17.4122  -16.2732    5.7316 C   0  0  0  0  0  0  0  0  0  0  0  0
   17.9446  -15.7463    4.4724 C   0  0  0  0  0  0  0  0  0  0  0  0
   17.9629  -16.3489    3.2348 C   0  0  0  0  0  0  0  0  0  0  0  0
   18.5446  -15.5118    2.3634 N   0  0  0  0  0  0  0  0  0  0  0  0
   18.9187  -14.3688    2.9674 C   0  0  0  0  0  0  0  0  0  0  0  0
   19.5402  -13.2228    2.5215 C   0  0  0  0  0  0  0  0  0  0  0  0
   19.7773  -12.2224    3.4364 C   0  0  0  0  0  0  0  0  0  0  0  0
   19.4269  -12.3113    4.7608 C   0  0  0  0  0  0  0  0  0  0  0  0
   18.8013  -13.4900    5.1609 C   0  0  0  0  0  0  0  0  0  0  0  0
   18.5405  -14.5188    4.2929 C   0  0  0  0  0  0  0  0  0  0  0  0
   16.6539  -18.1949    6.9891 C   0  0  0  0  0  0  0  0  0  0  0  0
   15.5576  -17.8400    7.4811 O   0  0  0  0  0  0  0  0  0  0  0  0
   17.9479  -20.5877    9.6183 C   0  0  0  0  0  0  0  0  0  0  0  0
   17.0921  -19.4481    9.1064 C   0  0  2  0  0  0  0  0  0  0  0  0
   17.4959  -19.0191    7.7748 N   0  0  0  0  0  0  0  0  0  0  0  0
   17.0615  -18.3027   10.0511 C   0  0  0  0  0  0  0  0  0  0  0  0
   16.2108  -18.2522   10.9735 O   0  0  0  0  0  0  0  0  0  0  0  0
   17.9566  -17.2322    9.9758 O   0  0  0  0  0  0  0  0  0  0  0  0
  2  3  1  0
  2  1  1  6
  4  3  1  0
  4  8  1  0
  5  6  1  0
  5  4  2  0
  6  7  1  0
  7  8  2  0
  9  2  1  0
 10  9  2  0
 11  9  1  0
 12 11  1  0
 12 13  1  1
 13 14  1  0
 14 15  2  0
 15 16  1  0
 17 16  1  0
 18 17  2  0
 19 18  1  0
 20 21  1  0
 20 19  2  0
 21 22  2  0
 22 14  1  0
 22 17  1  0
 23 24  2  0
 23 12  1  0
 26 25  1  1
 26 27  1  0
 27 23  1  0
 28 26  1  0
 29 28  2  0
 30 28  1  0
M  END
$$$$
