HWA.pdb
     RDKit          3D

 30 32  0  0  1  0  0  0  0  0999 V2000
   29.1689  -24.1939  -17.9493 N   0  0  0  0  0  0  0  0  0  0  0  0
   28.2685  -23.0868  -18.0284 C   0  0  1  0  0  0  0  0  0  0  0  0
   27.1392  -23.2786  -18.9896 C   0  0  0  0  0  0  0  0  0  0  0  0
   27.5471  -23.3663  -20.3860 C   0  0  0  0  0  0  0  0  0  0  0  0
   27.3948  -24.4241  -21.2442 C   0  0  0  0  0  0  0  0  0  0  0  0
   27.9198  -24.0720  -22.4498 N   0  0  0  0  0  0  0  0  0  0  0  0
   28.3768  -22.8343  -22.3224 C   0  0  0  0  0  0  0  0  0  0  0  0
   28.1577  -22.4003  -21.0850 N   0  0  0  0  0  0  0  0  0  0  0  0
   27.6623  -22.7473  -16.7040 C   0  0  0  0  0  0  0  0  0  0  0  0
   27.3038  -23.6777  -15.9397 O   0  0  0  0  0  0  0  0  0  0  0  0
   27.4885  -21.4172  -16.3034 N   0  0  0  0  0  0  0  0  0  0  0  0
   27.0105  -21.0470  -14.9644 C   0  0  1  0  0  0  0  0  0  0  0  0
   27.5600  -19.6824  -14.5848 C   0  0  0  0  0  0  0  0  0  0  0  0
   26.9703  -19.1630  -13.3482 C   0  0  0  0  0  0  0  0  0  0  0  0
   26.6738  -17.8577  -13.0264 C   0  0  0  0  0  0  0  0  0  0  0  0
   26.1465  -17.8335  -11.7936 N   0  0  0  0  0  0  0  0  0  0  0  0
   26.0767  -19.0727  -11.2734 C   0  0  0  0  0  0  0  0  0  0  0  0
   25.6257  -19.5695  -10.0700 C   0  0  0  0  0  0  0  0  0  0  0  0
   25.7048  -20.9281   -9.8650 C   0  0  0  0  0  0  0  0  0  0  0  0
   26.2074  -21.8044  -10.7946 C   0  0  0  0  0  0  0  0  0  0  0  0
   26.6501  -21.2519  -11.9945 C   0  0  0  0  0  0  0  0  0  0  0  0
   26.5951  -19.9065  -12.2525 C   0  0  0  0  0  0  0  0  0  0  0  0
   25.5390  -20.9151  -15.0797 C   0  0  0  0  0  0  0  0  0  0  0  0
   25.0754  -20.2453  -16.0317 O   0  0  0  0  0  0  0  0  0  0  0  0
   22.4007  -22.4991  -13.8012 C   0  0  0  0  0  0  0  0  0  0  0  0
   23.1859  -21.3233  -14.3436 C   0  0  2  0  0  0  0  0  0  0  0  0
   24.6211  -21.5025  -14.1752 N   0  0  0  0  0  0  0  0  0  0  0  0
   22.7359  -20.0333  -13.7618 C   0  0  0  0  0  0  0  0  0  0  0  0
   23.3841  -19.4835  -12.8373 O   0  0  0  0  0  0  0  0  0  0  0  0
   21.5886  -19.3637  -14.1958 O   0  0  0  0  0  0  0  0  0  0  0  0
  2  3  1  0
  2  1  1  1
  4  3  1  0
  4  8  1  0
  5  6  1  0
  5  4  2  0
  6  7  1  0
  7  8  2  0
  9  2  1  0
 10  9  2  0
 11  9  1  0
 12 11  1  0
 12 13  1  6
 13 14  1  0
 14 15  2  0
 15 16  1  0
 17 16  1  0
 18 17  2  0
 19 18  1  0
 20 21  1  0
 20 19  2  0
 21 22  2  0
 22 14  1  0
 22 17  1  0
 23 24  2  0
 23 12  1  0
 26 25  1  1
 26 27  1  0
 27 23  1  0
 28 26  1  0
 29 28  2  0
 30 28  1  0
M  END
$$$$
