LRV.pdb
     RDKit          3D

 27 26  0  0  1  0  0  0  0  0999 V2000
    7.3380  -12.1083   18.4437 C   0  0  0  0  0  0  0  0  0  0  0  0
    8.2451  -13.3290   18.5567 C   0  0  1  0  0  0  0  0  0  0  0  0
    9.6289  -12.8926   19.0078 C   0  0  0  0  0  0  0  0  0  0  0  0
    7.5958  -14.2375   19.5781 C   0  0  0  0  0  0  0  0  0  0  0  0
    8.5082  -15.4403   19.8546 C   0  0  2  0  0  0  0  0  0  0  0  0
    8.1183  -16.5820   19.0928 N   0  0  0  0  0  0  0  0  0  0  0  0
    8.2506  -15.7468   21.3191 C   0  0  0  0  0  0  0  0  0  0  0  0
    7.0572  -15.8194   21.6594 O   0  0  0  0  0  0  0  0  0  0  0  0
   10.6432  -18.6302   19.2785 N   0  0  0  0  0  0  0  0  0  0  0  0
   10.5321  -19.8685   19.9577 C   0  0  0  0  0  0  0  0  0  0  0  0
    9.8706  -20.8719   19.4958 N   0  0  0  0  0  0  0  0  0  0  0  0
   11.1786  -20.0332   21.2195 N   0  0  0  0  0  0  0  0  0  0  0  0
   11.3205  -18.9431   22.1373 C   0  0  0  0  0  0  0  0  0  0  0  0
   10.0081  -18.6728   22.8709 C   0  0  0  0  0  0  0  0  0  0  0  0
   10.1537  -17.5484   23.8498 C   0  0  0  0  0  0  0  0  0  0  0  0
    9.1842  -16.4000   23.5408 C   0  0  2  0  0  0  0  0  0  0  0  0
    9.3247  -15.9300   22.2005 N   0  0  0  0  0  0  0  0  0  0  0  0
    9.3691  -15.3213   24.5237 C   0  0  0  0  0  0  0  0  0  0  0  0
   10.4564  -14.6864   24.6353 O   0  0  0  0  0  0  0  0  0  0  0  0
    9.7925  -21.7049   20.1206 C   0  0  0  0  0  0  0  0  0  0  0  0
    6.0301  -13.9333   26.9638 C   0  0  2  0  0  0  0  0  0  0  0  0
    7.1988  -13.0799   26.5414 C   0  0  0  0  0  0  0  0  0  0  0  0
    7.3434  -11.9676   27.5543 C   0  0  1  0  0  0  0  0  0  0  0  0
    8.4492  -13.9296   26.4285 N   0  0  0  0  0  0  0  0  0  0  0  0
    8.3129  -14.9390   25.4067 C   0  0  0  0  0  0  0  0  0  0  0  0
    8.8038  -14.5738   27.6999 O   0  0  0  0  0  0  0  0  0  0  0  0
    9.3455  -13.8186   28.7185 O   0  0  0  0  0  0  0  0  0  0  0  0
  2  3  1  1
  2  1  1  0
  4  2  1  0
  4  5  1  0
  5  7  1  0
  5  6  1  6
  7  8  2  0
 10 12  1  0
 10  9  1  0
 11 10  2  0
 13 14  1  0
 13 12  1  0
 14 15  1  0
 16 15  1  1
 17 16  1  0
 17  7  1  0
 18 19  2  0
 18 16  1  0
 21 20  1  6
 21 23  1  0
 22 21  1  0
 23 25  1  0
 23 24  1  6
 24 18  1  0
 25 26  1  0
 27 25  2  0
M  END
$$$$
