LRV.pdb
     RDKit          3D

 27 26  0  0  1  0  0  0  0  0999 V2000
    9.5150  -13.0583   19.5950 C   0  0  0  0  0  0  0  0  0  0  0  0
    8.0477  -13.3557   19.8851 C   0  0  1  0  0  0  0  0  0  0  0  0
    7.2093  -12.1285   19.5693 C   0  0  0  0  0  0  0  0  0  0  0  0
    7.6743  -14.5200   18.9934 C   0  0  0  0  0  0  0  0  0  0  0  0
    8.4159  -15.7826   19.4533 C   0  0  2  0  0  0  0  0  0  0  0  0
    8.1901  -16.8772   18.5664 N   0  0  0  0  0  0  0  0  0  0  0  0
    7.7561  -16.1136   20.7799 C   0  0  0  0  0  0  0  0  0  0  0  0
    6.5304  -16.3178   20.7436 O   0  0  0  0  0  0  0  0  0  0  0  0
    7.8956  -18.8296   28.2161 N   0  0  0  0  0  0  0  0  0  0  0  0
    6.9695  -19.7673   27.6964 C   0  0  0  0  0  0  0  0  0  0  0  0
    6.0477  -20.3191   28.4060 N   0  0  0  0  0  0  0  0  0  0  0  0
    7.0448  -20.1329   26.3188 N   0  0  0  0  0  0  0  0  0  0  0  0
    8.0808  -19.6331   25.4657 C   0  0  0  0  0  0  0  0  0  0  0  0
    7.8030  -18.1869   25.0593 C   0  0  0  0  0  0  0  0  0  0  0  0
    8.2361  -17.9253   23.6495 C   0  0  0  0  0  0  0  0  0  0  0  0
    7.9832  -16.4681   23.2410 C   0  0  2  0  0  0  0  0  0  0  0  0
    8.5217  -16.1749   21.9522 N   0  0  0  0  0  0  0  0  0  0  0  0
    8.5132  -15.5673   24.2761 C   0  0  0  0  0  0  0  0  0  0  0  0
    9.7468  -15.4940   24.5424 O   0  0  0  0  0  0  0  0  0  0  0  0
    5.4683  -21.0466   27.9316 C   0  0  0  0  0  0  0  0  0  0  0  0
    5.8451  -13.2581   26.8647 C   0  0  2  0  0  0  0  0  0  0  0  0
    7.0733  -12.6636   26.2238 C   0  0  0  0  0  0  0  0  0  0  0  0
    7.5777  -11.5658   27.1317 C   0  0  1  0  0  0  0  0  0  0  0  0
    8.1101  -13.7437   25.9859 N   0  0  0  0  0  0  0  0  0  0  0  0
    7.6448  -14.7242   25.0353 C   0  0  0  0  0  0  0  0  0  0  0  0
    8.5044  -14.4230   27.2270 O   0  0  0  0  0  0  0  0  0  0  0  0
    9.3415  -13.7841   28.1171 O   0  0  0  0  0  0  0  0  0  0  0  0
  2  3  1  6
  2  1  1  0
  4  2  1  0
  4  5  1  0
  5  7  1  0
  5  6  1  6
  7  8  2  0
 10 12  1  0
 10  9  1  0
 11 10  2  0
 13 14  1  0
 13 12  1  0
 14 15  1  0
 16 15  1  1
 17 16  1  0
 17  7  1  0
 18 19  2  0
 18 16  1  0
 21 20  1  6
 21 23  1  0
 22 21  1  0
 23 25  1  0
 23 24  1  6
 24 18  1  0
 25 26  1  0
 27 25  2  0
M  END
$$$$
