LRV.pdb
     RDKit          3D

 27 26  0  0  1  0  0  0  0  0999 V2000
    9.4340  -12.9659   19.6246 C   0  0  0  0  0  0  0  0  0  0  0  0
    8.0062  -13.2979   20.0450 C   0  0  1  0  0  0  0  0  0  0  0  0
    7.0745  -12.1824   19.6020 C   0  0  0  0  0  0  0  0  0  0  0  0
    7.6633  -14.6036   19.3611 C   0  0  0  0  0  0  0  0  0  0  0  0
    8.5247  -15.7335   19.9416 C   0  0  2  0  0  0  0  0  0  0  0  0
    8.2563  -16.9806   19.3023 N   0  0  0  0  0  0  0  0  0  0  0  0
    8.0485  -15.8346   21.3796 C   0  0  0  0  0  0  0  0  0  0  0  0
    6.8885  -15.4453   21.5987 O   0  0  0  0  0  0  0  0  0  0  0  0
   11.6790  -21.4348   22.6003 N   0  0  0  0  0  0  0  0  0  0  0  0
   10.3516  -21.8767   22.3775 C   0  0  0  0  0  0  0  0  0  0  0  0
   10.0415  -22.7758   21.5096 N   0  0  0  0  0  0  0  0  0  0  0  0
    9.2891  -21.3094   23.1433 N   0  0  0  0  0  0  0  0  0  0  0  0
    9.5061  -20.1956   24.0170 C   0  0  0  0  0  0  0  0  0  0  0  0
    8.7977  -18.9466   23.4957 C   0  0  0  0  0  0  0  0  0  0  0  0
    9.0752  -17.7603   24.3669 C   0  0  0  0  0  0  0  0  0  0  0  0
    8.5388  -16.4640   23.7455 C   0  0  2  0  0  0  0  0  0  0  0  0
    8.8998  -16.3432   22.3700 N   0  0  0  0  0  0  0  0  0  0  0  0
    8.9970  -15.3119   24.5372 C   0  0  0  0  0  0  0  0  0  0  0  0
   10.1967  -14.9140   24.5214 O   0  0  0  0  0  0  0  0  0  0  0  0
    9.0223  -22.9441   21.3580 C   0  0  0  0  0  0  0  0  0  0  0  0
    7.4540  -11.7474   24.8951 C   0  0  2  0  0  0  0  0  0  0  0  0
    7.5104  -12.3806   26.2621 C   0  0  0  0  0  0  0  0  0  0  0  0
    6.1106  -12.8248   26.6189 C   0  0  2  0  0  0  0  0  0  0  0  0
    8.5024  -13.5269   26.2635 N   0  0  0  0  0  0  0  0  0  0  0  0
    8.0931  -14.5825   25.3692 C   0  0  0  0  0  0  0  0  0  0  0  0
    8.7100  -14.0845   27.6064 O   0  0  0  0  0  0  0  0  0  0  0  0
    9.3243  -13.3187   28.5746 O   0  0  0  0  0  0  0  0  0  0  0  0
  2  3  1  6
  2  1  1  0
  4  2  1  0
  4  5  1  0
  5  7  1  0
  5  6  1  6
  7  8  2  0
 10 12  1  0
 10  9  1  0
 11 10  2  0
 13 14  1  0
 13 12  1  0
 14 15  1  0
 16 15  1  1
 17 16  1  0
 17  7  1  0
 18 19  2  0
 18 16  1  0
 21 20  1  1
 21 23  1  0
 22 21  1  0
 23 25  1  0
 23 24  1  1
 24 18  1  0
 25 26  1  0
 27 25  2  0
M  END
$$$$
