LRV.pdb
     RDKit          3D

 27 26  0  0  1  0  0  0  0  0999 V2000
    6.9202  -12.6764   18.1626 C   0  0  0  0  0  0  0  0  0  0  0  0
    7.7691  -13.8302   18.6858 C   0  0  1  0  0  0  0  0  0  0  0  0
    9.2291  -13.4109   18.7204 C   0  0  0  0  0  0  0  0  0  0  0  0
    7.2514  -14.1317   20.0755 C   0  0  0  0  0  0  0  0  0  0  0  0
    8.1184  -15.2182   20.7261 C   0  0  2  0  0  0  0  0  0  0  0  0
    7.9043  -16.4932   20.1223 N   0  0  0  0  0  0  0  0  0  0  0  0
    7.5925  -15.2818   22.1488 C   0  0  0  0  0  0  0  0  0  0  0  0
    7.0556  -14.2464   22.5787 O   0  0  0  0  0  0  0  0  0  0  0  0
    6.6998  -23.2384   24.5756 N   0  0  0  0  0  0  0  0  0  0  0  0
    5.9998  -22.6558   23.4904 C   0  0  0  0  0  0  0  0  0  0  0  0
    5.3523  -23.3434   22.6153 N   0  0  0  0  0  0  0  0  0  0  0  0
    5.9996  -21.2363   23.3411 N   0  0  0  0  0  0  0  0  0  0  0  0
    6.6963  -20.3857   24.2586 C   0  0  0  0  0  0  0  0  0  0  0  0
    6.6000  -18.9232   23.8280 C   0  0  0  0  0  0  0  0  0  0  0  0
    7.3757  -18.0326   24.7491 C   0  0  0  0  0  0  0  0  0  0  0  0
    7.3602  -16.5742   24.2725 C   0  0  2  0  0  0  0  0  0  0  0  0
    7.7255  -16.4590   22.8976 N   0  0  0  0  0  0  0  0  0  0  0  0
    8.2265  -15.7628   25.1413 C   0  0  0  0  0  0  0  0  0  0  0  0
    9.4879  -15.8109   25.0742 O   0  0  0  0  0  0  0  0  0  0  0  0
    4.8756  -22.8035   21.8594 C   0  0  0  0  0  0  0  0  0  0  0  0
    7.1185  -12.0036   26.1846 C   0  0  2  0  0  0  0  0  0  0  0  0
    7.6361  -12.7758   27.3714 C   0  0  0  0  0  0  0  0  0  0  0  0
    6.4442  -13.1920   28.2021 C   0  0  2  0  0  0  0  0  0  0  0  0
    8.4600  -13.9590   26.9028 N   0  0  0  0  0  0  0  0  0  0  0  0
    7.6721  -14.8726   26.1116 C   0  0  0  0  0  0  0  0  0  0  0  0
    9.0724  -14.6908   28.0193 O   0  0  0  0  0  0  0  0  0  0  0  0
   10.0490  -14.0821   28.7789 O   0  0  0  0  0  0  0  0  0  0  0  0
  2  3  1  1
  2  1  1  0
  4  2  1  0
  4  5  1  0
  5  7  1  0
  5  6  1  6
  7  8  2  0
 10 12  1  0
 10  9  1  0
 11 10  2  0
 13 14  1  0
 13 12  1  0
 14 15  1  0
 16 15  1  1
 17 16  1  0
 17  7  1  0
 18 19  2  0
 18 16  1  0
 21 20  1  1
 21 23  1  0
 22 21  1  0
 23 25  1  0
 23 24  1  1
 24 18  1  0
 25 26  1  0
 27 25  2  0
M  END
$$$$
