LRV.pdb
     RDKit          3D

 27 26  0  0  1  0  0  0  0  0999 V2000
    9.6394  -12.9975   19.6532 C   0  0  0  0  0  0  0  0  0  0  0  0
    8.1449  -13.2399   19.8363 C   0  0  1  0  0  0  0  0  0  0  0  0
    7.3664  -12.0726   19.2534 C   0  0  0  0  0  0  0  0  0  0  0  0
    7.8382  -14.5264   19.1008 C   0  0  0  0  0  0  0  0  0  0  0  0
    8.4797  -15.7096   19.8383 C   0  0  2  0  0  0  0  0  0  0  0  0
    8.1349  -16.9552   19.2338 N   0  0  0  0  0  0  0  0  0  0  0  0
    7.8309  -15.6617   21.2100 C   0  0  0  0  0  0  0  0  0  0  0  0
    6.7534  -15.0461   21.2825 O   0  0  0  0  0  0  0  0  0  0  0  0
   11.7385  -18.3962   26.1216 N   0  0  0  0  0  0  0  0  0  0  0  0
   12.0105  -19.4245   25.1860 C   0  0  0  0  0  0  0  0  0  0  0  0
   13.2020  -19.7728   24.8439 N   0  0  0  0  0  0  0  0  0  0  0  0
   10.9231  -20.1226   24.5799 N   0  0  0  0  0  0  0  0  0  0  0  0
    9.5750  -19.6522   24.6908 C   0  0  0  0  0  0  0  0  0  0  0  0
    9.4419  -18.2387   24.1269 C   0  0  0  0  0  0  0  0  0  0  0  0
    8.0350  -17.7377   24.2411 C   0  0  0  0  0  0  0  0  0  0  0  0
    7.8762  -16.3481   23.6102 C   0  0  2  0  0  0  0  0  0  0  0  0
    8.4453  -16.2882   22.3028 N   0  0  0  0  0  0  0  0  0  0  0  0
    8.4491  -15.3319   24.5062 C   0  0  0  0  0  0  0  0  0  0  0  0
    9.6713  -15.0110   24.4718 O   0  0  0  0  0  0  0  0  0  0  0  0
   13.2781  -20.5273   24.1264 C   0  0  0  0  0  0  0  0  0  0  0  0
    6.8355  -11.8196   25.4875 C   0  0  2  0  0  0  0  0  0  0  0  0
    7.1353  -12.6195   26.7297 C   0  0  0  0  0  0  0  0  0  0  0  0
    5.8282  -13.1825   27.2382 C   0  0  2  0  0  0  0  0  0  0  0  0
    8.1523  -13.7001   26.4194 N   0  0  0  0  0  0  0  0  0  0  0  0
    7.6377  -14.6539   25.4670 C   0  0  0  0  0  0  0  0  0  0  0  0
    8.5964  -14.4122   27.6248 O   0  0  0  0  0  0  0  0  0  0  0  0
    9.3213  -13.7393   28.5855 O   0  0  0  0  0  0  0  0  0  0  0  0
  2  3  1  6
  2  1  1  0
  4  2  1  0
  4  5  1  0
  5  7  1  0
  5  6  1  6
  7  8  2  0
 10 12  1  0
 10  9  1  0
 11 10  2  0
 13 14  1  0
 13 12  1  0
 14 15  1  0
 16 15  1  1
 17 16  1  0
 17  7  1  0
 18 19  2  0
 18 16  1  0
 21 20  1  1
 21 23  1  0
 22 21  1  0
 23 25  1  0
 23 24  1  1
 24 18  1  0
 25 26  1  0
 27 25  2  0
M  END
$$$$
