LRV.pdb
     RDKit          3D

 27 26  0  0  1  0  0  0  0  0999 V2000
    7.9252  -12.4422   18.9703 C   0  0  0  0  0  0  0  0  0  0  0  0
    8.3056  -13.8918   19.2522 C   0  0  1  0  0  0  0  0  0  0  0  0
    9.3899  -13.9341   20.3158 C   0  0  0  0  0  0  0  0  0  0  0  0
    7.0400  -14.5692   19.7312 C   0  0  0  0  0  0  0  0  0  0  0  0
    7.3582  -16.0020   20.1800 C   0  0  2  0  0  0  0  0  0  0  0  0
    6.5555  -16.9592   19.4905 N   0  0  0  0  0  0  0  0  0  0  0  0
    6.9445  -16.0123   21.6407 C   0  0  0  0  0  0  0  0  0  0  0  0
    5.7798  -15.6503   21.8804 O   0  0  0  0  0  0  0  0  0  0  0  0
    8.7601  -19.3080   28.4623 N   0  0  0  0  0  0  0  0  0  0  0  0
    8.0910  -20.3555   27.7825 C   0  0  0  0  0  0  0  0  0  0  0  0
    8.3103  -21.6029   28.0142 N   0  0  0  0  0  0  0  0  0  0  0  0
    7.1208  -20.0335   26.7863 N   0  0  0  0  0  0  0  0  0  0  0  0
    6.6461  -18.6943   26.6070 C   0  0  0  0  0  0  0  0  0  0  0  0
    7.7730  -17.7732   26.1429 C   0  0  0  0  0  0  0  0  0  0  0  0
    7.9194  -17.8010   24.6526 C   0  0  0  0  0  0  0  0  0  0  0  0
    7.5519  -16.4511   24.0225 C   0  0  2  0  0  0  0  0  0  0  0  0
    7.8544  -16.4138   22.6282 N   0  0  0  0  0  0  0  0  0  0  0  0
    8.2184  -15.3660   24.7588 C   0  0  0  0  0  0  0  0  0  0  0  0
    9.4433  -15.0955   24.6034 O   0  0  0  0  0  0  0  0  0  0  0  0
    7.7404  -22.2850   27.4664 C   0  0  0  0  0  0  0  0  0  0  0  0
    7.0608  -11.6810   25.3598 C   0  0  2  0  0  0  0  0  0  0  0  0
    7.2562  -12.3428   26.7001 C   0  0  0  0  0  0  0  0  0  0  0  0
    5.8878  -12.6591   27.2584 C   0  0  2  0  0  0  0  0  0  0  0  0
    8.1222  -13.5778   26.5489 N   0  0  0  0  0  0  0  0  0  0  0  0
    7.4999  -14.5594   25.6940 C   0  0  0  0  0  0  0  0  0  0  0  0
    8.4434  -14.1968   27.8415 O   0  0  0  0  0  0  0  0  0  0  0  0
    9.2193  -13.5105   28.7516 O   0  0  0  0  0  0  0  0  0  0  0  0
  2  3  1  1
  2  1  1  0
  4  2  1  0
  4  5  1  0
  5  7  1  0
  5  6  1  6
  7  8  2  0
 10 12  1  0
 10  9  1  0
 11 10  2  0
 13 14  1  0
 13 12  1  0
 14 15  1  0
 16 15  1  1
 17 16  1  0
 17  7  1  0
 18 19  2  0
 18 16  1  0
 21 20  1  1
 21 23  1  0
 22 21  1  0
 23 25  1  0
 23 24  1  1
 24 18  1  0
 25 26  1  0
 27 25  2  0
M  END
$$$$
