LRV.pdb
     RDKit          3D

 27 26  0  0  1  0  0  0  0  0999 V2000
    7.8511  -12.7646   17.7014 C   0  0  0  0  0  0  0  0  0  0  0  0
    8.5661  -13.4183   18.8792 C   0  0  1  0  0  0  0  0  0  0  0  0
    9.0067  -12.3474   19.8629 C   0  0  0  0  0  0  0  0  0  0  0  0
    7.5610  -14.3598   19.5063 C   0  0  0  0  0  0  0  0  0  0  0  0
    8.2397  -15.6964   19.8357 C   0  0  2  0  0  0  0  0  0  0  0  0
    7.8168  -16.7328   18.9508 N   0  0  0  0  0  0  0  0  0  0  0  0
    7.7150  -16.0242   21.2221 C   0  0  0  0  0  0  0  0  0  0  0  0
    6.5352  -16.4111   21.2815 O   0  0  0  0  0  0  0  0  0  0  0  0
   11.8039  -18.7672   21.6824 N   0  0  0  0  0  0  0  0  0  0  0  0
   12.5704  -19.1473   22.8116 C   0  0  0  0  0  0  0  0  0  0  0  0
   13.8500  -19.2869   22.7837 N   0  0  0  0  0  0  0  0  0  0  0  0
   11.9102  -19.3926   24.0531 N   0  0  0  0  0  0  0  0  0  0  0  0
   10.4938  -19.2347   24.1933 C   0  0  0  0  0  0  0  0  0  0  0  0
   10.0703  -17.8014   23.8769 C   0  0  0  0  0  0  0  0  0  0  0  0
    8.5999  -17.6096   24.0877 C   0  0  0  0  0  0  0  0  0  0  0  0
    8.1477  -16.2027   23.6747 C   0  0  2  0  0  0  0  0  0  0  0  0
    8.5464  -15.8847   22.3417 N   0  0  0  0  0  0  0  0  0  0  0  0
    8.6480  -15.2192   24.6475 C   0  0  0  0  0  0  0  0  0  0  0  0
    9.8106  -14.7281   24.5765 O   0  0  0  0  0  0  0  0  0  0  0  0
   14.3061  -19.5751   23.6776 C   0  0  0  0  0  0  0  0  0  0  0  0
    6.5302  -12.2250   25.6661 C   0  0  2  0  0  0  0  0  0  0  0  0
    7.0801  -12.7879   26.9520 C   0  0  0  0  0  0  0  0  0  0  0  0
    5.9409  -13.4623   27.6808 C   0  0  2  0  0  0  0  0  0  0  0  0
    8.2244  -13.7374   26.6565 N   0  0  0  0  0  0  0  0  0  0  0  0
    7.8299  -14.7698   25.7292 C   0  0  0  0  0  0  0  0  0  0  0  0
    8.7621  -14.3602   27.8731 O   0  0  0  0  0  0  0  0  0  0  0  0
    9.4158  -13.5822   28.8051 O   0  0  0  0  0  0  0  0  0  0  0  0
  2  3  1  1
  2  1  1  0
  4  2  1  0
  4  5  1  0
  5  7  1  0
  5  6  1  6
  7  8  2  0
 10 12  1  0
 10  9  1  0
 11 10  2  0
 13 14  1  0
 13 12  1  0
 14 15  1  0
 16 15  1  1
 17 16  1  0
 17  7  1  0
 18 19  2  0
 18 16  1  0
 21 20  1  1
 21 23  1  0
 22 21  1  0
 23 25  1  0
 23 24  1  1
 24 18  1  0
 25 26  1  0
 27 25  2  0
M  END
$$$$
