LRV.pdb
     RDKit          3D

 27 26  0  0  1  0  0  0  0  0999 V2000
    7.3779  -11.9891   18.8208 C   0  0  0  0  0  0  0  0  0  0  0  0
    8.2149  -13.2630   18.8701 C   0  0  1  0  0  0  0  0  0  0  0  0
    9.5496  -12.9677   19.5333 C   0  0  0  0  0  0  0  0  0  0  0  0
    7.4100  -14.2595   19.6759 C   0  0  0  0  0  0  0  0  0  0  0  0
    8.2795  -15.4803   20.0062 C   0  0  2  0  0  0  0  0  0  0  0  0
    7.9642  -16.5922   19.1695 N   0  0  0  0  0  0  0  0  0  0  0  0
    7.8666  -15.8319   21.4242 C   0  0  0  0  0  0  0  0  0  0  0  0
    6.6850  -16.1869   21.5761 O   0  0  0  0  0  0  0  0  0  0  0  0
   13.2596  -18.9872   21.2753 N   0  0  0  0  0  0  0  0  0  0  0  0
   12.6262  -19.8282   22.2232 C   0  0  0  0  0  0  0  0  0  0  0  0
   12.6136  -21.1125   22.1326 N   0  0  0  0  0  0  0  0  0  0  0  0
   11.9626  -19.2425   23.3429 N   0  0  0  0  0  0  0  0  0  0  0  0
   11.3592  -17.9462   23.2632 C   0  0  0  0  0  0  0  0  0  0  0  0
    9.8400  -18.0572   23.1479 C   0  0  0  0  0  0  0  0  0  0  0  0
    9.1559  -17.3617   24.2844 C   0  0  0  0  0  0  0  0  0  0  0  0
    8.4928  -16.0544   23.8310 C   0  0  2  0  0  0  0  0  0  0  0  0
    8.7953  -15.7473   22.4704 N   0  0  0  0  0  0  0  0  0  0  0  0
    8.8804  -14.9645   24.7397 C   0  0  0  0  0  0  0  0  0  0  0  0
   10.0073  -14.3957   24.6724 O   0  0  0  0  0  0  0  0  0  0  0  0
   12.1136  -21.6274   22.8910 C   0  0  0  0  0  0  0  0  0  0  0  0
    7.0196  -11.6983   25.5190 C   0  0  2  0  0  0  0  0  0  0  0  0
    7.1974  -12.4404   26.8192 C   0  0  0  0  0  0  0  0  0  0  0  0
    5.8740  -13.0833   27.1642 C   0  0  2  0  0  0  0  0  0  0  0  0
    8.3194  -13.4518   26.6912 N   0  0  0  0  0  0  0  0  0  0  0  0
    7.9874  -14.4948   25.7513 C   0  0  0  0  0  0  0  0  0  0  0  0
    8.6747  -14.0585   27.9808 O   0  0  0  0  0  0  0  0  0  0  0  0
    9.2265  -13.2759   28.9729 O   0  0  0  0  0  0  0  0  0  0  0  0
  2  3  1  1
  2  1  1  0
  4  2  1  0
  4  5  1  0
  5  7  1  0
  5  6  1  6
  7  8  2  0
 10 12  1  0
 10  9  1  0
 11 10  2  0
 13 14  1  0
 13 12  1  0
 14 15  1  0
 16 15  1  1
 17 16  1  0
 17  7  1  0
 18 19  2  0
 18 16  1  0
 21 20  1  1
 21 23  1  0
 22 21  1  0
 23 25  1  0
 23 24  1  1
 24 18  1  0
 25 26  1  0
 27 25  2  0
M  END
$$$$
