LRV.pdb
     RDKit          3D

 27 26  0  0  1  0  0  0  0  0999 V2000
    7.1107  -11.8384   18.8877 C   0  0  0  0  0  0  0  0  0  0  0  0
    7.9724  -13.0955   18.8353 C   0  0  1  0  0  0  0  0  0  0  0  0
    9.4384  -12.7105   18.9418 C   0  0  0  0  0  0  0  0  0  0  0  0
    7.5412  -13.9456   20.0107 C   0  0  0  0  0  0  0  0  0  0  0  0
    8.4409  -15.1851   20.1103 C   0  0  2  0  0  0  0  0  0  0  0  0
    7.9975  -16.2275   19.2428 N   0  0  0  0  0  0  0  0  0  0  0  0
    8.2386  -15.6515   21.5409 C   0  0  0  0  0  0  0  0  0  0  0  0
    7.0592  -15.7971   21.9056 O   0  0  0  0  0  0  0  0  0  0  0  0
    9.8702  -21.7388   25.3948 N   0  0  0  0  0  0  0  0  0  0  0  0
   10.7268  -21.2687   24.3690 C   0  0  0  0  0  0  0  0  0  0  0  0
   11.0436  -21.9686   23.3358 N   0  0  0  0  0  0  0  0  0  0  0  0
   11.2772  -19.9555   24.4662 N   0  0  0  0  0  0  0  0  0  0  0  0
   11.1095  -19.1573   25.6434 C   0  0  0  0  0  0  0  0  0  0  0  0
   10.1368  -18.0072   25.3892 C   0  0  0  0  0  0  0  0  0  0  0  0
   10.1843  -17.5602   23.9604 C   0  0  0  0  0  0  0  0  0  0  0  0
    9.2486  -16.3706   23.7081 C   0  0  2  0  0  0  0  0  0  0  0  0
    9.3449  -15.8919   22.3670 N   0  0  0  0  0  0  0  0  0  0  0  0
    9.5230  -15.3110   24.6909 C   0  0  0  0  0  0  0  0  0  0  0  0
   10.6738  -14.8107   24.8433 O   0  0  0  0  0  0  0  0  0  0  0  0
   11.7415  -21.5463   22.6840 C   0  0  0  0  0  0  0  0  0  0  0  0
    7.4460  -12.0637   25.2596 C   0  0  2  0  0  0  0  0  0  0  0  0
    7.5509  -12.7914   26.5758 C   0  0  0  0  0  0  0  0  0  0  0  0
    6.2200  -13.4576   26.8380 C   0  0  2  0  0  0  0  0  0  0  0  0
    8.6982  -13.7814   26.5325 N   0  0  0  0  0  0  0  0  0  0  0  0
    8.4861  -14.7941   25.5270 C   0  0  0  0  0  0  0  0  0  0  0  0
    8.9264  -14.4295   27.8306 O   0  0  0  0  0  0  0  0  0  0  0  0
    9.3903  -13.6827   28.8928 O   0  0  0  0  0  0  0  0  0  0  0  0
  2  3  1  1
  2  1  1  0
  4  2  1  0
  4  5  1  0
  5  7  1  0
  5  6  1  6
  7  8  2  0
 10 12  1  0
 10  9  1  0
 11 10  2  0
 13 14  1  0
 13 12  1  0
 14 15  1  0
 16 15  1  6
 17 16  1  0
 17  7  1  0
 18 19  2  0
 18 16  1  0
 21 20  1  1
 21 23  1  0
 22 21  1  0
 23 25  1  0
 23 24  1  1
 24 18  1  0
 25 26  1  0
 27 25  2  0
M  END
$$$$
