LRV.pdb
     RDKit          3D

 27 26  0  0  1  0  0  0  0  0999 V2000
    7.0365  -12.4694   18.0636 C   0  0  0  0  0  0  0  0  0  0  0  0
    7.9529  -13.6112   18.4904 C   0  0  1  0  0  0  0  0  0  0  0  0
    9.3886  -13.1167   18.5435 C   0  0  0  0  0  0  0  0  0  0  0  0
    7.4703  -14.0438   19.8579 C   0  0  0  0  0  0  0  0  0  0  0  0
    8.5637  -14.8631   20.5571 C   0  0  2  0  0  0  0  0  0  0  0  0
    8.6981  -16.1611   19.9800 N   0  0  0  0  0  0  0  0  0  0  0  0
    8.0274  -15.0330   21.9672 C   0  0  0  0  0  0  0  0  0  0  0  0
    7.4557  -14.0435   22.4563 O   0  0  0  0  0  0  0  0  0  0  0  0
    4.4903  -20.1473   23.4578 N   0  0  0  0  0  0  0  0  0  0  0  0
    5.2379  -21.0377   22.6483 C   0  0  0  0  0  0  0  0  0  0  0  0
    4.7205  -21.7306   21.6944 N   0  0  0  0  0  0  0  0  0  0  0  0
    6.6372  -21.1892   22.8854 N   0  0  0  0  0  0  0  0  0  0  0  0
    7.3402  -20.3362   23.7960 C   0  0  0  0  0  0  0  0  0  0  0  0
    7.1016  -18.8651   23.4608 C   0  0  0  0  0  0  0  0  0  0  0  0
    7.8820  -17.9665   24.3701 C   0  0  0  0  0  0  0  0  0  0  0  0
    7.7342  -16.4920   23.9721 C   0  0  2  0  0  0  0  0  0  0  0  0
    8.1892  -16.2512   22.6410 N   0  0  0  0  0  0  0  0  0  0  0  0
    8.4304  -15.6450   24.9527 C   0  0  0  0  0  0  0  0  0  0  0  0
    9.6891  -15.5295   24.9746 O   0  0  0  0  0  0  0  0  0  0  0  0
    5.3714  -22.3518   21.1647 C   0  0  0  0  0  0  0  0  0  0  0  0
    7.0899  -12.0594   25.9950 C   0  0  2  0  0  0  0  0  0  0  0  0
    7.4135  -12.8530   27.2353 C   0  0  0  0  0  0  0  0  0  0  0  0
    6.1060  -13.3036   27.8447 C   0  0  2  0  0  0  0  0  0  0  0  0
    8.3234  -14.0144   26.8868 N   0  0  0  0  0  0  0  0  0  0  0  0
    7.7042  -14.9054   25.9360 C   0  0  0  0  0  0  0  0  0  0  0  0
    8.7311  -14.7800   28.0721 O   0  0  0  0  0  0  0  0  0  0  0  0
    8.3667  -16.1049   28.1859 O   0  0  0  0  0  0  0  0  0  0  0  0
  2  3  1  1
  2  1  1  0
  4  2  1  0
  4  5  1  0
  5  7  1  0
  5  6  1  6
  7  8  2  0
 10 12  1  0
 10  9  1  0
 11 10  2  0
 13 14  1  0
 13 12  1  0
 14 15  1  0
 16 15  1  1
 17 16  1  0
 17  7  1  0
 18 19  2  0
 18 16  1  0
 21 20  1  1
 21 23  1  0
 22 21  1  0
 23 25  1  0
 23 24  1  1
 24 18  1  0
 25 26  1  0
 27 25  2  0
M  END
$$$$
