FTH.pdb
     RDKit          3D

 29 30  0  0  1  0  0  0  0  0999 V2000
   13.1221  -14.0612   20.8123 N   0  0  0  0  0  0  0  0  0  0  0  0
   11.6995  -13.7681   20.6959 C   0  0  1  0  0  0  0  0  0  0  0  0
   11.3482  -13.9329   19.2283 C   0  0  0  0  0  0  0  0  0  0  0  0
    9.8881  -13.7325   19.0046 C   0  0  0  0  0  0  0  0  0  0  0  0
    9.1486  -14.6601   18.3232 C   0  0  0  0  0  0  0  0  0  0  0  0
    7.8104  -14.4518   18.1318 C   0  0  0  0  0  0  0  0  0  0  0  0
    7.1796  -13.3036   18.6213 C   0  0  0  0  0  0  0  0  0  0  0  0
    7.9082  -12.3577   19.3103 C   0  0  0  0  0  0  0  0  0  0  0  0
    9.2512  -12.6062   19.4806 C   0  0  0  0  0  0  0  0  0  0  0  0
   10.9784  -14.7618   21.5310 C   0  0  0  0  0  0  0  0  0  0  0  0
   10.5352  -14.4779   22.6957 O   0  0  0  0  0  0  0  0  0  0  0  0
    8.7422  -14.9793   22.6547 C   0  0  0  0  0  0  0  0  0  0  0  0
    8.5634  -16.3855   22.1226 C   0  0  1  0  0  0  0  0  0  0  0  0
    7.8899  -16.2870   20.9149 O   0  0  0  0  0  0  0  0  0  0  0  0
    9.9331  -17.0154   21.8540 C   0  0  2  0  0  0  0  0  0  0  0  0
   10.7316  -16.0926   21.0959 N   0  0  0  0  0  0  0  0  0  0  0  0
    9.7750  -18.3196   21.1568 C   0  0  0  0  0  0  0  0  0  0  0  0
    9.0835  -18.3416   20.1139 O   0  0  0  0  0  0  0  0  0  0  0  0
   10.3603  -19.5184   21.6097 N   0  0  0  0  0  0  0  0  0  0  0  0
   10.2699  -20.7810   20.8743 C   0  0  1  0  0  0  0  0  0  0  0  0
   11.5714  -21.5052   21.1412 C   0  0  0  0  0  0  0  0  0  0  0  0
   11.9307  -21.5470   22.5782 C   0  0  0  0  0  0  0  0  0  0  0  0
   11.8078  -20.5476   23.5182 C   0  0  0  0  0  0  0  0  0  0  0  0
   12.2713  -21.0606   24.6964 N   0  0  0  0  0  0  0  0  0  0  0  0
   12.6688  -22.3296   24.5040 C   0  0  0  0  0  0  0  0  0  0  0  0
   12.4555  -22.6063   23.2180 N   0  0  0  0  0  0  0  0  0  0  0  0
    9.1084  -21.5585   21.3518 C   0  0  0  0  0  0  0  0  0  0  0  0
    8.2507  -21.0083   22.2779 O   0  0  0  0  0  0  0  0  0  0  0  0
    8.8871  -22.7142   20.9286 O   0  0  0  0  0  0  0  0  0  0  0  0
  2  1  1  6
  2  3  1  0
  4  3  1  0
  4  9  1  0
  5  4  2  0
  6  5  1  0
  6  7  2  0
  7  8  1  0
  8  9  2  0
 10  2  1  0
 11 10  2  0
 13 12  1  6
 14 13  1  0
 15 13  1  0
 15 16  1  6
 16 10  1  0
 17 15  1  0
 18 17  2  0
 19 17  1  0
 20 21  1  1
 20 19  1  0
 21 22  1  0
 22 26  1  0
 23 22  2  0
 23 24  1  0
 24 25  1  0
 26 25  2  0
 27 20  1  0
 27 28  1  0
 29 27  2  0
M  END
$$$$
