FTH.pdb
     RDKit          3D

 29 30  0  0  1  0  0  0  0  0999 V2000
    5.3357  -22.3735   16.5197 N   0  0  0  0  0  0  0  0  0  0  0  0
    5.6516  -22.4234   17.9413 C   0  0  1  0  0  0  0  0  0  0  0  0
    5.4015  -23.8537   18.3844 C   0  0  0  0  0  0  0  0  0  0  0  0
    3.9741  -24.2320   18.1813 C   0  0  0  0  0  0  0  0  0  0  0  0
    3.6358  -25.2980   17.3934 C   0  0  0  0  0  0  0  0  0  0  0  0
    2.3183  -25.6239   17.2237 C   0  0  0  0  0  0  0  0  0  0  0  0
    1.3047  -24.8854   17.8427 C   0  0  0  0  0  0  0  0  0  0  0  0
    1.6261  -23.8079   18.6402 C   0  0  0  0  0  0  0  0  0  0  0  0
    2.9631  -23.5144   18.7842 C   0  0  0  0  0  0  0  0  0  0  0  0
    7.0855  -22.0647   18.0834 C   0  0  0  0  0  0  0  0  0  0  0  0
    7.9485  -22.3416   17.1823 O   0  0  0  0  0  0  0  0  0  0  0  0
    8.6088  -19.0528   17.8375 C   0  0  0  0  0  0  0  0  0  0  0  0
    9.0794  -19.4828   19.2109 C   0  0  1  0  0  0  0  0  0  0  0  0
    8.2216  -18.9120   20.1383 O   0  0  0  0  0  0  0  0  0  0  0  0
    8.9758  -21.0052   19.3403 C   0  0  2  0  0  0  0  0  0  0  0  0
    7.5968  -21.3914   19.2264 N   0  0  0  0  0  0  0  0  0  0  0  0
    9.5774  -21.4574   20.6231 C   0  0  0  0  0  0  0  0  0  0  0  0
    8.8172  -21.5857   21.6089 O   0  0  0  0  0  0  0  0  0  0  0  0
   10.9477  -21.7451   20.7796 N   0  0  0  0  0  0  0  0  0  0  0  0
   11.5419  -22.1394   22.0581 C   0  0  1  0  0  0  0  0  0  0  0  0
   12.5582  -23.2099   21.7253 C   0  0  0  0  0  0  0  0  0  0  0  0
   11.9416  -24.5169   21.3982 C   0  0  0  0  0  0  0  0  0  0  0  0
   10.8280  -25.1003   21.9614 C   0  0  0  0  0  0  0  0  0  0  0  0
   10.6548  -26.3001   21.3315 N   0  0  0  0  0  0  0  0  0  0  0  0
   11.6199  -26.4633   20.4109 C   0  0  0  0  0  0  0  0  0  0  0  0
   12.3882  -25.3757   20.4655 N   0  0  0  0  0  0  0  0  0  0  0  0
   12.1759  -20.9697   22.6995 C   0  0  0  0  0  0  0  0  0  0  0  0
   12.1746  -19.7522   22.0563 O   0  0  0  0  0  0  0  0  0  0  0  0
   12.7176  -21.0640   23.8226 O   0  0  0  0  0  0  0  0  0  0  0  0
  2  1  1  6
  2  3  1  0
  4  3  1  0
  4  9  1  0
  5  4  2  0
  6  5  1  0
  6  7  2  0
  7  8  1  0
  8  9  2  0
 10  2  1  0
 11 10  2  0
 13 12  1  6
 14 13  1  0
 15 13  1  0
 15 16  1  1
 16 10  1  0
 17 15  1  0
 18 17  2  0
 19 17  1  0
 20 21  1  6
 20 19  1  0
 21 22  1  0
 22 26  1  0
 23 22  2  0
 23 24  1  0
 24 25  1  0
 26 25  2  0
 27 20  1  0
 27 28  1  0
 29 27  2  0
M  END
$$$$
