FTH.pdb
     RDKit          3D

 29 30  0  0  1  0  0  0  0  0999 V2000
    5.7004  -16.5413   22.3118 N   0  0  0  0  0  0  0  0  0  0  0  0
    6.6506  -15.7638   23.0966 C   0  0  1  0  0  0  0  0  0  0  0  0
    5.9186  -15.3421   24.3580 C   0  0  0  0  0  0  0  0  0  0  0  0
    6.8161  -14.5653   25.2597 C   0  0  0  0  0  0  0  0  0  0  0  0
    7.5988  -15.1982   26.1861 C   0  0  0  0  0  0  0  0  0  0  0  0
    8.4136  -14.4616   27.0014 C   0  0  0  0  0  0  0  0  0  0  0  0
    8.4626  -13.0672   26.9064 C   0  0  0  0  0  0  0  0  0  0  0  0
    7.6812  -12.4118   25.9790 C   0  0  0  0  0  0  0  0  0  0  0  0
    6.8762  -13.1903   25.1789 C   0  0  0  0  0  0  0  0  0  0  0  0
    7.7904  -16.6602   23.4167 C   0  0  0  0  0  0  0  0  0  0  0  0
    7.6369  -17.9150   23.6049 O   0  0  0  0  0  0  0  0  0  0  0  0
    9.4696  -18.4781   21.8323 C   0  0  0  0  0  0  0  0  0  0  0  0
   10.6350  -17.6921   22.3949 C   0  0  1  0  0  0  0  0  0  0  0  0
   10.9049  -16.6621   21.5071 O   0  0  0  0  0  0  0  0  0  0  0  0
   10.2405  -17.0717   23.7383 C   0  0  2  0  0  0  0  0  0  0  0  0
    9.1260  -16.1880   23.5358 N   0  0  0  0  0  0  0  0  0  0  0  0
   11.4035  -16.3721   24.3465 C   0  0  0  0  0  0  0  0  0  0  0  0
   11.8690  -15.3816   23.7397 O   0  0  0  0  0  0  0  0  0  0  0  0
   11.9998  -16.7674   25.5603 N   0  0  0  0  0  0  0  0  0  0  0  0
   13.2108  -16.1446   26.0973 C   0  0  1  0  0  0  0  0  0  0  0  0
   12.7366  -15.1647   27.1483 C   0  0  0  0  0  0  0  0  0  0  0  0
   11.7951  -15.7653   28.1222 C   0  0  0  0  0  0  0  0  0  0  0  0
   11.2496  -17.0302   28.1134 C   0  0  0  0  0  0  0  0  0  0  0  0
   10.4431  -17.1152   29.2127 N   0  0  0  0  0  0  0  0  0  0  0  0
   10.4807  -15.9518   29.8839 C   0  0  0  0  0  0  0  0  0  0  0  0
   11.3029  -15.1480   29.2101 N   0  0  0  0  0  0  0  0  0  0  0  0
   14.0925  -17.1780   26.6772 C   0  0  0  0  0  0  0  0  0  0  0  0
   15.3161  -16.8200   27.1976 O   0  0  0  0  0  0  0  0  0  0  0  0
   13.7473  -18.3795   26.7051 O   0  0  0  0  0  0  0  0  0  0  0  0
  2  1  1  6
  2  3  1  0
  4  3  1  0
  4  9  1  0
  5  4  2  0
  6  5  1  0
  6  7  2  0
  7  8  1  0
  8  9  2  0
 10  2  1  0
 11 10  2  0
 13 12  1  6
 14 13  1  0
 15 13  1  0
 15 16  1  6
 16 10  1  0
 17 15  1  0
 18 17  2  0
 19 17  1  0
 20 21  1  1
 20 19  1  0
 21 22  1  0
 22 26  1  0
 23 22  2  0
 23 24  1  0
 24 25  1  0
 26 25  2  0
 27 20  1  0
 27 28  1  0
 29 27  2  0
M  END
$$$$
