FTH.pdb
     RDKit          3D

 29 30  0  0  1  0  0  0  0  0999 V2000
   10.2592  -15.9958   18.1557 N   0  0  0  0  0  0  0  0  0  0  0  0
   11.1406  -14.8429   18.2866 C   0  0  1  0  0  0  0  0  0  0  0  0
   10.7718  -14.1699   19.5964 C   0  0  0  0  0  0  0  0  0  0  0  0
    9.3597  -13.6932   19.5708 C   0  0  0  0  0  0  0  0  0  0  0  0
    9.0135  -12.5607   18.8858 C   0  0  0  0  0  0  0  0  0  0  0  0
    7.7104  -12.1451   18.8783 C   0  0  0  0  0  0  0  0  0  0  0  0
    6.7196  -12.8584   19.5606 C   0  0  0  0  0  0  0  0  0  0  0  0
    7.0492  -14.0018   20.2563 C   0  0  0  0  0  0  0  0  0  0  0  0
    8.3711  -14.3847   20.2380 C   0  0  0  0  0  0  0  0  0  0  0  0
   12.5324  -15.3588   18.3263 C   0  0  0  0  0  0  0  0  0  0  0  0
   12.8073  -16.5454   18.7133 O   0  0  0  0  0  0  0  0  0  0  0  0
   17.3777  -14.6046   17.5310 C   0  0  0  0  0  0  0  0  0  0  0  0
   15.9486  -14.1540   17.3136 C   0  0  1  0  0  0  0  0  0  0  0  0
   15.6345  -14.4041   15.9867 O   0  0  0  0  0  0  0  0  0  0  0  0
   15.0055  -14.9827   18.1905 C   0  0  2  0  0  0  0  0  0  0  0  0
   13.6518  -14.5728   17.9385 N   0  0  0  0  0  0  0  0  0  0  0  0
   15.3735  -14.8401   19.6245 C   0  0  0  0  0  0  0  0  0  0  0  0
   14.5626  -14.2563   20.3779 O   0  0  0  0  0  0  0  0  0  0  0  0
   16.5787  -15.3259   20.1690 N   0  0  0  0  0  0  0  0  0  0  0  0
   16.6938  -15.8243   21.5407 C   0  0  1  0  0  0  0  0  0  0  0  0
   15.7055  -16.9652   21.6467 C   0  0  0  0  0  0  0  0  0  0  0  0
   14.3895  -16.5479   22.1848 C   0  0  0  0  0  0  0  0  0  0  0  0
   13.9824  -15.2870   22.5619 C   0  0  0  0  0  0  0  0  0  0  0  0
   12.6917  -15.4062   22.9933 N   0  0  0  0  0  0  0  0  0  0  0  0
   12.3045  -16.6888   22.8913 C   0  0  0  0  0  0  0  0  0  0  0  0
   13.3435  -17.3641   22.4009 N   0  0  0  0  0  0  0  0  0  0  0  0
   18.0759  -16.2779   21.7962 C   0  0  0  0  0  0  0  0  0  0  0  0
   18.9208  -16.5277   20.7379 O   0  0  0  0  0  0  0  0  0  0  0  0
   18.4967  -16.4408   22.9624 O   0  0  0  0  0  0  0  0  0  0  0  0
  2  1  1  1
  2  3  1  0
  4  3  1  0
  4  9  1  0
  5  4  2  0
  6  5  1  0
  6  7  2  0
  7  8  1  0
  8  9  2  0
 10  2  1  0
 11 10  2  0
 13 12  1  6
 14 13  1  0
 15 13  1  0
 15 16  1  1
 16 10  1  0
 17 15  1  0
 18 17  2  0
 19 17  1  0
 20 21  1  6
 20 19  1  0
 21 22  1  0
 22 26  1  0
 23 22  2  0
 23 24  1  0
 24 25  1  0
 26 25  2  0
 27 20  1  0
 27 28  1  0
 29 27  2  0
M  END
$$$$
