FTH.pdb
     RDKit          3D

 29 30  0  0  1  0  0  0  0  0999 V2000
    7.6499  -14.7353   20.2328 N   0  0  0  0  0  0  0  0  0  0  0  0
    8.0251  -14.4320   21.6077 C   0  0  1  0  0  0  0  0  0  0  0  0
    6.7969  -13.8248   22.2615 C   0  0  0  0  0  0  0  0  0  0  0  0
    7.0405  -13.5586   23.7078 C   0  0  0  0  0  0  0  0  0  0  0  0
    6.5562  -14.4039   24.6683 C   0  0  0  0  0  0  0  0  0  0  0  0
    6.7940  -14.1365   25.9885 C   0  0  0  0  0  0  0  0  0  0  0  0
    7.5261  -13.0104   26.3781 C   0  0  0  0  0  0  0  0  0  0  0  0
    8.0221  -12.1472   25.4247 C   0  0  0  0  0  0  0  0  0  0  0  0
    7.7601  -12.4531   24.1086 C   0  0  0  0  0  0  0  0  0  0  0  0
    8.3923  -15.7172   22.2545 C   0  0  0  0  0  0  0  0  0  0  0  0
    7.7807  -16.8089   21.9943 O   0  0  0  0  0  0  0  0  0  0  0  0
   10.2502  -17.8306   21.3217 C   0  0  0  0  0  0  0  0  0  0  0  0
   10.9290  -17.6527   22.6633 C   0  0  1  0  0  0  0  0  0  0  0  0
   11.9417  -16.7214   22.4929 O   0  0  0  0  0  0  0  0  0  0  0  0
    9.9301  -17.0897   23.6783 C   0  0  2  0  0  0  0  0  0  0  0  0
    9.4451  -15.8233   23.2040 N   0  0  0  0  0  0  0  0  0  0  0  0
   10.5630  -16.9776   25.0195 C   0  0  0  0  0  0  0  0  0  0  0  0
   10.9239  -15.8411   25.3993 O   0  0  0  0  0  0  0  0  0  0  0  0
   10.7732  -18.0782   25.8736 N   0  0  0  0  0  0  0  0  0  0  0  0
   11.1285  -17.9382   27.2868 C   0  0  1  0  0  0  0  0  0  0  0  0
    9.9533  -17.2424   27.9382 C   0  0  0  0  0  0  0  0  0  0  0  0
   10.1795  -15.7936   28.1518 C   0  0  0  0  0  0  0  0  0  0  0  0
   11.3241  -15.0644   27.9160 C   0  0  0  0  0  0  0  0  0  0  0  0
   11.0449  -13.7744   28.2682 N   0  0  0  0  0  0  0  0  0  0  0  0
    9.7773  -13.6969   28.7071 C   0  0  0  0  0  0  0  0  0  0  0  0
    9.2699  -14.9268   28.6297 N   0  0  0  0  0  0  0  0  0  0  0  0
   11.3672  -19.2700   27.8793 C   0  0  0  0  0  0  0  0  0  0  0  0
   11.9742  -19.3721   29.1110 O   0  0  0  0  0  0  0  0  0  0  0  0
   11.0265  -20.3134   27.2803 O   0  0  0  0  0  0  0  0  0  0  0  0
  2  1  1  6
  2  3  1  0
  4  3  1  0
  4  9  1  0
  5  4  2  0
  6  5  1  0
  6  7  2  0
  7  8  1  0
  8  9  2  0
 10  2  1  0
 11 10  2  0
 13 12  1  6
 14 13  1  0
 15 13  1  0
 15 16  1  6
 16 10  1  0
 17 15  1  0
 18 17  2  0
 19 17  1  0
 20 21  1  1
 20 19  1  0
 21 22  1  0
 22 26  1  0
 23 22  2  0
 23 24  1  0
 24 25  1  0
 26 25  2  0
 27 20  1  0
 27 28  1  0
 29 27  2  0
M  END
$$$$
