FTH.pdb
     RDKit          3D

 29 30  0  0  1  0  0  0  0  0999 V2000
    6.1789  -16.3930   25.4151 N   0  0  0  0  0  0  0  0  0  0  0  0
    7.1678  -15.5452   24.7622 C   0  0  1  0  0  0  0  0  0  0  0  0
    7.8997  -14.8110   25.8712 C   0  0  0  0  0  0  0  0  0  0  0  0
    7.2634  -13.4914   26.1463 C   0  0  0  0  0  0  0  0  0  0  0  0
    7.7068  -12.3555   25.5261 C   0  0  0  0  0  0  0  0  0  0  0  0
    7.1052  -11.1572   25.7964 C   0  0  0  0  0  0  0  0  0  0  0  0
    6.0403  -11.0695   26.6987 C   0  0  0  0  0  0  0  0  0  0  0  0
    5.5797  -12.2032   27.3333 C   0  0  0  0  0  0  0  0  0  0  0  0
    6.2128  -13.3878   27.0329 C   0  0  0  0  0  0  0  0  0  0  0  0
    8.0891  -16.4411   24.0182 C   0  0  0  0  0  0  0  0  0  0  0  0
    8.3961  -17.6064   24.4439 O   0  0  0  0  0  0  0  0  0  0  0  0
    8.2212  -16.6302   20.1050 C   0  0  0  0  0  0  0  0  0  0  0  0
    9.6429  -16.5745   20.6229 C   0  0  1  0  0  0  0  0  0  0  0  0
   10.0932  -15.2744   20.4531 O   0  0  0  0  0  0  0  0  0  0  0  0
    9.6611  -16.8930   22.1207 C   0  0  2  0  0  0  0  0  0  0  0  0
    8.6917  -16.0674   22.7860 N   0  0  0  0  0  0  0  0  0  0  0  0
   11.0286  -16.7030   22.6735 C   0  0  0  0  0  0  0  0  0  0  0  0
   11.3018  -15.5922   23.1811 O   0  0  0  0  0  0  0  0  0  0  0  0
   12.0205  -17.7034   22.6530 N   0  0  0  0  0  0  0  0  0  0  0  0
   13.3374  -17.5375   23.2704 C   0  0  1  0  0  0  0  0  0  0  0  0
   13.7403  -18.9138   23.7533 C   0  0  0  0  0  0  0  0  0  0  0  0
   12.9734  -19.3627   24.9391 C   0  0  0  0  0  0  0  0  0  0  0  0
   12.1380  -18.6219   25.7460 C   0  0  0  0  0  0  0  0  0  0  0  0
   11.6663  -19.4725   26.7051 N   0  0  0  0  0  0  0  0  0  0  0  0
   12.1841  -20.6967   26.5086 C   0  0  0  0  0  0  0  0  0  0  0  0
   12.9717  -20.6113   25.4369 N   0  0  0  0  0  0  0  0  0  0  0  0
   14.2948  -17.0088   22.2778 C   0  0  0  0  0  0  0  0  0  0  0  0
   15.5661  -16.6569   22.6731 O   0  0  0  0  0  0  0  0  0  0  0  0
   13.9715  -16.8737   21.0774 O   0  0  0  0  0  0  0  0  0  0  0  0
  2  1  1  1
  2  3  1  0
  4  3  1  0
  4  9  1  0
  5  4  2  0
  6  5  1  0
  6  7  2  0
  7  8  1  0
  8  9  2  0
 10  2  1  0
 11 10  2  0
 13 12  1  1
 14 13  1  0
 15 13  1  0
 15 16  1  1
 16 10  1  0
 17 15  1  0
 18 17  2  0
 19 17  1  0
 20 21  1  6
 20 19  1  0
 21 22  1  0
 22 26  1  0
 23 22  2  0
 23 24  1  0
 24 25  1  0
 26 25  2  0
 27 20  1  0
 27 28  1  0
 29 27  2  0
M  END
$$$$
