FKM.pdb
     RDKit          3D

 29 29  0  0  1  0  0  0  0  0999 V2000
    5.6533  -18.1483   24.8404 N   0  0  0  0  0  0  0  0  0  0  0  0
    6.0571  -16.7491   24.8933 C   0  0  1  0  0  0  0  0  0  0  0  0
    6.6246  -16.4094   26.2575 C   0  0  0  0  0  0  0  0  0  0  0  0
    6.8607  -14.9541   26.4050 C   0  0  0  0  0  0  0  0  0  0  0  0
    8.1151  -14.4075   26.2420 C   0  0  0  0  0  0  0  0  0  0  0  0
    8.2737  -13.0313   26.3945 C   0  0  0  0  0  0  0  0  0  0  0  0
    7.2230  -12.2158   26.6997 C   0  0  0  0  0  0  0  0  0  0  0  0
    5.9652  -12.7557   26.8643 C   0  0  0  0  0  0  0  0  0  0  0  0
    5.8009  -14.1373   26.7122 C   0  0  0  0  0  0  0  0  0  0  0  0
    7.1422  -16.5779   23.9054 C   0  0  0  0  0  0  0  0  0  0  0  0
    7.9950  -17.4671   23.6377 O   0  0  0  0  0  0  0  0  0  0  0  0
    7.2420  -15.3384   23.2064 N   0  0  0  0  0  0  0  0  0  0  0  0
    8.2453  -15.0985   22.1913 C   0  0  1  0  0  0  0  0  0  0  0  0
    7.9204  -13.7843   21.5409 C   0  0  0  0  0  0  0  0  0  0  0  0
    7.5791  -13.9103   20.0758 C   0  0  0  0  0  0  0  0  0  0  0  0
    8.7331  -13.5095   19.1886 C   0  0  0  0  0  0  0  0  0  0  0  0
    8.2768  -13.6246   17.7494 C   0  0  0  0  0  0  0  0  0  0  0  0
    9.3447  -13.2156   16.8694 N   0  0  0  0  0  0  0  0  0  0  0  0
    9.6180  -15.1691   22.7440 C   0  0  0  0  0  0  0  0  0  0  0  0
   10.6127  -14.9983   21.9911 O   0  0  0  0  0  0  0  0  0  0  0  0
   11.2252  -15.0794   29.2656 C   0  0  0  0  0  0  0  0  0  0  0  0
   10.4545  -13.7201   28.3488 S   0  0  0  0  0  0  0  0  0  0  0  0
   10.6877  -13.8535   26.5873 C   0  0  0  0  0  0  0  0  0  0  0  0
   11.1913  -15.1947   26.1649 C   0  0  0  0  0  0  0  0  0  0  0  0
   11.2358  -15.3908   24.6845 C   0  0  2  0  0  0  0  0  0  0  0  0
    9.8966  -15.4245   24.1078 N   0  0  0  0  0  0  0  0  0  0  0  0
   11.9103  -16.6436   24.3549 C   0  0  0  0  0  0  0  0  0  0  0  0
   13.1056  -16.9010   24.6420 O   0  0  0  0  0  0  0  0  0  0  0  0
   11.2405  -17.6749   23.6722 O   0  0  0  0  0  0  0  0  0  0  0  0
  2  1  1  1
  3  4  1  0
  3  2  1  0
  4  9  2  0
  4  5  1  0
  5  6  2  0
  6  7  1  0
  8  7  2  0
  9  8  1  0
 10 12  1  0
 10  2  1  0
 11 10  2  0
 13 12  1  0
 13 14  1  1
 14 15  1  0
 15 16  1  0
 16 17  1  0
 17 18  1  0
 19 13  1  0
 20 19  2  0
 21 22  1  0
 23 24  1  0
 23 22  1  0
 25 24  1  1
 25 27  1  0
 25 26  1  0
 26 19  1  0
 27 29  1  0
 28 27  2  0
M  END
$$$$
