FKM.pdb
     RDKit          3D

 29 29  0  0  1  0  0  0  0  0999 V2000
    5.5558  -18.1698   25.3171 N   0  0  0  0  0  0  0  0  0  0  0  0
    5.9797  -16.7786   25.2246 C   0  0  1  0  0  0  0  0  0  0  0  0
    6.5284  -16.2993   26.5540 C   0  0  0  0  0  0  0  0  0  0  0  0
    6.9547  -14.8816   26.4910 C   0  0  0  0  0  0  0  0  0  0  0  0
    6.0480  -13.8507   26.6088 C   0  0  0  0  0  0  0  0  0  0  0  0
    6.5104  -12.5377   26.5405 C   0  0  0  0  0  0  0  0  0  0  0  0
    7.8320  -12.2491   26.3609 C   0  0  0  0  0  0  0  0  0  0  0  0
    8.7448  -13.2755   26.2422 C   0  0  0  0  0  0  0  0  0  0  0  0
    8.2853  -14.5958   26.3100 C   0  0  0  0  0  0  0  0  0  0  0  0
    7.0844  -16.7309   24.2446 C   0  0  0  0  0  0  0  0  0  0  0  0
    8.0921  -17.4875   24.2848 O   0  0  0  0  0  0  0  0  0  0  0  0
    7.0192  -15.7771   23.1858 N   0  0  0  0  0  0  0  0  0  0  0  0
    8.1281  -15.5382   22.2871 C   0  0  1  0  0  0  0  0  0  0  0  0
    7.6157  -14.6920   21.1570 C   0  0  0  0  0  0  0  0  0  0  0  0
    8.5692  -14.6126   19.9895 C   0  0  0  0  0  0  0  0  0  0  0  0
    7.9417  -13.9448   18.7897 C   0  0  0  0  0  0  0  0  0  0  0  0
    8.9051  -14.0713   17.6283 C   0  0  0  0  0  0  0  0  0  0  0  0
    8.3277  -13.4655   16.4529 N   0  0  0  0  0  0  0  0  0  0  0  0
    9.2934  -14.9540   22.9911 C   0  0  0  0  0  0  0  0  0  0  0  0
    9.2598  -13.7589   23.3863 O   0  0  0  0  0  0  0  0  0  0  0  0
    9.7335  -13.8531   28.6894 C   0  0  0  0  0  0  0  0  0  0  0  0
   10.8121  -15.2810   28.4060 S   0  0  0  0  0  0  0  0  0  0  0  0
   11.6486  -15.2152   26.8340 C   0  0  0  0  0  0  0  0  0  0  0  0
   10.7306  -15.4258   25.6748 C   0  0  0  0  0  0  0  0  0  0  0  0
   11.4027  -15.3484   24.3428 C   0  0  2  0  0  0  0  0  0  0  0  0
   10.4827  -15.6729   23.2586 N   0  0  0  0  0  0  0  0  0  0  0  0
   12.5288  -16.2766   24.2838 C   0  0  0  0  0  0  0  0  0  0  0  0
   12.5155  -17.3673   23.6612 O   0  0  0  0  0  0  0  0  0  0  0  0
   13.7395  -15.9973   24.9430 O   0  0  0  0  0  0  0  0  0  0  0  0
  2  1  1  1
  3  4  1  0
  3  2  1  0
  4  9  2  0
  4  5  1  0
  5  6  2  0
  6  7  1  0
  8  7  2  0
  9  8  1  0
 10 12  1  0
 10  2  1  0
 11 10  2  0
 13 12  1  0
 13 14  1  6
 14 15  1  0
 15 16  1  0
 16 17  1  0
 17 18  1  0
 19 13  1  0
 20 19  2  0
 21 22  1  0
 23 24  1  0
 23 22  1  0
 25 24  1  1
 25 27  1  0
 25 26  1  0
 26 19  1  0
 27 29  1  0
 28 27  2  0
M  END
$$$$
