FKM.pdb
     RDKit          3D

 29 29  0  0  1  0  0  0  0  0999 V2000
    5.8215  -18.1989   25.4306 N   0  0  0  0  0  0  0  0  0  0  0  0
    6.1745  -16.7910   25.2993 C   0  0  1  0  0  0  0  0  0  0  0  0
    6.8001  -16.2768   26.5809 C   0  0  0  0  0  0  0  0  0  0  0  0
    7.0695  -14.8214   26.5127 C   0  0  0  0  0  0  0  0  0  0  0  0
    6.0461  -13.8988   26.5049 C   0  0  0  0  0  0  0  0  0  0  0  0
    6.3634  -12.5433   26.4386 C   0  0  0  0  0  0  0  0  0  0  0  0
    7.6560  -12.1093   26.3817 C   0  0  0  0  0  0  0  0  0  0  0  0
    8.6850  -13.0268   26.3892 C   0  0  0  0  0  0  0  0  0  0  0  0
    8.3714  -14.3892   26.4555 C   0  0  0  0  0  0  0  0  0  0  0  0
    7.1985  -16.7025   24.2381 C   0  0  0  0  0  0  0  0  0  0  0  0
    8.1910  -17.4756   24.1535 O   0  0  0  0  0  0  0  0  0  0  0  0
    7.0685  -15.6871   23.2446 N   0  0  0  0  0  0  0  0  0  0  0  0
    8.1051  -15.4160   22.2718 C   0  0  1  0  0  0  0  0  0  0  0  0
    7.4861  -14.6028   21.1712 C   0  0  0  0  0  0  0  0  0  0  0  0
    8.3920  -14.4253   19.9768 C   0  0  0  0  0  0  0  0  0  0  0  0
    7.7096  -13.6829   18.8532 C   0  0  0  0  0  0  0  0  0  0  0  0
    8.6836  -13.5877   17.6978 C   0  0  0  0  0  0  0  0  0  0  0  0
    8.0423  -12.9444   16.5766 N   0  0  0  0  0  0  0  0  0  0  0  0
    9.2910  -14.7796   22.8912 C   0  0  0  0  0  0  0  0  0  0  0  0
    9.2210  -13.6002   23.3264 O   0  0  0  0  0  0  0  0  0  0  0  0
   10.7799  -14.5182   29.4002 C   0  0  0  0  0  0  0  0  0  0  0  0
   10.5143  -14.4226   27.6106 S   0  0  0  0  0  0  0  0  0  0  0  0
   11.1349  -15.8492   26.7417 C   0  0  0  0  0  0  0  0  0  0  0  0
   10.5100  -16.0317   25.3974 C   0  0  0  0  0  0  0  0  0  0  0  0
   11.3073  -15.4585   24.2715 C   0  0  2  0  0  0  0  0  0  0  0  0
   10.5400  -15.4300   23.0315 N   0  0  0  0  0  0  0  0  0  0  0  0
   12.5154  -16.2479   24.0469 C   0  0  0  0  0  0  0  0  0  0  0  0
   12.5950  -17.2062   23.2389 O   0  0  0  0  0  0  0  0  0  0  0  0
   13.7054  -15.9749   24.7452 O   0  0  0  0  0  0  0  0  0  0  0  0
  2  1  1  1
  3  4  1  0
  3  2  1  0
  4  9  2  0
  4  5  1  0
  5  6  2  0
  6  7  1  0
  8  7  2  0
  9  8  1  0
 10 12  1  0
 10  2  1  0
 11 10  2  0
 13 12  1  0
 13 14  1  6
 14 15  1  0
 15 16  1  0
 16 17  1  0
 17 18  1  0
 19 13  1  0
 20 19  2  0
 21 22  1  0
 23 24  1  0
 23 22  1  0
 25 24  1  1
 25 27  1  0
 25 26  1  0
 26 19  1  0
 27 29  1  0
 28 27  2  0
M  END
$$$$
