FKM.pdb
     RDKit          3D

 29 29  0  0  1  0  0  0  0  0999 V2000
    5.5701  -17.8736   24.6097 N   0  0  0  0  0  0  0  0  0  0  0  0
    6.2543  -16.5910   24.7123 C   0  0  1  0  0  0  0  0  0  0  0  0
    6.9340  -16.4560   26.0606 C   0  0  0  0  0  0  0  0  0  0  0  0
    7.4185  -15.0753   26.2935 C   0  0  0  0  0  0  0  0  0  0  0  0
    6.6018  -14.1070   26.8358 C   0  0  0  0  0  0  0  0  0  0  0  0
    7.1153  -12.8260   27.0300 C   0  0  0  0  0  0  0  0  0  0  0  0
    8.4003  -12.5084   26.6982 C   0  0  0  0  0  0  0  0  0  0  0  0
    9.2231  -13.4721   26.1552 C   0  0  0  0  0  0  0  0  0  0  0  0
    8.7120  -14.7601   25.9581 C   0  0  0  0  0  0  0  0  0  0  0  0
    7.3106  -16.5843   23.6794 C   0  0  0  0  0  0  0  0  0  0  0  0
    8.0012  -17.5942   23.3745 O   0  0  0  0  0  0  0  0  0  0  0  0
    7.5748  -15.3702   22.9785 N   0  0  0  0  0  0  0  0  0  0  0  0
    8.6512  -15.2464   22.0191 C   0  0  1  0  0  0  0  0  0  0  0  0
    8.4147  -13.9847   21.2395 C   0  0  0  0  0  0  0  0  0  0  0  0
    7.6705  -14.2117   19.9459 C   0  0  0  0  0  0  0  0  0  0  0  0
    8.4231  -13.6666   18.7560 C   0  0  0  0  0  0  0  0  0  0  0  0
    7.6253  -13.9916   17.5107 C   0  0  0  0  0  0  0  0  0  0  0  0
    8.3202  -13.4943   16.3479 N   0  0  0  0  0  0  0  0  0  0  0  0
    9.9807  -15.3069   22.6700 C   0  0  0  0  0  0  0  0  0  0  0  0
   11.0209  -15.4397   21.9729 O   0  0  0  0  0  0  0  0  0  0  0  0
    9.6706  -14.5904   29.8722 C   0  0  0  0  0  0  0  0  0  0  0  0
   10.4996  -13.8172   28.4590 S   0  0  0  0  0  0  0  0  0  0  0  0
   10.7739  -14.9512   27.1122 C   0  0  0  0  0  0  0  0  0  0  0  0
   11.4469  -14.3145   25.9406 C   0  0  0  0  0  0  0  0  0  0  0  0
   11.4743  -15.1684   24.7149 C   0  0  2  0  0  0  0  0  0  0  0  0
   10.1672  -15.2229   24.0704 N   0  0  0  0  0  0  0  0  0  0  0  0
   11.8791  -16.5311   25.0502 C   0  0  0  0  0  0  0  0  0  0  0  0
   12.9907  -16.8371   25.5484 O   0  0  0  0  0  0  0  0  0  0  0  0
   11.0201  -17.6225   24.8285 O   0  0  0  0  0  0  0  0  0  0  0  0
  2  1  1  1
  3  4  1  0
  3  2  1  0
  4  9  2  0
  4  5  1  0
  5  6  2  0
  6  7  1  0
  8  7  2  0
  9  8  1  0
 10 12  1  0
 10  2  1  0
 11 10  2  0
 13 12  1  0
 13 14  1  1
 14 15  1  0
 15 16  1  0
 16 17  1  0
 17 18  1  0
 19 13  1  0
 20 19  2  0
 21 22  1  0
 23 24  1  0
 23 22  1  0
 25 24  1  1
 25 27  1  0
 25 26  1  0
 26 19  1  0
 27 29  1  0
 28 27  2  0
M  END
$$$$
