FKM.pdb
     RDKit          3D

 29 29  0  0  1  0  0  0  0  0999 V2000
    5.5448  -17.7076   25.4000 N   0  0  0  0  0  0  0  0  0  0  0  0
    6.1542  -16.3956   25.2234 C   0  0  1  0  0  0  0  0  0  0  0  0
    6.6996  -15.8798   26.5405 C   0  0  0  0  0  0  0  0  0  0  0  0
    6.8969  -14.4115   26.5137 C   0  0  0  0  0  0  0  0  0  0  0  0
    5.8855  -13.5422   26.8604 C   0  0  0  0  0  0  0  0  0  0  0  0
    6.1323  -12.1713   26.8145 C   0  0  0  0  0  0  0  0  0  0  0  0
    7.3443  -11.6710   26.4366 C   0  0  0  0  0  0  0  0  0  0  0  0
    8.3608  -12.5349   26.0883 C   0  0  0  0  0  0  0  0  0  0  0  0
    8.1179  -13.9125   26.1327 C   0  0  0  0  0  0  0  0  0  0  0  0
    7.2996  -16.5742   24.3074 C   0  0  0  0  0  0  0  0  0  0  0  0
    8.2712  -17.3435   24.5396 O   0  0  0  0  0  0  0  0  0  0  0  0
    7.3196  -15.8389   23.0853 N   0  0  0  0  0  0  0  0  0  0  0  0
    8.5080  -15.7251   22.2673 C   0  0  1  0  0  0  0  0  0  0  0  0
    8.1471  -14.9038   21.0628 C   0  0  0  0  0  0  0  0  0  0  0  0
    9.0358  -15.1670   19.8714 C   0  0  0  0  0  0  0  0  0  0  0  0
    8.4956  -16.2708   18.9943 C   0  0  0  0  0  0  0  0  0  0  0  0
    9.4971  -16.5182   17.8858 C   0  0  0  0  0  0  0  0  0  0  0  0
    9.1272  -17.7070   17.1565 N   0  0  0  0  0  0  0  0  0  0  0  0
    9.6569  -15.1894   23.0341 C   0  0  0  0  0  0  0  0  0  0  0  0
    9.8146  -13.9456   23.1512 O   0  0  0  0  0  0  0  0  0  0  0  0
    9.7699  -15.6861   28.9488 C   0  0  0  0  0  0  0  0  0  0  0  0
   10.2751  -14.2087   28.0299 S   0  0  0  0  0  0  0  0  0  0  0  0
   10.3759  -14.4874   26.2728 C   0  0  0  0  0  0  0  0  0  0  0  0
   11.4477  -15.4570   25.8959 C   0  0  0  0  0  0  0  0  0  0  0  0
   11.7501  -15.4935   24.4333 C   0  0  2  0  0  0  0  0  0  0  0  0
   10.6224  -16.0091   23.6655 N   0  0  0  0  0  0  0  0  0  0  0  0
   12.9105  -16.3412   24.1723 C   0  0  0  0  0  0  0  0  0  0  0  0
   14.0835  -16.0643   24.5255 O   0  0  0  0  0  0  0  0  0  0  0  0
   12.7821  -17.5620   23.4857 O   0  0  0  0  0  0  0  0  0  0  0  0
  2  1  1  1
  3  4  1  0
  3  2  1  0
  4  9  2  0
  4  5  1  0
  5  6  2  0
  6  7  1  0
  8  7  2  0
  9  8  1  0
 10 12  1  0
 10  2  1  0
 11 10  2  0
 13 12  1  0
 13 14  1  6
 14 15  1  0
 15 16  1  0
 16 17  1  0
 17 18  1  0
 19 13  1  0
 20 19  2  0
 21 22  1  0
 23 24  1  0
 23 22  1  0
 25 24  1  1
 25 27  1  0
 25 26  1  0
 26 19  1  0
 27 29  1  0
 28 27  2  0
M  END
$$$$
