FKM.pdb
     RDKit          3D

 29 29  0  0  1  0  0  0  0  0999 V2000
    5.8321  -17.2980   25.7161 N   0  0  0  0  0  0  0  0  0  0  0  0
    6.5986  -16.3509   24.9165 C   0  0  1  0  0  0  0  0  0  0  0  0
    7.3204  -15.3612   25.8097 C   0  0  0  0  0  0  0  0  0  0  0  0
    6.7382  -14.0027   25.7037 C   0  0  0  0  0  0  0  0  0  0  0  0
    5.6069  -13.6469   26.4053 C   0  0  0  0  0  0  0  0  0  0  0  0
    5.1067  -12.3539   26.2631 C   0  0  0  0  0  0  0  0  0  0  0  0
    5.7064  -11.4361   25.4507 C   0  0  0  0  0  0  0  0  0  0  0  0
    6.8387  -11.7851   24.7457 C   0  0  0  0  0  0  0  0  0  0  0  0
    7.3448  -13.0826   24.8850 C   0  0  0  0  0  0  0  0  0  0  0  0
    7.6260  -17.1306   24.1958 C   0  0  0  0  0  0  0  0  0  0  0  0
    8.2692  -18.0868   24.7073 O   0  0  0  0  0  0  0  0  0  0  0  0
    7.9168  -16.7917   22.8410 N   0  0  0  0  0  0  0  0  0  0  0  0
    9.2516  -16.8789   22.2886 C   0  0  1  0  0  0  0  0  0  0  0  0
    9.1999  -16.3131   20.8983 C   0  0  0  0  0  0  0  0  0  0  0  0
   10.5142  -16.4133   20.1627 C   0  0  0  0  0  0  0  0  0  0  0  0
   10.6552  -17.7261   19.4305 C   0  0  0  0  0  0  0  0  0  0  0  0
   11.9888  -17.7194   18.7133 C   0  0  0  0  0  0  0  0  0  0  0  0
   11.8511  -17.0501   17.4425 N   0  0  0  0  0  0  0  0  0  0  0  0
   10.2547  -16.2270   23.1627 C   0  0  0  0  0  0  0  0  0  0  0  0
   10.1939  -14.9883   23.3808 O   0  0  0  0  0  0  0  0  0  0  0  0
   10.1441  -14.6013   28.8147 C   0  0  0  0  0  0  0  0  0  0  0  0
   11.4647  -15.8412   28.8471 S   0  0  0  0  0  0  0  0  0  0  0  0
   12.3456  -15.9545   27.3024 C   0  0  0  0  0  0  0  0  0  0  0  0
   11.4788  -16.3892   26.1663 C   0  0  0  0  0  0  0  0  0  0  0  0
   12.1565  -16.3573   24.8353 C   0  0  2  0  0  0  0  0  0  0  0  0
   11.3128  -16.9262   23.7905 N   0  0  0  0  0  0  0  0  0  0  0  0
   13.4060  -17.1123   24.8796 C   0  0  0  0  0  0  0  0  0  0  0  0
   14.4690  -16.6921   25.4000 O   0  0  0  0  0  0  0  0  0  0  0  0
   13.4997  -18.4008   24.3235 O   0  0  0  0  0  0  0  0  0  0  0  0
  2  1  1  1
  3  4  1  0
  3  2  1  0
  4  9  2  0
  4  5  1  0
  5  6  2  0
  6  7  1  0
  8  7  2  0
  9  8  1  0
 10 12  1  0
 10  2  1  0
 11 10  2  0
 13 12  1  0
 13 14  1  6
 14 15  1  0
 15 16  1  0
 16 17  1  0
 17 18  1  0
 19 13  1  0
 20 19  2  0
 21 22  1  0
 23 24  1  0
 23 22  1  0
 25 24  1  1
 25 27  1  0
 25 26  1  0
 26 19  1  0
 27 29  1  0
 28 27  2  0
M  END
$$$$
