FKM.pdb
     RDKit          3D

 29 29  0  0  1  0  0  0  0  0999 V2000
    6.0596  -17.8544   25.6897 N   0  0  0  0  0  0  0  0  0  0  0  0
    6.4979  -16.6567   24.9846 C   0  0  1  0  0  0  0  0  0  0  0  0
    6.8778  -15.5680   25.9688 C   0  0  0  0  0  0  0  0  0  0  0  0
    6.2208  -14.2808   25.6416 C   0  0  0  0  0  0  0  0  0  0  0  0
    4.8780  -14.0777   25.8744 C   0  0  0  0  0  0  0  0  0  0  0  0
    4.3174  -12.8451   25.5445 C   0  0  0  0  0  0  0  0  0  0  0  0
    5.0616  -11.8395   24.9993 C   0  0  0  0  0  0  0  0  0  0  0  0
    6.4057  -12.0357   24.7635 C   0  0  0  0  0  0  0  0  0  0  0  0
    6.9732  -13.2719   25.0931 C   0  0  0  0  0  0  0  0  0  0  0  0
    7.7168  -17.0224   24.2340 C   0  0  0  0  0  0  0  0  0  0  0  0
    8.5875  -17.8294   24.6587 O   0  0  0  0  0  0  0  0  0  0  0  0
    7.9332  -16.4350   22.9522 N   0  0  0  0  0  0  0  0  0  0  0  0
    9.1640  -16.6170   22.2130 C   0  0  1  0  0  0  0  0  0  0  0  0
    8.9832  -15.9641   20.8725 C   0  0  0  0  0  0  0  0  0  0  0  0
   10.2013  -16.0691   19.9871 C   0  0  0  0  0  0  0  0  0  0  0  0
   10.1236  -17.2537   19.0545 C   0  0  0  0  0  0  0  0  0  0  0  0
   10.8541  -16.8915   17.7785 C   0  0  0  0  0  0  0  0  0  0  0  0
    9.9072  -16.7736   16.6961 N   0  0  0  0  0  0  0  0  0  0  0  0
   10.3392  -16.1206   22.9663 C   0  0  0  0  0  0  0  0  0  0  0  0
   10.8387  -14.9979   22.6915 O   0  0  0  0  0  0  0  0  0  0  0  0
   11.0637  -15.6069   29.3840 C   0  0  0  0  0  0  0  0  0  0  0  0
   12.2470  -14.5797   28.4744 S   0  0  0  0  0  0  0  0  0  0  0  0
   12.7950  -15.3346   26.9562 C   0  0  0  0  0  0  0  0  0  0  0  0
   11.6677  -15.7151   26.0532 C   0  0  0  0  0  0  0  0  0  0  0  0
   12.1000  -16.3584   24.7760 C   0  0  2  0  0  0  0  0  0  0  0  0
   10.9597  -16.8480   24.0097 N   0  0  0  0  0  0  0  0  0  0  0  0
   12.9901  -17.4843   25.0464 C   0  0  0  0  0  0  0  0  0  0  0  0
   12.7012  -18.6854   24.8201 O   0  0  0  0  0  0  0  0  0  0  0  0
   14.2697  -17.2868   25.5957 O   0  0  0  0  0  0  0  0  0  0  0  0
  2  1  1  1
  3  4  1  0
  3  2  1  0
  4  9  2  0
  4  5  1  0
  5  6  2  0
  6  7  1  0
  8  7  2  0
  9  8  1  0
 10 12  1  0
 10  2  1  0
 11 10  2  0
 13 12  1  0
 13 14  1  6
 14 15  1  0
 15 16  1  0
 16 17  1  0
 17 18  1  0
 19 13  1  0
 20 19  2  0
 21 22  1  0
 23 24  1  0
 23 22  1  0
 25 24  1  1
 25 27  1  0
 25 26  1  0
 26 19  1  0
 27 29  1  0
 28 27  2  0
M  END
$$$$
