FKM.pdb
     RDKit          3D

 29 29  0  0  1  0  0  0  0  0999 V2000
    6.0213  -18.2302   25.0419 N   0  0  0  0  0  0  0  0  0  0  0  0
    6.2343  -16.7885   25.0380 C   0  0  1  0  0  0  0  0  0  0  0  0
    6.6909  -16.3136   26.4034 C   0  0  0  0  0  0  0  0  0  0  0  0
    6.6511  -14.8363   26.5105 C   0  0  0  0  0  0  0  0  0  0  0  0
    5.4577  -14.1483   26.5444 C   0  0  0  0  0  0  0  0  0  0  0  0
    5.4856  -12.7585   26.6453 C   0  0  0  0  0  0  0  0  0  0  0  0
    6.6594  -12.0657   26.7111 C   0  0  0  0  0  0  0  0  0  0  0  0
    7.8572  -12.7475   26.6777 C   0  0  0  0  0  0  0  0  0  0  0  0
    7.8344  -14.1433   26.5764 C   0  0  0  0  0  0  0  0  0  0  0  0
    7.3301  -16.5191   24.0844 C   0  0  0  0  0  0  0  0  0  0  0  0
    8.3449  -17.2560   23.9543 O   0  0  0  0  0  0  0  0  0  0  0  0
    7.2473  -15.3606   23.2562 N   0  0  0  0  0  0  0  0  0  0  0  0
    8.2510  -15.0432   22.2631 C   0  0  1  0  0  0  0  0  0  0  0  0
    7.7783  -13.8265   21.5202 C   0  0  0  0  0  0  0  0  0  0  0  0
    8.7448  -13.3615   20.4579 C   0  0  0  0  0  0  0  0  0  0  0  0
    8.3744  -13.8793   19.0890 C   0  0  0  0  0  0  0  0  0  0  0  0
    9.4633  -13.4632   18.1225 C   0  0  0  0  0  0  0  0  0  0  0  0
    9.1162  -13.8922   16.7893 N   0  0  0  0  0  0  0  0  0  0  0  0
    9.5957  -14.8909   22.8661 C   0  0  0  0  0  0  0  0  0  0  0  0
    9.9953  -13.7580   23.2431 O   0  0  0  0  0  0  0  0  0  0  0  0
   10.4343  -13.1404   27.8737 C   0  0  0  0  0  0  0  0  0  0  0  0
   11.8219  -14.2899   27.6852 S   0  0  0  0  0  0  0  0  0  0  0  0
   12.2325  -14.6052   25.9801 C   0  0  0  0  0  0  0  0  0  0  0  0
   11.2977  -15.5669   25.3226 C   0  0  0  0  0  0  0  0  0  0  0  0
   11.6665  -15.9109   23.9163 C   0  0  2  0  0  0  0  0  0  0  0  0
   10.4922  -15.9698   23.0534 N   0  0  0  0  0  0  0  0  0  0  0  0
   12.3393  -17.2063   23.8666 C   0  0  0  0  0  0  0  0  0  0  0  0
   13.1617  -17.5434   22.9793 O   0  0  0  0  0  0  0  0  0  0  0  0
   12.0999  -18.1904   24.8426 O   0  0  0  0  0  0  0  0  0  0  0  0
  2  1  1  1
  3  4  1  0
  3  2  1  0
  4  9  2  0
  4  5  1  0
  5  6  2  0
  6  7  1  0
  8  7  2  0
  9  8  1  0
 10 12  1  0
 10  2  1  0
 11 10  2  0
 13 12  1  0
 13 14  1  1
 14 15  1  0
 15 16  1  0
 16 17  1  0
 17 18  1  0
 19 13  1  0
 20 19  2  0
 21 22  1  0
 23 24  1  0
 23 22  1  0
 25 24  1  1
 25 27  1  0
 25 26  1  0
 26 19  1  0
 27 29  1  0
 28 27  2  0
M  END
$$$$
