FKM.pdb
     RDKit          3D

 29 29  0  0  1  0  0  0  0  0999 V2000
    6.3303  -17.3221   25.6752 N   0  0  0  0  0  0  0  0  0  0  0  0
    6.3492  -16.8597   24.2933 C   0  0  1  0  0  0  0  0  0  0  0  0
    5.6570  -15.5165   24.1713 C   0  0  0  0  0  0  0  0  0  0  0  0
    6.3034  -14.4886   25.0204 C   0  0  0  0  0  0  0  0  0  0  0  0
    5.8577  -13.1848   25.0388 C   0  0  0  0  0  0  0  0  0  0  0  0
    6.5078  -12.2636   25.8579 C   0  0  0  0  0  0  0  0  0  0  0  0
    7.5695  -12.6188   26.6383 C   0  0  0  0  0  0  0  0  0  0  0  0
    8.0209  -13.9214   26.6249 C   0  0  0  0  0  0  0  0  0  0  0  0
    7.3713  -14.8503   25.8038 C   0  0  0  0  0  0  0  0  0  0  0  0
    7.7667  -16.6642   23.9255 C   0  0  0  0  0  0  0  0  0  0  0  0
    8.7246  -17.2770   24.4703 O   0  0  0  0  0  0  0  0  0  0  0  0
    8.0838  -15.7301   22.8951 N   0  0  0  0  0  0  0  0  0  0  0  0
    9.3920  -15.6684   22.2793 C   0  0  1  0  0  0  0  0  0  0  0  0
    9.3693  -14.5392   21.2893 C   0  0  0  0  0  0  0  0  0  0  0  0
    8.5384  -14.8348   20.0641 C   0  0  0  0  0  0  0  0  0  0  0  0
    8.5747  -13.7012   19.0677 C   0  0  0  0  0  0  0  0  0  0  0  0
    7.6740  -14.0705   17.9079 C   0  0  0  0  0  0  0  0  0  0  0  0
    7.5854  -12.9593   16.9916 N   0  0  0  0  0  0  0  0  0  0  0  0
   10.4722  -15.5584   23.2873 C   0  0  0  0  0  0  0  0  0  0  0  0
   11.0309  -14.4497   23.4973 O   0  0  0  0  0  0  0  0  0  0  0  0
    9.6265  -14.1374   28.4335 C   0  0  0  0  0  0  0  0  0  0  0  0
   11.3294  -14.6334   28.8033 S   0  0  0  0  0  0  0  0  0  0  0  0
   12.0295  -15.6908   27.5515 C   0  0  0  0  0  0  0  0  0  0  0  0
   11.2192  -15.7265   26.2973 C   0  0  0  0  0  0  0  0  0  0  0  0
   11.8371  -16.5231   25.1947 C   0  0  2  0  0  0  0  0  0  0  0  0
   10.9345  -16.6527   24.0564 N   0  0  0  0  0  0  0  0  0  0  0  0
   12.1819  -17.8628   25.6632 C   0  0  0  0  0  0  0  0  0  0  0  0
   13.1869  -18.1296   26.3675 O   0  0  0  0  0  0  0  0  0  0  0  0
   11.3827  -18.9753   25.3440 O   0  0  0  0  0  0  0  0  0  0  0  0
  2  1  1  1
  3  4  1  0
  3  2  1  0
  4  9  2  0
  4  5  1  0
  5  6  2  0
  6  7  1  0
  8  7  2  0
  9  8  1  0
 10 12  1  0
 10  2  1  0
 11 10  2  0
 13 12  1  0
 13 14  1  6
 14 15  1  0
 15 16  1  0
 16 17  1  0
 17 18  1  0
 19 13  1  0
 20 19  2  0
 21 22  1  0
 23 24  1  0
 23 22  1  0
 25 24  1  1
 25 27  1  0
 25 26  1  0
 26 19  1  0
 27 29  1  0
 28 27  2  0
M  END
$$$$
