FKM.pdb
     RDKit          3D

 29 29  0  0  1  0  0  0  0  0999 V2000
    5.5808  -16.9252   24.7243 N   0  0  0  0  0  0  0  0  0  0  0  0
    6.4805  -15.7937   24.5402 C   0  0  1  0  0  0  0  0  0  0  0  0
    7.1133  -15.3960   25.8591 C   0  0  0  0  0  0  0  0  0  0  0  0
    6.8333  -13.9804   26.1957 C   0  0  0  0  0  0  0  0  0  0  0  0
    5.9159  -13.2385   25.4839 C   0  0  0  0  0  0  0  0  0  0  0  0
    5.6969  -11.9112   25.8484 C   0  0  0  0  0  0  0  0  0  0  0  0
    6.3650  -11.3311   26.8873 C   0  0  0  0  0  0  0  0  0  0  0  0
    7.2843  -12.0674   27.6038 C   0  0  0  0  0  0  0  0  0  0  0  0
    7.5078  -13.4007   27.2416 C   0  0  0  0  0  0  0  0  0  0  0  0
    7.5651  -16.2488   23.6462 C   0  0  0  0  0  0  0  0  0  0  0  0
    8.1136  -17.3811   23.7274 O   0  0  0  0  0  0  0  0  0  0  0  0
    8.0281  -15.3647   22.6269 N   0  0  0  0  0  0  0  0  0  0  0  0
    9.3263  -15.5104   22.0040 C   0  0  1  0  0  0  0  0  0  0  0  0
    9.3772  -14.5577   20.8442 C   0  0  0  0  0  0  0  0  0  0  0  0
    8.4684  -14.9528   19.7054 C   0  0  0  0  0  0  0  0  0  0  0  0
    8.5830  -14.0068   18.5345 C   0  0  0  0  0  0  0  0  0  0  0  0
    7.6476  -14.4939   17.4479 C   0  0  0  0  0  0  0  0  0  0  0  0
    7.7049  -13.5941   16.3214 N   0  0  0  0  0  0  0  0  0  0  0  0
   10.4290  -15.3283   22.9766 C   0  0  0  0  0  0  0  0  0  0  0  0
   10.6447  -14.1961   23.4836 O   0  0  0  0  0  0  0  0  0  0  0  0
   10.6593  -13.5399   28.1946 C   0  0  0  0  0  0  0  0  0  0  0  0
   11.1779  -15.2594   28.4326 S   0  0  0  0  0  0  0  0  0  0  0  0
   12.1125  -15.8973   27.0560 C   0  0  0  0  0  0  0  0  0  0  0  0
   11.3117  -15.9877   25.7984 C   0  0  0  0  0  0  0  0  0  0  0  0
   12.1166  -16.3251   24.5859 C   0  0  2  0  0  0  0  0  0  0  0  0
   11.2857  -16.3767   23.3884 N   0  0  0  0  0  0  0  0  0  0  0  0
   12.7685  -17.6218   24.7497 C   0  0  0  0  0  0  0  0  0  0  0  0
   12.2619  -18.7177   24.4036 O   0  0  0  0  0  0  0  0  0  0  0  0
   14.0476  -17.7275   25.3249 O   0  0  0  0  0  0  0  0  0  0  0  0
  2  1  1  1
  3  4  1  0
  3  2  1  0
  4  9  2  0
  4  5  1  0
  5  6  2  0
  6  7  1  0
  8  7  2  0
  9  8  1  0
 10 12  1  0
 10  2  1  0
 11 10  2  0
 13 12  1  0
 13 14  1  6
 14 15  1  0
 15 16  1  0
 16 17  1  0
 17 18  1  0
 19 13  1  0
 20 19  2  0
 21 22  1  0
 23 24  1  0
 23 22  1  0
 25 24  1  1
 25 27  1  0
 25 26  1  0
 26 19  1  0
 27 29  1  0
 28 27  2  0
M  END
$$$$
