GPW.pdb
     RDKit          3D

 26 28  0  0  1  0  0  0  0  0999 V2000
    8.0601  -12.5715   18.0348 N   0  0  0  0  0  0  0  0  0  0  0  0
    8.8776  -13.7034   18.3074 C   0  0  0  0  0  0  0  0  0  0  0  0
    8.6675  -14.3560   19.6090 C   0  0  0  0  0  0  0  0  0  0  0  0
    9.3969  -13.8622   20.5537 O   0  0  0  0  0  0  0  0  0  0  0  0
    7.8193  -15.3977   19.9526 N   0  0  0  0  0  0  0  0  0  0  0  0
    6.5889  -15.8076   19.3107 C   0  0  0  0  0  0  0  0  0  0  0  0
    6.8029  -17.3408   19.2200 C   0  0  0  0  0  0  0  0  0  0  0  0
    7.9631  -17.6325   20.1998 C   0  0  0  0  0  0  0  0  0  0  0  0
    7.9067  -16.3953   21.0326 C   0  0  1  0  0  0  0  0  0  0  0  0
    8.9385  -16.1828   22.0162 C   0  0  0  0  0  0  0  0  0  0  0  0
   10.1432  -16.0125   21.6763 O   0  0  0  0  0  0  0  0  0  0  0  0
    8.7282  -16.1472   23.4220 N   0  0  0  0  0  0  0  0  0  0  0  0
    9.7770  -16.0028   24.4096 C   0  0  1  0  0  0  0  0  0  0  0  0
    9.6644  -14.8015   25.2287 C   0  0  0  0  0  0  0  0  0  0  0  0
    8.2939  -14.5113   25.6493 C   0  0  0  0  0  0  0  0  0  0  0  0
    7.2819  -15.4804   25.7431 C   0  0  0  0  0  0  0  0  0  0  0  0
    6.1281  -14.9083   26.1097 N   0  0  0  0  0  0  0  0  0  0  0  0
    6.3403  -13.5895   26.2640 C   0  0  0  0  0  0  0  0  0  0  0  0
    5.5139  -12.5720   26.6444 C   0  0  0  0  0  0  0  0  0  0  0  0
    5.9685  -11.2825   26.7603 C   0  0  0  0  0  0  0  0  0  0  0  0
    7.2990  -11.0447   26.4781 C   0  0  0  0  0  0  0  0  0  0  0  0
    8.1511  -12.0651   26.0903 C   0  0  0  0  0  0  0  0  0  0  0  0
    7.6661  -13.3311   25.9846 C   0  0  0  0  0  0  0  0  0  0  0  0
    9.9055  -17.2409   25.1679 C   0  0  0  0  0  0  0  0  0  0  0  0
   11.0856  -17.4899   25.9011 O   0  0  0  0  0  0  0  0  0  0  0  0
    9.0213  -18.1398   25.2256 O   0  0  0  0  0  0  0  0  0  0  0  0
  2  1  1  0
  3  2  1  0
  4  3  2  0
  5  3  1  0
  6  5  1  0
  7  8  1  0
  7  6  1  0
  8  9  1  0
  9  5  1  0
  9 10  1  6
 10 11  2  0
 12 10  1  0
 12 13  1  0
 13 14  1  1
 15 14  1  0
 15 16  2  0
 17 16  1  0
 18 17  1  0
 19 18  2  0
 20 19  1  0
 21 20  2  0
 21 22  1  0
 22 23  2  0
 23 18  1  0
 23 15  1  0
 24 25  1  0
 24 13  1  0
 26 24  2  0
M  END
$$$$
