GPW.pdb
     RDKit          3D

 26 28  0  0  1  0  0  0  0  0999 V2000
    8.9777  -18.9546   19.6023 N   0  0  0  0  0  0  0  0  0  0  0  0
    8.2023  -18.4994   20.7048 C   0  0  0  0  0  0  0  0  0  0  0  0
    8.6542  -17.2542   21.3444 C   0  0  0  0  0  0  0  0  0  0  0  0
    9.5014  -17.4469   22.3002 O   0  0  0  0  0  0  0  0  0  0  0  0
    8.3069  -15.9398   21.0714 N   0  0  0  0  0  0  0  0  0  0  0  0
    7.7282  -15.3925   19.8634 C   0  0  0  0  0  0  0  0  0  0  0  0
    6.5928  -14.5166   20.4536 C   0  0  0  0  0  0  0  0  0  0  0  0
    6.9481  -14.3730   21.9517 C   0  0  0  0  0  0  0  0  0  0  0  0
    8.3971  -14.7269   21.9021 C   0  0  1  0  0  0  0  0  0  0  0  0
    9.1147  -14.8562   23.1453 C   0  0  0  0  0  0  0  0  0  0  0  0
    9.5833  -13.8450   23.7401 O   0  0  0  0  0  0  0  0  0  0  0  0
    9.3706  -16.0849   23.8136 N   0  0  0  0  0  0  0  0  0  0  0  0
   10.0418  -16.2051   25.0908 C   0  0  1  0  0  0  0  0  0  0  0  0
    9.1418  -16.3927   26.2229 C   0  0  0  0  0  0  0  0  0  0  0  0
    7.9504  -15.5462   26.1645 C   0  0  0  0  0  0  0  0  0  0  0  0
    6.6710  -16.0172   25.8276 C   0  0  0  0  0  0  0  0  0  0  0  0
    5.7952  -15.0044   25.8154 N   0  0  0  0  0  0  0  0  0  0  0  0
    6.4508  -13.8746   26.1346 C   0  0  0  0  0  0  0  0  0  0  0  0
    6.0265  -12.5858   26.2829 C   0  0  0  0  0  0  0  0  0  0  0  0
    6.8892  -11.5830   26.6477 C   0  0  0  0  0  0  0  0  0  0  0  0
    8.2105  -11.9214   26.8623 C   0  0  0  0  0  0  0  0  0  0  0  0
    8.6580  -13.2237   26.7158 C   0  0  0  0  0  0  0  0  0  0  0  0
    7.7754  -14.1921   26.3518 C   0  0  0  0  0  0  0  0  0  0  0  0
   11.1028  -17.1996   24.9915 C   0  0  0  0  0  0  0  0  0  0  0  0
   12.0185  -17.3504   26.0550 O   0  0  0  0  0  0  0  0  0  0  0  0
   11.2783  -17.9622   24.0013 O   0  0  0  0  0  0  0  0  0  0  0  0
  2  1  1  0
  3  2  1  0
  4  3  2  0
  5  3  1  0
  6  5  1  0
  7  8  1  0
  7  6  1  0
  8  9  1  0
  9  5  1  0
  9 10  1  1
 10 11  2  0
 12 10  1  0
 12 13  1  0
 13 14  1  1
 15 14  1  0
 15 16  2  0
 17 16  1  0
 18 17  1  0
 19 18  2  0
 20 19  1  0
 21 20  2  0
 21 22  1  0
 22 23  2  0
 23 18  1  0
 23 15  1  0
 24 25  1  0
 24 13  1  0
 26 24  2  0
M  END
$$$$
