GPW.pdb
     RDKit          3D

 26 28  0  0  1  0  0  0  0  0999 V2000
    8.0338  -12.2993   18.4433 N   0  0  0  0  0  0  0  0  0  0  0  0
    8.7475  -13.5169   18.6222 C   0  0  0  0  0  0  0  0  0  0  0  0
    8.5499  -14.2006   19.9096 C   0  0  0  0  0  0  0  0  0  0  0  0
    9.2842  -13.7258   20.8603 O   0  0  0  0  0  0  0  0  0  0  0  0
    7.7087  -15.2538   20.2350 N   0  0  0  0  0  0  0  0  0  0  0  0
    6.4717  -15.6498   19.5972 C   0  0  0  0  0  0  0  0  0  0  0  0
    6.6887  -17.1793   19.4621 C   0  0  0  0  0  0  0  0  0  0  0  0
    7.8616  -17.4940   20.4194 C   0  0  0  0  0  0  0  0  0  0  0  0
    7.8121  -16.2802   21.2863 C   0  0  1  0  0  0  0  0  0  0  0  0
    8.8552  -16.0914   22.2627 C   0  0  0  0  0  0  0  0  0  0  0  0
   10.0409  -15.8306   21.9133 O   0  0  0  0  0  0  0  0  0  0  0  0
    8.6778  -16.1786   23.6708 N   0  0  0  0  0  0  0  0  0  0  0  0
    9.7410  -16.0537   24.6455 C   0  0  1  0  0  0  0  0  0  0  0  0
    9.5691  -14.9454   25.5778 C   0  0  0  0  0  0  0  0  0  0  0  0
    8.1687  -14.5926   25.8091 C   0  0  0  0  0  0  0  0  0  0  0  0
    7.1111  -15.5155   25.7646 C   0  0  0  0  0  0  0  0  0  0  0  0
    5.9449  -14.8909   25.9719 N   0  0  0  0  0  0  0  0  0  0  0  0
    6.1929  -13.5819   26.1541 C   0  0  0  0  0  0  0  0  0  0  0  0
    5.3688  -12.5268   26.4197 C   0  0  0  0  0  0  0  0  0  0  0  0
    5.8606  -11.2580   26.5967 C   0  0  0  0  0  0  0  0  0  0  0  0
    7.2263  -11.0808   26.4973 C   0  0  0  0  0  0  0  0  0  0  0  0
    8.0767  -12.1401   26.2279 C   0  0  0  0  0  0  0  0  0  0  0  0
    7.5545  -13.3840   26.0569 C   0  0  0  0  0  0  0  0  0  0  0  0
    9.9746  -17.3452   25.2794 C   0  0  0  0  0  0  0  0  0  0  0  0
   11.1648  -17.5593   26.0072 O   0  0  0  0  0  0  0  0  0  0  0  0
    9.1762  -18.3215   25.2299 O   0  0  0  0  0  0  0  0  0  0  0  0
  2  1  1  0
  3  2  1  0
  4  3  2  0
  5  3  1  0
  6  5  1  0
  7  8  1  0
  7  6  1  0
  8  9  1  0
  9  5  1  0
  9 10  1  6
 10 11  2  0
 12 10  1  0
 12 13  1  0
 13 14  1  1
 15 14  1  0
 15 16  2  0
 17 16  1  0
 18 17  1  0
 19 18  2  0
 20 19  1  0
 21 20  2  0
 21 22  1  0
 22 23  2  0
 23 18  1  0
 23 15  1  0
 24 25  1  0
 24 13  1  0
 26 24  2  0
M  END
$$$$
