GPW.pdb
     RDKit          3D

 26 28  0  0  1  0  0  0  0  0999 V2000
    9.8915  -18.0696   18.1275 N   0  0  0  0  0  0  0  0  0  0  0  0
    8.8532  -17.8324   19.0707 C   0  0  0  0  0  0  0  0  0  0  0  0
    9.1484  -16.8509   20.1260 C   0  0  0  0  0  0  0  0  0  0  0  0
    9.9997  -17.2769   20.9989 O   0  0  0  0  0  0  0  0  0  0  0  0
    8.6536  -15.5684   20.3083 N   0  0  0  0  0  0  0  0  0  0  0  0
    7.9917  -14.7124   19.3477 C   0  0  0  0  0  0  0  0  0  0  0  0
    6.7809  -14.2184   20.1812 C   0  0  0  0  0  0  0  0  0  0  0  0
    7.1520  -14.5514   21.6450 C   0  0  0  0  0  0  0  0  0  0  0  0
    8.6295  -14.7056   21.5017 C   0  0  1  0  0  0  0  0  0  0  0  0
    9.3845  -15.1675   22.6391 C   0  0  0  0  0  0  0  0  0  0  0  0
   10.4975  -14.6515   22.9406 O   0  0  0  0  0  0  0  0  0  0  0  0
    8.9826  -16.2157   23.5119 N   0  0  0  0  0  0  0  0  0  0  0  0
    9.6342  -16.5433   24.7625 C   0  0  1  0  0  0  0  0  0  0  0  0
    9.5335  -15.5023   25.7789 C   0  0  0  0  0  0  0  0  0  0  0  0
    8.1832  -14.9587   25.9220 C   0  0  0  0  0  0  0  0  0  0  0  0
    7.0126  -15.7188   25.7667 C   0  0  0  0  0  0  0  0  0  0  0  0
    5.9337  -14.9394   25.9130 N   0  0  0  0  0  0  0  0  0  0  0  0
    6.3490  -13.6849   26.1620 C   0  0  0  0  0  0  0  0  0  0  0  0
    5.6640  -12.5301   26.4072 C   0  0  0  0  0  0  0  0  0  0  0  0
    6.3147  -11.3502   26.6669 C   0  0  0  0  0  0  0  0  0  0  0  0
    7.6953  -11.3681   26.6728 C   0  0  0  0  0  0  0  0  0  0  0  0
    8.4060  -12.5306   26.4254 C   0  0  0  0  0  0  0  0  0  0  0  0
    7.7284  -13.6817   26.1705 C   0  0  0  0  0  0  0  0  0  0  0  0
    9.2026  -17.8632   25.2053 C   0  0  0  0  0  0  0  0  0  0  0  0
    8.1369  -18.5073   24.5407 O   0  0  0  0  0  0  0  0  0  0  0  0
    9.7180  -18.4999   26.1655 O   0  0  0  0  0  0  0  0  0  0  0  0
  2  1  1  0
  3  2  1  0
  4  3  2  0
  5  3  1  0
  6  5  1  0
  7  8  1  0
  7  6  1  0
  8  9  1  0
  9  5  1  0
  9 10  1  1
 10 11  2  0
 12 10  1  0
 12 13  1  0
 13 14  1  1
 15 14  1  0
 15 16  2  0
 17 16  1  0
 18 17  1  0
 19 18  2  0
 20 19  1  0
 21 20  2  0
 21 22  1  0
 22 23  2  0
 23 18  1  0
 23 15  1  0
 24 25  1  0
 24 13  1  0
 26 24  2  0
M  END
$$$$
