GPW.pdb
     RDKit          3D

 26 28  0  0  1  0  0  0  0  0999 V2000
   10.4597  -17.9784   18.0694 N   0  0  0  0  0  0  0  0  0  0  0  0
    9.3466  -17.8510   18.9461 C   0  0  0  0  0  0  0  0  0  0  0  0
    9.4680  -16.8362   20.0041 C   0  0  0  0  0  0  0  0  0  0  0  0
   10.4986  -17.0080   20.7635 O   0  0  0  0  0  0  0  0  0  0  0  0
    8.6531  -15.7516   20.2909 N   0  0  0  0  0  0  0  0  0  0  0  0
    7.7611  -15.0349   19.4051 C   0  0  0  0  0  0  0  0  0  0  0  0
    6.4848  -14.9493   20.2816 C   0  0  0  0  0  0  0  0  0  0  0  0
    6.9698  -15.2800   21.7122 C   0  0  0  0  0  0  0  0  0  0  0  0
    8.4304  -15.0198   21.5495 C   0  0  1  0  0  0  0  0  0  0  0  0
    9.3112  -15.3464   22.6425 C   0  0  0  0  0  0  0  0  0  0  0  0
   10.5291  -15.0112   22.6257 O   0  0  0  0  0  0  0  0  0  0  0  0
    8.9277  -16.0574   23.8127 N   0  0  0  0  0  0  0  0  0  0  0  0
    9.7799  -16.2737   24.9630 C   0  0  1  0  0  0  0  0  0  0  0  0
    9.5600  -15.3318   26.0544 C   0  0  0  0  0  0  0  0  0  0  0  0
    8.1771  -14.8651   26.1494 C   0  0  0  0  0  0  0  0  0  0  0  0
    7.0573  -15.6887   25.9495 C   0  0  0  0  0  0  0  0  0  0  0  0
    5.9319  -14.9713   26.0583 N   0  0  0  0  0  0  0  0  0  0  0  0
    6.2671  -13.6968   26.3254 C   0  0  0  0  0  0  0  0  0  0  0  0
    5.5100  -12.5831   26.5483 C   0  0  0  0  0  0  0  0  0  0  0  0
    6.0838  -11.3700   26.8346 C   0  0  0  0  0  0  0  0  0  0  0  0
    7.4621  -11.3108   26.8909 C   0  0  0  0  0  0  0  0  0  0  0  0
    8.2453  -12.4307   26.6667 C   0  0  0  0  0  0  0  0  0  0  0  0
    7.6428  -13.6166   26.3843 C   0  0  0  0  0  0  0  0  0  0  0  0
    9.7219  -17.6764   25.3550 C   0  0  0  0  0  0  0  0  0  0  0  0
   10.7514  -18.2203   26.1528 O   0  0  0  0  0  0  0  0  0  0  0  0
    8.7983  -18.4727   25.0296 O   0  0  0  0  0  0  0  0  0  0  0  0
  2  1  1  0
  3  2  1  0
  4  3  2  0
  5  3  1  0
  6  5  1  0
  7  8  1  0
  7  6  1  0
  8  9  1  0
  9  5  1  0
  9 10  1  1
 10 11  2  0
 12 10  1  0
 12 13  1  0
 13 14  1  1
 15 14  1  0
 15 16  2  0
 17 16  1  0
 18 17  1  0
 19 18  2  0
 20 19  1  0
 21 20  2  0
 21 22  1  0
 22 23  2  0
 23 18  1  0
 23 15  1  0
 24 25  1  0
 24 13  1  0
 26 24  2  0
M  END
$$$$
