GPW.pdb
     RDKit          3D

 26 28  0  0  1  0  0  0  0  0999 V2000
    7.5986  -12.5362   18.3248 N   0  0  0  0  0  0  0  0  0  0  0  0
    8.6590  -13.4371   18.6211 C   0  0  0  0  0  0  0  0  0  0  0  0
    8.5145  -14.2244   19.8552 C   0  0  0  0  0  0  0  0  0  0  0  0
    9.0805  -13.6794   20.8804 O   0  0  0  0  0  0  0  0  0  0  0  0
    7.8732  -15.4358   20.0649 N   0  0  0  0  0  0  0  0  0  0  0  0
    6.7584  -16.0035   19.3376 C   0  0  0  0  0  0  0  0  0  0  0  0
    7.2631  -17.4524   19.1127 C   0  0  0  0  0  0  0  0  0  0  0  0
    8.4353  -17.6172   20.1077 C   0  0  0  0  0  0  0  0  0  0  0  0
    8.1250  -16.5017   21.0495 C   0  0  1  0  0  0  0  0  0  0  0  0
    9.0749  -16.1984   22.0902 C   0  0  0  0  0  0  0  0  0  0  0  0
   10.2248  -15.7514   21.8183 O   0  0  0  0  0  0  0  0  0  0  0  0
    8.8383  -16.3651   23.4824 N   0  0  0  0  0  0  0  0  0  0  0  0
    9.7981  -16.0654   24.5240 C   0  0  1  0  0  0  0  0  0  0  0  0
    9.6510  -14.7367   25.1070 C   0  0  0  0  0  0  0  0  0  0  0  0
    8.2732  -14.4139   25.4769 C   0  0  0  0  0  0  0  0  0  0  0  0
    7.2111  -15.3307   25.4172 C   0  0  0  0  0  0  0  0  0  0  0  0
    6.0665  -14.7343   25.7736 N   0  0  0  0  0  0  0  0  0  0  0  0
    6.3332  -13.4501   26.0697 C   0  0  0  0  0  0  0  0  0  0  0  0
    5.5359  -12.4302   26.5024 C   0  0  0  0  0  0  0  0  0  0  0  0
    6.0451  -11.1846   26.7710 C   0  0  0  0  0  0  0  0  0  0  0  0
    7.4004  -10.9939   26.5887 C   0  0  0  0  0  0  0  0  0  0  0  0
    8.2236  -12.0174   26.1498 C   0  0  0  0  0  0  0  0  0  0  0  0
    7.6846  -13.2389   25.8920 C   0  0  0  0  0  0  0  0  0  0  0  0
    9.8181  -17.1521   25.4951 C   0  0  0  0  0  0  0  0  0  0  0  0
    8.8220  -18.1508   25.4440 O   0  0  0  0  0  0  0  0  0  0  0  0
   10.6792  -17.2793   26.4091 O   0  0  0  0  0  0  0  0  0  0  0  0
  2  1  1  0
  3  2  1  0
  4  3  2  0
  5  3  1  0
  6  5  1  0
  7  8  1  0
  7  6  1  0
  8  9  1  0
  9  5  1  0
  9 10  1  1
 10 11  2  0
 12 10  1  0
 12 13  1  0
 13 14  1  1
 15 14  1  0
 15 16  2  0
 17 16  1  0
 18 17  1  0
 19 18  2  0
 20 19  1  0
 21 20  2  0
 21 22  1  0
 22 23  2  0
 23 18  1  0
 23 15  1  0
 24 25  1  0
 24 13  1  0
 26 24  2  0
M  END
$$$$
