GPW.pdb
     RDKit          3D

 26 28  0  0  1  0  0  0  0  0999 V2000
    8.5756  -12.1788   18.5519 N   0  0  0  0  0  0  0  0  0  0  0  0
    9.1287  -13.4823   18.6884 C   0  0  0  0  0  0  0  0  0  0  0  0
    8.8192  -14.1896   19.9406 C   0  0  0  0  0  0  0  0  0  0  0  0
    9.4851  -13.7496   20.9561 O   0  0  0  0  0  0  0  0  0  0  0  0
    7.9369  -15.2333   20.1753 N   0  0  0  0  0  0  0  0  0  0  0  0
    6.7204  -15.5626   19.4643 C   0  0  0  0  0  0  0  0  0  0  0  0
    6.9035  -17.0893   19.2628 C   0  0  0  0  0  0  0  0  0  0  0  0
    8.0228  -17.4832   20.2543 C   0  0  0  0  0  0  0  0  0  0  0  0
    7.9653  -16.3120   21.1776 C   0  0  1  0  0  0  0  0  0  0  0  0
    8.9673  -16.2006   22.2076 C   0  0  0  0  0  0  0  0  0  0  0  0
   10.1876  -16.0436   21.9208 O   0  0  0  0  0  0  0  0  0  0  0  0
    8.7086  -16.2574   23.6046 N   0  0  0  0  0  0  0  0  0  0  0  0
    9.7110  -16.0945   24.6365 C   0  0  1  0  0  0  0  0  0  0  0  0
    9.6032  -14.8457   25.3818 C   0  0  0  0  0  0  0  0  0  0  0  0
    8.2325  -14.5206   25.7756 C   0  0  0  0  0  0  0  0  0  0  0  0
    7.1985  -15.4666   25.8659 C   0  0  0  0  0  0  0  0  0  0  0  0
    6.0514  -14.8651   26.2055 N   0  0  0  0  0  0  0  0  0  0  0  0
    6.2894  -13.5491   26.3452 C   0  0  0  0  0  0  0  0  0  0  0  0
    5.4789  -12.5090   26.6979 C   0  0  0  0  0  0  0  0  0  0  0  0
    5.9591  -11.2279   26.8036 C   0  0  0  0  0  0  0  0  0  0  0  0
    7.2988  -11.0224   26.5402 C   0  0  0  0  0  0  0  0  0  0  0  0
    8.1351  -12.0660   26.1806 C   0  0  0  0  0  0  0  0  0  0  0  0
    7.6248  -13.3228   26.0843 C   0  0  0  0  0  0  0  0  0  0  0  0
    9.7539  -17.2916   25.4669 C   0  0  0  0  0  0  0  0  0  0  0  0
    8.7171  -18.2445   25.3702 O   0  0  0  0  0  0  0  0  0  0  0  0
   10.6701  -17.5567   26.2935 O   0  0  0  0  0  0  0  0  0  0  0  0
  2  1  1  0
  3  2  1  0
  4  3  2  0
  5  3  1  0
  6  5  1  0
  7  8  1  0
  7  6  1  0
  8  9  1  0
  9  5  1  0
  9 10  1  1
 10 11  2  0
 12 10  1  0
 12 13  1  0
 13 14  1  1
 15 14  1  0
 15 16  2  0
 17 16  1  0
 18 17  1  0
 19 18  2  0
 20 19  1  0
 21 20  2  0
 21 22  1  0
 22 23  2  0
 23 18  1  0
 23 15  1  0
 24 25  1  0
 24 13  1  0
 26 24  2  0
M  END
$$$$
