CVW.pdb
     RDKit          3D

 28 29  0  0  1  0  0  0  0  0999 V2000
   25.6418  -15.8305  -17.6762 N   0  0  0  0  0  0  0  0  0  0  0  0
   26.3775  -16.0919  -16.4772 C   0  0  1  0  0  0  0  0  0  0  0  0
   25.8352  -15.2059  -15.3756 C   0  0  0  0  0  0  0  0  0  0  0  0
   24.1334  -15.6450  -14.9807 S   0  0  0  0  0  0  0  0  0  0  0  0
   26.2343  -17.5173  -16.0682 C   0  0  0  0  0  0  0  0  0  0  0  0
   25.2191  -18.1794  -16.3782 O   0  0  0  0  0  0  0  0  0  0  0  0
   28.4346  -20.2722  -16.8806 C   0  0  0  0  0  0  0  0  0  0  0  0
   28.4416  -20.2414  -15.3829 C   0  0  2  0  0  0  0  0  0  0  0  0
   28.4292  -21.6741  -14.8818 C   0  0  0  0  0  0  0  0  0  0  0  0
   27.1723  -19.5239  -14.9189 C   0  0  2  0  0  0  0  0  0  0  0  0
   27.2671  -18.1350  -15.3138 N   0  0  0  0  0  0  0  0  0  0  0  0
   27.1099  -19.6001  -13.4517 C   0  0  0  0  0  0  0  0  0  0  0  0
   27.6447  -18.6638  -12.7773 O   0  0  0  0  0  0  0  0  0  0  0  0
   26.5023  -20.6319  -12.7295 N   0  0  0  0  0  0  0  0  0  0  0  0
   26.3807  -20.6475  -11.2544 C   0  0  1  0  0  0  0  0  0  0  0  0
   25.2987  -19.6580  -10.9604 C   0  0  0  0  0  0  0  0  0  0  0  0
   23.9249  -20.0371  -11.2561 C   0  0  0  0  0  0  0  0  0  0  0  0
   22.9810  -20.6056  -10.3898 C   0  0  0  0  0  0  0  0  0  0  0  0
   21.8600  -20.8251  -11.0845 N   0  0  0  0  0  0  0  0  0  0  0  0
   21.9892  -20.4431  -12.3503 C   0  0  0  0  0  0  0  0  0  0  0  0
   21.0932  -20.4661  -13.4127 C   0  0  0  0  0  0  0  0  0  0  0  0
   21.5082  -19.9733  -14.6324 C   0  0  0  0  0  0  0  0  0  0  0  0
   22.7842  -19.4731  -14.7792 C   0  0  0  0  0  0  0  0  0  0  0  0
   23.6454  -19.4639  -13.7154 C   0  0  0  0  0  0  0  0  0  0  0  0
   23.2737  -19.9478  -12.4752 C   0  0  0  0  0  0  0  0  0  0  0  0
   25.9979  -22.0082  -10.8847 C   0  0  0  0  0  0  0  0  0  0  0  0
   25.7349  -22.8438  -11.7829 O   0  0  0  0  0  0  0  0  0  0  0  0
   25.8998  -22.4610   -9.5675 O   0  0  0  0  0  0  0  0  0  0  0  0
  2  5  1  0
  2  1  1  6
  3  2  1  0
  4  3  1  0
  5  6  2  0
  8  7  1  6
  8 10  1  0
  8  9  1  0
 10 11  1  1
 11  5  1  0
 12 13  2  0
 12 10  1  0
 14 12  1  0
 15 26  1  0
 15 14  1  0
 15 16  1  6
 17 16  1  0
 18 17  2  0
 19 20  1  0
 19 18  1  0
 20 25  2  0
 21 20  1  0
 21 22  2  0
 22 23  1  0
 23 24  2  0
 25 17  1  0
 25 24  1  0
 26 28  1  0
 27 26  2  0
M  END
$$$$
