CVW.pdb
     RDKit          3D

 28 29  0  0  1  0  0  0  0  0999 V2000
   27.1914  -19.0800  -16.2394 N   0  0  0  0  0  0  0  0  0  0  0  0
   27.7008  -19.1349  -14.9035 C   0  0  1  0  0  0  0  0  0  0  0  0
   28.5141  -17.8840  -14.6455 C   0  0  0  0  0  0  0  0  0  0  0  0
   30.0264  -17.8907  -15.6241 S   0  0  0  0  0  0  0  0  0  0  0  0
   26.5884  -19.2028  -13.9149 C   0  0  0  0  0  0  0  0  0  0  0  0
   25.7600  -18.2712  -13.8096 O   0  0  0  0  0  0  0  0  0  0  0  0
   24.0295  -21.2640  -14.1855 C   0  0  0  0  0  0  0  0  0  0  0  0
   24.4641  -21.6632  -12.8086 C   0  0  2  0  0  0  0  0  0  0  0  0
   23.2209  -21.8587  -11.9600 C   0  0  0  0  0  0  0  0  0  0  0  0
   25.3071  -20.5249  -12.2303 C   0  0  2  0  0  0  0  0  0  0  0  0
   26.4660  -20.3438  -13.0779 N   0  0  0  0  0  0  0  0  0  0  0  0
   25.7553  -20.9199  -10.8865 C   0  0  0  0  0  0  0  0  0  0  0  0
   26.5740  -21.8879  -10.7857 O   0  0  0  0  0  0  0  0  0  0  0  0
   25.3487  -20.3091   -9.6962 N   0  0  0  0  0  0  0  0  0  0  0  0
   25.7433  -20.7798   -8.3494 C   0  0  1  0  0  0  0  0  0  0  0  0
   26.3773  -19.5860   -7.7098 C   0  0  0  0  0  0  0  0  0  0  0  0
   27.7682  -19.6894   -7.2936 C   0  0  0  0  0  0  0  0  0  0  0  0
   28.8963  -19.9016   -8.0980 C   0  0  0  0  0  0  0  0  0  0  0  0
   29.9677  -19.9656   -7.3009 N   0  0  0  0  0  0  0  0  0  0  0  0
   29.6346  -19.8104   -6.0243 C   0  0  0  0  0  0  0  0  0  0  0  0
   30.4077  -19.7884   -4.8694 C   0  0  0  0  0  0  0  0  0  0  0  0
   29.7761  -19.5833   -3.6603 C   0  0  0  0  0  0  0  0  0  0  0  0
   28.4100  -19.4058   -3.6140 C   0  0  0  0  0  0  0  0  0  0  0  0
   27.6739  -19.4331   -4.7677 C   0  0  0  0  0  0  0  0  0  0  0  0
   28.2634  -19.6363   -6.0012 C   0  0  0  0  0  0  0  0  0  0  0  0
   24.5113  -21.1779   -7.6724 C   0  0  0  0  0  0  0  0  0  0  0  0
   23.4146  -20.6983   -8.0484 O   0  0  0  0  0  0  0  0  0  0  0  0
   24.4622  -22.0787   -6.6066 O   0  0  0  0  0  0  0  0  0  0  0  0
  2  5  1  0
  2  1  1  6
  3  2  1  0
  4  3  1  0
  5  6  2  0
  8  7  1  6
  8 10  1  0
  8  9  1  0
 10 11  1  6
 11  5  1  0
 12 13  2  0
 12 10  1  0
 14 12  1  0
 15 26  1  0
 15 14  1  0
 15 16  1  1
 17 16  1  0
 18 17  2  0
 19 20  1  0
 19 18  1  0
 20 25  2  0
 21 20  1  0
 21 22  2  0
 22 23  1  0
 23 24  2  0
 25 17  1  0
 25 24  1  0
 26 28  1  0
 27 26  2  0
M  END
$$$$
