CVW.pdb
     RDKit          3D

 28 29  0  0  1  0  0  0  0  0999 V2000
   28.1410  -21.8134  -15.8813 N   0  0  0  0  0  0  0  0  0  0  0  0
   27.4997  -20.7159  -15.2246 C   0  0  1  0  0  0  0  0  0  0  0  0
   26.9257  -19.7920  -16.2781 C   0  0  0  0  0  0  0  0  0  0  0  0
   28.2063  -18.7238  -16.9591 S   0  0  0  0  0  0  0  0  0  0  0  0
   26.3959  -21.1958  -14.3467 C   0  0  0  0  0  0  0  0  0  0  0  0
   25.6580  -22.1436  -14.6964 O   0  0  0  0  0  0  0  0  0  0  0  0
   26.6059  -21.1762  -10.3227 C   0  0  0  0  0  0  0  0  0  0  0  0
   25.3775  -20.4760  -10.8175 C   0  0  2  0  0  0  0  0  0  0  0  0
   24.2245  -20.8419   -9.9006 C   0  0  0  0  0  0  0  0  0  0  0  0
   25.0864  -20.9763  -12.2338 C   0  0  2  0  0  0  0  0  0  0  0  0
   26.1774  -20.5671  -13.0920 N   0  0  0  0  0  0  0  0  0  0  0  0
   23.8461  -20.3396  -12.7017 C   0  0  0  0  0  0  0  0  0  0  0  0
   23.7926  -19.0692  -12.7223 O   0  0  0  0  0  0  0  0  0  0  0  0
   22.7068  -21.0274  -13.1312 N   0  0  0  0  0  0  0  0  0  0  0  0
   21.4755  -20.3645  -13.6165 C   0  0  1  0  0  0  0  0  0  0  0  0
   21.7122  -20.1670  -15.0798 C   0  0  0  0  0  0  0  0  0  0  0  0
   20.6539  -19.5532  -15.8683 C   0  0  0  0  0  0  0  0  0  0  0  0
   19.9312  -18.3865  -15.5832 C   0  0  0  0  0  0  0  0  0  0  0  0
   19.0316  -18.2081  -16.5560 N   0  0  0  0  0  0  0  0  0  0  0  0
   19.1038  -19.1710  -17.4684 C   0  0  0  0  0  0  0  0  0  0  0  0
   18.3881  -19.3805  -18.6413 C   0  0  0  0  0  0  0  0  0  0  0  0
   18.7034  -20.4775  -19.4158 C   0  0  0  0  0  0  0  0  0  0  0  0
   19.7070  -21.3369  -19.0232 C   0  0  0  0  0  0  0  0  0  0  0  0
   20.3947  -21.1059  -17.8625 C   0  0  0  0  0  0  0  0  0  0  0  0
   20.1129  -20.0204  -17.0545 C   0  0  0  0  0  0  0  0  0  0  0  0
   20.3763  -21.2913  -13.3567 C   0  0  0  0  0  0  0  0  0  0  0  0
   20.6040  -22.5239  -13.3043 O   0  0  0  0  0  0  0  0  0  0  0  0
   19.0523  -20.8955  -13.1565 O   0  0  0  0  0  0  0  0  0  0  0  0
  2  5  1  0
  2  1  1  6
  3  2  1  0
  4  3  1  0
  5  6  2  0
  8  7  1  1
  8 10  1  0
  8  9  1  0
 10 11  1  6
 11  5  1  0
 12 13  2  0
 12 10  1  0
 14 12  1  0
 15 26  1  0
 15 14  1  0
 15 16  1  6
 17 16  1  0
 18 17  2  0
 19 20  1  0
 19 18  1  0
 20 25  2  0
 21 20  1  0
 21 22  2  0
 22 23  1  0
 23 24  2  0
 25 17  1  0
 25 24  1  0
 26 28  1  0
 27 26  2  0
M  END
$$$$
