CVW.pdb
     RDKit          3D

 28 29  0  0  1  0  0  0  0  0999 V2000
   27.7048  -23.1698  -17.7813 N   0  0  0  0  0  0  0  0  0  0  0  0
   26.7632  -23.0656  -16.7090 C   0  0  1  0  0  0  0  0  0  0  0  0
   26.5221  -24.4490  -16.1426 C   0  0  0  0  0  0  0  0  0  0  0  0
   25.4016  -24.3775  -14.7340 S   0  0  0  0  0  0  0  0  0  0  0  0
   27.2865  -22.1834  -15.6286 C   0  0  0  0  0  0  0  0  0  0  0  0
   28.4936  -22.2100  -15.3007 O   0  0  0  0  0  0  0  0  0  0  0  0
   27.1974  -18.6115  -15.7257 C   0  0  0  0  0  0  0  0  0  0  0  0
   26.4578  -18.9368  -14.4643 C   0  0  2  0  0  0  0  0  0  0  0  0
   26.8412  -17.9096  -13.4146 C   0  0  0  0  0  0  0  0  0  0  0  0
   26.8961  -20.3289  -14.0050 C   0  0  2  0  0  0  0  0  0  0  0  0
   26.4007  -21.2975  -14.9593 N   0  0  0  0  0  0  0  0  0  0  0  0
   26.2857  -20.5951  -12.6938 C   0  0  0  0  0  0  0  0  0  0  0  0
   25.0515  -20.8994  -12.6553 O   0  0  0  0  0  0  0  0  0  0  0  0
   26.9617  -20.5399  -11.4710 N   0  0  0  0  0  0  0  0  0  0  0  0
   26.3534  -20.9101  -10.1733 C   0  0  1  0  0  0  0  0  0  0  0  0
   27.4321  -20.6516   -9.1704 C   0  0  0  0  0  0  0  0  0  0  0  0
   27.0905  -20.7407   -7.7584 C   0  0  0  0  0  0  0  0  0  0  0  0
   25.9405  -21.2975   -7.1821 C   0  0  0  0  0  0  0  0  0  0  0  0
   26.0194  -21.1334   -5.8577 N   0  0  0  0  0  0  0  0  0  0  0  0
   27.1392  -20.5084   -5.5105 C   0  0  0  0  0  0  0  0  0  0  0  0
   27.6411  -20.1464   -4.2659 C   0  0  0  0  0  0  0  0  0  0  0  0
   28.8656  -19.5137   -4.2104 C   0  0  0  0  0  0  0  0  0  0  0  0
   29.5634  -19.2532   -5.3702 C   0  0  0  0  0  0  0  0  0  0  0  0
   29.0440  -19.6205   -6.5821 C   0  0  0  0  0  0  0  0  0  0  0  0
   27.8209  -20.2557   -6.6862 C   0  0  0  0  0  0  0  0  0  0  0  0
   25.2051  -20.0261   -9.9870 C   0  0  0  0  0  0  0  0  0  0  0  0
   25.2839  -18.8247  -10.3400 O   0  0  0  0  0  0  0  0  0  0  0  0
   23.9908  -20.4307   -9.4289 O   0  0  0  0  0  0  0  0  0  0  0  0
  2  5  1  0
  2  1  1  6
  3  2  1  0
  4  3  1  0
  5  6  2  0
  8  7  1  6
  8 10  1  0
  8  9  1  0
 10 11  1  6
 11  5  1  0
 12 13  2  0
 12 10  1  0
 14 12  1  0
 15 26  1  0
 15 14  1  0
 15 16  1  1
 17 16  1  0
 18 17  2  0
 19 20  1  0
 19 18  1  0
 20 25  2  0
 21 20  1  0
 21 22  2  0
 22 23  1  0
 23 24  2  0
 25 17  1  0
 25 24  1  0
 26 28  1  0
 27 26  2  0
M  END
$$$$
