CVW.pdb
     RDKit          3D

 28 29  0  0  1  0  0  0  0  0999 V2000
   24.8834  -15.2204  -16.4748 N   0  0  0  0  0  0  0  0  0  0  0  0
   25.3015  -15.4400  -15.1243 C   0  0  1  0  0  0  0  0  0  0  0  0
   24.3948  -14.6501  -14.2041 C   0  0  0  0  0  0  0  0  0  0  0  0
   24.8549  -12.9086  -14.1924 S   0  0  0  0  0  0  0  0  0  0  0  0
   25.2125  -16.8844  -14.7705 C   0  0  0  0  0  0  0  0  0  0  0  0
   24.1533  -17.5276  -14.9429 O   0  0  0  0  0  0  0  0  0  0  0  0
   28.7380  -18.9517  -14.5851 C   0  0  0  0  0  0  0  0  0  0  0  0
   27.4250  -19.5837  -14.9324 C   0  0  2  0  0  0  0  0  0  0  0  0
   27.1127  -19.2564  -16.3814 C   0  0  0  0  0  0  0  0  0  0  0  0
   26.3530  -18.9753  -14.0259 C   0  0  2  0  0  0  0  0  0  0  0  0
   26.3485  -17.5425  -14.2285 N   0  0  0  0  0  0  0  0  0  0  0  0
   26.7153  -19.2590  -12.6291 C   0  0  0  0  0  0  0  0  0  0  0  0
   27.4364  -18.4133  -12.0110 O   0  0  0  0  0  0  0  0  0  0  0  0
   26.3257  -20.3978  -11.9173 N   0  0  0  0  0  0  0  0  0  0  0  0
   26.8989  -20.7916  -10.6106 C   0  0  1  0  0  0  0  0  0  0  0  0
   26.2376  -19.8813   -9.6256 C   0  0  0  0  0  0  0  0  0  0  0  0
   26.3203  -20.2238   -8.2134 C   0  0  0  0  0  0  0  0  0  0  0  0
   25.5455  -21.1515   -7.5036 C   0  0  0  0  0  0  0  0  0  0  0  0
   25.9320  -21.1216   -6.2241 N   0  0  0  0  0  0  0  0  0  0  0  0
   26.9084  -20.2417   -6.0310 C   0  0  0  0  0  0  0  0  0  0  0  0
   27.6169  -19.8920   -4.8874 C   0  0  0  0  0  0  0  0  0  0  0  0
   28.6107  -18.9416   -4.9957 C   0  0  0  0  0  0  0  0  0  0  0  0
   28.8836  -18.3610   -6.2157 C   0  0  0  0  0  0  0  0  0  0  0  0
   28.1690  -18.7246   -7.3251 C   0  0  0  0  0  0  0  0  0  0  0  0
   27.1640  -19.6714   -7.2641 C   0  0  0  0  0  0  0  0  0  0  0  0
   26.5308  -22.1899  -10.4014 C   0  0  0  0  0  0  0  0  0  0  0  0
   27.1688  -22.8814   -9.5715 O   0  0  0  0  0  0  0  0  0  0  0  0
   25.4912  -22.8329  -11.0764 O   0  0  0  0  0  0  0  0  0  0  0  0
  2  5  1  0
  2  1  1  6
  3  2  1  0
  4  3  1  0
  5  6  2  0
  8  7  1  1
  8 10  1  0
  8  9  1  0
 10 11  1  1
 11  5  1  0
 12 13  2  0
 12 10  1  0
 14 12  1  0
 15 26  1  0
 15 14  1  0
 15 16  1  1
 17 16  1  0
 18 17  2  0
 19 20  1  0
 19 18  1  0
 20 25  2  0
 21 20  1  0
 21 22  2  0
 22 23  1  0
 23 24  2  0
 25 17  1  0
 25 24  1  0
 26 28  1  0
 27 26  2  0
M  END
$$$$
