CVW.pdb
     RDKit          3D

 28 29  0  0  1  0  0  0  0  0999 V2000
   26.2213  -18.1873  -16.5881 N   0  0  0  0  0  0  0  0  0  0  0  0
   26.7719  -18.0241  -15.2777 C   0  0  1  0  0  0  0  0  0  0  0  0
   26.8434  -16.5442  -14.9653 C   0  0  0  0  0  0  0  0  0  0  0  0
   27.5617  -16.2679  -13.3366 S   0  0  0  0  0  0  0  0  0  0  0  0
   25.9182  -18.6946  -14.2573 C   0  0  0  0  0  0  0  0  0  0  0  0
   24.7780  -18.2594  -13.9820 O   0  0  0  0  0  0  0  0  0  0  0  0
   24.9695  -22.0553  -14.5597 C   0  0  0  0  0  0  0  0  0  0  0  0
   25.5137  -22.0483  -13.1640 C   0  0  2  0  0  0  0  0  0  0  0  0
   24.5680  -22.8466  -12.2852 C   0  0  0  0  0  0  0  0  0  0  0  0
   25.5606  -20.5969  -12.6822 C   0  0  2  0  0  0  0  0  0  0  0  0
   26.4065  -19.8469  -13.5857 N   0  0  0  0  0  0  0  0  0  0  0  0
   26.1596  -20.5761  -11.3393 C   0  0  0  0  0  0  0  0  0  0  0  0
   27.4102  -20.7822  -11.2350 O   0  0  0  0  0  0  0  0  0  0  0  0
   25.4559  -20.3449  -10.1533 N   0  0  0  0  0  0  0  0  0  0  0  0
   25.9039  -20.8126   -8.8222 C   0  0  1  0  0  0  0  0  0  0  0  0
   25.6930  -19.6354   -7.9246 C   0  0  0  0  0  0  0  0  0  0  0  0
   26.8648  -19.0047   -7.3351 C   0  0  0  0  0  0  0  0  0  0  0  0
   27.5874  -17.9048   -7.8173 C   0  0  0  0  0  0  0  0  0  0  0  0
   28.6095  -17.6830   -6.9845 N   0  0  0  0  0  0  0  0  0  0  0  0
   28.6191  -18.5551   -5.9825 C   0  0  0  0  0  0  0  0  0  0  0  0
   29.4703  -18.6924   -4.8923 C   0  0  0  0  0  0  0  0  0  0  0  0
   29.2164  -19.6986   -3.9835 C   0  0  0  0  0  0  0  0  0  0  0  0
   28.1402  -20.5405   -4.1654 C   0  0  0  0  0  0  0  0  0  0  0  0
   27.3192  -20.3821   -5.2491 C   0  0  0  0  0  0  0  0  0  0  0  0
   27.5352  -19.3887   -6.1855 C   0  0  0  0  0  0  0  0  0  0  0  0
   25.0418  -21.9375   -8.4668 C   0  0  0  0  0  0  0  0  0  0  0  0
   24.0231  -22.1802   -9.1576 O   0  0  0  0  0  0  0  0  0  0  0  0
   25.2743  -22.7873   -7.3836 O   0  0  0  0  0  0  0  0  0  0  0  0
  2  5  1  0
  2  1  1  6
  3  2  1  0
  4  3  1  0
  5  6  2  0
  8  7  1  6
  8 10  1  0
  8  9  1  0
 10 11  1  6
 11  5  1  0
 12 13  2  0
 12 10  1  0
 14 12  1  0
 15 26  1  0
 15 14  1  0
 15 16  1  1
 17 16  1  0
 18 17  2  0
 19 20  1  0
 19 18  1  0
 20 25  2  0
 21 20  1  0
 21 22  2  0
 22 23  1  0
 23 24  2  0
 25 17  1  0
 25 24  1  0
 26 28  1  0
 27 26  2  0
M  END
$$$$
