RHN.pdb
     RDKit          3D

 30 30  0  0  1  0  0  0  0  0999 V2000
    9.9974  -17.9261   10.7649 N   0  0  0  0  0  0  0  0  0  0  0  0
   11.2276  -17.2340   10.6230 C   0  0  0  0  0  0  0  0  0  0  0  0
   11.6729  -16.8868    9.4465 N   0  0  0  0  0  0  0  0  0  0  0  0
   11.9665  -16.9265   11.7971 N   0  0  0  0  0  0  0  0  0  0  0  0
   11.5951  -17.5327   13.0515 C   0  0  0  0  0  0  0  0  0  0  0  0
   10.4645  -16.8320   13.7328 C   0  0  0  0  0  0  0  0  0  0  0  0
   10.9383  -15.8649   14.7979 C   0  0  0  0  0  0  0  0  0  0  0  0
   11.4040  -16.5897   16.0395 C   0  0  2  0  0  0  0  0  0  0  0  0
   10.3991  -17.5348   16.4346 N   0  0  0  0  0  0  0  0  0  0  0  0
   11.6756  -15.6191   17.1112 C   0  0  0  0  0  0  0  0  0  0  0  0
   12.5447  -14.7305   16.8856 O   0  0  0  0  0  0  0  0  0  0  0  0
   12.5594  -16.3488    9.3986 N   0  0  0  0  0  0  0  0  0  0  0  0
   11.0376  -15.6097   18.3680 C   0  0  1  0  0  0  0  0  0  0  0  0
   11.4427  -14.6698   19.3748 C   0  0  0  0  0  0  0  0  0  0  0  0
   10.3756  -14.1662   20.2654 C   0  0  0  0  0  0  0  0  0  0  0  0
    9.1719  -13.6542   19.6327 C   0  0  0  0  0  0  0  0  0  0  0  0
    9.0318  -12.8068   18.5676 N   0  0  0  0  0  0  0  0  0  0  0  0
    7.6976  -12.6008   18.3404 C   0  0  0  0  0  0  0  0  0  0  0  0
    7.0316  -13.3028   19.2422 N   0  0  0  0  0  0  0  0  0  0  0  0
    7.8944  -13.9423   20.0277 C   0  0  0  0  0  0  0  0  0  0  0  0
   12.5206  -15.2746   20.2450 O   0  0  0  0  0  0  0  0  0  0  0  0
   12.8314  -16.4901   20.1437 N   0  0  0  0  0  0  0  0  0  0  0  0
   13.3526  -16.0358   25.5462 C   0  0  0  0  0  0  0  0  0  0  0  0
   13.1340  -16.6568   24.2696 O   0  0  0  0  0  0  0  0  0  0  0  0
   13.4342  -17.8830   24.2427 C   0  0  0  0  0  0  0  0  0  0  0  0
   12.6061  -15.8980   23.1206 C   0  0  1  0  0  0  0  0  0  0  0  0
   13.6744  -15.0856   22.4848 N   0  0  0  0  0  0  0  0  0  0  0  0
   13.2321  -14.5187   21.2092 C   0  0  0  0  0  0  0  0  0  0  0  0
   14.8055  -16.0056   22.1020 O   0  0  0  0  0  0  0  0  0  0  0  0
   16.1223  -15.6572   22.4495 O   0  0  0  0  0  0  0  0  0  0  0  0
  2  3  2  0
  2  1  1  0
  4  2  1  0
  5  4  1  0
  6  5  1  0
  7  6  1  0
  8  7  1  0
  8  9  1  1
 10 11  2  0
 10  8  1  0
 12 10  1  0
 13 20  1  0
 13 12  1  0
 13 14  1  1
 15 14  1  0
 15 19  1  0
 16 15  2  0
 17 16  1  0
 17 18  1  0
 18 19  2  0
 20 21  2  0
 23 22  1  0
 24 23  2  0
 25 23  1  0
 26 25  1  1
 27 26  1  0
 27 20  1  0
 28 26  1  0
 29 28  1  0
 30 28  2  0
M  END
$$$$
