RHN.pdb
     RDKit          3D

 30 30  0  0  1  0  0  0  0  0999 V2000
    8.4709  -12.9899   16.2627 N   0  0  0  0  0  0  0  0  0  0  0  0
    7.2629  -13.6556   16.5943 C   0  0  0  0  0  0  0  0  0  0  0  0
    6.1269  -13.0142   16.6238 N   0  0  0  0  0  0  0  0  0  0  0  0
    7.3195  -15.0433   16.8949 N   0  0  0  0  0  0  0  0  0  0  0  0
    8.5773  -15.6400   17.2705 C   0  0  0  0  0  0  0  0  0  0  0  0
    9.0964  -15.1447   18.5814 C   0  0  0  0  0  0  0  0  0  0  0  0
    9.0206  -16.1951   19.6701 C   0  0  0  0  0  0  0  0  0  0  0  0
    9.6207  -15.6981   20.9649 C   0  0  2  0  0  0  0  0  0  0  0  0
    9.4480  -14.2759   21.0455 N   0  0  0  0  0  0  0  0  0  0  0  0
   11.0432  -16.0681   21.0297 C   0  0  0  0  0  0  0  0  0  0  0  0
   11.3314  -17.2937   20.9262 O   0  0  0  0  0  0  0  0  0  0  0  0
    5.2852  -13.5254   16.9525 N   0  0  0  0  0  0  0  0  0  0  0  0
   12.1043  -15.1558   21.1986 C   0  0  1  0  0  0  0  0  0  0  0  0
   13.4543  -15.6325   21.3054 C   0  0  0  0  0  0  0  0  0  0  0  0
   14.4928  -14.8037   20.6571 C   0  0  0  0  0  0  0  0  0  0  0  0
   14.5457  -14.8243   19.2052 C   0  0  0  0  0  0  0  0  0  0  0  0
   14.4294  -15.8754   18.3369 N   0  0  0  0  0  0  0  0  0  0  0  0
   14.5574  -15.4064   17.0571 C   0  0  0  0  0  0  0  0  0  0  0  0
   14.7479  -14.0997   17.1338 N   0  0  0  0  0  0  0  0  0  0  0  0
   14.7447  -13.7283   18.4115 C   0  0  0  0  0  0  0  0  0  0  0  0
   13.8344  -15.7915   22.7598 O   0  0  0  0  0  0  0  0  0  0  0  0
   13.3926  -15.0039   23.6366 N   0  0  0  0  0  0  0  0  0  0  0  0
   12.1164  -20.3038   25.5290 C   0  0  0  0  0  0  0  0  0  0  0  0
   12.7952  -19.0382   25.5514 O   0  0  0  0  0  0  0  0  0  0  0  0
   13.0916  -18.6408   26.7126 C   0  0  0  0  0  0  0  0  0  0  0  0
   13.0996  -18.3016   24.3106 C   0  0  2  0  0  0  0  0  0  0  0  0
   14.4134  -17.6163   24.4086 N   0  0  0  0  0  0  0  0  0  0  0  0
   14.6961  -16.8212   23.2119 C   0  0  0  0  0  0  0  0  0  0  0  0
   15.4961  -18.6650   24.4134 O   0  0  0  0  0  0  0  0  0  0  0  0
   16.3931  -18.7217   25.4942 O   0  0  0  0  0  0  0  0  0  0  0  0
  2  3  2  0
  2  1  1  0
  4  2  1  0
  5  4  1  0
  6  5  1  0
  7  6  1  0
  8  7  1  0
  8  9  1  6
 10 11  2  0
 10  8  1  0
 12 10  1  0
 13 20  1  0
 13 12  1  0
 13 14  1  6
 15 14  1  0
 15 19  1  0
 16 15  2  0
 17 16  1  0
 17 18  1  0
 18 19  2  0
 20 21  2  0
 23 22  1  0
 24 23  2  0
 25 23  1  0
 26 25  1  1
 27 26  1  0
 27 20  1  0
 28 26  1  0
 29 28  1  0
 30 28  2  0
M  END
$$$$
