RHN.pdb
     RDKit          3D

 30 30  0  0  1  0  0  0  0  0999 V2000
    7.4090  -12.3981   18.6459 N   0  0  0  0  0  0  0  0  0  0  0  0
    8.1640  -13.3451   17.9072 C   0  0  0  0  0  0  0  0  0  0  0  0
    8.1673  -13.3331   16.6023 N   0  0  0  0  0  0  0  0  0  0  0  0
    8.9198  -14.3110   18.6247 N   0  0  0  0  0  0  0  0  0  0  0  0
    8.2484  -15.2149   19.5254 C   0  0  0  0  0  0  0  0  0  0  0  0
    8.3315  -16.6441   19.0964 C   0  0  0  0  0  0  0  0  0  0  0  0
    9.2193  -17.4716   20.0027 C   0  0  0  0  0  0  0  0  0  0  0  0
    8.4392  -18.0682   21.1513 C   0  0  2  0  0  0  0  0  0  0  0  0
    7.0597  -18.1798   20.7725 N   0  0  0  0  0  0  0  0  0  0  0  0
    8.5980  -17.2307   22.3504 C   0  0  0  0  0  0  0  0  0  0  0  0
    9.7233  -16.6873   22.5364 O   0  0  0  0  0  0  0  0  0  0  0  0
    8.7470  -14.0386   16.1083 N   0  0  0  0  0  0  0  0  0  0  0  0
    7.5876  -16.9917   23.3037 C   0  0  1  0  0  0  0  0  0  0  0  0
    7.8597  -16.1751   24.4528 C   0  0  0  0  0  0  0  0  0  0  0  0
    6.8580  -15.1340   24.7660 C   0  0  0  0  0  0  0  0  0  0  0  0
    7.2013  -14.1751   25.8023 C   0  0  0  0  0  0  0  0  0  0  0  0
    8.3007  -14.1159   26.6148 N   0  0  0  0  0  0  0  0  0  0  0  0
    8.1771  -13.0350   27.4459 C   0  0  0  0  0  0  0  0  0  0  0  0
    7.0310  -12.4428   27.1538 N   0  0  0  0  0  0  0  0  0  0  0  0
    6.4288  -13.1085   26.1717 C   0  0  0  0  0  0  0  0  0  0  0  0
    8.0196  -17.0434   25.6797 O   0  0  0  0  0  0  0  0  0  0  0  0
    7.0508  -17.7017   26.1406 N   0  0  0  0  0  0  0  0  0  0  0  0
   10.0909  -20.0045   29.3835 C   0  0  0  0  0  0  0  0  0  0  0  0
   10.5000  -20.2746   28.0334 O   0  0  0  0  0  0  0  0  0  0  0  0
   11.1027  -21.3755   27.8955 C   0  0  0  0  0  0  0  0  0  0  0  0
   10.2231  -19.3280   26.9372 C   0  0  1  0  0  0  0  0  0  0  0  0
    9.4656  -18.1500   27.4313 N   0  0  0  0  0  0  0  0  0  0  0  0
    9.2510  -17.1644   26.3699 C   0  0  0  0  0  0  0  0  0  0  0  0
   10.3223  -17.4227   28.4360 O   0  0  0  0  0  0  0  0  0  0  0  0
   10.4522  -17.9452   29.7345 O   0  0  0  0  0  0  0  0  0  0  0  0
  2  3  2  0
  2  1  1  0
  4  2  1  0
  5  4  1  0
  6  5  1  0
  7  6  1  0
  8  7  1  0
  8  9  1  6
 10 11  2  0
 10  8  1  0
 12 10  1  0
 13 20  1  0
 13 12  1  0
 13 14  1  1
 15 14  1  0
 15 19  1  0
 16 15  2  0
 17 16  1  0
 17 18  1  0
 18 19  2  0
 20 21  2  0
 23 22  1  0
 24 23  2  0
 25 23  1  0
 26 25  1  6
 27 26  1  0
 27 20  1  0
 28 26  1  0
 29 28  1  0
 30 28  2  0
M  END
$$$$
