RHN.pdb
     RDKit          3D

 30 30  0  0  1  0  0  0  0  0999 V2000
   15.8530  -21.0339   16.1685 N   0  0  0  0  0  0  0  0  0  0  0  0
   15.7647  -20.1975   15.0261 C   0  0  0  0  0  0  0  0  0  0  0  0
   16.8286  -19.8793   14.3408 N   0  0  0  0  0  0  0  0  0  0  0  0
   14.4849  -19.7123   14.6441 N   0  0  0  0  0  0  0  0  0  0  0  0
   13.3438  -19.9735   15.4861 C   0  0  0  0  0  0  0  0  0  0  0  0
   13.1289  -18.9251   16.5292 C   0  0  0  0  0  0  0  0  0  0  0  0
   11.9671  -19.2477   17.4459 C   0  0  0  0  0  0  0  0  0  0  0  0
   10.9111  -18.1674   17.4063 C   0  0  2  0  0  0  0  0  0  0  0  0
   11.1370  -17.3337   16.2605 N   0  0  0  0  0  0  0  0  0  0  0  0
   10.9503  -17.3857   18.6521 C   0  0  0  0  0  0  0  0  0  0  0  0
   12.0280  -16.7885   18.9311 O   0  0  0  0  0  0  0  0  0  0  0  0
   16.7175  -19.2288   13.5393 N   0  0  0  0  0  0  0  0  0  0  0  0
    9.8748  -17.2558   19.5538 C   0  0  1  0  0  0  0  0  0  0  0  0
   10.0167  -16.4493   20.7331 C   0  0  0  0  0  0  0  0  0  0  0  0
    8.8097  -15.7178   21.1731 C   0  0  0  0  0  0  0  0  0  0  0  0
    8.3448  -14.6351   20.3230 C   0  0  0  0  0  0  0  0  0  0  0  0
    8.8786  -14.1353   19.1664 N   0  0  0  0  0  0  0  0  0  0  0  0
    8.0930  -13.1033   18.7281 C   0  0  0  0  0  0  0  0  0  0  0  0
    7.1003  -12.9697   19.5920 N   0  0  0  0  0  0  0  0  0  0  0  0
    7.2305  -13.8771   20.5564 C   0  0  0  0  0  0  0  0  0  0  0  0
   10.4857  -17.3012   21.8904 O   0  0  0  0  0  0  0  0  0  0  0  0
   10.1638  -18.5150   21.9759 N   0  0  0  0  0  0  0  0  0  0  0  0
   14.7671  -18.6445   25.7017 C   0  0  0  0  0  0  0  0  0  0  0  0
   13.5567  -17.8712   25.7090 O   0  0  0  0  0  0  0  0  0  0  0  0
   12.9316  -17.9158   26.8052 C   0  0  0  0  0  0  0  0  0  0  0  0
   13.1184  -17.1092   24.5250 C   0  0  1  0  0  0  0  0  0  0  0  0
   11.8297  -17.6319   24.0041 N   0  0  0  0  0  0  0  0  0  0  0  0
   11.3026  -16.7894   22.9287 C   0  0  0  0  0  0  0  0  0  0  0  0
   10.7961  -17.5185   25.0955 O   0  0  0  0  0  0  0  0  0  0  0  0
   10.7951  -18.4578   26.1414 O   0  0  0  0  0  0  0  0  0  0  0  0
  2  3  2  0
  2  1  1  0
  4  2  1  0
  5  4  1  0
  6  5  1  0
  7  6  1  0
  8  7  1  0
  8  9  1  6
 10 11  2  0
 10  8  1  0
 12 10  1  0
 13 20  1  0
 13 12  1  0
 13 14  1  1
 15 14  1  0
 15 19  1  0
 16 15  2  0
 17 16  1  0
 17 18  1  0
 18 19  2  0
 20 21  2  0
 23 22  1  0
 24 23  2  0
 25 23  1  0
 26 25  1  6
 27 26  1  0
 27 20  1  0
 28 26  1  0
 29 28  1  0
 30 28  2  0
M  END
$$$$
