RHN.pdb
     RDKit          3D

 30 30  0  0  1  0  0  0  0  0999 V2000
   14.4507  -18.9480   13.4426 N   0  0  0  0  0  0  0  0  0  0  0  0
   14.0908  -17.5968   13.2042 C   0  0  0  0  0  0  0  0  0  0  0  0
   14.4676  -16.9814   12.1169 N   0  0  0  0  0  0  0  0  0  0  0  0
   13.3068  -16.9263   14.1815 N   0  0  0  0  0  0  0  0  0  0  0  0
   12.6348  -17.6911   15.2026 C   0  0  0  0  0  0  0  0  0  0  0  0
   13.5650  -18.2421   16.2343 C   0  0  0  0  0  0  0  0  0  0  0  0
   13.3280  -17.6470   17.6068 C   0  0  0  0  0  0  0  0  0  0  0  0
   12.0477  -18.1621   18.2226 C   0  0  2  0  0  0  0  0  0  0  0  0
   11.0565  -18.3011   17.1944 N   0  0  0  0  0  0  0  0  0  0  0  0
   11.5968  -17.2423   19.2786 C   0  0  0  0  0  0  0  0  0  0  0  0
   12.4376  -16.4123   19.7260 O   0  0  0  0  0  0  0  0  0  0  0  0
   14.1368  -16.0091   11.9657 N   0  0  0  0  0  0  0  0  0  0  0  0
   10.2978  -17.2209   19.8254 C   0  0  1  0  0  0  0  0  0  0  0  0
    9.9870  -16.3325   20.9095 C   0  0  0  0  0  0  0  0  0  0  0  0
    8.6760  -15.6527   20.8414 C   0  0  0  0  0  0  0  0  0  0  0  0
    8.5058  -14.6442   19.8093 C   0  0  0  0  0  0  0  0  0  0  0  0
    9.4032  -14.1625   18.8955 N   0  0  0  0  0  0  0  0  0  0  0  0
    8.7863  -13.2077   18.1327 C   0  0  0  0  0  0  0  0  0  0  0  0
    7.5405  -13.1029   18.5647 N   0  0  0  0  0  0  0  0  0  0  0  0
    7.3495  -13.9542   19.5693 C   0  0  0  0  0  0  0  0  0  0  0  0
   10.0516  -17.0762   22.2240 O   0  0  0  0  0  0  0  0  0  0  0  0
    9.5510  -18.2247   22.3459 N   0  0  0  0  0  0  0  0  0  0  0  0
   12.8952  -18.8373   26.1334 C   0  0  0  0  0  0  0  0  0  0  0  0
   13.5906  -17.9752   25.2189 O   0  0  0  0  0  0  0  0  0  0  0  0
   14.8469  -18.0119   25.3410 C   0  0  0  0  0  0  0  0  0  0  0  0
   12.8679  -17.1394   24.2423 C   0  0  2  0  0  0  0  0  0  0  0  0
   11.4018  -17.3546   24.3413 N   0  0  0  0  0  0  0  0  0  0  0  0
   10.6708  -16.5313   23.3758 C   0  0  0  0  0  0  0  0  0  0  0  0
   10.9370  -16.8439   25.6812 O   0  0  0  0  0  0  0  0  0  0  0  0
    9.9810  -15.8145   25.7304 O   0  0  0  0  0  0  0  0  0  0  0  0
  2  3  2  0
  2  1  1  0
  4  2  1  0
  5  4  1  0
  6  5  1  0
  7  6  1  0
  8  7  1  0
  8  9  1  6
 10 11  2  0
 10  8  1  0
 12 10  1  0
 13 20  1  0
 13 12  1  0
 13 14  1  1
 15 14  1  0
 15 19  1  0
 16 15  2  0
 17 16  1  0
 17 18  1  0
 18 19  2  0
 20 21  2  0
 23 22  1  0
 24 23  2  0
 25 23  1  0
 26 25  1  6
 27 26  1  0
 27 20  1  0
 28 26  1  0
 29 28  1  0
 30 28  2  0
M  END
$$$$
