RHN.pdb
     RDKit          3D

 30 30  0  0  1  0  0  0  0  0999 V2000
    6.9934  -14.9333   16.3011 N   0  0  0  0  0  0  0  0  0  0  0  0
    7.5084  -13.7360   15.7414 C   0  0  0  0  0  0  0  0  0  0  0  0
    7.6146  -13.5881   14.4491 N   0  0  0  0  0  0  0  0  0  0  0  0
    7.9077  -12.6970   16.6247 N   0  0  0  0  0  0  0  0  0  0  0  0
    7.8144  -12.8985   18.0494 C   0  0  0  0  0  0  0  0  0  0  0  0
    8.4472  -14.1726   18.5072 C   0  0  0  0  0  0  0  0  0  0  0  0
    8.4549  -14.3077   20.0158 C   0  0  0  0  0  0  0  0  0  0  0  0
    9.0470  -15.6277   20.4527 C   0  0  2  0  0  0  0  0  0  0  0  0
    8.1594  -16.6884   20.0705 N   0  0  0  0  0  0  0  0  0  0  0  0
    9.2717  -15.6167   21.9066 C   0  0  0  0  0  0  0  0  0  0  0  0
   10.2059  -14.8886   22.3460 O   0  0  0  0  0  0  0  0  0  0  0  0
    7.9499  -12.6745   14.0875 N   0  0  0  0  0  0  0  0  0  0  0  0
    8.5215  -16.3581   22.8416 C   0  0  1  0  0  0  0  0  0  0  0  0
    8.9045  -16.3707   24.2252 C   0  0  0  0  0  0  0  0  0  0  0  0
    7.8427  -16.0419   25.1999 C   0  0  0  0  0  0  0  0  0  0  0  0
    7.3825  -14.6642   25.2382 C   0  0  0  0  0  0  0  0  0  0  0  0
    7.8294  -13.5694   24.5497 N   0  0  0  0  0  0  0  0  0  0  0  0
    7.0916  -12.4797   24.9271 C   0  0  0  0  0  0  0  0  0  0  0  0
    6.2123  -12.8915   25.8253 N   0  0  0  0  0  0  0  0  0  0  0  0
    6.3679  -14.1973   26.0278 C   0  0  0  0  0  0  0  0  0  0  0  0
    9.4655  -17.7246   24.5956 O   0  0  0  0  0  0  0  0  0  0  0  0
    9.3229  -18.7171   23.8348 N   0  0  0  0  0  0  0  0  0  0  0  0
   13.0218  -21.1739   25.4967 C   0  0  0  0  0  0  0  0  0  0  0  0
   13.3866  -19.7997   25.2930 O   0  0  0  0  0  0  0  0  0  0  0  0
   14.6333  -19.5991   25.2945 C   0  0  0  0  0  0  0  0  0  0  0  0
   12.3692  -18.7492   25.1033 C   0  0  1  0  0  0  0  0  0  0  0  0
   11.1725  -19.0112   25.9426 N   0  0  0  0  0  0  0  0  0  0  0  0
   10.1736  -17.9497   25.8019 C   0  0  0  0  0  0  0  0  0  0  0  0
   11.5832  -18.9351   27.3910 O   0  0  0  0  0  0  0  0  0  0  0  0
   11.6307  -20.1143   28.1547 O   0  0  0  0  0  0  0  0  0  0  0  0
  2  3  2  0
  2  1  1  0
  4  2  1  0
  5  4  1  0
  6  5  1  0
  7  6  1  0
  8  7  1  0
  8  9  1  1
 10 11  2  0
 10  8  1  0
 12 10  1  0
 13 20  1  0
 13 12  1  0
 13 14  1  1
 15 14  1  0
 15 19  1  0
 16 15  2  0
 17 16  1  0
 17 18  1  0
 18 19  2  0
 20 21  2  0
 23 22  1  0
 24 23  2  0
 25 23  1  0
 26 25  1  6
 27 26  1  0
 27 20  1  0
 28 26  1  0
 29 28  1  0
 30 28  2  0
M  END
$$$$
