RDE.pdb
     RDKit          3D

 29 28  0  0  1  0  0  0  0  0999 V2000
   12.8691  -10.9796  -11.0796 N   0  0  0  0  0  0  0  0  0  0  0  0
   13.1539  -12.2416  -11.6713 C   0  0  0  0  0  0  0  0  0  0  0  0
   12.5770  -13.2955  -11.1761 N   0  0  0  0  0  0  0  0  0  0  0  0
   14.0433  -12.3266  -12.7663 N   0  0  0  0  0  0  0  0  0  0  0  0
   14.9280  -11.2336  -13.0802 C   0  0  0  0  0  0  0  0  0  0  0  0
   15.7748  -11.6631  -14.2363 C   0  0  0  0  0  0  0  0  0  0  0  0
   16.8209  -10.6403  -14.6301 C   0  0  0  0  0  0  0  0  0  0  0  0
   16.1148   -9.5910  -15.4657 C   0  0  2  0  0  0  0  0  0  0  0  0
   15.7898  -10.2121  -16.7373 N   0  0  0  0  0  0  0  0  0  0  0  0
   16.9363   -8.3672  -15.6450 C   0  0  0  0  0  0  0  0  0  0  0  0
   17.5446   -8.1611  -16.7141 O   0  0  0  0  0  0  0  0  0  0  0  0
   12.7786  -14.2254  -11.5672 N   0  0  0  0  0  0  0  0  0  0  0  0
   17.0392   -7.4256  -14.6143 C   0  0  2  0  0  0  0  0  0  0  0  0
   17.7343   -6.1491  -14.7226 C   0  0  0  0  0  0  0  0  0  0  0  0
   16.8135   -5.1637  -14.0383 C   0  0  0  0  0  0  0  0  0  0  0  0
   15.7190   -4.8476  -14.9874 O   0  0  0  0  0  0  0  0  0  0  0  0
   14.5141   -4.8186  -14.5571 C   0  0  0  0  0  0  0  0  0  0  0  0
   19.0583   -6.2756  -14.1096 O   0  0  0  0  0  0  0  0  0  0  0  0
   19.1395   -6.6007  -12.8988 O   0  0  0  0  0  0  0  0  0  0  0  0
   15.9261   -4.5814  -16.3305 N   0  0  0  0  0  0  0  0  0  0  0  0
   20.2099   -6.0393  -14.8592 C   0  0  1  0  0  0  0  0  0  0  0  0
   21.5403   -6.1270  -14.2280 C   0  0  0  0  0  0  0  0  0  0  0  0
   22.4417   -6.5897  -15.3186 C   0  0  0  0  0  0  0  0  0  0  0  0
   22.0634   -7.9026  -15.9018 C   0  0  0  0  0  0  0  0  0  0  0  0
   22.1577   -9.0322  -14.9435 O   0  0  0  0  0  0  0  0  0  0  0  0
   23.2328   -9.1489  -14.2817 C   0  0  0  0  0  0  0  0  0  0  0  0
   21.8422   -4.9184  -13.5045 O   0  0  0  0  0  0  0  0  0  0  0  0
   21.0393   -3.7690  -13.6125 O   0  0  0  0  0  0  0  0  0  0  0  0
   21.1712   -9.9575  -14.7202 O   0  0  0  0  0  0  0  0  0  0  0  0
  2  3  2  0
  2  1  1  0
  4  2  1  0
  5  4  1  0
  6  5  1  0
  7  6  1  0
  8  7  1  0
  8  9  1  6
 10  8  1  0
 10 11  2  0
 12 10  1  0
 13 12  1  0
 13 14  1  6
 14 15  1  0
 15 16  2  0
 15 19  1  0
 17 13  1  0
 18 17  2  0
 20 17  1  0
 21 20  1  0
 21 22  1  1
 23 22  1  0
 24 23  1  0
 24 25  2  0
 26 21  1  0
 26 27  1  0
 28 24  1  0
 29 26  2  0
M  END
$$$$
