RDE.pdb
     RDKit          3D

 29 28  0  0  1  0  0  0  0  0999 V2000
   27.3132  -21.2495  -10.1138 N   0  0  0  0  0  0  0  0  0  0  0  0
   28.5903  -21.2857  -10.7395 C   0  0  0  0  0  0  0  0  0  0  0  0
   29.6221  -21.5907  -10.0109 N   0  0  0  0  0  0  0  0  0  0  0  0
   28.7133  -20.9939  -12.1168 N   0  0  0  0  0  0  0  0  0  0  0  0
   27.5880  -20.4937  -12.8648 C   0  0  0  0  0  0  0  0  0  0  0  0
   27.0026  -21.6479  -13.6153 C   0  0  0  0  0  0  0  0  0  0  0  0
   25.6915  -21.3192  -14.2997 C   0  0  0  0  0  0  0  0  0  0  0  0
   24.8557  -20.5477  -13.2977 C   0  0  2  0  0  0  0  0  0  0  0  0
   24.9769  -21.2380  -12.0260 N   0  0  0  0  0  0  0  0  0  0  0  0
   23.4387  -20.4231  -13.7235 C   0  0  0  0  0  0  0  0  0  0  0  0
   23.1521  -20.0123  -14.8657 O   0  0  0  0  0  0  0  0  0  0  0  0
   30.5595  -21.6252  -10.4332 N   0  0  0  0  0  0  0  0  0  0  0  0
   22.4027  -20.7663  -12.8469 C   0  0  2  0  0  0  0  0  0  0  0  0
   20.9969  -20.8612  -13.2200 C   0  0  0  0  0  0  0  0  0  0  0  0
   20.2907  -21.2073  -11.9282 C   0  0  0  0  0  0  0  0  0  0  0  0
   20.0482  -22.6702  -11.9344 O   0  0  0  0  0  0  0  0  0  0  0  0
   20.4475  -23.3607  -12.9352 C   0  0  0  0  0  0  0  0  0  0  0  0
   20.5792  -19.5942  -13.8244 O   0  0  0  0  0  0  0  0  0  0  0  0
   20.8467  -18.5197  -13.2309 O   0  0  0  0  0  0  0  0  0  0  0  0
   19.4038  -23.3417  -10.9090 N   0  0  0  0  0  0  0  0  0  0  0  0
   19.8960  -19.5821  -15.0397 C   0  0  2  0  0  0  0  0  0  0  0  0
   19.4394  -18.3071  -15.6246 C   0  0  0  0  0  0  0  0  0  0  0  0
   20.0383  -18.2852  -16.9872 C   0  0  0  0  0  0  0  0  0  0  0  0
   21.1706  -17.3352  -17.1366 C   0  0  0  0  0  0  0  0  0  0  0  0
   21.8040  -17.3661  -18.4787 O   0  0  0  0  0  0  0  0  0  0  0  0
   21.3416  -18.1898  -19.3243 C   0  0  0  0  0  0  0  0  0  0  0  0
   18.0173  -18.1495  -15.4572 O   0  0  0  0  0  0  0  0  0  0  0  0
   17.1718  -19.2483  -15.2217 O   0  0  0  0  0  0  0  0  0  0  0  0
   22.8499  -16.5720  -18.8724 O   0  0  0  0  0  0  0  0  0  0  0  0
  2  3  2  0
  2  1  1  0
  4  2  1  0
  5  4  1  0
  6  5  1  0
  7  6  1  0
  8  7  1  0
  8  9  1  1
 10  8  1  0
 10 11  2  0
 12 10  1  0
 13 12  1  0
 13 14  1  6
 14 15  1  0
 15 16  2  0
 15 19  1  0
 17 13  1  0
 18 17  2  0
 20 17  1  0
 21 20  1  0
 21 22  1  1
 23 22  1  0
 24 23  1  0
 24 25  2  0
 26 21  1  0
 26 27  1  0
 28 24  1  0
 29 26  2  0
M  END
$$$$
