RDE.pdb
     RDKit          3D

 29 28  0  0  1  0  0  0  0  0999 V2000
   28.7363  -22.9968  -16.8085 N   0  0  0  0  0  0  0  0  0  0  0  0
   28.4726  -21.7268  -17.3926 C   0  0  0  0  0  0  0  0  0  0  0  0
   28.5459  -21.6189  -18.6855 N   0  0  0  0  0  0  0  0  0  0  0  0
   28.1427  -20.6241  -16.5725 N   0  0  0  0  0  0  0  0  0  0  0  0
   27.8493  -20.8108  -15.1742 C   0  0  0  0  0  0  0  0  0  0  0  0
   26.4329  -20.3823  -14.9545 C   0  0  0  0  0  0  0  0  0  0  0  0
   26.1856  -19.8014  -13.5772 C   0  0  0  0  0  0  0  0  0  0  0  0
   25.2336  -20.7444  -12.8686 C   0  0  2  0  0  0  0  0  0  0  0  0
   25.9197  -22.0173  -12.7371 N   0  0  0  0  0  0  0  0  0  0  0  0
   23.9425  -20.8868  -13.5879 C   0  0  0  0  0  0  0  0  0  0  0  0
   23.8846  -21.4941  -14.6757 O   0  0  0  0  0  0  0  0  0  0  0  0
   28.3138  -20.7270  -19.1425 N   0  0  0  0  0  0  0  0  0  0  0  0
   22.7696  -20.3407  -13.0534 C   0  0  1  0  0  0  0  0  0  0  0  0
   21.4399  -20.5082  -13.6263 C   0  0  0  0  0  0  0  0  0  0  0  0
   20.8198  -21.6206  -12.8106 C   0  0  0  0  0  0  0  0  0  0  0  0
   19.4609  -21.8625  -13.3524 O   0  0  0  0  0  0  0  0  0  0  0  0
   18.4723  -21.9247  -12.5422 C   0  0  0  0  0  0  0  0  0  0  0  0
   20.7283  -19.2300  -13.5572 O   0  0  0  0  0  0  0  0  0  0  0  0
   20.7973  -18.5515  -12.5021 O   0  0  0  0  0  0  0  0  0  0  0  0
   19.1953  -22.0303  -14.7011 N   0  0  0  0  0  0  0  0  0  0  0  0
   19.9869  -18.7740  -14.6464 C   0  0  2  0  0  0  0  0  0  0  0  0
   19.2368  -17.5068  -14.5584 C   0  0  0  0  0  0  0  0  0  0  0  0
   19.2935  -16.9425  -15.9347 C   0  0  0  0  0  0  0  0  0  0  0  0
   20.5188  -16.1507  -16.2154 C   0  0  0  0  0  0  0  0  0  0  0  0
   20.2654  -14.9123  -16.9934 O   0  0  0  0  0  0  0  0  0  0  0  0
   20.7849  -14.8303  -18.1470 C   0  0  0  0  0  0  0  0  0  0  0  0
   17.9654  -17.7106  -13.9124 O   0  0  0  0  0  0  0  0  0  0  0  0
   17.3494  -16.7007  -13.1520 O   0  0  0  0  0  0  0  0  0  0  0  0
   19.5128  -13.8518  -16.5593 O   0  0  0  0  0  0  0  0  0  0  0  0
  2  3  2  0
  2  1  1  0
  4  2  1  0
  5  4  1  0
  6  5  1  0
  7  6  1  0
  8  7  1  0
  8  9  1  6
 10  8  1  0
 10 11  2  0
 12 10  1  0
 13 12  1  0
 13 14  1  6
 14 15  1  0
 15 16  2  0
 15 19  1  0
 17 13  1  0
 18 17  2  0
 20 17  1  0
 21 20  1  0
 21 22  1  6
 23 22  1  0
 24 23  1  0
 24 25  2  0
 26 21  1  0
 26 27  1  0
 28 24  1  0
 29 26  2  0
M  END
$$$$
