RDE.pdb
     RDKit          3D

 29 28  0  0  1  0  0  0  0  0999 V2000
   17.7636  -13.0924  -18.7154 N   0  0  0  0  0  0  0  0  0  0  0  0
   17.7329  -14.0360  -17.6512 C   0  0  0  0  0  0  0  0  0  0  0  0
   18.6690  -14.9360  -17.6019 N   0  0  0  0  0  0  0  0  0  0  0  0
   16.7037  -13.9806  -16.6843 N   0  0  0  0  0  0  0  0  0  0  0  0
   16.1538  -12.7153  -16.2689 C   0  0  0  0  0  0  0  0  0  0  0  0
   17.0089  -12.2017  -15.1539 C   0  0  0  0  0  0  0  0  0  0  0  0
   16.5140  -10.8954  -14.5673 C   0  0  0  0  0  0  0  0  0  0  0  0
   16.9423   -9.7972  -15.5203 C   0  0  2  0  0  0  0  0  0  0  0  0
   17.1493  -10.4192  -16.8159 N   0  0  0  0  0  0  0  0  0  0  0  0
   18.1582   -9.0863  -15.0505 C   0  0  0  0  0  0  0  0  0  0  0  0
   18.1965   -8.5762  -13.9130 O   0  0  0  0  0  0  0  0  0  0  0  0
   18.6930  -15.6131  -16.8279 N   0  0  0  0  0  0  0  0  0  0  0  0
   19.2811   -8.9791  -15.8795 C   0  0  2  0  0  0  0  0  0  0  0  0
   20.4922   -8.2403  -15.5451 C   0  0  0  0  0  0  0  0  0  0  0  0
   21.5544   -8.8418  -16.4379 C   0  0  0  0  0  0  0  0  0  0  0  0
   22.8369   -8.1720  -16.1134 O   0  0  0  0  0  0  0  0  0  0  0  0
   23.1439   -7.9818  -14.8856 C   0  0  0  0  0  0  0  0  0  0  0  0
   20.2514   -6.8116  -15.7589 O   0  0  0  0  0  0  0  0  0  0  0  0
   19.8789   -6.4204  -16.8931 O   0  0  0  0  0  0  0  0  0  0  0  0
   23.7326   -7.7314  -17.0733 N   0  0  0  0  0  0  0  0  0  0  0  0
   20.4326   -5.9009  -14.7188 C   0  0  1  0  0  0  0  0  0  0  0  0
   20.2607   -4.4552  -14.9566 C   0  0  0  0  0  0  0  0  0  0  0  0
   18.9079   -4.1460  -14.4179 C   0  0  0  0  0  0  0  0  0  0  0  0
   17.8090   -4.3203  -15.4023 C   0  0  0  0  0  0  0  0  0  0  0  0
   16.4542   -4.1317  -14.8258 O   0  0  0  0  0  0  0  0  0  0  0  0
   15.4705   -4.1546  -15.6253 C   0  0  0  0  0  0  0  0  0  0  0  0
   21.4095   -3.7215  -14.4904 O   0  0  0  0  0  0  0  0  0  0  0  0
   22.4768   -4.3558  -13.8300 O   0  0  0  0  0  0  0  0  0  0  0  0
   16.1868   -3.9348  -13.4957 O   0  0  0  0  0  0  0  0  0  0  0  0
  2  3  2  0
  2  1  1  0
  4  2  1  0
  5  4  1  0
  6  5  1  0
  7  6  1  0
  8  7  1  0
  8  9  1  6
 10  8  1  0
 10 11  2  0
 12 10  1  0
 13 12  1  0
 13 14  1  1
 14 15  1  0
 15 16  2  0
 15 19  1  0
 17 13  1  0
 18 17  2  0
 20 17  1  0
 21 20  1  0
 21 22  1  6
 23 22  1  0
 24 23  1  0
 24 25  2  0
 26 21  1  0
 26 27  1  0
 28 24  1  0
 29 26  2  0
M  END
$$$$
