RDE.pdb
     RDKit          3D

 29 28  0  0  1  0  0  0  0  0999 V2000
   16.1615  -15.1834  -15.2682 N   0  0  0  0  0  0  0  0  0  0  0  0
   16.0901  -14.6423  -16.5820 C   0  0  0  0  0  0  0  0  0  0  0  0
   16.1061  -15.4664  -17.5867 N   0  0  0  0  0  0  0  0  0  0  0  0
   16.0056  -13.2441  -16.7691 N   0  0  0  0  0  0  0  0  0  0  0  0
   16.0904  -12.3464  -15.6452 C   0  0  0  0  0  0  0  0  0  0  0  0
   16.9849  -11.2155  -16.0441 C   0  0  0  0  0  0  0  0  0  0  0  0
   17.1625  -10.1752  -14.9571 C   0  0  0  0  0  0  0  0  0  0  0  0
   17.9919   -9.0554  -15.5537 C   0  0  2  0  0  0  0  0  0  0  0  0
   17.9315   -9.2076  -16.9965 N   0  0  0  0  0  0  0  0  0  0  0  0
   19.3913   -9.0651  -15.0574 C   0  0  0  0  0  0  0  0  0  0  0  0
   19.6322   -9.0205  -13.8345 O   0  0  0  0  0  0  0  0  0  0  0  0
   16.0986  -15.1053  -18.5499 N   0  0  0  0  0  0  0  0  0  0  0  0
   20.4618   -9.1250  -15.9573 C   0  0  2  0  0  0  0  0  0  0  0  0
   21.8684   -9.0714  -15.5788 C   0  0  0  0  0  0  0  0  0  0  0  0
   22.5778   -9.8426  -16.6693 C   0  0  0  0  0  0  0  0  0  0  0  0
   23.8712  -10.3076  -16.1131 O   0  0  0  0  0  0  0  0  0  0  0  0
   24.1587  -10.0309  -14.8972 C   0  0  0  0  0  0  0  0  0  0  0  0
   22.2747   -7.6695  -15.4582 O   0  0  0  0  0  0  0  0  0  0  0  0
   23.4549   -7.4053  -15.1179 O   0  0  0  0  0  0  0  0  0  0  0  0
   24.8002  -11.0307  -16.8424 N   0  0  0  0  0  0  0  0  0  0  0  0
   21.3653   -6.6451  -15.7179 C   0  0  1  0  0  0  0  0  0  0  0  0
   21.7653   -5.2348  -15.5530 C   0  0  0  0  0  0  0  0  0  0  0  0
   20.7645   -4.4675  -16.3439 C   0  0  0  0  0  0  0  0  0  0  0  0
   19.4792   -4.2372  -15.6355 C   0  0  0  0  0  0  0  0  0  0  0  0
   18.5145   -3.4086  -16.4010 O   0  0  0  0  0  0  0  0  0  0  0  0
   18.8658   -3.0190  -17.5552 C   0  0  0  0  0  0  0  0  0  0  0  0
   21.9796   -4.9247  -14.1626 O   0  0  0  0  0  0  0  0  0  0  0  0
   22.6226   -3.7416  -13.7570 O   0  0  0  0  0  0  0  0  0  0  0  0
   17.2738   -3.0334  -15.9547 O   0  0  0  0  0  0  0  0  0  0  0  0
  2  3  2  0
  2  1  1  0
  4  2  1  0
  5  4  1  0
  6  5  1  0
  7  6  1  0
  8  7  1  0
  8  9  1  6
 10  8  1  0
 10 11  2  0
 12 10  1  0
 13 12  1  0
 13 14  1  1
 14 15  1  0
 15 16  2  0
 15 19  1  0
 17 13  1  0
 18 17  2  0
 20 17  1  0
 21 20  1  0
 21 22  1  1
 23 22  1  0
 24 23  1  0
 24 25  2  0
 26 21  1  0
 26 27  1  0
 28 24  1  0
 29 26  2  0
M  END
$$$$
