RTW.pdb
     RDKit          3D

 33 34  0  0  1  0  0  0  0  0999 V2000
    9.3795  -13.8420   16.3935 N   0  0  0  0  0  0  0  0  0  0  0  0
    8.0604  -13.2879   16.3054 C   0  0  0  0  0  0  0  0  0  0  0  0
    7.5179  -13.2042   15.1521 N   0  0  0  0  0  0  0  0  0  0  0  0
    7.3968  -12.8526   17.4750 N   0  0  0  0  0  0  0  0  0  0  0  0
    8.0152  -13.1023   18.7842 C   0  0  0  0  0  0  0  0  0  0  0  0
    8.5914  -14.4946   18.7979 C   0  0  0  0  0  0  0  0  0  0  0  0
    9.1948  -14.8941   20.0908 C   0  0  0  0  0  0  0  0  0  0  0  0
    9.8459  -16.2272   20.1120 C   0  0  2  0  0  0  0  0  0  0  0  0
    9.6896  -17.0491   18.9649 N   0  0  0  0  0  0  0  0  0  0  0  0
    9.5077  -16.9534   21.3833 C   0  0  0  0  0  0  0  0  0  0  0  0
    8.4502  -17.6180   21.4980 O   0  0  0  0  0  0  0  0  0  0  0  0
    6.5549  -12.8365   14.9957 C   0  0  0  0  0  0  0  0  0  0  0  0
   10.7598  -19.8805   22.5475 C   0  0  2  0  0  0  0  0  0  0  0  0
   11.0511  -18.8858   23.6276 O   0  0  0  0  0  0  0  0  0  0  0  0
   12.3676  -18.4476   23.4703 C   0  0  2  0  0  0  0  0  0  0  0  0
   10.0886  -17.7242   23.6849 N   0  0  0  0  0  0  0  0  0  0  0  0
   10.3894  -16.8994   22.4910 C   0  0  0  0  0  0  0  0  0  0  0  0
   10.2850  -16.8313   24.8456 O   0  0  0  0  0  0  0  0  0  0  0  0
   11.1093  -15.8508   24.7745 N   0  0  0  0  0  0  0  0  0  0  0  0
    9.6398  -16.9244   26.1000 C   0  0  1  0  0  0  0  0  0  0  0  0
    9.9070  -16.0296   27.2032 C   0  0  0  0  0  0  0  0  0  0  0  0
    8.6822  -15.5656   27.9425 C   0  0  0  0  0  0  0  0  0  0  0  0
    7.6759  -15.0265   27.0223 C   0  0  0  0  0  0  0  0  0  0  0  0
    6.6789  -15.7696   26.3793 N   0  0  0  0  0  0  0  0  0  0  0  0
    6.0072  -14.9072   25.6197 C   0  0  0  0  0  0  0  0  0  0  0  0
    6.4957  -13.6498   25.7217 C   0  0  0  0  0  0  0  0  0  0  0  0
    6.1292  -12.4554   25.1464 C   0  0  0  0  0  0  0  0  0  0  0  0
    6.8230  -11.3170   25.4596 C   0  0  0  0  0  0  0  0  0  0  0  0
    7.8831  -11.3776   26.3494 C   0  0  0  0  0  0  0  0  0  0  0  0
    8.2655  -12.5642   26.9356 C   0  0  0  0  0  0  0  0  0  0  0  0
    7.5653  -13.7209   26.6200 C   0  0  0  0  0  0  0  0  0  0  0  0
   10.8715  -16.6880   28.1019 O   0  0  0  0  0  0  0  0  0  0  0  0
   11.4715  -15.9708   29.1126 O   0  0  0  0  0  0  0  0  0  0  0  0
  2  4  1  0
  2  1  1  0
  3  2  2  0
  5  4  1  0
  6  5  1  0
  7  6  1  0
  8  7  1  0
  8  9  1  6
 10  8  1  0
 11 10  2  0
 13 12  1  1
 13 14  1  0
 13 15  1  0
 15 17  1  0
 15 16  1  1
 16 10  1  0
 17 18  2  0
 19 20  1  0
 19 17  1  0
 20 21  1  1
 20 31  1  0
 21 22  1  0
 22 30  1  0
 23 22  2  0
 23 24  1  0
 24 25  1  0
 25 26  1  0
 26 27  2  0
 28 27  1  0
 29 28  2  0
 30 25  2  0
 30 29  1  0
 31 33  2  0
 31 32  1  0
M  END
$$$$
