RTW.pdb
     RDKit          3D

 33 34  0  0  1  0  0  0  0  0999 V2000
    8.5509  -15.0469   17.2180 N   0  0  0  0  0  0  0  0  0  0  0  0
    8.4620  -13.6256   17.3816 C   0  0  0  0  0  0  0  0  0  0  0  0
    7.9750  -12.9380   16.4218 N   0  0  0  0  0  0  0  0  0  0  0  0
    8.9068  -13.0227   18.5802 N   0  0  0  0  0  0  0  0  0  0  0  0
    7.9172  -12.4566   19.5070 C   0  0  0  0  0  0  0  0  0  0  0  0
    7.0474  -13.5676   20.0359 C   0  0  0  0  0  0  0  0  0  0  0  0
    7.6710  -14.3734   21.1115 C   0  0  0  0  0  0  0  0  0  0  0  0
    7.6217  -15.8445   20.9239 C   0  0  2  0  0  0  0  0  0  0  0  0
    6.4016  -16.4036   20.4609 N   0  0  0  0  0  0  0  0  0  0  0  0
    8.1407  -16.5446   22.1480 C   0  0  0  0  0  0  0  0  0  0  0  0
    7.3659  -16.9827   23.0315 O   0  0  0  0  0  0  0  0  0  0  0  0
    7.8709  -11.9011   16.4532 C   0  0  0  0  0  0  0  0  0  0  0  0
   11.9698  -19.0286   24.0415 C   0  0  1  0  0  0  0  0  0  0  0  0
   11.3036  -18.1640   23.0171 O   0  0  0  0  0  0  0  0  0  0  0  0
   11.1219  -18.9239   21.8598 C   0  0  1  0  0  0  0  0  0  0  0  0
   10.0073  -17.5389   23.4731 N   0  0  0  0  0  0  0  0  0  0  0  0
    9.5344  -16.7247   22.3288 C   0  0  0  0  0  0  0  0  0  0  0  0
   10.1535  -16.5948   24.6002 O   0  0  0  0  0  0  0  0  0  0  0  0
   10.6753  -15.4381   24.4108 N   0  0  0  0  0  0  0  0  0  0  0  0
    9.7665  -16.8164   25.9417 C   0  0  1  0  0  0  0  0  0  0  0  0
   10.3314  -16.1015   27.0637 C   0  0  0  0  0  0  0  0  0  0  0  0
    9.3696  -15.1861   27.7700 C   0  0  0  0  0  0  0  0  0  0  0  0
    8.2096  -14.8784   26.9274 C   0  0  0  0  0  0  0  0  0  0  0  0
    7.3171  -15.8167   26.3959 N   0  0  0  0  0  0  0  0  0  0  0  0
    6.4385  -15.1238   25.6748 C   0  0  0  0  0  0  0  0  0  0  0  0
    6.6942  -13.7956   25.6982 C   0  0  0  0  0  0  0  0  0  0  0  0
    6.0687  -12.7134   25.1243 C   0  0  0  0  0  0  0  0  0  0  0  0
    6.5645  -11.4558   25.3433 C   0  0  0  0  0  0  0  0  0  0  0  0
    7.6868  -11.2849   26.1374 C   0  0  0  0  0  0  0  0  0  0  0  0
    8.3273  -12.3562   26.7204 C   0  0  0  0  0  0  0  0  0  0  0  0
    7.8284  -13.6330   26.5002 C   0  0  0  0  0  0  0  0  0  0  0  0
   10.9221  -17.0892   27.9840 O   0  0  0  0  0  0  0  0  0  0  0  0
   10.7666  -18.4357   27.7414 O   0  0  0  0  0  0  0  0  0  0  0  0
  2  4  1  0
  2  1  1  0
  3  2  2  0
  5  4  1  0
  6  5  1  0
  7  6  1  0
  8  7  1  0
  8  9  1  1
 10  8  1  0
 11 10  2  0
 13 12  1  6
 13 14  1  0
 13 15  1  0
 15 17  1  0
 15 16  1  6
 16 10  1  0
 17 18  2  0
 19 20  1  0
 19 17  1  0
 20 21  1  1
 20 31  1  0
 21 22  1  0
 22 30  1  0
 23 22  2  0
 23 24  1  0
 24 25  1  0
 25 26  1  0
 26 27  2  0
 28 27  1  0
 29 28  2  0
 30 25  2  0
 30 29  1  0
 31 33  2  0
 31 32  1  0
M  END
$$$$
