RTW.pdb
     RDKit          3D

 33 34  0  0  1  0  0  0  0  0999 V2000
    9.4044  -12.9987   16.2904 N   0  0  0  0  0  0  0  0  0  0  0  0
    7.9797  -12.8403   16.2925 C   0  0  0  0  0  0  0  0  0  0  0  0
    7.3688  -12.8672   15.1712 N   0  0  0  0  0  0  0  0  0  0  0  0
    7.2901  -12.6609   17.5133 N   0  0  0  0  0  0  0  0  0  0  0  0
    8.0493  -12.6609   18.7712 C   0  0  0  0  0  0  0  0  0  0  0  0
    8.8693  -13.9226   18.8503 C   0  0  0  0  0  0  0  0  0  0  0  0
    8.4091  -14.8878   19.8758 C   0  0  0  0  0  0  0  0  0  0  0  0
    9.1967  -16.1412   19.9788 C   0  0  2  0  0  0  0  0  0  0  0  0
    9.1897  -17.0112   18.8570 N   0  0  0  0  0  0  0  0  0  0  0  0
    8.8711  -16.8588   21.2583 C   0  0  0  0  0  0  0  0  0  0  0  0
    7.7507  -17.3902   21.4458 O   0  0  0  0  0  0  0  0  0  0  0  0
    6.3320  -12.8067   15.0804 C   0  0  0  0  0  0  0  0  0  0  0  0
    9.4375  -19.8968   22.3370 C   0  0  2  0  0  0  0  0  0  0  0  0
   10.0854  -19.0493   23.3871 O   0  0  0  0  0  0  0  0  0  0  0  0
   11.4521  -18.9827   23.1085 C   0  0  2  0  0  0  0  0  0  0  0  0
    9.4873  -17.6713   23.5362 N   0  0  0  0  0  0  0  0  0  0  0  0
    9.8375  -16.9490   22.2905 C   0  0  0  0  0  0  0  0  0  0  0  0
   10.0690  -16.8740   24.6357 O   0  0  0  0  0  0  0  0  0  0  0  0
   11.1786  -16.2526   24.4665 N   0  0  0  0  0  0  0  0  0  0  0  0
    9.5248  -16.6965   25.9283 C   0  0  1  0  0  0  0  0  0  0  0  0
   10.2284  -16.0408   27.0073 C   0  0  0  0  0  0  0  0  0  0  0  0
    9.3921  -15.0784   27.8051 C   0  0  0  0  0  0  0  0  0  0  0  0
    8.1720  -14.7056   27.0822 C   0  0  0  0  0  0  0  0  0  0  0  0
    7.0371  -15.5108   26.9301 N   0  0  0  0  0  0  0  0  0  0  0  0
    6.1828  -14.8091   26.1886 C   0  0  0  0  0  0  0  0  0  0  0  0
    6.6804  -13.5989   25.8452 C   0  0  0  0  0  0  0  0  0  0  0  0
    6.1701  -12.5524   25.1129 C   0  0  0  0  0  0  0  0  0  0  0  0
    6.9230  -11.4214   24.9412 C   0  0  0  0  0  0  0  0  0  0  0  0
    8.1864  -11.3412   25.5039 C   0  0  0  0  0  0  0  0  0  0  0  0
    8.7149  -12.3788   26.2401 C   0  0  0  0  0  0  0  0  0  0  0  0
    7.9553  -13.5275   26.4159 C   0  0  0  0  0  0  0  0  0  0  0  0
   10.8280  -17.0817   27.8607 O   0  0  0  0  0  0  0  0  0  0  0  0
   10.5236  -18.4074   27.6468 O   0  0  0  0  0  0  0  0  0  0  0  0
  2  4  1  0
  2  1  1  0
  3  2  2  0
  5  4  1  0
  6  5  1  0
  7  6  1  0
  8  7  1  0
  8  9  1  6
 10  8  1  0
 11 10  2  0
 13 12  1  1
 13 14  1  0
 13 15  1  0
 15 17  1  0
 15 16  1  1
 16 10  1  0
 17 18  2  0
 19 20  1  0
 19 17  1  0
 20 21  1  1
 20 31  1  0
 21 22  1  0
 22 30  1  0
 23 22  2  0
 23 24  1  0
 24 25  1  0
 25 26  1  0
 26 27  2  0
 28 27  1  0
 29 28  2  0
 30 25  2  0
 30 29  1  0
 31 33  2  0
 31 32  1  0
M  END
$$$$
