RTW.pdb
     RDKit          3D

 33 34  0  0  1  0  0  0  0  0999 V2000
    8.0653  -15.0207   15.7164 N   0  0  0  0  0  0  0  0  0  0  0  0
    8.4870  -13.6661   15.9213 C   0  0  0  0  0  0  0  0  0  0  0  0
    8.0160  -12.7650   15.1483 N   0  0  0  0  0  0  0  0  0  0  0  0
    9.3993  -13.3585   16.9561 N   0  0  0  0  0  0  0  0  0  0  0  0
    8.8866  -13.0919   18.3070 C   0  0  0  0  0  0  0  0  0  0  0  0
    7.5419  -13.7542   18.4617 C   0  0  0  0  0  0  0  0  0  0  0  0
    7.4759  -14.7574   19.5499 C   0  0  0  0  0  0  0  0  0  0  0  0
    8.7631  -15.0635   20.2216 C   0  0  2  0  0  0  0  0  0  0  0  0
    9.8015  -15.6129   19.4244 N   0  0  0  0  0  0  0  0  0  0  0  0
    8.5228  -15.8607   21.4725 C   0  0  0  0  0  0  0  0  0  0  0  0
    7.6051  -15.5634   22.2739 O   0  0  0  0  0  0  0  0  0  0  0  0
    8.3156  -11.7669   15.1802 C   0  0  0  0  0  0  0  0  0  0  0  0
    8.9369  -19.9179   21.6729 C   0  0  2  0  0  0  0  0  0  0  0  0
    9.6352  -19.1350   22.7408 O   0  0  0  0  0  0  0  0  0  0  0  0
   10.9889  -19.0574   22.4070 C   0  0  2  0  0  0  0  0  0  0  0  0
    9.0527  -17.7657   22.9953 N   0  0  0  0  0  0  0  0  0  0  0  0
    9.3404  -16.9781   21.7734 C   0  0  0  0  0  0  0  0  0  0  0  0
    9.6956  -17.0302   24.1038 O   0  0  0  0  0  0  0  0  0  0  0  0
   10.7902  -16.3909   23.9061 N   0  0  0  0  0  0  0  0  0  0  0  0
    9.2290  -16.9339   25.4347 C   0  0  1  0  0  0  0  0  0  0  0  0
    9.9919  -16.3353   26.5065 C   0  0  0  0  0  0  0  0  0  0  0  0
    9.2277  -15.3430   27.3392 C   0  0  0  0  0  0  0  0  0  0  0  0
    8.0396  -14.8556   26.6314 C   0  0  0  0  0  0  0  0  0  0  0  0
    6.9835  -15.6499   26.1697 N   0  0  0  0  0  0  0  0  0  0  0  0
    6.1354  -14.8215   25.5642 C   0  0  0  0  0  0  0  0  0  0  0  0
    6.5635  -13.5387   25.5984 C   0  0  0  0  0  0  0  0  0  0  0  0
    6.0307  -12.3628   25.1239 C   0  0  0  0  0  0  0  0  0  0  0  0
    6.7060  -11.1887   25.3254 C   0  0  0  0  0  0  0  0  0  0  0  0
    7.9146  -11.1951   26.0025 C   0  0  0  0  0  0  0  0  0  0  0  0
    8.4647  -12.3624   26.4848 C   0  0  0  0  0  0  0  0  0  0  0  0
    7.7837  -13.5551   26.2818 C   0  0  0  0  0  0  0  0  0  0  0  0
   10.5541  -17.4211   27.3288 O   0  0  0  0  0  0  0  0  0  0  0  0
   10.2081  -18.7290   27.0724 O   0  0  0  0  0  0  0  0  0  0  0  0
  2  4  1  0
  2  1  1  0
  3  2  2  0
  5  4  1  0
  6  5  1  0
  7  6  1  0
  8  7  1  0
  8  9  1  6
 10  8  1  0
 11 10  2  0
 13 12  1  1
 13 14  1  0
 13 15  1  0
 15 17  1  0
 15 16  1  1
 16 10  1  0
 17 18  2  0
 19 20  1  0
 19 17  1  0
 20 21  1  1
 20 31  1  0
 21 22  1  0
 22 30  1  0
 23 22  2  0
 23 24  1  0
 24 25  1  0
 25 26  1  0
 26 27  2  0
 28 27  1  0
 29 28  2  0
 30 25  2  0
 30 29  1  0
 31 33  2  0
 31 32  1  0
M  END
$$$$
