RTW.pdb
     RDKit          3D

 33 34  0  0  1  0  0  0  0  0999 V2000
    8.1107  -13.9267   12.8912 N   0  0  0  0  0  0  0  0  0  0  0  0
    8.4449  -14.3036   14.2332 C   0  0  0  0  0  0  0  0  0  0  0  0
    8.8432  -15.4991   14.4418 N   0  0  0  0  0  0  0  0  0  0  0  0
    8.3297  -13.3624   15.2814 N   0  0  0  0  0  0  0  0  0  0  0  0
    8.6711  -13.7703   16.6509 C   0  0  0  0  0  0  0  0  0  0  0  0
    7.4134  -14.1913   17.3662 C   0  0  0  0  0  0  0  0  0  0  0  0
    7.4309  -13.9496   18.8278 C   0  0  0  0  0  0  0  0  0  0  0  0
    8.6935  -14.3024   19.5230 C   0  0  2  0  0  0  0  0  0  0  0  0
    9.7866  -14.7211   18.7197 N   0  0  0  0  0  0  0  0  0  0  0  0
    8.4191  -15.2545   20.6526 C   0  0  0  0  0  0  0  0  0  0  0  0
    7.2618  -15.4163   21.1081 O   0  0  0  0  0  0  0  0  0  0  0  0
    9.0477  -15.8789   15.3910 C   0  0  0  0  0  0  0  0  0  0  0  0
    9.0391  -18.9047   20.5758 C   0  0  2  0  0  0  0  0  0  0  0  0
    9.7572  -18.3064   21.7451 O   0  0  0  0  0  0  0  0  0  0  0  0
   11.0973  -18.1372   21.3909 C   0  0  2  0  0  0  0  0  0  0  0  0
    9.1572  -17.0189   22.2561 N   0  0  0  0  0  0  0  0  0  0  0  0
    9.4777  -15.9969   21.2319 C   0  0  0  0  0  0  0  0  0  0  0  0
    9.7594  -16.5264   23.5122 O   0  0  0  0  0  0  0  0  0  0  0  0
   10.8039  -15.7822   23.4798 N   0  0  0  0  0  0  0  0  0  0  0  0
    9.3025  -16.7851   24.8248 C   0  0  1  0  0  0  0  0  0  0  0  0
    9.8964  -16.2013   26.0061 C   0  0  0  0  0  0  0  0  0  0  0  0
    8.9151  -15.8479   27.0897 C   0  0  0  0  0  0  0  0  0  0  0  0
    7.7450  -15.1530   26.5438 C   0  0  0  0  0  0  0  0  0  0  0  0
    6.5608  -15.7645   26.1157 N   0  0  0  0  0  0  0  0  0  0  0  0
    5.7791  -14.7839   25.6691 C   0  0  0  0  0  0  0  0  0  0  0  0
    6.3702  -13.5718   25.7760 C   0  0  0  0  0  0  0  0  0  0  0  0
    5.9556  -12.2989   25.4602 C   0  0  0  0  0  0  0  0  0  0  0  0
    6.7909  -11.2405   25.6999 C   0  0  0  0  0  0  0  0  0  0  0  0
    8.0406  -11.4597   26.2561 C   0  0  0  0  0  0  0  0  0  0  0  0
    8.4739  -12.7270   26.5788 C   0  0  0  0  0  0  0  0  0  0  0  0
    7.6305  -13.8029   26.3365 C   0  0  0  0  0  0  0  0  0  0  0  0
   10.9416  -17.1189   26.4929 O   0  0  0  0  0  0  0  0  0  0  0  0
   11.0766  -18.3689   25.9315 O   0  0  0  0  0  0  0  0  0  0  0  0
  2  4  1  0
  2  1  1  0
  3  2  2  0
  5  4  1  0
  6  5  1  0
  7  6  1  0
  8  7  1  0
  8  9  1  6
 10  8  1  0
 11 10  2  0
 13 12  1  1
 13 14  1  0
 13 15  1  0
 15 17  1  0
 15 16  1  1
 16 10  1  0
 17 18  2  0
 19 20  1  0
 19 17  1  0
 20 21  1  1
 20 31  1  0
 21 22  1  0
 22 30  1  0
 23 22  2  0
 23 24  1  0
 24 25  1  0
 25 26  1  0
 26 27  2  0
 28 27  1  0
 29 28  2  0
 30 25  2  0
 30 29  1  0
 31 33  2  0
 31 32  1  0
M  END
$$$$
