RTW.pdb
     RDKit          3D

 33 34  0  0  1  0  0  0  0  0999 V2000
    8.9820  -12.9055   14.2912 N   0  0  0  0  0  0  0  0  0  0  0  0
    8.3987  -14.0443   14.9374 C   0  0  0  0  0  0  0  0  0  0  0  0
    8.7727  -15.2067   14.5628 N   0  0  0  0  0  0  0  0  0  0  0  0
    7.4382  -13.8629   15.9584 N   0  0  0  0  0  0  0  0  0  0  0  0
    7.7721  -14.2572   17.3338 C   0  0  0  0  0  0  0  0  0  0  0  0
    7.1921  -15.6206   17.6087 C   0  0  0  0  0  0  0  0  0  0  0  0
    7.0294  -15.9374   19.0468 C   0  0  0  0  0  0  0  0  0  0  0  0
    7.9944  -15.2811   19.9632 C   0  0  2  0  0  0  0  0  0  0  0  0
    9.0638  -14.5555   19.3754 N   0  0  0  0  0  0  0  0  0  0  0  0
    8.4709  -16.2545   21.0041 C   0  0  0  0  0  0  0  0  0  0  0  0
    7.6969  -17.0971   21.5178 O   0  0  0  0  0  0  0  0  0  0  0  0
    8.4546  -16.0877   15.0208 C   0  0  0  0  0  0  0  0  0  0  0  0
   11.2755  -18.6411   20.5761 C   0  0  2  0  0  0  0  0  0  0  0  0
   11.5101  -17.8685   21.8366 O   0  0  0  0  0  0  0  0  0  0  0  0
   12.4935  -16.9105   21.5816 C   0  0  2  0  0  0  0  0  0  0  0  0
   10.2702  -17.2399   22.4254 N   0  0  0  0  0  0  0  0  0  0  0  0
    9.8220  -16.2374   21.4304 C   0  0  0  0  0  0  0  0  0  0  0  0
   10.5079  -16.4844   23.6727 O   0  0  0  0  0  0  0  0  0  0  0  0
   11.1566  -15.3779   23.6444 N   0  0  0  0  0  0  0  0  0  0  0  0
   10.0843  -16.8465   24.9719 C   0  0  1  0  0  0  0  0  0  0  0  0
   10.4458  -16.1118   26.1629 C   0  0  0  0  0  0  0  0  0  0  0  0
    9.9669  -14.6864   26.1877 C   0  0  0  0  0  0  0  0  0  0  0  0
    8.5196  -14.6060   25.9661 C   0  0  0  0  0  0  0  0  0  0  0  0
    7.6760  -15.6890   25.6929 N   0  0  0  0  0  0  0  0  0  0  0  0
    6.4577  -15.1771   25.5320 C   0  0  0  0  0  0  0  0  0  0  0  0
    6.4457  -13.8327   25.6818 C   0  0  0  0  0  0  0  0  0  0  0  0
    5.4422  -12.8943   25.6170 C   0  0  0  0  0  0  0  0  0  0  0  0
    5.7405  -11.5748   25.8304 C   0  0  0  0  0  0  0  0  0  0  0  0
    7.0443  -11.1981   26.1085 C   0  0  0  0  0  0  0  0  0  0  0  0
    8.0629  -12.1230   26.1772 C   0  0  0  0  0  0  0  0  0  0  0  0
    7.7651  -13.4617   25.9606 C   0  0  0  0  0  0  0  0  0  0  0  0
    9.9651  -16.8706   27.3311 O   0  0  0  0  0  0  0  0  0  0  0  0
    9.3631  -18.0965   27.1558 O   0  0  0  0  0  0  0  0  0  0  0  0
  2  4  1  0
  2  1  1  0
  3  2  2  0
  5  4  1  0
  6  5  1  0
  7  6  1  0
  8  7  1  0
  8  9  1  6
 10  8  1  0
 11 10  2  0
 13 12  1  1
 13 14  1  0
 13 15  1  0
 15 17  1  0
 15 16  1  1
 16 10  1  0
 17 18  2  0
 19 20  1  0
 19 17  1  0
 20 21  1  1
 20 31  1  0
 21 22  1  0
 22 30  1  0
 23 22  2  0
 23 24  1  0
 24 25  1  0
 25 26  1  0
 26 27  2  0
 28 27  1  0
 29 28  2  0
 30 25  2  0
 30 29  1  0
 31 33  2  0
 31 32  1  0
M  END
$$$$
