IGH.pdb
     RDKit          3D

 23 23  0  0  1  0  0  0  0  0999 V2000
    7.7534  -12.3402   18.6909 C   0  0  0  0  0  0  0  0  0  0  0  0
    7.2980  -13.3127   19.7798 C   0  0  0  0  0  0  0  0  0  0  0  0
    8.2025  -14.5100   19.7496 C   0  0  2  0  0  0  0  0  0  0  0  0
    8.1035  -15.2077   18.4101 C   0  0  0  0  0  0  0  0  0  0  0  0
    8.0974  -15.4398   20.8862 C   0  0  2  0  0  0  0  0  0  0  0  0
    7.0401  -15.1543   21.8440 N   0  0  0  0  0  0  0  0  0  0  0  0
    9.2956  -15.9131   21.5590 C   0  0  0  0  0  0  0  0  0  0  0  0
   10.0198  -16.8130   21.0166 O   0  0  0  0  0  0  0  0  0  0  0  0
    9.7205  -15.4312   22.8141 N   0  0  0  0  0  0  0  0  0  0  0  0
   10.9284  -15.9913   23.4358 C   0  0  0  0  0  0  0  0  0  0  0  0
   10.6818  -16.3584   24.8407 C   0  0  0  0  0  0  0  0  0  0  0  0
   11.6130  -16.7457   25.5869 O   0  0  0  0  0  0  0  0  0  0  0  0
    9.3772  -16.2770   25.3685 N   0  0  0  0  0  0  0  0  0  0  0  0
    9.0835  -16.5613   26.7815 C   0  0  1  0  0  0  0  0  0  0  0  0
    7.6477  -16.1952   27.0536 C   0  0  0  0  0  0  0  0  0  0  0  0
    7.4139  -14.7679   26.7729 C   0  0  0  0  0  0  0  0  0  0  0  0
    8.3611  -13.7710   26.5893 C   0  0  0  0  0  0  0  0  0  0  0  0
    7.7252  -12.6220   26.3582 N   0  0  0  0  0  0  0  0  0  0  0  0
    6.4039  -12.8414   26.3860 C   0  0  0  0  0  0  0  0  0  0  0  0
    6.2368  -14.1331   26.6358 N   0  0  0  0  0  0  0  0  0  0  0  0
    9.2724  -18.0063   27.0461 C   0  0  0  0  0  0  0  0  0  0  0  0
    9.4878  -18.5450   28.2998 O   0  0  0  0  0  0  0  0  0  0  0  0
    9.2328  -18.7887   26.0491 O   0  0  0  0  0  0  0  0  0  0  0  0
  1  2  1  0
  2  3  1  0
  3  5  1  0
  3  4  1  6
  5  7  1  0
  5  6  1  1
  7  9  1  0
  7  8  2  0
  9 10  1  0
 10 11  1  0
 11 12  2  0
 13 14  1  0
 13 11  1  0
 14 15  1  6
 16 17  2  0
 16 15  1  0
 18 17  1  0
 19 20  2  0
 19 18  1  0
 20 16  1  0
 21 22  1  0
 21 14  1  0
 23 21  2  0
M  END
$$$$
