IGH.pdb
     RDKit          3D

 23 23  0  0  1  0  0  0  0  0999 V2000
    7.3621  -11.0505   27.3069 C   0  0  0  0  0  0  0  0  0  0  0  0
    7.9147  -12.4578   27.5367 C   0  0  0  0  0  0  0  0  0  0  0  0
    7.2035  -13.3997   26.6095 C   0  0  2  0  0  0  0  0  0  0  0  0
    5.7066  -13.3024   26.8105 C   0  0  0  0  0  0  0  0  0  0  0  0
    7.6871  -14.7902   26.5900 C   0  0  2  0  0  0  0  0  0  0  0  0
    9.0906  -14.9787   26.9237 N   0  0  0  0  0  0  0  0  0  0  0  0
    7.2789  -15.6931   25.5267 C   0  0  0  0  0  0  0  0  0  0  0  0
    7.2376  -16.9511   25.7373 O   0  0  0  0  0  0  0  0  0  0  0  0
    6.9194  -15.2562   24.2352 N   0  0  0  0  0  0  0  0  0  0  0  0
    6.5125  -16.2405   23.2229 C   0  0  0  0  0  0  0  0  0  0  0  0
    7.6067  -16.5117   22.2751 C   0  0  0  0  0  0  0  0  0  0  0  0
    7.4943  -17.3848   21.3812 O   0  0  0  0  0  0  0  0  0  0  0  0
    8.8094  -15.7816   22.3644 N   0  0  0  0  0  0  0  0  0  0  0  0
    9.9767  -16.0870   21.5232 C   0  0  1  0  0  0  0  0  0  0  0  0
   10.3600  -14.8409   20.7682 C   0  0  0  0  0  0  0  0  0  0  0  0
    9.2377  -14.3718   19.9371 C   0  0  0  0  0  0  0  0  0  0  0  0
    8.0922  -15.0696   19.5825 C   0  0  0  0  0  0  0  0  0  0  0  0
    7.3344  -14.2786   18.8223 N   0  0  0  0  0  0  0  0  0  0  0  0
    7.9487  -13.0974   18.6738 C   0  0  0  0  0  0  0  0  0  0  0  0
    9.0877  -13.1722   19.3489 N   0  0  0  0  0  0  0  0  0  0  0  0
   11.1112  -16.5007   22.3808 C   0  0  0  0  0  0  0  0  0  0  0  0
   12.3416  -16.9048   21.9001 O   0  0  0  0  0  0  0  0  0  0  0  0
   10.9281  -16.4794   23.6352 O   0  0  0  0  0  0  0  0  0  0  0  0
  1  2  1  0
  2  3  1  0
  3  5  1  0
  3  4  1  1
  5  7  1  0
  5  6  1  6
  7  9  1  0
  7  8  2  0
  9 10  1  0
 10 11  1  0
 11 12  2  0
 13 14  1  0
 13 11  1  0
 14 15  1  1
 16 17  2  0
 16 15  1  0
 18 17  1  0
 19 20  2  0
 19 18  1  0
 20 16  1  0
 21 22  1  0
 21 14  1  0
 23 21  2  0
M  END
$$$$
