IGH.pdb
     RDKit          3D

 23 23  0  0  1  0  0  0  0  0999 V2000
    7.4037  -11.1330   27.3761 C   0  0  0  0  0  0  0  0  0  0  0  0
    7.5070  -12.6561   27.4674 C   0  0  0  0  0  0  0  0  0  0  0  0
    6.8614  -13.2454   26.2474 C   0  0  2  0  0  0  0  0  0  0  0  0
    5.4624  -12.6937   26.0767 C   0  0  0  0  0  0  0  0  0  0  0  0
    6.9160  -14.7112   26.1201 C   0  0  2  0  0  0  0  0  0  0  0  0
    8.0467  -15.3624   26.7636 N   0  0  0  0  0  0  0  0  0  0  0  0
    6.5999  -15.3489   24.8529 C   0  0  0  0  0  0  0  0  0  0  0  0
    5.7503  -14.8160   24.0638 O   0  0  0  0  0  0  0  0  0  0  0  0
    7.1853  -16.5591   24.4278 N   0  0  0  0  0  0  0  0  0  0  0  0
    6.8299  -17.1157   23.1151 C   0  0  0  0  0  0  0  0  0  0  0  0
    7.9176  -16.9184   22.1418 C   0  0  0  0  0  0  0  0  0  0  0  0
    7.8537  -17.4004   20.9853 O   0  0  0  0  0  0  0  0  0  0  0  0
    9.0584  -16.1746   22.5059 N   0  0  0  0  0  0  0  0  0  0  0  0
   10.2214  -16.0362   21.6161 C   0  0  1  0  0  0  0  0  0  0  0  0
   10.2964  -14.6064   21.1474 C   0  0  0  0  0  0  0  0  0  0  0  0
    9.1694  -14.2941   20.2515 C   0  0  0  0  0  0  0  0  0  0  0  0
    8.1841  -13.3335   20.4273 C   0  0  0  0  0  0  0  0  0  0  0  0
    7.3566  -13.3814   19.3828 N   0  0  0  0  0  0  0  0  0  0  0  0
    7.7719  -14.3370   18.5407 C   0  0  0  0  0  0  0  0  0  0  0  0
    8.8595  -14.8728   19.0782 N   0  0  0  0  0  0  0  0  0  0  0  0
   11.4580  -16.3661   22.3615 C   0  0  0  0  0  0  0  0  0  0  0  0
   11.4891  -16.7236   23.6955 O   0  0  0  0  0  0  0  0  0  0  0  0
   12.5522  -16.3118   21.7232 O   0  0  0  0  0  0  0  0  0  0  0  0
  1  2  1  0
  2  3  1  0
  3  5  1  0
  3  4  1  1
  5  7  1  0
  5  6  1  6
  7  9  1  0
  7  8  2  0
  9 10  1  0
 10 11  1  0
 11 12  2  0
 13 14  1  0
 13 11  1  0
 14 15  1  1
 16 17  2  0
 16 15  1  0
 18 17  1  0
 19 20  2  0
 19 18  1  0
 20 16  1  0
 21 22  1  0
 21 14  1  0
 23 21  2  0
M  END
$$$$
