IGH.pdb
     RDKit          3D

 23 23  0  0  1  0  0  0  0  0999 V2000
    6.8973  -10.6171   27.0304 C   0  0  0  0  0  0  0  0  0  0  0  0
    7.6363  -11.9480   27.1765 C   0  0  0  0  0  0  0  0  0  0  0  0
    6.9518  -12.9639   26.3093 C   0  0  2  0  0  0  0  0  0  0  0  0
    5.5197  -13.1572   26.7594 C   0  0  0  0  0  0  0  0  0  0  0  0
    7.6623  -14.2372   26.1055 C   0  0  2  0  0  0  0  0  0  0  0  0
    9.1044  -14.1395   25.9389 N   0  0  0  0  0  0  0  0  0  0  0  0
    7.1049  -15.2556   25.2311 C   0  0  0  0  0  0  0  0  0  0  0  0
    6.5592  -16.2962   25.7290 O   0  0  0  0  0  0  0  0  0  0  0  0
    7.1335  -15.1684   23.8242 N   0  0  0  0  0  0  0  0  0  0  0  0
    6.6635  -16.3026   23.0168 C   0  0  0  0  0  0  0  0  0  0  0  0
    7.6988  -16.7442   22.0669 C   0  0  0  0  0  0  0  0  0  0  0  0
    7.5012  -17.7072   21.2875 O   0  0  0  0  0  0  0  0  0  0  0  0
    8.9410  -16.0789   22.0237 N   0  0  0  0  0  0  0  0  0  0  0  0
    9.9754  -16.4126   21.0327 C   0  0  1  0  0  0  0  0  0  0  0  0
   10.4341  -15.1379   20.3738 C   0  0  0  0  0  0  0  0  0  0  0  0
    9.3220  -14.4992   19.6486 C   0  0  0  0  0  0  0  0  0  0  0  0
    8.0280  -14.9728   19.4883 C   0  0  0  0  0  0  0  0  0  0  0  0
    7.3412  -14.0879   18.7649 N   0  0  0  0  0  0  0  0  0  0  0  0
    8.1443  -13.0619   18.4533 C   0  0  0  0  0  0  0  0  0  0  0  0
    9.3272  -13.3263   18.9915 N   0  0  0  0  0  0  0  0  0  0  0  0
   11.1279  -17.0467   21.7134 C   0  0  0  0  0  0  0  0  0  0  0  0
   12.2464  -17.5285   21.0614 O   0  0  0  0  0  0  0  0  0  0  0  0
   11.0715  -17.1490   22.9759 O   0  0  0  0  0  0  0  0  0  0  0  0
  1  2  1  0
  2  3  1  0
  3  5  1  0
  3  4  1  1
  5  7  1  0
  5  6  1  6
  7  9  1  0
  7  8  2  0
  9 10  1  0
 10 11  1  0
 11 12  2  0
 13 14  1  0
 13 11  1  0
 14 15  1  1
 16 17  2  0
 16 15  1  0
 18 17  1  0
 19 20  2  0
 19 18  1  0
 20 16  1  0
 21 22  1  0
 21 14  1  0
 23 21  2  0
M  END
$$$$
