IGH.pdb
     RDKit          3D

 23 23  0  0  1  0  0  0  0  0999 V2000
    7.2218  -11.2474   26.6099 C   0  0  0  0  0  0  0  0  0  0  0  0
    7.1074  -12.6531   27.2011 C   0  0  0  0  0  0  0  0  0  0  0  0
    7.1903  -13.6444   26.0771 C   0  0  2  0  0  0  0  0  0  0  0  0
    6.1387  -13.3405   25.0319 C   0  0  0  0  0  0  0  0  0  0  0  0
    7.2217  -15.0662   26.4580 C   0  0  2  0  0  0  0  0  0  0  0  0
    7.9825  -15.3855   27.6563 N   0  0  0  0  0  0  0  0  0  0  0  0
    7.3926  -16.0929   25.4436 C   0  0  0  0  0  0  0  0  0  0  0  0
    8.3685  -16.9115   25.5211 O   0  0  0  0  0  0  0  0  0  0  0  0
    6.5261  -16.2447   24.3417 N   0  0  0  0  0  0  0  0  0  0  0  0
    6.6703  -17.4114   23.4601 C   0  0  0  0  0  0  0  0  0  0  0  0
    7.8308  -17.2617   22.5657 C   0  0  0  0  0  0  0  0  0  0  0  0
    8.0728  -18.1007   21.6649 O   0  0  0  0  0  0  0  0  0  0  0  0
    8.6942  -16.1574   22.7155 N   0  0  0  0  0  0  0  0  0  0  0  0
    9.9003  -15.9871   21.8909 C   0  0  1  0  0  0  0  0  0  0  0  0
    9.9655  -14.5541   21.4309 C   0  0  0  0  0  0  0  0  0  0  0  0
    8.9200  -14.2824   20.4292 C   0  0  0  0  0  0  0  0  0  0  0  0
    8.0049  -15.1757   19.8912 C   0  0  0  0  0  0  0  0  0  0  0  0
    7.2376  -14.5204   19.0196 N   0  0  0  0  0  0  0  0  0  0  0  0
    7.6241  -13.2384   18.9758 C   0  0  0  0  0  0  0  0  0  0  0  0
    8.6333  -13.1149   19.8272 N   0  0  0  0  0  0  0  0  0  0  0  0
   11.1021  -16.2897   22.7020 C   0  0  0  0  0  0  0  0  0  0  0  0
   11.0667  -16.6940   24.0224 O   0  0  0  0  0  0  0  0  0  0  0  0
   12.2300  -16.1645   22.1367 O   0  0  0  0  0  0  0  0  0  0  0  0
  1  2  1  0
  2  3  1  0
  3  5  1  0
  3  4  1  6
  5  7  1  0
  5  6  1  1
  7  9  1  0
  7  8  2  0
  9 10  1  0
 10 11  1  0
 11 12  2  0
 13 14  1  0
 13 11  1  0
 14 15  1  1
 16 17  2  0
 16 15  1  0
 18 17  1  0
 19 20  2  0
 19 18  1  0
 20 16  1  0
 21 22  1  0
 21 14  1  0
 23 21  2  0
M  END
$$$$
