IGH.pdb
     RDKit          3D

 23 23  0  0  1  0  0  0  0  0999 V2000
    7.2256  -10.4271   26.2828 C   0  0  0  0  0  0  0  0  0  0  0  0
    7.8124  -11.7519   26.7718 C   0  0  0  0  0  0  0  0  0  0  0  0
    7.1645  -12.8660   26.0027 C   0  0  2  0  0  0  0  0  0  0  0  0
    5.6762  -12.8956   26.2769 C   0  0  0  0  0  0  0  0  0  0  0  0
    7.7919  -14.1930   26.1169 C   0  0  2  0  0  0  0  0  0  0  0  0
    9.2467  -14.2094   26.1130 N   0  0  0  0  0  0  0  0  0  0  0  0
    7.2563  -15.3230   25.3762 C   0  0  0  0  0  0  0  0  0  0  0  0
    6.1810  -15.8898   25.7646 O   0  0  0  0  0  0  0  0  0  0  0  0
    7.8699  -15.8538   24.2230 N   0  0  0  0  0  0  0  0  0  0  0  0
    7.3049  -17.0515   23.5861 C   0  0  0  0  0  0  0  0  0  0  0  0
    8.1469  -18.2338   23.8360 C   0  0  0  0  0  0  0  0  0  0  0  0
    7.8152  -19.3704   23.4214 O   0  0  0  0  0  0  0  0  0  0  0  0
    9.3521  -18.0976   24.5545 N   0  0  0  0  0  0  0  0  0  0  0  0
   10.2676  -19.2281   24.7723 C   0  0  1  0  0  0  0  0  0  0  0  0
   11.6342  -18.8389   24.2717 C   0  0  0  0  0  0  0  0  0  0  0  0
   11.5830  -18.4903   22.8412 C   0  0  0  0  0  0  0  0  0  0  0  0
   10.8348  -19.0986   21.8439 C   0  0  0  0  0  0  0  0  0  0  0  0
   11.0809  -18.4745   20.6915 N   0  0  0  0  0  0  0  0  0  0  0  0
   11.9596  -17.4870   20.9091 C   0  0  0  0  0  0  0  0  0  0  0  0
   12.2488  -17.5120   22.2031 N   0  0  0  0  0  0  0  0  0  0  0  0
   10.3503  -19.5271   26.2206 C   0  0  0  0  0  0  0  0  0  0  0  0
   10.9837  -20.6346   26.7503 O   0  0  0  0  0  0  0  0  0  0  0  0
    9.7993  -18.7066   27.0147 O   0  0  0  0  0  0  0  0  0  0  0  0
  1  2  1  0
  2  3  1  0
  3  5  1  0
  3  4  1  1
  5  7  1  0
  5  6  1  6
  7  9  1  0
  7  8  2  0
  9 10  1  0
 10 11  1  0
 11 12  2  0
 13 14  1  0
 13 11  1  0
 14 15  1  1
 16 17  2  0
 16 15  1  0
 18 17  1  0
 19 20  2  0
 19 18  1  0
 20 16  1  0
 21 22  1  0
 21 14  1  0
 23 21  2  0
M  END
$$$$
