ESI.pdb
     RDKit          3D

 24 23  0  0  1  0  0  0  0  0999 V2000
    7.5698  -20.0492   20.1816 N   0  0  0  0  0  0  0  0  0  0  0  0
    8.2490  -18.7225   20.1439 C   0  0  1  0  0  0  0  0  0  0  0  0
    7.9644  -18.2029   18.7757 C   0  0  0  0  0  0  0  0  0  0  0  0
    8.8788  -17.1747   18.2240 C   0  0  0  0  0  0  0  0  0  0  0  0
    9.6769  -17.6953   17.0862 C   0  0  0  0  0  0  0  0  0  0  0  0
   10.6684  -18.4570   17.2259 O   0  0  0  0  0  0  0  0  0  0  0  0
    7.6434  -17.9578   21.2444 C   0  0  0  0  0  0  0  0  0  0  0  0
    6.7176  -17.1222   20.9671 O   0  0  0  0  0  0  0  0  0  0  0  0
    9.3031  -17.3174   15.7675 O   0  0  0  0  0  0  0  0  0  0  0  0
    7.7102  -18.9560   25.2114 O   0  0  0  0  0  0  0  0  0  0  0  0
    6.6427  -18.2689   24.6302 C   0  0  0  0  0  0  0  0  0  0  0  0
    7.2291  -17.3135   23.6325 C   0  0  2  0  0  0  0  0  0  0  0  0
    7.9865  -18.0564   22.6211 N   0  0  0  0  0  0  0  0  0  0  0  0
    8.1367  -16.3393   24.2820 C   0  0  0  0  0  0  0  0  0  0  0  0
    9.3725  -16.4670   24.1779 O   0  0  0  0  0  0  0  0  0  0  0  0
    5.9110  -11.7742   26.9973 C   0  0  0  0  0  0  0  0  0  0  0  0
    6.5838  -13.0984   26.7059 C   0  0  0  0  0  0  0  0  0  0  0  0
    7.8045  -12.9419   25.8560 C   0  0  2  0  0  0  0  0  0  0  0  0
    7.4991  -12.4317   24.4741 C   0  0  0  0  0  0  0  0  0  0  0  0
    8.4946  -14.2908   25.7244 C   0  0  2  0  0  0  0  0  0  0  0  0
    7.6432  -15.2378   25.0369 N   0  0  0  0  0  0  0  0  0  0  0  0
    8.8859  -14.8236   27.0551 C   0  0  0  0  0  0  0  0  0  0  0  0
    9.7439  -14.2585   27.7950 O   0  0  0  0  0  0  0  0  0  0  0  0
    8.3192  -15.9849   27.5589 O   0  0  0  0  0  0  0  0  0  0  0  0
  2  1  1  6
  3  2  1  0
  4  3  1  0
  5  4  1  0
  6  5  2  0
  7  2  1  0
  8  7  2  0
  9  5  1  0
 10 11  1  0
 12 11  1  1
 12 14  1  0
 12 13  1  0
 13  7  1  0
 14 21  1  0
 15 14  2  0
 17 16  1  0
 18 20  1  0
 18 17  1  0
 18 19  1  6
 20 22  1  0
 20 21  1  1
 22 23  2  0
 22 24  1  0
M  END
$$$$
