ESI.pdb
     RDKit          3D

 24 23  0  0  1  0  0  0  0  0999 V2000
    8.9736  -18.4433   19.3504 N   0  0  0  0  0  0  0  0  0  0  0  0
    9.3732  -18.9985   20.6752 C   0  0  1  0  0  0  0  0  0  0  0  0
   10.8558  -18.8436   20.7062 C   0  0  0  0  0  0  0  0  0  0  0  0
   11.4053  -17.4669   20.7297 C   0  0  0  0  0  0  0  0  0  0  0  0
   12.8891  -17.4625   20.7606 C   0  0  0  0  0  0  0  0  0  0  0  0
   13.6035  -17.8812   19.8135 O   0  0  0  0  0  0  0  0  0  0  0  0
    8.6368  -18.1914   21.6596 C   0  0  0  0  0  0  0  0  0  0  0  0
    8.2526  -17.0209   21.3211 O   0  0  0  0  0  0  0  0  0  0  0  0
   13.5410  -16.9575   21.9188 O   0  0  0  0  0  0  0  0  0  0  0  0
    7.4095  -19.3160   25.5349 O   0  0  0  0  0  0  0  0  0  0  0  0
    6.5543  -18.6287   24.6712 C   0  0  0  0  0  0  0  0  0  0  0  0
    7.4159  -17.7557   23.8064 C   0  0  2  0  0  0  0  0  0  0  0  0
    8.2956  -18.5891   22.9817 N   0  0  0  0  0  0  0  0  0  0  0  0
    8.2538  -16.8437   24.6193 C   0  0  0  0  0  0  0  0  0  0  0  0
    9.4758  -17.0576   24.7432 O   0  0  0  0  0  0  0  0  0  0  0  0
    5.8862  -11.9895   25.8316 C   0  0  0  0  0  0  0  0  0  0  0  0
    6.8771  -13.0490   25.3998 C   0  0  0  0  0  0  0  0  0  0  0  0
    7.6349  -13.6240   26.5539 C   0  0  2  0  0  0  0  0  0  0  0  0
    8.5315  -12.6219   27.2283 C   0  0  0  0  0  0  0  0  0  0  0  0
    8.4952  -14.7762   26.0588 C   0  0  2  0  0  0  0  0  0  0  0  0
    7.7074  -15.7068   25.2793 N   0  0  0  0  0  0  0  0  0  0  0  0
    9.1498  -15.4804   27.1917 C   0  0  0  0  0  0  0  0  0  0  0  0
    8.5823  -16.4047   27.8449 O   0  0  0  0  0  0  0  0  0  0  0  0
   10.4364  -15.1537   27.5936 O   0  0  0  0  0  0  0  0  0  0  0  0
  2  1  1  6
  3  2  1  0
  4  3  1  0
  5  4  1  0
  6  5  2  0
  7  2  1  0
  8  7  2  0
  9  5  1  0
 10 11  1  0
 12 11  1  1
 12 14  1  0
 12 13  1  0
 13  7  1  0
 14 21  1  0
 15 14  2  0
 17 16  1  0
 18 20  1  0
 18 17  1  0
 18 19  1  6
 20 22  1  0
 20 21  1  1
 22 23  2  0
 22 24  1  0
M  END
$$$$
