ESI.pdb
     RDKit          3D

 24 23  0  0  1  0  0  0  0  0999 V2000
   10.3265  -19.0736   20.3404 N   0  0  0  0  0  0  0  0  0  0  0  0
   10.1430  -17.6493   19.9394 C   0  0  1  0  0  0  0  0  0  0  0  0
    9.5704  -17.7257   18.5649 C   0  0  0  0  0  0  0  0  0  0  0  0
   10.1388  -16.8294   17.5298 C   0  0  0  0  0  0  0  0  0  0  0  0
   10.7293  -17.5904   16.4007 C   0  0  0  0  0  0  0  0  0  0  0  0
   11.8611  -18.1375   16.4501 O   0  0  0  0  0  0  0  0  0  0  0  0
    9.2499  -17.0823   20.9610 C   0  0  0  0  0  0  0  0  0  0  0  0
    8.9459  -15.8439   20.8834 O   0  0  0  0  0  0  0  0  0  0  0  0
    9.9786  -17.7116   15.1994 O   0  0  0  0  0  0  0  0  0  0  0  0
    7.6178  -19.0051   24.3089 O   0  0  0  0  0  0  0  0  0  0  0  0
    6.7978  -18.1716   23.5456 C   0  0  0  0  0  0  0  0  0  0  0  0
    7.6870  -17.1363   22.9215 C   0  0  2  0  0  0  0  0  0  0  0  0
    8.6713  -17.7873   22.0522 N   0  0  0  0  0  0  0  0  0  0  0  0
    8.4096  -16.3505   23.9487 C   0  0  0  0  0  0  0  0  0  0  0  0
    9.6350  -16.5102   24.1138 O   0  0  0  0  0  0  0  0  0  0  0  0
    6.0526  -11.6818   25.6079 C   0  0  0  0  0  0  0  0  0  0  0  0
    7.0930  -12.7103   25.2195 C   0  0  0  0  0  0  0  0  0  0  0  0
    7.5037  -13.5685   26.3734 C   0  0  2  0  0  0  0  0  0  0  0  0
    8.2646  -12.8129   27.4285 C   0  0  0  0  0  0  0  0  0  0  0  0
    8.3876  -14.6963   25.8640 C   0  0  2  0  0  0  0  0  0  0  0  0
    7.7460  -15.3985   24.7733 N   0  0  0  0  0  0  0  0  0  0  0  0
    8.7276  -15.6447   26.9561 C   0  0  0  0  0  0  0  0  0  0  0  0
    7.9642  -16.5931   27.3036 O   0  0  0  0  0  0  0  0  0  0  0  0
    9.9187  -15.5347   27.6583 O   0  0  0  0  0  0  0  0  0  0  0  0
  2  1  1  1
  3  2  1  0
  4  3  1  0
  5  4  1  0
  6  5  2  0
  7  2  1  0
  8  7  2  0
  9  5  1  0
 10 11  1  0
 12 11  1  1
 12 14  1  0
 12 13  1  0
 13  7  1  0
 14 21  1  0
 15 14  2  0
 17 16  1  0
 18 20  1  0
 18 17  1  0
 18 19  1  1
 20 22  1  0
 20 21  1  6
 22 23  2  0
 22 24  1  0
M  END
$$$$
