ESI.pdb
     RDKit          3D

 24 23  0  0  1  0  0  0  0  0999 V2000
    9.6010  -18.9124   20.1108 N   0  0  0  0  0  0  0  0  0  0  0  0
    9.7709  -17.4382   19.9672 C   0  0  1  0  0  0  0  0  0  0  0  0
    9.3794  -17.1592   18.5558 C   0  0  0  0  0  0  0  0  0  0  0  0
    9.4064  -18.2888   17.5961 C   0  0  0  0  0  0  0  0  0  0  0  0
    8.9874  -17.8704   16.2352 C   0  0  0  0  0  0  0  0  0  0  0  0
    9.6707  -17.1093   15.5027 O   0  0  0  0  0  0  0  0  0  0  0  0
    8.8892  -16.8559   20.9901 C   0  0  0  0  0  0  0  0  0  0  0  0
    8.6104  -15.6113   20.9158 O   0  0  0  0  0  0  0  0  0  0  0  0
    7.7504  -18.3548   15.7285 O   0  0  0  0  0  0  0  0  0  0  0  0
    7.2429  -18.6799   24.4429 O   0  0  0  0  0  0  0  0  0  0  0  0
    6.4565  -17.8597   23.6314 C   0  0  0  0  0  0  0  0  0  0  0  0
    7.3791  -16.8635   22.9924 C   0  0  2  0  0  0  0  0  0  0  0  0
    8.2961  -17.5519   22.0793 N   0  0  0  0  0  0  0  0  0  0  0  0
    8.1782  -16.1356   24.0054 C   0  0  0  0  0  0  0  0  0  0  0  0
    9.3799  -16.4188   24.1786 O   0  0  0  0  0  0  0  0  0  0  0  0
    5.7100  -12.0993   27.3784 C   0  0  0  0  0  0  0  0  0  0  0  0
    6.4291  -13.3575   26.9412 C   0  0  0  0  0  0  0  0  0  0  0  0
    7.6638  -13.0621   26.1505 C   0  0  2  0  0  0  0  0  0  0  0  0
    7.3808  -12.3303   24.8670 C   0  0  0  0  0  0  0  0  0  0  0  0
    8.3604  -14.3703   25.8098 C   0  0  2  0  0  0  0  0  0  0  0  0
    7.6164  -15.1018   24.8069 N   0  0  0  0  0  0  0  0  0  0  0  0
    8.5487  -15.2079   27.0225 C   0  0  0  0  0  0  0  0  0  0  0  0
    7.8826  -16.2629   27.2378 O   0  0  0  0  0  0  0  0  0  0  0  0
    9.4800  -14.8684   27.9926 O   0  0  0  0  0  0  0  0  0  0  0  0
  2  1  1  6
  3  2  1  0
  4  3  1  0
  5  4  1  0
  6  5  2  0
  7  2  1  0
  8  7  2  0
  9  5  1  0
 10 11  1  0
 12 11  1  1
 12 14  1  0
 12 13  1  0
 13  7  1  0
 14 21  1  0
 15 14  2  0
 17 16  1  0
 18 20  1  0
 18 17  1  0
 18 19  1  6
 20 22  1  0
 20 21  1  6
 22 23  2  0
 22 24  1  0
M  END
$$$$
