ESI.pdb
     RDKit          3D

 24 23  0  0  1  0  0  0  0  0999 V2000
    9.8381  -17.6709   19.5566 N   0  0  0  0  0  0  0  0  0  0  0  0
    9.2922  -16.2899   19.4230 C   0  0  1  0  0  0  0  0  0  0  0  0
    8.6049  -16.2932   18.0999 C   0  0  0  0  0  0  0  0  0  0  0  0
    8.9776  -17.3519   17.1314 C   0  0  0  0  0  0  0  0  0  0  0  0
    8.1459  -17.2977   15.9033 C   0  0  0  0  0  0  0  0  0  0  0  0
    8.2311  -18.1378   14.9707 O   0  0  0  0  0  0  0  0  0  0  0  0
    8.4110  -16.1187   20.5878 C   0  0  0  0  0  0  0  0  0  0  0  0
    7.7764  -15.0171   20.7137 O   0  0  0  0  0  0  0  0  0  0  0  0
    7.2007  -16.2439   15.7712 O   0  0  0  0  0  0  0  0  0  0  0  0
    7.7728  -18.8354   23.7005 O   0  0  0  0  0  0  0  0  0  0  0  0
    6.7167  -18.0113   23.3064 C   0  0  0  0  0  0  0  0  0  0  0  0
    7.3248  -16.7541   22.7571 C   0  0  2  0  0  0  0  0  0  0  0  0
    8.1825  -17.0773   21.6133 N   0  0  0  0  0  0  0  0  0  0  0  0
    8.1404  -16.0547   23.7771 C   0  0  0  0  0  0  0  0  0  0  0  0
    9.3758  -16.2187   23.8131 O   0  0  0  0  0  0  0  0  0  0  0  0
    5.7975  -11.6189   26.0168 C   0  0  0  0  0  0  0  0  0  0  0  0
    6.7769  -12.6014   25.4113 C   0  0  0  0  0  0  0  0  0  0  0  0
    7.4572  -13.4387   26.4471 C   0  0  2  0  0  0  0  0  0  0  0  0
    8.3385  -12.6381   27.3666 C   0  0  0  0  0  0  0  0  0  0  0  0
    8.3166  -14.4849   25.7544 C   0  0  2  0  0  0  0  0  0  0  0  0
    7.5569  -15.1827   24.7394 N   0  0  0  0  0  0  0  0  0  0  0  0
    8.8752  -15.4524   26.7340 C   0  0  0  0  0  0  0  0  0  0  0  0
    8.2541  -16.4928   27.1011 O   0  0  0  0  0  0  0  0  0  0  0  0
   10.1257  -15.2589   27.3017 O   0  0  0  0  0  0  0  0  0  0  0  0
  2  1  1  1
  3  2  1  0
  4  3  1  0
  5  4  1  0
  6  5  2  0
  7  2  1  0
  8  7  2  0
  9  5  1  0
 10 11  1  0
 12 11  1  1
 12 14  1  0
 12 13  1  0
 13  7  1  0
 14 21  1  0
 15 14  2  0
 17 16  1  0
 18 20  1  0
 18 17  1  0
 18 19  1  1
 20 22  1  0
 20 21  1  6
 22 23  2  0
 22 24  1  0
M  END
$$$$
