ESI.pdb
     RDKit          3D

 24 23  0  0  1  0  0  0  0  0999 V2000
    8.7368  -13.8123   18.5170 N   0  0  0  0  0  0  0  0  0  0  0  0
    9.3242  -14.9546   19.2740 C   0  0  1  0  0  0  0  0  0  0  0  0
   10.7464  -14.5612   19.4875 C   0  0  0  0  0  0  0  0  0  0  0  0
   11.7020  -14.7995   18.3795 C   0  0  0  0  0  0  0  0  0  0  0  0
   13.0900  -14.4327   18.7557 C   0  0  0  0  0  0  0  0  0  0  0  0
   13.6841  -13.4176   18.3091 O   0  0  0  0  0  0  0  0  0  0  0  0
    8.5106  -15.0556   20.4950 C   0  0  0  0  0  0  0  0  0  0  0  0
    8.0231  -13.9841   20.9913 O   0  0  0  0  0  0  0  0  0  0  0  0
   13.7874  -15.2686   19.6703 O   0  0  0  0  0  0  0  0  0  0  0  0
    6.0761  -17.4983   23.8587 O   0  0  0  0  0  0  0  0  0  0  0  0
    6.8171  -17.5881   22.6786 C   0  0  0  0  0  0  0  0  0  0  0  0
    7.3515  -16.2153   22.3926 C   0  0  2  0  0  0  0  0  0  0  0  0
    8.1986  -16.2524   21.1970 N   0  0  0  0  0  0  0  0  0  0  0  0
    8.1545  -15.6982   23.5252 C   0  0  0  0  0  0  0  0  0  0  0  0
    9.3877  -15.8790   23.5542 O   0  0  0  0  0  0  0  0  0  0  0  0
    5.8097  -12.1555   27.4586 C   0  0  0  0  0  0  0  0  0  0  0  0
    6.3615  -13.3796   26.7599 C   0  0  0  0  0  0  0  0  0  0  0  0
    7.7327  -13.1505   26.2082 C   0  0  2  0  0  0  0  0  0  0  0  0
    7.7491  -12.1915   25.0493 C   0  0  0  0  0  0  0  0  0  0  0  0
    8.3067  -14.4777   25.7370 C   0  0  2  0  0  0  0  0  0  0  0  0
    7.5609  -14.9867   24.6060 N   0  0  0  0  0  0  0  0  0  0  0  0
    8.3175  -15.4766   26.8369 C   0  0  0  0  0  0  0  0  0  0  0  0
    8.9976  -15.3257   27.8941 O   0  0  0  0  0  0  0  0  0  0  0  0
    7.5691  -16.6416   26.7566 O   0  0  0  0  0  0  0  0  0  0  0  0
  2  1  1  6
  3  2  1  0
  4  3  1  0
  5  4  1  0
  6  5  2  0
  7  2  1  0
  8  7  2  0
  9  5  1  0
 10 11  1  0
 12 11  1  1
 12 14  1  0
 12 13  1  0
 13  7  1  0
 14 21  1  0
 15 14  2  0
 17 16  1  0
 18 20  1  0
 18 17  1  0
 18 19  1  6
 20 22  1  0
 20 21  1  6
 22 23  2  0
 22 24  1  0
M  END
$$$$
