ESI.pdb
     RDKit          3D

 24 23  0  0  1  0  0  0  0  0999 V2000
    8.6119  -18.7199   19.3696 N   0  0  0  0  0  0  0  0  0  0  0  0
    9.4128  -18.6601   20.6257 C   0  0  1  0  0  0  0  0  0  0  0  0
   10.7133  -18.0651   20.2040 C   0  0  0  0  0  0  0  0  0  0  0  0
   11.5562  -18.8436   19.2652 C   0  0  0  0  0  0  0  0  0  0  0  0
   12.8805  -18.2085   19.0519 C   0  0  0  0  0  0  0  0  0  0  0  0
   13.9368  -18.6038   19.6092 O   0  0  0  0  0  0  0  0  0  0  0  0
    8.6131  -17.8351   21.5436 C   0  0  0  0  0  0  0  0  0  0  0  0
    8.2021  -16.6962   21.1362 O   0  0  0  0  0  0  0  0  0  0  0  0
   12.9642  -17.0960   18.1705 O   0  0  0  0  0  0  0  0  0  0  0  0
    7.2979  -18.6880   25.5211 O   0  0  0  0  0  0  0  0  0  0  0  0
    6.4860  -18.1012   24.5485 C   0  0  0  0  0  0  0  0  0  0  0  0
    7.3840  -17.2904   23.6607 C   0  0  2  0  0  0  0  0  0  0  0  0
    8.2365  -18.1830   22.8701 N   0  0  0  0  0  0  0  0  0  0  0  0
    8.2510  -16.3832   24.4481 C   0  0  0  0  0  0  0  0  0  0  0  0
    9.4475  -16.6730   24.6451 O   0  0  0  0  0  0  0  0  0  0  0  0
    6.0585  -11.5760   26.8626 C   0  0  0  0  0  0  0  0  0  0  0  0
    6.6939  -12.9407   26.7041 C   0  0  0  0  0  0  0  0  0  0  0  0
    7.9433  -12.8951   25.8833 C   0  0  2  0  0  0  0  0  0  0  0  0
    7.7048  -12.4329   24.4717 C   0  0  0  0  0  0  0  0  0  0  0  0
    8.5554  -14.2864   25.8323 C   0  0  2  0  0  0  0  0  0  0  0  0
    7.7618  -15.1660   25.0010 N   0  0  0  0  0  0  0  0  0  0  0  0
    8.6978  -14.8586   27.1962 C   0  0  0  0  0  0  0  0  0  0  0  0
    9.4974  -14.3880   28.0576 O   0  0  0  0  0  0  0  0  0  0  0  0
    7.9475  -15.9539   27.5976 O   0  0  0  0  0  0  0  0  0  0  0  0
  2  1  1  6
  3  2  1  0
  4  3  1  0
  5  4  1  0
  6  5  2  0
  7  2  1  0
  8  7  2  0
  9  5  1  0
 10 11  1  0
 12 11  1  1
 12 14  1  0
 12 13  1  0
 13  7  1  0
 14 21  1  0
 15 14  2  0
 17 16  1  0
 18 20  1  0
 18 17  1  0
 18 19  1  6
 20 22  1  0
 20 21  1  6
 22 23  2  0
 22 24  1  0
M  END
$$$$
