ESI.pdb
     RDKit          3D

 24 23  0  0  1  0  0  0  0  0999 V2000
    9.2507  -18.9776   20.1616 N   0  0  0  0  0  0  0  0  0  0  0  0
    8.9430  -17.5553   19.8368 C   0  0  1  0  0  0  0  0  0  0  0  0
    8.1237  -17.6315   18.5934 C   0  0  0  0  0  0  0  0  0  0  0  0
    8.0388  -16.4170   17.7476 C   0  0  0  0  0  0  0  0  0  0  0  0
    8.0175  -16.7490   16.3012 C   0  0  0  0  0  0  0  0  0  0  0  0
    7.0175  -17.2411   15.7174 O   0  0  0  0  0  0  0  0  0  0  0  0
    8.2394  -17.0420   21.0218 C   0  0  0  0  0  0  0  0  0  0  0  0
    7.9045  -15.8093   21.0438 O   0  0  0  0  0  0  0  0  0  0  0  0
    9.1857  -16.4970   15.5310 O   0  0  0  0  0  0  0  0  0  0  0  0
    7.4332  -19.0955   24.5272 O   0  0  0  0  0  0  0  0  0  0  0  0
    6.4200  -18.2586   24.0555 C   0  0  0  0  0  0  0  0  0  0  0  0
    7.0827  -17.1854   23.2424 C   0  0  2  0  0  0  0  0  0  0  0  0
    7.8802  -17.7944   22.1739 N   0  0  0  0  0  0  0  0  0  0  0  0
    7.9728  -16.3441   24.0759 C   0  0  0  0  0  0  0  0  0  0  0  0
    9.2097  -16.4882   24.0158 O   0  0  0  0  0  0  0  0  0  0  0  0
    5.6964  -11.7527   26.0689 C   0  0  0  0  0  0  0  0  0  0  0  0
    6.7046  -12.7064   25.4646 C   0  0  0  0  0  0  0  0  0  0  0  0
    7.4694  -13.4607   26.5052 C   0  0  2  0  0  0  0  0  0  0  0  0
    8.4028  -12.5879   27.2991 C   0  0  0  0  0  0  0  0  0  0  0  0
    8.2919  -14.5460   25.8281 C   0  0  2  0  0  0  0  0  0  0  0  0
    7.4607  -15.3548   24.9624 N   0  0  0  0  0  0  0  0  0  0  0  0
    8.9760  -15.4030   26.8309 C   0  0  0  0  0  0  0  0  0  0  0  0
   10.1469  -15.1668   27.2505 O   0  0  0  0  0  0  0  0  0  0  0  0
    8.3528  -16.5211   27.3648 O   0  0  0  0  0  0  0  0  0  0  0  0
  2  1  1  1
  3  2  1  0
  4  3  1  0
  5  4  1  0
  6  5  2  0
  7  2  1  0
  8  7  2  0
  9  5  1  0
 10 11  1  0
 12 11  1  1
 12 14  1  0
 12 13  1  0
 13  7  1  0
 14 21  1  0
 15 14  2  0
 17 16  1  0
 18 20  1  0
 18 17  1  0
 18 19  1  6
 20 22  1  0
 20 21  1  1
 22 23  2  0
 22 24  1  0
M  END
$$$$
