ESI.pdb
     RDKit          3D

 24 23  0  0  1  0  0  0  0  0999 V2000
    8.6107  -17.9371   19.3593 N   0  0  0  0  0  0  0  0  0  0  0  0
    8.9659  -18.6179   20.6372 C   0  0  1  0  0  0  0  0  0  0  0  0
   10.4511  -18.5094   20.7107 C   0  0  0  0  0  0  0  0  0  0  0  0
   11.1136  -17.5081   19.8410 C   0  0  0  0  0  0  0  0  0  0  0  0
   12.5855  -17.4957   20.0313 C   0  0  0  0  0  0  0  0  0  0  0  0
   13.4007  -17.8922   19.1589 O   0  0  0  0  0  0  0  0  0  0  0  0
    8.2304  -17.8794   21.6747 C   0  0  0  0  0  0  0  0  0  0  0  0
    7.9780  -16.6426   21.4775 O   0  0  0  0  0  0  0  0  0  0  0  0
   13.1054  -17.0088   21.2618 O   0  0  0  0  0  0  0  0  0  0  0  0
    7.0672  -19.2188   25.4630 O   0  0  0  0  0  0  0  0  0  0  0  0
    6.1385  -18.4953   24.7122 C   0  0  0  0  0  0  0  0  0  0  0  0
    6.9198  -17.6010   23.7947 C   0  0  2  0  0  0  0  0  0  0  0  0
    7.7550  -18.4125   22.9045 N   0  0  0  0  0  0  0  0  0  0  0  0
    7.7953  -16.6770   24.5526 C   0  0  0  0  0  0  0  0  0  0  0  0
    9.0306  -16.8457   24.5578 O   0  0  0  0  0  0  0  0  0  0  0  0
    6.9460  -11.8883   24.9461 C   0  0  0  0  0  0  0  0  0  0  0  0
    6.3181  -13.0444   25.6947 C   0  0  0  0  0  0  0  0  0  0  0  0
    7.2295  -13.6099   26.7369 C   0  0  2  0  0  0  0  0  0  0  0  0
    8.1491  -12.5815   27.3367 C   0  0  0  0  0  0  0  0  0  0  0  0
    8.0810  -14.7039   26.1116 C   0  0  2  0  0  0  0  0  0  0  0  0
    7.2709  -15.5790   25.2915 N   0  0  0  0  0  0  0  0  0  0  0  0
    8.7927  -15.4892   27.1531 C   0  0  0  0  0  0  0  0  0  0  0  0
    8.2916  -16.5146   27.7011 O   0  0  0  0  0  0  0  0  0  0  0  0
   10.0623  -15.1303   27.5810 O   0  0  0  0  0  0  0  0  0  0  0  0
  2  1  1  6
  3  2  1  0
  4  3  1  0
  5  4  1  0
  6  5  2  0
  7  2  1  0
  8  7  2  0
  9  5  1  0
 10 11  1  0
 12 11  1  1
 12 14  1  0
 12 13  1  0
 13  7  1  0
 14 21  1  0
 15 14  2  0
 17 16  1  0
 18 20  1  0
 18 17  1  0
 18 19  1  6
 20 22  1  0
 20 21  1  1
 22 23  2  0
 22 24  1  0
M  END
$$$$
