ELW.pdb
     RDKit          3D

 32 33  0  0  1  0  0  0  0  0999 V2000
    9.7193  -18.8949   19.4134 N   0  0  0  0  0  0  0  0  0  0  0  0
   11.0450  -18.3004   19.6171 C   0  0  1  0  0  0  0  0  0  0  0  0
   11.8191  -18.2240   18.3492 C   0  0  0  0  0  0  0  0  0  0  0  0
   11.2766  -19.0483   17.2261 C   0  0  0  0  0  0  0  0  0  0  0  0
   12.4074  -19.4529   16.3554 C   0  0  0  0  0  0  0  0  0  0  0  0
   12.5359  -20.6238   15.9193 O   0  0  0  0  0  0  0  0  0  0  0  0
   10.8997  -17.0332   20.3358 C   0  0  0  0  0  0  0  0  0  0  0  0
   11.9233  -16.3748   20.6323 O   0  0  0  0  0  0  0  0  0  0  0  0
   13.3582  -18.5129   16.0076 O   0  0  0  0  0  0  0  0  0  0  0  0
    8.5213  -12.8223   19.9448 C   0  0  0  0  0  0  0  0  0  0  0  0
    7.7192  -14.1386   20.0831 C   0  0  2  0  0  0  0  0  0  0  0  0
    6.2797  -13.7807   19.9439 C   0  0  0  0  0  0  0  0  0  0  0  0
    8.1278  -14.7385   21.3690 C   0  0  0  0  0  0  0  0  0  0  0  0
    9.5251  -15.2494   21.4892 C   0  0  2  0  0  0  0  0  0  0  0  0
    9.6392  -16.5128   20.7163 N   0  0  0  0  0  0  0  0  0  0  0  0
   10.0073  -15.5228   22.8425 C   0  0  0  0  0  0  0  0  0  0  0  0
   10.9396  -14.7756   23.3086 O   0  0  0  0  0  0  0  0  0  0  0  0
    9.5651  -16.5242   23.7207 N   0  0  0  0  0  0  0  0  0  0  0  0
   10.0114  -16.6846   25.1052 C   0  0  1  0  0  0  0  0  0  0  0  0
    9.8046  -15.4569   25.8880 C   0  0  0  0  0  0  0  0  0  0  0  0
    8.4106  -14.9943   25.9081 C   0  0  0  0  0  0  0  0  0  0  0  0
    7.2697  -15.7713   25.6446 C   0  0  0  0  0  0  0  0  0  0  0  0
    6.1868  -14.9865   25.7293 N   0  0  0  0  0  0  0  0  0  0  0  0
    6.5225  -13.7207   26.0364 C   0  0  0  0  0  0  0  0  0  0  0  0
    5.7742  -12.5646   26.2495 C   0  0  0  0  0  0  0  0  0  0  0  0
    6.3915  -11.3811   26.5820 C   0  0  0  0  0  0  0  0  0  0  0  0
    7.7648  -11.3817   26.6957 C   0  0  0  0  0  0  0  0  0  0  0  0
    8.5073  -12.5238   26.4847 C   0  0  0  0  0  0  0  0  0  0  0  0
    7.8968  -13.7193   26.1485 C   0  0  0  0  0  0  0  0  0  0  0  0
    9.5092  -17.8885   25.7240 C   0  0  0  0  0  0  0  0  0  0  0  0
    9.8591  -18.1060   26.9368 O   0  0  0  0  0  0  0  0  0  0  0  0
    8.6854  -18.8374   25.1617 O   0  0  0  0  0  0  0  0  0  0  0  0
  2  3  1  0
  2  1  1  6
  4  3  1  0
  5  6  2  0
  5  4  1  0
  7 15  1  0
  7  2  1  0
  8  7  2  0
  9  5  1  0
 11 10  1  1
 11 12  1  0
 13 11  1  0
 14 16  1  0
 14 13  1  1
 14 15  1  0
 16 17  2  0
 18 19  1  0
 18 16  1  0
 19 30  1  0
 19 20  1  1
 21 20  1  0
 22 21  2  0
 23 24  1  0
 23 22  1  0
 24 29  2  0
 25 26  2  0
 25 24  1  0
 26 27  1  0
 27 28  2  0
 29 21  1  0
 29 28  1  0
 30 31  2  0
 30 32  1  0
M  END
$$$$
