ELW.pdb
     RDKit          3D

 32 33  0  0  1  0  0  0  0  0999 V2000
   10.8213  -19.8130   19.2238 N   0  0  0  0  0  0  0  0  0  0  0  0
    9.7256  -19.4367   20.1239 C   0  0  1  0  0  0  0  0  0  0  0  0
    9.5514  -20.4198   21.2265 C   0  0  0  0  0  0  0  0  0  0  0  0
   10.7317  -20.5708   22.1318 C   0  0  0  0  0  0  0  0  0  0  0  0
   10.4389  -21.6523   23.1040 C   0  0  0  0  0  0  0  0  0  0  0  0
    9.3434  -22.2666   23.1181 O   0  0  0  0  0  0  0  0  0  0  0  0
    9.9074  -18.0479   20.5503 C   0  0  0  0  0  0  0  0  0  0  0  0
   11.0612  -17.5609   20.5799 O   0  0  0  0  0  0  0  0  0  0  0  0
   11.4015  -22.0016   24.0314 O   0  0  0  0  0  0  0  0  0  0  0  0
    6.2535  -13.1651   21.2877 C   0  0  0  0  0  0  0  0  0  0  0  0
    7.7231  -13.6235   21.4475 C   0  0  2  0  0  0  0  0  0  0  0  0
    8.5332  -12.8044   20.5028 C   0  0  0  0  0  0  0  0  0  0  0  0
    7.7274  -15.0832   21.2249 C   0  0  0  0  0  0  0  0  0  0  0  0
    9.0336  -15.8000   21.3150 C   0  0  2  0  0  0  0  0  0  0  0  0
    8.8249  -17.2211   20.9360 N   0  0  0  0  0  0  0  0  0  0  0  0
    9.6961  -15.7906   22.6187 C   0  0  0  0  0  0  0  0  0  0  0  0
   10.6012  -14.9057   22.8243 O   0  0  0  0  0  0  0  0  0  0  0  0
    9.4584  -16.6484   23.7037 N   0  0  0  0  0  0  0  0  0  0  0  0
   10.0963  -16.5394   25.0164 C   0  0  1  0  0  0  0  0  0  0  0  0
    9.8674  -15.2196   25.6233 C   0  0  0  0  0  0  0  0  0  0  0  0
    8.4494  -14.8473   25.7155 C   0  0  0  0  0  0  0  0  0  0  0  0
    7.3490  -15.7075   25.5599 C   0  0  0  0  0  0  0  0  0  0  0  0
    6.2232  -14.9910   25.6826 N   0  0  0  0  0  0  0  0  0  0  0  0
    6.4917  -13.6934   25.9139 C   0  0  0  0  0  0  0  0  0  0  0  0
    5.6822  -12.5793   26.1272 C   0  0  0  0  0  0  0  0  0  0  0  0
    6.2381  -11.3445   26.3688 C   0  0  0  0  0  0  0  0  0  0  0  0
    7.6128  -11.2514   26.3921 C   0  0  0  0  0  0  0  0  0  0  0  0
    8.4157  -12.3518   26.1808 C   0  0  0  0  0  0  0  0  0  0  0  0
    7.8671  -13.5984   25.9356 C   0  0  0  0  0  0  0  0  0  0  0  0
    9.8072  -17.6605   25.8790 C   0  0  0  0  0  0  0  0  0  0  0  0
   10.3816  -17.6740   27.0237 O   0  0  0  0  0  0  0  0  0  0  0  0
    8.9741  -18.7248   25.6172 O   0  0  0  0  0  0  0  0  0  0  0  0
  2  3  1  0
  2  1  1  1
  4  3  1  0
  5  6  2  0
  5  4  1  0
  7 15  1  0
  7  2  1  0
  8  7  2  0
  9  5  1  0
 11 10  1  6
 11 12  1  0
 13 11  1  0
 14 16  1  0
 14 13  1  1
 14 15  1  0
 16 17  2  0
 18 19  1  0
 18 16  1  0
 19 30  1  0
 19 20  1  1
 21 20  1  0
 22 21  2  0
 23 24  1  0
 23 22  1  0
 24 29  2  0
 25 26  2  0
 25 24  1  0
 26 27  1  0
 27 28  2  0
 29 21  1  0
 29 28  1  0
 30 31  2  0
 30 32  1  0
M  END
$$$$
