ELW.pdb
     RDKit          3D

 32 33  0  0  1  0  0  0  0  0999 V2000
    9.2594  -18.7270   19.9534 N   0  0  0  0  0  0  0  0  0  0  0  0
   10.5742  -18.0829   19.8597 C   0  0  1  0  0  0  0  0  0  0  0  0
   11.0648  -18.0256   18.4566 C   0  0  0  0  0  0  0  0  0  0  0  0
   10.9488  -19.3058   17.6931 C   0  0  0  0  0  0  0  0  0  0  0  0
   11.5085  -19.0923   16.3360 C   0  0  0  0  0  0  0  0  0  0  0  0
   12.6819  -19.4218   16.0322 O   0  0  0  0  0  0  0  0  0  0  0  0
   10.5318  -16.7968   20.5581 C   0  0  0  0  0  0  0  0  0  0  0  0
   11.5862  -16.1326   20.6857 O   0  0  0  0  0  0  0  0  0  0  0  0
   10.7162  -18.5097   15.3657 O   0  0  0  0  0  0  0  0  0  0  0  0
    8.6094  -12.9148   19.6461 C   0  0  0  0  0  0  0  0  0  0  0  0
    7.6261  -14.0027   20.1407 C   0  0  2  0  0  0  0  0  0  0  0  0
    6.2518  -13.4723   19.9181 C   0  0  0  0  0  0  0  0  0  0  0  0
    8.0014  -14.2944   21.5387 C   0  0  0  0  0  0  0  0  0  0  0  0
    9.3214  -14.9456   21.7866 C   0  0  2  0  0  0  0  0  0  0  0  0
    9.3386  -16.2643   21.1030 N   0  0  0  0  0  0  0  0  0  0  0  0
    9.6848  -15.1759   23.1844 C   0  0  0  0  0  0  0  0  0  0  0  0
   10.1447  -14.1843   23.8549 O   0  0  0  0  0  0  0  0  0  0  0  0
    9.5884  -16.3762   23.9053 N   0  0  0  0  0  0  0  0  0  0  0  0
   10.0195  -16.5605   25.2917 C   0  0  1  0  0  0  0  0  0  0  0  0
    8.8795  -16.8131   26.1857 C   0  0  0  0  0  0  0  0  0  0  0  0
    7.7996  -15.8249   26.0632 C   0  0  0  0  0  0  0  0  0  0  0  0
    6.4819  -16.0764   25.6447 C   0  0  0  0  0  0  0  0  0  0  0  0
    5.8068  -14.9188   25.6330 N   0  0  0  0  0  0  0  0  0  0  0  0
    6.5867  -13.8935   26.0202 C   0  0  0  0  0  0  0  0  0  0  0  0
    6.3501  -12.5303   26.1869 C   0  0  0  0  0  0  0  0  0  0  0  0
    7.3490  -11.6940   26.6285 C   0  0  0  0  0  0  0  0  0  0  0  0
    8.5810  -12.2497   26.8975 C   0  0  0  0  0  0  0  0  0  0  0  0
    8.8178  -13.5977   26.7327 C   0  0  0  0  0  0  0  0  0  0  0  0
    7.8205  -14.4477   26.2879 C   0  0  0  0  0  0  0  0  0  0  0  0
   11.1108  -17.4966   25.4234 C   0  0  0  0  0  0  0  0  0  0  0  0
   11.4921  -18.0956   24.3574 O   0  0  0  0  0  0  0  0  0  0  0  0
   11.8015  -17.8209   26.5693 O   0  0  0  0  0  0  0  0  0  0  0  0
  2  3  1  0
  2  1  1  6
  4  3  1  0
  5  6  2  0
  5  4  1  0
  7 15  1  0
  7  2  1  0
  8  7  2  0
  9  5  1  0
 11 10  1  1
 11 12  1  0
 13 11  1  0
 14 16  1  0
 14 13  1  1
 14 15  1  0
 16 17  2  0
 18 19  1  0
 18 16  1  0
 19 30  1  0
 19 20  1  1
 21 20  1  0
 22 21  2  0
 23 24  1  0
 23 22  1  0
 24 29  2  0
 25 26  2  0
 25 24  1  0
 26 27  1  0
 27 28  2  0
 29 21  1  0
 29 28  1  0
 30 31  2  0
 30 32  1  0
M  END
$$$$
