ELW.pdb
     RDKit          3D

 32 33  0  0  1  0  0  0  0  0999 V2000
    9.3104  -18.3594   19.8408 N   0  0  0  0  0  0  0  0  0  0  0  0
   10.6521  -17.7684   19.8934 C   0  0  1  0  0  0  0  0  0  0  0  0
   11.2600  -17.6519   18.5408 C   0  0  0  0  0  0  0  0  0  0  0  0
   10.5068  -18.3394   17.4474 C   0  0  0  0  0  0  0  0  0  0  0  0
   11.2504  -18.1501   16.1779 C   0  0  0  0  0  0  0  0  0  0  0  0
   12.3443  -17.5352   16.1236 O   0  0  0  0  0  0  0  0  0  0  0  0
   10.6007  -16.5238   20.6628 C   0  0  0  0  0  0  0  0  0  0  0  0
   11.6450  -15.8467   20.8052 O   0  0  0  0  0  0  0  0  0  0  0  0
   10.7264  -18.6659   15.0082 O   0  0  0  0  0  0  0  0  0  0  0  0
    8.9124  -12.7226   19.7927 C   0  0  0  0  0  0  0  0  0  0  0  0
    7.8199  -13.7327   20.2187 C   0  0  2  0  0  0  0  0  0  0  0  0
    6.5067  -13.0977   19.9159 C   0  0  0  0  0  0  0  0  0  0  0  0
    8.0850  -14.0553   21.6351 C   0  0  0  0  0  0  0  0  0  0  0  0
    9.3690  -14.7400   21.9674 C   0  0  2  0  0  0  0  0  0  0  0  0
    9.4099  -16.0461   21.2610 N   0  0  0  0  0  0  0  0  0  0  0  0
    9.6220  -15.0037   23.3835 C   0  0  0  0  0  0  0  0  0  0  0  0
    9.7785  -13.9965   24.1617 O   0  0  0  0  0  0  0  0  0  0  0  0
    9.7147  -16.2529   24.0164 N   0  0  0  0  0  0  0  0  0  0  0  0
    9.9924  -16.4554   25.4389 C   0  0  1  0  0  0  0  0  0  0  0  0
    8.7887  -16.8741   26.1729 C   0  0  0  0  0  0  0  0  0  0  0  0
    7.6604  -15.9427   26.0417 C   0  0  0  0  0  0  0  0  0  0  0  0
    6.4219  -16.2124   25.4350 C   0  0  0  0  0  0  0  0  0  0  0  0
    5.6694  -15.1046   25.4842 N   0  0  0  0  0  0  0  0  0  0  0  0
    6.3218  -14.0963   26.0900 C   0  0  0  0  0  0  0  0  0  0  0  0
    5.9678  -12.7834   26.3949 C   0  0  0  0  0  0  0  0  0  0  0  0
    6.8449  -11.9566   27.0578 C   0  0  0  0  0  0  0  0  0  0  0  0
    8.0751  -12.4707   27.4061 C   0  0  0  0  0  0  0  0  0  0  0  0
    8.4279  -13.7688   27.1050 C   0  0  0  0  0  0  0  0  0  0  0  0
    7.5539  -14.6087   26.4373 C   0  0  0  0  0  0  0  0  0  0  0  0
   11.1596  -17.2717   25.6752 C   0  0  0  0  0  0  0  0  0  0  0  0
   11.5274  -17.4179   26.8934 O   0  0  0  0  0  0  0  0  0  0  0  0
   11.9289  -17.9233   24.7377 O   0  0  0  0  0  0  0  0  0  0  0  0
  2  3  1  0
  2  1  1  6
  4  3  1  0
  5  6  2  0
  5  4  1  0
  7 15  1  0
  7  2  1  0
  8  7  2  0
  9  5  1  0
 11 10  1  1
 11 12  1  0
 13 11  1  0
 14 16  1  0
 14 13  1  1
 14 15  1  0
 16 17  2  0
 18 19  1  0
 18 16  1  0
 19 30  1  0
 19 20  1  6
 21 20  1  0
 22 21  2  0
 23 24  1  0
 23 22  1  0
 24 29  2  0
 25 26  2  0
 25 24  1  0
 26 27  1  0
 27 28  2  0
 29 21  1  0
 29 28  1  0
 30 31  2  0
 30 32  1  0
M  END
$$$$
