ELW.pdb
     RDKit          3D

 32 33  0  0  1  0  0  0  0  0999 V2000
   11.1966  -17.4449   18.2781 N   0  0  0  0  0  0  0  0  0  0  0  0
   10.6125  -17.7836   19.5806 C   0  0  1  0  0  0  0  0  0  0  0  0
   11.3528  -18.8863   20.2503 C   0  0  0  0  0  0  0  0  0  0  0  0
   11.5953  -20.0926   19.4009 C   0  0  0  0  0  0  0  0  0  0  0  0
   12.2789  -21.1165   20.2285 C   0  0  0  0  0  0  0  0  0  0  0  0
   12.6301  -20.8987   21.4147 O   0  0  0  0  0  0  0  0  0  0  0  0
   10.4622  -16.5622   20.3737 C   0  0  0  0  0  0  0  0  0  0  0  0
   11.4436  -15.7963   20.5133 O   0  0  0  0  0  0  0  0  0  0  0  0
   12.5426  -22.3573   19.6812 O   0  0  0  0  0  0  0  0  0  0  0  0
    8.6566  -12.5734   19.8229 C   0  0  0  0  0  0  0  0  0  0  0  0
    7.6949  -13.7814   19.9282 C   0  0  2  0  0  0  0  0  0  0  0  0
    6.3511  -13.2985   19.5032 C   0  0  0  0  0  0  0  0  0  0  0  0
    7.8082  -14.2805   21.3132 C   0  0  0  0  0  0  0  0  0  0  0  0
    9.0947  -14.9165   21.7239 C   0  0  2  0  0  0  0  0  0  0  0  0
    9.2432  -16.2041   20.9983 N   0  0  0  0  0  0  0  0  0  0  0  0
    9.2586  -15.1994   23.1493 C   0  0  0  0  0  0  0  0  0  0  0  0
    8.8498  -14.3175   23.9858 O   0  0  0  0  0  0  0  0  0  0  0  0
    9.8188  -16.3459   23.7336 N   0  0  0  0  0  0  0  0  0  0  0  0
   10.1191  -16.5019   25.1574 C   0  0  1  0  0  0  0  0  0  0  0  0
    9.9121  -15.2475   25.8966 C   0  0  0  0  0  0  0  0  0  0  0  0
    8.4994  -14.8743   26.0473 C   0  0  0  0  0  0  0  0  0  0  0  0
    7.3875  -15.6931   25.7861 C   0  0  0  0  0  0  0  0  0  0  0  0
    6.2715  -14.9862   26.0109 N   0  0  0  0  0  0  0  0  0  0  0  0
    6.5574  -13.7342   26.4110 C   0  0  0  0  0  0  0  0  0  0  0  0
    5.7630  -12.6490   26.7764 C   0  0  0  0  0  0  0  0  0  0  0  0
    6.3356  -11.4640   27.1764 C   0  0  0  0  0  0  0  0  0  0  0  0
    7.7115  -11.3910   27.2025 C   0  0  0  0  0  0  0  0  0  0  0  0
    8.4995  -12.4628   26.8410 C   0  0  0  0  0  0  0  0  0  0  0  0
    7.9340  -13.6590   26.4358 C   0  0  0  0  0  0  0  0  0  0  0  0
    9.4878  -17.6607   25.7434 C   0  0  0  0  0  0  0  0  0  0  0  0
    8.7109  -18.3420   24.9867 O   0  0  0  0  0  0  0  0  0  0  0  0
    9.6278  -18.1287   27.0306 O   0  0  0  0  0  0  0  0  0  0  0  0
  2  3  1  0
  2  1  1  6
  4  3  1  0
  5  6  2  0
  5  4  1  0
  7 15  1  0
  7  2  1  0
  8  7  2  0
  9  5  1  0
 11 10  1  1
 11 12  1  0
 13 11  1  0
 14 16  1  0
 14 13  1  1
 14 15  1  0
 16 17  2  0
 18 19  1  0
 18 16  1  0
 19 30  1  0
 19 20  1  1
 21 20  1  0
 22 21  2  0
 23 24  1  0
 23 22  1  0
 24 29  2  0
 25 26  2  0
 25 24  1  0
 26 27  1  0
 27 28  2  0
 29 21  1  0
 29 28  1  0
 30 31  2  0
 30 32  1  0
M  END
$$$$
