NIP.pdb
     RDKit          3D

 24 24  0  0  1  0  0  0  0  0999 V2000
   10.9821  -18.3252   19.3726 N   0  0  0  0  0  0  0  0  0  0  0  0
   10.0457  -18.0996   20.4011 C   0  0  0  0  0  0  0  0  0  0  0  0
    8.8761  -18.5329   20.3119 O   0  0  0  0  0  0  0  0  0  0  0  0
   10.4386  -17.3418   21.6061 C   0  0  0  0  0  0  0  0  0  0  0  0
    9.4174  -16.2476   21.7949 C   0  0  2  0  0  0  0  0  0  0  0  0
    9.4886  -15.3252   20.6517 N   0  0  0  0  0  0  0  0  0  0  0  0
    9.5209  -15.5236   23.0576 C   0  0  0  0  0  0  0  0  0  0  0  0
   10.6242  -14.9657   23.3861 O   0  0  0  0  0  0  0  0  0  0  0  0
    5.6032  -12.3258   24.9669 C   0  0  0  0  0  0  0  0  0  0  0  0
    6.9120  -12.9808   24.6535 C   0  0  0  0  0  0  0  0  0  0  0  0
    7.3376  -14.0840   25.5223 C   0  0  2  0  0  0  0  0  0  0  0  0
    7.1078  -13.7019   26.9701 C   0  0  0  0  0  0  0  0  0  0  0  0
    8.5956  -14.8239   25.2866 C   0  0  2  0  0  0  0  0  0  0  0  0
    8.4519  -15.3868   23.9757 N   0  0  0  0  0  0  0  0  0  0  0  0
    9.1289  -15.6511   26.3526 C   0  0  0  0  0  0  0  0  0  0  0  0
    8.4517  -16.7397   26.4844 O   0  0  0  0  0  0  0  0  0  0  0  0
   10.2073  -15.4668   27.2184 N   0  0  0  0  0  0  0  0  0  0  0  0
   11.3228  -14.4897   27.1032 C   0  0  0  0  0  0  0  0  0  0  0  0
   11.2033  -13.8042   28.4513 C   0  0  0  0  0  0  0  0  0  0  0  0
   10.5248  -14.8214   29.3513 C   0  0  0  0  0  0  0  0  0  0  0  0
   10.6451  -16.0754   28.4391 C   0  0  1  0  0  0  0  0  0  0  0  0
    9.9916  -17.2122   28.9943 C   0  0  0  0  0  0  0  0  0  0  0  0
    8.9583  -17.7433   28.6070 O   0  0  0  0  0  0  0  0  0  0  0  0
   10.5873  -17.8187   30.1297 O   0  0  0  0  0  0  0  0  0  0  0  0
  1  2  1  0
  2  3  2  0
  4  2  1  0
  4  5  1  0
  5  6  1  6
  7  8  2  0
  7  5  1  0
  9 10  1  0
 10 11  1  0
 11 12  1  1
 13 11  1  0
 13 14  1  6
 14  7  1  0
 15 13  1  0
 16 15  2  0
 17 18  1  0
 17 15  1  0
 19 18  1  0
 20 21  1  0
 20 19  1  0
 21 17  1  0
 22 24  1  0
 21 22  1  1
 23 22  2  0
M  END
$$$$
