NIP.pdb
     RDKit          3D

 24 24  0  0  1  0  0  0  0  0999 V2000
    9.9437  -19.0290   19.8841 N   0  0  0  0  0  0  0  0  0  0  0  0
    9.0657  -18.3453   20.7484 C   0  0  0  0  0  0  0  0  0  0  0  0
    7.8347  -18.3247   20.5295 O   0  0  0  0  0  0  0  0  0  0  0  0
    9.5942  -17.6387   21.9325 C   0  0  0  0  0  0  0  0  0  0  0  0
    9.1838  -16.1926   21.8064 C   0  0  2  0  0  0  0  0  0  0  0  0
    9.8982  -15.5905   20.6705 N   0  0  0  0  0  0  0  0  0  0  0  0
    9.3618  -15.3969   23.0165 C   0  0  0  0  0  0  0  0  0  0  0  0
   10.4800  -14.8183   23.2425 O   0  0  0  0  0  0  0  0  0  0  0  0
    5.6197  -12.1416   25.1954 C   0  0  0  0  0  0  0  0  0  0  0  0
    6.9092  -12.7937   24.8053 C   0  0  0  0  0  0  0  0  0  0  0  0
    7.3745  -13.9131   25.6320 C   0  0  2  0  0  0  0  0  0  0  0  0
    7.2595  -13.5396   27.0957 C   0  0  0  0  0  0  0  0  0  0  0  0
    8.5961  -14.6760   25.2987 C   0  0  2  0  0  0  0  0  0  0  0  0
    8.3516  -15.2103   23.9907 N   0  0  0  0  0  0  0  0  0  0  0  0
    9.1804  -15.5351   26.3114 C   0  0  0  0  0  0  0  0  0  0  0  0
    8.5529  -16.6580   26.3920 O   0  0  0  0  0  0  0  0  0  0  0  0
   10.2623  -15.3505   27.1727 N   0  0  0  0  0  0  0  0  0  0  0  0
   11.3013  -14.2870   27.1294 C   0  0  0  0  0  0  0  0  0  0  0  0
   11.1638  -13.7370   28.5366 C   0  0  0  0  0  0  0  0  0  0  0  0
   10.5816  -14.8789   29.3503 C   0  0  0  0  0  0  0  0  0  0  0  0
   10.7712  -16.0329   28.3249 C   0  0  1  0  0  0  0  0  0  0  0  0
   10.2146  -17.2606   28.7839 C   0  0  0  0  0  0  0  0  0  0  0  0
   10.8098  -18.2962   29.0537 O   0  0  0  0  0  0  0  0  0  0  0  0
    8.8078  -17.3161   28.9568 O   0  0  0  0  0  0  0  0  0  0  0  0
  1  2  1  0
  2  3  2  0
  4  2  1  0
  4  5  1  0
  5  6  1  6
  7  8  2  0
  7  5  1  0
  9 10  1  0
 10 11  1  0
 11 12  1  1
 13 11  1  0
 13 14  1  6
 14  7  1  0
 15 13  1  0
 16 15  2  0
 17 18  1  0
 17 15  1  0
 19 18  1  0
 20 21  1  0
 20 19  1  0
 21 17  1  0
 22 24  1  0
 21 22  1  1
 23 22  2  0
M  END
$$$$
