NIP.pdb
     RDKit          3D

 24 24  0  0  1  0  0  0  0  0999 V2000
   12.1669  -19.5577   19.1093 N   0  0  0  0  0  0  0  0  0  0  0  0
   11.6429  -19.9357   20.3615 C   0  0  0  0  0  0  0  0  0  0  0  0
   11.5786  -21.1393   20.6945 O   0  0  0  0  0  0  0  0  0  0  0  0
   11.1589  -18.9057   21.3025 C   0  0  0  0  0  0  0  0  0  0  0  0
   11.1433  -17.5948   20.5562 C   0  0  2  0  0  0  0  0  0  0  0  0
   12.5043  -17.2967   20.0855 N   0  0  0  0  0  0  0  0  0  0  0  0
   10.5911  -16.4700   21.3040 C   0  0  0  0  0  0  0  0  0  0  0  0
   11.3296  -15.8232   22.1241 O   0  0  0  0  0  0  0  0  0  0  0  0
    7.3495  -12.9443   19.0314 C   0  0  0  0  0  0  0  0  0  0  0  0
    8.3339  -13.6002   19.9483 C   0  0  0  0  0  0  0  0  0  0  0  0
    7.8060  -14.2260   21.1660 C   0  0  2  0  0  0  0  0  0  0  0  0
    6.9300  -13.2337   21.9028 C   0  0  0  0  0  0  0  0  0  0  0  0
    8.6539  -15.0539   22.0499 C   0  0  2  0  0  0  0  0  0  0  0  0
    9.2524  -16.0258   21.1819 N   0  0  0  0  0  0  0  0  0  0  0  0
    8.1172  -15.4869   23.3264 C   0  0  0  0  0  0  0  0  0  0  0  0
    7.2537  -16.4318   23.1753 O   0  0  0  0  0  0  0  0  0  0  0  0
    8.3731  -15.0650   24.6314 N   0  0  0  0  0  0  0  0  0  0  0  0
    9.3918  -14.0871   25.0986 C   0  0  0  0  0  0  0  0  0  0  0  0
    8.4954  -13.1256   25.8561 C   0  0  0  0  0  0  0  0  0  0  0  0
    7.2824  -13.9479   26.2528 C   0  0  0  0  0  0  0  0  0  0  0  0
    7.8281  -15.3662   25.9214 C   0  0  1  0  0  0  0  0  0  0  0  0
    6.8466  -16.3805   26.1097 C   0  0  0  0  0  0  0  0  0  0  0  0
    6.7342  -17.1443   27.0603 O   0  0  0  0  0  0  0  0  0  0  0  0
    5.8736  -16.5455   25.0908 O   0  0  0  0  0  0  0  0  0  0  0  0
  1  2  1  0
  2  3  2  0
  4  2  1  0
  4  5  1  0
  5  6  1  1
  7  8  2  0
  7  5  1  0
  9 10  1  0
 10 11  1  0
 11 12  1  1
 13 11  1  0
 13 14  1  6
 14  7  1  0
 15 13  1  0
 16 15  2  0
 17 18  1  0
 17 15  1  0
 19 18  1  0
 20 21  1  0
 20 19  1  0
 21 17  1  0
 22 24  1  0
 21 22  1  6
 23 22  2  0
M  END
$$$$
