NIP.pdb
     RDKit          3D

 24 24  0  0  1  0  0  0  0  0999 V2000
    9.8642  -19.5023   20.0776 N   0  0  0  0  0  0  0  0  0  0  0  0
    9.1908  -18.4449   20.7208 C   0  0  0  0  0  0  0  0  0  0  0  0
    8.0395  -18.1072   20.3684 O   0  0  0  0  0  0  0  0  0  0  0  0
    9.8431  -17.7170   21.8277 C   0  0  0  0  0  0  0  0  0  0  0  0
    9.3902  -16.2806   21.7423 C   0  0  2  0  0  0  0  0  0  0  0  0
   10.1017  -15.6202   20.6375 N   0  0  0  0  0  0  0  0  0  0  0  0
    9.5265  -15.5201   22.9801 C   0  0  0  0  0  0  0  0  0  0  0  0
   10.6243  -14.9185   23.2434 O   0  0  0  0  0  0  0  0  0  0  0  0
    5.7791  -12.1910   25.0365 C   0  0  0  0  0  0  0  0  0  0  0  0
    7.0599  -12.8814   24.6855 C   0  0  0  0  0  0  0  0  0  0  0  0
    7.4394  -14.0467   25.4924 C   0  0  2  0  0  0  0  0  0  0  0  0
    7.1884  -13.7485   26.9564 C   0  0  0  0  0  0  0  0  0  0  0  0
    8.6834  -14.8032   25.2361 C   0  0  2  0  0  0  0  0  0  0  0  0
    8.4961  -15.3930   23.9426 N   0  0  0  0  0  0  0  0  0  0  0  0
    9.2408  -15.6121   26.3038 C   0  0  0  0  0  0  0  0  0  0  0  0
    8.7183  -16.7902   26.3207 O   0  0  0  0  0  0  0  0  0  0  0  0
   10.2069  -15.3333   27.2710 N   0  0  0  0  0  0  0  0  0  0  0  0
   11.0311  -14.1042   27.4201 C   0  0  0  0  0  0  0  0  0  0  0  0
   10.6960  -13.7436   28.8552 C   0  0  0  0  0  0  0  0  0  0  0  0
   10.2803  -15.0521   29.5030 C   0  0  0  0  0  0  0  0  0  0  0  0
   10.7517  -16.0358   28.3943 C   0  0  1  0  0  0  0  0  0  0  0  0
   10.4017  -17.3852   28.6846 C   0  0  0  0  0  0  0  0  0  0  0  0
   11.1573  -18.3162   28.9333 O   0  0  0  0  0  0  0  0  0  0  0  0
    9.0222  -17.7153   28.6927 O   0  0  0  0  0  0  0  0  0  0  0  0
  1  2  1  0
  2  3  2  0
  4  2  1  0
  4  5  1  0
  5  6  1  6
  7  8  2  0
  7  5  1  0
  9 10  1  0
 10 11  1  0
 11 12  1  1
 13 11  1  0
 13 14  1  6
 14  7  1  0
 15 13  1  0
 16 15  2  0
 17 18  1  0
 17 15  1  0
 19 18  1  0
 20 21  1  0
 20 19  1  0
 21 17  1  0
 22 24  1  0
 21 22  1  1
 23 22  2  0
M  END
$$$$
