NIP.pdb
     RDKit          3D

 24 24  0  0  1  0  0  0  0  0999 V2000
   11.4315  -19.0553   19.9244 N   0  0  0  0  0  0  0  0  0  0  0  0
   11.4324  -19.5677   21.2369 C   0  0  0  0  0  0  0  0  0  0  0  0
   11.5140  -20.7978   21.4467 O   0  0  0  0  0  0  0  0  0  0  0  0
   11.3354  -18.6498   22.3896 C   0  0  0  0  0  0  0  0  0  0  0  0
   11.0100  -17.2823   21.8420 C   0  0  2  0  0  0  0  0  0  0  0  0
   12.1276  -16.8257   21.0021 N   0  0  0  0  0  0  0  0  0  0  0  0
   10.6715  -16.2829   22.8498 C   0  0  0  0  0  0  0  0  0  0  0  0
   11.5901  -15.5546   23.3618 O   0  0  0  0  0  0  0  0  0  0  0  0
    6.5683  -14.2000   21.8660 C   0  0  0  0  0  0  0  0  0  0  0  0
    7.5617  -13.7465   22.8896 C   0  0  0  0  0  0  0  0  0  0  0  0
    7.7369  -14.5902   24.0773 C   0  0  2  0  0  0  0  0  0  0  0  0
    7.0180  -13.9603   25.2526 C   0  0  0  0  0  0  0  0  0  0  0  0
    9.0419  -15.1932   24.4219 C   0  0  2  0  0  0  0  0  0  0  0  0
    9.3551  -16.0509   23.3162 N   0  0  0  0  0  0  0  0  0  0  0  0
    9.2501  -15.6821   25.7720 C   0  0  0  0  0  0  0  0  0  0  0  0
    8.5811  -16.7625   25.9875 O   0  0  0  0  0  0  0  0  0  0  0  0
   10.0222  -15.1939   26.8265 N   0  0  0  0  0  0  0  0  0  0  0  0
   10.8233  -13.9417   26.8770 C   0  0  0  0  0  0  0  0  0  0  0  0
   10.2311  -13.3087   28.1221 C   0  0  0  0  0  0  0  0  0  0  0  0
    9.6806  -14.4700   28.9303 C   0  0  0  0  0  0  0  0  0  0  0  0
   10.3357  -15.6449   28.1495 C   0  0  1  0  0  0  0  0  0  0  0  0
    9.9161  -16.9164   28.6343 C   0  0  0  0  0  0  0  0  0  0  0  0
   10.5286  -17.6715   29.3787 O   0  0  0  0  0  0  0  0  0  0  0  0
    8.6430  -17.3858   28.2208 O   0  0  0  0  0  0  0  0  0  0  0  0
  1  2  1  0
  2  3  2  0
  4  2  1  0
  4  5  1  0
  5  6  1  1
  7  8  2  0
  7  5  1  0
  9 10  1  0
 10 11  1  0
 11 12  1  1
 13 11  1  0
 13 14  1  6
 14  7  1  0
 15 13  1  0
 16 15  2  0
 17 18  1  0
 17 15  1  0
 19 18  1  0
 20 21  1  0
 20 19  1  0
 21 17  1  0
 22 24  1  0
 21 22  1  1
 23 22  2  0
M  END
$$$$
