NIP.pdb
     RDKit          3D

 24 24  0  0  1  0  0  0  0  0999 V2000
   11.5781  -16.4575   18.6243 N   0  0  0  0  0  0  0  0  0  0  0  0
   11.4133  -16.9949   19.9164 C   0  0  0  0  0  0  0  0  0  0  0  0
   11.2333  -18.2209   20.0845 O   0  0  0  0  0  0  0  0  0  0  0  0
   11.4510  -16.1083   21.0967 C   0  0  0  0  0  0  0  0  0  0  0  0
   10.2179  -16.4042   21.9138 C   0  0  2  0  0  0  0  0  0  0  0  0
    9.0266  -16.1573   21.0875 N   0  0  0  0  0  0  0  0  0  0  0  0
   10.1339  -15.6839   23.1800 C   0  0  0  0  0  0  0  0  0  0  0  0
   11.1683  -15.0975   23.6518 O   0  0  0  0  0  0  0  0  0  0  0  0
    5.8778  -12.5807   24.6452 C   0  0  0  0  0  0  0  0  0  0  0  0
    7.2412  -13.1763   24.4820 C   0  0  0  0  0  0  0  0  0  0  0  0
    7.5755  -14.3323   25.3215 C   0  0  2  0  0  0  0  0  0  0  0  0
    7.0756  -14.0920   26.7313 C   0  0  0  0  0  0  0  0  0  0  0  0
    8.8977  -14.9904   25.2549 C   0  0  2  0  0  0  0  0  0  0  0  0
    8.9499  -15.5812   23.9494 N   0  0  0  0  0  0  0  0  0  0  0  0
    9.3503  -15.7644   26.3956 C   0  0  0  0  0  0  0  0  0  0  0  0
    8.7360  -16.8950   26.4681 O   0  0  0  0  0  0  0  0  0  0  0  0
   10.2998  -15.4946   27.3816 N   0  0  0  0  0  0  0  0  0  0  0  0
   11.3136  -14.4066   27.4090 C   0  0  0  0  0  0  0  0  0  0  0  0
   10.9732  -13.7728   28.7447 C   0  0  0  0  0  0  0  0  0  0  0  0
   10.3075  -14.8771   29.5461 C   0  0  0  0  0  0  0  0  0  0  0  0
   10.6589  -16.0878   28.6351 C   0  0  1  0  0  0  0  0  0  0  0  0
   10.0690  -17.2994   29.0950 C   0  0  0  0  0  0  0  0  0  0  0  0
    9.0844  -17.8699   28.6425 O   0  0  0  0  0  0  0  0  0  0  0  0
   10.6741  -17.9401   30.2065 O   0  0  0  0  0  0  0  0  0  0  0  0
  1  2  1  0
  2  3  2  0
  4  2  1  0
  4  5  1  0
  5  6  1  6
  7  8  2  0
  7  5  1  0
  9 10  1  0
 10 11  1  0
 11 12  1  1
 13 11  1  0
 13 14  1  6
 14  7  1  0
 15 13  1  0
 16 15  2  0
 17 18  1  0
 17 15  1  0
 19 18  1  0
 20 21  1  0
 20 19  1  0
 21 17  1  0
 22 24  1  0
 21 22  1  1
 23 22  2  0
M  END
$$$$
