NIP.pdb
     RDKit          3D

 24 24  0  0  1  0  0  0  0  0999 V2000
   12.7519  -20.4649   22.3823 N   0  0  0  0  0  0  0  0  0  0  0  0
   11.6274  -19.6767   22.0665 C   0  0  0  0  0  0  0  0  0  0  0  0
   10.8661  -19.9907   21.1254 O   0  0  0  0  0  0  0  0  0  0  0  0
   11.3330  -18.4601   22.8500 C   0  0  0  0  0  0  0  0  0  0  0  0
   11.2964  -17.3054   21.8799 C   0  0  2  0  0  0  0  0  0  0  0  0
   12.6603  -17.0452   21.3951 N   0  0  0  0  0  0  0  0  0  0  0  0
   10.6855  -16.0867   22.4002 C   0  0  0  0  0  0  0  0  0  0  0  0
   11.3252  -15.3559   23.2328 O   0  0  0  0  0  0  0  0  0  0  0  0
    7.4864  -12.8616   19.4868 C   0  0  0  0  0  0  0  0  0  0  0  0
    8.4281  -13.4233   20.5055 C   0  0  0  0  0  0  0  0  0  0  0  0
    7.8437  -13.9508   21.7437 C   0  0  2  0  0  0  0  0  0  0  0  0
    6.8729  -12.9370   22.3139 C   0  0  0  0  0  0  0  0  0  0  0  0
    8.6631  -14.6400   22.7630 C   0  0  2  0  0  0  0  0  0  0  0  0
    9.3932  -15.6374   22.0361 N   0  0  0  0  0  0  0  0  0  0  0  0
    8.0475  -15.0005   24.0264 C   0  0  0  0  0  0  0  0  0  0  0  0
    7.3350  -16.0684   23.9126 O   0  0  0  0  0  0  0  0  0  0  0  0
    8.0998  -14.4048   25.2870 N   0  0  0  0  0  0  0  0  0  0  0  0
    8.9038  -13.2294   25.7161 C   0  0  0  0  0  0  0  0  0  0  0  0
    7.7979  -12.3515   26.2712 C   0  0  0  0  0  0  0  0  0  0  0  0
    6.6899  -13.3134   26.6608 C   0  0  0  0  0  0  0  0  0  0  0  0
    7.4765  -14.6508   26.5531 C   0  0  1  0  0  0  0  0  0  0  0  0
    6.6467  -15.7856   26.7798 C   0  0  0  0  0  0  0  0  0  0  0  0
    5.6998  -16.1660   26.1028 O   0  0  0  0  0  0  0  0  0  0  0  0
    6.9294  -16.5853   27.9167 O   0  0  0  0  0  0  0  0  0  0  0  0
  1  2  1  0
  2  3  2  0
  4  2  1  0
  4  5  1  0
  5  6  1  1
  7  8  2  0
  7  5  1  0
  9 10  1  0
 10 11  1  0
 11 12  1  1
 13 11  1  0
 13 14  1  6
 14  7  1  0
 15 13  1  0
 16 15  2  0
 17 18  1  0
 17 15  1  0
 19 18  1  0
 20 21  1  0
 20 19  1  0
 21 17  1  0
 22 24  1  0
 21 22  1  6
 23 22  2  0
M  END
$$$$
