NIP.pdb
     RDKit          3D

 24 24  0  0  1  0  0  0  0  0999 V2000
   13.4199  -18.7302   21.7861 N   0  0  0  0  0  0  0  0  0  0  0  0
   13.8163  -17.5020   21.2204 C   0  0  0  0  0  0  0  0  0  0  0  0
   14.9582  -17.3583   20.7315 O   0  0  0  0  0  0  0  0  0  0  0  0
   12.8795  -16.3607   21.1990 C   0  0  0  0  0  0  0  0  0  0  0  0
   11.6335  -16.7953   21.9300 C   0  0  2  0  0  0  0  0  0  0  0  0
   10.8223  -17.6339   21.0348 N   0  0  0  0  0  0  0  0  0  0  0  0
   10.8388  -15.7062   22.4882 C   0  0  0  0  0  0  0  0  0  0  0  0
   11.4005  -14.8057   23.2023 O   0  0  0  0  0  0  0  0  0  0  0  0
    7.0406  -13.4366   19.5648 C   0  0  0  0  0  0  0  0  0  0  0  0
    8.1071  -13.6886   20.5841 C   0  0  0  0  0  0  0  0  0  0  0  0
    7.6752  -14.1312   21.9148 C   0  0  2  0  0  0  0  0  0  0  0  0
    6.6081  -13.1907   22.4363 C   0  0  0  0  0  0  0  0  0  0  0  0
    8.6408  -14.5761   22.9420 C   0  0  2  0  0  0  0  0  0  0  0  0
    9.4442  -15.5674   22.2879 N   0  0  0  0  0  0  0  0  0  0  0  0
    8.1598  -14.8356   24.2861 C   0  0  0  0  0  0  0  0  0  0  0  0
    7.5820  -15.9851   24.3631 O   0  0  0  0  0  0  0  0  0  0  0  0
    8.2191  -14.0764   25.4551 N   0  0  0  0  0  0  0  0  0  0  0  0
    8.9319  -12.7907   25.6817 C   0  0  0  0  0  0  0  0  0  0  0  0
    7.7787  -11.9440   26.1866 C   0  0  0  0  0  0  0  0  0  0  0  0
    6.7841  -12.9363   26.7618 C   0  0  0  0  0  0  0  0  0  0  0  0
    7.6839  -14.2048   26.7776 C   0  0  1  0  0  0  0  0  0  0  0  0
    6.9739  -15.3658   27.1968 C   0  0  0  0  0  0  0  0  0  0  0  0
    7.2067  -16.0739   28.1683 O   0  0  0  0  0  0  0  0  0  0  0  0
    5.8625  -15.7704   26.4136 O   0  0  0  0  0  0  0  0  0  0  0  0
  1  2  1  0
  2  3  2  0
  4  2  1  0
  4  5  1  0
  5  6  1  6
  7  8  2  0
  7  5  1  0
  9 10  1  0
 10 11  1  0
 11 12  1  1
 13 11  1  0
 13 14  1  6
 14  7  1  0
 15 13  1  0
 16 15  2  0
 17 18  1  0
 17 15  1  0
 19 18  1  0
 20 21  1  0
 20 19  1  0
 21 17  1  0
 22 24  1  0
 21 22  1  6
 23 22  2  0
M  END
$$$$
