NIP.pdb
     RDKit          3D

 24 24  0  0  1  0  0  0  0  0999 V2000
   11.3534  -19.1735   21.9348 N   0  0  0  0  0  0  0  0  0  0  0  0
   10.4310  -18.4017   21.2008 C   0  0  0  0  0  0  0  0  0  0  0  0
   10.6069  -18.1755   19.9836 O   0  0  0  0  0  0  0  0  0  0  0  0
    9.2359  -17.8459   21.8668 C   0  0  0  0  0  0  0  0  0  0  0  0
    9.2510  -16.3554   21.6345 C   0  0  2  0  0  0  0  0  0  0  0  0
   10.3048  -16.0344   20.6602 N   0  0  0  0  0  0  0  0  0  0  0  0
    9.3923  -15.5481   22.8418 C   0  0  0  0  0  0  0  0  0  0  0  0
   10.5265  -15.0376   23.1405 O   0  0  0  0  0  0  0  0  0  0  0  0
    5.9100  -11.9871   26.2577 C   0  0  0  0  0  0  0  0  0  0  0  0
    7.2291  -12.6722   26.0829 C   0  0  0  0  0  0  0  0  0  0  0  0
    7.2663  -13.8469   25.2045 C   0  0  2  0  0  0  0  0  0  0  0  0
    6.0261  -14.6863   25.4338 C   0  0  0  0  0  0  0  0  0  0  0  0
    8.5004  -14.6365   25.0070 C   0  0  2  0  0  0  0  0  0  0  0  0
    8.3284  -15.2774   23.7358 N   0  0  0  0  0  0  0  0  0  0  0  0
    9.0199  -15.4094   26.1195 C   0  0  0  0  0  0  0  0  0  0  0  0
    8.4453  -16.5603   26.1994 O   0  0  0  0  0  0  0  0  0  0  0  0
    9.9965  -15.1211   27.0733 N   0  0  0  0  0  0  0  0  0  0  0  0
   10.8938  -13.9368   27.1419 C   0  0  0  0  0  0  0  0  0  0  0  0
   10.5744  -13.4543   28.5444 C   0  0  0  0  0  0  0  0  0  0  0  0
   10.0760  -14.6852   29.2801 C   0  0  0  0  0  0  0  0  0  0  0  0
   10.4917  -15.7728   28.2489 C   0  0  1  0  0  0  0  0  0  0  0  0
   10.0581  -17.0741   28.6317 C   0  0  0  0  0  0  0  0  0  0  0  0
   10.6998  -17.9304   29.2271 O   0  0  0  0  0  0  0  0  0  0  0  0
    8.7313  -17.4462   28.2951 O   0  0  0  0  0  0  0  0  0  0  0  0
  1  2  1  0
  2  3  2  0
  4  2  1  0
  4  5  1  0
  5  6  1  6
  7  8  2  0
  7  5  1  0
  9 10  1  0
 10 11  1  0
 11 12  1  1
 13 11  1  0
 13 14  1  6
 14  7  1  0
 15 13  1  0
 16 15  2  0
 17 18  1  0
 17 15  1  0
 19 18  1  0
 20 21  1  0
 20 19  1  0
 21 17  1  0
 22 24  1  0
 21 22  1  1
 23 22  2  0
M  END
$$$$
