NIP.pdb
     RDKit          3D

 24 24  0  0  1  0  0  0  0  0999 V2000
    7.9087  -21.5992   26.5249 N   0  0  0  0  0  0  0  0  0  0  0  0
    7.8911  -20.1921   26.5977 C   0  0  0  0  0  0  0  0  0  0  0  0
    8.0577  -19.6027   27.6879 O   0  0  0  0  0  0  0  0  0  0  0  0
    7.6733  -19.3908   25.3766 C   0  0  0  0  0  0  0  0  0  0  0  0
    6.4190  -18.5816   25.5944 C   0  0  2  0  0  0  0  0  0  0  0  0
    5.2517  -19.4085   25.2530 N   0  0  0  0  0  0  0  0  0  0  0  0
    6.3811  -17.3065   24.8860 C   0  0  0  0  0  0  0  0  0  0  0  0
    5.9814  -17.2613   23.6717 O   0  0  0  0  0  0  0  0  0  0  0  0
    6.2376  -12.1570   27.3108 C   0  0  0  0  0  0  0  0  0  0  0  0
    6.0780  -13.3879   26.4745 C   0  0  0  0  0  0  0  0  0  0  0  0
    7.2394  -13.8247   25.6913 C   0  0  2  0  0  0  0  0  0  0  0  0
    7.9998  -12.6106   25.1987 C   0  0  0  0  0  0  0  0  0  0  0  0
    7.1483  -14.9206   24.7032 C   0  0  2  0  0  0  0  0  0  0  0  0
    6.7653  -16.0732   25.4655 N   0  0  0  0  0  0  0  0  0  0  0  0
    8.1961  -15.0520   23.7082 C   0  0  0  0  0  0  0  0  0  0  0  0
    9.3266  -15.3438   24.2540 O   0  0  0  0  0  0  0  0  0  0  0  0
    8.1782  -14.9195   22.3194 N   0  0  0  0  0  0  0  0  0  0  0  0
    6.9991  -14.8935   21.4131 C   0  0  0  0  0  0  0  0  0  0  0  0
    7.2557  -13.5813   20.6963 C   0  0  0  0  0  0  0  0  0  0  0  0
    8.7547  -13.3636   20.7985 C   0  0  0  0  0  0  0  0  0  0  0  0
    9.1742  -14.7748   21.3002 C   0  0  1  0  0  0  0  0  0  0  0  0
   10.5668  -14.8545   21.5868 C   0  0  0  0  0  0  0  0  0  0  0  0
   11.1255  -14.6175   22.6504 O   0  0  0  0  0  0  0  0  0  0  0  0
   11.4291  -15.2528   20.5333 O   0  0  0  0  0  0  0  0  0  0  0  0
  1  2  1  0
  2  3  2  0
  4  2  1  0
  4  5  1  0
  5  6  1  6
  7  8  2  0
  7  5  1  0
  9 10  1  0
 10 11  1  0
 11 12  1  6
 13 11  1  0
 13 14  1  1
 14  7  1  0
 15 13  1  0
 16 15  2  0
 17 18  1  0
 17 15  1  0
 19 18  1  0
 20 21  1  0
 20 19  1  0
 21 17  1  0
 22 24  1  0
 21 22  1  1
 23 22  2  0
M  END
$$$$
