NIP.pdb
     RDKit          3D

 24 24  0  0  1  0  0  0  0  0999 V2000
    9.1381  -18.3552   28.5316 N   0  0  0  0  0  0  0  0  0  0  0  0
    8.4366  -19.2969   27.7528 C   0  0  0  0  0  0  0  0  0  0  0  0
    8.0670  -20.3872   28.2412 O   0  0  0  0  0  0  0  0  0  0  0  0
    8.1280  -19.0045   26.3386 C   0  0  0  0  0  0  0  0  0  0  0  0
    6.7061  -18.5031   26.2891 C   0  0  2  0  0  0  0  0  0  0  0  0
    5.8270  -19.6010   25.8591 N   0  0  0  0  0  0  0  0  0  0  0  0
    6.5025  -17.3171   25.4638 C   0  0  0  0  0  0  0  0  0  0  0  0
    6.0601  -17.4374   24.2696 O   0  0  0  0  0  0  0  0  0  0  0  0
    6.2472  -12.1319   27.6200 C   0  0  0  0  0  0  0  0  0  0  0  0
    6.0398  -13.2915   26.6966 C   0  0  0  0  0  0  0  0  0  0  0  0
    7.1891  -13.7279   25.8956 C   0  0  2  0  0  0  0  0  0  0  0  0
    7.8346  -12.5226   25.2431 C   0  0  0  0  0  0  0  0  0  0  0  0
    7.1280  -14.9228   25.0273 C   0  0  2  0  0  0  0  0  0  0  0  0
    6.7657  -15.9977   25.9045 N   0  0  0  0  0  0  0  0  0  0  0  0
    8.1843  -15.1340   24.0553 C   0  0  0  0  0  0  0  0  0  0  0  0
    9.3227  -15.3140   24.6322 O   0  0  0  0  0  0  0  0  0  0  0  0
    8.1675  -15.1718   22.6608 N   0  0  0  0  0  0  0  0  0  0  0  0
    6.9893  -15.2604   21.7573 C   0  0  0  0  0  0  0  0  0  0  0  0
    7.2427  -14.0445   20.8859 C   0  0  0  0  0  0  0  0  0  0  0  0
    8.7409  -13.8112   20.9618 C   0  0  0  0  0  0  0  0  0  0  0  0
    9.1642  -15.1494   21.6321 C   0  0  1  0  0  0  0  0  0  0  0  0
   10.5567  -15.1891   21.9273 C   0  0  0  0  0  0  0  0  0  0  0  0
   11.0896  -15.1176   23.0275 O   0  0  0  0  0  0  0  0  0  0  0  0
   11.4523  -15.3271   20.8361 O   0  0  0  0  0  0  0  0  0  0  0  0
  1  2  1  0
  2  3  2  0
  4  2  1  0
  4  5  1  0
  5  6  1  6
  7  8  2  0
  7  5  1  0
  9 10  1  0
 10 11  1  0
 11 12  1  6
 13 11  1  0
 13 14  1  1
 14  7  1  0
 15 13  1  0
 16 15  2  0
 17 18  1  0
 17 15  1  0
 19 18  1  0
 20 21  1  0
 20 19  1  0
 21 17  1  0
 22 24  1  0
 21 22  1  1
 23 22  2  0
M  END
$$$$
