TEN.pdb
     RDKit          3D

 25 24  0  0  1  0  0  0  0  0999 V2000
   25.9643  -12.7545  -18.7370 C   0  0  0  0  0  0  0  0  0  0  0  0
   24.7232  -12.8350  -17.8636 C   0  0  1  0  0  0  0  0  0  0  0  0
   24.6088  -14.1003  -17.2796 O   0  0  0  0  0  0  0  0  0  0  0  0
   24.7552  -11.8010  -16.7725 C   0  0  2  0  0  0  0  0  0  0  0  0
   24.9371  -12.3594  -15.4674 N   0  0  0  0  0  0  0  0  0  0  0  0
   23.5089  -10.9952  -16.8623 C   0  0  0  0  0  0  0  0  0  0  0  0
   23.2516  -10.3659  -17.9231 O   0  0  0  0  0  0  0  0  0  0  0  0
   22.5777  -10.8957  -15.7978 N   0  0  0  0  0  0  0  0  0  0  0  0
   21.3806  -10.1232  -15.9669 C   0  0  1  0  0  0  0  0  0  0  0  0
   20.1419  -10.8636  -15.5167 C   0  0  0  0  0  0  0  0  0  0  0  0
   19.7267  -11.9345  -16.4695 C   0  0  0  0  0  0  0  0  0  0  0  0
   18.5185  -12.6064  -15.9396 C   0  0  0  0  0  0  0  0  0  0  0  0
   18.5267  -13.8290  -15.7463 O   0  0  0  0  0  0  0  0  0  0  0  0
   21.4836   -8.9087  -15.1084 C   0  0  0  0  0  0  0  0  0  0  0  0
   21.8013   -9.0365  -13.8968 O   0  0  0  0  0  0  0  0  0  0  0  0
   17.3852  -11.8727  -15.6614 O   0  0  0  0  0  0  0  0  0  0  0  0
   22.0330   -3.8929  -13.5533 N   0  0  0  0  0  0  0  0  0  0  0  0
   22.6524   -4.2686  -14.7624 C   0  0  0  0  0  0  0  0  0  0  0  0
   23.4101   -3.4441  -15.3151 O   0  0  0  0  0  0  0  0  0  0  0  0
   22.4124   -5.5769  -15.3428 C   0  0  0  0  0  0  0  0  0  0  0  0
   21.4062   -6.4527  -14.6902 C   0  0  2  0  0  0  0  0  0  0  0  0
   21.2459   -7.6119  -15.5693 N   0  0  0  0  0  0  0  0  0  0  0  0
   20.0874   -5.8825  -14.4435 C   0  0  0  0  0  0  0  0  0  0  0  0
   19.7429   -5.3142  -13.2393 O   0  0  0  0  0  0  0  0  0  0  0  0
   19.1767   -5.8820  -15.3391 O   0  0  0  0  0  0  0  0  0  0  0  0
  2  1  1  1
  2  3  1  0
  4  6  1  0
  4  2  1  0
  4  5  1  1
  6  7  2  0
  8  9  1  0
  8  6  1  0
  9 14  1  0
 10 11  1  0
  9 10  1  1
 12 11  1  0
 13 12  2  0
 14 22  1  0
 14 15  2  0
 16 12  1  0
 18 17  1  0
 18 20  1  0
 19 18  2  0
 21 20  1  6
 21 23  1  0
 22 21  1  0
 23 25  2  0
 23 24  1  0
M  END
$$$$
