TEN.pdb
     RDKit          3D

 25 24  0  0  1  0  0  0  0  0999 V2000
   12.7221  -11.1730  -10.8698 C   0  0  0  0  0  0  0  0  0  0  0  0
   13.1378  -12.3992  -11.6657 C   0  0  1  0  0  0  0  0  0  0  0  0
   12.0159  -13.1002  -12.1189 O   0  0  0  0  0  0  0  0  0  0  0  0
   13.9818  -12.0207  -12.8510 C   0  0  2  0  0  0  0  0  0  0  0  0
   14.3669  -13.1412  -13.6537 N   0  0  0  0  0  0  0  0  0  0  0  0
   15.1605  -11.2617  -12.3560 C   0  0  0  0  0  0  0  0  0  0  0  0
   16.2941  -11.8114  -12.3483 O   0  0  0  0  0  0  0  0  0  0  0  0
   15.0746   -9.9276  -11.8839 N   0  0  0  0  0  0  0  0  0  0  0  0
   16.2698   -9.1522  -11.7148 C   0  0  1  0  0  0  0  0  0  0  0  0
   17.0557   -9.0072  -12.9979 C   0  0  0  0  0  0  0  0  0  0  0  0
   18.3138   -9.8098  -13.0026 C   0  0  0  0  0  0  0  0  0  0  0  0
   19.0072   -9.6077  -14.2950 C   0  0  0  0  0  0  0  0  0  0  0  0
   18.3622   -9.2668  -15.2951 O   0  0  0  0  0  0  0  0  0  0  0  0
   15.8780   -7.7749  -11.3000 C   0  0  0  0  0  0  0  0  0  0  0  0
   15.2924   -7.0265  -12.1259 O   0  0  0  0  0  0  0  0  0  0  0  0
   20.3693   -9.7986  -14.3861 O   0  0  0  0  0  0  0  0  0  0  0  0
   15.2989   -6.7714   -6.9748 N   0  0  0  0  0  0  0  0  0  0  0  0
   14.1755   -6.4154   -7.7480 C   0  0  0  0  0  0  0  0  0  0  0  0
   13.0517   -6.4566   -7.2049 O   0  0  0  0  0  0  0  0  0  0  0  0
   14.3271   -6.0137   -9.1342 C   0  0  0  0  0  0  0  0  0  0  0  0
   15.7045   -5.8921   -9.6759 C   0  0  2  0  0  0  0  0  0  0  0  0
   16.1229   -7.2493  -10.0294 N   0  0  0  0  0  0  0  0  0  0  0  0
   16.7167   -5.3176   -8.7981 C   0  0  0  0  0  0  0  0  0  0  0  0
   16.6357   -4.0295   -8.3225 O   0  0  0  0  0  0  0  0  0  0  0  0
   17.7390   -5.9853   -8.4231 O   0  0  0  0  0  0  0  0  0  0  0  0
  2  1  1  6
  2  3  1  0
  4  6  1  0
  4  2  1  0
  4  5  1  1
  6  7  2  0
  8  9  1  0
  8  6  1  0
  9 14  1  0
 10 11  1  0
  9 10  1  6
 12 11  1  0
 13 12  2  0
 14 22  1  0
 14 15  2  0
 16 12  1  0
 18 17  1  0
 18 20  1  0
 19 18  2  0
 21 20  1  1
 21 23  1  0
 22 21  1  0
 23 25  2  0
 23 24  1  0
M  END
$$$$
