TEN.pdb
     RDKit          3D

 25 24  0  0  1  0  0  0  0  0999 V2000
   23.2578  -12.9438  -14.6917 C   0  0  0  0  0  0  0  0  0  0  0  0
   22.6333  -11.6570  -15.2054 C   0  0  1  0  0  0  0  0  0  0  0  0
   23.5473  -10.9372  -15.9811 O   0  0  0  0  0  0  0  0  0  0  0  0
   21.4109  -11.9364  -16.0350 C   0  0  2  0  0  0  0  0  0  0  0  0
   21.7017  -12.6078  -17.2649 N   0  0  0  0  0  0  0  0  0  0  0  0
   20.7005  -10.6498  -16.2598 C   0  0  0  0  0  0  0  0  0  0  0  0
   20.9045  -10.0058  -17.3233 O   0  0  0  0  0  0  0  0  0  0  0  0
   19.7891  -10.0994  -15.3237 N   0  0  0  0  0  0  0  0  0  0  0  0
   19.0601   -8.9084  -15.6530 C   0  0  1  0  0  0  0  0  0  0  0  0
   17.6373   -8.9373  -15.1434 C   0  0  0  0  0  0  0  0  0  0  0  0
   16.7806   -9.9215  -15.8676 C   0  0  0  0  0  0  0  0  0  0  0  0
   15.4744  -10.0201  -15.1777 C   0  0  0  0  0  0  0  0  0  0  0  0
   14.4597   -9.5478  -15.7065 O   0  0  0  0  0  0  0  0  0  0  0  0
   19.7259   -7.7537  -14.9851 C   0  0  0  0  0  0  0  0  0  0  0  0
   20.1745   -7.8934  -13.8169 O   0  0  0  0  0  0  0  0  0  0  0  0
   15.3867  -10.6368  -13.9481 O   0  0  0  0  0  0  0  0  0  0  0  0
   22.4044   -3.2341  -14.3800 N   0  0  0  0  0  0  0  0  0  0  0  0
   22.7022   -4.0775  -15.4693 C   0  0  0  0  0  0  0  0  0  0  0  0
   23.7285   -3.8336  -16.1377 O   0  0  0  0  0  0  0  0  0  0  0  0
   21.8372   -5.1950  -15.7994 C   0  0  0  0  0  0  0  0  0  0  0  0
   20.6600   -5.4435  -14.9288 C   0  0  2  0  0  0  0  0  0  0  0  0
   19.8881   -6.5016  -15.5821 N   0  0  0  0  0  0  0  0  0  0  0  0
   19.7682   -4.3180  -14.6778 C   0  0  0  0  0  0  0  0  0  0  0  0
   20.0552   -3.3413  -13.7528 O   0  0  0  0  0  0  0  0  0  0  0  0
   18.6658   -4.1800  -15.3080 O   0  0  0  0  0  0  0  0  0  0  0  0
  2  1  1  6
  2  3  1  0
  4  6  1  0
  4  2  1  0
  4  5  1  6
  6  7  2  0
  8  9  1  0
  8  6  1  0
  9 14  1  0
 10 11  1  0
  9 10  1  1
 12 11  1  0
 13 12  2  0
 14 22  1  0
 14 15  2  0
 16 12  1  0
 18 17  1  0
 18 20  1  0
 19 18  2  0
 21 20  1  6
 21 23  1  0
 22 21  1  0
 23 25  2  0
 23 24  1  0
M  END
$$$$
