TEN.pdb
     RDKit          3D

 25 24  0  0  1  0  0  0  0  0999 V2000
   17.6310   -8.3956  -17.2595 C   0  0  0  0  0  0  0  0  0  0  0  0
   17.3240   -9.5863  -16.3664 C   0  0  1  0  0  0  0  0  0  0  0  0
   16.2699  -10.3408  -16.8905 O   0  0  0  0  0  0  0  0  0  0  0  0
   18.5253  -10.4773  -16.2120 C   0  0  2  0  0  0  0  0  0  0  0  0
   18.2532  -11.6729  -15.4740 N   0  0  0  0  0  0  0  0  0  0  0  0
   19.6165   -9.6794  -15.5929 C   0  0  0  0  0  0  0  0  0  0  0  0
   19.6594   -9.5537  -14.3400 O   0  0  0  0  0  0  0  0  0  0  0  0
   20.6297   -9.0411  -16.3518 N   0  0  0  0  0  0  0  0  0  0  0  0
   21.6310   -8.2567  -15.6881 C   0  0  1  0  0  0  0  0  0  0  0  0
   22.9719   -8.3157  -16.3834 C   0  0  0  0  0  0  0  0  0  0  0  0
   23.9864   -7.4115  -15.7669 C   0  0  0  0  0  0  0  0  0  0  0  0
   25.2283   -7.4642  -16.5713 C   0  0  0  0  0  0  0  0  0  0  0  0
   25.6873   -8.5573  -16.9273 O   0  0  0  0  0  0  0  0  0  0  0  0
   21.2012   -6.8294  -15.7172 C   0  0  0  0  0  0  0  0  0  0  0  0
   20.8246   -6.3221  -16.8063 O   0  0  0  0  0  0  0  0  0  0  0  0
   25.8736   -6.2984  -16.9241 O   0  0  0  0  0  0  0  0  0  0  0  0
   19.3970   -2.0905  -14.4873 N   0  0  0  0  0  0  0  0  0  0  0  0
   18.7117   -3.2688  -14.1288 C   0  0  0  0  0  0  0  0  0  0  0  0
   17.5442   -3.1615  -13.6988 O   0  0  0  0  0  0  0  0  0  0  0  0
   19.3498   -4.5657  -14.2578 C   0  0  0  0  0  0  0  0  0  0  0  0
   20.7714   -4.6013  -14.6860 C   0  0  2  0  0  0  0  0  0  0  0  0
   21.1885   -6.0011  -14.5928 N   0  0  0  0  0  0  0  0  0  0  0  0
   21.7163   -3.7929  -13.9251 C   0  0  0  0  0  0  0  0  0  0  0  0
   21.9316   -2.4613  -14.1938 O   0  0  0  0  0  0  0  0  0  0  0  0
   22.3985   -4.2833  -12.9631 O   0  0  0  0  0  0  0  0  0  0  0  0
  2  1  1  6
  2  3  1  0
  4  6  1  0
  4  2  1  0
  4  5  1  1
  6  7  2  0
  8  9  1  0
  8  6  1  0
  9 14  1  0
 10 11  1  0
  9 10  1  6
 12 11  1  0
 13 12  2  0
 14 22  1  0
 14 15  2  0
 16 12  1  0
 18 17  1  0
 18 20  1  0
 19 18  2  0
 21 20  1  1
 21 23  1  0
 22 21  1  0
 23 25  2  0
 23 24  1  0
M  END
$$$$
