STT.pdb
     RDKit          3D

 21 20  0  0  1  0  0  0  0  0999 V2000
   17.5666  -13.6576  -15.2403 O   0  0  0  0  0  0  0  0  0  0  0  0
   17.9135  -12.4045  -15.7084 C   0  0  0  0  0  0  0  0  0  0  0  0
   16.8169  -11.3785  -15.5165 C   0  0  2  0  0  0  0  0  0  0  0  0
   15.6811  -11.7744  -16.2895 N   0  0  0  0  0  0  0  0  0  0  0  0
   17.2725  -10.0135  -15.8727 C   0  0  0  0  0  0  0  0  0  0  0  0
   17.3433   -9.6143  -17.0567 O   0  0  0  0  0  0  0  0  0  0  0  0
   15.7621   -6.7609  -15.5030 C   0  0  0  0  0  0  0  0  0  0  0  0
   16.9082   -6.8197  -14.5312 C   0  0  1  0  0  0  0  0  0  0  0  0
   16.5260   -7.2113  -13.2724 O   0  0  0  0  0  0  0  0  0  0  0  0
   18.0151   -7.7512  -15.0363 C   0  0  2  0  0  0  0  0  0  0  0  0
   17.6398   -9.1355  -14.8167 N   0  0  0  0  0  0  0  0  0  0  0  0
   19.2452   -7.5052  -14.2384 C   0  0  0  0  0  0  0  0  0  0  0  0
   19.3902   -8.0310  -13.1073 O   0  0  0  0  0  0  0  0  0  0  0  0
   22.4637   -8.6552  -14.4167 C   0  0  0  0  0  0  0  0  0  0  0  0
   22.7037   -7.1591  -14.4442 C   0  0  1  0  0  0  0  0  0  0  0  0
   22.8102   -6.8035  -15.7913 O   0  0  0  0  0  0  0  0  0  0  0  0
   21.4690   -6.4896  -13.9093 C   0  0  2  0  0  0  0  0  0  0  0  0
   20.3039   -6.6831  -14.6927 N   0  0  0  0  0  0  0  0  0  0  0  0
   21.7292   -5.0242  -13.6858 C   0  0  0  0  0  0  0  0  0  0  0  0
   21.0199   -4.0314  -14.3357 O   0  0  0  0  0  0  0  0  0  0  0  0
   22.6260   -4.6828  -12.8770 O   0  0  0  0  0  0  0  0  0  0  0  0
  2  1  1  0
  3  2  1  0
  3  4  1  6
  5 11  1  0
  5  3  1  0
  6  5  2  0
  8  7  1  6
  9  8  1  0
 10 12  1  0
 10  8  1  0
 10 11  1  1
 12 18  1  0
 13 12  2  0
 15 14  1  6
 15 16  1  0
 17 15  1  0
 17 18  1  6
 19 20  1  0
 19 17  1  0
 21 19  2  0
M  END
$$$$
