STT.pdb
     RDKit          3D

 21 20  0  0  1  0  0  0  0  0999 V2000
   16.5565  -14.0392  -13.9049 O   0  0  0  0  0  0  0  0  0  0  0  0
   17.2882  -13.1528  -14.6721 C   0  0  0  0  0  0  0  0  0  0  0  0
   16.4604  -11.9938  -15.1856 C   0  0  2  0  0  0  0  0  0  0  0  0
   15.4042  -12.5122  -15.9981 N   0  0  0  0  0  0  0  0  0  0  0  0
   17.2885  -11.0118  -15.9255 C   0  0  0  0  0  0  0  0  0  0  0  0
   18.1017  -11.3501  -16.8146 O   0  0  0  0  0  0  0  0  0  0  0  0
   17.2854   -6.4810  -17.6546 C   0  0  0  0  0  0  0  0  0  0  0  0
   16.7015   -7.7467  -17.0902 C   0  0  1  0  0  0  0  0  0  0  0  0
   16.0915   -8.5275  -18.0402 O   0  0  0  0  0  0  0  0  0  0  0  0
   17.7686   -8.5735  -16.3652 C   0  0  2  0  0  0  0  0  0  0  0  0
   17.1416   -9.6356  -15.6008 N   0  0  0  0  0  0  0  0  0  0  0  0
   18.4700   -7.6962  -15.3911 C   0  0  0  0  0  0  0  0  0  0  0  0
   17.9134   -7.3590  -14.3172 O   0  0  0  0  0  0  0  0  0  0  0  0
   22.3775   -5.9096  -13.2536 C   0  0  0  0  0  0  0  0  0  0  0  0
   21.8811   -6.7383  -14.4213 C   0  0  1  0  0  0  0  0  0  0  0  0
   21.9391   -8.0721  -14.0088 O   0  0  0  0  0  0  0  0  0  0  0  0
   20.4304   -6.4061  -14.6316 C   0  0  2  0  0  0  0  0  0  0  0  0
   19.7770   -7.1985  -15.6080 N   0  0  0  0  0  0  0  0  0  0  0  0
   20.2727   -4.9405  -14.9352 C   0  0  0  0  0  0  0  0  0  0  0  0
   20.7021   -4.3721  -16.1200 O   0  0  0  0  0  0  0  0  0  0  0  0
   19.7298   -4.1981  -14.0813 O   0  0  0  0  0  0  0  0  0  0  0  0
  2  1  1  0
  3  2  1  0
  3  4  1  6
  5 11  1  0
  5  3  1  0
  6  5  2  0
  8  7  1  6
  9  8  1  0
 10 12  1  0
 10  8  1  0
 10 11  1  1
 12 18  1  0
 13 12  2  0
 15 14  1  1
 15 16  1  0
 17 15  1  0
 17 18  1  6
 19 20  1  0
 19 17  1  0
 21 19  2  0
M  END
$$$$
