STT.pdb
     RDKit          3D

 21 20  0  0  1  0  0  0  0  0999 V2000
   13.5955  -11.8098   -9.4333 O   0  0  0  0  0  0  0  0  0  0  0  0
   13.9988  -10.6225  -10.0141 C   0  0  0  0  0  0  0  0  0  0  0  0
   13.9853   -9.4578   -9.0470 C   0  0  2  0  0  0  0  0  0  0  0  0
   12.6536   -9.2893   -8.5542 N   0  0  0  0  0  0  0  0  0  0  0  0
   14.4980   -8.2163   -9.6740 C   0  0  0  0  0  0  0  0  0  0  0  0
   13.7959   -7.1891   -9.8074 O   0  0  0  0  0  0  0  0  0  0  0  0
   15.2672   -5.4506   -9.1038 C   0  0  0  0  0  0  0  0  0  0  0  0
   16.6185   -5.9784   -9.5002 C   0  0  1  0  0  0  0  0  0  0  0  0
   17.3094   -6.5296   -8.4500 O   0  0  0  0  0  0  0  0  0  0  0  0
   16.5009   -7.0112  -10.6258 C   0  0  2  0  0  0  0  0  0  0  0  0
   15.8422   -8.2082  -10.1369 N   0  0  0  0  0  0  0  0  0  0  0  0
   17.8686   -7.4128  -11.0483 C   0  0  0  0  0  0  0  0  0  0  0  0
   18.6376   -8.0032  -10.2502 O   0  0  0  0  0  0  0  0  0  0  0  0
   18.8828   -9.8833  -13.2206 C   0  0  0  0  0  0  0  0  0  0  0  0
   19.6455   -8.7006  -13.7828 C   0  0  1  0  0  0  0  0  0  0  0  0
   18.8873   -8.2172  -14.8523 O   0  0  0  0  0  0  0  0  0  0  0  0
   19.6585   -7.6259  -12.7322 C   0  0  2  0  0  0  0  0  0  0  0  0
   18.3771   -7.1608  -12.3449 N   0  0  0  0  0  0  0  0  0  0  0  0
   20.5353   -6.4836  -13.1698 C   0  0  0  0  0  0  0  0  0  0  0  0
   21.9023   -6.6102  -13.3327 O   0  0  0  0  0  0  0  0  0  0  0  0
   20.0096   -5.3670  -13.3980 O   0  0  0  0  0  0  0  0  0  0  0  0
  2  1  1  0
  3  2  1  0
  3  4  1  6
  5 11  1  0
  5  3  1  0
  6  5  2  0
  8  7  1  1
  9  8  1  0
 10 12  1  0
 10  8  1  0
 10 11  1  1
 12 18  1  0
 13 12  2  0
 15 14  1  1
 15 16  1  0
 17 15  1  0
 17 18  1  6
 19 20  1  0
 19 17  1  0
 21 19  2  0
M  END
$$$$
