STT.pdb
     RDKit          3D

 21 20  0  0  1  0  0  0  0  0999 V2000
   17.0767  -12.4441  -13.6714 O   0  0  0  0  0  0  0  0  0  0  0  0
   16.2691  -12.5031  -14.7912 C   0  0  0  0  0  0  0  0  0  0  0  0
   16.9762  -13.0801  -15.9991 C   0  0  2  0  0  0  0  0  0  0  0  0
   17.3669  -14.4228  -15.7010 N   0  0  0  0  0  0  0  0  0  0  0  0
   18.1354  -12.2504  -16.4060 C   0  0  0  0  0  0  0  0  0  0  0  0
   19.2855  -12.7229  -16.5480 O   0  0  0  0  0  0  0  0  0  0  0  0
   18.3329  -10.1711  -19.5578 C   0  0  0  0  0  0  0  0  0  0  0  0
   18.4513   -9.2376  -18.3848 C   0  0  1  0  0  0  0  0  0  0  0  0
   17.2761   -8.5923  -18.0906 O   0  0  0  0  0  0  0  0  0  0  0  0
   18.9486   -9.9761  -17.1377 C   0  0  2  0  0  0  0  0  0  0  0  0
   17.9156  -10.8656  -16.6405 N   0  0  0  0  0  0  0  0  0  0  0  0
   19.2118   -8.9786  -16.0671 C   0  0  0  0  0  0  0  0  0  0  0  0
   18.4623   -8.9053  -15.0623 O   0  0  0  0  0  0  0  0  0  0  0  0
   22.0414   -6.1300  -13.4339 C   0  0  0  0  0  0  0  0  0  0  0  0
   21.9496   -7.1760  -14.5265 C   0  0  1  0  0  0  0  0  0  0  0  0
   22.1464   -8.4117  -13.9043 O   0  0  0  0  0  0  0  0  0  0  0  0
   20.5405   -7.1667  -15.0491 C   0  0  2  0  0  0  0  0  0  0  0  0
   20.2972   -8.0714  -16.1124 N   0  0  0  0  0  0  0  0  0  0  0  0
   20.1384   -5.7676  -15.4311 C   0  0  0  0  0  0  0  0  0  0  0  0
   20.1214   -5.3260  -16.7410 O   0  0  0  0  0  0  0  0  0  0  0  0
   19.8035   -4.9636  -14.5276 O   0  0  0  0  0  0  0  0  0  0  0  0
  2  1  1  0
  3  2  1  0
  3  4  1  1
  5 11  1  0
  5  3  1  0
  6  5  2  0
  8  7  1  6
  9  8  1  0
 10 12  1  0
 10  8  1  0
 10 11  1  1
 12 18  1  0
 13 12  2  0
 15 14  1  1
 15 16  1  0
 17 15  1  0
 17 18  1  6
 19 20  1  0
 19 17  1  0
 21 19  2  0
M  END
$$$$
