STT.pdb
     RDKit          3D

 21 20  0  0  1  0  0  0  0  0999 V2000
   16.6644  -10.3036  -18.9230 O   0  0  0  0  0  0  0  0  0  0  0  0
   17.2269   -9.9663  -17.7067 C   0  0  0  0  0  0  0  0  0  0  0  0
   18.2579  -10.9695  -17.2348 C   0  0  2  0  0  0  0  0  0  0  0  0
   17.5930  -12.1980  -16.9297 N   0  0  0  0  0  0  0  0  0  0  0  0
   19.0287  -10.4616  -16.0749 C   0  0  0  0  0  0  0  0  0  0  0  0
   18.5314  -10.3505  -14.9319 O   0  0  0  0  0  0  0  0  0  0  0  0
   23.5084   -9.6737  -14.2056 C   0  0  0  0  0  0  0  0  0  0  0  0
   22.5718  -10.2874  -15.2094 C   0  0  1  0  0  0  0  0  0  0  0  0
   22.3528  -11.6250  -14.9926 O   0  0  0  0  0  0  0  0  0  0  0  0
   21.2276   -9.5524  -15.2339 C   0  0  2  0  0  0  0  0  0  0  0  0
   20.3847  -10.0904  -16.2854 N   0  0  0  0  0  0  0  0  0  0  0  0
   21.4722   -8.1237  -15.5649 C   0  0  0  0  0  0  0  0  0  0  0  0
   22.0296   -7.8029  -16.6435 O   0  0  0  0  0  0  0  0  0  0  0  0
   19.3710   -5.4411  -16.4293 C   0  0  0  0  0  0  0  0  0  0  0  0
   20.1377   -4.8669  -15.2549 C   0  0  1  0  0  0  0  0  0  0  0  0
   19.3272   -5.0477  -14.1311 O   0  0  0  0  0  0  0  0  0  0  0  0
   21.3633   -5.7131  -15.0534 C   0  0  2  0  0  0  0  0  0  0  0  0
   21.1013   -7.0618  -14.7060 N   0  0  0  0  0  0  0  0  0  0  0  0
   22.2797   -5.0676  -14.0490 C   0  0  0  0  0  0  0  0  0  0  0  0
   22.9226   -3.8671  -14.2869 O   0  0  0  0  0  0  0  0  0  0  0  0
   22.4723   -5.6379  -12.9478 O   0  0  0  0  0  0  0  0  0  0  0  0
  2  1  1  0
  3  2  1  0
  3  4  1  1
  5 11  1  0
  5  3  1  0
  6  5  2  0
  8  7  1  1
  9  8  1  0
 10 12  1  0
 10  8  1  0
 10 11  1  6
 12 18  1  0
 13 12  2  0
 15 14  1  6
 15 16  1  0
 17 15  1  0
 17 18  1  1
 19 20  1  0
 19 17  1  0
 21 19  2  0
M  END
$$$$
