YQI.pdb
     RDKit          3D

 30 30  0  0  1  0  0  0  0  0999 V2000
   30.2474  -18.5360  -20.4234 O   0  0  0  0  0  0  0  0  0  0  0  0
   29.5300  -18.2323  -19.2604 C   0  0  0  0  0  0  0  0  0  0  0  0
   29.9836  -18.7061  -18.0487 C   0  0  0  0  0  0  0  0  0  0  0  0
   29.2690  -18.4028  -16.9015 C   0  0  0  0  0  0  0  0  0  0  0  0
   28.1149  -17.6396  -16.9332 C   0  0  0  0  0  0  0  0  0  0  0  0
   27.4290  -17.3597  -15.6414 C   0  0  0  0  0  0  0  0  0  0  0  0
   26.7504  -18.6211  -15.2109 C   0  0  2  0  0  0  0  0  0  0  0  0
   26.0831  -19.2596  -16.3428 N   0  0  0  0  0  0  0  0  0  0  0  0
   25.7581  -18.4268  -14.1051 C   0  0  0  0  0  0  0  0  0  0  0  0
   24.8060  -17.6384  -14.1946 O   0  0  0  0  0  0  0  0  0  0  0  0
   27.6786  -17.1762  -18.1505 C   0  0  0  0  0  0  0  0  0  0  0  0
   28.3946  -17.4784  -19.3138 C   0  0  0  0  0  0  0  0  0  0  0  0
   21.2976  -21.2758  -13.7981 N   0  0  0  0  0  0  0  0  0  0  0  0
   21.3057  -20.9771  -12.4125 C   0  0  0  0  0  0  0  0  0  0  0  0
   20.2517  -21.1561  -11.7516 O   0  0  0  0  0  0  0  0  0  0  0  0
   22.5155  -20.4626  -11.7567 C   0  0  0  0  0  0  0  0  0  0  0  0
   23.6492  -20.1908  -12.7337 C   0  0  0  0  0  0  0  0  0  0  0  0
   24.8320  -19.5752  -12.0219 C   0  0  2  0  0  0  0  0  0  0  0  0
   25.8981  -19.1708  -12.8849 N   0  0  0  0  0  0  0  0  0  0  0  0
   25.2995  -20.3448  -10.8552 C   0  0  0  0  0  0  0  0  0  0  0  0
   25.8207  -21.4961  -10.9729 O   0  0  0  0  0  0  0  0  0  0  0  0
   27.7433  -17.8519   -6.6964 C   0  0  0  0  0  0  0  0  0  0  0  0
   27.4482  -18.9295   -7.6877 C   0  0  0  0  0  0  0  0  0  0  0  0
   26.4008  -19.9170   -7.2968 C   0  0  2  0  0  0  0  0  0  0  0  0
   26.9614  -20.9382   -6.2934 C   0  0  0  0  0  0  0  0  0  0  0  0
   25.7258  -20.6278   -8.3957 C   0  0  2  0  0  0  0  0  0  0  0  0
   25.2120  -19.8713   -9.4898 N   0  0  0  0  0  0  0  0  0  0  0  0
   24.7660  -21.6892   -7.8990 C   0  0  0  0  0  0  0  0  0  0  0  0
   23.5475  -21.4953   -7.8219 O   0  0  0  0  0  0  0  0  0  0  0  0
   25.3513  -22.8922   -7.5410 O   0  0  0  0  0  0  0  0  0  0  0  0
  1  2  1  0
  2 12  2  0
  3  4  2  0
  3  2  1  0
  4  5  1  0
  5  6  1  0
  5 11  2  0
  7  8  1  6
  7  6  1  0
  9  7  1  0
  9 10  2  0
 12 11  1  0
 13 14  1  0
 14 15  2  0
 16 17  1  0
 16 14  1  0
 18 17  1  6
 18 19  1  0
 18 20  1  0
 19  9  1  0
 20 27  1  0
 21 20  2  0
 22 23  1  0
 23 24  1  0
 24 25  1  1
 24 26  1  0
 26 28  1  0
 26 27  1  1
 28 29  2  0
 28 30  1  0
M  END
$$$$
