YQI.pdb
     RDKit          3D

 30 30  0  0  1  0  0  0  0  0999 V2000
   14.9419  -20.0747  -10.8706 O   0  0  0  0  0  0  0  0  0  0  0  0
   16.1757  -20.5923  -11.2819 C   0  0  0  0  0  0  0  0  0  0  0  0
   16.4756  -21.9093  -11.0097 C   0  0  0  0  0  0  0  0  0  0  0  0
   17.6984  -22.4155  -11.4186 C   0  0  0  0  0  0  0  0  0  0  0  0
   18.6280  -21.6418  -12.0913 C   0  0  0  0  0  0  0  0  0  0  0  0
   19.9071  -22.2862  -12.4989 C   0  0  0  0  0  0  0  0  0  0  0  0
   19.9542  -22.2844  -13.9938 C   0  0  2  0  0  0  0  0  0  0  0  0
   18.8597  -23.0795  -14.5451 N   0  0  0  0  0  0  0  0  0  0  0  0
   21.2507  -22.7799  -14.5584 C   0  0  0  0  0  0  0  0  0  0  0  0
   21.3776  -23.9148  -15.0401 O   0  0  0  0  0  0  0  0  0  0  0  0
   18.3107  -20.3312  -12.3537 C   0  0  0  0  0  0  0  0  0  0  0  0
   17.0779  -19.8123  -11.9437 C   0  0  0  0  0  0  0  0  0  0  0  0
   25.6387  -23.7265  -17.2813 N   0  0  0  0  0  0  0  0  0  0  0  0
   24.4166  -24.4364  -17.3898 C   0  0  0  0  0  0  0  0  0  0  0  0
   24.4524  -25.6521  -17.7067 O   0  0  0  0  0  0  0  0  0  0  0  0
   23.1304  -23.7700  -17.1444 C   0  0  0  0  0  0  0  0  0  0  0  0
   23.2803  -22.2885  -16.8339 C   0  0  0  0  0  0  0  0  0  0  0  0
   23.5682  -22.0769  -15.3652 C   0  0  2  0  0  0  0  0  0  0  0  0
   22.4039  -21.9243  -14.5492 N   0  0  0  0  0  0  0  0  0  0  0  0
   24.5957  -21.0556  -15.0943 C   0  0  0  0  0  0  0  0  0  0  0  0
   24.3447  -19.8133  -15.1619 O   0  0  0  0  0  0  0  0  0  0  0  0
   27.9350  -20.2598  -10.4283 C   0  0  0  0  0  0  0  0  0  0  0  0
   28.1884  -20.0927  -11.8908 C   0  0  0  0  0  0  0  0  0  0  0  0
   27.5057  -21.0638  -12.7941 C   0  0  2  0  0  0  0  0  0  0  0  0
   28.5031  -22.1035  -13.3307 C   0  0  0  0  0  0  0  0  0  0  0  0
   26.7412  -20.4920  -13.9153 C   0  0  2  0  0  0  0  0  0  0  0  0
   25.9630  -21.3645  -14.7316 N   0  0  0  0  0  0  0  0  0  0  0  0
   27.5435  -19.4841  -14.7121 C   0  0  0  0  0  0  0  0  0  0  0  0
   27.8874  -18.3931  -14.2432 O   0  0  0  0  0  0  0  0  0  0  0  0
   27.8662  -19.8740  -16.0011 O   0  0  0  0  0  0  0  0  0  0  0  0
  1  2  1  0
  2 12  2  0
  3  4  2  0
  3  2  1  0
  4  5  1  0
  5  6  1  0
  5 11  2  0
  7  8  1  6
  7  6  1  0
  9  7  1  0
  9 10  2  0
 12 11  1  0
 13 14  1  0
 14 15  2  0
 16 17  1  0
 16 14  1  0
 18 17  1  6
 18 19  1  0
 18 20  1  0
 19  9  1  0
 20 27  1  0
 21 20  2  0
 22 23  1  0
 23 24  1  0
 24 25  1  6
 24 26  1  0
 26 28  1  0
 26 27  1  6
 28 29  2  0
 28 30  1  0
M  END
$$$$
