YQI.pdb
     RDKit          3D

 30 30  0  0  1  0  0  0  0  0999 V2000
   17.3961  -16.8483  -16.8714 O   0  0  0  0  0  0  0  0  0  0  0  0
   18.3497  -17.6507  -16.2341 C   0  0  0  0  0  0  0  0  0  0  0  0
   19.5508  -17.0928  -15.8540 C   0  0  0  0  0  0  0  0  0  0  0  0
   20.4906  -17.8923  -15.2244 C   0  0  0  0  0  0  0  0  0  0  0  0
   20.2622  -19.2323  -14.9648 C   0  0  0  0  0  0  0  0  0  0  0  0
   21.3327  -20.0000  -14.2705 C   0  0  0  0  0  0  0  0  0  0  0  0
   22.4073  -20.2786  -15.2729 C   0  0  2  0  0  0  0  0  0  0  0  0
   21.9222  -21.1858  -16.3100 N   0  0  0  0  0  0  0  0  0  0  0  0
   23.6595  -20.8445  -14.6754 C   0  0  0  0  0  0  0  0  0  0  0  0
   23.8083  -22.0564  -14.4633 O   0  0  0  0  0  0  0  0  0  0  0  0
   19.0587  -19.7704  -15.3510 C   0  0  0  0  0  0  0  0  0  0  0  0
   18.1044  -18.9697  -15.9878 C   0  0  0  0  0  0  0  0  0  0  0  0
   28.5813  -21.5584  -15.1420 N   0  0  0  0  0  0  0  0  0  0  0  0
   29.0196  -21.1556  -13.8556 C   0  0  0  0  0  0  0  0  0  0  0  0
   30.0069  -21.7420  -13.3447 O   0  0  0  0  0  0  0  0  0  0  0  0
   28.3351  -20.0799  -13.1257 C   0  0  0  0  0  0  0  0  0  0  0  0
   27.1332  -19.5264  -13.8759 C   0  0  0  0  0  0  0  0  0  0  0  0
   25.8877  -20.3172  -13.5472 C   0  0  2  0  0  0  0  0  0  0  0  0
   24.7405  -19.9664  -14.3254 N   0  0  0  0  0  0  0  0  0  0  0  0
   25.5960  -20.4089  -12.1054 C   0  0  0  0  0  0  0  0  0  0  0  0
   24.7429  -19.6569  -11.5418 O   0  0  0  0  0  0  0  0  0  0  0  0
   27.5141  -19.5795   -6.7853 C   0  0  0  0  0  0  0  0  0  0  0  0
   26.5203  -19.9293   -7.8439 C   0  0  0  0  0  0  0  0  0  0  0  0
   26.9619  -20.9287   -8.8594 C   0  0  2  0  0  0  0  0  0  0  0  0
   28.1932  -20.4192   -9.6264 C   0  0  0  0  0  0  0  0  0  0  0  0
   25.9414  -21.3866   -9.8172 C   0  0  2  0  0  0  0  0  0  0  0  0
   26.2407  -21.3472  -11.2109 N   0  0  0  0  0  0  0  0  0  0  0  0
   24.5583  -20.8646   -9.4872 C   0  0  0  0  0  0  0  0  0  0  0  0
   24.1816  -19.7344   -9.8173 O   0  0  0  0  0  0  0  0  0  0  0  0
   23.7460  -21.7454   -8.7928 O   0  0  0  0  0  0  0  0  0  0  0  0
  1  2  1  0
  2 12  2  0
  3  4  2  0
  3  2  1  0
  4  5  1  0
  5  6  1  0
  5 11  2  0
  7  8  1  6
  7  6  1  0
  9  7  1  0
  9 10  2  0
 12 11  1  0
 13 14  1  0
 14 15  2  0
 16 17  1  0
 16 14  1  0
 18 17  1  1
 18 19  1  0
 18 20  1  0
 19  9  1  0
 20 27  1  0
 21 20  2  0
 22 23  1  0
 23 24  1  0
 24 25  1  6
 24 26  1  0
 26 28  1  0
 26 27  1  6
 28 29  2  0
 28 30  1  0
M  END
$$$$
