YQI.pdb
     RDKit          3D

 30 30  0  0  1  0  0  0  0  0999 V2000
   27.3261  -24.3663  -17.1130 O   0  0  0  0  0  0  0  0  0  0  0  0
   26.3684  -23.9050  -16.2022 C   0  0  0  0  0  0  0  0  0  0  0  0
   26.2872  -22.5549  -15.9396 C   0  0  0  0  0  0  0  0  0  0  0  0
   25.3379  -22.1046  -15.0368 C   0  0  0  0  0  0  0  0  0  0  0  0
   24.4690  -22.9665  -14.3907 C   0  0  0  0  0  0  0  0  0  0  0  0
   23.4766  -22.3789  -13.4487 C   0  0  0  0  0  0  0  0  0  0  0  0
   22.1488  -22.3803  -14.1372 C   0  0  2  0  0  0  0  0  0  0  0  0
   22.1613  -21.4741  -15.2830 N   0  0  0  0  0  0  0  0  0  0  0  0
   21.0029  -22.0197  -13.2416 C   0  0  0  0  0  0  0  0  0  0  0  0
   20.4679  -20.9019  -13.2609 O   0  0  0  0  0  0  0  0  0  0  0  0
   24.5652  -24.3090  -14.6658 C   0  0  0  0  0  0  0  0  0  0  0  0
   25.5215  -24.7717  -15.5761 C   0  0  0  0  0  0  0  0  0  0  0  0
   17.6558  -22.1379  -15.3630 N   0  0  0  0  0  0  0  0  0  0  0  0
   17.7424  -21.0399  -14.4707 C   0  0  0  0  0  0  0  0  0  0  0  0
   17.6205  -19.8774  -14.9325 O   0  0  0  0  0  0  0  0  0  0  0  0
   17.9759  -21.2484  -13.0352 C   0  0  0  0  0  0  0  0  0  0  0  0
   18.0551  -22.7192  -12.6553 C   0  0  0  0  0  0  0  0  0  0  0  0
   19.2006  -22.9632  -11.6997 C   0  0  2  0  0  0  0  0  0  0  0  0
   20.4907  -22.9906  -12.3159 N   0  0  0  0  0  0  0  0  0  0  0  0
   18.9832  -24.0898  -10.7747 C   0  0  0  0  0  0  0  0  0  0  0  0
   19.3063  -25.2798  -11.0753 O   0  0  0  0  0  0  0  0  0  0  0  0
   17.8183  -25.9431   -4.8784 C   0  0  0  0  0  0  0  0  0  0  0  0
   17.8553  -26.1319   -6.3596 C   0  0  0  0  0  0  0  0  0  0  0  0
   18.1535  -24.9172   -7.1725 C   0  0  2  0  0  0  0  0  0  0  0  0
   17.2411  -23.7494   -6.7629 C   0  0  0  0  0  0  0  0  0  0  0  0
   18.1154  -25.0805   -8.6354 C   0  0  2  0  0  0  0  0  0  0  0  0
   18.3927  -23.9507   -9.4601 N   0  0  0  0  0  0  0  0  0  0  0  0
   16.9164  -25.8809   -9.1003 C   0  0  0  0  0  0  0  0  0  0  0  0
   15.9027  -25.3454   -9.5629 O   0  0  0  0  0  0  0  0  0  0  0  0
   17.0391  -27.2544   -8.9730 O   0  0  0  0  0  0  0  0  0  0  0  0
  1  2  1  0
  2 12  2  0
  3  4  2  0
  3  2  1  0
  4  5  1  0
  5  6  1  0
  5 11  2  0
  7  8  1  6
  7  6  1  0
  9  7  1  0
  9 10  2  0
 12 11  1  0
 13 14  1  0
 14 15  2  0
 16 17  1  0
 16 14  1  0
 18 17  1  6
 18 19  1  0
 18 20  1  0
 19  9  1  0
 20 27  1  0
 21 20  2  0
 22 23  1  0
 23 24  1  0
 24 25  1  6
 24 26  1  0
 26 28  1  0
 26 27  1  6
 28 29  2  0
 28 30  1  0
M  END
$$$$
