YQI.pdb
     RDKit          3D

 30 30  0  0  1  0  0  0  0  0999 V2000
   20.0793  -15.5429  -19.9325 O   0  0  0  0  0  0  0  0  0  0  0  0
   20.7983  -16.2577  -18.9674 C   0  0  0  0  0  0  0  0  0  0  0  0
   20.2482  -17.4015  -18.4310 C   0  0  0  0  0  0  0  0  0  0  0  0
   20.9643  -18.1041  -17.4757 C   0  0  0  0  0  0  0  0  0  0  0  0
   22.2135  -17.6947  -17.0432 C   0  0  0  0  0  0  0  0  0  0  0  0
   22.9053  -18.5290  -16.0220 C   0  0  0  0  0  0  0  0  0  0  0  0
   23.9688  -19.3101  -16.7262 C   0  0  2  0  0  0  0  0  0  0  0  0
   23.3743  -20.2924  -17.6293 N   0  0  0  0  0  0  0  0  0  0  0  0
   24.9185  -20.0087  -15.8013 C   0  0  0  0  0  0  0  0  0  0  0  0
   24.6105  -21.0369  -15.1817 O   0  0  0  0  0  0  0  0  0  0  0  0
   22.7453  -16.5521  -17.5898 C   0  0  0  0  0  0  0  0  0  0  0  0
   22.0283  -15.8367  -18.5548 C   0  0  0  0  0  0  0  0  0  0  0  0
   29.6864  -21.7408  -14.6836 N   0  0  0  0  0  0  0  0  0  0  0  0
   29.9466  -20.9200  -13.5576 C   0  0  0  0  0  0  0  0  0  0  0  0
   30.6896  -21.3649  -12.6468 O   0  0  0  0  0  0  0  0  0  0  0  0
   29.3583  -19.5782  -13.4476 C   0  0  0  0  0  0  0  0  0  0  0  0
   28.5043  -19.2053  -14.6497 C   0  0  0  0  0  0  0  0  0  0  0  0
   27.1183  -19.7952  -14.5241 C   0  0  2  0  0  0  0  0  0  0  0  0
   26.2406  -19.4823  -15.6087 N   0  0  0  0  0  0  0  0  0  0  0  0
   26.4944  -19.5906  -13.2046 C   0  0  0  0  0  0  0  0  0  0  0  0
   26.0775  -18.4532  -12.8259 O   0  0  0  0  0  0  0  0  0  0  0  0
   22.0308  -20.5064   -9.5786 C   0  0  0  0  0  0  0  0  0  0  0  0
   23.5076  -20.2913   -9.6388 C   0  0  0  0  0  0  0  0  0  0  0  0
   24.1716  -20.6289  -10.9312 C   0  0  2  0  0  0  0  0  0  0  0  0
   23.8436  -22.0707  -11.3525 C   0  0  0  0  0  0  0  0  0  0  0  0
   25.6274  -20.4172  -10.9964 C   0  0  2  0  0  0  0  0  0  0  0  0
   26.3000  -20.6461  -12.2328 N   0  0  0  0  0  0  0  0  0  0  0  0
   26.3541  -21.0014   -9.8027 C   0  0  0  0  0  0  0  0  0  0  0  0
   26.0648  -20.6993   -8.6394 O   0  0  0  0  0  0  0  0  0  0  0  0
   27.3627  -21.8997  -10.1084 O   0  0  0  0  0  0  0  0  0  0  0  0
  1  2  1  0
  2 12  2  0
  3  4  2  0
  3  2  1  0
  4  5  1  0
  5  6  1  0
  5 11  2  0
  7  8  1  6
  7  6  1  0
  9  7  1  0
  9 10  2  0
 12 11  1  0
 13 14  1  0
 14 15  2  0
 16 17  1  0
 16 14  1  0
 18 17  1  1
 18 19  1  0
 18 20  1  0
 19  9  1  0
 20 27  1  0
 21 20  2  0
 22 23  1  0
 23 24  1  0
 24 25  1  1
 24 26  1  0
 26 28  1  0
 26 27  1  6
 28 29  2  0
 28 30  1  0
M  END
$$$$
