AFY.pdb
     RDKit          3D

 29 30  0  0  1  0  0  0  0  0999 V2000
    9.8927  -18.5285   20.2690 C   0  0  0  0  0  0  0  0  0  0  0  0
    9.4359  -17.1249   19.9069 C   0  0  2  0  0  0  0  0  0  0  0  0
   10.3143  -16.5530   18.9084 N   0  0  0  0  0  0  0  0  0  0  0  0
    9.4032  -16.2596   21.0939 C   0  0  0  0  0  0  0  0  0  0  0  0
   10.4829  -15.6677   21.4295 O   0  0  0  0  0  0  0  0  0  0  0  0
    8.2295  -16.0493   21.8863 N   0  0  0  0  0  0  0  0  0  0  0  0
    8.2524  -15.2201   23.0746 C   0  0  1  0  0  0  0  0  0  0  0  0
    6.9084  -14.6542   23.4084 C   0  0  0  0  0  0  0  0  0  0  0  0
    6.9978  -13.8158   24.6112 C   0  0  0  0  0  0  0  0  0  0  0  0
    7.5611  -12.5724   24.5498 C   0  0  0  0  0  0  0  0  0  0  0  0
    7.6213  -11.8229   25.7101 C   0  0  0  0  0  0  0  0  0  0  0  0
    7.1265  -12.3171   26.8950 C   0  0  0  0  0  0  0  0  0  0  0  0
    6.5583  -13.5787   26.9431 C   0  0  0  0  0  0  0  0  0  0  0  0
    6.4913  -14.3381   25.7936 C   0  0  0  0  0  0  0  0  0  0  0  0
    8.7685  -16.0368   24.2190 C   0  0  0  0  0  0  0  0  0  0  0  0
    8.3655  -17.2142   24.3950 O   0  0  0  0  0  0  0  0  0  0  0  0
   13.5894  -18.1747   31.4220 O   0  0  0  0  0  0  0  0  0  0  0  0
   13.0209  -17.5117   30.3243 C   0  0  0  0  0  0  0  0  0  0  0  0
   13.4686  -17.7495   29.0368 C   0  0  0  0  0  0  0  0  0  0  0  0
   12.8970  -17.0884   27.9729 C   0  0  0  0  0  0  0  0  0  0  0  0
   11.8583  -16.1639   28.1354 C   0  0  0  0  0  0  0  0  0  0  0  0
   11.2608  -15.4561   27.0008 C   0  0  0  0  0  0  0  0  0  0  0  0
   10.2659  -16.3061   26.2448 C   0  0  2  0  0  0  0  0  0  0  0  0
    9.7166  -15.5322   25.1399 N   0  0  0  0  0  0  0  0  0  0  0  0
    9.1384  -16.7723   27.0714 C   0  0  0  0  0  0  0  0  0  0  0  0
    8.1554  -15.9014   27.5037 O   0  0  0  0  0  0  0  0  0  0  0  0
   11.4151  -15.9311   29.4319 C   0  0  0  0  0  0  0  0  0  0  0  0
   11.9987  -16.6020   30.4859 C   0  0  0  0  0  0  0  0  0  0  0  0
    9.0494  -17.9754   27.4012 O   0  0  0  0  0  0  0  0  0  0  0  0
  2  1  1  1
  2  3  1  0
  4  2  1  0
  5  4  2  0
  6  4  1  0
  7  6  1  0
  7  8  1  1
  9 14  1  0
  9  8  1  0
 10  9  2  0
 11 12  2  0
 11 10  1  0
 12 13  1  0
 13 14  2  0
 15 24  1  0
 15  7  1  0
 16 15  2  0
 18 17  1  0
 19 18  2  0
 20 19  1  0
 21 20  2  0
 21 27  1  0
 23 22  1  1
 22 21  1  0
 23 25  1  0
 23 24  1  0
 25 26  1  0
 27 28  2  0
 28 18  1  0
 29 25  2  0
M  END
$$$$
