AFY.pdb
     RDKit          3D

 29 30  0  0  1  0  0  0  0  0999 V2000
    7.3831  -18.7037   20.6325 C   0  0  0  0  0  0  0  0  0  0  0  0
    8.1709  -17.4276   20.3864 C   0  0  2  0  0  0  0  0  0  0  0  0
    9.4536  -17.7364   19.7906 N   0  0  0  0  0  0  0  0  0  0  0  0
    8.3707  -16.6831   21.6373 C   0  0  0  0  0  0  0  0  0  0  0  0
    9.4010  -16.9604   22.3375 O   0  0  0  0  0  0  0  0  0  0  0  0
    7.4739  -15.6702   22.1058 N   0  0  0  0  0  0  0  0  0  0  0  0
    7.7208  -14.9454   23.3362 C   0  0  1  0  0  0  0  0  0  0  0  0
    6.9066  -13.6948   23.4417 C   0  0  0  0  0  0  0  0  0  0  0  0
    7.1150  -13.0654   24.7524 C   0  0  0  0  0  0  0  0  0  0  0  0
    8.3301  -12.5339   25.0814 C   0  0  0  0  0  0  0  0  0  0  0  0
    8.4748  -11.9527   26.3275 C   0  0  0  0  0  0  0  0  0  0  0  0
    7.4221  -11.9112   27.2124 C   0  0  0  0  0  0  0  0  0  0  0  0
    6.1962  -12.4535   26.8663 C   0  0  0  0  0  0  0  0  0  0  0  0
    6.0369  -13.0367   25.6266 C   0  0  0  0  0  0  0  0  0  0  0  0
    7.4296  -15.8514   24.4927 C   0  0  0  0  0  0  0  0  0  0  0  0
    6.3000  -16.3888   24.6130 O   0  0  0  0  0  0  0  0  0  0  0  0
    7.7374  -22.8706   29.4423 O   0  0  0  0  0  0  0  0  0  0  0  0
    7.7720  -21.7863   28.5530 C   0  0  0  0  0  0  0  0  0  0  0  0
    6.6644  -20.9771   28.3710 C   0  0  0  0  0  0  0  0  0  0  0  0
    6.7190  -19.9177   27.4934 C   0  0  0  0  0  0  0  0  0  0  0  0
    7.8703  -19.6121   26.7578 C   0  0  0  0  0  0  0  0  0  0  0  0
    7.9194  -18.4898   25.8182 C   0  0  0  0  0  0  0  0  0  0  0  0
    8.2310  -17.1764   26.4978 C   0  0  2  0  0  0  0  0  0  0  0  0
    8.3938  -16.1406   25.4869 N   0  0  0  0  0  0  0  0  0  0  0  0
    9.4601  -17.2086   27.3105 C   0  0  0  0  0  0  0  0  0  0  0  0
    9.4291  -17.5593   28.6475 O   0  0  0  0  0  0  0  0  0  0  0  0
    8.9778  -20.4302   26.9468 C   0  0  0  0  0  0  0  0  0  0  0  0
    8.9059  -21.4870   27.8297 C   0  0  0  0  0  0  0  0  0  0  0  0
   10.5642  -16.9156   26.8013 O   0  0  0  0  0  0  0  0  0  0  0  0
  2  1  1  1
  2  3  1  0
  4  2  1  0
  5  4  2  0
  6  4  1  0
  7  6  1  0
  7  8  1  1
  9 14  1  0
  9  8  1  0
 10  9  2  0
 11 12  2  0
 11 10  1  0
 12 13  1  0
 13 14  2  0
 15 24  1  0
 15  7  1  0
 16 15  2  0
 18 17  1  0
 19 18  2  0
 20 19  1  0
 21 20  2  0
 21 27  1  0
 23 22  1  6
 22 21  1  0
 23 25  1  0
 23 24  1  0
 25 26  1  0
 27 28  2  0
 28 18  1  0
 29 25  2  0
M  END
$$$$
