AFY.pdb
     RDKit          3D

 29 30  0  0  1  0  0  0  0  0999 V2000
   10.0651  -18.4764   19.3079 C   0  0  0  0  0  0  0  0  0  0  0  0
    9.4815  -17.1199   18.9488 C   0  0  2  0  0  0  0  0  0  0  0  0
   10.2676  -16.4952   17.9059 N   0  0  0  0  0  0  0  0  0  0  0  0
    9.4294  -16.2414   20.1253 C   0  0  0  0  0  0  0  0  0  0  0  0
   10.4561  -15.5280   20.3820 O   0  0  0  0  0  0  0  0  0  0  0  0
    8.2932  -16.1468   20.9912 N   0  0  0  0  0  0  0  0  0  0  0  0
    8.3097  -15.3186   22.1803 C   0  0  1  0  0  0  0  0  0  0  0  0
    6.9358  -14.9856   22.6698 C   0  0  0  0  0  0  0  0  0  0  0  0
    7.0177  -14.1704   23.8889 C   0  0  0  0  0  0  0  0  0  0  0  0
    6.7679  -14.7250   25.1125 C   0  0  0  0  0  0  0  0  0  0  0  0
    6.8581  -13.9150   26.2293 C   0  0  0  0  0  0  0  0  0  0  0  0
    7.1909  -12.5853   26.1106 C   0  0  0  0  0  0  0  0  0  0  0  0
    7.4415  -12.0360   24.8647 C   0  0  0  0  0  0  0  0  0  0  0  0
    7.3553  -12.8318   23.7414 C   0  0  0  0  0  0  0  0  0  0  0  0
    9.0814  -16.0297   23.2489 C   0  0  0  0  0  0  0  0  0  0  0  0
    9.0443  -17.2830   23.3353 O   0  0  0  0  0  0  0  0  0  0  0  0
   10.1537  -15.8945   31.4472 O   0  0  0  0  0  0  0  0  0  0  0  0
   10.4713  -15.6503   30.1030 C   0  0  0  0  0  0  0  0  0  0  0  0
   10.2028  -14.4258   29.5172 C   0  0  0  0  0  0  0  0  0  0  0  0
   10.5226  -14.2065   28.1961 C   0  0  0  0  0  0  0  0  0  0  0  0
   11.1215  -15.1875   27.3969 C   0  0  0  0  0  0  0  0  0  0  0  0
   11.4504  -14.9518   25.9893 C   0  0  0  0  0  0  0  0  0  0  0  0
   10.8422  -15.9856   25.0698 C   0  0  2  0  0  0  0  0  0  0  0  0
    9.8743  -15.3383   24.1948 N   0  0  0  0  0  0  0  0  0  0  0  0
   10.1480  -17.0738   25.7811 C   0  0  0  0  0  0  0  0  0  0  0  0
    8.8214  -16.9583   26.1529 O   0  0  0  0  0  0  0  0  0  0  0  0
   11.3874  -16.4143   27.9934 C   0  0  0  0  0  0  0  0  0  0  0  0
   11.0607  -16.6171   29.3177 C   0  0  0  0  0  0  0  0  0  0  0  0
   10.7519  -18.1315   26.0652 O   0  0  0  0  0  0  0  0  0  0  0  0
  2  1  1  1
  2  3  1  0
  4  2  1  0
  5  4  2  0
  6  4  1  0
  7  6  1  0
  7  8  1  1
  9 14  1  0
  9  8  1  0
 10  9  2  0
 11 12  2  0
 11 10  1  0
 12 13  1  0
 13 14  2  0
 15 24  1  0
 15  7  1  0
 16 15  2  0
 18 17  1  0
 19 18  2  0
 20 19  1  0
 21 20  2  0
 21 27  1  0
 23 22  1  1
 22 21  1  0
 23 25  1  0
 23 24  1  0
 25 26  1  0
 27 28  2  0
 28 18  1  0
 29 25  2  0
M  END
$$$$
