AFY.pdb
     RDKit          3D

 29 30  0  0  1  0  0  0  0  0999 V2000
   10.0536  -19.3099   21.9171 C   0  0  0  0  0  0  0  0  0  0  0  0
    8.8639  -18.5511   21.3525 C   0  0  2  0  0  0  0  0  0  0  0  0
    8.9862  -18.4227   19.9158 N   0  0  0  0  0  0  0  0  0  0  0  0
    8.7518  -17.2192   21.9626 C   0  0  0  0  0  0  0  0  0  0  0  0
    9.3002  -16.2387   21.3572 O   0  0  0  0  0  0  0  0  0  0  0  0
    8.0634  -16.9688   23.1926 N   0  0  0  0  0  0  0  0  0  0  0  0
    7.9016  -15.6265   23.7144 C   0  0  1  0  0  0  0  0  0  0  0  0
    6.7762  -15.5209   24.6944 C   0  0  0  0  0  0  0  0  0  0  0  0
    6.6653  -14.1424   25.1895 C   0  0  0  0  0  0  0  0  0  0  0  0
    6.4257  -13.1119   24.3247 C   0  0  0  0  0  0  0  0  0  0  0  0
    6.3300  -11.8328   24.8409 C   0  0  0  0  0  0  0  0  0  0  0  0
    6.4724  -11.6048   26.1903 C   0  0  0  0  0  0  0  0  0  0  0  0
    6.7148  -12.6582   27.0554 C   0  0  0  0  0  0  0  0  0  0  0  0
    6.8129  -13.9397   26.5549 C   0  0  0  0  0  0  0  0  0  0  0  0
    9.1873  -15.2035   24.3556 C   0  0  0  0  0  0  0  0  0  0  0  0
    9.3553  -14.0134   24.7229 O   0  0  0  0  0  0  0  0  0  0  0  0
    9.9538  -17.0746   30.8468 O   0  0  0  0  0  0  0  0  0  0  0  0
   10.3781  -16.4827   29.6480 C   0  0  0  0  0  0  0  0  0  0  0  0
   10.5290  -15.1112   29.5435 C   0  0  0  0  0  0  0  0  0  0  0  0
   10.9468  -14.5500   28.3577 C   0  0  0  0  0  0  0  0  0  0  0  0
   11.2335  -15.3197   27.2241 C   0  0  0  0  0  0  0  0  0  0  0  0
   11.6680  -14.7163   25.9623 C   0  0  0  0  0  0  0  0  0  0  0  0
   11.6315  -15.6923   24.8089 C   0  0  2  0  0  0  0  0  0  0  0  0
   10.2547  -16.1058   24.5746 N   0  0  0  0  0  0  0  0  0  0  0  0
   12.4333  -16.9075   25.0375 C   0  0  0  0  0  0  0  0  0  0  0  0
   11.8503  -18.1611   25.0538 O   0  0  0  0  0  0  0  0  0  0  0  0
   11.0791  -16.6962   27.3380 C   0  0  0  0  0  0  0  0  0  0  0  0
   10.6599  -17.2417   28.5331 C   0  0  0  0  0  0  0  0  0  0  0  0
   13.6674  -16.8268   25.2237 O   0  0  0  0  0  0  0  0  0  0  0  0
  2  1  1  1
  2  3  1  0
  4  2  1  0
  5  4  2  0
  6  4  1  0
  7  6  1  0
  7  8  1  1
  9 14  1  0
  9  8  1  0
 10  9  2  0
 11 12  2  0
 11 10  1  0
 12 13  1  0
 13 14  2  0
 15 24  1  0
 15  7  1  0
 16 15  2  0
 18 17  1  0
 19 18  2  0
 20 19  1  0
 21 20  2  0
 21 27  1  0
 23 22  1  1
 22 21  1  0
 23 25  1  0
 23 24  1  0
 25 26  1  0
 27 28  2  0
 28 18  1  0
 29 25  2  0
M  END
$$$$
