AFY.pdb
     RDKit          3D

 29 30  0  0  1  0  0  0  0  0999 V2000
   10.0145  -18.5806   19.6921 C   0  0  0  0  0  0  0  0  0  0  0  0
    9.3257  -17.2868   19.2905 C   0  0  2  0  0  0  0  0  0  0  0  0
   10.0013  -16.6886   18.1585 N   0  0  0  0  0  0  0  0  0  0  0  0
    9.2966  -16.3365   20.4106 C   0  0  0  0  0  0  0  0  0  0  0  0
   10.3364  -15.6255   20.6157 O   0  0  0  0  0  0  0  0  0  0  0  0
    8.1687  -16.1698   21.2765 N   0  0  0  0  0  0  0  0  0  0  0  0
    8.2108  -15.2775   22.4175 C   0  0  1  0  0  0  0  0  0  0  0  0
    6.8477  -14.9136   22.9152 C   0  0  0  0  0  0  0  0  0  0  0  0
    6.9549  -13.9864   24.0494 C   0  0  0  0  0  0  0  0  0  0  0  0
    7.4102  -12.7117   23.8628 C   0  0  0  0  0  0  0  0  0  0  0  0
    7.4924  -11.8781   24.9627 C   0  0  0  0  0  0  0  0  0  0  0  0
    7.1251  -12.3217   26.2123 C   0  0  0  0  0  0  0  0  0  0  0  0
    6.6654  -13.6158   26.3874 C   0  0  0  0  0  0  0  0  0  0  0  0
    6.5779  -14.4589   25.2992 C   0  0  0  0  0  0  0  0  0  0  0  0
    9.0022  -15.9312   23.5082 C   0  0  0  0  0  0  0  0  0  0  0  0
    8.7615  -17.1171   23.8476 O   0  0  0  0  0  0  0  0  0  0  0  0
   11.2151  -16.7964   31.7222 O   0  0  0  0  0  0  0  0  0  0  0  0
   11.0886  -16.2892   30.4205 C   0  0  0  0  0  0  0  0  0  0  0  0
   11.7561  -16.8738   29.3587 C   0  0  0  0  0  0  0  0  0  0  0  0
   11.6183  -16.3605   28.0886 C   0  0  0  0  0  0  0  0  0  0  0  0
   10.8150  -15.2476   27.8129 C   0  0  0  0  0  0  0  0  0  0  0  0
   10.6802  -14.6999   26.4613 C   0  0  0  0  0  0  0  0  0  0  0  0
   10.6834  -15.7728   25.3968 C   0  0  2  0  0  0  0  0  0  0  0  0
   10.0392  -15.2582   24.1960 N   0  0  0  0  0  0  0  0  0  0  0  0
    9.9753  -17.0024   25.7950 C   0  0  0  0  0  0  0  0  0  0  0  0
    8.6290  -16.9871   26.1095 O   0  0  0  0  0  0  0  0  0  0  0  0
   10.1485  -14.6668   28.8852 C   0  0  0  0  0  0  0  0  0  0  0  0
   10.2976  -15.1937   30.1508 C   0  0  0  0  0  0  0  0  0  0  0  0
   10.5849  -18.0927   25.8575 O   0  0  0  0  0  0  0  0  0  0  0  0
  2  1  1  1
  2  3  1  0
  4  2  1  0
  5  4  2  0
  6  4  1  0
  7  6  1  0
  7  8  1  1
  9 14  1  0
  9  8  1  0
 10  9  2  0
 11 12  2  0
 11 10  1  0
 12 13  1  0
 13 14  2  0
 15 24  1  0
 15  7  1  0
 16 15  2  0
 18 17  1  0
 19 18  2  0
 20 19  1  0
 21 20  2  0
 21 27  1  0
 23 22  1  1
 22 21  1  0
 23 25  1  0
 23 24  1  0
 25 26  1  0
 27 28  2  0
 28 18  1  0
 29 25  2  0
M  END
$$$$
