AFY.pdb
     RDKit          3D

 29 30  0  0  1  0  0  0  0  0999 V2000
    9.9643  -18.8498   20.1176 C   0  0  0  0  0  0  0  0  0  0  0  0
    9.2616  -17.6206   19.5653 C   0  0  2  0  0  0  0  0  0  0  0  0
    9.9493  -17.1359   18.3872 N   0  0  0  0  0  0  0  0  0  0  0  0
    9.1940  -16.5551   20.5747 C   0  0  0  0  0  0  0  0  0  0  0  0
   10.2239  -15.8182   20.7327 O   0  0  0  0  0  0  0  0  0  0  0  0
    8.0394  -16.3047   21.3833 N   0  0  0  0  0  0  0  0  0  0  0  0
    8.0449  -15.2988   22.4264 C   0  0  1  0  0  0  0  0  0  0  0  0
    6.6672  -14.9286   22.8773 C   0  0  0  0  0  0  0  0  0  0  0  0
    6.7355  -13.8691   23.8923 C   0  0  0  0  0  0  0  0  0  0  0  0
    7.0272  -12.5831   23.5342 C   0  0  0  0  0  0  0  0  0  0  0  0
    7.0795  -11.6227   24.5273 C   0  0  0  0  0  0  0  0  0  0  0  0
    6.8438  -11.9543   25.8417 C   0  0  0  0  0  0  0  0  0  0  0  0
    6.5493  -13.2613   26.1908 C   0  0  0  0  0  0  0  0  0  0  0  0
    6.4937  -14.2303   25.2108 C   0  0  0  0  0  0  0  0  0  0  0  0
    8.8471  -15.8116   23.5825 C   0  0  0  0  0  0  0  0  0  0  0  0
    8.5022  -16.8606   24.1826 O   0  0  0  0  0  0  0  0  0  0  0  0
   11.5494  -16.4028   31.6275 O   0  0  0  0  0  0  0  0  0  0  0  0
   11.0667  -16.0998   30.3457 C   0  0  0  0  0  0  0  0  0  0  0  0
   11.0139  -14.7931   29.8935 C   0  0  0  0  0  0  0  0  0  0  0  0
   10.5367  -14.5170   28.6318 C   0  0  0  0  0  0  0  0  0  0  0  0
   10.0913  -15.5200   27.7627 C   0  0  0  0  0  0  0  0  0  0  0  0
    9.5753  -15.2193   26.4254 C   0  0  0  0  0  0  0  0  0  0  0  0
   10.6182  -15.3993   25.3465 C   0  0  2  0  0  0  0  0  0  0  0  0
   10.0099  -15.1526   24.0462 N   0  0  0  0  0  0  0  0  0  0  0  0
   11.2112  -16.7482   25.3168 C   0  0  0  0  0  0  0  0  0  0  0  0
   12.4076  -17.0219   25.9535 O   0  0  0  0  0  0  0  0  0  0  0  0
   10.1477  -16.8294   28.2253 C   0  0  0  0  0  0  0  0  0  0  0  0
   10.6285  -17.0882   29.4916 C   0  0  0  0  0  0  0  0  0  0  0  0
   10.6384  -17.6788   24.7086 O   0  0  0  0  0  0  0  0  0  0  0  0
  2  1  1  1
  2  3  1  0
  4  2  1  0
  5  4  2  0
  6  4  1  0
  7  6  1  0
  7  8  1  1
  9 14  1  0
  9  8  1  0
 10  9  2  0
 11 12  2  0
 11 10  1  0
 12 13  1  0
 13 14  2  0
 15 24  1  0
 15  7  1  0
 16 15  2  0
 18 17  1  0
 19 18  2  0
 20 19  1  0
 21 20  2  0
 21 27  1  0
 23 22  1  1
 22 21  1  0
 23 25  1  0
 23 24  1  0
 25 26  1  0
 27 28  2  0
 28 18  1  0
 29 25  2  0
M  END
$$$$
