AFY.pdb
     RDKit          3D

 29 30  0  0  1  0  0  0  0  0999 V2000
    9.6398  -16.8057   17.8646 C   0  0  0  0  0  0  0  0  0  0  0  0
    9.7207  -17.3543   19.2796 C   0  0  2  0  0  0  0  0  0  0  0  0
    8.7220  -18.3835   19.4770 N   0  0  0  0  0  0  0  0  0  0  0  0
    9.5344  -16.2850   20.2699 C   0  0  0  0  0  0  0  0  0  0  0  0
   10.4351  -15.3844   20.3505 O   0  0  0  0  0  0  0  0  0  0  0  0
    8.4018  -16.2040   21.1418 N   0  0  0  0  0  0  0  0  0  0  0  0
    8.3004  -15.1820   22.1642 C   0  0  1  0  0  0  0  0  0  0  0  0
    7.0075  -15.2437   22.9144 C   0  0  0  0  0  0  0  0  0  0  0  0
    6.9036  -14.1049   23.8363 C   0  0  0  0  0  0  0  0  0  0  0  0
    7.3244  -12.8623   23.4541 C   0  0  0  0  0  0  0  0  0  0  0  0
    7.2051  -11.8236   24.3588 C   0  0  0  0  0  0  0  0  0  0  0  0
    6.6762  -12.0367   25.6109 C   0  0  0  0  0  0  0  0  0  0  0  0
    6.2536  -13.3008   25.9853 C   0  0  0  0  0  0  0  0  0  0  0  0
    6.3664  -14.3469   25.0934 C   0  0  0  0  0  0  0  0  0  0  0  0
    9.4536  -15.3321   23.1079 C   0  0  0  0  0  0  0  0  0  0  0  0
   10.4291  -14.5416   23.0535 O   0  0  0  0  0  0  0  0  0  0  0  0
   11.3672  -15.5524   31.6560 O   0  0  0  0  0  0  0  0  0  0  0  0
   10.8228  -15.6160   30.3648 C   0  0  0  0  0  0  0  0  0  0  0  0
   10.7107  -14.4812   29.5809 C   0  0  0  0  0  0  0  0  0  0  0  0
   10.1735  -14.5651   28.3160 C   0  0  0  0  0  0  0  0  0  0  0  0
    9.7239  -15.7738   27.7711 C   0  0  0  0  0  0  0  0  0  0  0  0
    9.1441  -15.8552   26.4287 C   0  0  0  0  0  0  0  0  0  0  0  0
   10.1672  -16.2104   25.3746 C   0  0  2  0  0  0  0  0  0  0  0  0
    9.4999  -16.3517   24.0876 N   0  0  0  0  0  0  0  0  0  0  0  0
   10.8861  -17.4674   25.6487 C   0  0  0  0  0  0  0  0  0  0  0  0
   12.1385  -17.4664   26.2345 O   0  0  0  0  0  0  0  0  0  0  0  0
    9.8402  -16.9083   28.5654 C   0  0  0  0  0  0  0  0  0  0  0  0
   10.3808  -16.8064   29.8300 C   0  0  0  0  0  0  0  0  0  0  0  0
   10.3724  -18.5686   25.3529 O   0  0  0  0  0  0  0  0  0  0  0  0
  2  1  1  6
  2  3  1  0
  4  2  1  0
  5  4  2  0
  6  4  1  0
  7  6  1  0
  7  8  1  1
  9 14  1  0
  9  8  1  0
 10  9  2  0
 11 12  2  0
 11 10  1  0
 12 13  1  0
 13 14  2  0
 15 24  1  0
 15  7  1  0
 16 15  2  0
 18 17  1  0
 19 18  2  0
 20 19  1  0
 21 20  2  0
 21 27  1  0
 23 22  1  1
 22 21  1  0
 23 25  1  0
 23 24  1  0
 25 26  1  0
 27 28  2  0
 28 18  1  0
 29 25  2  0
M  END
$$$$
