KKL.pdb
     RDKit          3D

 27 26  0  0  1  0  0  0  0  0999 V2000
    7.6696  -19.5749   20.4720 N   0  0  0  0  0  0  0  0  0  0  0  0
    7.1124  -18.6699   21.4318 C   0  0  1  0  0  0  0  0  0  0  0  0
    7.0078  -19.3062   22.8096 C   0  0  0  0  0  0  0  0  0  0  0  0
    7.8425  -20.5595   22.8829 C   0  0  0  0  0  0  0  0  0  0  0  0
    7.8083  -21.1937   24.2327 C   0  0  0  0  0  0  0  0  0  0  0  0
    8.7776  -22.3306   24.3867 C   0  0  0  0  0  0  0  0  0  0  0  0
   10.0667  -21.9139   24.8653 N   0  0  0  0  0  0  0  0  0  0  0  0
    7.9520  -17.4456   21.4694 C   0  0  0  0  0  0  0  0  0  0  0  0
    9.1807  -17.5190   21.1252 O   0  0  0  0  0  0  0  0  0  0  0  0
    7.4153  -16.1947   21.8808 N   0  0  0  0  0  0  0  0  0  0  0  0
    8.2244  -14.9954   21.7991 C   0  0  1  0  0  0  0  0  0  0  0  0
    7.3220  -13.8830   21.3788 C   0  0  0  0  0  0  0  0  0  0  0  0
    6.9618  -13.8775   19.9270 C   0  0  0  0  0  0  0  0  0  0  0  0
    8.1380  -13.4726   19.0473 C   0  0  0  0  0  0  0  0  0  0  0  0
    7.6636  -13.4026   17.6105 C   0  0  0  0  0  0  0  0  0  0  0  0
    8.8289  -13.1198   16.7600 N   0  0  0  0  0  0  0  0  0  0  0  0
    8.9166  -14.7892   23.0679 C   0  0  0  0  0  0  0  0  0  0  0  0
    9.7843  -13.9013   23.2726 O   0  0  0  0  0  0  0  0  0  0  0  0
    8.3437  -12.4603   27.2620 C   0  0  0  0  0  0  0  0  0  0  0  0
    7.2561  -13.4634   26.9510 C   0  0  1  0  0  0  0  0  0  0  0  0
    5.9420  -12.6644   27.0570 C   0  0  0  0  0  0  0  0  0  0  0  0
    7.3915  -14.0661   25.5964 C   0  0  0  0  0  0  0  0  0  0  0  0
    8.4767  -15.0869   25.5451 C   0  0  2  0  0  0  0  0  0  0  0  0
    8.6224  -15.6260   24.1778 N   0  0  0  0  0  0  0  0  0  0  0  0
    8.3064  -16.2303   26.4606 C   0  0  0  0  0  0  0  0  0  0  0  0
    7.4897  -17.1392   26.1828 O   0  0  0  0  0  0  0  0  0  0  0  0
    9.0103  -16.3713   27.6407 O   0  0  0  0  0  0  0  0  0  0  0  0
  2  1  1  6
  3  2  1  0
  4  5  1  0
  4  3  1  0
  5  6  1  0
  7  6  1  0
  8  2  1  0
  8  9  2  0
 10  8  1  0
 11 10  1  0
 11 12  1  1
 13 12  1  0
 14 15  1  0
 14 13  1  0
 15 16  1  0
 17 11  1  0
 18 17  2  0
 20 19  1  6
 20 22  1  0
 20 21  1  0
 23 22  1  6
 23 24  1  0
 23 25  1  0
 24 17  1  0
 25 27  1  0
 26 25  2  0
M  END
$$$$
