KKL.pdb
     RDKit          3D

 27 26  0  0  1  0  0  0  0  0999 V2000
    6.8976  -16.8794   19.1572 N   0  0  0  0  0  0  0  0  0  0  0  0
    8.0288  -16.2350   19.7538 C   0  0  1  0  0  0  0  0  0  0  0  0
    8.0402  -14.7410   19.4679 C   0  0  0  0  0  0  0  0  0  0  0  0
    7.5517  -14.4620   18.0691 C   0  0  0  0  0  0  0  0  0  0  0  0
    8.5084  -13.6309   17.2822 C   0  0  0  0  0  0  0  0  0  0  0  0
    7.9914  -13.2412   15.9269 C   0  0  0  0  0  0  0  0  0  0  0  0
    8.9731  -12.5734   15.1177 N   0  0  0  0  0  0  0  0  0  0  0  0
    8.0074  -16.5007   21.2146 C   0  0  0  0  0  0  0  0  0  0  0  0
    6.9120  -16.3650   21.8591 O   0  0  0  0  0  0  0  0  0  0  0  0
    9.1813  -16.9029   21.9092 N   0  0  0  0  0  0  0  0  0  0  0  0
    9.1288  -17.1631   23.3337 C   0  0  1  0  0  0  0  0  0  0  0  0
   10.1841  -18.1749   23.6358 C   0  0  0  0  0  0  0  0  0  0  0  0
   10.3128  -18.5395   25.0808 C   0  0  0  0  0  0  0  0  0  0  0  0
   11.3814  -19.6010   25.3100 C   0  0  0  0  0  0  0  0  0  0  0  0
   11.3888  -19.9680   26.7796 C   0  0  0  0  0  0  0  0  0  0  0  0
   12.5082  -20.8923   27.0119 N   0  0  0  0  0  0  0  0  0  0  0  0
    9.2481  -15.9034   24.0621 C   0  0  0  0  0  0  0  0  0  0  0  0
   10.1915  -15.0829   23.9211 O   0  0  0  0  0  0  0  0  0  0  0  0
    7.5829  -11.2997   26.1594 C   0  0  0  0  0  0  0  0  0  0  0  0
    7.0454  -12.5037   26.8992 C   0  0  1  0  0  0  0  0  0  0  0  0
    5.6287  -12.0912   27.3454 C   0  0  0  0  0  0  0  0  0  0  0  0
    6.9895  -13.7280   26.0539 C   0  0  0  0  0  0  0  0  0  0  0  0
    8.3455  -14.2905   25.7949 C   0  0  2  0  0  0  0  0  0  0  0  0
    8.2525  -15.5362   25.0070 N   0  0  0  0  0  0  0  0  0  0  0  0
    9.1444  -14.5823   26.9995 C   0  0  0  0  0  0  0  0  0  0  0  0
    8.9660  -15.6530   27.6257 O   0  0  0  0  0  0  0  0  0  0  0  0
   10.1077  -13.7273   27.4990 O   0  0  0  0  0  0  0  0  0  0  0  0
  2  1  1  6
  3  2  1  0
  4  5  1  0
  4  3  1  0
  5  6  1  0
  7  6  1  0
  8  2  1  0
  8  9  2  0
 10  8  1  0
 11 10  1  0
 11 12  1  1
 13 12  1  0
 14 15  1  0
 14 13  1  0
 15 16  1  0
 17 11  1  0
 18 17  2  0
 20 19  1  6
 20 22  1  0
 20 21  1  0
 23 22  1  1
 23 24  1  0
 23 25  1  0
 24 17  1  0
 25 27  1  0
 26 25  2  0
M  END
$$$$
