KKL.pdb
     RDKit          3D

 27 26  0  0  1  0  0  0  0  0999 V2000
    7.4879  -18.7176   21.7744 N   0  0  0  0  0  0  0  0  0  0  0  0
    8.9154  -18.8305   21.7638 C   0  0  1  0  0  0  0  0  0  0  0  0
    9.4167  -19.5025   20.4944 C   0  0  0  0  0  0  0  0  0  0  0  0
    8.5834  -20.7160   20.1687 C   0  0  0  0  0  0  0  0  0  0  0  0
    9.0776  -21.4452   18.9648 C   0  0  0  0  0  0  0  0  0  0  0  0
    8.1962  -22.5892   18.5520 C   0  0  0  0  0  0  0  0  0  0  0  0
    8.6884  -23.2957   17.4016 N   0  0  0  0  0  0  0  0  0  0  0  0
    9.4976  -17.4731   21.9170 C   0  0  0  0  0  0  0  0  0  0  0  0
   10.7612  -17.3178   21.8029 O   0  0  0  0  0  0  0  0  0  0  0  0
    8.6769  -16.3440   22.1881 N   0  0  0  0  0  0  0  0  0  0  0  0
    9.2732  -15.0318   22.3371 C   0  0  1  0  0  0  0  0  0  0  0  0
    8.5034  -14.0965   21.4647 C   0  0  0  0  0  0  0  0  0  0  0  0
    8.7505  -14.2547   19.9980 C   0  0  0  0  0  0  0  0  0  0  0  0
    8.0501  -13.1768   19.1802 C   0  0  0  0  0  0  0  0  0  0  0  0
    8.3305  -13.4266   17.7128 C   0  0  0  0  0  0  0  0  0  0  0  0
    7.5717  -12.4400   16.9304 N   0  0  0  0  0  0  0  0  0  0  0  0
    9.3114  -14.6735   23.7519 C   0  0  0  0  0  0  0  0  0  0  0  0
    9.9475  -13.6963   24.2247 O   0  0  0  0  0  0  0  0  0  0  0  0
    5.7157  -12.7461   26.4667 C   0  0  0  0  0  0  0  0  0  0  0  0
    7.0760  -13.2763   26.0741 C   0  0  1  0  0  0  0  0  0  0  0  0
    8.0764  -12.2438   26.6305 C   0  0  0  0  0  0  0  0  0  0  0  0
    7.3567  -14.6273   26.6332 C   0  0  0  0  0  0  0  0  0  0  0  0
    8.6556  -15.1742   26.1473 C   0  0  2  0  0  0  0  0  0  0  0  0
    8.5951  -15.4544   24.6985 N   0  0  0  0  0  0  0  0  0  0  0  0
    9.1103  -16.4042   26.8218 C   0  0  0  0  0  0  0  0  0  0  0  0
    9.1794  -17.4801   26.1831 O   0  0  0  0  0  0  0  0  0  0  0  0
    9.4777  -16.4506   28.1526 O   0  0  0  0  0  0  0  0  0  0  0  0
  2  1  1  6
  3  2  1  0
  4  5  1  0
  4  3  1  0
  5  6  1  0
  7  6  1  0
  8  2  1  0
  8  9  2  0
 10  8  1  0
 11 10  1  0
 11 12  1  6
 13 12  1  0
 14 15  1  0
 14 13  1  0
 15 16  1  0
 17 11  1  0
 18 17  2  0
 20 19  1  1
 20 22  1  0
 20 21  1  0
 23 22  1  1
 23 24  1  0
 23 25  1  0
 24 17  1  0
 25 27  1  0
 26 25  2  0
M  END
$$$$
