KKL.pdb
     RDKit          3D

 27 26  0  0  1  0  0  0  0  0999 V2000
    7.7325  -18.1797   21.3085 N   0  0  0  0  0  0  0  0  0  0  0  0
    9.1388  -18.0308   21.0828 C   0  0  1  0  0  0  0  0  0  0  0  0
    9.5603  -18.6285   19.7490 C   0  0  0  0  0  0  0  0  0  0  0  0
    8.7327  -19.8463   19.4250 C   0  0  0  0  0  0  0  0  0  0  0  0
    9.1161  -20.4718   18.1261 C   0  0  0  0  0  0  0  0  0  0  0  0
    8.2638  -21.6509   17.7527 C   0  0  0  0  0  0  0  0  0  0  0  0
    8.4938  -22.8006   18.5834 N   0  0  0  0  0  0  0  0  0  0  0  0
    9.4781  -16.5869   21.1540 C   0  0  0  0  0  0  0  0  0  0  0  0
   10.7003  -16.2260   21.0550 O   0  0  0  0  0  0  0  0  0  0  0  0
    8.4703  -15.5994   21.3299 N   0  0  0  0  0  0  0  0  0  0  0  0
    8.8258  -14.1948   21.3512 C   0  0  1  0  0  0  0  0  0  0  0  0
    7.8353  -13.4767   20.4957 C   0  0  0  0  0  0  0  0  0  0  0  0
    8.3626  -13.0110   19.1757 C   0  0  0  0  0  0  0  0  0  0  0  0
    7.7374  -13.7680   18.0105 C   0  0  0  0  0  0  0  0  0  0  0  0
    8.3217  -13.2333   16.7194 C   0  0  0  0  0  0  0  0  0  0  0  0
    7.7395  -13.9970   15.6062 N   0  0  0  0  0  0  0  0  0  0  0  0
    8.9026  -13.7342   22.7344 C   0  0  0  0  0  0  0  0  0  0  0  0
    9.1584  -12.5519   23.0808 O   0  0  0  0  0  0  0  0  0  0  0  0
    6.3179  -11.5993   26.8784 C   0  0  0  0  0  0  0  0  0  0  0  0
    7.1639  -12.8449   26.7416 C   0  0  1  0  0  0  0  0  0  0  0  0
    6.3600  -13.9473   27.4589 C   0  0  0  0  0  0  0  0  0  0  0  0
    7.4166  -13.2230   25.3239 C   0  0  0  0  0  0  0  0  0  0  0  0
    8.5348  -14.2007   25.1973 C   0  0  2  0  0  0  0  0  0  0  0  0
    8.6799  -14.6498   23.7978 N   0  0  0  0  0  0  0  0  0  0  0  0
    8.4158  -15.4031   26.0425 C   0  0  0  0  0  0  0  0  0  0  0  0
    8.7993  -15.3712   27.2351 O   0  0  0  0  0  0  0  0  0  0  0  0
    7.8922  -16.5999   25.5934 O   0  0  0  0  0  0  0  0  0  0  0  0
  2  1  1  6
  3  2  1  0
  4  5  1  0
  4  3  1  0
  5  6  1  0
  7  6  1  0
  8  2  1  0
  8  9  2  0
 10  8  1  0
 11 10  1  0
 11 12  1  6
 13 12  1  0
 14 15  1  0
 14 13  1  0
 15 16  1  0
 17 11  1  0
 18 17  2  0
 20 19  1  6
 20 22  1  0
 20 21  1  0
 23 22  1  6
 23 24  1  0
 23 25  1  0
 24 17  1  0
 25 27  1  0
 26 25  2  0
M  END
$$$$
