KKL.pdb
     RDKit          3D

 27 26  0  0  1  0  0  0  0  0999 V2000
    7.1437  -20.1466   23.6562 N   0  0  0  0  0  0  0  0  0  0  0  0
    6.6023  -18.8748   24.0308 C   0  0  1  0  0  0  0  0  0  0  0  0
    6.4644  -18.7452   25.5402 C   0  0  0  0  0  0  0  0  0  0  0  0
    7.6821  -19.2981   26.2363 C   0  0  0  0  0  0  0  0  0  0  0  0
    7.3339  -20.2255   27.3517 C   0  0  0  0  0  0  0  0  0  0  0  0
    8.0148  -19.8886   28.6474 C   0  0  0  0  0  0  0  0  0  0  0  0
    9.3609  -20.3853   28.7248 N   0  0  0  0  0  0  0  0  0  0  0  0
    7.4764  -17.8085   23.4793 C   0  0  0  0  0  0  0  0  0  0  0  0
    8.7380  -18.0040   23.4167 O   0  0  0  0  0  0  0  0  0  0  0  0
    6.9370  -16.5756   23.0200 N   0  0  0  0  0  0  0  0  0  0  0  0
    7.8118  -15.5613   22.4673 C   0  0  1  0  0  0  0  0  0  0  0  0
    6.9597  -14.6336   21.6662 C   0  0  0  0  0  0  0  0  0  0  0  0
    7.7058  -13.5561   20.9453 C   0  0  0  0  0  0  0  0  0  0  0  0
    7.4766  -13.6102   19.4400 C   0  0  0  0  0  0  0  0  0  0  0  0
    8.4095  -12.6197   18.7745 C   0  0  0  0  0  0  0  0  0  0  0  0
    8.1460  -12.6476   17.3285 N   0  0  0  0  0  0  0  0  0  0  0  0
    8.5704  -14.9343   23.5457 C   0  0  0  0  0  0  0  0  0  0  0  0
    9.5441  -14.1557   23.3755 O   0  0  0  0  0  0  0  0  0  0  0  0
    5.9893  -12.1117   26.8543 C   0  0  0  0  0  0  0  0  0  0  0  0
    7.1473  -12.7142   26.0916 C   0  0  1  0  0  0  0  0  0  0  0  0
    8.0937  -11.5298   25.8127 C   0  0  0  0  0  0  0  0  0  0  0  0
    7.8555  -13.7782   26.8552 C   0  0  0  0  0  0  0  0  0  0  0  0
    8.8693  -14.4840   26.0208 C   0  0  2  0  0  0  0  0  0  0  0  0
    8.2209  -15.1919   24.8985 N   0  0  0  0  0  0  0  0  0  0  0  0
    9.7054  -15.4613   26.7423 C   0  0  0  0  0  0  0  0  0  0  0  0
    9.6521  -16.6760   26.4393 O   0  0  0  0  0  0  0  0  0  0  0  0
   10.5716  -15.1158   27.7614 O   0  0  0  0  0  0  0  0  0  0  0  0
  2  1  1  1
  3  2  1  0
  4  5  1  0
  4  3  1  0
  5  6  1  0
  7  6  1  0
  8  2  1  0
  8  9  2  0
 10  8  1  0
 11 10  1  0
 11 12  1  1
 13 12  1  0
 14 15  1  0
 14 13  1  0
 15 16  1  0
 17 11  1  0
 18 17  2  0
 20 19  1  1
 20 22  1  0
 20 21  1  0
 23 22  1  1
 23 24  1  0
 23 25  1  0
 24 17  1  0
 25 27  1  0
 26 25  2  0
M  END
$$$$
