KKL.pdb
     RDKit          3D

 27 26  0  0  1  0  0  0  0  0999 V2000
    6.1532  -17.9220   19.7124 N   0  0  0  0  0  0  0  0  0  0  0  0
    7.0652  -16.9983   20.3173 C   0  0  1  0  0  0  0  0  0  0  0  0
    6.7604  -15.5631   19.9158 C   0  0  0  0  0  0  0  0  0  0  0  0
    7.3429  -15.2535   18.5601 C   0  0  0  0  0  0  0  0  0  0  0  0
    7.8958  -13.8705   18.4753 C   0  0  0  0  0  0  0  0  0  0  0  0
    8.3157  -13.4758   17.0882 C   0  0  0  0  0  0  0  0  0  0  0  0
    8.8360  -12.1385   17.0139 N   0  0  0  0  0  0  0  0  0  0  0  0
    7.0004  -17.1675   21.7912 C   0  0  0  0  0  0  0  0  0  0  0  0
    5.9236  -16.8633   22.4090 O   0  0  0  0  0  0  0  0  0  0  0  0
    8.1125  -17.6609   22.5273 N   0  0  0  0  0  0  0  0  0  0  0  0
    8.0712  -17.6858   23.9755 C   0  0  1  0  0  0  0  0  0  0  0  0
    8.8963  -18.8480   24.4197 C   0  0  0  0  0  0  0  0  0  0  0  0
    9.0702  -18.9685   25.9005 C   0  0  0  0  0  0  0  0  0  0  0  0
    9.9268  -20.1700   26.2801 C   0  0  0  0  0  0  0  0  0  0  0  0
   10.0076  -20.2463   27.7907 C   0  0  0  0  0  0  0  0  0  0  0  0
   10.8710  -21.3829   28.1431 N   0  0  0  0  0  0  0  0  0  0  0  0
    8.4930  -16.3886   24.4957 C   0  0  0  0  0  0  0  0  0  0  0  0
    9.4658  -15.7236   24.0545 O   0  0  0  0  0  0  0  0  0  0  0  0
    7.8597  -11.3479   26.0449 C   0  0  0  0  0  0  0  0  0  0  0  0
    7.2240  -12.3446   26.9873 C   0  0  1  0  0  0  0  0  0  0  0  0
    5.9299  -11.6598   27.4698 C   0  0  0  0  0  0  0  0  0  0  0  0
    6.9125  -13.6455   26.3337 C   0  0  0  0  0  0  0  0  0  0  0  0
    8.1380  -14.4621   26.1023 C   0  0  2  0  0  0  0  0  0  0  0  0
    7.7851  -15.7960   25.5758 N   0  0  0  0  0  0  0  0  0  0  0  0
    8.9925  -14.6611   27.2876 C   0  0  0  0  0  0  0  0  0  0  0  0
    8.8445  -15.6793   28.0029 O   0  0  0  0  0  0  0  0  0  0  0  0
    9.9769  -13.7722   27.6736 O   0  0  0  0  0  0  0  0  0  0  0  0
  2  1  1  6
  3  2  1  0
  4  5  1  0
  4  3  1  0
  5  6  1  0
  7  6  1  0
  8  2  1  0
  8  9  2  0
 10  8  1  0
 11 10  1  0
 11 12  1  1
 13 12  1  0
 14 15  1  0
 14 13  1  0
 15 16  1  0
 17 11  1  0
 18 17  2  0
 20 19  1  6
 20 22  1  0
 20 21  1  0
 23 22  1  1
 23 24  1  0
 23 25  1  0
 24 17  1  0
 25 27  1  0
 26 25  2  0
M  END
$$$$
