KKL.pdb
     RDKit          3D

 27 26  0  0  1  0  0  0  0  0999 V2000
    6.0135  -16.0540   21.0692 N   0  0  0  0  0  0  0  0  0  0  0  0
    7.2430  -15.3735   21.3449 C   0  0  1  0  0  0  0  0  0  0  0  0
    7.0097  -13.9123   21.6977 C   0  0  0  0  0  0  0  0  0  0  0  0
    7.9457  -13.0205   20.9221 C   0  0  0  0  0  0  0  0  0  0  0  0
    8.3239  -13.5976   19.5994 C   0  0  0  0  0  0  0  0  0  0  0  0
    9.3811  -12.8092   18.8806 C   0  0  0  0  0  0  0  0  0  0  0  0
    9.7515  -13.3817   17.6158 N   0  0  0  0  0  0  0  0  0  0  0  0
    7.9403  -16.0857   22.4456 C   0  0  0  0  0  0  0  0  0  0  0  0
    7.2856  -16.4104   23.4942 O   0  0  0  0  0  0  0  0  0  0  0  0
    9.3212  -16.4129   22.3551 N   0  0  0  0  0  0  0  0  0  0  0  0
    9.9219  -17.3025   23.3285 C   0  0  1  0  0  0  0  0  0  0  0  0
   10.9766  -18.0847   22.6184 C   0  0  0  0  0  0  0  0  0  0  0  0
   10.4645  -19.1859   21.7451 C   0  0  0  0  0  0  0  0  0  0  0  0
   11.5934  -19.9376   21.0510 C   0  0  0  0  0  0  0  0  0  0  0  0
   10.9917  -21.0570   20.2268 C   0  0  0  0  0  0  0  0  0  0  0  0
   12.0928  -21.8030   19.6003 N   0  0  0  0  0  0  0  0  0  0  0  0
   10.3883  -16.5258   24.4734 C   0  0  0  0  0  0  0  0  0  0  0  0
   10.7285  -15.3154   24.4250 O   0  0  0  0  0  0  0  0  0  0  0  0
   10.4581  -13.7131   28.5626 C   0  0  0  0  0  0  0  0  0  0  0  0
    9.3085  -14.6724   28.3529 C   0  0  1  0  0  0  0  0  0  0  0  0
    8.0447  -13.7921   28.4181 C   0  0  0  0  0  0  0  0  0  0  0  0
    9.3786  -15.3874   27.0489 C   0  0  0  0  0  0  0  0  0  0  0  0
   10.5210  -16.3437   26.9968 C   0  0  2  0  0  0  0  0  0  0  0  0
   10.4810  -17.1379   25.7523 N   0  0  0  0  0  0  0  0  0  0  0  0
   10.6012  -17.2876   28.1269 C   0  0  0  0  0  0  0  0  0  0  0  0
    9.7653  -18.2157   28.2287 O   0  0  0  0  0  0  0  0  0  0  0  0
   11.5675  -17.2153   29.1114 O   0  0  0  0  0  0  0  0  0  0  0  0
  2  1  1  1
  3  2  1  0
  4  5  1  0
  4  3  1  0
  5  6  1  0
  7  6  1  0
  8  2  1  0
  8  9  2  0
 10  8  1  0
 11 10  1  0
 11 12  1  6
 13 12  1  0
 14 15  1  0
 14 13  1  0
 15 16  1  0
 17 11  1  0
 18 17  2  0
 20 19  1  6
 20 22  1  0
 20 21  1  0
 23 22  1  1
 23 24  1  0
 23 25  1  0
 24 17  1  0
 25 27  1  0
 26 25  2  0
M  END
$$$$
