KKL.pdb
     RDKit          3D

 27 26  0  0  1  0  0  0  0  0999 V2000
    7.7968  -19.7455   21.4286 N   0  0  0  0  0  0  0  0  0  0  0  0
    7.1648  -18.7290   22.2148 C   0  0  1  0  0  0  0  0  0  0  0  0
    6.8670  -19.2136   23.6257 C   0  0  0  0  0  0  0  0  0  0  0  0
    6.4096  -20.6500   23.6107 C   0  0  0  0  0  0  0  0  0  0  0  0
    5.8775  -21.0967   24.9308 C   0  0  0  0  0  0  0  0  0  0  0  0
    5.5161  -22.5540   24.9706 C   0  0  0  0  0  0  0  0  0  0  0  0
    4.9614  -22.9649   26.2308 N   0  0  0  0  0  0  0  0  0  0  0  0
    8.0435  -17.5321   22.2338 C   0  0  0  0  0  0  0  0  0  0  0  0
    9.3115  -17.6876   22.2743 O   0  0  0  0  0  0  0  0  0  0  0  0
    7.5015  -16.2177   22.2077 N   0  0  0  0  0  0  0  0  0  0  0  0
    8.3828  -15.0681   22.2430 C   0  0  1  0  0  0  0  0  0  0  0  0
    7.8885  -14.1025   21.2173 C   0  0  0  0  0  0  0  0  0  0  0  0
    8.4135  -14.3274   19.8349 C   0  0  0  0  0  0  0  0  0  0  0  0
    7.8800  -13.2985   18.8459 C   0  0  0  0  0  0  0  0  0  0  0  0
    8.3504  -13.6764   17.4565 C   0  0  0  0  0  0  0  0  0  0  0  0
    7.7711  -12.7181   16.5039 N   0  0  0  0  0  0  0  0  0  0  0  0
    8.4487  -14.5484   23.6058 C   0  0  0  0  0  0  0  0  0  0  0  0
    8.2652  -13.3442   23.9211 O   0  0  0  0  0  0  0  0  0  0  0  0
    5.9001  -12.4071   26.2480 C   0  0  0  0  0  0  0  0  0  0  0  0
    7.2587  -12.9957   25.9423 C   0  0  1  0  0  0  0  0  0  0  0  0
    8.2617  -12.0480   26.6294 C   0  0  0  0  0  0  0  0  0  0  0  0
    7.4191  -14.3843   26.4548 C   0  0  0  0  0  0  0  0  0  0  0  0
    8.7415  -14.9662   26.0873 C   0  0  2  0  0  0  0  0  0  0  0  0
    8.7375  -15.4272   24.6843 N   0  0  0  0  0  0  0  0  0  0  0  0
    9.1860  -16.0940   26.9270 C   0  0  0  0  0  0  0  0  0  0  0  0
    9.3419  -15.9337   28.1601 O   0  0  0  0  0  0  0  0  0  0  0  0
    9.4493  -17.3554   26.4295 O   0  0  0  0  0  0  0  0  0  0  0  0
  2  1  1  6
  3  2  1  0
  4  5  1  0
  4  3  1  0
  5  6  1  0
  7  6  1  0
  8  2  1  0
  8  9  2  0
 10  8  1  0
 11 10  1  0
 11 12  1  6
 13 12  1  0
 14 15  1  0
 14 13  1  0
 15 16  1  0
 17 11  1  0
 18 17  2  0
 20 19  1  1
 20 22  1  0
 20 21  1  0
 23 22  1  1
 23 24  1  0
 23 25  1  0
 24 17  1  0
 25 27  1  0
 26 25  2  0
M  END
$$$$
