KKL.pdb
     RDKit          3D

 27 26  0  0  1  0  0  0  0  0999 V2000
    6.2512  -16.1717   18.9127 N   0  0  0  0  0  0  0  0  0  0  0  0
    7.3597  -15.6053   19.6207 C   0  0  1  0  0  0  0  0  0  0  0  0
    7.4023  -14.0912   19.4795 C   0  0  0  0  0  0  0  0  0  0  0  0
    7.5781  -13.6951   18.0355 C   0  0  0  0  0  0  0  0  0  0  0  0
    8.9303  -14.0380   17.5068 C   0  0  0  0  0  0  0  0  0  0  0  0
    9.1738  -13.5385   16.1114 C   0  0  0  0  0  0  0  0  0  0  0  0
   10.3825  -14.0531   15.5294 N   0  0  0  0  0  0  0  0  0  0  0  0
    7.2644  -16.0078   21.0469 C   0  0  0  0  0  0  0  0  0  0  0  0
    6.1972  -15.7476   21.7003 O   0  0  0  0  0  0  0  0  0  0  0  0
    8.3369  -16.6764   21.6986 N   0  0  0  0  0  0  0  0  0  0  0  0
    8.2027  -17.0880   23.0814 C   0  0  1  0  0  0  0  0  0  0  0  0
    9.0119  -18.3310   23.2514 C   0  0  0  0  0  0  0  0  0  0  0  0
    9.0748  -18.8559   24.6507 C   0  0  0  0  0  0  0  0  0  0  0  0
    9.9180  -20.1210   24.7499 C   0  0  0  0  0  0  0  0  0  0  0  0
    9.8704  -20.6212   26.1788 C   0  0  0  0  0  0  0  0  0  0  0  0
   10.6939  -21.8362   26.2630 N   0  0  0  0  0  0  0  0  0  0  0  0
    8.5739  -15.9797   23.9562 C   0  0  0  0  0  0  0  0  0  0  0  0
    9.6913  -15.4015   23.9423 O   0  0  0  0  0  0  0  0  0  0  0  0
    7.7595  -11.4447   26.7858 C   0  0  0  0  0  0  0  0  0  0  0  0
    7.0324  -12.6566   27.3232 C   0  0  1  0  0  0  0  0  0  0  0  0
    5.7206  -12.0998   27.9108 C   0  0  0  0  0  0  0  0  0  0  0  0
    6.7435  -13.6733   26.2747 C   0  0  0  0  0  0  0  0  0  0  0  0
    7.9762  -14.3853   25.8321 C   0  0  2  0  0  0  0  0  0  0  0  0
    7.6399  -15.4854   24.9060 N   0  0  0  0  0  0  0  0  0  0  0  0
    8.7983  -14.9506   26.9179 C   0  0  0  0  0  0  0  0  0  0  0  0
    8.4682  -16.0336   27.4550 O   0  0  0  0  0  0  0  0  0  0  0  0
    9.9451  -14.3475   27.3968 O   0  0  0  0  0  0  0  0  0  0  0  0
  2  1  1  6
  3  2  1  0
  4  5  1  0
  4  3  1  0
  5  6  1  0
  7  6  1  0
  8  2  1  0
  8  9  2  0
 10  8  1  0
 11 10  1  0
 11 12  1  6
 13 12  1  0
 14 15  1  0
 14 13  1  0
 15 16  1  0
 17 11  1  0
 18 17  2  0
 20 19  1  6
 20 22  1  0
 20 21  1  0
 23 22  1  1
 23 24  1  0
 23 25  1  0
 24 17  1  0
 25 27  1  0
 26 25  2  0
M  END
$$$$
