KKL.pdb
     RDKit          3D

 27 26  0  0  1  0  0  0  0  0999 V2000
    5.7648  -16.6252   20.2677 N   0  0  0  0  0  0  0  0  0  0  0  0
    6.8443  -15.9234   20.8945 C   0  0  1  0  0  0  0  0  0  0  0  0
    6.7170  -14.4185   20.7129 C   0  0  0  0  0  0  0  0  0  0  0  0
    7.1430  -14.0109   19.3253 C   0  0  0  0  0  0  0  0  0  0  0  0
    8.4583  -13.3071   19.3122 C   0  0  0  0  0  0  0  0  0  0  0  0
    8.8283  -12.7510   17.9670 C   0  0  0  0  0  0  0  0  0  0  0  0
    8.7728  -13.7291   16.9159 N   0  0  0  0  0  0  0  0  0  0  0  0
    6.8728  -16.2888   22.3335 C   0  0  0  0  0  0  0  0  0  0  0  0
    5.7954  -16.2198   23.0178 O   0  0  0  0  0  0  0  0  0  0  0  0
    8.0745  -16.7136   22.9638 N   0  0  0  0  0  0  0  0  0  0  0  0
    8.0733  -17.0601   24.3708 C   0  0  1  0  0  0  0  0  0  0  0  0
    8.6099  -18.4487   24.4829 C   0  0  0  0  0  0  0  0  0  0  0  0
    7.6045  -19.5333   24.2585 C   0  0  0  0  0  0  0  0  0  0  0  0
    8.2398  -20.9177   24.2899 C   0  0  0  0  0  0  0  0  0  0  0  0
    7.1539  -21.9513   24.0737 C   0  0  0  0  0  0  0  0  0  0  0  0
    7.7922  -23.2738   24.0038 N   0  0  0  0  0  0  0  0  0  0  0  0
    8.8088  -16.0466   25.1212 C   0  0  0  0  0  0  0  0  0  0  0  0
    9.8919  -15.5266   24.7476 O   0  0  0  0  0  0  0  0  0  0  0  0
    6.1655  -11.9898   26.8795 C   0  0  0  0  0  0  0  0  0  0  0  0
    7.2563  -12.9421   26.4445 C   0  0  1  0  0  0  0  0  0  0  0  0
    8.1598  -12.1074   25.5154 C   0  0  0  0  0  0  0  0  0  0  0  0
    8.0428  -13.4853   27.5859 C   0  0  0  0  0  0  0  0  0  0  0  0
    8.9985  -14.5441   27.1522 C   0  0  2  0  0  0  0  0  0  0  0  0
    8.3043  -15.5841   26.3663 N   0  0  0  0  0  0  0  0  0  0  0  0
    9.7249  -15.2190   28.2437 C   0  0  0  0  0  0  0  0  0  0  0  0
   10.4376  -14.5512   29.0288 O   0  0  0  0  0  0  0  0  0  0  0  0
    9.6694  -16.5812   28.4660 O   0  0  0  0  0  0  0  0  0  0  0  0
  2  1  1  6
  3  2  1  0
  4  5  1  0
  4  3  1  0
  5  6  1  0
  7  6  1  0
  8  2  1  0
  8  9  2  0
 10  8  1  0
 11 10  1  0
 11 12  1  6
 13 12  1  0
 14 15  1  0
 14 13  1  0
 15 16  1  0
 17 11  1  0
 18 17  2  0
 20 19  1  1
 20 22  1  0
 20 21  1  0
 23 22  1  1
 23 24  1  0
 23 25  1  0
 24 17  1  0
 25 27  1  0
 26 25  2  0
M  END
$$$$
