KKL.pdb
     RDKit          3D

 27 26  0  0  1  0  0  0  0  0999 V2000
    9.6064  -15.1882   19.6237 N   0  0  0  0  0  0  0  0  0  0  0  0
    8.7474  -14.2338   20.2578 C   0  0  1  0  0  0  0  0  0  0  0  0
    7.5821  -13.8437   19.3612 C   0  0  0  0  0  0  0  0  0  0  0  0
    8.0781  -13.3607   18.0219 C   0  0  0  0  0  0  0  0  0  0  0  0
    7.4642  -14.1010   16.8815 C   0  0  0  0  0  0  0  0  0  0  0  0
    7.9629  -13.6537   15.5373 C   0  0  0  0  0  0  0  0  0  0  0  0
    7.3485  -14.3551   14.4440 N   0  0  0  0  0  0  0  0  0  0  0  0
    8.2677  -14.8089   21.5400 C   0  0  0  0  0  0  0  0  0  0  0  0
    7.3338  -14.2163   22.1808 O   0  0  0  0  0  0  0  0  0  0  0  0
    8.8270  -16.0049   22.0679 N   0  0  0  0  0  0  0  0  0  0  0  0
    8.3099  -16.5663   23.2996 C   0  0  1  0  0  0  0  0  0  0  0  0
    8.7047  -18.0057   23.3275 C   0  0  0  0  0  0  0  0  0  0  0  0
    8.4073  -18.7164   24.6096 C   0  0  0  0  0  0  0  0  0  0  0  0
    7.3589  -19.8072   24.4293 C   0  0  0  0  0  0  0  0  0  0  0  0
    7.1606  -20.5093   25.7568 C   0  0  0  0  0  0  0  0  0  0  0  0
    6.1752  -21.5826   25.5609 N   0  0  0  0  0  0  0  0  0  0  0  0
    8.7789  -15.7707   24.4304 C   0  0  0  0  0  0  0  0  0  0  0  0
    9.9844  -15.4877   24.6540 O   0  0  0  0  0  0  0  0  0  0  0  0
    5.7023  -11.7399   26.1735 C   0  0  0  0  0  0  0  0  0  0  0  0
    6.8749  -12.6383   25.8517 C   0  0  1  0  0  0  0  0  0  0  0  0
    8.0276  -11.6735   25.5100 C   0  0  0  0  0  0  0  0  0  0  0  0
    7.2563  -13.5248   26.9854 C   0  0  0  0  0  0  0  0  0  0  0  0
    8.2749  -14.5370   26.5850 C   0  0  2  0  0  0  0  0  0  0  0  0
    7.8446  -15.2588   25.3705 N   0  0  0  0  0  0  0  0  0  0  0  0
    8.5967  -15.5440   27.6130 C   0  0  0  0  0  0  0  0  0  0  0  0
    9.0513  -15.1827   28.7235 O   0  0  0  0  0  0  0  0  0  0  0  0
    8.4238  -16.9020   27.4281 O   0  0  0  0  0  0  0  0  0  0  0  0
  2  1  1  6
  3  2  1  0
  4  5  1  0
  4  3  1  0
  5  6  1  0
  7  6  1  0
  8  2  1  0
  8  9  2  0
 10  8  1  0
 11 10  1  0
 11 12  1  1
 13 12  1  0
 14 15  1  0
 14 13  1  0
 15 16  1  0
 17 11  1  0
 18 17  2  0
 20 19  1  1
 20 22  1  0
 20 21  1  0
 23 22  1  1
 23 24  1  0
 23 25  1  0
 24 17  1  0
 25 27  1  0
 26 25  2  0
M  END
$$$$
