KKL.pdb
     RDKit          3D

 27 26  0  0  1  0  0  0  0  0999 V2000
    6.4517  -17.9468   19.1135 N   0  0  0  0  0  0  0  0  0  0  0  0
    7.4061  -17.1789   19.8552 C   0  0  1  0  0  0  0  0  0  0  0  0
    7.3854  -15.7129   19.4493 C   0  0  0  0  0  0  0  0  0  0  0  0
    7.7667  -15.5557   17.9992 C   0  0  0  0  0  0  0  0  0  0  0  0
    7.7285  -14.1347   17.5466 C   0  0  0  0  0  0  0  0  0  0  0  0
    7.9299  -13.9702   16.0673 C   0  0  0  0  0  0  0  0  0  0  0  0
    7.7887  -12.6103   15.6252 N   0  0  0  0  0  0  0  0  0  0  0  0
    7.1174  -17.3380   21.3031 C   0  0  0  0  0  0  0  0  0  0  0  0
    5.9453  -17.0748   21.7398 O   0  0  0  0  0  0  0  0  0  0  0  0
    8.1191  -17.7770   22.2118 N   0  0  0  0  0  0  0  0  0  0  0  0
    7.8501  -17.7956   23.6355 C   0  0  1  0  0  0  0  0  0  0  0  0
    8.4293  -19.0606   24.1767 C   0  0  0  0  0  0  0  0  0  0  0  0
    8.3257  -19.2173   25.6607 C   0  0  0  0  0  0  0  0  0  0  0  0
    8.8903  -20.5502   26.1362 C   0  0  0  0  0  0  0  0  0  0  0  0
    8.7397  -20.6280   27.6413 C   0  0  0  0  0  0  0  0  0  0  0  0
    9.4211  -21.8457   28.1042 N   0  0  0  0  0  0  0  0  0  0  0  0
    8.3593  -16.5690   24.2420 C   0  0  0  0  0  0  0  0  0  0  0  0
    9.4811  -16.0587   23.9885 O   0  0  0  0  0  0  0  0  0  0  0  0
    6.1685  -11.2829   26.3980 C   0  0  0  0  0  0  0  0  0  0  0  0
    7.2482  -12.3380   26.4799 C   0  0  1  0  0  0  0  0  0  0  0  0
    7.4511  -12.5770   27.9892 C   0  0  0  0  0  0  0  0  0  0  0  0
    6.8738  -13.6069   25.7972 C   0  0  0  0  0  0  0  0  0  0  0  0
    8.0016  -14.5815   25.7718 C   0  0  2  0  0  0  0  0  0  0  0  0
    7.5673  -15.8679   25.1906 N   0  0  0  0  0  0  0  0  0  0  0  0
    8.6136  -14.8673   27.0827 C   0  0  0  0  0  0  0  0  0  0  0  0
    8.0694  -15.6818   27.8641 O   0  0  0  0  0  0  0  0  0  0  0  0
    9.7846  -14.2792   27.5199 O   0  0  0  0  0  0  0  0  0  0  0  0
  2  1  1  6
  3  2  1  0
  4  5  1  0
  4  3  1  0
  5  6  1  0
  7  6  1  0
  8  2  1  0
  8  9  2  0
 10  8  1  0
 11 10  1  0
 11 12  1  1
 13 12  1  0
 14 15  1  0
 14 13  1  0
 15 16  1  0
 17 11  1  0
 18 17  2  0
 20 19  1  1
 20 22  1  0
 20 21  1  0
 23 22  1  1
 23 24  1  0
 23 25  1  0
 24 17  1  0
 25 27  1  0
 26 25  2  0
M  END
$$$$
