KKL.pdb
     RDKit          3D

 27 26  0  0  1  0  0  0  0  0999 V2000
    9.2670  -18.4149   19.3320 N   0  0  0  0  0  0  0  0  0  0  0  0
    8.7554  -18.2876   20.6634 C   0  0  1  0  0  0  0  0  0  0  0  0
    9.3744  -19.3107   21.6037 C   0  0  0  0  0  0  0  0  0  0  0  0
   10.8417  -19.4889   21.3065 C   0  0  0  0  0  0  0  0  0  0  0  0
   11.5001  -20.4600   22.2278 C   0  0  0  0  0  0  0  0  0  0  0  0
   12.9533  -20.6862   21.9230 C   0  0  0  0  0  0  0  0  0  0  0  0
   13.6007  -21.5544   22.8673 N   0  0  0  0  0  0  0  0  0  0  0  0
    9.0090  -16.9030   21.1363 C   0  0  0  0  0  0  0  0  0  0  0  0
   10.2090  -16.4641   21.1718 O   0  0  0  0  0  0  0  0  0  0  0  0
    7.9434  -16.0572   21.5500 N   0  0  0  0  0  0  0  0  0  0  0  0
    8.2242  -14.7239   22.0430 C   0  0  1  0  0  0  0  0  0  0  0  0
    7.3931  -13.7750   21.2445 C   0  0  0  0  0  0  0  0  0  0  0  0
    7.3068  -14.0873   19.7842 C   0  0  0  0  0  0  0  0  0  0  0  0
    8.3397  -13.3160   18.9722 C   0  0  0  0  0  0  0  0  0  0  0  0
    8.1158  -13.6106   17.5033 C   0  0  0  0  0  0  0  0  0  0  0  0
    9.1135  -12.8560   16.7309 N   0  0  0  0  0  0  0  0  0  0  0  0
    8.0026  -14.6827   23.4854 C   0  0  0  0  0  0  0  0  0  0  0  0
    6.8977  -14.4304   24.0318 O   0  0  0  0  0  0  0  0  0  0  0  0
    6.1148  -12.2760   26.3683 C   0  0  0  0  0  0  0  0  0  0  0  0
    7.4942  -12.8150   26.0643 C   0  0  1  0  0  0  0  0  0  0  0  0
    8.4184  -12.1332   27.0925 C   0  0  0  0  0  0  0  0  0  0  0  0
    7.5797  -14.2962   26.1885 C   0  0  0  0  0  0  0  0  0  0  0  0
    8.9349  -14.8089   25.8377 C   0  0  2  0  0  0  0  0  0  0  0  0
    9.0813  -14.9392   24.3739 N   0  0  0  0  0  0  0  0  0  0  0  0
    9.2898  -16.1074   26.4398 C   0  0  0  0  0  0  0  0  0  0  0  0
    8.9988  -17.1729   25.8479 O   0  0  0  0  0  0  0  0  0  0  0  0
    9.9432  -16.2314   27.6505 O   0  0  0  0  0  0  0  0  0  0  0  0
  2  1  1  6
  3  2  1  0
  4  5  1  0
  4  3  1  0
  5  6  1  0
  7  6  1  0
  8  2  1  0
  8  9  2  0
 10  8  1  0
 11 10  1  0
 11 12  1  6
 13 12  1  0
 14 15  1  0
 14 13  1  0
 15 16  1  0
 17 11  1  0
 18 17  2  0
 20 19  1  1
 20 22  1  0
 20 21  1  0
 23 22  1  6
 23 24  1  0
 23 25  1  0
 24 17  1  0
 25 27  1  0
 26 25  2  0
M  END
$$$$
