KKL.pdb
     RDKit          3D

 27 26  0  0  1  0  0  0  0  0999 V2000
    5.4190  -18.0127   19.7594 N   0  0  0  0  0  0  0  0  0  0  0  0
    6.2813  -17.2853   20.6416 C   0  0  1  0  0  0  0  0  0  0  0  0
    6.1631  -15.7834   20.4311 C   0  0  0  0  0  0  0  0  0  0  0  0
    6.7845  -15.3783   19.1186 C   0  0  0  0  0  0  0  0  0  0  0  0
    7.5320  -14.0906   19.2106 C   0  0  0  0  0  0  0  0  0  0  0  0
    8.1368  -13.6530   17.9074 C   0  0  0  0  0  0  0  0  0  0  0  0
    8.7548  -12.3577   17.9774 N   0  0  0  0  0  0  0  0  0  0  0  0
    5.9490  -17.6580   22.0401 C   0  0  0  0  0  0  0  0  0  0  0  0
    4.7319  -17.6106   22.4278 O   0  0  0  0  0  0  0  0  0  0  0  0
    6.9581  -18.0662   22.9550 N   0  0  0  0  0  0  0  0  0  0  0  0
    6.7286  -17.9641   24.3821 C   0  0  1  0  0  0  0  0  0  0  0  0
    7.6638  -18.9184   25.0480 C   0  0  0  0  0  0  0  0  0  0  0  0
    7.5573  -18.9685   26.5392 C   0  0  0  0  0  0  0  0  0  0  0  0
    8.5001  -20.0003   27.1457 C   0  0  0  0  0  0  0  0  0  0  0  0
    8.2674  -20.0452   28.6418 C   0  0  0  0  0  0  0  0  0  0  0  0
    9.2255  -20.9970   29.2227 N   0  0  0  0  0  0  0  0  0  0  0  0
    6.8622  -16.5707   24.7970 C   0  0  0  0  0  0  0  0  0  0  0  0
    6.1154  -15.6350   24.4096 O   0  0  0  0  0  0  0  0  0  0  0  0
    6.2329  -11.6988   26.1425 C   0  0  0  0  0  0  0  0  0  0  0  0
    7.2418  -12.6370   26.7651 C   0  0  1  0  0  0  0  0  0  0  0  0
    7.1347  -12.3800   28.2812 C   0  0  0  0  0  0  0  0  0  0  0  0
    6.9705  -14.0685   26.4589 C   0  0  0  0  0  0  0  0  0  0  0  0
    8.1954  -14.7835   25.9998 C   0  0  2  0  0  0  0  0  0  0  0  0
    7.8934  -16.1978   25.7005 N   0  0  0  0  0  0  0  0  0  0  0  0
    9.3277  -14.7584   26.9442 C   0  0  0  0  0  0  0  0  0  0  0  0
    9.9649  -13.6956   27.1304 O   0  0  0  0  0  0  0  0  0  0  0  0
    9.7452  -15.8631   27.6608 O   0  0  0  0  0  0  0  0  0  0  0  0
  2  1  1  6
  3  2  1  0
  4  5  1  0
  4  3  1  0
  5  6  1  0
  7  6  1  0
  8  2  1  0
  8  9  2  0
 10  8  1  0
 11 10  1  0
 11 12  1  1
 13 12  1  0
 14 15  1  0
 14 13  1  0
 15 16  1  0
 17 11  1  0
 18 17  2  0
 20 19  1  6
 20 22  1  0
 20 21  1  0
 23 22  1  1
 23 24  1  0
 23 25  1  0
 24 17  1  0
 25 27  1  0
 26 25  2  0
M  END
$$$$
