KKL.pdb
     RDKit          3D

 27 26  0  0  1  0  0  0  0  0999 V2000
    6.0788  -17.8423   19.1960 N   0  0  0  0  0  0  0  0  0  0  0  0
    7.2027  -17.1225   19.7154 C   0  0  1  0  0  0  0  0  0  0  0  0
    7.1466  -15.6485   19.3437 C   0  0  0  0  0  0  0  0  0  0  0  0
    7.8870  -15.3949   18.0551 C   0  0  0  0  0  0  0  0  0  0  0  0
    7.8770  -13.9561   17.6610 C   0  0  0  0  0  0  0  0  0  0  0  0
    8.5281  -13.6927   16.3335 C   0  0  0  0  0  0  0  0  0  0  0  0
    8.3604  -12.3397   15.8798 N   0  0  0  0  0  0  0  0  0  0  0  0
    7.2386  -17.3025   21.1889 C   0  0  0  0  0  0  0  0  0  0  0  0
    6.1414  -17.3159   21.8444 O   0  0  0  0  0  0  0  0  0  0  0  0
    8.4693  -17.4598   21.8837 N   0  0  0  0  0  0  0  0  0  0  0  0
    8.4770  -17.5889   23.3269 C   0  0  1  0  0  0  0  0  0  0  0  0
    9.4236  -18.6925   23.6654 C   0  0  0  0  0  0  0  0  0  0  0  0
    9.6462  -18.9055   25.1292 C   0  0  0  0  0  0  0  0  0  0  0  0
   10.6708  -20.0005   25.3987 C   0  0  0  0  0  0  0  0  0  0  0  0
   10.8553  -20.1298   26.8965 C   0  0  0  0  0  0  0  0  0  0  0  0
   11.8937  -21.1413   27.1412 N   0  0  0  0  0  0  0  0  0  0  0  0
    8.7887  -16.2956   23.9285 C   0  0  0  0  0  0  0  0  0  0  0  0
    9.7122  -15.5325   23.5438 O   0  0  0  0  0  0  0  0  0  0  0  0
    7.9646  -11.4372   25.9045 C   0  0  0  0  0  0  0  0  0  0  0  0
    7.2951  -12.5284   26.7088 C   0  0  1  0  0  0  0  0  0  0  0  0
    5.9584  -11.9141   27.1692 C   0  0  0  0  0  0  0  0  0  0  0  0
    7.0545  -13.7677   25.9196 C   0  0  0  0  0  0  0  0  0  0  0  0
    8.3117  -14.5339   25.6856 C   0  0  2  0  0  0  0  0  0  0  0  0
    8.0222  -15.8243   25.0280 N   0  0  0  0  0  0  0  0  0  0  0  0
    9.1083  -14.8168   26.8938 C   0  0  0  0  0  0  0  0  0  0  0  0
    8.7883  -15.7654   27.6475 O   0  0  0  0  0  0  0  0  0  0  0  0
   10.2197  -14.0832   27.2612 O   0  0  0  0  0  0  0  0  0  0  0  0
  2  1  1  1
  3  2  1  0
  4  5  1  0
  4  3  1  0
  5  6  1  0
  7  6  1  0
  8  2  1  0
  8  9  2  0
 10  8  1  0
 11 10  1  0
 11 12  1  6
 13 12  1  0
 14 15  1  0
 14 13  1  0
 15 16  1  0
 17 11  1  0
 18 17  2  0
 20 19  1  6
 20 22  1  0
 20 21  1  0
 23 22  1  1
 23 24  1  0
 23 25  1  0
 24 17  1  0
 25 27  1  0
 26 25  2  0
M  END
$$$$
