PED.pdb
     RDKit          3D

 25 25  0  0  1  0  0  0  0  0999 V2000
   28.1671  -21.3667  -11.7070 N   0  0  0  0  0  0  0  0  0  0  0  0
   29.5493  -21.6535  -12.0396 C   0  0  0  0  0  0  0  0  0  0  0  0
   30.3235  -20.3937  -11.6362 C   0  0  0  0  0  0  0  0  0  0  0  0
   29.3200  -19.3305  -12.1037 C   0  0  0  0  0  0  0  0  0  0  0  0
   28.0219  -19.9418  -11.6640 C   0  0  1  0  0  0  0  0  0  0  0  0
   26.8823  -19.5509  -12.5166 C   0  0  0  0  0  0  0  0  0  0  0  0
   26.5510  -18.3249  -12.6529 O   0  0  0  0  0  0  0  0  0  0  0  0
   26.0791  -20.4782  -13.2382 N   0  0  0  0  0  0  0  0  0  0  0  0
   25.0271  -20.0278  -14.1610 C   0  0  1  0  0  0  0  0  0  0  0  0
   25.4099  -20.4889  -15.5471 C   0  0  0  0  0  0  0  0  0  0  0  0
   26.5783  -19.6498  -16.0085 C   0  0  0  0  0  0  0  0  0  0  0  0
   27.0341  -20.1684  -17.3150 C   0  0  0  0  0  0  0  0  0  0  0  0
   26.2589  -20.1273  -18.2973 O   0  0  0  0  0  0  0  0  0  0  0  0
   23.7031  -20.5272  -13.7313 C   0  0  0  0  0  0  0  0  0  0  0  0
   23.6518  -21.6217  -13.0945 O   0  0  0  0  0  0  0  0  0  0  0  0
   28.2946  -20.6971  -17.4775 O   0  0  0  0  0  0  0  0  0  0  0  0
   22.5150  -19.8444  -13.9978 N   0  0  0  0  0  0  0  0  0  0  0  0
   21.1985  -20.2798  -13.4783 C   0  0  1  0  0  0  0  0  0  0  0  0
   20.2534  -19.1913  -13.9266 C   0  0  0  0  0  0  0  0  0  0  0  0
   18.8607  -19.3515  -13.4918 C   0  0  0  0  0  0  0  0  0  0  0  0
   17.9573  -18.5602  -13.8193 O   0  0  0  0  0  0  0  0  0  0  0  0
   20.8716  -21.6007  -14.0667 C   0  0  0  0  0  0  0  0  0  0  0  0
   21.1195  -21.8366  -15.2770 O   0  0  0  0  0  0  0  0  0  0  0  0
   18.4733  -20.4177  -12.6755 O   0  0  0  0  0  0  0  0  0  0  0  0
   20.2969  -22.5983  -13.3240 O   0  0  0  0  0  0  0  0  0  0  0  0
  1  2  1  0
  3  2  1  0
  4  3  1  0
  4  5  1  0
  5  1  1  0
  6  8  1  0
  5  6  1  6
  7  6  2  0
  9  8  1  0
  9 14  1  0
  9 10  1  6
 11 10  1  0
 12 11  1  0
 13 12  2  0
 14 17  1  0
 15 14  2  0
 16 12  1  0
 17 18  1  0
 18 19  1  6
 18 22  1  0
 20 19  1  0
 21 20  2  0
 22 25  1  0
 23 22  2  0
 24 20  1  0
M  END
$$$$
