PED.pdb
     RDKit          3D

 25 25  0  0  1  0  0  0  0  0999 V2000
   18.5912  -10.8328  -16.9636 N   0  0  0  0  0  0  0  0  0  0  0  0
   18.5727  -12.2634  -17.2012 C   0  0  0  0  0  0  0  0  0  0  0  0
   18.0772  -12.8769  -15.8870 C   0  0  0  0  0  0  0  0  0  0  0  0
   18.8310  -11.9769  -14.8982 C   0  0  0  0  0  0  0  0  0  0  0  0
   18.6708  -10.6332  -15.5470 C   0  0  1  0  0  0  0  0  0  0  0  0
   19.7889   -9.7149  -15.2551 C   0  0  0  0  0  0  0  0  0  0  0  0
   20.0616   -9.3683  -14.0564 O   0  0  0  0  0  0  0  0  0  0  0  0
   20.6334   -9.1538  -16.2539 N   0  0  0  0  0  0  0  0  0  0  0  0
   21.7021   -8.2041  -15.9113 C   0  0  1  0  0  0  0  0  0  0  0  0
   22.9183   -8.5747  -16.7261 C   0  0  0  0  0  0  0  0  0  0  0  0
   24.0341   -7.6284  -16.3497 C   0  0  0  0  0  0  0  0  0  0  0  0
   25.2137   -7.9491  -17.1801 C   0  0  0  0  0  0  0  0  0  0  0  0
   26.2219   -7.2085  -17.1283 O   0  0  0  0  0  0  0  0  0  0  0  0
   21.2584   -6.8114  -16.1363 C   0  0  0  0  0  0  0  0  0  0  0  0
   21.0449   -6.4342  -17.3272 O   0  0  0  0  0  0  0  0  0  0  0  0
   25.2297   -9.0460  -18.0116 O   0  0  0  0  0  0  0  0  0  0  0  0
   21.0668   -5.9018  -15.0950 N   0  0  0  0  0  0  0  0  0  0  0  0
   20.7263   -4.4781  -15.3178 C   0  0  1  0  0  0  0  0  0  0  0  0
   19.5366   -4.2444  -14.4182 C   0  0  0  0  0  0  0  0  0  0  0  0
   18.2422   -4.6644  -14.9683 C   0  0  0  0  0  0  0  0  0  0  0  0
   18.1188   -5.1413  -16.1116 O   0  0  0  0  0  0  0  0  0  0  0  0
   21.8972   -3.6483  -14.9462 C   0  0  0  0  0  0  0  0  0  0  0  0
   21.8964   -2.4106  -15.1703 O   0  0  0  0  0  0  0  0  0  0  0  0
   17.0651   -4.5481  -14.2241 O   0  0  0  0  0  0  0  0  0  0  0  0
   23.0062   -4.1912  -14.3525 O   0  0  0  0  0  0  0  0  0  0  0  0
  1  2  1  0
  3  2  1  0
  4  3  1  0
  4  5  1  0
  5  1  1  0
  6  8  1  0
  5  6  1  6
  7  6  2  0
  9  8  1  0
  9 14  1  0
  9 10  1  6
 11 10  1  0
 12 11  1  0
 13 12  2  0
 14 17  1  0
 15 14  2  0
 16 12  1  0
 17 18  1  0
 18 19  1  1
 18 22  1  0
 20 19  1  0
 21 20  2  0
 22 25  1  0
 23 22  2  0
 24 20  1  0
M  END
$$$$
