PED.pdb
     RDKit          3D

 25 25  0  0  1  0  0  0  0  0999 V2000
   20.1433  -13.4145  -16.4021 N   0  0  0  0  0  0  0  0  0  0  0  0
   19.3704  -14.5448  -16.8801 C   0  0  0  0  0  0  0  0  0  0  0  0
   20.0287  -14.9425  -18.2058 C   0  0  0  0  0  0  0  0  0  0  0  0
   20.3152  -13.5424  -18.7657 C   0  0  0  0  0  0  0  0  0  0  0  0
   20.7960  -12.8296  -17.5357 C   0  0  1  0  0  0  0  0  0  0  0  0
   20.5093  -11.3820  -17.5589 C   0  0  0  0  0  0  0  0  0  0  0  0
   21.0799  -10.6104  -18.4018 O   0  0  0  0  0  0  0  0  0  0  0  0
   19.6003  -10.7409  -16.6711 N   0  0  0  0  0  0  0  0  0  0  0  0
   19.2478   -9.3221  -16.8251 C   0  0  1  0  0  0  0  0  0  0  0  0
   17.7502   -9.2058  -16.6693 C   0  0  0  0  0  0  0  0  0  0  0  0
   17.3691   -7.7650  -16.9161 C   0  0  0  0  0  0  0  0  0  0  0  0
   15.9025   -7.6439  -16.7809 C   0  0  0  0  0  0  0  0  0  0  0  0
   15.2225   -8.6630  -16.5227 O   0  0  0  0  0  0  0  0  0  0  0  0
   19.9954   -8.4878  -15.8596 C   0  0  0  0  0  0  0  0  0  0  0  0
   20.1630   -8.9330  -14.6849 O   0  0  0  0  0  0  0  0  0  0  0  0
   15.2650   -6.4334  -16.9327 O   0  0  0  0  0  0  0  0  0  0  0  0
   20.5206   -7.2372  -16.1894 N   0  0  0  0  0  0  0  0  0  0  0  0
   21.2092   -6.3659  -15.2100 C   0  0  1  0  0  0  0  0  0  0  0  0
   21.9950   -5.4047  -16.0689 C   0  0  0  0  0  0  0  0  0  0  0  0
   22.7204   -4.3590  -15.3375 C   0  0  0  0  0  0  0  0  0  0  0  0
   22.6766   -4.2497  -14.0982 O   0  0  0  0  0  0  0  0  0  0  0  0
   20.1856   -5.6870  -14.3798 C   0  0  0  0  0  0  0  0  0  0  0  0
   19.1974   -5.1273  -14.9203 O   0  0  0  0  0  0  0  0  0  0  0  0
   23.5090   -3.4192  -16.0067 O   0  0  0  0  0  0  0  0  0  0  0  0
   20.2770   -5.6462  -13.0134 O   0  0  0  0  0  0  0  0  0  0  0  0
  1  2  1  0
  3  2  1  0
  4  3  1  0
  4  5  1  0
  5  1  1  0
  6  8  1  0
  5  6  1  6
  7  6  2  0
  9  8  1  0
  9 14  1  0
  9 10  1  1
 11 10  1  0
 12 11  1  0
 13 12  2  0
 14 17  1  0
 15 14  2  0
 16 12  1  0
 17 18  1  0
 18 19  1  6
 18 22  1  0
 20 19  1  0
 21 20  2  0
 22 25  1  0
 23 22  2  0
 24 20  1  0
M  END
$$$$
