PED.pdb
     RDKit          3D

 25 25  0  0  1  0  0  0  0  0999 V2000
   26.9702  -11.4336  -17.7739 N   0  0  0  0  0  0  0  0  0  0  0  0
   28.2072  -11.5320  -17.0232 C   0  0  0  0  0  0  0  0  0  0  0  0
   27.7776  -11.8965  -15.5979 C   0  0  0  0  0  0  0  0  0  0  0  0
   26.5359  -11.0019  -15.4810 C   0  0  0  0  0  0  0  0  0  0  0  0
   25.9163  -11.1852  -16.8354 C   0  0  1  0  0  0  0  0  0  0  0  0
   25.1459  -10.0080  -17.2814 C   0  0  0  0  0  0  0  0  0  0  0  0
   25.7311   -8.9856  -17.7753 O   0  0  0  0  0  0  0  0  0  0  0  0
   23.7280   -9.9135  -17.2018 N   0  0  0  0  0  0  0  0  0  0  0  0
   23.0106   -8.7174  -17.6665 C   0  0  1  0  0  0  0  0  0  0  0  0
   21.8705   -9.1820  -18.5411 C   0  0  0  0  0  0  0  0  0  0  0  0
   22.4562   -9.6705  -19.8452 C   0  0  0  0  0  0  0  0  0  0  0  0
   21.6126  -10.7751  -20.3471 C   0  0  0  0  0  0  0  0  0  0  0  0
   20.6359  -10.5160  -21.0865 O   0  0  0  0  0  0  0  0  0  0  0  0
   22.5624   -7.8962  -16.5211 C   0  0  0  0  0  0  0  0  0  0  0  0
   22.2954   -8.4826  -15.4298 O   0  0  0  0  0  0  0  0  0  0  0  0
   21.8763  -12.0859  -20.0197 O   0  0  0  0  0  0  0  0  0  0  0  0
   22.4229   -6.5092  -16.5945 N   0  0  0  0  0  0  0  0  0  0  0  0
   22.0247   -5.6747  -15.4380 C   0  0  1  0  0  0  0  0  0  0  0  0
   22.8216   -4.4048  -15.6153 C   0  0  0  0  0  0  0  0  0  0  0  0
   22.4808   -3.3162  -14.6916 C   0  0  0  0  0  0  0  0  0  0  0  0
   22.2315   -2.1589  -15.0768 O   0  0  0  0  0  0  0  0  0  0  0  0
   20.5613   -5.4462  -15.5015 C   0  0  0  0  0  0  0  0  0  0  0  0
   19.9321   -5.0660  -14.4810 O   0  0  0  0  0  0  0  0  0  0  0  0
   22.4179   -3.5281  -13.3117 O   0  0  0  0  0  0  0  0  0  0  0  0
   19.8515   -5.6369  -16.6578 O   0  0  0  0  0  0  0  0  0  0  0  0
  1  2  1  0
  3  2  1  0
  4  3  1  0
  4  5  1  0
  5  1  1  0
  6  8  1  0
  5  6  1  6
  7  6  2  0
  9  8  1  0
  9 14  1  0
  9 10  1  1
 11 10  1  0
 12 11  1  0
 13 12  2  0
 14 17  1  0
 15 14  2  0
 16 12  1  0
 17 18  1  0
 18 19  1  6
 18 22  1  0
 20 19  1  0
 21 20  2  0
 22 25  1  0
 23 22  2  0
 24 20  1  0
M  END
$$$$
