PED.pdb
     RDKit          3D

 25 25  0  0  1  0  0  0  0  0999 V2000
   21.8782  -10.7345  -18.7439 N   0  0  0  0  0  0  0  0  0  0  0  0
   23.0925  -11.4908  -18.9826 C   0  0  0  0  0  0  0  0  0  0  0  0
   22.8511  -12.8489  -18.3146 C   0  0  0  0  0  0  0  0  0  0  0  0
   22.1324  -12.3720  -17.0450 C   0  0  0  0  0  0  0  0  0  0  0  0
   21.2309  -11.3095  -17.6022 C   0  0  1  0  0  0  0  0  0  0  0  0
   20.9328  -10.2387  -16.6313 C   0  0  0  0  0  0  0  0  0  0  0  0
   20.3210  -10.4910  -15.5387 O   0  0  0  0  0  0  0  0  0  0  0  0
   21.2905   -8.8745  -16.8229 N   0  0  0  0  0  0  0  0  0  0  0  0
   20.9581   -7.8459  -15.8266 C   0  0  1  0  0  0  0  0  0  0  0  0
   22.0632   -6.8169  -15.8490 C   0  0  0  0  0  0  0  0  0  0  0  0
   21.7976   -5.8275  -14.7387 C   0  0  0  0  0  0  0  0  0  0  0  0
   22.8426   -4.7838  -14.7884 C   0  0  0  0  0  0  0  0  0  0  0  0
   23.8414   -4.9481  -15.5254 O   0  0  0  0  0  0  0  0  0  0  0  0
   19.6241   -7.2668  -16.0952 C   0  0  0  0  0  0  0  0  0  0  0  0
   19.3739   -6.8530  -17.2666 O   0  0  0  0  0  0  0  0  0  0  0  0
   22.7432   -3.6320  -14.0411 O   0  0  0  0  0  0  0  0  0  0  0  0
   18.6358   -7.1589  -15.1152 N   0  0  0  0  0  0  0  0  0  0  0  0
   17.3025   -6.5688  -15.3733 C   0  0  1  0  0  0  0  0  0  0  0  0
   16.3556   -7.4646  -14.6117 C   0  0  0  0  0  0  0  0  0  0  0  0
   16.0761   -8.7610  -15.2408 C   0  0  0  0  0  0  0  0  0  0  0  0
   16.0909   -9.8336  -14.6092 O   0  0  0  0  0  0  0  0  0  0  0  0
   17.2983   -5.1734  -14.8728 C   0  0  0  0  0  0  0  0  0  0  0  0
   16.4373   -4.3533  -15.2828 O   0  0  0  0  0  0  0  0  0  0  0  0
   15.7743   -8.8572  -16.6019 O   0  0  0  0  0  0  0  0  0  0  0  0
   18.2180   -4.7330  -13.9577 O   0  0  0  0  0  0  0  0  0  0  0  0
  1  2  1  0
  3  2  1  0
  4  3  1  0
  4  5  1  0
  5  1  1  0
  6  8  1  0
  5  6  1  1
  7  6  2  0
  9  8  1  0
  9 14  1  0
  9 10  1  6
 11 10  1  0
 12 11  1  0
 13 12  2  0
 14 17  1  0
 15 14  2  0
 16 12  1  0
 17 18  1  0
 18 19  1  1
 18 22  1  0
 20 19  1  0
 21 20  2  0
 22 25  1  0
 23 22  2  0
 24 20  1  0
M  END
$$$$
