PED.pdb
     RDKit          3D

 25 25  0  0  1  0  0  0  0  0999 V2000
   21.8220  -13.2809  -15.1487 N   0  0  0  0  0  0  0  0  0  0  0  0
   22.1952  -14.4741  -15.8839 C   0  0  0  0  0  0  0  0  0  0  0  0
   23.7151  -14.5819  -15.7187 C   0  0  0  0  0  0  0  0  0  0  0  0
   24.0810  -13.0973  -15.8525 C   0  0  0  0  0  0  0  0  0  0  0  0
   22.9883  -12.4545  -15.0496 C   0  0  1  0  0  0  0  0  0  0  0  0
   22.6527  -11.0952  -15.5167 C   0  0  0  0  0  0  0  0  0  0  0  0
   23.5432  -10.1818  -15.5814 O   0  0  0  0  0  0  0  0  0  0  0  0
   21.3479  -10.6975  -15.9227 N   0  0  0  0  0  0  0  0  0  0  0  0
   21.1036   -9.3908  -16.5503 C   0  0  1  0  0  0  0  0  0  0  0  0
   19.9701   -9.5629  -17.5332 C   0  0  0  0  0  0  0  0  0  0  0  0
   20.5674   -9.9454  -18.8671 C   0  0  0  0  0  0  0  0  0  0  0  0
   19.4645  -10.1264  -19.8339 C   0  0  0  0  0  0  0  0  0  0  0  0
   19.1025  -11.2841  -20.1442 O   0  0  0  0  0  0  0  0  0  0  0  0
   20.8285   -8.3599  -15.5262 C   0  0  0  0  0  0  0  0  0  0  0  0
   20.2070   -8.7062  -14.4775 O   0  0  0  0  0  0  0  0  0  0  0  0
   18.8243   -9.0488  -20.4028 O   0  0  0  0  0  0  0  0  0  0  0  0
   21.2243   -7.0288  -15.6685 N   0  0  0  0  0  0  0  0  0  0  0  0
   21.0268   -6.0096  -14.6127 C   0  0  1  0  0  0  0  0  0  0  0  0
   22.0550   -4.9516  -14.9329 C   0  0  0  0  0  0  0  0  0  0  0  0
   22.0377   -3.7745  -14.0561 C   0  0  0  0  0  0  0  0  0  0  0  0
   21.2779   -3.6763  -13.0749 O   0  0  0  0  0  0  0  0  0  0  0  0
   19.6365   -5.5023  -14.6996 C   0  0  0  0  0  0  0  0  0  0  0  0
   19.1103   -5.2780  -15.8198 O   0  0  0  0  0  0  0  0  0  0  0  0
   22.8870   -2.6881  -14.2828 O   0  0  0  0  0  0  0  0  0  0  0  0
   18.8849   -5.2639  -13.5793 O   0  0  0  0  0  0  0  0  0  0  0  0
  1  2  1  0
  3  2  1  0
  4  3  1  0
  4  5  1  0
  5  1  1  0
  6  8  1  0
  5  6  1  6
  7  6  2  0
  9  8  1  0
  9 14  1  0
  9 10  1  6
 11 10  1  0
 12 11  1  0
 13 12  2  0
 14 17  1  0
 15 14  2  0
 16 12  1  0
 17 18  1  0
 18 19  1  6
 18 22  1  0
 20 19  1  0
 21 20  2  0
 22 25  1  0
 23 22  2  0
 24 20  1  0
M  END
$$$$
