PED.pdb
     RDKit          3D

 25 25  0  0  1  0  0  0  0  0999 V2000
   16.8710  -13.0759    5.7209 N   0  0  0  0  0  0  0  0  0  0  0  0
   16.8509  -12.1010    4.6472 C   0  0  0  0  0  0  0  0  0  0  0  0
   17.0811  -12.9146    3.3690 C   0  0  0  0  0  0  0  0  0  0  0  0
   18.1415  -13.8940    3.8909 C   0  0  0  0  0  0  0  0  0  0  0  0
   17.5935  -14.2199    5.2494 C   0  0  1  0  0  0  0  0  0  0  0  0
   18.6442  -14.5594    6.2288 C   0  0  0  0  0  0  0  0  0  0  0  0
   19.4071  -15.5688    6.0539 O   0  0  0  0  0  0  0  0  0  0  0  0
   18.8900  -13.8141    7.4161 N   0  0  0  0  0  0  0  0  0  0  0  0
   19.9130  -14.2303    8.3863 C   0  0  1  0  0  0  0  0  0  0  0  0
   20.4844  -12.9792    9.0098 C   0  0  0  0  0  0  0  0  0  0  0  0
   21.3611  -12.3069    7.9794 C   0  0  0  0  0  0  0  0  0  0  0  0
   21.9512  -11.0979    8.5909 C   0  0  0  0  0  0  0  0  0  0  0  0
   21.8269  -10.9084    9.8223 O   0  0  0  0  0  0  0  0  0  0  0  0
   19.3430  -15.1634    9.3822 C   0  0  0  0  0  0  0  0  0  0  0  0
   18.1599  -14.9594    9.7879 O   0  0  0  0  0  0  0  0  0  0  0  0
   22.6360  -10.1727    7.8361 O   0  0  0  0  0  0  0  0  0  0  0  0
   20.0527  -16.2532    9.8894 N   0  0  0  0  0  0  0  0  0  0  0  0
   19.4902  -17.1894   10.8893 C   0  0  1  0  0  0  0  0  0  0  0  0
   19.8219  -18.5541   10.3354 C   0  0  0  0  0  0  0  0  0  0  0  0
   19.2145  -19.6846   11.0478 C   0  0  0  0  0  0  0  0  0  0  0  0
   18.1958  -19.5674   11.7537 O   0  0  0  0  0  0  0  0  0  0  0  0
   20.1378  -16.9291   12.1972 C   0  0  0  0  0  0  0  0  0  0  0  0
   19.8203  -17.6046   13.2096 O   0  0  0  0  0  0  0  0  0  0  0  0
   19.7581  -20.9696   10.9676 O   0  0  0  0  0  0  0  0  0  0  0  0
   21.0926  -15.9583   12.3483 O   0  0  0  0  0  0  0  0  0  0  0  0
  1  2  1  0
  3  2  1  0
  4  3  1  0
  4  5  1  0
  5  1  1  0
  6  8  1  0
  5  6  1  1
  7  6  2  0
  9  8  1  0
  9 14  1  0
  9 10  1  1
 11 10  1  0
 12 11  1  0
 13 12  2  0
 14 17  1  0
 15 14  2  0
 16 12  1  0
 17 18  1  0
 18 19  1  6
 18 22  1  0
 20 19  1  0
 21 20  2  0
 22 25  1  0
 23 22  2  0
 24 20  1  0
M  END
$$$$
