PED.pdb
     RDKit          3D

 25 25  0  0  1  0  0  0  0  0999 V2000
   18.1269  -13.2002  -14.9000 N   0  0  0  0  0  0  0  0  0  0  0  0
   17.3019  -14.2826  -15.4012 C   0  0  0  0  0  0  0  0  0  0  0  0
   18.2736  -15.2152  -16.1328 C   0  0  0  0  0  0  0  0  0  0  0  0
   19.1625  -14.1610  -16.8070 C   0  0  0  0  0  0  0  0  0  0  0  0
   19.3138  -13.1575  -15.7015 C   0  0  1  0  0  0  0  0  0  0  0  0
   19.5084  -11.7803  -16.1954 C   0  0  0  0  0  0  0  0  0  0  0  0
   20.4759  -11.4911  -16.9777 O   0  0  0  0  0  0  0  0  0  0  0  0
   18.6608  -10.6895  -15.8530 N   0  0  0  0  0  0  0  0  0  0  0  0
   18.9431   -9.3228  -16.3152 C   0  0  1  0  0  0  0  0  0  0  0  0
   17.7044   -8.8136  -17.0129 C   0  0  0  0  0  0  0  0  0  0  0  0
   17.6158   -9.4968  -18.3573 C   0  0  0  0  0  0  0  0  0  0  0  0
   16.3987   -9.0148  -19.0428 C   0  0  0  0  0  0  0  0  0  0  0  0
   15.8057   -8.0030  -18.6042 O   0  0  0  0  0  0  0  0  0  0  0  0
   19.3651   -8.4641  -15.1875 C   0  0  0  0  0  0  0  0  0  0  0  0
   18.8777   -8.6962  -14.0409 O   0  0  0  0  0  0  0  0  0  0  0  0
   15.9003   -9.6541  -20.1553 O   0  0  0  0  0  0  0  0  0  0  0  0
   20.2737   -7.4147  -15.3356 N   0  0  0  0  0  0  0  0  0  0  0  0
   20.6364   -6.4977  -14.2310 C   0  0  1  0  0  0  0  0  0  0  0  0
   21.9520   -5.9021  -14.6710 C   0  0  0  0  0  0  0  0  0  0  0  0
   22.4962   -4.8627  -13.7889 C   0  0  0  0  0  0  0  0  0  0  0  0
   22.5992   -5.0105  -12.5571 O   0  0  0  0  0  0  0  0  0  0  0  0
   19.5662   -5.4816  -14.0896 C   0  0  0  0  0  0  0  0  0  0  0  0
   19.2975   -4.9937  -12.9619 O   0  0  0  0  0  0  0  0  0  0  0  0
   22.9329   -3.6359  -14.2961 O   0  0  0  0  0  0  0  0  0  0  0  0
   18.8424   -5.0424  -15.1667 O   0  0  0  0  0  0  0  0  0  0  0  0
  1  2  1  0
  3  2  1  0
  4  3  1  0
  4  5  1  0
  5  1  1  0
  6  8  1  0
  5  6  1  6
  7  6  2  0
  9  8  1  0
  9 14  1  0
  9 10  1  1
 11 10  1  0
 12 11  1  0
 13 12  2  0
 14 17  1  0
 15 14  2  0
 16 12  1  0
 17 18  1  0
 18 19  1  6
 18 22  1  0
 20 19  1  0
 21 20  2  0
 22 25  1  0
 23 22  2  0
 24 20  1  0
M  END
$$$$
