PED.pdb
     RDKit          3D

 25 25  0  0  1  0  0  0  0  0999 V2000
   25.6789  -11.4804  -16.3171 N   0  0  0  0  0  0  0  0  0  0  0  0
   25.6837  -12.7758  -15.6648 C   0  0  0  0  0  0  0  0  0  0  0  0
   25.3655  -13.7807  -16.7774 C   0  0  0  0  0  0  0  0  0  0  0  0
   24.2965  -12.9786  -17.5323 C   0  0  0  0  0  0  0  0  0  0  0  0
   24.8952  -11.6026  -17.5103 C   0  0  1  0  0  0  0  0  0  0  0  0
   23.8798  -10.5316  -17.5279 C   0  0  0  0  0  0  0  0  0  0  0  0
   23.7155   -9.7958  -18.5590 O   0  0  0  0  0  0  0  0  0  0  0  0
   23.0228  -10.2355  -16.4309 N   0  0  0  0  0  0  0  0  0  0  0  0
   21.9274   -9.2626  -16.5527 C   0  0  1  0  0  0  0  0  0  0  0  0
   20.6455   -9.9729  -16.1886 C   0  0  0  0  0  0  0  0  0  0  0  0
   19.4929   -9.0751  -16.5729 C   0  0  0  0  0  0  0  0  0  0  0  0
   18.2331   -9.7585  -16.2131 C   0  0  0  0  0  0  0  0  0  0  0  0
   17.1404   -9.1847  -16.4238 O   0  0  0  0  0  0  0  0  0  0  0  0
   22.1868   -8.0727  -15.7136 C   0  0  0  0  0  0  0  0  0  0  0  0
   22.7671   -8.2386  -14.5993 O   0  0  0  0  0  0  0  0  0  0  0  0
   18.2331  -11.0146  -15.6501 O   0  0  0  0  0  0  0  0  0  0  0  0
   21.8198   -6.7821  -16.0987 N   0  0  0  0  0  0  0  0  0  0  0  0
   22.2631   -5.5668  -15.3780 C   0  0  1  0  0  0  0  0  0  0  0  0
   22.1669   -4.4744  -16.4155 C   0  0  0  0  0  0  0  0  0  0  0  0
   23.3210   -4.3605  -17.3153 C   0  0  0  0  0  0  0  0  0  0  0  0
   24.4658   -4.7279  -16.9925 O   0  0  0  0  0  0  0  0  0  0  0  0
   21.3574   -5.3439  -14.2257 C   0  0  0  0  0  0  0  0  0  0  0  0
   20.2429   -5.9243  -14.1712 O   0  0  0  0  0  0  0  0  0  0  0  0
   23.1900   -3.8254  -18.5996 O   0  0  0  0  0  0  0  0  0  0  0  0
   21.6971   -4.5106  -13.1926 O   0  0  0  0  0  0  0  0  0  0  0  0
  1  2  1  0
  3  2  1  0
  4  3  1  0
  4  5  1  0
  5  1  1  0
  6  8  1  0
  5  6  1  1
  7  6  2  0
  9  8  1  0
  9 14  1  0
  9 10  1  1
 11 10  1  0
 12 11  1  0
 13 12  2  0
 14 17  1  0
 15 14  2  0
 16 12  1  0
 17 18  1  0
 18 19  1  6
 18 22  1  0
 20 19  1  0
 21 20  2  0
 22 25  1  0
 23 22  2  0
 24 20  1  0
M  END
$$$$
