PED.pdb
     RDKit          3D

 25 25  0  0  1  0  0  0  0  0999 V2000
   14.1944   -8.9529  -11.1474 N   0  0  0  0  0  0  0  0  0  0  0  0
   13.3948   -9.7436  -10.2315 C   0  0  0  0  0  0  0  0  0  0  0  0
   13.7061   -9.1760   -8.8423 C   0  0  0  0  0  0  0  0  0  0  0  0
   15.2152   -8.9473   -9.0048 C   0  0  0  0  0  0  0  0  0  0  0  0
   15.2770   -8.3894  -10.3966 C   0  0  1  0  0  0  0  0  0  0  0  0
   16.5466   -8.6949  -11.0845 C   0  0  0  0  0  0  0  0  0  0  0  0
   17.6647   -8.2976  -10.6118 O   0  0  0  0  0  0  0  0  0  0  0  0
   16.6315   -9.4359  -12.2967 N   0  0  0  0  0  0  0  0  0  0  0  0
   17.9170   -9.6522  -12.9762 C   0  0  1  0  0  0  0  0  0  0  0  0
   17.7038  -10.7185  -14.0242 C   0  0  0  0  0  0  0  0  0  0  0  0
   19.0221  -10.9500  -14.7247 C   0  0  0  0  0  0  0  0  0  0  0  0
   18.8331  -12.0202  -15.7261 C   0  0  0  0  0  0  0  0  0  0  0  0
   18.9995  -13.2144  -15.3887 O   0  0  0  0  0  0  0  0  0  0  0  0
   18.4334   -8.3854  -13.5380 C   0  0  0  0  0  0  0  0  0  0  0  0
   17.6117   -7.5945  -14.0906 O   0  0  0  0  0  0  0  0  0  0  0  0
   18.4776  -11.7337  -17.0247 O   0  0  0  0  0  0  0  0  0  0  0  0
   19.7819   -8.0288  -13.4836 N   0  0  0  0  0  0  0  0  0  0  0  0
   20.3157   -6.7900  -14.0944 C   0  0  1  0  0  0  0  0  0  0  0  0
   21.1963   -6.2045  -13.0171 C   0  0  0  0  0  0  0  0  0  0  0  0
   21.8517   -4.9374  -13.3626 C   0  0  0  0  0  0  0  0  0  0  0  0
   23.0743   -4.8485  -13.5800 O   0  0  0  0  0  0  0  0  0  0  0  0
   21.0711   -7.1534  -15.3172 C   0  0  0  0  0  0  0  0  0  0  0  0
   21.6036   -8.2881  -15.4220 O   0  0  0  0  0  0  0  0  0  0  0  0
   21.1243   -3.7487  -13.4666 O   0  0  0  0  0  0  0  0  0  0  0  0
   21.2135   -6.2797  -16.3628 O   0  0  0  0  0  0  0  0  0  0  0  0
  1  2  1  0
  3  2  1  0
  4  3  1  0
  4  5  1  0
  5  1  1  0
  6  8  1  0
  5  6  1  6
  7  6  2  0
  9  8  1  0
  9 14  1  0
  9 10  1  6
 11 10  1  0
 12 11  1  0
 13 12  2  0
 14 17  1  0
 15 14  2  0
 16 12  1  0
 17 18  1  0
 18 19  1  1
 18 22  1  0
 20 19  1  0
 21 20  2  0
 22 25  1  0
 23 22  2  0
 24 20  1  0
M  END
$$$$
