PED.pdb
     RDKit          3D

 25 25  0  0  1  0  0  0  0  0999 V2000
   19.6907  -10.3649  -19.5196 N   0  0  0  0  0  0  0  0  0  0  0  0
   19.9667  -11.3658  -20.5323 C   0  0  0  0  0  0  0  0  0  0  0  0
   19.0028  -11.0447  -21.6797 C   0  0  0  0  0  0  0  0  0  0  0  0
   17.7573  -10.6841  -20.8584 C   0  0  0  0  0  0  0  0  0  0  0  0
   18.3638   -9.8753  -19.7494 C   0  0  1  0  0  0  0  0  0  0  0  0
   17.5985   -9.9580  -18.4901 C   0  0  0  0  0  0  0  0  0  0  0  0
   16.4066   -9.5055  -18.4121 O   0  0  0  0  0  0  0  0  0  0  0  0
   18.1072  -10.5315  -17.2910 N   0  0  0  0  0  0  0  0  0  0  0  0
   17.2840  -10.6297  -16.0770 C   0  0  1  0  0  0  0  0  0  0  0  0
   17.4516  -12.0254  -15.5253 C   0  0  0  0  0  0  0  0  0  0  0  0
   16.5378  -12.1643  -14.3304 C   0  0  0  0  0  0  0  0  0  0  0  0
   15.7919  -13.4332  -14.4623 C   0  0  0  0  0  0  0  0  0  0  0  0
   15.9792  -14.1548  -15.4682 O   0  0  0  0  0  0  0  0  0  0  0  0
   17.6530   -9.5768  -15.1062 C   0  0  0  0  0  0  0  0  0  0  0  0
   16.9953   -9.4991  -14.0256 O   0  0  0  0  0  0  0  0  0  0  0  0
   14.8936  -13.8412  -13.5025 O   0  0  0  0  0  0  0  0  0  0  0  0
   18.6908   -8.6709  -15.3320 N   0  0  0  0  0  0  0  0  0  0  0  0
   19.0411   -7.5900  -14.3824 C   0  0  1  0  0  0  0  0  0  0  0  0
   20.5507   -7.5894  -14.3743 C   0  0  0  0  0  0  0  0  0  0  0  0
   21.1735   -6.4810  -13.6407 C   0  0  0  0  0  0  0  0  0  0  0  0
   20.5333   -5.7337  -12.8782 O   0  0  0  0  0  0  0  0  0  0  0  0
   18.4703   -6.3170  -14.8839 C   0  0  0  0  0  0  0  0  0  0  0  0
   18.1359   -6.2018  -16.0909 O   0  0  0  0  0  0  0  0  0  0  0  0
   22.5380   -6.2051  -13.7636 O   0  0  0  0  0  0  0  0  0  0  0  0
   18.2879   -5.2358  -14.0624 O   0  0  0  0  0  0  0  0  0  0  0  0
  1  2  1  0
  3  2  1  0
  4  3  1  0
  4  5  1  0
  5  1  1  0
  6  8  1  0
  5  6  1  1
  7  6  2  0
  9  8  1  0
  9 14  1  0
  9 10  1  1
 11 10  1  0
 12 11  1  0
 13 12  2  0
 14 17  1  0
 15 14  2  0
 16 12  1  0
 17 18  1  0
 18 19  1  6
 18 22  1  0
 20 19  1  0
 21 20  2  0
 22 25  1  0
 23 22  2  0
 24 20  1  0
M  END
$$$$
