RAK.pdb
     RDKit          3D

 26 25  0  0  1  0  0  0  0  0999 V2000
   25.8504  -19.3033   -8.9482 N   0  0  0  0  0  0  0  0  0  0  0  0
   25.0968  -20.4970   -9.0179 C   0  0  0  0  0  0  0  0  0  0  0  0
   24.0142  -20.6712   -8.2987 N   0  0  0  0  0  0  0  0  0  0  0  0
   25.5427  -21.5216   -9.8963 N   0  0  0  0  0  0  0  0  0  0  0  0
   26.0916  -21.2257  -11.1768 C   0  0  0  0  0  0  0  0  0  0  0  0
   25.0452  -21.1285  -12.2660 C   0  0  0  0  0  0  0  0  0  0  0  0
   25.6698  -20.3471  -13.4108 C   0  0  0  0  0  0  0  0  0  0  0  0
   24.8640  -19.0975  -13.7181 C   0  0  2  0  0  0  0  0  0  0  0  0
   23.4580  -19.3490  -13.7111 N   0  0  0  0  0  0  0  0  0  0  0  0
   25.2561  -18.5099  -15.0168 C   0  0  0  0  0  0  0  0  0  0  0  0
   24.9439  -19.1305  -16.0887 O   0  0  0  0  0  0  0  0  0  0  0  0
   23.4809  -21.5589   -8.3376 C   0  0  0  0  0  0  0  0  0  0  0  0
   27.3843  -15.5582  -16.0626 C   0  0  1  0  0  0  0  0  0  0  0  0
   26.6841  -16.8898  -16.2658 N   0  0  0  0  0  0  0  0  0  0  0  0
   25.9593  -17.2905  -15.0707 C   0  0  0  0  0  0  0  0  0  0  0  0
   27.7144  -17.9024  -16.5858 O   0  0  0  0  0  0  0  0  0  0  0  0
   28.3905  -18.4149  -15.6590 N   0  0  0  0  0  0  0  0  0  0  0  0
   27.9368  -18.2890  -17.9190 C   0  0  1  0  0  0  0  0  0  0  0  0
   28.8180  -19.5062  -18.1588 C   0  0  0  0  0  0  0  0  0  0  0  0
   27.9584  -20.6361  -17.7677 C   0  0  0  0  0  0  0  0  0  0  0  0
   28.3148  -22.0354  -17.8430 C   0  0  0  0  0  0  0  0  0  0  0  0
   27.3728  -23.1237  -17.5031 C   0  0  0  0  0  0  0  0  0  0  0  0
   28.1330  -24.4938  -17.5729 N   0  0  0  0  0  0  0  0  0  0  0  0
   27.2267  -25.5334  -17.1245 C   0  0  0  0  0  0  0  0  0  0  0  0
   29.1628  -19.4262  -19.6062 O   0  0  0  0  0  0  0  0  0  0  0  0
   30.2512  -19.7527  -20.0855 O   0  0  0  0  0  0  0  0  0  0  0  0
  1  2  1  0
  2  4  1  0
  3  2  2  0
  5  4  1  0
  5  6  1  0
  6  7  1  0
  7  8  1  0
  8 10  1  0
  8  9  1  6
 10 11  2  0
 13 12  1  6
 13 15  1  0
 14 10  1  0
 14 13  1  0
 15 17  1  0
 15 16  2  0
 17 18  1  0
 18 24  1  0
 18 19  1  6
 20 19  1  0
 21 20  1  0
 22 23  1  0
 22 21  1  0
 24 25  2  0
 24 26  1  0
M  END
$$$$
