RAK.pdb
     RDKit          3D

 26 25  0  0  1  0  0  0  0  0999 V2000
   22.8617  -20.3018  -17.2732 N   0  0  0  0  0  0  0  0  0  0  0  0
   22.0254  -19.3098  -17.8341 C   0  0  0  0  0  0  0  0  0  0  0  0
   21.7625  -19.2761  -19.1183 N   0  0  0  0  0  0  0  0  0  0  0  0
   21.4667  -18.3337  -16.9652 N   0  0  0  0  0  0  0  0  0  0  0  0
   21.6894  -18.3656  -15.5588 C   0  0  0  0  0  0  0  0  0  0  0  0
   20.6890  -19.2249  -14.8161 C   0  0  0  0  0  0  0  0  0  0  0  0
   21.0094  -19.0972  -13.3355 C   0  0  0  0  0  0  0  0  0  0  0  0
   21.2358  -20.4618  -12.7096 C   0  0  2  0  0  0  0  0  0  0  0  0
   21.8438  -21.3776  -13.6216 N   0  0  0  0  0  0  0  0  0  0  0  0
   19.9729  -21.0359  -12.1985 C   0  0  0  0  0  0  0  0  0  0  0  0
   19.2447  -20.3240  -11.4274 O   0  0  0  0  0  0  0  0  0  0  0  0
   21.2027  -18.5082  -19.5317 C   0  0  0  0  0  0  0  0  0  0  0  0
   17.5541  -23.6016  -13.1195 C   0  0  2  0  0  0  0  0  0  0  0  0
   18.3653  -22.9355  -12.0228 N   0  0  0  0  0  0  0  0  0  0  0  0
   19.5807  -22.3410  -12.5550 C   0  0  0  0  0  0  0  0  0  0  0  0
   18.7133  -23.9682  -11.0220 O   0  0  0  0  0  0  0  0  0  0  0  0
   19.8368  -24.5286  -11.0728 N   0  0  0  0  0  0  0  0  0  0  0  0
   17.7926  -24.3217  -10.0201 C   0  0  1  0  0  0  0  0  0  0  0  0
   18.2574  -25.3046   -8.9555 C   0  0  0  0  0  0  0  0  0  0  0  0
   17.4934  -24.9058   -7.7614 C   0  0  0  0  0  0  0  0  0  0  0  0
   17.3848  -25.6637   -6.5348 C   0  0  0  0  0  0  0  0  0  0  0  0
   16.6581  -25.1680   -5.3459 C   0  0  0  0  0  0  0  0  0  0  0  0
   16.7210  -26.2590   -4.2208 N   0  0  0  0  0  0  0  0  0  0  0  0
   16.1018  -25.7113   -3.0292 C   0  0  0  0  0  0  0  0  0  0  0  0
   17.9207  -26.6409   -9.5225 O   0  0  0  0  0  0  0  0  0  0  0  0
   17.0666  -26.8379  -10.3900 O   0  0  0  0  0  0  0  0  0  0  0  0
  1  2  1  0
  2  4  1  0
  3  2  2  0
  5  4  1  0
  5  6  1  0
  6  7  1  0
  7  8  1  0
  8 10  1  0
  8  9  1  6
 10 11  2  0
 13 12  1  6
 13 15  1  0
 14 10  1  0
 14 13  1  0
 15 17  1  0
 15 16  2  0
 17 18  1  0
 18 24  1  0
 18 19  1  6
 20 19  1  0
 21 20  1  0
 22 23  1  0
 22 21  1  0
 24 25  2  0
 24 26  1  0
M  END
$$$$
