RAK.pdb
     RDKit          3D

 26 25  0  0  1  0  0  0  0  0999 V2000
   26.0700  -23.7892  -17.5830 N   0  0  0  0  0  0  0  0  0  0  0  0
   26.1219  -24.9728  -16.8123 C   0  0  0  0  0  0  0  0  0  0  0  0
   26.8869  -25.9825  -17.1512 N   0  0  0  0  0  0  0  0  0  0  0  0
   25.3154  -25.0489  -15.6445 N   0  0  0  0  0  0  0  0  0  0  0  0
   24.5263  -23.9479  -15.2046 C   0  0  0  0  0  0  0  0  0  0  0  0
   25.1517  -22.6047  -15.5141 C   0  0  0  0  0  0  0  0  0  0  0  0
   24.2013  -21.5421  -14.9860 C   0  0  0  0  0  0  0  0  0  0  0  0
   24.7511  -20.1493  -15.2372 C   0  0  2  0  0  0  0  0  0  0  0  0
   25.7393  -19.7795  -14.2744 N   0  0  0  0  0  0  0  0  0  0  0  0
   23.6716  -19.1392  -15.2528 C   0  0  0  0  0  0  0  0  0  0  0  0
   22.9165  -19.0343  -14.2280 O   0  0  0  0  0  0  0  0  0  0  0  0
   26.9420  -26.8350  -16.5645 C   0  0  0  0  0  0  0  0  0  0  0  0
   22.5313  -16.4163  -17.6122 C   0  0  1  0  0  0  0  0  0  0  0  0
   22.3812  -17.3593  -16.4320 N   0  0  0  0  0  0  0  0  0  0  0  0
   23.4804  -18.3094  -16.3749 C   0  0  0  0  0  0  0  0  0  0  0  0
   21.1024  -18.0866  -16.5895 O   0  0  0  0  0  0  0  0  0  0  0  0
   21.1035  -19.2481  -17.0687 N   0  0  0  0  0  0  0  0  0  0  0  0
   19.8924  -17.4821  -16.2060 C   0  0  1  0  0  0  0  0  0  0  0  0
   18.6148  -18.2859  -16.3985 C   0  0  0  0  0  0  0  0  0  0  0  0
   18.7391  -19.3719  -15.4117 C   0  0  0  0  0  0  0  0  0  0  0  0
   17.7105  -20.3310  -15.0756 C   0  0  0  0  0  0  0  0  0  0  0  0
   17.8917  -21.3747  -14.0436 C   0  0  0  0  0  0  0  0  0  0  0  0
   16.5919  -22.2497  -13.9725 N   0  0  0  0  0  0  0  0  0  0  0  0
   16.7539  -23.2075  -12.8955 C   0  0  0  0  0  0  0  0  0  0  0  0
   17.5246  -17.3024  -16.1443 O   0  0  0  0  0  0  0  0  0  0  0  0
   16.3233  -17.5334  -16.3008 O   0  0  0  0  0  0  0  0  0  0  0  0
  1  2  1  0
  2  4  1  0
  3  2  2  0
  5  4  1  0
  5  6  1  0
  6  7  1  0
  7  8  1  0
  8 10  1  0
  8  9  1  1
 10 11  2  0
 13 12  1  1
 13 15  1  0
 14 10  1  0
 14 13  1  0
 15 17  1  0
 15 16  2  0
 17 18  1  0
 18 24  1  0
 18 19  1  6
 20 19  1  0
 21 20  1  0
 22 23  1  0
 22 21  1  0
 24 25  2  0
 24 26  1  0
M  END
$$$$
