RAK.pdb
     RDKit          3D

 26 25  0  0  1  0  0  0  0  0999 V2000
   29.2864  -20.8705  -12.2991 N   0  0  0  0  0  0  0  0  0  0  0  0
   29.0150  -21.2938  -10.9781 C   0  0  0  0  0  0  0  0  0  0  0  0
   29.8795  -21.1192  -10.0076 N   0  0  0  0  0  0  0  0  0  0  0  0
   27.7674  -21.9230  -10.7181 N   0  0  0  0  0  0  0  0  0  0  0  0
   26.6406  -21.7349  -11.5686 C   0  0  0  0  0  0  0  0  0  0  0  0
   26.1494  -20.3036  -11.5998 C   0  0  0  0  0  0  0  0  0  0  0  0
   24.9297  -20.2743  -12.5067 C   0  0  0  0  0  0  0  0  0  0  0  0
   25.2362  -20.9138  -13.8492 C   0  0  2  0  0  0  0  0  0  0  0  0
   26.2987  -20.2472  -14.5325 N   0  0  0  0  0  0  0  0  0  0  0  0
   24.0375  -20.9517  -14.7137 C   0  0  0  0  0  0  0  0  0  0  0  0
   23.2910  -19.9167  -14.7709 O   0  0  0  0  0  0  0  0  0  0  0  0
   29.7052  -21.4979   -9.0588 C   0  0  0  0  0  0  0  0  0  0  0  0
   22.7769  -23.2776  -17.3936 C   0  0  1  0  0  0  0  0  0  0  0  0
   22.6530  -22.1019  -16.4412 N   0  0  0  0  0  0  0  0  0  0  0  0
   23.7254  -22.1054  -15.4593 C   0  0  0  0  0  0  0  0  0  0  0  0
   21.3477  -22.2086  -15.7528 O   0  0  0  0  0  0  0  0  0  0  0  0
   21.3060  -22.5882  -14.5558 N   0  0  0  0  0  0  0  0  0  0  0  0
   20.1602  -21.8879  -16.4336 C   0  0  1  0  0  0  0  0  0  0  0  0
   18.8618  -21.9396  -15.6418 C   0  0  0  0  0  0  0  0  0  0  0  0
   18.1156  -20.7663  -16.1267 C   0  0  0  0  0  0  0  0  0  0  0  0
   16.7902  -20.3728  -15.7034 C   0  0  0  0  0  0  0  0  0  0  0  0
   16.0941  -19.1849  -16.2433 C   0  0  0  0  0  0  0  0  0  0  0  0
   14.6924  -19.0592  -15.5507 N   0  0  0  0  0  0  0  0  0  0  0  0
   14.1259  -17.7744  -15.9137 C   0  0  0  0  0  0  0  0  0  0  0  0
   18.2775  -23.2661  -15.9877 O   0  0  0  0  0  0  0  0  0  0  0  0
   18.6068  -23.9424  -16.9649 O   0  0  0  0  0  0  0  0  0  0  0  0
  1  2  1  0
  2  4  1  0
  3  2  2  0
  5  4  1  0
  5  6  1  0
  6  7  1  0
  7  8  1  0
  8 10  1  0
  8  9  1  6
 10 11  2  0
 13 12  1  6
 13 15  1  0
 14 10  1  0
 14 13  1  0
 15 17  1  0
 15 16  2  0
 17 18  1  0
 18 24  1  0
 18 19  1  1
 20 19  1  0
 21 20  1  0
 22 23  1  0
 22 21  1  0
 24 25  2  0
 24 26  1  0
M  END
$$$$
