RAK.pdb
     RDKit          3D

 26 25  0  0  1  0  0  0  0  0999 V2000
   46.4620   -9.8497   -7.4652 N   0  0  0  0  0  0  0  0  0  0  0  0
   45.6447  -10.9472   -7.1113 C   0  0  0  0  0  0  0  0  0  0  0  0
   45.5771  -11.3860   -5.8774 N   0  0  0  0  0  0  0  0  0  0  0  0
   44.8860  -11.5764   -8.1352 N   0  0  0  0  0  0  0  0  0  0  0  0
   43.6865  -10.9996   -8.6422 C   0  0  0  0  0  0  0  0  0  0  0  0
   42.5504  -11.9929   -8.7593 C   0  0  0  0  0  0  0  0  0  0  0  0
   41.3978  -11.2688   -9.4362 C   0  0  0  0  0  0  0  0  0  0  0  0
   40.8699  -10.1486   -8.5578 C   0  0  2  0  0  0  0  0  0  0  0  0
   40.4173  -10.6270   -7.2903 N   0  0  0  0  0  0  0  0  0  0  0  0
   39.7789   -9.4084   -9.2268 C   0  0  0  0  0  0  0  0  0  0  0  0
   38.6969  -10.0290   -9.5016 O   0  0  0  0  0  0  0  0  0  0  0  0
   44.9252  -12.1471   -5.6132 C   0  0  0  0  0  0  0  0  0  0  0  0
   39.1178   -5.8147  -10.1661 C   0  0  2  0  0  0  0  0  0  0  0  0
   38.8733   -7.3117  -10.2304 N   0  0  0  0  0  0  0  0  0  0  0  0
   39.9298   -8.0466   -9.5539 C   0  0  0  0  0  0  0  0  0  0  0  0
   38.8274   -7.7051  -11.6559 O   0  0  0  0  0  0  0  0  0  0  0  0
   39.8640   -8.1470  -12.2119 N   0  0  0  0  0  0  0  0  0  0  0  0
   37.6316   -7.5851  -12.3853 C   0  0  1  0  0  0  0  0  0  0  0  0
   37.6556   -8.0089  -13.8466 C   0  0  0  0  0  0  0  0  0  0  0  0
   36.2317   -8.1887  -14.1766 C   0  0  0  0  0  0  0  0  0  0  0  0
   35.7065   -8.6028  -15.4584 C   0  0  0  0  0  0  0  0  0  0  0  0
   34.2579   -8.7136  -15.7352 C   0  0  0  0  0  0  0  0  0  0  0  0
   34.0579   -9.1429  -17.2305 N   0  0  0  0  0  0  0  0  0  0  0  0
   32.6332   -9.1850  -17.4987 C   0  0  0  0  0  0  0  0  0  0  0  0
   38.3434   -6.8837  -14.5403 O   0  0  0  0  0  0  0  0  0  0  0  0
   39.0484   -7.0071  -15.5446 O   0  0  0  0  0  0  0  0  0  0  0  0
  1  2  1  0
  2  4  1  0
  3  2  2  0
  5  4  1  0
  5  6  1  0
  6  7  1  0
  7  8  1  0
  8 10  1  0
  8  9  1  1
 10 11  2  0
 13 12  1  1
 13 15  1  0
 14 10  1  0
 14 13  1  0
 15 17  1  0
 15 16  2  0
 17 18  1  0
 18 24  1  0
 18 19  1  6
 20 19  1  0
 21 20  1  0
 22 23  1  0
 22 21  1  0
 24 25  2  0
 24 26  1  0
M  END
$$$$
