RAK.pdb
     RDKit          3D

 26 25  0  0  1  0  0  0  0  0999 V2000
   19.7945  -24.8871  -11.6068 N   0  0  0  0  0  0  0  0  0  0  0  0
   18.8309  -23.9284  -11.9944 C   0  0  0  0  0  0  0  0  0  0  0  0
   19.0285  -23.1260  -13.0126 N   0  0  0  0  0  0  0  0  0  0  0  0
   17.6248  -23.8493  -11.2468 N   0  0  0  0  0  0  0  0  0  0  0  0
   17.4466  -24.5704  -10.0316 C   0  0  0  0  0  0  0  0  0  0  0  0
   17.8981  -23.7999   -8.8095 C   0  0  0  0  0  0  0  0  0  0  0  0
   17.5180  -24.6331   -7.5961 C   0  0  0  0  0  0  0  0  0  0  0  0
   18.6450  -25.5742   -7.2094 C   0  0  2  0  0  0  0  0  0  0  0  0
   19.0325  -26.4223   -8.2914 N   0  0  0  0  0  0  0  0  0  0  0  0
   18.2793  -26.3997   -6.0387 C   0  0  0  0  0  0  0  0  0  0  0  0
   17.5544  -27.4353   -6.2223 O   0  0  0  0  0  0  0  0  0  0  0  0
   18.3166  -22.4261  -13.2906 C   0  0  0  0  0  0  0  0  0  0  0  0
   19.2984  -26.5595   -2.4184 C   0  0  1  0  0  0  0  0  0  0  0  0
   18.3797  -26.8606   -3.5890 N   0  0  0  0  0  0  0  0  0  0  0  0
   18.7217  -26.0513   -4.7475 C   0  0  0  0  0  0  0  0  0  0  0  0
   16.9926  -26.5652   -3.1674 O   0  0  0  0  0  0  0  0  0  0  0  0
   16.5064  -25.4272   -3.3850 N   0  0  0  0  0  0  0  0  0  0  0  0
   16.2224  -27.5513   -2.5264 C   0  0  1  0  0  0  0  0  0  0  0  0
   14.7875  -27.1959   -2.1653 C   0  0  0  0  0  0  0  0  0  0  0  0
   14.0877  -28.4905   -2.2203 C   0  0  0  0  0  0  0  0  0  0  0  0
   12.7425  -28.7047   -2.7051 C   0  0  0  0  0  0  0  0  0  0  0  0
   12.1048  -30.0386   -2.7421 C   0  0  0  0  0  0  0  0  0  0  0  0
   10.7213  -29.9201   -3.4716 N   0  0  0  0  0  0  0  0  0  0  0  0
   10.0696  -31.2143   -3.4110 C   0  0  0  0  0  0  0  0  0  0  0  0
   14.8954  -26.5757   -0.8147 O   0  0  0  0  0  0  0  0  0  0  0  0
   15.8588  -26.7120   -0.0570 O   0  0  0  0  0  0  0  0  0  0  0  0
  1  2  1  0
  2  4  1  0
  3  2  2  0
  5  4  1  0
  5  6  1  0
  6  7  1  0
  7  8  1  0
  8 10  1  0
  8  9  1  6
 10 11  2  0
 13 12  1  6
 13 15  1  0
 14 10  1  0
 14 13  1  0
 15 17  1  0
 15 16  2  0
 17 18  1  0
 18 24  1  0
 18 19  1  1
 20 19  1  0
 21 20  1  0
 22 23  1  0
 22 21  1  0
 24 25  2  0
 24 26  1  0
M  END
$$$$
