WWS.pdb
     RDKit          3D

 35 38  0  0  1  0  0  0  0  0999 V2000
   10.2312  -17.9428   21.1082 N   0  0  0  0  0  0  0  0  0  0  0  0
    9.6696  -16.9993   22.0162 C   0  0  1  0  0  0  0  0  0  0  0  0
    8.1762  -17.1848   22.1184 C   0  0  0  0  0  0  0  0  0  0  0  0
    7.5225  -16.1558   21.2626 C   0  0  0  0  0  0  0  0  0  0  0  0
    6.4651  -16.4011   20.3708 C   0  0  0  0  0  0  0  0  0  0  0  0
    6.0890  -15.2595   19.7987 N   0  0  0  0  0  0  0  0  0  0  0  0
    6.8604  -14.2648   20.2787 C   0  0  0  0  0  0  0  0  0  0  0  0
    6.8915  -12.9047   20.0132 C   0  0  0  0  0  0  0  0  0  0  0  0
    7.8127  -12.1388   20.6618 C   0  0  0  0  0  0  0  0  0  0  0  0
    8.7127  -12.6538   21.5672 C   0  0  0  0  0  0  0  0  0  0  0  0
    8.6805  -13.9994   21.8294 C   0  0  0  0  0  0  0  0  0  0  0  0
    7.7644  -14.8170   21.1982 C   0  0  0  0  0  0  0  0  0  0  0  0
   10.3583  -16.9429   23.3166 C   0  0  0  0  0  0  0  0  0  0  0  0
   11.2969  -17.7514   23.5572 O   0  0  0  0  0  0  0  0  0  0  0  0
    9.9522  -15.9788   24.2696 N   0  0  0  0  0  0  0  0  0  0  0  0
   10.5919  -15.8391   25.5480 C   0  0  1  0  0  0  0  0  0  0  0  0
   10.0785  -14.6050   26.2589 C   0  0  0  0  0  0  0  0  0  0  0  0
    8.6233  -14.4265   26.0778 C   0  0  0  0  0  0  0  0  0  0  0  0
    7.7290  -15.4678   25.7964 C   0  0  0  0  0  0  0  0  0  0  0  0
    6.4950  -14.9696   25.7252 N   0  0  0  0  0  0  0  0  0  0  0  0
    6.5053  -13.6611   25.9402 C   0  0  0  0  0  0  0  0  0  0  0  0
    5.5073  -12.7108   25.9654 C   0  0  0  0  0  0  0  0  0  0  0  0
    5.7873  -11.3765   26.2101 C   0  0  0  0  0  0  0  0  0  0  0  0
    7.1025  -11.0422   26.4257 C   0  0  0  0  0  0  0  0  0  0  0  0
    8.1056  -12.0009   26.3999 C   0  0  0  0  0  0  0  0  0  0  0  0
    7.8298  -13.3102   26.1612 C   0  0  0  0  0  0  0  0  0  0  0  0
   10.4013  -17.0540   26.3719 C   0  0  0  0  0  0  0  0  0  0  0  0
   10.6045  -17.0779   27.6110 O   0  0  0  0  0  0  0  0  0  0  0  0
   10.0704  -20.9987   24.7071 O   0  0  0  0  0  0  0  0  0  0  0  0
    9.2376  -20.6231   25.7604 C   0  0  0  0  0  0  0  0  0  0  0  0
    9.8477  -19.4902   26.5661 C   0  0  2  0  0  0  0  0  0  0  0  0
    9.9651  -18.2853   25.7715 N   0  0  0  0  0  0  0  0  0  0  0  0
   11.1538  -19.8700   27.1173 C   0  0  0  0  0  0  0  0  0  0  0  0
   11.2438  -20.9443   27.9891 O   0  0  0  0  0  0  0  0  0  0  0  0
   12.2225  -19.2684   26.8423 O   0  0  0  0  0  0  0  0  0  0  0  0
  2  1  1  6
  3  2  1  0
  4  3  1  0
  5  4  2  0
  6  5  1  0
  7  6  1  0
  7 12  2  0
  8  7  1  0
  9  8  2  0
  9 10  1  0
 10 11  2  0
 11 12  1  0
 12  4  1  0
 13  2  1  0
 14 13  2  0
 15 13  1  0
 16 15  1  0
 16 27  1  0
 16 17  1  1
 18 17  1  0
 19 18  2  0
 20 19  1  0
 21 20  1  0
 21 26  2  0
 22 23  2  0
 22 21  1  0
 23 24  1  0
 24 25  2  0
 26 25  1  0
 26 18  1  0
 27 28  2  0
 30 29  1  0
 31 30  1  6
 32 27  1  0
 32 31  1  0
 33 34  1  0
 33 31  1  0
 35 33  2  0
M  END
$$$$
