WWS.pdb
     RDKit          3D

 35 38  0  0  1  0  0  0  0  0999 V2000
    7.7927  -18.5126   22.3400 N   0  0  0  0  0  0  0  0  0  0  0  0
    8.1612  -17.2124   21.8885 C   0  0  1  0  0  0  0  0  0  0  0  0
    6.9448  -16.4410   21.4414 C   0  0  0  0  0  0  0  0  0  0  0  0
    7.3875  -15.3995   20.4731 C   0  0  0  0  0  0  0  0  0  0  0  0
    7.5959  -15.6105   19.0999 C   0  0  0  0  0  0  0  0  0  0  0  0
    7.9437  -14.4642   18.5193 N   0  0  0  0  0  0  0  0  0  0  0  0
    7.9744  -13.4995   19.4591 C   0  0  0  0  0  0  0  0  0  0  0  0
    8.2789  -12.1489   19.3922 C   0  0  0  0  0  0  0  0  0  0  0  0
    8.2321  -11.4165   20.5399 C   0  0  0  0  0  0  0  0  0  0  0  0
    7.8968  -11.9563   21.7611 C   0  0  0  0  0  0  0  0  0  0  0  0
    7.5951  -13.2924   21.8257 C   0  0  0  0  0  0  0  0  0  0  0  0
    7.6273  -14.0763   20.6897 C   0  0  0  0  0  0  0  0  0  0  0  0
    9.0253  -16.4792   22.8290 C   0  0  0  0  0  0  0  0  0  0  0  0
    9.7253  -15.5175   22.4076 O   0  0  0  0  0  0  0  0  0  0  0  0
    9.0496  -16.8694   24.1890 N   0  0  0  0  0  0  0  0  0  0  0  0
    9.9493  -16.2854   25.1443 C   0  0  1  0  0  0  0  0  0  0  0  0
    9.2289  -16.0213   26.4494 C   0  0  0  0  0  0  0  0  0  0  0  0
    7.9523  -15.3074   26.2429 C   0  0  0  0  0  0  0  0  0  0  0  0
    6.7190  -15.9391   26.0347 C   0  0  0  0  0  0  0  0  0  0  0  0
    5.7723  -15.0089   25.9150 N   0  0  0  0  0  0  0  0  0  0  0  0
    6.2923  -13.7943   26.0291 C   0  0  0  0  0  0  0  0  0  0  0  0
    5.7399  -12.5328   25.9729 C   0  0  0  0  0  0  0  0  0  0  0  0
    6.5193  -11.3967   26.1169 C   0  0  0  0  0  0  0  0  0  0  0  0
    7.8659  -11.5826   26.3173 C   0  0  0  0  0  0  0  0  0  0  0  0
    8.4196  -12.8539   26.3736 C   0  0  0  0  0  0  0  0  0  0  0  0
    7.6540  -13.9681   26.2337 C   0  0  0  0  0  0  0  0  0  0  0  0
   11.1368  -17.1452   25.3487 C   0  0  0  0  0  0  0  0  0  0  0  0
   11.9954  -16.9240   26.2382 O   0  0  0  0  0  0  0  0  0  0  0  0
   12.2231  -20.1763   22.5912 O   0  0  0  0  0  0  0  0  0  0  0  0
   12.3732  -20.4518   23.9497 C   0  0  0  0  0  0  0  0  0  0  0  0
   12.4861  -19.1732   24.7605 C   0  0  2  0  0  0  0  0  0  0  0  0
   11.3599  -18.2963   24.5167 N   0  0  0  0  0  0  0  0  0  0  0  0
   13.7478  -18.4759   24.4849 C   0  0  0  0  0  0  0  0  0  0  0  0
   13.7223  -17.1646   24.0356 O   0  0  0  0  0  0  0  0  0  0  0  0
   14.8780  -19.0052   24.6341 O   0  0  0  0  0  0  0  0  0  0  0  0
  2  1  1  1
  3  2  1  0
  4  3  1  0
  5  4  2  0
  6  5  1  0
  7  6  1  0
  7 12  2  0
  8  7  1  0
  9  8  2  0
  9 10  1  0
 10 11  2  0
 11 12  1  0
 12  4  1  0
 13  2  1  0
 14 13  2  0
 15 13  1  0
 16 15  1  0
 16 27  1  0
 16 17  1  1
 18 17  1  0
 19 18  2  0
 20 19  1  0
 21 20  1  0
 21 26  2  0
 22 23  2  0
 22 21  1  0
 23 24  1  0
 24 25  2  0
 26 25  1  0
 26 18  1  0
 27 28  2  0
 30 29  1  0
 31 30  1  6
 32 27  1  0
 32 31  1  0
 33 34  1  0
 33 31  1  0
 35 33  2  0
M  END
$$$$
