WWS.pdb
     RDKit          3D

 35 38  0  0  1  0  0  0  0  0999 V2000
    7.4058  -16.3352   20.7828 N   0  0  0  0  0  0  0  0  0  0  0  0
    7.9061  -16.0961   22.0953 C   0  0  1  0  0  0  0  0  0  0  0  0
    7.1637  -16.9329   23.1070 C   0  0  0  0  0  0  0  0  0  0  0  0
    6.6802  -16.0303   24.1887 C   0  0  0  0  0  0  0  0  0  0  0  0
    6.0703  -16.4541   25.3811 C   0  0  0  0  0  0  0  0  0  0  0  0
    5.8017  -15.3980   26.1456 N   0  0  0  0  0  0  0  0  0  0  0  0
    6.2111  -14.2876   25.5022 C   0  0  0  0  0  0  0  0  0  0  0  0
    6.1617  -12.9454   25.8452 C   0  0  0  0  0  0  0  0  0  0  0  0
    6.6568  -12.0326   24.9634 C   0  0  0  0  0  0  0  0  0  0  0  0
    7.2027  -12.3824   23.7490 C   0  0  0  0  0  0  0  0  0  0  0  0
    7.2516  -13.7105   23.4112 C   0  0  0  0  0  0  0  0  0  0  0  0
    6.7637  -14.6733   24.2720 C   0  0  0  0  0  0  0  0  0  0  0  0
    9.3721  -16.1889   22.1989 C   0  0  0  0  0  0  0  0  0  0  0  0
   10.0351  -16.6451   21.2269 O   0  0  0  0  0  0  0  0  0  0  0  0
   10.0068  -15.7609   23.3891 N   0  0  0  0  0  0  0  0  0  0  0  0
   11.4333  -15.6381   23.5028 C   0  0  1  0  0  0  0  0  0  0  0  0
   11.7981  -14.9452   24.7985 C   0  0  0  0  0  0  0  0  0  0  0  0
   11.1243  -15.5564   25.9624 C   0  0  0  0  0  0  0  0  0  0  0  0
   10.6903  -16.8877   26.0142 C   0  0  0  0  0  0  0  0  0  0  0  0
   10.1541  -17.1207   27.2117 N   0  0  0  0  0  0  0  0  0  0  0  0
   10.2004  -16.0306   27.9655 C   0  0  0  0  0  0  0  0  0  0  0  0
    9.7779  -15.7646   29.2502 C   0  0  0  0  0  0  0  0  0  0  0  0
    9.9383  -14.5113   29.8178 C   0  0  0  0  0  0  0  0  0  0  0  0
   10.5359  -13.5456   29.0442 C   0  0  0  0  0  0  0  0  0  0  0  0
   10.9605  -13.8159   27.7509 C   0  0  0  0  0  0  0  0  0  0  0  0
   10.8041  -15.0463   27.1952 C   0  0  0  0  0  0  0  0  0  0  0  0
   12.0895  -16.9606   23.3957 C   0  0  0  0  0  0  0  0  0  0  0  0
   11.6061  -18.0058   23.8969 O   0  0  0  0  0  0  0  0  0  0  0  0
   15.2804  -17.4291   20.7880 O   0  0  0  0  0  0  0  0  0  0  0  0
   14.5442  -18.5597   21.1400 C   0  0  0  0  0  0  0  0  0  0  0  0
   13.9374  -18.4113   22.5238 C   0  0  2  0  0  0  0  0  0  0  0  0
   13.3372  -17.1048   22.6961 N   0  0  0  0  0  0  0  0  0  0  0  0
   14.9331  -18.6604   23.5729 C   0  0  0  0  0  0  0  0  0  0  0  0
   15.5942  -19.8783   23.6153 O   0  0  0  0  0  0  0  0  0  0  0  0
   15.2320  -17.8188   24.4572 O   0  0  0  0  0  0  0  0  0  0  0  0
  2  1  1  6
  3  2  1  0
  4  3  1  0
  5  4  2  0
  6  5  1  0
  7  6  1  0
  7 12  2  0
  8  7  1  0
  9  8  2  0
  9 10  1  0
 10 11  2  0
 11 12  1  0
 12  4  1  0
 13  2  1  0
 14 13  2  0
 15 13  1  0
 16 15  1  0
 16 27  1  0
 16 17  1  1
 18 17  1  0
 19 18  2  0
 20 19  1  0
 21 20  1  0
 21 26  2  0
 22 23  2  0
 22 21  1  0
 23 24  1  0
 24 25  2  0
 26 25  1  0
 26 18  1  0
 27 28  2  0
 30 29  1  0
 31 30  1  6
 32 27  1  0
 32 31  1  0
 33 34  1  0
 33 31  1  0
 35 33  2  0
M  END
$$$$
