WWS.pdb
     RDKit          3D

 35 38  0  0  1  0  0  0  0  0999 V2000
    6.6145  -17.6799   24.5144 N   0  0  0  0  0  0  0  0  0  0  0  0
    7.6746  -16.8926   23.9791 C   0  0  1  0  0  0  0  0  0  0  0  0
    8.3862  -16.1430   25.0775 C   0  0  0  0  0  0  0  0  0  0  0  0
    7.4623  -15.0969   25.5975 C   0  0  0  0  0  0  0  0  0  0  0  0
    6.2276  -15.3472   26.2191 C   0  0  0  0  0  0  0  0  0  0  0  0
    5.6788  -14.1965   26.6024 N   0  0  0  0  0  0  0  0  0  0  0  0
    6.5054  -13.1908   26.2562 C   0  0  0  0  0  0  0  0  0  0  0  0
    6.4108  -11.8168   26.4128 C   0  0  0  0  0  0  0  0  0  0  0  0
    7.4245  -11.0394   25.9396 C   0  0  0  0  0  0  0  0  0  0  0  0
    8.5364  -11.5558   25.3136 C   0  0  0  0  0  0  0  0  0  0  0  0
    8.6292  -12.9153   25.1600 C   0  0  0  0  0  0  0  0  0  0  0  0
    7.6282  -13.7452   25.6239 C   0  0  0  0  0  0  0  0  0  0  0  0
    8.5728  -17.6369   23.0803 C   0  0  0  0  0  0  0  0  0  0  0  0
    8.9512  -18.7969   23.4026 O   0  0  0  0  0  0  0  0  0  0  0  0
    8.9911  -17.0337   21.8706 N   0  0  0  0  0  0  0  0  0  0  0  0
    9.9090  -17.6696   20.9672 C   0  0  1  0  0  0  0  0  0  0  0  0
    9.7008  -17.1537   19.5591 C   0  0  0  0  0  0  0  0  0  0  0  0
    9.6528  -15.6781   19.5113 C   0  0  0  0  0  0  0  0  0  0  0  0
   10.6953  -14.8690   19.0403 C   0  0  0  0  0  0  0  0  0  0  0  0
   10.3154  -13.5934   19.1066 N   0  0  0  0  0  0  0  0  0  0  0  0
    9.0853  -13.4959   19.5924 C   0  0  0  0  0  0  0  0  0  0  0  0
    8.2672  -12.4180   19.8545 C   0  0  0  0  0  0  0  0  0  0  0  0
    6.9978  -12.5870   20.3823 C   0  0  0  0  0  0  0  0  0  0  0  0
    6.5907  -13.8751   20.6336 C   0  0  0  0  0  0  0  0  0  0  0  0
    7.4162  -14.9587   20.3688 C   0  0  0  0  0  0  0  0  0  0  0  0
    8.6611  -14.7922   19.8495 C   0  0  0  0  0  0  0  0  0  0  0  0
   11.3082  -17.4771   21.4103 C   0  0  0  0  0  0  0  0  0  0  0  0
   11.8062  -16.3448   21.6278 O   0  0  0  0  0  0  0  0  0  0  0  0
   13.8953  -20.7900   21.8524 O   0  0  0  0  0  0  0  0  0  0  0  0
   14.1315  -19.6625   22.6380 C   0  0  0  0  0  0  0  0  0  0  0  0
   13.5584  -18.4134   21.9928 C   0  0  2  0  0  0  0  0  0  0  0  0
   12.1740  -18.6065   21.6144 N   0  0  0  0  0  0  0  0  0  0  0  0
   14.3542  -17.9992   20.8313 C   0  0  0  0  0  0  0  0  0  0  0  0
   15.7064  -17.7350   20.9858 O   0  0  0  0  0  0  0  0  0  0  0  0
   13.8759  -17.8655   19.6767 O   0  0  0  0  0  0  0  0  0  0  0  0
  2  1  1  1
  3  2  1  0
  4  3  1  0
  5  4  2  0
  6  5  1  0
  7  6  1  0
  7 12  2  0
  8  7  1  0
  9  8  2  0
  9 10  1  0
 10 11  2  0
 11 12  1  0
 12  4  1  0
 13  2  1  0
 14 13  2  0
 15 13  1  0
 16 15  1  0
 16 27  1  0
 16 17  1  6
 18 17  1  0
 19 18  2  0
 20 19  1  0
 21 20  1  0
 21 26  2  0
 22 23  2  0
 22 21  1  0
 23 24  1  0
 24 25  2  0
 26 25  1  0
 26 18  1  0
 27 28  2  0
 30 29  1  0
 31 30  1  6
 32 27  1  0
 32 31  1  0
 33 34  1  0
 33 31  1  0
 35 33  2  0
M  END
$$$$
