WWS.pdb
     RDKit          3D

 35 38  0  0  1  0  0  0  0  0999 V2000
    7.9779  -19.5857   22.7113 N   0  0  0  0  0  0  0  0  0  0  0  0
    8.6048  -19.3907   21.4467 C   0  0  1  0  0  0  0  0  0  0  0  0
    7.5792  -19.3852   20.3409 C   0  0  0  0  0  0  0  0  0  0  0  0
    6.7145  -20.5867   20.5057 C   0  0  0  0  0  0  0  0  0  0  0  0
    5.3310  -20.5583   20.7480 C   0  0  0  0  0  0  0  0  0  0  0  0
    4.8605  -21.8025   20.7983 N   0  0  0  0  0  0  0  0  0  0  0  0
    5.8833  -22.6562   20.5988 C   0  0  0  0  0  0  0  0  0  0  0  0
    5.9421  -24.0406   20.5613 C   0  0  0  0  0  0  0  0  0  0  0  0
    7.1501  -24.6322   20.3454 C   0  0  0  0  0  0  0  0  0  0  0  0
    8.3131  -23.9185   20.1635 C   0  0  0  0  0  0  0  0  0  0  0  0
    8.2534  -22.5490   20.2001 C   0  0  0  0  0  0  0  0  0  0  0  0
    7.0523  -21.9030   20.4146 C   0  0  0  0  0  0  0  0  0  0  0  0
    9.5312  -18.2465   21.4125 C   0  0  0  0  0  0  0  0  0  0  0  0
   10.0521  -17.9025   20.3158 O   0  0  0  0  0  0  0  0  0  0  0  0
    9.8158  -17.5548   22.6138 N   0  0  0  0  0  0  0  0  0  0  0  0
   10.6406  -16.3796   22.6518 C   0  0  1  0  0  0  0  0  0  0  0  0
   10.0227  -15.3345   23.5563 C   0  0  0  0  0  0  0  0  0  0  0  0
    8.6840  -14.9198   23.0897 C   0  0  0  0  0  0  0  0  0  0  0  0
    7.4969  -15.1389   23.8011 C   0  0  0  0  0  0  0  0  0  0  0  0
    6.4802  -14.6167   23.1158 N   0  0  0  0  0  0  0  0  0  0  0  0
    6.9099  -14.0623   21.9904 C   0  0  0  0  0  0  0  0  0  0  0  0
    6.2615  -13.4128   20.9621 C   0  0  0  0  0  0  0  0  0  0  0  0
    6.9544  -12.9222   19.8676 C   0  0  0  0  0  0  0  0  0  0  0  0
    8.3152  -13.1120   19.8519 C   0  0  0  0  0  0  0  0  0  0  0  0
    8.9658  -13.7661   20.8886 C   0  0  0  0  0  0  0  0  0  0  0  0
    8.2854  -14.2459   21.9629 C   0  0  0  0  0  0  0  0  0  0  0  0
   12.0190  -16.7127   23.0764 C   0  0  0  0  0  0  0  0  0  0  0  0
   12.9135  -15.8454   23.2345 O   0  0  0  0  0  0  0  0  0  0  0  0
   14.9635  -17.4455   21.2456 O   0  0  0  0  0  0  0  0  0  0  0  0
   13.9841  -18.4060   21.4955 C   0  0  0  0  0  0  0  0  0  0  0  0
   13.7218  -18.5488   22.9840 C   0  0  2  0  0  0  0  0  0  0  0  0
   12.3978  -18.0760   23.3311 N   0  0  0  0  0  0  0  0  0  0  0  0
   14.7401  -17.8482   23.7753 C   0  0  0  0  0  0  0  0  0  0  0  0
   14.3488  -16.9272   24.7348 O   0  0  0  0  0  0  0  0  0  0  0  0
   15.9751  -18.0348   23.6349 O   0  0  0  0  0  0  0  0  0  0  0  0
  2  1  1  1
  3  2  1  0
  4  3  1  0
  5  4  2  0
  6  5  1  0
  7  6  1  0
  7 12  2  0
  8  7  1  0
  9  8  2  0
  9 10  1  0
 10 11  2  0
 11 12  1  0
 12  4  1  0
 13  2  1  0
 14 13  2  0
 15 13  1  0
 16 15  1  0
 16 27  1  0
 16 17  1  1
 18 17  1  0
 19 18  2  0
 20 19  1  0
 21 20  1  0
 21 26  2  0
 22 23  2  0
 22 21  1  0
 23 24  1  0
 24 25  2  0
 26 25  1  0
 26 18  1  0
 27 28  2  0
 30 29  1  0
 31 30  1  6
 32 27  1  0
 32 31  1  0
 33 34  1  0
 33 31  1  0
 35 33  2  0
M  END
$$$$
