WWS.pdb
     RDKit          3D

 35 38  0  0  1  0  0  0  0  0999 V2000
    7.3950  -18.7516   20.0759 N   0  0  0  0  0  0  0  0  0  0  0  0
    6.9407  -18.7062   21.4257 C   0  0  1  0  0  0  0  0  0  0  0  0
    6.8397  -20.0977   21.9989 C   0  0  0  0  0  0  0  0  0  0  0  0
    5.7881  -20.8340   21.2436 C   0  0  0  0  0  0  0  0  0  0  0  0
    5.9072  -22.1515   20.7707 C   0  0  0  0  0  0  0  0  0  0  0  0
    4.7725  -22.5181   20.1789 N   0  0  0  0  0  0  0  0  0  0  0  0
    3.9045  -21.4899   20.2414 C   0  0  0  0  0  0  0  0  0  0  0  0
    2.6062  -21.3426   19.7786 C   0  0  0  0  0  0  0  0  0  0  0  0
    1.9749  -20.1537   19.9874 C   0  0  0  0  0  0  0  0  0  0  0  0
    2.5671  -19.0935   20.6358 C   0  0  0  0  0  0  0  0  0  0  0  0
    3.8512  -19.2408   21.0938 C   0  0  0  0  0  0  0  0  0  0  0  0
    4.5325  -20.4271   20.9075 C   0  0  0  0  0  0  0  0  0  0  0  0
    7.6868  -17.7604   22.2727 C   0  0  0  0  0  0  0  0  0  0  0  0
    8.8793  -17.4712   21.9780 O   0  0  0  0  0  0  0  0  0  0  0  0
    7.0471  -17.1935   23.4004 N   0  0  0  0  0  0  0  0  0  0  0  0
    7.7450  -16.3813   24.3575 C   0  0  1  0  0  0  0  0  0  0  0  0
    6.7781  -15.8372   25.3876 C   0  0  0  0  0  0  0  0  0  0  0  0
    7.4415  -14.9280   26.3442 C   0  0  0  0  0  0  0  0  0  0  0  0
    8.0414  -15.3420   27.5410 C   0  0  0  0  0  0  0  0  0  0  0  0
    8.5698  -14.2803   28.1488 N   0  0  0  0  0  0  0  0  0  0  0  0
    8.3620  -13.1813   27.4364 C   0  0  0  0  0  0  0  0  0  0  0  0
    8.6995  -11.8601   27.6373 C   0  0  0  0  0  0  0  0  0  0  0  0
    8.3492  -10.8789   26.7244 C   0  0  0  0  0  0  0  0  0  0  0  0
    7.6506  -11.2802   25.6113 C   0  0  0  0  0  0  0  0  0  0  0  0
    7.3120  -12.6111   25.4113 C   0  0  0  0  0  0  0  0  0  0  0  0
    7.6574  -13.5735   26.3067 C   0  0  0  0  0  0  0  0  0  0  0  0
    8.8427  -17.1409   24.9973 C   0  0  0  0  0  0  0  0  0  0  0  0
    8.6906  -18.2950   25.4687 O   0  0  0  0  0  0  0  0  0  0  0  0
   12.7712  -16.2534   24.1424 O   0  0  0  0  0  0  0  0  0  0  0  0
   12.3788  -17.4956   24.6397 C   0  0  0  0  0  0  0  0  0  0  0  0
   11.2532  -17.3529   25.6485 C   0  0  2  0  0  0  0  0  0  0  0  0
   10.1592  -16.5738   25.1070 N   0  0  0  0  0  0  0  0  0  0  0  0
   11.7324  -16.7608   26.9030 C   0  0  0  0  0  0  0  0  0  0  0  0
   12.7985  -17.3422   27.5721 O   0  0  0  0  0  0  0  0  0  0  0  0
   11.2252  -15.7347   27.4222 O   0  0  0  0  0  0  0  0  0  0  0  0
  2  1  1  6
  3  2  1  0
  4  3  1  0
  5  4  2  0
  6  5  1  0
  7  6  1  0
  7 12  2  0
  8  7  1  0
  9  8  2  0
  9 10  1  0
 10 11  2  0
 11 12  1  0
 12  4  1  0
 13  2  1  0
 14 13  2  0
 15 13  1  0
 16 15  1  0
 16 27  1  0
 16 17  1  1
 18 17  1  0
 19 18  2  0
 20 19  1  0
 21 20  1  0
 21 26  2  0
 22 23  2  0
 22 21  1  0
 23 24  1  0
 24 25  2  0
 26 25  1  0
 26 18  1  0
 27 28  2  0
 30 29  1  0
 31 30  1  6
 32 27  1  0
 32 31  1  0
 33 34  1  0
 33 31  1  0
 35 33  2  0
M  END
$$$$
