WWS.pdb
     RDKit          3D

 35 38  0  0  1  0  0  0  0  0999 V2000
    6.7416  -18.1877   25.0700 N   0  0  0  0  0  0  0  0  0  0  0  0
    7.4469  -17.2853   24.2225 C   0  0  1  0  0  0  0  0  0  0  0  0
    8.2515  -16.3069   25.0412 C   0  0  0  0  0  0  0  0  0  0  0  0
    7.3059  -15.3473   25.6762 C   0  0  0  0  0  0  0  0  0  0  0  0
    6.0965  -15.6984   26.2988 C   0  0  0  0  0  0  0  0  0  0  0  0
    5.5185  -14.6086   26.7992 N   0  0  0  0  0  0  0  0  0  0  0  0
    6.3014  -13.5459   26.5298 C   0  0  0  0  0  0  0  0  0  0  0  0
    6.1638  -12.1965   26.8153 C   0  0  0  0  0  0  0  0  0  0  0  0
    7.1381  -11.3425   26.3941 C   0  0  0  0  0  0  0  0  0  0  0  0
    8.2510  -11.7584   25.6987 C   0  0  0  0  0  0  0  0  0  0  0  0
    8.3861  -13.0937   25.4175 C   0  0  0  0  0  0  0  0  0  0  0  0
    7.4261  -13.9987   25.8243 C   0  0  0  0  0  0  0  0  0  0  0  0
    8.2140  -17.9488   23.1548 C   0  0  0  0  0  0  0  0  0  0  0  0
    8.5220  -19.1665   23.2771 O   0  0  0  0  0  0  0  0  0  0  0  0
    8.5881  -17.2043   22.0111 N   0  0  0  0  0  0  0  0  0  0  0  0
    9.3901  -17.7588   20.9565 C   0  0  1  0  0  0  0  0  0  0  0  0
    9.0479  -17.1013   19.6365 C   0  0  0  0  0  0  0  0  0  0  0  0
    9.1999  -15.6330   19.6931 C   0  0  0  0  0  0  0  0  0  0  0  0
   10.3582  -14.9437   19.3103 C   0  0  0  0  0  0  0  0  0  0  0  0
   10.1506  -13.6356   19.4573 N   0  0  0  0  0  0  0  0  0  0  0  0
    8.9275  -13.4042   19.9147 C   0  0  0  0  0  0  0  0  0  0  0  0
    8.2522  -12.2450   20.2305 C   0  0  0  0  0  0  0  0  0  0  0  0
    6.9528  -12.2744   20.7097 C   0  0  0  0  0  0  0  0  0  0  0  0
    6.3677  -13.5089   20.8566 C   0  0  0  0  0  0  0  0  0  0  0  0
    7.0497  -14.6747   20.5378 C   0  0  0  0  0  0  0  0  0  0  0  0
    8.3241  -14.6449   20.0664 C   0  0  0  0  0  0  0  0  0  0  0  0
   10.8324  -17.6311   21.2641 C   0  0  0  0  0  0  0  0  0  0  0  0
   11.7329  -18.0968   20.5228 O   0  0  0  0  0  0  0  0  0  0  0  0
   12.1964  -16.0080   24.9684 O   0  0  0  0  0  0  0  0  0  0  0  0
   12.9441  -15.7909   23.8117 C   0  0  0  0  0  0  0  0  0  0  0  0
   12.6798  -16.8691   22.7761 C   0  0  2  0  0  0  0  0  0  0  0  0
   11.2706  -16.9520   22.4531 N   0  0  0  0  0  0  0  0  0  0  0  0
   13.1805  -18.1739   23.2241 C   0  0  0  0  0  0  0  0  0  0  0  0
   12.2970  -19.2312   23.3780 O   0  0  0  0  0  0  0  0  0  0  0  0
   14.3895  -18.3994   23.4834 O   0  0  0  0  0  0  0  0  0  0  0  0
  2  1  1  1
  3  2  1  0
  4  3  1  0
  5  4  2  0
  6  5  1  0
  7  6  1  0
  7 12  2  0
  8  7  1  0
  9  8  2  0
  9 10  1  0
 10 11  2  0
 11 12  1  0
 12  4  1  0
 13  2  1  0
 14 13  2  0
 15 13  1  0
 16 15  1  0
 16 27  1  0
 16 17  1  6
 18 17  1  0
 19 18  2  0
 20 19  1  0
 21 20  1  0
 21 26  2  0
 22 23  2  0
 22 21  1  0
 23 24  1  0
 24 25  2  0
 26 25  1  0
 26 18  1  0
 27 28  2  0
 30 29  1  0
 31 30  1  1
 32 27  1  0
 32 31  1  0
 33 34  1  0
 33 31  1  0
 35 33  2  0
M  END
$$$$
