WWS.pdb
     RDKit          3D

 35 38  0  0  1  0  0  0  0  0999 V2000
    7.4545  -17.5597   26.6420 N   0  0  0  0  0  0  0  0  0  0  0  0
    8.0037  -17.2912   25.3550 C   0  0  1  0  0  0  0  0  0  0  0  0
    9.1984  -16.3776   25.4676 C   0  0  0  0  0  0  0  0  0  0  0  0
    8.8438  -15.2637   26.3906 C   0  0  0  0  0  0  0  0  0  0  0  0
    9.3448  -15.1045   27.6934 C   0  0  0  0  0  0  0  0  0  0  0  0
    8.8604  -13.9842   28.2247 N   0  0  0  0  0  0  0  0  0  0  0  0
    8.0545  -13.3944   27.3207 C   0  0  0  0  0  0  0  0  0  0  0  0
    7.3051  -12.2292   27.3669 C   0  0  0  0  0  0  0  0  0  0  0  0
    6.5645  -11.8913   26.2745 C   0  0  0  0  0  0  0  0  0  0  0  0
    6.5265  -12.6537   25.1290 C   0  0  0  0  0  0  0  0  0  0  0  0
    7.2688  -13.8058   25.0843 C   0  0  0  0  0  0  0  0  0  0  0  0
    8.0365  -14.1900   26.1655 C   0  0  0  0  0  0  0  0  0  0  0  0
    8.2451  -18.4990   24.5477 C   0  0  0  0  0  0  0  0  0  0  0  0
    8.7435  -19.5213   25.0945 O   0  0  0  0  0  0  0  0  0  0  0  0
    7.9097  -18.4868   23.1730 N   0  0  0  0  0  0  0  0  0  0  0  0
    8.4288  -17.5073   22.2598 C   0  0  1  0  0  0  0  0  0  0  0  0
    8.1403  -16.1110   22.7690 C   0  0  0  0  0  0  0  0  0  0  0  0
    7.5237  -15.2594   21.7314 C   0  0  0  0  0  0  0  0  0  0  0  0
    6.1883  -15.3594   21.3188 C   0  0  0  0  0  0  0  0  0  0  0  0
    5.9513  -14.4291   20.3946 N   0  0  0  0  0  0  0  0  0  0  0  0
    7.0424  -13.7125   20.1610 C   0  0  0  0  0  0  0  0  0  0  0  0
    7.3053  -12.6623   19.3079 C   0  0  0  0  0  0  0  0  0  0  0  0
    8.5606  -12.0800   19.2457 C   0  0  0  0  0  0  0  0  0  0  0  0
    9.5313  -12.5952   20.0706 C   0  0  0  0  0  0  0  0  0  0  0  0
    9.2640  -13.6526   20.9287 C   0  0  0  0  0  0  0  0  0  0  0  0
    8.0317  -14.2225   20.9903 C   0  0  0  0  0  0  0  0  0  0  0  0
    9.8775  -17.7094   22.0326 C   0  0  0  0  0  0  0  0  0  0  0  0
   10.3747  -17.8638   20.8897 O   0  0  0  0  0  0  0  0  0  0  0  0
   13.0134  -15.6291   22.7468 O   0  0  0  0  0  0  0  0  0  0  0  0
   12.7542  -16.7885   22.0169 C   0  0  0  0  0  0  0  0  0  0  0  0
   12.2173  -17.8919   22.9108 C   0  0  2  0  0  0  0  0  0  0  0  0
   10.7956  -17.7375   23.1385 N   0  0  0  0  0  0  0  0  0  0  0  0
   12.9385  -17.9427   24.1881 C   0  0  0  0  0  0  0  0  0  0  0  0
   14.3094  -18.1490   24.1935 O   0  0  0  0  0  0  0  0  0  0  0  0
   12.3782  -17.8077   25.3050 O   0  0  0  0  0  0  0  0  0  0  0  0
  2  1  1  1
  3  2  1  0
  4  3  1  0
  5  4  2  0
  6  5  1  0
  7  6  1  0
  7 12  2  0
  8  7  1  0
  9  8  2  0
  9 10  1  0
 10 11  2  0
 11 12  1  0
 12  4  1  0
 13  2  1  0
 14 13  2  0
 15 13  1  0
 16 15  1  0
 16 27  1  0
 16 17  1  1
 18 17  1  0
 19 18  2  0
 20 19  1  0
 21 20  1  0
 21 26  2  0
 22 23  2  0
 22 21  1  0
 23 24  1  0
 24 25  2  0
 26 25  1  0
 26 18  1  0
 27 28  2  0
 30 29  1  0
 31 30  1  6
 32 27  1  0
 32 31  1  0
 33 34  1  0
 33 31  1  0
 35 33  2  0
M  END
$$$$
