MDG.pdb
     RDKit          3D

 21 20  0  0  1  0  0  0  0  0999 V2000
    8.4654  -12.1316   27.4755 C   0  0  0  0  0  0  0  0  0  0  0  0
    6.9536  -11.9057   26.4874 S   0  0  0  0  0  0  0  0  0  0  0  0
    6.3073  -13.5772   26.0946 C   0  0  0  0  0  0  0  0  0  0  0  0
    7.3531  -14.2622   25.2790 C   0  0  0  0  0  0  0  0  0  0  0  0
    6.9602  -15.6227   24.7789 C   0  0  2  0  0  0  0  0  0  0  0  0
    6.4847  -16.5149   25.7866 N   0  0  0  0  0  0  0  0  0  0  0  0
    8.0222  -16.2443   23.9491 C   0  0  0  0  0  0  0  0  0  0  0  0
    8.6252  -17.2544   24.3944 O   0  0  0  0  0  0  0  0  0  0  0  0
    8.4103  -15.7696   22.6668 N   0  0  0  0  0  0  0  0  0  0  0  0
    9.4366  -16.4245   21.8631 C   0  0  1  0  0  0  0  0  0  0  0  0
    9.1021  -16.1533   20.4221 C   0  0  0  0  0  0  0  0  0  0  0  0
    8.2647  -17.1419   19.7585 C   0  0  0  0  0  0  0  0  0  0  0  0
    7.0371  -17.2019   20.0247 O   0  0  0  0  0  0  0  0  0  0  0  0
   10.7873  -16.0720   22.2792 C   0  0  0  0  0  0  0  0  0  0  0  0
   11.7966  -16.5046   21.6241 O   0  0  0  0  0  0  0  0  0  0  0  0
    8.7731  -18.0311   18.8326 O   0  0  0  0  0  0  0  0  0  0  0  0
   11.0831  -15.2505   23.3983 N   0  0  0  0  0  0  0  0  0  0  0  0
   12.4584  -14.9864   23.7790 C   0  0  0  0  0  0  0  0  0  0  0  0
   13.0888  -16.2037   24.3230 C   0  0  0  0  0  0  0  0  0  0  0  0
   14.4554  -16.3970   24.4199 O   0  0  0  0  0  0  0  0  0  0  0  0
   12.3502  -17.1427   24.7326 O   0  0  0  0  0  0  0  0  0  0  0  0
  2  1  1  0
  3  2  1  0
  4  3  1  0
  4  5  1  0
  5  6  1  1
  7  8  2  0
  7  5  1  0
  9  7  1  0
 10  9  1  0
 10 14  1  0
 10 11  1  6
 12 16  1  0
 12 11  1  0
 13 12  2  0
 14 15  2  0
 14 17  1  0
 17 18  1  0
 19 18  1  0
 19 20  1  0
 21 19  2  0
M  END
$$$$
