MDG.pdb
     RDKit          3D

 21 20  0  0  1  0  0  0  0  0999 V2000
    8.0440  -11.6132   27.3399 C   0  0  0  0  0  0  0  0  0  0  0  0
    6.3690  -12.0349   26.7658 S   0  0  0  0  0  0  0  0  0  0  0  0
    6.5498  -12.9242   25.1712 C   0  0  0  0  0  0  0  0  0  0  0  0
    5.8186  -14.2175   25.3145 C   0  0  0  0  0  0  0  0  0  0  0  0
    6.7035  -15.4129   25.5227 C   0  0  2  0  0  0  0  0  0  0  0  0
    7.5157  -15.3576   26.6952 N   0  0  0  0  0  0  0  0  0  0  0  0
    7.5016  -15.7381   24.3143 C   0  0  0  0  0  0  0  0  0  0  0  0
    6.9030  -16.1367   23.2823 O   0  0  0  0  0  0  0  0  0  0  0  0
    8.9169  -15.6282   24.2421 N   0  0  0  0  0  0  0  0  0  0  0  0
    9.7321  -16.5033   23.4067 C   0  0  1  0  0  0  0  0  0  0  0  0
   10.4973  -15.6172   22.4626 C   0  0  0  0  0  0  0  0  0  0  0  0
   11.2786  -16.2923   21.4365 C   0  0  0  0  0  0  0  0  0  0  0  0
   10.7506  -17.1995   20.7439 O   0  0  0  0  0  0  0  0  0  0  0  0
   10.5296  -17.4416   24.1849 C   0  0  0  0  0  0  0  0  0  0  0  0
   11.2781  -18.2942   23.5953 O   0  0  0  0  0  0  0  0  0  0  0  0
   12.5983  -15.9707   21.1891 O   0  0  0  0  0  0  0  0  0  0  0  0
   10.5438  -17.4836   25.6036 N   0  0  0  0  0  0  0  0  0  0  0  0
   11.2694  -18.5261   26.3054 C   0  0  0  0  0  0  0  0  0  0  0  0
   10.4363  -19.1085   27.3740 C   0  0  0  0  0  0  0  0  0  0  0  0
   10.7150  -19.0021   28.7250 O   0  0  0  0  0  0  0  0  0  0  0  0
    9.3960  -19.7501   27.0557 O   0  0  0  0  0  0  0  0  0  0  0  0
  2  1  1  0
  3  2  1  0
  4  3  1  0
  4  5  1  0
  5  6  1  1
  7  8  2  0
  7  5  1  0
  9  7  1  0
 10  9  1  0
 10 14  1  0
 10 11  1  1
 12 16  1  0
 12 11  1  0
 13 12  2  0
 14 15  2  0
 14 17  1  0
 17 18  1  0
 19 18  1  0
 19 20  1  0
 21 19  2  0
M  END
$$$$
