MDG.pdb
     RDKit          3D

 21 20  0  0  1  0  0  0  0  0999 V2000
    7.1408  -11.0680   25.5662 C   0  0  0  0  0  0  0  0  0  0  0  0
    6.4648  -12.1748   26.8433 S   0  0  0  0  0  0  0  0  0  0  0  0
    5.8414  -13.6734   25.9879 C   0  0  0  0  0  0  0  0  0  0  0  0
    7.0183  -14.5655   25.7703 C   0  0  0  0  0  0  0  0  0  0  0  0
    6.8056  -15.6355   24.7381 C   0  0  2  0  0  0  0  0  0  0  0  0
    5.7506  -16.5501   25.0349 N   0  0  0  0  0  0  0  0  0  0  0  0
    8.0650  -16.3405   24.3924 C   0  0  0  0  0  0  0  0  0  0  0  0
    8.2373  -17.5136   24.8124 O   0  0  0  0  0  0  0  0  0  0  0  0
    9.1052  -15.7727   23.6075 N   0  0  0  0  0  0  0  0  0  0  0  0
   10.2916  -16.5239   23.2120 C   0  0  1  0  0  0  0  0  0  0  0  0
   10.9300  -15.7677   22.0795 C   0  0  0  0  0  0  0  0  0  0  0  0
   12.1399  -16.3502   21.5175 C   0  0  0  0  0  0  0  0  0  0  0  0
   12.1881  -17.5842   21.2801 O   0  0  0  0  0  0  0  0  0  0  0  0
   11.1615  -16.8358   24.3381 C   0  0  0  0  0  0  0  0  0  0  0  0
   12.2247  -17.5232   24.1595 O   0  0  0  0  0  0  0  0  0  0  0  0
   13.2552  -15.5889   21.2297 O   0  0  0  0  0  0  0  0  0  0  0  0
   10.9130  -16.4174   25.6714 N   0  0  0  0  0  0  0  0  0  0  0  0
   11.8443  -16.7450   26.7351 C   0  0  0  0  0  0  0  0  0  0  0  0
   11.3884  -17.9367   27.4748 C   0  0  0  0  0  0  0  0  0  0  0  0
   11.0758  -17.9453   28.8225 O   0  0  0  0  0  0  0  0  0  0  0  0
   11.2691  -19.0308   26.8553 O   0  0  0  0  0  0  0  0  0  0  0  0
  2  1  1  0
  3  2  1  0
  4  3  1  0
  4  5  1  0
  5  6  1  1
  7  8  2  0
  7  5  1  0
  9  7  1  0
 10  9  1  0
 10 14  1  0
 10 11  1  6
 12 16  1  0
 12 11  1  0
 13 12  2  0
 14 15  2  0
 14 17  1  0
 17 18  1  0
 19 18  1  0
 19 20  1  0
 21 19  2  0
M  END
$$$$
