MDG.pdb
     RDKit          3D

 21 20  0  0  1  0  0  0  0  0999 V2000
    9.6888  -11.9905   19.8954 C   0  0  0  0  0  0  0  0  0  0  0  0
    7.8830  -12.1490   19.7317 S   0  0  0  0  0  0  0  0  0  0  0  0
    7.4980  -13.9422   19.6814 C   0  0  0  0  0  0  0  0  0  0  0  0
    7.5338  -14.4297   21.0918 C   0  0  0  0  0  0  0  0  0  0  0  0
    7.9891  -15.8523   21.2471 C   0  0  2  0  0  0  0  0  0  0  0  0
    7.3394  -16.7848   20.3834 N   0  0  0  0  0  0  0  0  0  0  0  0
    7.9610  -16.2997   22.6620 C   0  0  0  0  0  0  0  0  0  0  0  0
    7.1941  -15.7124   23.4677 O   0  0  0  0  0  0  0  0  0  0  0  0
    8.7527  -17.3621   23.1765 N   0  0  0  0  0  0  0  0  0  0  0  0
   10.2011  -17.4154   23.0104 C   0  0  1  0  0  0  0  0  0  0  0  0
   10.5558  -16.4138   21.9459 C   0  0  0  0  0  0  0  0  0  0  0  0
   11.6558  -16.7745   21.0634 C   0  0  0  0  0  0  0  0  0  0  0  0
   11.8147  -17.9736   20.7196 O   0  0  0  0  0  0  0  0  0  0  0  0
   10.9175  -17.2829   24.2718 C   0  0  0  0  0  0  0  0  0  0  0  0
   12.1951  -17.3297   24.2948 O   0  0  0  0  0  0  0  0  0  0  0  0
   12.5465  -15.8365   20.5805 O   0  0  0  0  0  0  0  0  0  0  0  0
   10.2834  -17.0954   25.5277 N   0  0  0  0  0  0  0  0  0  0  0  0
   11.0668  -17.0103   26.7464 C   0  0  0  0  0  0  0  0  0  0  0  0
   11.1379  -18.3255   27.4101 C   0  0  0  0  0  0  0  0  0  0  0  0
   11.6775  -18.5363   28.6665 O   0  0  0  0  0  0  0  0  0  0  0  0
   10.6818  -19.3380   26.8087 O   0  0  0  0  0  0  0  0  0  0  0  0
  2  1  1  0
  3  2  1  0
  4  3  1  0
  4  5  1  0
  5  6  1  6
  7  8  2  0
  7  5  1  0
  9  7  1  0
 10  9  1  0
 10 14  1  0
 10 11  1  6
 12 16  1  0
 12 11  1  0
 13 12  2  0
 14 15  2  0
 14 17  1  0
 17 18  1  0
 19 18  1  0
 19 20  1  0
 21 19  2  0
M  END
$$$$
