MDG.pdb
     RDKit          3D

 21 20  0  0  1  0  0  0  0  0999 V2000
    6.0751  -11.0180   26.8960 C   0  0  0  0  0  0  0  0  0  0  0  0
    6.7757  -12.6268   26.4122 S   0  0  0  0  0  0  0  0  0  0  0  0
    6.4387  -12.8493   24.6225 C   0  0  0  0  0  0  0  0  0  0  0  0
    6.9097  -14.2193   24.2631 C   0  0  0  0  0  0  0  0  0  0  0  0
    8.1438  -14.6647   24.9938 C   0  0  2  0  0  0  0  0  0  0  0  0
    9.1230  -13.6446   25.1891 N   0  0  0  0  0  0  0  0  0  0  0  0
    8.7355  -15.8904   24.4016 C   0  0  0  0  0  0  0  0  0  0  0  0
    8.0060  -16.9043   24.2532 O   0  0  0  0  0  0  0  0  0  0  0  0
   10.0900  -15.9985   23.9844 N   0  0  0  0  0  0  0  0  0  0  0  0
   10.6644  -17.2464   23.4933 C   0  0  1  0  0  0  0  0  0  0  0  0
   11.5481  -16.8920   22.3291 C   0  0  0  0  0  0  0  0  0  0  0  0
   10.8710  -16.5761   21.0797 C   0  0  0  0  0  0  0  0  0  0  0  0
    9.7129  -17.0174   20.8668 O   0  0  0  0  0  0  0  0  0  0  0  0
   11.2887  -18.0324   24.5490 C   0  0  0  0  0  0  0  0  0  0  0  0
   11.8797  -19.1313   24.2699 O   0  0  0  0  0  0  0  0  0  0  0  0
   11.4597  -15.7979   20.1028 O   0  0  0  0  0  0  0  0  0  0  0  0
   11.2953  -17.6577   25.9180 N   0  0  0  0  0  0  0  0  0  0  0  0
   11.9796  -18.4728   26.9046 C   0  0  0  0  0  0  0  0  0  0  0  0
   11.0084  -19.2369   27.7097 C   0  0  0  0  0  0  0  0  0  0  0  0
   11.3323  -19.9536   28.8480 O   0  0  0  0  0  0  0  0  0  0  0  0
    9.7968  -19.2503   27.3535 O   0  0  0  0  0  0  0  0  0  0  0  0
  2  1  1  0
  3  2  1  0
  4  3  1  0
  4  5  1  0
  5  6  1  6
  7  8  2  0
  7  5  1  0
  9  7  1  0
 10  9  1  0
 10 14  1  0
 10 11  1  6
 12 16  1  0
 12 11  1  0
 13 12  2  0
 14 15  2  0
 14 17  1  0
 17 18  1  0
 19 18  1  0
 19 20  1  0
 21 19  2  0
M  END
$$$$
