MDG.pdb
     RDKit          3D

 21 20  0  0  1  0  0  0  0  0999 V2000
    7.7969  -11.5783   26.9076 C   0  0  0  0  0  0  0  0  0  0  0  0
    6.3364  -12.6360   26.6597 S   0  0  0  0  0  0  0  0  0  0  0  0
    6.4025  -13.2565   24.9343 C   0  0  0  0  0  0  0  0  0  0  0  0
    7.4323  -14.3366   24.9046 C   0  0  0  0  0  0  0  0  0  0  0  0
    7.6599  -14.9422   23.5493 C   0  0  2  0  0  0  0  0  0  0  0  0
    6.4691  -15.2876   22.8420 N   0  0  0  0  0  0  0  0  0  0  0  0
    8.6219  -16.0715   23.5932 C   0  0  0  0  0  0  0  0  0  0  0  0
    8.1949  -17.2387   23.3993 O   0  0  0  0  0  0  0  0  0  0  0  0
   10.0133  -15.9225   23.8429 N   0  0  0  0  0  0  0  0  0  0  0  0
   10.9191  -17.0608   23.9518 C   0  0  1  0  0  0  0  0  0  0  0  0
   12.3096  -16.5360   23.7209 C   0  0  0  0  0  0  0  0  0  0  0  0
   12.6582  -16.2208   22.3432 C   0  0  0  0  0  0  0  0  0  0  0  0
   12.0774  -16.8149   21.3993 O   0  0  0  0  0  0  0  0  0  0  0  0
   10.7224  -17.8212   25.1786 C   0  0  0  0  0  0  0  0  0  0  0  0
   11.2224  -18.9919   25.2979 O   0  0  0  0  0  0  0  0  0  0  0  0
   13.6173  -15.2794   22.0263 O   0  0  0  0  0  0  0  0  0  0  0  0
    9.9921  -17.3443   26.2984 N   0  0  0  0  0  0  0  0  0  0  0  0
    9.6931  -18.2220   27.4147 C   0  0  0  0  0  0  0  0  0  0  0  0
   10.8470  -18.3095   28.3292 C   0  0  0  0  0  0  0  0  0  0  0  0
   10.8542  -19.0341   29.5078 O   0  0  0  0  0  0  0  0  0  0  0  0
   11.9072  -17.6897   28.0349 O   0  0  0  0  0  0  0  0  0  0  0  0
  2  1  1  0
  3  2  1  0
  4  3  1  0
  4  5  1  0
  5  6  1  1
  7  8  2  0
  7  5  1  0
  9  7  1  0
 10  9  1  0
 10 14  1  0
 10 11  1  1
 12 16  1  0
 12 11  1  0
 13 12  2  0
 14 15  2  0
 14 17  1  0
 17 18  1  0
 19 18  1  0
 19 20  1  0
 21 19  2  0
M  END
$$$$
