MDG.pdb
     RDKit          3D

 21 20  0  0  1  0  0  0  0  0999 V2000
    7.4243  -11.6617   27.6662 C   0  0  0  0  0  0  0  0  0  0  0  0
    6.0528  -11.4411   26.4901 S   0  0  0  0  0  0  0  0  0  0  0  0
    6.3102  -12.6399   25.1253 C   0  0  0  0  0  0  0  0  0  0  0  0
    7.4735  -13.4907   25.5137 C   0  0  0  0  0  0  0  0  0  0  0  0
    8.1550  -14.1754   24.3637 C   0  0  2  0  0  0  0  0  0  0  0  0
    7.2881  -14.5500   23.2933 N   0  0  0  0  0  0  0  0  0  0  0  0
    9.0034  -15.3092   24.8082 C   0  0  0  0  0  0  0  0  0  0  0  0
    9.7259  -15.1619   25.8273 O   0  0  0  0  0  0  0  0  0  0  0  0
    9.0562  -16.5688   24.1516 N   0  0  0  0  0  0  0  0  0  0  0  0
    9.9923  -17.6188   24.5385 C   0  0  1  0  0  0  0  0  0  0  0  0
    9.3658  -18.9286   24.1464 C   0  0  0  0  0  0  0  0  0  0  0  0
    8.0077  -19.1592   24.6173 C   0  0  0  0  0  0  0  0  0  0  0  0
    7.7955  -19.3608   25.8402 O   0  0  0  0  0  0  0  0  0  0  0  0
   11.3399  -17.3838   24.0379 C   0  0  0  0  0  0  0  0  0  0  0  0
   12.3551  -17.7132   24.7421 O   0  0  0  0  0  0  0  0  0  0  0  0
    6.9253  -19.1654   23.7601 O   0  0  0  0  0  0  0  0  0  0  0  0
   11.6263  -16.7966   22.7778 N   0  0  0  0  0  0  0  0  0  0  0  0
   12.9976  -16.5554   22.3689 C   0  0  0  0  0  0  0  0  0  0  0  0
   13.0369  -15.8819   21.0574 C   0  0  0  0  0  0  0  0  0  0  0  0
   14.1994  -15.4979   20.4128 O   0  0  0  0  0  0  0  0  0  0  0  0
   11.9488  -15.6303   20.4677 O   0  0  0  0  0  0  0  0  0  0  0  0
  2  1  1  0
  3  2  1  0
  4  3  1  0
  4  5  1  0
  5  6  1  6
  7  8  2  0
  7  5  1  0
  9  7  1  0
 10  9  1  0
 10 14  1  0
 10 11  1  6
 12 16  1  0
 12 11  1  0
 13 12  2  0
 14 15  2  0
 14 17  1  0
 17 18  1  0
 19 18  1  0
 19 20  1  0
 21 19  2  0
M  END
$$$$
