NSD.pdb
     RDKit          3D

 23 22  0  0  1  0  0  0  0  0999 V2000
   17.6468  -12.8668  -17.1354 N   0  0  0  0  0  0  0  0  0  0  0  0
   19.0356  -12.6933  -17.3552 C   0  0  0  0  0  0  0  0  0  0  0  0
   19.5498  -13.1590  -18.4270 O   0  0  0  0  0  0  0  0  0  0  0  0
   19.9346  -12.0043  -16.4198 C   0  0  0  0  0  0  0  0  0  0  0  0
   21.3642  -11.9698  -16.9133 C   0  0  2  0  0  0  0  0  0  0  0  0
   21.9877  -13.2125  -16.5760 N   0  0  0  0  0  0  0  0  0  0  0  0
   22.0183  -10.8067  -16.2413 C   0  0  0  0  0  0  0  0  0  0  0  0
   22.2363  -10.8427  -15.0033 O   0  0  0  0  0  0  0  0  0  0  0  0
   23.8947   -7.9055  -18.4139 O   0  0  0  0  0  0  0  0  0  0  0  0
   24.3676   -8.2676  -17.1607 C   0  0  0  0  0  0  0  0  0  0  0  0
   23.1525   -8.5600  -16.2874 C   0  0  2  0  0  0  0  0  0  0  0  0
   22.4209   -9.6288  -16.9340 N   0  0  0  0  0  0  0  0  0  0  0  0
   22.3238   -7.3543  -16.0851 C   0  0  0  0  0  0  0  0  0  0  0  0
   21.3957   -7.1005  -16.9101 O   0  0  0  0  0  0  0  0  0  0  0  0
   22.4806   -6.4333  -15.0213 N   0  0  0  0  0  0  0  0  0  0  0  0
   21.6482   -5.2147  -14.9267 C   0  0  1  0  0  0  0  0  0  0  0  0
   20.2454   -5.6955  -14.8005 C   0  0  0  0  0  0  0  0  0  0  0  0
   19.2393   -4.6565  -14.5465 C   0  0  0  0  0  0  0  0  0  0  0  0
   19.3681   -3.5025  -14.9972 O   0  0  0  0  0  0  0  0  0  0  0  0
   22.1322   -4.3883  -13.7994 C   0  0  0  0  0  0  0  0  0  0  0  0
   21.5903   -3.1164  -13.5844 O   0  0  0  0  0  0  0  0  0  0  0  0
   18.0985   -4.9051  -13.7951 O   0  0  0  0  0  0  0  0  0  0  0  0
   23.0151   -4.7395  -12.9929 O   0  0  0  0  0  0  0  0  0  0  0  0
  2  1  1  0
  2  4  1  0
  3  2  2  0
  4  5  1  0
  5  6  1  1
  7 12  1  0
  7  5  1  0
  8  7  2  0
  9 10  1  0
 11 10  1  6
 11 13  1  0
 11 12  1  0
 13 15  1  0
 14 13  2  0
 15 16  1  0
 16 17  1  1
 17 18  1  0
 18 19  2  0
 20 16  1  0
 20 21  1  0
 22 18  1  0
 23 20  2  0
M  END
$$$$
