NSD.pdb
     RDKit          3D

 23 22  0  0  1  0  0  0  0  0999 V2000
   15.8868  -13.6137  -13.1301 N   0  0  0  0  0  0  0  0  0  0  0  0
   14.7253  -13.2049  -12.4296 C   0  0  0  0  0  0  0  0  0  0  0  0
   13.7538  -14.0260  -12.3208 O   0  0  0  0  0  0  0  0  0  0  0  0
   14.5625  -11.8818  -11.8123 C   0  0  0  0  0  0  0  0  0  0  0  0
   15.8144  -11.0389  -11.9162 C   0  0  2  0  0  0  0  0  0  0  0  0
   16.7895  -11.5666  -11.0120 N   0  0  0  0  0  0  0  0  0  0  0  0
   15.4164   -9.6415  -11.5683 C   0  0  0  0  0  0  0  0  0  0  0  0
   14.4631   -9.0936  -12.1784 O   0  0  0  0  0  0  0  0  0  0  0  0
   15.6843   -7.9238   -7.9138 O   0  0  0  0  0  0  0  0  0  0  0  0
   16.3183   -7.1793   -8.8981 C   0  0  0  0  0  0  0  0  0  0  0  0
   15.6521   -7.5258  -10.2250 C   0  0  2  0  0  0  0  0  0  0  0  0
   16.0670   -8.8712  -10.5619 N   0  0  0  0  0  0  0  0  0  0  0  0
   15.9975   -6.5508  -11.2793 C   0  0  0  0  0  0  0  0  0  0  0  0
   17.1338   -6.6237  -11.8359 O   0  0  0  0  0  0  0  0  0  0  0  0
   15.1466   -5.5145  -11.7339 N   0  0  0  0  0  0  0  0  0  0  0  0
   15.5214   -4.6538  -12.8765 C   0  0  1  0  0  0  0  0  0  0  0  0
   14.2407   -4.2865  -13.5395 C   0  0  0  0  0  0  0  0  0  0  0  0
   14.3605   -3.3977  -14.7022 C   0  0  0  0  0  0  0  0  0  0  0  0
   15.4710   -3.0133  -15.1153 O   0  0  0  0  0  0  0  0  0  0  0  0
   16.3196   -3.5129  -12.3774 C   0  0  0  0  0  0  0  0  0  0  0  0
   17.3648   -3.0006  -13.1538 O   0  0  0  0  0  0  0  0  0  0  0  0
   13.2486   -2.9422  -15.3978 O   0  0  0  0  0  0  0  0  0  0  0  0
   16.1355   -2.9458  -11.2829 O   0  0  0  0  0  0  0  0  0  0  0  0
  2  1  1  0
  2  4  1  0
  3  2  2  0
  4  5  1  0
  5  6  1  1
  7 12  1  0
  7  5  1  0
  8  7  2  0
  9 10  1  0
 11 10  1  1
 11 13  1  0
 11 12  1  0
 13 15  1  0
 14 13  2  0
 15 16  1  0
 16 17  1  1
 17 18  1  0
 18 19  2  0
 20 16  1  0
 20 21  1  0
 22 18  1  0
 23 20  2  0
M  END
$$$$
