NSD.pdb
     RDKit          3D

 23 22  0  0  1  0  0  0  0  0999 V2000
   19.5412  -12.5135  -19.9763 N   0  0  0  0  0  0  0  0  0  0  0  0
   18.7821  -11.3769  -19.6030 C   0  0  0  0  0  0  0  0  0  0  0  0
   18.0542  -10.8090  -20.4847 O   0  0  0  0  0  0  0  0  0  0  0  0
   18.7773  -10.8013  -18.2515 C   0  0  0  0  0  0  0  0  0  0  0  0
   19.6981  -11.5409  -17.3062 C   0  0  2  0  0  0  0  0  0  0  0  0
   19.0578  -12.7587  -16.9139 N   0  0  0  0  0  0  0  0  0  0  0  0
   19.9402  -10.6291  -16.1477 C   0  0  0  0  0  0  0  0  0  0  0  0
   19.0458  -10.4746  -15.2773 O   0  0  0  0  0  0  0  0  0  0  0  0
   23.6556   -9.5913  -15.2030 O   0  0  0  0  0  0  0  0  0  0  0  0
   22.7121   -9.5825  -14.1857 C   0  0  0  0  0  0  0  0  0  0  0  0
   21.4011   -9.0927  -14.7908 C   0  0  2  0  0  0  0  0  0  0  0  0
   21.1530   -9.9049  -15.9631 N   0  0  0  0  0  0  0  0  0  0  0  0
   21.4518   -7.6508  -15.1068 C   0  0  0  0  0  0  0  0  0  0  0  0
   22.0287   -7.2743  -16.1705 O   0  0  0  0  0  0  0  0  0  0  0  0
   20.8969   -6.6259  -14.3029 N   0  0  0  0  0  0  0  0  0  0  0  0
   21.0877   -5.1973  -14.6337 C   0  0  1  0  0  0  0  0  0  0  0  0
   19.7600   -4.5569  -14.4289 C   0  0  0  0  0  0  0  0  0  0  0  0
   18.7303   -4.9017  -15.4174 C   0  0  0  0  0  0  0  0  0  0  0  0
   18.9577   -4.8434  -16.6406 O   0  0  0  0  0  0  0  0  0  0  0  0
   22.1822   -4.6531  -13.8007 C   0  0  0  0  0  0  0  0  0  0  0  0
   22.6598   -3.3591  -14.0358 O   0  0  0  0  0  0  0  0  0  0  0  0
   17.4569   -5.3084  -15.0420 O   0  0  0  0  0  0  0  0  0  0  0  0
   22.7380   -5.2704  -12.8716 O   0  0  0  0  0  0  0  0  0  0  0  0
  2  1  1  0
  2  4  1  0
  3  2  2  0
  4  5  1  0
  5  6  1  1
  7 12  1  0
  7  5  1  0
  8  7  2  0
  9 10  1  0
 11 10  1  6
 11 13  1  0
 11 12  1  0
 13 15  1  0
 14 13  2  0
 15 16  1  0
 16 17  1  1
 17 18  1  0
 18 19  2  0
 20 16  1  0
 20 21  1  0
 22 18  1  0
 23 20  2  0
M  END
$$$$
