NSD.pdb
     RDKit          3D

 23 22  0  0  1  0  0  0  0  0999 V2000
   15.2945  -11.4113  -17.8861 N   0  0  0  0  0  0  0  0  0  0  0  0
   16.7039  -11.2831  -17.8216 C   0  0  0  0  0  0  0  0  0  0  0  0
   17.3879  -11.4926  -18.8790 O   0  0  0  0  0  0  0  0  0  0  0  0
   17.4399  -10.9206  -16.6030 C   0  0  0  0  0  0  0  0  0  0  0  0
   18.8311  -11.5142  -16.5713 C   0  0  2  0  0  0  0  0  0  0  0  0
   18.7310  -12.8745  -16.1396 N   0  0  0  0  0  0  0  0  0  0  0  0
   19.6294  -10.6768  -15.6260 C   0  0  0  0  0  0  0  0  0  0  0  0
   19.0978  -10.2480  -14.5702 O   0  0  0  0  0  0  0  0  0  0  0  0
   23.6072   -9.8171  -16.3210 O   0  0  0  0  0  0  0  0  0  0  0  0
   23.1980   -9.9947  -15.0072 C   0  0  0  0  0  0  0  0  0  0  0  0
   21.7511   -9.5223  -14.9177 C   0  0  2  0  0  0  0  0  0  0  0  0
   20.9911  -10.3249  -15.8526 N   0  0  0  0  0  0  0  0  0  0  0  0
   21.6319   -8.0760  -15.1926 C   0  0  0  0  0  0  0  0  0  0  0  0
   21.4625   -7.6891  -16.3875 O   0  0  0  0  0  0  0  0  0  0  0  0
   21.6921   -7.0578  -14.2107 N   0  0  0  0  0  0  0  0  0  0  0  0
   21.6171   -5.6271  -14.5773 C   0  0  1  0  0  0  0  0  0  0  0  0
   20.1790   -5.3568  -14.8482 C   0  0  0  0  0  0  0  0  0  0  0  0
   19.8269   -3.9464  -15.0560 C   0  0  0  0  0  0  0  0  0  0  0  0
   20.5883   -3.1684  -15.6612 O   0  0  0  0  0  0  0  0  0  0  0  0
   22.2134   -4.8205  -13.4902 C   0  0  0  0  0  0  0  0  0  0  0  0
   22.7541   -5.4557  -12.3669 O   0  0  0  0  0  0  0  0  0  0  0  0
   18.6335   -3.4099  -14.5914 O   0  0  0  0  0  0  0  0  0  0  0  0
   22.2788   -3.5759  -13.4870 O   0  0  0  0  0  0  0  0  0  0  0  0
  2  1  1  0
  2  4  1  0
  3  2  2  0
  4  5  1  0
  5  6  1  1
  7 12  1  0
  7  5  1  0
  8  7  2  0
  9 10  1  0
 11 10  1  6
 11 13  1  0
 11 12  1  0
 13 15  1  0
 14 13  2  0
 15 16  1  0
 16 17  1  1
 17 18  1  0
 18 19  2  0
 20 16  1  0
 20 21  1  0
 22 18  1  0
 23 20  2  0
M  END
$$$$
