NSD.pdb
     RDKit          3D

 23 22  0  0  1  0  0  0  0  0999 V2000
   14.9164  -13.1053  -17.0133 N   0  0  0  0  0  0  0  0  0  0  0  0
   16.2547  -12.7690  -17.3342 C   0  0  0  0  0  0  0  0  0  0  0  0
   16.7624  -13.2324  -18.4100 O   0  0  0  0  0  0  0  0  0  0  0  0
   17.1078  -11.9116  -16.5004 C   0  0  0  0  0  0  0  0  0  0  0  0
   18.5812  -12.1709  -16.7251 C   0  0  2  0  0  0  0  0  0  0  0  0
   18.9086  -13.4391  -16.1493 N   0  0  0  0  0  0  0  0  0  0  0  0
   19.3156  -11.0455  -16.0722 C   0  0  0  0  0  0  0  0  0  0  0  0
   18.9038  -10.5828  -14.9779 O   0  0  0  0  0  0  0  0  0  0  0  0
   23.3384   -8.4636  -15.7340 O   0  0  0  0  0  0  0  0  0  0  0  0
   22.6487   -9.4731  -16.3899 C   0  0  0  0  0  0  0  0  0  0  0  0
   21.1859   -9.3636  -15.9744 C   0  0  2  0  0  0  0  0  0  0  0  0
   20.4839  -10.4484  -16.6272 N   0  0  0  0  0  0  0  0  0  0  0  0
   20.6199   -8.0426  -16.3151 C   0  0  0  0  0  0  0  0  0  0  0  0
   20.3096   -7.7987  -17.5194 O   0  0  0  0  0  0  0  0  0  0  0  0
   20.3879   -6.9979  -15.3882 N   0  0  0  0  0  0  0  0  0  0  0  0
   19.8716   -5.6818  -15.8222 C   0  0  1  0  0  0  0  0  0  0  0  0
   18.7723   -5.3498  -14.8757 C   0  0  0  0  0  0  0  0  0  0  0  0
   18.1879   -4.0111  -15.0268 C   0  0  0  0  0  0  0  0  0  0  0  0
   17.4364   -3.7335  -15.9806 O   0  0  0  0  0  0  0  0  0  0  0  0
   20.9889   -4.7130  -15.8512 C   0  0  0  0  0  0  0  0  0  0  0  0
   22.2370   -5.0724  -15.3307 O   0  0  0  0  0  0  0  0  0  0  0  0
   18.4411   -2.9911  -14.1195 O   0  0  0  0  0  0  0  0  0  0  0  0
   20.9130   -3.5594  -16.3167 O   0  0  0  0  0  0  0  0  0  0  0  0
  2  1  1  0
  2  4  1  0
  3  2  2  0
  4  5  1  0
  5  6  1  1
  7 12  1  0
  7  5  1  0
  8  7  2  0
  9 10  1  0
 11 10  1  6
 11 13  1  0
 11 12  1  0
 13 15  1  0
 14 13  2  0
 15 16  1  0
 16 17  1  1
 17 18  1  0
 18 19  2  0
 20 16  1  0
 20 21  1  0
 22 18  1  0
 23 20  2  0
M  END
$$$$
