NSD.pdb
     RDKit          3D

 23 22  0  0  1  0  0  0  0  0999 V2000
   18.5466  -13.7545  -18.7233 N   0  0  0  0  0  0  0  0  0  0  0  0
   18.3631  -13.8212  -17.3201 C   0  0  0  0  0  0  0  0  0  0  0  0
   17.6860  -14.7890  -16.8354 O   0  0  0  0  0  0  0  0  0  0  0  0
   18.9069  -12.8380  -16.3738 C   0  0  0  0  0  0  0  0  0  0  0  0
   19.6923  -11.7453  -17.0651 C   0  0  2  0  0  0  0  0  0  0  0  0
   20.8354  -12.3377  -17.6891 N   0  0  0  0  0  0  0  0  0  0  0  0
   20.0708  -10.7596  -16.0080 C   0  0  0  0  0  0  0  0  0  0  0  0
   19.1985  -10.3382  -15.2064 O   0  0  0  0  0  0  0  0  0  0  0  0
   23.9356   -9.3911  -15.6361 O   0  0  0  0  0  0  0  0  0  0  0  0
   23.2170   -9.5808  -14.4645 C   0  0  0  0  0  0  0  0  0  0  0  0
   21.7486   -9.3317  -14.7906 C   0  0  2  0  0  0  0  0  0  0  0  0
   21.3932  -10.2545  -15.8479 N   0  0  0  0  0  0  0  0  0  0  0  0
   21.5052   -7.9245  -15.1678 C   0  0  0  0  0  0  0  0  0  0  0  0
   21.7134   -7.5639  -16.3648 O   0  0  0  0  0  0  0  0  0  0  0  0
   21.0473   -6.9173  -14.2845 N   0  0  0  0  0  0  0  0  0  0  0  0
   20.8914   -5.5151  -14.7276 C   0  0  1  0  0  0  0  0  0  0  0  0
   19.5506   -5.0877  -14.2435 C   0  0  0  0  0  0  0  0  0  0  0  0
   19.1596   -3.7150  -14.5885 C   0  0  0  0  0  0  0  0  0  0  0  0
   19.8119   -3.0391  -15.4063 O   0  0  0  0  0  0  0  0  0  0  0  0
   22.0273   -4.7194  -14.2133 C   0  0  0  0  0  0  0  0  0  0  0  0
   22.5601   -3.6832  -14.9880 O   0  0  0  0  0  0  0  0  0  0  0  0
   18.0486   -3.1026  -14.0241 O   0  0  0  0  0  0  0  0  0  0  0  0
   22.5728   -4.8981  -13.1071 O   0  0  0  0  0  0  0  0  0  0  0  0
  2  1  1  0
  2  4  1  0
  3  2  2  0
  4  5  1  0
  5  6  1  1
  7 12  1  0
  7  5  1  0
  8  7  2  0
  9 10  1  0
 11 10  1  6
 11 13  1  0
 11 12  1  0
 13 15  1  0
 14 13  2  0
 15 16  1  0
 16 17  1  1
 17 18  1  0
 18 19  2  0
 20 16  1  0
 20 21  1  0
 22 18  1  0
 23 20  2  0
M  END
$$$$
