NSD.pdb
     RDKit          3D

 23 22  0  0  1  0  0  0  0  0999 V2000
   17.5852  -13.0136  -18.5893 N   0  0  0  0  0  0  0  0  0  0  0  0
   17.2363  -12.4771  -17.3253 C   0  0  0  0  0  0  0  0  0  0  0  0
   16.0076  -12.4736  -16.9785 O   0  0  0  0  0  0  0  0  0  0  0  0
   18.2070  -11.9173  -16.3753 C   0  0  0  0  0  0  0  0  0  0  0  0
   19.6301  -12.0179  -16.8783 C   0  0  2  0  0  0  0  0  0  0  0  0
   20.1117  -13.3376  -16.6076 N   0  0  0  0  0  0  0  0  0  0  0  0
   20.4119  -10.9699  -16.1552 C   0  0  0  0  0  0  0  0  0  0  0  0
   20.3269  -10.8799  -14.9039 O   0  0  0  0  0  0  0  0  0  0  0  0
   23.2125   -8.6218  -18.0871 O   0  0  0  0  0  0  0  0  0  0  0  0
   23.4324   -9.0338  -16.7806 C   0  0  0  0  0  0  0  0  0  0  0  0
   22.0748   -9.0815  -16.0882 C   0  0  2  0  0  0  0  0  0  0  0  0
   21.2700  -10.0421  -16.8128 N   0  0  0  0  0  0  0  0  0  0  0  0
   21.4436   -7.7472  -16.0337 C   0  0  0  0  0  0  0  0  0  0  0  0
   20.8359   -7.3122  -17.0572 O   0  0  0  0  0  0  0  0  0  0  0  0
   21.4592   -6.8898  -14.9072 N   0  0  0  0  0  0  0  0  0  0  0  0
   20.9958   -5.4884  -14.9978 C   0  0  1  0  0  0  0  0  0  0  0  0
   19.6474   -5.4698  -14.3683 C   0  0  0  0  0  0  0  0  0  0  0  0
   18.9725   -4.1658  -14.3531 C   0  0  0  0  0  0  0  0  0  0  0  0
   19.4767   -3.1661  -14.8987 O   0  0  0  0  0  0  0  0  0  0  0  0
   21.9987   -4.6083  -14.3593 C   0  0  0  0  0  0  0  0  0  0  0  0
   21.9499   -3.2263  -14.5724 O   0  0  0  0  0  0  0  0  0  0  0  0
   17.7439   -3.9804  -13.7332 O   0  0  0  0  0  0  0  0  0  0  0  0
   22.9194   -5.0056  -13.6192 O   0  0  0  0  0  0  0  0  0  0  0  0
  2  1  1  0
  2  4  1  0
  3  2  2  0
  4  5  1  0
  5  6  1  1
  7 12  1  0
  7  5  1  0
  8  7  2  0
  9 10  1  0
 11 10  1  6
 11 13  1  0
 11 12  1  0
 13 15  1  0
 14 13  2  0
 15 16  1  0
 16 17  1  1
 17 18  1  0
 18 19  2  0
 20 16  1  0
 20 21  1  0
 22 18  1  0
 23 20  2  0
M  END
$$$$
