NSD.pdb
     RDKit          3D

 23 22  0  0  1  0  0  0  0  0999 V2000
   15.6829  -11.3469  -18.0993 N   0  0  0  0  0  0  0  0  0  0  0  0
   15.8611   -9.9461  -17.9841 C   0  0  0  0  0  0  0  0  0  0  0  0
   15.2097   -9.1784  -18.7690 O   0  0  0  0  0  0  0  0  0  0  0  0
   16.7572   -9.3104  -17.0089 C   0  0  0  0  0  0  0  0  0  0  0  0
   17.4974  -10.3214  -16.1612 C   0  0  2  0  0  0  0  0  0  0  0  0
   16.5462  -11.0002  -15.3358 N   0  0  0  0  0  0  0  0  0  0  0  0
   18.4975   -9.5535  -15.3596 C   0  0  0  0  0  0  0  0  0  0  0  0
   18.1103   -8.8254  -14.4104 O   0  0  0  0  0  0  0  0  0  0  0  0
   22.2333  -10.4619  -14.0046 O   0  0  0  0  0  0  0  0  0  0  0  0
   22.1979   -9.4778  -14.9819 C   0  0  0  0  0  0  0  0  0  0  0  0
   20.8445   -8.7839  -14.8745 C   0  0  2  0  0  0  0  0  0  0  0  0
   19.8991   -9.5963  -15.6107 N   0  0  0  0  0  0  0  0  0  0  0  0
   20.9023   -7.3958  -15.3758 C   0  0  0  0  0  0  0  0  0  0  0  0
   20.9706   -7.1957  -16.6254 O   0  0  0  0  0  0  0  0  0  0  0  0
   20.8877   -6.2391  -14.5595 N   0  0  0  0  0  0  0  0  0  0  0  0
   21.0588   -4.8872  -15.1340 C   0  0  1  0  0  0  0  0  0  0  0  0
   19.8385   -4.1288  -14.7463 C   0  0  0  0  0  0  0  0  0  0  0  0
   19.8225   -2.7123  -15.1329 C   0  0  0  0  0  0  0  0  0  0  0  0
   20.3056   -2.3279  -16.2147 O   0  0  0  0  0  0  0  0  0  0  0  0
   22.3337   -4.3161  -14.6476 C   0  0  0  0  0  0  0  0  0  0  0  0
   22.8249   -4.6791  -13.3888 O   0  0  0  0  0  0  0  0  0  0  0  0
   19.2710   -1.7332  -14.3174 O   0  0  0  0  0  0  0  0  0  0  0  0
   23.0360   -3.5082  -15.2858 O   0  0  0  0  0  0  0  0  0  0  0  0
  2  1  1  0
  2  4  1  0
  3  2  2  0
  4  5  1  0
  5  6  1  1
  7 12  1  0
  7  5  1  0
  8  7  2  0
  9 10  1  0
 11 10  1  6
 11 13  1  0
 11 12  1  0
 13 15  1  0
 14 13  2  0
 15 16  1  0
 16 17  1  1
 17 18  1  0
 18 19  2  0
 20 16  1  0
 20 21  1  0
 22 18  1  0
 23 20  2  0
M  END
$$$$
