NSD.pdb
     RDKit          3D

 23 22  0  0  1  0  0  0  0  0999 V2000
   14.0629  -21.1852   -8.6385 N   0  0  0  0  0  0  0  0  0  0  0  0
   13.4387  -21.3745   -7.3809 C   0  0  0  0  0  0  0  0  0  0  0  0
   12.7189  -20.4333   -6.9057 O   0  0  0  0  0  0  0  0  0  0  0  0
   13.5664  -22.5975   -6.5772 C   0  0  0  0  0  0  0  0  0  0  0  0
   14.4777  -23.6187   -7.2218 C   0  0  2  0  0  0  0  0  0  0  0  0
   13.7574  -24.2638   -8.2762 N   0  0  0  0  0  0  0  0  0  0  0  0
   14.8786  -24.5718   -6.1433 C   0  0  0  0  0  0  0  0  0  0  0  0
   13.9957  -25.2019   -5.5072 O   0  0  0  0  0  0  0  0  0  0  0  0
   18.5257  -26.1570   -6.1168 O   0  0  0  0  0  0  0  0  0  0  0  0
   18.1312  -25.8935   -4.8130 C   0  0  0  0  0  0  0  0  0  0  0  0
   16.6082  -25.8218   -4.8084 C   0  0  2  0  0  0  0  0  0  0  0  0
   16.2345  -24.8175   -5.7817 N   0  0  0  0  0  0  0  0  0  0  0  0
   16.0808  -25.5227   -3.4616 C   0  0  0  0  0  0  0  0  0  0  0  0
   15.9987  -24.3145   -3.0877 O   0  0  0  0  0  0  0  0  0  0  0  0
   15.6474  -26.4946   -2.5277 N   0  0  0  0  0  0  0  0  0  0  0  0
   15.0785  -26.1072   -1.2188 C   0  0  1  0  0  0  0  0  0  0  0  0
   13.7414  -26.7572   -1.1540 C   0  0  0  0  0  0  0  0  0  0  0  0
   13.0472  -26.6526    0.1357 C   0  0  0  0  0  0  0  0  0  0  0  0
   13.2630  -25.7057    0.9155 O   0  0  0  0  0  0  0  0  0  0  0  0
   16.0209  -26.5022   -0.1493 C   0  0  0  0  0  0  0  0  0  0  0  0
   15.9314  -25.9066    1.1136 O   0  0  0  0  0  0  0  0  0  0  0  0
   12.1192  -27.5984    0.5506 O   0  0  0  0  0  0  0  0  0  0  0  0
   16.9230  -27.3521   -0.2798 O   0  0  0  0  0  0  0  0  0  0  0  0
  2  1  1  0
  2  4  1  0
  3  2  2  0
  4  5  1  0
  5  6  1  6
  7 12  1  0
  7  5  1  0
  8  7  2  0
  9 10  1  0
 11 10  1  1
 11 13  1  0
 11 12  1  0
 13 15  1  0
 14 13  2  0
 15 16  1  0
 16 17  1  1
 17 18  1  0
 18 19  2  0
 20 16  1  0
 20 21  1  0
 22 18  1  0
 23 20  2  0
M  END
$$$$
