FPC.pdb
     RDKit          3D

 25 26  0  0  1  0  0  0  0  0999 V2000
    5.7024  -17.8384   25.2746 N   0  0  0  0  0  0  0  0  0  0  0  0
    6.3148  -16.5535   25.2343 C   0  0  1  0  0  0  0  0  0  0  0  0
    6.7248  -16.1098   26.6034 C   0  0  0  0  0  0  0  0  0  0  0  0
    6.9945  -14.6621   26.5963 C   0  0  0  0  0  0  0  0  0  0  0  0
    5.9939  -13.7224   26.6230 C   0  0  0  0  0  0  0  0  0  0  0  0
    6.2797  -12.3554   26.6010 C   0  0  0  0  0  0  0  0  0  0  0  0
    7.5883  -11.9249   26.5520 C   0  0  0  0  0  0  0  0  0  0  0  0
    8.6087  -12.8626   26.5252 C   0  0  0  0  0  0  0  0  0  0  0  0
    8.2989  -14.2135   26.5476 C   0  0  0  0  0  0  0  0  0  0  0  0
    7.4528  -16.4753   24.2890 C   0  0  0  0  0  0  0  0  0  0  0  0
    8.4012  -17.2949   24.5335 O   0  0  0  0  0  0  0  0  0  0  0  0
    7.5426  -15.5916   23.1933 N   0  0  0  0  0  0  0  0  0  0  0  0
    6.5188  -14.6696   22.7578 C   0  0  0  0  0  0  0  0  0  0  0  0
    7.0194  -14.2488   21.3690 C   0  0  0  0  0  0  0  0  0  0  0  0
    8.5045  -14.1612   21.6112 C   0  0  0  0  0  0  0  0  0  0  0  0
    8.7206  -15.5043   22.3239 C   0  0  1  0  0  0  0  0  0  0  0  0
    9.9814  -15.3726   23.0889 C   0  0  0  0  0  0  0  0  0  0  0  0
   10.2141  -14.5357   23.9796 O   0  0  0  0  0  0  0  0  0  0  0  0
   11.0215  -16.2870   22.7765 N   0  0  0  0  0  0  0  0  0  0  0  0
   12.3944  -16.0703   23.2516 C   0  0  1  0  0  0  0  0  0  0  0  0
   12.6548  -17.0406   24.4028 C   0  0  0  0  0  0  0  0  0  0  0  0
   11.0266  -17.6350   24.9877 S   0  0  0  0  0  0  0  0  0  0  0  0
   13.3662  -16.4191   22.1837 C   0  0  0  0  0  0  0  0  0  0  0  0
   12.9407  -16.9600   21.1355 O   0  0  0  0  0  0  0  0  0  0  0  0
   14.7193  -16.1736   22.2948 O   0  0  0  0  0  0  0  0  0  0  0  0
  2  1  1  1
  2 10  1  0
  3  2  1  0
  4  3  1  0
  5  4  2  0
  6  5  1  0
  7  8  1  0
  7  6  2  0
  8  9  2  0
  9  4  1  0
 10 12  1  0
 10 11  2  0
 12 16  1  0
 13 12  1  0
 14 13  1  0
 14 15  1  0
 15 16  1  0
 17 19  1  0
 16 17  1  1
 18 17  2  0
 20 19  1  0
 20 21  1  1
 21 22  1  0
 23 25  1  0
 23 20  1  0
 24 23  2  0
M  END
$$$$
