FPC.pdb
     RDKit          3D

 25 26  0  0  1  0  0  0  0  0999 V2000
    5.9165  -17.7960   25.4964 N   0  0  0  0  0  0  0  0  0  0  0  0
    6.5354  -16.5269   25.3119 C   0  0  1  0  0  0  0  0  0  0  0  0
    7.0749  -15.9986   26.6040 C   0  0  0  0  0  0  0  0  0  0  0  0
    7.1265  -14.5277   26.5561 C   0  0  0  0  0  0  0  0  0  0  0  0
    8.3074  -13.8297   26.4989 C   0  0  0  0  0  0  0  0  0  0  0  0
    8.3257  -12.4334   26.4689 C   0  0  0  0  0  0  0  0  0  0  0  0
    7.1423  -11.7271   26.4961 C   0  0  0  0  0  0  0  0  0  0  0  0
    5.9425  -12.4189   26.5533 C   0  0  0  0  0  0  0  0  0  0  0  0
    5.9510  -13.8047   26.5824 C   0  0  0  0  0  0  0  0  0  0  0  0
    7.5815  -16.5312   24.2631 C   0  0  0  0  0  0  0  0  0  0  0  0
    8.4977  -17.4047   24.4329 O   0  0  0  0  0  0  0  0  0  0  0  0
    7.6206  -15.6687   23.1477 N   0  0  0  0  0  0  0  0  0  0  0  0
    6.5887  -14.7357   22.7571 C   0  0  0  0  0  0  0  0  0  0  0  0
    7.0119  -14.3487   21.3333 C   0  0  0  0  0  0  0  0  0  0  0  0
    8.5103  -14.2845   21.4843 C   0  0  0  0  0  0  0  0  0  0  0  0
    8.7454  -15.6186   22.2077 C   0  0  1  0  0  0  0  0  0  0  0  0
   10.0521  -15.4968   22.8932 C   0  0  0  0  0  0  0  0  0  0  0  0
   10.3971  -14.5756   23.6549 O   0  0  0  0  0  0  0  0  0  0  0  0
   10.9995  -16.5279   22.6592 N   0  0  0  0  0  0  0  0  0  0  0  0
   12.3597  -16.4516   23.2082 C   0  0  1  0  0  0  0  0  0  0  0  0
   12.4866  -17.5078   24.3050 C   0  0  0  0  0  0  0  0  0  0  0  0
   11.2918  -17.0691   25.6189 S   0  0  0  0  0  0  0  0  0  0  0  0
   13.3535  -16.8119   22.1647 C   0  0  0  0  0  0  0  0  0  0  0  0
   12.9391  -17.2191   21.0534 O   0  0  0  0  0  0  0  0  0  0  0  0
   14.7153  -16.7182   22.3648 O   0  0  0  0  0  0  0  0  0  0  0  0
  2  1  1  1
  2 10  1  0
  3  2  1  0
  4  3  1  0
  5  4  2  0
  6  5  1  0
  7  8  1  0
  7  6  2  0
  8  9  2  0
  9  4  1  0
 10 12  1  0
 10 11  2  0
 12 16  1  0
 13 12  1  0
 14 13  1  0
 14 15  1  0
 15 16  1  0
 17 19  1  0
 16 17  1  1
 18 17  2  0
 20 19  1  0
 20 21  1  1
 21 22  1  0
 23 25  1  0
 23 20  1  0
 24 23  2  0
M  END
$$$$
