FPC.pdb
     RDKit          3D

 25 26  0  0  1  0  0  0  0  0999 V2000
    5.8289  -17.9947   24.9408 N   0  0  0  0  0  0  0  0  0  0  0  0
    6.3217  -16.6592   24.9760 C   0  0  1  0  0  0  0  0  0  0  0  0
    6.5607  -16.2109   26.3836 C   0  0  0  0  0  0  0  0  0  0  0  0
    6.7591  -14.7519   26.4132 C   0  0  0  0  0  0  0  0  0  0  0  0
    5.7295  -13.8610   26.2374 C   0  0  0  0  0  0  0  0  0  0  0  0
    5.9503  -12.4820   26.2564 C   0  0  0  0  0  0  0  0  0  0  0  0
    7.2224  -11.9896   26.4551 C   0  0  0  0  0  0  0  0  0  0  0  0
    8.2714  -12.8777   26.6346 C   0  0  0  0  0  0  0  0  0  0  0  0
    8.0263  -14.2418   26.6112 C   0  0  0  0  0  0  0  0  0  0  0  0
    7.5302  -16.4576   24.1433 C   0  0  0  0  0  0  0  0  0  0  0  0
    8.5108  -17.2200   24.4402 O   0  0  0  0  0  0  0  0  0  0  0  0
    7.6518  -15.5189   23.0974 N   0  0  0  0  0  0  0  0  0  0  0  0
    6.6409  -14.5746   22.6800 C   0  0  0  0  0  0  0  0  0  0  0  0
    7.1817  -14.0837   21.3299 C   0  0  0  0  0  0  0  0  0  0  0  0
    8.6592  -14.0105   21.6195 C   0  0  0  0  0  0  0  0  0  0  0  0
    8.8547  -15.3887   22.2684 C   0  0  1  0  0  0  0  0  0  0  0  0
   10.0925  -15.2978   23.0757 C   0  0  0  0  0  0  0  0  0  0  0  0
   10.1942  -14.7896   24.2067 O   0  0  0  0  0  0  0  0  0  0  0  0
   11.2734  -15.8417   22.5053 N   0  0  0  0  0  0  0  0  0  0  0  0
   12.5010  -15.9949   23.2971 C   0  0  1  0  0  0  0  0  0  0  0  0
   12.2224  -17.0034   24.4107 C   0  0  0  0  0  0  0  0  0  0  0  0
   13.7437  -17.1300   25.4185 S   0  0  0  0  0  0  0  0  0  0  0  0
   13.5787  -16.5834   22.4612 C   0  0  0  0  0  0  0  0  0  0  0  0
   13.2913  -17.5224   21.6816 O   0  0  0  0  0  0  0  0  0  0  0  0
   14.8849  -16.1412   22.5051 O   0  0  0  0  0  0  0  0  0  0  0  0
  2  1  1  1
  2 10  1  0
  3  2  1  0
  4  3  1  0
  5  4  2  0
  6  5  1  0
  7  8  1  0
  7  6  2  0
  8  9  2  0
  9  4  1  0
 10 12  1  0
 10 11  2  0
 12 16  1  0
 13 12  1  0
 14 13  1  0
 14 15  1  0
 15 16  1  0
 17 19  1  0
 16 17  1  1
 18 17  2  0
 20 19  1  0
 20 21  1  1
 21 22  1  0
 23 25  1  0
 23 20  1  0
 24 23  2  0
M  END
$$$$
