FPC.pdb
     RDKit          3D

 25 26  0  0  1  0  0  0  0  0999 V2000
    6.6246  -16.2990   25.9657 N   0  0  0  0  0  0  0  0  0  0  0  0
    6.3913  -15.9885   24.5958 C   0  0  1  0  0  0  0  0  0  0  0  0
    5.8685  -14.5947   24.4416 C   0  0  0  0  0  0  0  0  0  0  0  0
    6.4295  -13.7344   25.4970 C   0  0  0  0  0  0  0  0  0  0  0  0
    7.7594  -13.3974   25.5485 C   0  0  0  0  0  0  0  0  0  0  0  0
    8.2658  -12.5908   26.5701 C   0  0  0  0  0  0  0  0  0  0  0  0
    7.4258  -12.1148   27.5540 C   0  0  0  0  0  0  0  0  0  0  0  0
    6.0805  -12.4467   27.5141 C   0  0  0  0  0  0  0  0  0  0  0  0
    5.6025  -13.2490   26.4898 C   0  0  0  0  0  0  0  0  0  0  0  0
    7.5763  -16.2082   23.7343 C   0  0  0  0  0  0  0  0  0  0  0  0
    8.4231  -17.0422   24.2016 O   0  0  0  0  0  0  0  0  0  0  0  0
    7.8093  -15.5793   22.4934 N   0  0  0  0  0  0  0  0  0  0  0  0
    6.9339  -14.6322   21.8419 C   0  0  0  0  0  0  0  0  0  0  0  0
    7.5133  -14.5662   20.4219 C   0  0  0  0  0  0  0  0  0  0  0  0
    8.9914  -14.6338   20.7093 C   0  0  0  0  0  0  0  0  0  0  0  0
    9.0030  -15.8258   21.6775 C   0  0  1  0  0  0  0  0  0  0  0  0
   10.2560  -15.7166   22.4587 C   0  0  0  0  0  0  0  0  0  0  0  0
   10.5687  -14.7799   23.2154 O   0  0  0  0  0  0  0  0  0  0  0  0
   11.1875  -16.7806   22.3319 N   0  0  0  0  0  0  0  0  0  0  0  0
   12.4780  -16.7506   23.0326 C   0  0  1  0  0  0  0  0  0  0  0  0
   12.6154  -18.0494   23.8258 C   0  0  0  0  0  0  0  0  0  0  0  0
   11.2863  -18.0583   25.0827 S   0  0  0  0  0  0  0  0  0  0  0  0
   13.5929  -16.7411   22.0510 C   0  0  0  0  0  0  0  0  0  0  0  0
   13.3254  -16.8851   20.8345 O   0  0  0  0  0  0  0  0  0  0  0  0
   14.9126  -16.5805   22.4199 O   0  0  0  0  0  0  0  0  0  0  0  0
  2  1  1  1
  2 10  1  0
  3  2  1  0
  4  3  1  0
  5  4  2  0
  6  5  1  0
  7  8  1  0
  7  6  2  0
  8  9  2  0
  9  4  1  0
 10 12  1  0
 10 11  2  0
 12 16  1  0
 13 12  1  0
 14 13  1  0
 14 15  1  0
 15 16  1  0
 17 19  1  0
 16 17  1  1
 18 17  2  0
 20 19  1  0
 20 21  1  1
 21 22  1  0
 23 25  1  0
 23 20  1  0
 24 23  2  0
M  END
$$$$
