FPC.pdb
     RDKit          3D

 25 26  0  0  1  0  0  0  0  0999 V2000
    5.8132  -17.6965   25.1538 N   0  0  0  0  0  0  0  0  0  0  0  0
    6.4358  -16.4256   24.9957 C   0  0  1  0  0  0  0  0  0  0  0  0
    6.8995  -15.8863   26.3125 C   0  0  0  0  0  0  0  0  0  0  0  0
    6.7748  -14.4190   26.3198 C   0  0  0  0  0  0  0  0  0  0  0  0
    7.7774  -13.5885   25.8841 C   0  0  0  0  0  0  0  0  0  0  0  0
    7.6359  -12.1993   25.9162 C   0  0  0  0  0  0  0  0  0  0  0  0
    6.4716  -11.6352   26.3918 C   0  0  0  0  0  0  0  0  0  0  0  0
    5.4507  -12.4618   26.8345 C   0  0  0  0  0  0  0  0  0  0  0  0
    5.6157  -13.8374   26.7926 C   0  0  0  0  0  0  0  0  0  0  0  0
    7.5393  -16.4318   24.0074 C   0  0  0  0  0  0  0  0  0  0  0  0
    8.4617  -17.2813   24.2492 O   0  0  0  0  0  0  0  0  0  0  0  0
    7.6238  -15.5946   22.8753 N   0  0  0  0  0  0  0  0  0  0  0  0
    6.6573  -14.5949   22.4824 C   0  0  0  0  0  0  0  0  0  0  0  0
    7.0848  -14.2658   21.0453 C   0  0  0  0  0  0  0  0  0  0  0  0
    8.5861  -14.3100   21.1729 C   0  0  0  0  0  0  0  0  0  0  0  0
    8.7338  -15.6447   21.9180 C   0  0  1  0  0  0  0  0  0  0  0  0
   10.0569  -15.6077   22.5817 C   0  0  0  0  0  0  0  0  0  0  0  0
   10.4648  -14.7218   23.3541 O   0  0  0  0  0  0  0  0  0  0  0  0
   10.9423  -16.6841   22.3110 N   0  0  0  0  0  0  0  0  0  0  0  0
   12.3215  -16.6813   22.8161 C   0  0  1  0  0  0  0  0  0  0  0  0
   12.4843  -17.8777   23.7524 C   0  0  0  0  0  0  0  0  0  0  0  0
   11.5093  -17.5220   25.2588 S   0  0  0  0  0  0  0  0  0  0  0  0
   13.2761  -16.8933   21.6980 C   0  0  0  0  0  0  0  0  0  0  0  0
   12.8241  -17.2110   20.5723 O   0  0  0  0  0  0  0  0  0  0  0  0
   14.6411  -16.7559   21.8439 O   0  0  0  0  0  0  0  0  0  0  0  0
  2  1  1  1
  2 10  1  0
  3  2  1  0
  4  3  1  0
  5  4  2  0
  6  5  1  0
  7  8  1  0
  7  6  2  0
  8  9  2  0
  9  4  1  0
 10 12  1  0
 10 11  2  0
 12 16  1  0
 13 12  1  0
 14 13  1  0
 14 15  1  0
 15 16  1  0
 17 19  1  0
 16 17  1  1
 18 17  2  0
 20 19  1  0
 20 21  1  1
 21 22  1  0
 23 25  1  0
 23 20  1  0
 24 23  2  0
M  END
$$$$
