FPC.pdb
     RDKit          3D

 25 26  0  0  1  0  0  0  0  0999 V2000
    6.3329  -16.5913   26.0126 N   0  0  0  0  0  0  0  0  0  0  0  0
    6.1909  -16.1496   24.6664 C   0  0  1  0  0  0  0  0  0  0  0  0
    5.6061  -14.7732   24.6107 C   0  0  0  0  0  0  0  0  0  0  0  0
    6.2893  -13.9037   25.5833 C   0  0  0  0  0  0  0  0  0  0  0  0
    7.5956  -13.5087   25.4338 C   0  0  0  0  0  0  0  0  0  0  0  0
    8.2219  -12.6949   26.3805 C   0  0  0  0  0  0  0  0  0  0  0  0
    7.5274  -12.2707   27.4931 C   0  0  0  0  0  0  0  0  0  0  0  0
    6.2076  -12.6615   27.6567 C   0  0  0  0  0  0  0  0  0  0  0  0
    5.6088  -13.4697   26.7030 C   0  0  0  0  0  0  0  0  0  0  0  0
    7.4499  -16.2223   23.8891 C   0  0  0  0  0  0  0  0  0  0  0  0
    8.3752  -16.9063   24.4432 O   0  0  0  0  0  0  0  0  0  0  0  0
    7.6718  -15.6091   22.6384 N   0  0  0  0  0  0  0  0  0  0  0  0
    6.7498  -14.7432   21.9398 C   0  0  0  0  0  0  0  0  0  0  0  0
    7.3618  -14.6710   20.5340 C   0  0  0  0  0  0  0  0  0  0  0  0
    8.8326  -14.6258   20.8607 C   0  0  0  0  0  0  0  0  0  0  0  0
    8.9018  -15.7898   21.8601 C   0  0  1  0  0  0  0  0  0  0  0  0
   10.1221  -15.5723   22.6699 C   0  0  0  0  0  0  0  0  0  0  0  0
   10.3828  -14.5606   23.3454 O   0  0  0  0  0  0  0  0  0  0  0  0
   11.0844  -16.6162   22.6757 N   0  0  0  0  0  0  0  0  0  0  0  0
   12.3342  -16.4958   23.4378 C   0  0  1  0  0  0  0  0  0  0  0  0
   12.3585  -17.6086   24.4847 C   0  0  0  0  0  0  0  0  0  0  0  0
   10.9667  -17.3023   25.6316 S   0  0  0  0  0  0  0  0  0  0  0  0
   13.5003  -16.7336   22.5489 C   0  0  0  0  0  0  0  0  0  0  0  0
   14.6516  -16.5120   22.9936 O   0  0  0  0  0  0  0  0  0  0  0  0
   13.3721  -17.1885   21.2527 O   0  0  0  0  0  0  0  0  0  0  0  0
  2  1  1  1
  2 10  1  0
  3  2  1  0
  4  3  1  0
  5  4  2  0
  6  5  1  0
  7  8  1  0
  7  6  2  0
  8  9  2  0
  9  4  1  0
 10 12  1  0
 10 11  2  0
 12 16  1  0
 13 12  1  0
 14 13  1  0
 14 15  1  0
 15 16  1  0
 17 19  1  0
 16 17  1  1
 18 17  2  0
 20 19  1  0
 20 21  1  1
 21 22  1  0
 23 25  1  0
 23 20  1  0
 24 23  2  0
M  END
$$$$
