FPC.pdb
     RDKit          3D

 25 26  0  0  1  0  0  0  0  0999 V2000
    6.0890  -17.9767   25.3882 N   0  0  0  0  0  0  0  0  0  0  0  0
    6.5436  -16.6345   25.2489 C   0  0  1  0  0  0  0  0  0  0  0  0
    6.9118  -16.0507   26.5768 C   0  0  0  0  0  0  0  0  0  0  0  0
    7.0717  -14.5921   26.4508 C   0  0  0  0  0  0  0  0  0  0  0  0
    8.2983  -13.9763   26.4821 C   0  0  0  0  0  0  0  0  0  0  0  0
    8.4180  -12.5889   26.3744 C   0  0  0  0  0  0  0  0  0  0  0  0
    7.2909  -11.8080   26.2329 C   0  0  0  0  0  0  0  0  0  0  0  0
    6.0459  -12.4165   26.1993 C   0  0  0  0  0  0  0  0  0  0  0  0
    5.9537  -13.7953   26.3083 C   0  0  0  0  0  0  0  0  0  0  0  0
    7.6544  -16.4888   24.2797 C   0  0  0  0  0  0  0  0  0  0  0  0
    8.6652  -17.2323   24.5175 O   0  0  0  0  0  0  0  0  0  0  0  0
    7.6578  -15.6195   23.1689 N   0  0  0  0  0  0  0  0  0  0  0  0
    6.5800  -14.7433   22.7709 C   0  0  0  0  0  0  0  0  0  0  0  0
    6.9969  -14.3257   21.3539 C   0  0  0  0  0  0  0  0  0  0  0  0
    8.4876  -14.1789   21.5225 C   0  0  0  0  0  0  0  0  0  0  0  0
    8.7886  -15.5018   22.2422 C   0  0  1  0  0  0  0  0  0  0  0  0
   10.0787  -15.3111   22.9433 C   0  0  0  0  0  0  0  0  0  0  0  0
   10.2681  -14.6060   23.9506 O   0  0  0  0  0  0  0  0  0  0  0  0
   11.2044  -15.9972   22.4164 N   0  0  0  0  0  0  0  0  0  0  0  0
   12.4971  -15.9879   23.1136 C   0  0  1  0  0  0  0  0  0  0  0  0
   12.3450  -16.7951   24.4020 C   0  0  0  0  0  0  0  0  0  0  0  0
   14.0068  -16.9304   25.1546 S   0  0  0  0  0  0  0  0  0  0  0  0
   13.5223  -16.6901   22.2997 C   0  0  0  0  0  0  0  0  0  0  0  0
   14.6530  -16.1635   22.1707 O   0  0  0  0  0  0  0  0  0  0  0  0
   13.2847  -17.8987   21.6782 O   0  0  0  0  0  0  0  0  0  0  0  0
  2  1  1  1
  2 10  1  0
  3  2  1  0
  4  3  1  0
  5  4  2  0
  6  5  1  0
  7  8  1  0
  7  6  2  0
  8  9  2  0
  9  4  1  0
 10 12  1  0
 10 11  2  0
 12 16  1  0
 13 12  1  0
 14 13  1  0
 14 15  1  0
 15 16  1  0
 17 19  1  0
 16 17  1  1
 18 17  2  0
 20 19  1  0
 20 21  1  1
 21 22  1  0
 23 25  1  0
 23 20  1  0
 24 23  2  0
M  END
$$$$
