FPC.pdb
     RDKit          3D

 25 26  0  0  1  0  0  0  0  0999 V2000
    5.9060  -17.9642   25.0899 N   0  0  0  0  0  0  0  0  0  0  0  0
    6.3463  -16.6101   25.1008 C   0  0  1  0  0  0  0  0  0  0  0  0
    6.5163  -16.1110   26.5014 C   0  0  0  0  0  0  0  0  0  0  0  0
    6.6107  -14.6414   26.4968 C   0  0  0  0  0  0  0  0  0  0  0  0
    7.8111  -13.9764   26.5366 C   0  0  0  0  0  0  0  0  0  0  0  0
    7.8691  -12.5809   26.5455 C   0  0  0  0  0  0  0  0  0  0  0  0
    6.7060  -11.8418   26.5137 C   0  0  0  0  0  0  0  0  0  0  0  0
    5.4868  -12.5001   26.4728 C   0  0  0  0  0  0  0  0  0  0  0  0
    5.4560  -13.8859   26.4650 C   0  0  0  0  0  0  0  0  0  0  0  0
    7.5761  -16.3866   24.3058 C   0  0  0  0  0  0  0  0  0  0  0  0
    8.5596  -17.1336   24.6308 O   0  0  0  0  0  0  0  0  0  0  0  0
    7.7140  -15.4432   23.2662 N   0  0  0  0  0  0  0  0  0  0  0  0
    6.7452  -14.4370   22.8964 C   0  0  0  0  0  0  0  0  0  0  0  0
    7.2643  -13.9609   21.5325 C   0  0  0  0  0  0  0  0  0  0  0  0
    8.7530  -13.9767   21.7681 C   0  0  0  0  0  0  0  0  0  0  0  0
    8.8915  -15.3720   22.3947 C   0  0  1  0  0  0  0  0  0  0  0  0
   10.1610  -15.3629   23.1567 C   0  0  0  0  0  0  0  0  0  0  0  0
   10.5027  -14.5160   24.0015 O   0  0  0  0  0  0  0  0  0  0  0  0
   11.0733  -16.4198   22.8987 N   0  0  0  0  0  0  0  0  0  0  0  0
   12.3809  -16.4769   23.5651 C   0  0  1  0  0  0  0  0  0  0  0  0
   12.3712  -17.6665   24.5240 C   0  0  0  0  0  0  0  0  0  0  0  0
   11.2286  -17.2500   25.8905 S   0  0  0  0  0  0  0  0  0  0  0  0
   13.4501  -16.7509   22.5709 C   0  0  0  0  0  0  0  0  0  0  0  0
   14.6463  -16.6050   22.9175 O   0  0  0  0  0  0  0  0  0  0  0  0
   13.1843  -17.1598   21.2804 O   0  0  0  0  0  0  0  0  0  0  0  0
  2  1  1  1
  2 10  1  0
  3  2  1  0
  4  3  1  0
  5  4  2  0
  6  5  1  0
  7  8  1  0
  7  6  2  0
  8  9  2  0
  9  4  1  0
 10 12  1  0
 10 11  2  0
 12 16  1  0
 13 12  1  0
 14 13  1  0
 14 15  1  0
 15 16  1  0
 17 19  1  0
 16 17  1  1
 18 17  2  0
 20 19  1  0
 20 21  1  1
 21 22  1  0
 23 25  1  0
 23 20  1  0
 24 23  2  0
M  END
$$$$
