NKY.pdb
     RDKit          3D

 30 30  0  0  1  0  0  0  0  0999 V2000
   11.4303  -16.8554   11.3727 N   0  0  0  0  0  0  0  0  0  0  0  0
   10.6824  -17.4299   12.4194 C   0  0  0  0  0  0  0  0  0  0  0  0
    9.4479  -17.6671   12.2249 O   0  0  0  0  0  0  0  0  0  0  0  0
   11.3165  -17.7578   13.7229 C   0  0  0  0  0  0  0  0  0  0  0  0
   12.7972  -17.4453   13.6343 C   0  0  2  0  0  0  0  0  0  0  0  0
   13.2488  -17.4472   12.2773 N   0  0  0  0  0  0  0  0  0  0  0  0
   13.6142  -18.2781   14.5433 C   0  0  0  0  0  0  0  0  0  0  0  0
   13.3172  -18.2816   15.7645 O   0  0  0  0  0  0  0  0  0  0  0  0
   14.7299  -19.0796   14.0902 N   0  0  0  0  0  0  0  0  0  0  0  0
   15.4526  -19.9164   15.0084 C   0  0  1  0  0  0  0  0  0  0  0  0
   16.4065  -20.8652   14.3645 C   0  0  0  0  0  0  0  0  0  0  0  0
   17.0096  -21.9011   15.2184 C   0  0  0  0  0  0  0  0  0  0  0  0
   17.9332  -22.8428   14.5276 C   0  0  0  0  0  0  0  0  0  0  0  0
   18.3477  -23.8681   15.6145 C   0  0  0  0  0  0  0  0  0  0  0  0
   19.3316  -24.7211   14.9486 N   0  0  0  0  0  0  0  0  0  0  0  0
   16.3251  -19.0025   15.8512 C   0  0  0  0  0  0  0  0  0  0  0  0
   16.8121  -18.0242   15.3085 O   0  0  0  0  0  0  0  0  0  0  0  0
   14.2107  -22.3600   22.1263 O   0  0  0  0  0  0  0  0  0  0  0  0
   14.7630  -21.2717   21.4189 C   0  0  0  0  0  0  0  0  0  0  0  0
   14.0219  -20.5412   20.5258 C   0  0  0  0  0  0  0  0  0  0  0  0
   14.5563  -19.4903   19.8430 C   0  0  0  0  0  0  0  0  0  0  0  0
   15.8914  -19.1021   20.0193 C   0  0  0  0  0  0  0  0  0  0  0  0
   16.4618  -17.9787   19.2711 C   0  0  0  0  0  0  0  0  0  0  0  0
   17.2981  -18.4343   18.1062 C   0  0  2  0  0  0  0  0  0  0  0  0
   16.5543  -19.2841   17.2077 N   0  0  0  0  0  0  0  0  0  0  0  0
   18.5111  -19.1644   18.5314 C   0  0  0  0  0  0  0  0  0  0  0  0
   19.5022  -18.4908   19.2413 O   0  0  0  0  0  0  0  0  0  0  0  0
   16.6357  -19.8400   20.9208 C   0  0  0  0  0  0  0  0  0  0  0  0
   16.0859  -20.9097   21.6133 C   0  0  0  0  0  0  0  0  0  0  0  0
   18.7323  -20.3755   18.3016 O   0  0  0  0  0  0  0  0  0  0  0  0
  2  1  1  0
  2  3  2  0
  4  5  1  0
  4  2  1  0
  5  7  1  0
  5  6  1  6
  7  8  2  0
  9 10  1  0
  9  7  1  0
 11 12  1  0
 10 11  1  6
 12 13  1  0
 13 14  1  0
 14 15  1  0
 16 17  2  0
 16 10  1  0
 18 19  1  0
 19 20  2  0
 19 29  1  0
 20 21  1  0
 21 22  2  0
 22 23  1  0
 24 23  1  1
 24 26  1  0
 24 25  1  0
 25 16  1  0
 26 27  1  0
 28 22  1  0
 29 28  2  0
 30 26  2  0
M  END
$$$$
