NKY.pdb
     RDKit          3D

 30 30  0  0  1  0  0  0  0  0999 V2000
    8.3554  -12.6428   16.6652 N   0  0  0  0  0  0  0  0  0  0  0  0
    7.8194  -13.9136   16.9528 C   0  0  0  0  0  0  0  0  0  0  0  0
    7.8280  -14.7977   16.0383 O   0  0  0  0  0  0  0  0  0  0  0  0
    7.2587  -14.2222   18.2941 C   0  0  0  0  0  0  0  0  0  0  0  0
    8.3377  -14.8802   19.1314 C   0  0  2  0  0  0  0  0  0  0  0  0
    9.0750  -15.8395   18.3689 N   0  0  0  0  0  0  0  0  0  0  0  0
    7.8282  -15.3966   20.4201 C   0  0  0  0  0  0  0  0  0  0  0  0
    7.3759  -14.5671   21.2490 O   0  0  0  0  0  0  0  0  0  0  0  0
    7.8297  -16.8018   20.7633 N   0  0  0  0  0  0  0  0  0  0  0  0
    7.4504  -17.2357   22.0799 C   0  0  1  0  0  0  0  0  0  0  0  0
    7.1948  -18.7002   22.2012 C   0  0  0  0  0  0  0  0  0  0  0  0
    6.9446  -19.2333   23.5500 C   0  0  0  0  0  0  0  0  0  0  0  0
    6.5761  -20.6746   23.6108 C   0  0  0  0  0  0  0  0  0  0  0  0
    6.2038  -20.9314   25.0940 C   0  0  0  0  0  0  0  0  0  0  0  0
    5.9146  -22.3640   25.1500 N   0  0  0  0  0  0  0  0  0  0  0  0
    8.6348  -16.9724   22.9937 C   0  0  0  0  0  0  0  0  0  0  0  0
    9.7365  -17.3324   22.6123 O   0  0  0  0  0  0  0  0  0  0  0  0
    5.1636  -11.6621   27.0736 O   0  0  0  0  0  0  0  0  0  0  0  0
    6.2959  -12.3604   26.6045 C   0  0  0  0  0  0  0  0  0  0  0  0
    7.3137  -12.7319   27.4451 C   0  0  0  0  0  0  0  0  0  0  0  0
    8.4069  -13.4063   26.9909 C   0  0  0  0  0  0  0  0  0  0  0  0
    8.5466  -13.7550   25.6408 C   0  0  0  0  0  0  0  0  0  0  0  0
    9.7319  -14.4689   25.1585 C   0  0  0  0  0  0  0  0  0  0  0  0
    9.5260  -15.9590   25.1228 C   0  0  2  0  0  0  0  0  0  0  0  0
    8.4548  -16.3342   24.2315 N   0  0  0  0  0  0  0  0  0  0  0  0
    9.2325  -16.5220   26.4576 C   0  0  0  0  0  0  0  0  0  0  0  0
    8.0266  -17.1856   26.6709 O   0  0  0  0  0  0  0  0  0  0  0  0
    7.5187  -13.3797   24.7960 C   0  0  0  0  0  0  0  0  0  0  0  0
    6.4076  -12.6927   25.2643 C   0  0  0  0  0  0  0  0  0  0  0  0
    9.9988  -16.4523   27.4458 O   0  0  0  0  0  0  0  0  0  0  0  0
  2  1  1  0
  2  3  2  0
  4  5  1  0
  4  2  1  0
  5  7  1  0
  5  6  1  6
  7  8  2  0
  9 10  1  0
  9  7  1  0
 11 12  1  0
 10 11  1  6
 12 13  1  0
 13 14  1  0
 14 15  1  0
 16 17  2  0
 16 10  1  0
 18 19  1  0
 19 20  2  0
 19 29  1  0
 20 21  1  0
 21 22  2  0
 22 23  1  0
 24 23  1  1
 24 26  1  0
 24 25  1  0
 25 16  1  0
 26 27  1  0
 28 22  1  0
 29 28  2  0
 30 26  2  0
M  END
$$$$
