NKY.pdb
     RDKit          3D

 30 30  0  0  1  0  0  0  0  0999 V2000
   12.9015  -21.6078   19.4162 N   0  0  0  0  0  0  0  0  0  0  0  0
   11.9547  -21.2482   20.3957 C   0  0  0  0  0  0  0  0  0  0  0  0
   10.7525  -21.6377   20.2505 O   0  0  0  0  0  0  0  0  0  0  0  0
   12.3462  -20.4355   21.5768 C   0  0  0  0  0  0  0  0  0  0  0  0
   13.0385  -19.1771   21.0918 C   0  0  2  0  0  0  0  0  0  0  0  0
   14.4087  -19.1471   21.5001 N   0  0  0  0  0  0  0  0  0  0  0  0
   12.2849  -17.9467   21.4170 C   0  0  0  0  0  0  0  0  0  0  0  0
   12.8220  -17.1150   22.1913 O   0  0  0  0  0  0  0  0  0  0  0  0
   10.9689  -17.6641   20.8873 N   0  0  0  0  0  0  0  0  0  0  0  0
   10.2356  -16.5074   21.3232 C   0  0  1  0  0  0  0  0  0  0  0  0
    9.2798  -15.9625   20.3162 C   0  0  0  0  0  0  0  0  0  0  0  0
    8.5860  -14.7086   20.6519 C   0  0  0  0  0  0  0  0  0  0  0  0
    7.6512  -14.1960   19.6126 C   0  0  0  0  0  0  0  0  0  0  0  0
    7.1077  -12.8613   20.1850 C   0  0  0  0  0  0  0  0  0  0  0  0
    6.0611  -12.4650   19.2434 N   0  0  0  0  0  0  0  0  0  0  0  0
    9.3636  -16.9458   22.4870 C   0  0  0  0  0  0  0  0  0  0  0  0
    9.4093  -18.1189   22.8197 O   0  0  0  0  0  0  0  0  0  0  0  0
   10.2458  -14.8669   30.6902 O   0  0  0  0  0  0  0  0  0  0  0  0
   10.1707  -14.9716   29.2855 C   0  0  0  0  0  0  0  0  0  0  0  0
    9.6637  -13.9585   28.5128 C   0  0  0  0  0  0  0  0  0  0  0  0
    9.5915  -14.0607   27.1561 C   0  0  0  0  0  0  0  0  0  0  0  0
   10.0325  -15.2069   26.4810 C   0  0  0  0  0  0  0  0  0  0  0  0
    9.9391  -15.3137   25.0226 C   0  0  0  0  0  0  0  0  0  0  0  0
    8.5764  -15.7625   24.5689 C   0  0  2  0  0  0  0  0  0  0  0  0
    8.5389  -16.0227   23.1500 N   0  0  0  0  0  0  0  0  0  0  0  0
    7.5216  -14.7760   24.8839 C   0  0  0  0  0  0  0  0  0  0  0  0
    7.0925  -13.8932   23.8957 O   0  0  0  0  0  0  0  0  0  0  0  0
   10.5437  -16.2262   27.2627 C   0  0  0  0  0  0  0  0  0  0  0  0
   10.6145  -16.1166   28.6443 C   0  0  0  0  0  0  0  0  0  0  0  0
    6.9616  -14.6613   25.9983 O   0  0  0  0  0  0  0  0  0  0  0  0
  2  1  1  0
  2  3  2  0
  4  5  1  0
  4  2  1  0
  5  7  1  0
  5  6  1  1
  7  8  2  0
  9 10  1  0
  9  7  1  0
 11 12  1  0
 10 11  1  6
 12 13  1  0
 13 14  1  0
 14 15  1  0
 16 17  2  0
 16 10  1  0
 18 19  1  0
 19 20  2  0
 19 29  1  0
 20 21  1  0
 21 22  2  0
 22 23  1  0
 24 23  1  6
 24 26  1  0
 24 25  1  0
 25 16  1  0
 26 27  1  0
 28 22  1  0
 29 28  2  0
 30 26  2  0
M  END
$$$$
