NKY.pdb
     RDKit          3D

 30 30  0  0  1  0  0  0  0  0999 V2000
    8.9443  -12.4652   18.1844 N   0  0  0  0  0  0  0  0  0  0  0  0
    7.8127  -13.2481   17.8815 C   0  0  0  0  0  0  0  0  0  0  0  0
    7.2485  -13.0891   16.7526 O   0  0  0  0  0  0  0  0  0  0  0  0
    7.2873  -14.2422   18.8533 C   0  0  0  0  0  0  0  0  0  0  0  0
    8.1256  -14.1775   20.1147 C   0  0  2  0  0  0  0  0  0  0  0  0
    9.5231  -14.2125   19.8128 N   0  0  0  0  0  0  0  0  0  0  0  0
    7.7038  -15.1621   21.1344 C   0  0  0  0  0  0  0  0  0  0  0  0
    6.5046  -15.1432   21.5102 O   0  0  0  0  0  0  0  0  0  0  0  0
    8.6047  -16.1353   21.7121 N   0  0  0  0  0  0  0  0  0  0  0  0
    8.1323  -17.0909   22.6760 C   0  0  1  0  0  0  0  0  0  0  0  0
    8.5237  -18.5023   22.3942 C   0  0  0  0  0  0  0  0  0  0  0  0
    8.0923  -19.5285   23.3570 C   0  0  0  0  0  0  0  0  0  0  0  0
    8.4014  -20.9343   22.9759 C   0  0  0  0  0  0  0  0  0  0  0  0
    7.7731  -21.8014   24.0975 C   0  0  0  0  0  0  0  0  0  0  0  0
    8.0476  -23.1776   23.6854 N   0  0  0  0  0  0  0  0  0  0  0  0
    8.8038  -16.7593   23.9974 C   0  0  0  0  0  0  0  0  0  0  0  0
    9.9887  -16.4691   23.9744 O   0  0  0  0  0  0  0  0  0  0  0  0
    6.4239  -10.5239   25.6013 O   0  0  0  0  0  0  0  0  0  0  0  0
    6.7210  -11.8286   26.0477 C   0  0  0  0  0  0  0  0  0  0  0  0
    7.8662  -12.1080   26.7484 C   0  0  0  0  0  0  0  0  0  0  0  0
    8.1523  -13.3686   27.1789 C   0  0  0  0  0  0  0  0  0  0  0  0
    7.2898  -14.4443   26.9277 C   0  0  0  0  0  0  0  0  0  0  0  0
    7.6117  -15.7994   27.3830 C   0  0  0  0  0  0  0  0  0  0  0  0
    8.6212  -16.4754   26.4955 C   0  0  2  0  0  0  0  0  0  0  0  0
    8.0744  -16.7879   25.1970 N   0  0  0  0  0  0  0  0  0  0  0  0
    9.1476  -17.7243   27.0857 C   0  0  0  0  0  0  0  0  0  0  0  0
   10.0647  -17.6540   28.1316 O   0  0  0  0  0  0  0  0  0  0  0  0
    6.1359  -14.1593   26.2216 C   0  0  0  0  0  0  0  0  0  0  0  0
    5.8499  -12.8734   25.7854 C   0  0  0  0  0  0  0  0  0  0  0  0
    8.8300  -18.8778   26.7154 O   0  0  0  0  0  0  0  0  0  0  0  0
  2  1  1  0
  2  3  2  0
  4  5  1  0
  4  2  1  0
  5  7  1  0
  5  6  1  6
  7  8  2  0
  9 10  1  0
  9  7  1  0
 11 12  1  0
 10 11  1  6
 12 13  1  0
 13 14  1  0
 14 15  1  0
 16 17  2  0
 16 10  1  0
 18 19  1  0
 19 20  2  0
 19 29  1  0
 20 21  1  0
 21 22  2  0
 22 23  1  0
 24 23  1  1
 24 26  1  0
 24 25  1  0
 25 16  1  0
 26 27  1  0
 28 22  1  0
 29 28  2  0
 30 26  2  0
M  END
$$$$
