NKY.pdb
     RDKit          3D

 30 30  0  0  1  0  0  0  0  0999 V2000
    8.6731  -12.3003   18.3028 N   0  0  0  0  0  0  0  0  0  0  0  0
    7.6864  -13.2765   18.0610 C   0  0  0  0  0  0  0  0  0  0  0  0
    7.0950  -13.2767   16.9348 O   0  0  0  0  0  0  0  0  0  0  0  0
    7.3421  -14.2889   19.0931 C   0  0  0  0  0  0  0  0  0  0  0  0
    8.1990  -14.0425   20.3192 C   0  0  2  0  0  0  0  0  0  0  0  0
    9.5499  -13.7430   19.9579 N   0  0  0  0  0  0  0  0  0  0  0  0
    8.0684  -15.1106   21.3338 C   0  0  0  0  0  0  0  0  0  0  0  0
    6.9532  -15.2564   21.8947 O   0  0  0  0  0  0  0  0  0  0  0  0
    9.1597  -15.9847   21.7045 N   0  0  0  0  0  0  0  0  0  0  0  0
    8.9735  -17.0125   22.6915 C   0  0  1  0  0  0  0  0  0  0  0  0
    9.7710  -18.2509   22.4564 C   0  0  0  0  0  0  0  0  0  0  0  0
    9.5714  -18.9508   21.1772 C   0  0  0  0  0  0  0  0  0  0  0  0
   10.4141  -20.1609   20.9710 C   0  0  0  0  0  0  0  0  0  0  0  0
   10.0063  -20.7009   19.5759 C   0  0  0  0  0  0  0  0  0  0  0  0
   10.8096  -21.9117   19.4093 N   0  0  0  0  0  0  0  0  0  0  0  0
    9.4913  -16.4630   24.0095 C   0  0  0  0  0  0  0  0  0  0  0  0
   10.5352  -15.8317   23.9898 O   0  0  0  0  0  0  0  0  0  0  0  0
    5.8890  -10.8383   25.2980 O   0  0  0  0  0  0  0  0  0  0  0  0
    6.4209  -12.0469   25.7943 C   0  0  0  0  0  0  0  0  0  0  0  0
    5.7095  -13.2185   25.7537 C   0  0  0  0  0  0  0  0  0  0  0  0
    6.2241  -14.3853   26.2334 C   0  0  0  0  0  0  0  0  0  0  0  0
    7.5076  -14.4472   26.7928 C   0  0  0  0  0  0  0  0  0  0  0  0
    8.0483  -15.7036   27.3184 C   0  0  0  0  0  0  0  0  0  0  0  0
    9.2042  -16.2140   26.5015 C   0  0  2  0  0  0  0  0  0  0  0  0
    8.7826  -16.6797   25.2022 N   0  0  0  0  0  0  0  0  0  0  0  0
    9.9290  -17.3142   27.1717 C   0  0  0  0  0  0  0  0  0  0  0  0
   10.6747  -17.0453   28.3169 O   0  0  0  0  0  0  0  0  0  0  0  0
    8.2225  -13.2645   26.8318 C   0  0  0  0  0  0  0  0  0  0  0  0
    7.6931  -12.0790   26.3418 C   0  0  0  0  0  0  0  0  0  0  0  0
    9.9308  -18.5061   26.7870 O   0  0  0  0  0  0  0  0  0  0  0  0
  2  1  1  0
  2  3  2  0
  4  5  1  0
  4  2  1  0
  5  7  1  0
  5  6  1  6
  7  8  2  0
  9 10  1  0
  9  7  1  0
 11 12  1  0
 10 11  1  6
 12 13  1  0
 13 14  1  0
 14 15  1  0
 16 17  2  0
 16 10  1  0
 18 19  1  0
 19 20  2  0
 19 29  1  0
 20 21  1  0
 21 22  2  0
 22 23  1  0
 24 23  1  1
 24 26  1  0
 24 25  1  0
 25 16  1  0
 26 27  1  0
 28 22  1  0
 29 28  2  0
 30 26  2  0
M  END
$$$$
