TTP.pdb
     RDKit          3D

 22 22  0  0  1  0  0  0  0  0999 V2000
   11.4251  -14.5195   21.0530 C   0  0  0  0  0  0  0  0  0  0  0  0
   10.9895  -13.6068   19.9244 C   0  0  1  0  0  0  0  0  0  0  0  0
   11.8584  -13.7190   18.8541 O   0  0  0  0  0  0  0  0  0  0  0  0
    9.5728  -14.0426   19.5306 C   0  0  2  0  0  0  0  0  0  0  0  0
    9.2105  -13.2785   18.3608 N   0  0  0  0  0  0  0  0  0  0  0  0
    8.6344  -13.7868   20.6532 C   0  0  0  0  0  0  0  0  0  0  0  0
    8.2356  -12.6235   20.8724 O   0  0  0  0  0  0  0  0  0  0  0  0
    5.4723  -15.8080   21.4840 C   0  0  0  0  0  0  0  0  0  0  0  0
    6.4054  -15.8071   22.6417 C   0  0  1  0  0  0  0  0  0  0  0  0
    7.2667  -16.9249   22.4439 O   0  0  0  0  0  0  0  0  0  0  0  0
    7.3539  -14.5987   22.6871 C   0  0  2  0  0  0  0  0  0  0  0  0
    8.1828  -14.8236   21.4772 N   0  0  0  0  0  0  0  0  0  0  0  0
    8.1962  -14.5724   23.8777 C   0  0  0  0  0  0  0  0  0  0  0  0
    9.4026  -15.0011   23.7032 O   0  0  0  0  0  0  0  0  0  0  0  0
    7.9072  -14.1514   25.1787 N   0  0  0  0  0  0  0  0  0  0  0  0
    6.6674  -13.6014   25.6834 C   0  0  0  0  0  0  0  0  0  0  0  0
    7.0618  -12.6977   26.8465 C   0  0  0  0  0  0  0  0  0  0  0  0
    8.5565  -12.7013   26.8017 C   0  0  0  0  0  0  0  0  0  0  0  0
    8.8481  -14.1344   26.3302 C   0  0  1  0  0  0  0  0  0  0  0  0
    8.4135  -15.0464   27.3925 C   0  0  0  0  0  0  0  0  0  0  0  0
    7.3176  -15.6144   27.2729 O   0  0  0  0  0  0  0  0  0  0  0  0
    9.1561  -15.3184   28.5351 O   0  0  0  0  0  0  0  0  0  0  0  0
  2  1  1  1
  2  4  1  0
  3  2  1  0
  4  5  1  6
  6  7  2  0
  6  4  1  0
  9  8  1  6
  9 11  1  0
 10  9  1  0
 11 12  1  6
 11 13  1  0
 12  6  1  0
 13 15  1  0
 14 13  2  0
 15 19  1  0
 15 16  1  0
 16 17  1  0
 18 17  1  0
 19 18  1  0
 19 20  1  1
 20 22  1  0
 21 20  2  0
M  END
$$$$
