TTP.pdb
     RDKit          3D

 22 22  0  0  1  0  0  0  0  0999 V2000
   11.3425  -19.6218   20.1441 C   0  0  0  0  0  0  0  0  0  0  0  0
   10.8405  -18.5017   21.0329 C   0  0  1  0  0  0  0  0  0  0  0  0
   11.5943  -18.4335   22.1906 O   0  0  0  0  0  0  0  0  0  0  0  0
   10.9642  -17.2078   20.2190 C   0  0  2  0  0  0  0  0  0  0  0  0
   12.3582  -17.0632   19.8733 N   0  0  0  0  0  0  0  0  0  0  0  0
   10.4865  -16.0554   21.0251 C   0  0  0  0  0  0  0  0  0  0  0  0
   11.3103  -15.3546   21.6500 O   0  0  0  0  0  0  0  0  0  0  0  0
    7.4301  -13.6099   19.9536 C   0  0  0  0  0  0  0  0  0  0  0  0
    7.2718  -14.3125   21.2545 C   0  0  1  0  0  0  0  0  0  0  0  0
    6.7119  -15.5846   20.9403 O   0  0  0  0  0  0  0  0  0  0  0  0
    8.5972  -14.6431   21.9588 C   0  0  2  0  0  0  0  0  0  0  0  0
    9.1271  -15.7328   21.1025 N   0  0  0  0  0  0  0  0  0  0  0  0
    8.4196  -15.1175   23.3266 C   0  0  0  0  0  0  0  0  0  0  0  0
    9.2143  -16.0727   23.6813 O   0  0  0  0  0  0  0  0  0  0  0  0
    7.5284  -14.6990   24.3187 N   0  0  0  0  0  0  0  0  0  0  0  0
    6.5489  -13.6362   24.2467 C   0  0  0  0  0  0  0  0  0  0  0  0
    6.3789  -13.1361   25.6771 C   0  0  0  0  0  0  0  0  0  0  0  0
    7.4242  -13.8880   26.4375 C   0  0  0  0  0  0  0  0  0  0  0  0
    7.4313  -15.2369   25.7016 C   0  0  1  0  0  0  0  0  0  0  0  0
    6.1341  -15.8771   25.9391 C   0  0  0  0  0  0  0  0  0  0  0  0
    5.2523  -15.7657   25.0743 O   0  0  0  0  0  0  0  0  0  0  0  0
    5.8252  -16.6071   27.0805 O   0  0  0  0  0  0  0  0  0  0  0  0
  2  1  1  6
  2  4  1  0
  3  2  1  0
  4  5  1  1
  6  7  2  0
  6  4  1  0
  9  8  1  6
  9 11  1  0
 10  9  1  0
 11 12  1  6
 11 13  1  0
 12  6  1  0
 13 15  1  0
 14 13  2  0
 15 19  1  0
 15 16  1  0
 16 17  1  0
 18 17  1  0
 19 18  1  0
 19 20  1  6
 20 22  1  0
 21 20  2  0
M  END
$$$$
