TTP.pdb
     RDKit          3D

 22 22  0  0  1  0  0  0  0  0999 V2000
   11.3928  -14.3597   20.8825 C   0  0  0  0  0  0  0  0  0  0  0  0
   10.9078  -13.4826   19.7458 C   0  0  1  0  0  0  0  0  0  0  0  0
   11.7313  -13.6265   18.6438 O   0  0  0  0  0  0  0  0  0  0  0  0
    9.4769  -13.9319   19.4256 C   0  0  2  0  0  0  0  0  0  0  0  0
    9.0384  -13.1537   18.2917 N   0  0  0  0  0  0  0  0  0  0  0  0
    8.6007  -13.7082   20.6039 C   0  0  0  0  0  0  0  0  0  0  0  0
    8.1206  -12.5737   20.8105 O   0  0  0  0  0  0  0  0  0  0  0  0
    5.5576  -15.7325   21.5380 C   0  0  0  0  0  0  0  0  0  0  0  0
    6.5413  -15.7723   22.6524 C   0  0  1  0  0  0  0  0  0  0  0  0
    7.4077  -16.8660   22.3634 O   0  0  0  0  0  0  0  0  0  0  0  0
    7.4746  -14.5529   22.7144 C   0  0  2  0  0  0  0  0  0  0  0  0
    8.2975  -14.7439   21.4946 N   0  0  0  0  0  0  0  0  0  0  0  0
    8.3251  -14.5386   23.8994 C   0  0  0  0  0  0  0  0  0  0  0  0
    9.5396  -14.9349   23.7052 O   0  0  0  0  0  0  0  0  0  0  0  0
    8.0366  -14.1586   25.2131 N   0  0  0  0  0  0  0  0  0  0  0  0
    6.7837  -13.6662   25.7442 C   0  0  0  0  0  0  0  0  0  0  0  0
    7.1587  -12.7757   26.9238 C   0  0  0  0  0  0  0  0  0  0  0  0
    8.6520  -12.7234   26.8622 C   0  0  0  0  0  0  0  0  0  0  0  0
    8.9899  -14.1336   26.3541 C   0  0  1  0  0  0  0  0  0  0  0  0
    8.6016  -15.0852   27.3994 C   0  0  0  0  0  0  0  0  0  0  0  0
    7.5552  -15.7337   27.2499 O   0  0  0  0  0  0  0  0  0  0  0  0
    9.3361  -15.3099   28.5575 O   0  0  0  0  0  0  0  0  0  0  0  0
  2  1  1  1
  2  4  1  0
  3  2  1  0
  4  5  1  6
  6  7  2  0
  6  4  1  0
  9  8  1  6
  9 11  1  0
 10  9  1  0
 11 12  1  6
 11 13  1  0
 12  6  1  0
 13 15  1  0
 14 13  2  0
 15 19  1  0
 15 16  1  0
 16 17  1  0
 18 17  1  0
 19 18  1  0
 19 20  1  1
 20 22  1  0
 21 20  2  0
M  END
$$$$
