TTP.pdb
     RDKit          3D

 22 22  0  0  1  0  0  0  0  0999 V2000
   11.6890  -14.5134   18.4174 C   0  0  0  0  0  0  0  0  0  0  0  0
   10.9260  -14.2023   19.6893 C   0  0  1  0  0  0  0  0  0  0  0  0
   11.4007  -13.0354   20.2603 O   0  0  0  0  0  0  0  0  0  0  0  0
    9.4516  -14.0601   19.2919 C   0  0  2  0  0  0  0  0  0  0  0  0
    9.3720  -12.9505   18.3720 N   0  0  0  0  0  0  0  0  0  0  0  0
    8.6229  -13.8186   20.5006 C   0  0  0  0  0  0  0  0  0  0  0  0
    8.2629  -12.6557   20.7808 O   0  0  0  0  0  0  0  0  0  0  0  0
    5.5490  -15.9025   21.3955 C   0  0  0  0  0  0  0  0  0  0  0  0
    6.5010  -15.8921   22.5378 C   0  0  1  0  0  0  0  0  0  0  0  0
    7.3755  -16.9961   22.3213 O   0  0  0  0  0  0  0  0  0  0  0  0
    7.4319  -14.6697   22.5725 C   0  0  2  0  0  0  0  0  0  0  0  0
    8.2325  -14.8685   21.3391 N   0  0  0  0  0  0  0  0  0  0  0  0
    8.3043  -14.6435   23.7412 C   0  0  0  0  0  0  0  0  0  0  0  0
    9.5259  -15.0017   23.5195 O   0  0  0  0  0  0  0  0  0  0  0  0
    8.0301  -14.2869   25.0645 N   0  0  0  0  0  0  0  0  0  0  0  0
    6.7693  -13.8555   25.6288 C   0  0  0  0  0  0  0  0  0  0  0  0
    7.1317  -12.9579   26.8070 C   0  0  0  0  0  0  0  0  0  0  0  0
    8.6192  -12.8379   26.7112 C   0  0  0  0  0  0  0  0  0  0  0  0
    9.0080  -14.2276   26.1832 C   0  0  1  0  0  0  0  0  0  0  0  0
    8.6875  -15.2036   27.2291 C   0  0  0  0  0  0  0  0  0  0  0  0
    7.6539  -15.8787   27.1116 O   0  0  0  0  0  0  0  0  0  0  0  0
    9.4735  -15.4235   28.3538 O   0  0  0  0  0  0  0  0  0  0  0  0
  2  1  1  6
  2  4  1  0
  3  2  1  0
  4  5  1  6
  6  7  2  0
  6  4  1  0
  9  8  1  6
  9 11  1  0
 10  9  1  0
 11 12  1  6
 11 13  1  0
 12  6  1  0
 13 15  1  0
 14 13  2  0
 15 19  1  0
 15 16  1  0
 16 17  1  0
 18 17  1  0
 19 18  1  0
 19 20  1  1
 20 22  1  0
 21 20  2  0
M  END
$$$$
