TTP.pdb
     RDKit          3D

 22 22  0  0  1  0  0  0  0  0999 V2000
   11.8827  -14.4690   21.0074 C   0  0  0  0  0  0  0  0  0  0  0  0
   11.1932  -13.6341   19.9471 C   0  0  1  0  0  0  0  0  0  0  0  0
   11.8595  -13.7458   18.7402 O   0  0  0  0  0  0  0  0  0  0  0  0
    9.7591  -14.1659   19.8349 C   0  0  2  0  0  0  0  0  0  0  0  0
    9.1163  -13.4157   18.7825 N   0  0  0  0  0  0  0  0  0  0  0  0
    9.0523  -13.9921   21.1296 C   0  0  0  0  0  0  0  0  0  0  0  0
    8.4550  -12.9214   21.3688 O   0  0  0  0  0  0  0  0  0  0  0  0
    6.1976  -15.6433   22.2385 C   0  0  0  0  0  0  0  0  0  0  0  0
    7.2396  -15.9579   23.2516 C   0  0  1  0  0  0  0  0  0  0  0  0
    7.9319  -17.0986   22.7516 O   0  0  0  0  0  0  0  0  0  0  0  0
    8.3286  -14.8826   23.3921 C   0  0  2  0  0  0  0  0  0  0  0  0
    9.0386  -15.0049   22.0950 N   0  0  0  0  0  0  0  0  0  0  0  0
    9.2479  -15.1351   24.4961 C   0  0  0  0  0  0  0  0  0  0  0  0
   10.3900  -15.6328   24.1532 O   0  0  0  0  0  0  0  0  0  0  0  0
    9.0919  -14.9190   25.8681 N   0  0  0  0  0  0  0  0  0  0  0  0
    7.9172  -14.4461   26.5685 C   0  0  0  0  0  0  0  0  0  0  0  0
    8.4385  -13.7360   27.8131 C   0  0  0  0  0  0  0  0  0  0  0  0
    9.9219  -13.7419   27.6243 C   0  0  0  0  0  0  0  0  0  0  0  0
   10.1374  -15.0865   26.9123 C   0  0  1  0  0  0  0  0  0  0  0  0
    9.7858  -16.1494   27.8588 C   0  0  0  0  0  0  0  0  0  0  0  0
   10.5133  -16.3255   28.8476 O   0  0  0  0  0  0  0  0  0  0  0  0
    8.6805  -16.9800   27.7190 O   0  0  0  0  0  0  0  0  0  0  0  0
  2  1  1  1
  2  4  1  0
  3  2  1  0
  4  5  1  6
  6  7  2  0
  6  4  1  0
  9  8  1  6
  9 11  1  0
 10  9  1  0
 11 12  1  6
 11 13  1  0
 12  6  1  0
 13 15  1  0
 14 13  2  0
 15 19  1  0
 15 16  1  0
 16 17  1  0
 18 17  1  0
 19 18  1  0
 19 20  1  1
 20 22  1  0
 21 20  2  0
M  END
$$$$
