TTP.pdb
     RDKit          3D

 22 22  0  0  1  0  0  0  0  0999 V2000
   13.0401  -16.7393   21.9310 C   0  0  0  0  0  0  0  0  0  0  0  0
   12.0207  -17.8605   21.9478 C   0  0  1  0  0  0  0  0  0  0  0  0
   11.6122  -18.1182   23.2438 O   0  0  0  0  0  0  0  0  0  0  0  0
   10.8434  -17.3951   21.0822 C   0  0  2  0  0  0  0  0  0  0  0  0
   11.3460  -17.2482   19.7371 N   0  0  0  0  0  0  0  0  0  0  0  0
   10.3106  -16.1096   21.6017 C   0  0  0  0  0  0  0  0  0  0  0  0
   10.9776  -15.0627   21.4621 O   0  0  0  0  0  0  0  0  0  0  0  0
    6.7937  -14.6858   21.0747 C   0  0  0  0  0  0  0  0  0  0  0  0
    7.0685  -14.8610   22.5256 C   0  0  1  0  0  0  0  0  0  0  0  0
    6.6737  -16.1948   22.8347 O   0  0  0  0  0  0  0  0  0  0  0  0
    8.5590  -14.8092   22.8965 C   0  0  2  0  0  0  0  0  0  0  0  0
    9.0715  -16.0414   22.2481 N   0  0  0  0  0  0  0  0  0  0  0  0
    8.7964  -14.8600   24.3349 C   0  0  0  0  0  0  0  0  0  0  0  0
    9.8038  -15.5835   24.6973 O   0  0  0  0  0  0  0  0  0  0  0  0
    8.1095  -14.2452   25.3854 N   0  0  0  0  0  0  0  0  0  0  0  0
    6.9011  -13.4519   25.3174 C   0  0  0  0  0  0  0  0  0  0  0  0
    6.9758  -12.4869   26.4956 C   0  0  0  0  0  0  0  0  0  0  0  0
    8.3392  -12.7286   27.0604 C   0  0  0  0  0  0  0  0  0  0  0  0
    8.5117  -14.2360   26.8170 C   0  0  1  0  0  0  0  0  0  0  0  0
    7.5319  -14.9341   27.6547 C   0  0  0  0  0  0  0  0  0  0  0  0
    6.4518  -15.2704   27.1464 O   0  0  0  0  0  0  0  0  0  0  0  0
    7.7362  -15.2465   28.9932 O   0  0  0  0  0  0  0  0  0  0  0  0
  2  1  1  1
  2  4  1  0
  3  2  1  0
  4  5  1  6
  6  7  2  0
  6  4  1  0
  9  8  1  6
  9 11  1  0
 10  9  1  0
 11 12  1  6
 11 13  1  0
 12  6  1  0
 13 15  1  0
 14 13  2  0
 15 19  1  0
 15 16  1  0
 16 17  1  0
 18 17  1  0
 19 18  1  0
 19 20  1  1
 20 22  1  0
 21 20  2  0
M  END
$$$$
