TTP.pdb
     RDKit          3D

 22 22  0  0  1  0  0  0  0  0999 V2000
   12.2129  -19.3273   21.7413 C   0  0  0  0  0  0  0  0  0  0  0  0
   11.5985  -18.1462   22.4652 C   0  0  1  0  0  0  0  0  0  0  0  0
   12.4989  -17.6185   23.3729 O   0  0  0  0  0  0  0  0  0  0  0  0
   11.2332  -17.1153   21.3902 C   0  0  2  0  0  0  0  0  0  0  0  0
   12.4564  -16.7776   20.7021 N   0  0  0  0  0  0  0  0  0  0  0  0
   10.6232  -15.9182   22.0236 C   0  0  0  0  0  0  0  0  0  0  0  0
   11.3578  -14.9991   22.4431 O   0  0  0  0  0  0  0  0  0  0  0  0
    7.3090  -14.0783   20.7677 C   0  0  0  0  0  0  0  0  0  0  0  0
    7.2322  -14.5830   22.1643 C   0  0  1  0  0  0  0  0  0  0  0  0
    6.8020  -15.9376   22.0618 O   0  0  0  0  0  0  0  0  0  0  0  0
    8.5893  -14.6674   22.8806 C   0  0  2  0  0  0  0  0  0  0  0  0
    9.2366  -15.7934   22.1631 N   0  0  0  0  0  0  0  0  0  0  0  0
    8.4721  -14.9756   24.3015 C   0  0  0  0  0  0  0  0  0  0  0  0
    9.2283  -15.9379   24.7161 O   0  0  0  0  0  0  0  0  0  0  0  0
    7.6745  -14.3911   25.2891 N   0  0  0  0  0  0  0  0  0  0  0  0
    6.6961  -13.3359   25.1363 C   0  0  0  0  0  0  0  0  0  0  0  0
    6.6561  -12.6146   26.4791 C   0  0  0  0  0  0  0  0  0  0  0  0
    7.7624  -13.2559   27.2543 C   0  0  0  0  0  0  0  0  0  0  0  0
    7.6993  -14.7036   26.7428 C   0  0  1  0  0  0  0  0  0  0  0  0
    6.4262  -15.2758   27.1910 C   0  0  0  0  0  0  0  0  0  0  0  0
    5.4570  -15.2403   26.4182 O   0  0  0  0  0  0  0  0  0  0  0  0
    6.2329  -15.8606   28.4367 O   0  0  0  0  0  0  0  0  0  0  0  0
  2  1  1  6
  2  4  1  0
  3  2  1  0
  4  5  1  1
  6  7  2  0
  6  4  1  0
  9  8  1  6
  9 11  1  0
 10  9  1  0
 11 12  1  6
 11 13  1  0
 12  6  1  0
 13 15  1  0
 14 13  2  0
 15 19  1  0
 15 16  1  0
 16 17  1  0
 18 17  1  0
 19 18  1  0
 19 20  1  1
 20 22  1  0
 21 20  2  0
M  END
$$$$
