TTP.pdb
     RDKit          3D

 22 22  0  0  1  0  0  0  0  0999 V2000
   11.4391  -18.2458   23.5865 C   0  0  0  0  0  0  0  0  0  0  0  0
   12.2168  -17.6183   22.4473 C   0  0  1  0  0  0  0  0  0  0  0  0
   13.0415  -18.5574   21.8548 O   0  0  0  0  0  0  0  0  0  0  0  0
   11.1802  -17.0886   21.4488 C   0  0  2  0  0  0  0  0  0  0  0  0
   11.8984  -16.7405   20.2460 N   0  0  0  0  0  0  0  0  0  0  0  0
   10.4836  -15.9082   22.0211 C   0  0  0  0  0  0  0  0  0  0  0  0
   11.1363  -14.8802   22.2993 O   0  0  0  0  0  0  0  0  0  0  0  0
    6.8603  -14.7955   20.8197 C   0  0  0  0  0  0  0  0  0  0  0  0
    6.9599  -14.9800   22.2918 C   0  0  1  0  0  0  0  0  0  0  0  0
    6.6794  -16.3570   22.5279 O   0  0  0  0  0  0  0  0  0  0  0  0
    8.3736  -14.7764   22.8593 C   0  0  2  0  0  0  0  0  0  0  0  0
    9.1046  -15.9191   22.2580 N   0  0  0  0  0  0  0  0  0  0  0  0
    8.4262  -14.8537   24.3149 C   0  0  0  0  0  0  0  0  0  0  0  0
    9.3457  -15.6286   24.7881 O   0  0  0  0  0  0  0  0  0  0  0  0
    7.6423  -14.2178   25.2816 N   0  0  0  0  0  0  0  0  0  0  0  0
    6.4987  -13.3553   25.0760 C   0  0  0  0  0  0  0  0  0  0  0  0
    6.4711  -12.4157   26.2767 C   0  0  0  0  0  0  0  0  0  0  0  0
    7.7333  -12.7448   27.0080 C   0  0  0  0  0  0  0  0  0  0  0  0
    7.8532  -14.2554   26.7532 C   0  0  1  0  0  0  0  0  0  0  0  0
    6.7352  -14.9097   27.4395 C   0  0  0  0  0  0  0  0  0  0  0  0
    6.8125  -15.0817   28.6652 O   0  0  0  0  0  0  0  0  0  0  0  0
    5.5839  -15.3538   26.8003 O   0  0  0  0  0  0  0  0  0  0  0  0
  2  1  1  1
  2  4  1  0
  3  2  1  0
  4  5  1  6
  6  7  2  0
  6  4  1  0
  9  8  1  6
  9 11  1  0
 10  9  1  0
 11 12  1  6
 11 13  1  0
 12  6  1  0
 13 15  1  0
 14 13  2  0
 15 19  1  0
 15 16  1  0
 16 17  1  0
 18 17  1  0
 19 18  1  0
 19 20  1  1
 20 22  1  0
 21 20  2  0
M  END
$$$$
