TTP.pdb
     RDKit          3D

 22 22  0  0  1  0  0  0  0  0999 V2000
   11.5157  -15.2439   18.7768 C   0  0  0  0  0  0  0  0  0  0  0  0
   10.9731  -14.8548   20.1372 C   0  0  1  0  0  0  0  0  0  0  0  0
   11.7323  -13.8357   20.6831 O   0  0  0  0  0  0  0  0  0  0  0  0
    9.5237  -14.4041   19.9181 C   0  0  2  0  0  0  0  0  0  0  0  0
    9.5721  -13.2423   19.0629 N   0  0  0  0  0  0  0  0  0  0  0  0
    8.8898  -14.0864   21.2233 C   0  0  0  0  0  0  0  0  0  0  0  0
    7.9257  -13.2933   21.2652 O   0  0  0  0  0  0  0  0  0  0  0  0
    6.5726  -14.7960   22.2443 C   0  0  0  0  0  0  0  0  0  0  0  0
    7.3331  -15.2996   23.4187 C   0  0  1  0  0  0  0  0  0  0  0  0
    7.7706  -16.6082   23.0629 O   0  0  0  0  0  0  0  0  0  0  0  0
    8.6312  -14.5293   23.7078 C   0  0  2  0  0  0  0  0  0  0  0  0
    9.3489  -14.6573   22.4154 N   0  0  0  0  0  0  0  0  0  0  0  0
    9.4216  -15.1164   24.7839 C   0  0  0  0  0  0  0  0  0  0  0  0
   10.3870  -15.8834   24.3971 O   0  0  0  0  0  0  0  0  0  0  0  0
    9.3042  -14.9772   26.1696 N   0  0  0  0  0  0  0  0  0  0  0  0
    8.1629  -14.5072   26.9251 C   0  0  0  0  0  0  0  0  0  0  0  0
    8.7368  -13.8905   28.1961 C   0  0  0  0  0  0  0  0  0  0  0  0
   10.2145  -13.9356   27.9710 C   0  0  0  0  0  0  0  0  0  0  0  0
   10.3663  -15.2420   27.1763 C   0  0  1  0  0  0  0  0  0  0  0  0
    9.9986  -16.3467   28.0671 C   0  0  0  0  0  0  0  0  0  0  0  0
    8.8764  -16.8593   27.9418 O   0  0  0  0  0  0  0  0  0  0  0  0
   10.8332  -16.8616   29.0517 O   0  0  0  0  0  0  0  0  0  0  0  0
  2  1  1  6
  2  4  1  0
  3  2  1  0
  4  5  1  6
  6  7  2  0
  6  4  1  0
  9  8  1  6
  9 11  1  0
 10  9  1  0
 11 12  1  6
 11 13  1  0
 12  6  1  0
 13 15  1  0
 14 13  2  0
 15 19  1  0
 15 16  1  0
 16 17  1  0
 18 17  1  0
 19 18  1  0
 19 20  1  1
 20 22  1  0
 21 20  2  0
M  END
$$$$
