MFV.pdb
     RDKit          3D

 27 27  0  0  1  0  0  0  0  0999 V2000
   15.9298  -14.7813  -20.9796 C   0  0  0  0  0  0  0  0  0  0  0  0
   16.1119  -15.9131  -19.5775 S   0  0  0  0  0  0  0  0  0  0  0  0
   17.8181  -15.8296  -18.9952 C   0  0  0  0  0  0  0  0  0  0  0  0
   18.3386  -14.3996  -19.0317 C   0  0  0  0  0  0  0  0  0  0  0  0
   18.7702  -14.0100  -17.6375 C   0  0  2  0  0  0  0  0  0  0  0  0
   17.8319  -14.4269  -16.6321 N   0  0  0  0  0  0  0  0  0  0  0  0
   18.9852  -12.5466  -17.5511 C   0  0  0  0  0  0  0  0  0  0  0  0
   19.8550  -12.0319  -18.3131 O   0  0  0  0  0  0  0  0  0  0  0  0
   18.2417  -11.7364  -16.6441 N   0  0  0  0  0  0  0  0  0  0  0  0
   18.3933  -10.3052  -16.6402 C   0  0  1  0  0  0  0  0  0  0  0  0
   17.0525   -9.6484  -16.5627 C   0  0  0  0  0  0  0  0  0  0  0  0
   17.0722   -8.1911  -16.4478 C   0  0  0  0  0  0  0  0  0  0  0  0
   17.6506   -7.3800  -17.4243 C   0  0  0  0  0  0  0  0  0  0  0  0
   17.6852   -6.0104  -17.3286 C   0  0  0  0  0  0  0  0  0  0  0  0
   17.1315   -5.4179  -16.2340 C   0  0  0  0  0  0  0  0  0  0  0  0
   16.5598   -6.1928  -15.2654 C   0  0  0  0  0  0  0  0  0  0  0  0
   16.5179   -7.5801  -15.3494 C   0  0  0  0  0  0  0  0  0  0  0  0
   19.2578   -9.9489  -15.4714 C   0  0  0  0  0  0  0  0  0  0  0  0
   18.9564  -10.2435  -14.2875 O   0  0  0  0  0  0  0  0  0  0  0  0
   23.4192   -9.0097  -15.7247 C   0  0  0  0  0  0  0  0  0  0  0  0
   22.6478   -9.4908  -14.4932 C   0  0  2  0  0  0  0  0  0  0  0  0
   22.5550  -10.9977  -14.6183 C   0  0  0  0  0  0  0  0  0  0  0  0
   21.2802   -8.8624  -14.5289 C   0  0  2  0  0  0  0  0  0  0  0  0
   20.4899   -9.2440  -15.6458 N   0  0  0  0  0  0  0  0  0  0  0  0
   21.3353   -7.3885  -14.4388 C   0  0  0  0  0  0  0  0  0  0  0  0
   20.9447   -6.5411  -15.4619 O   0  0  0  0  0  0  0  0  0  0  0  0
   21.7575   -6.8699  -13.3819 O   0  0  0  0  0  0  0  0  0  0  0  0
  2  3  1  0
  2  1  1  0
  3  4  1  0
  4  5  1  0
  5  6  1  1
  7  5  1  0
  7  8  2  0
  9  7  1  0
 10  9  1  0
 10 11  1  1
 12 13  2  0
 12 11  1  0
 14 13  1  0
 15 14  2  0
 16 15  1  0
 16 17  2  0
 17 12  1  0
 18 10  1  0
 19 18  2  0
 21 20  1  6
 21 22  1  0
 23 21  1  0
 23 24  1  6
 24 18  1  0
 25 23  1  0
 26 25  1  0
 27 25  2  0
M  END
$$$$
