MFV.pdb
     RDKit          3D

 27 27  0  0  1  0  0  0  0  0999 V2000
   31.1294  -22.9452  -21.3974 C   0  0  0  0  0  0  0  0  0  0  0  0
   31.2069  -22.1210  -19.7866 S   0  0  0  0  0  0  0  0  0  0  0  0
   32.9419  -21.8720  -19.3565 C   0  0  0  0  0  0  0  0  0  0  0  0
   33.6845  -23.1991  -19.2903 C   0  0  0  0  0  0  0  0  0  0  0  0
   35.0859  -22.9406  -18.7889 C   0  0  2  0  0  0  0  0  0  0  0  0
   35.8574  -22.1360  -19.6958 N   0  0  0  0  0  0  0  0  0  0  0  0
   35.7872  -24.2193  -18.5275 C   0  0  0  0  0  0  0  0  0  0  0  0
   36.4544  -24.7308  -19.4736 O   0  0  0  0  0  0  0  0  0  0  0  0
   35.7196  -24.8598  -17.2557 N   0  0  0  0  0  0  0  0  0  0  0  0
   36.3411  -26.1402  -17.0416 C   0  0  1  0  0  0  0  0  0  0  0  0
   36.8326  -26.2418  -15.6333 C   0  0  0  0  0  0  0  0  0  0  0  0
   37.4206  -27.5283  -15.2641 C   0  0  0  0  0  0  0  0  0  0  0  0
   38.6786  -27.9241  -15.7186 C   0  0  0  0  0  0  0  0  0  0  0  0
   39.2425  -29.1321  -15.3884 C   0  0  0  0  0  0  0  0  0  0  0  0
   38.5443  -29.9805  -14.5830 C   0  0  0  0  0  0  0  0  0  0  0  0
   37.3105  -29.6134  -14.1265 C   0  0  0  0  0  0  0  0  0  0  0  0
   36.7278  -28.3939  -14.4529 C   0  0  0  0  0  0  0  0  0  0  0  0
   35.3222  -27.1912  -17.3544 C   0  0  0  0  0  0  0  0  0  0  0  0
   34.1023  -27.0578  -17.0841 O   0  0  0  0  0  0  0  0  0  0  0  0
   33.5129  -30.6837  -20.0421 C   0  0  0  0  0  0  0  0  0  0  0  0
   34.4430  -29.4894  -19.8149 C   0  0  2  0  0  0  0  0  0  0  0  0
   35.7154  -29.7974  -20.5771 C   0  0  0  0  0  0  0  0  0  0  0  0
   34.7123  -29.3868  -18.3372 C   0  0  2  0  0  0  0  0  0  0  0  0
   35.6917  -28.4196  -17.9868 N   0  0  0  0  0  0  0  0  0  0  0  0
   35.0636  -30.6907  -17.7371 C   0  0  0  0  0  0  0  0  0  0  0  0
   34.1851  -31.4516  -16.9844 O   0  0  0  0  0  0  0  0  0  0  0  0
   36.2176  -31.1387  -17.9149 O   0  0  0  0  0  0  0  0  0  0  0  0
  2  3  1  0
  2  1  1  0
  3  4  1  0
  4  5  1  0
  5  6  1  6
  7  5  1  0
  7  8  2  0
  9  7  1  0
 10  9  1  0
 10 11  1  1
 12 13  2  0
 12 11  1  0
 14 13  1  0
 15 14  2  0
 16 15  1  0
 16 17  2  0
 17 12  1  0
 18 10  1  0
 19 18  2  0
 21 20  1  1
 21 22  1  0
 23 21  1  0
 23 24  1  6
 24 18  1  0
 25 23  1  0
 26 25  1  0
 27 25  2  0
M  END
$$$$
