MFV.pdb
     RDKit          3D

 27 27  0  0  1  0  0  0  0  0999 V2000
   26.3769  -16.9129  -16.8314 C   0  0  0  0  0  0  0  0  0  0  0  0
   28.0271  -16.5208  -16.1964 S   0  0  0  0  0  0  0  0  0  0  0  0
   28.6125  -17.9244  -15.2248 C   0  0  0  0  0  0  0  0  0  0  0  0
   27.4465  -18.7524  -14.7032 C   0  0  0  0  0  0  0  0  0  0  0  0
   27.9906  -19.8272  -13.7918 C   0  0  2  0  0  0  0  0  0  0  0  0
   28.8300  -20.7658  -14.4843 N   0  0  0  0  0  0  0  0  0  0  0  0
   26.8835  -20.5435  -13.1161 C   0  0  0  0  0  0  0  0  0  0  0  0
   26.5070  -21.6470  -13.6085 O   0  0  0  0  0  0  0  0  0  0  0  0
   26.2572  -20.0161  -11.9492 N   0  0  0  0  0  0  0  0  0  0  0  0
   25.1946  -20.7334  -11.2952 C   0  0  1  0  0  0  0  0  0  0  0  0
   25.0978  -20.3126   -9.8639 C   0  0  0  0  0  0  0  0  0  0  0  0
   26.3250  -20.4559   -9.0823 C   0  0  0  0  0  0  0  0  0  0  0  0
   27.3003  -21.4002   -9.4034 C   0  0  0  0  0  0  0  0  0  0  0  0
   28.4547  -21.5538   -8.6757 C   0  0  0  0  0  0  0  0  0  0  0  0
   28.6570  -20.7505   -7.5941 C   0  0  0  0  0  0  0  0  0  0  0  0
   27.7151  -19.8190   -7.2614 C   0  0  0  0  0  0  0  0  0  0  0  0
   26.5420  -19.6528   -7.9891 C   0  0  0  0  0  0  0  0  0  0  0  0
   23.9321  -20.4488  -12.0473 C   0  0  0  0  0  0  0  0  0  0  0  0
   23.6109  -19.2941  -12.4250 O   0  0  0  0  0  0  0  0  0  0  0  0
   21.5675  -23.5578  -13.8895 C   0  0  0  0  0  0  0  0  0  0  0  0
   21.7164  -22.1136  -14.3740 C   0  0  2  0  0  0  0  0  0  0  0  0
   22.9745  -22.0813  -15.2173 C   0  0  0  0  0  0  0  0  0  0  0  0
   21.8577  -21.2310  -13.1625 C   0  0  2  0  0  0  0  0  0  0  0  0
   23.0131  -21.4932  -12.3791 N   0  0  0  0  0  0  0  0  0  0  0  0
   20.6565  -21.2591  -12.3023 C   0  0  0  0  0  0  0  0  0  0  0  0
   20.6499  -21.7507  -11.0078 O   0  0  0  0  0  0  0  0  0  0  0  0
   19.5815  -20.8157  -12.7626 O   0  0  0  0  0  0  0  0  0  0  0  0
  2  3  1  0
  2  1  1  0
  3  4  1  0
  4  5  1  0
  5  6  1  6
  7  5  1  0
  7  8  2  0
  9  7  1  0
 10  9  1  0
 10 11  1  1
 12 13  2  0
 12 11  1  0
 14 13  1  0
 15 14  2  0
 16 15  1  0
 16 17  2  0
 17 12  1  0
 18 10  1  0
 19 18  2  0
 21 20  1  1
 21 22  1  0
 23 21  1  0
 23 24  1  1
 24 18  1  0
 25 23  1  0
 26 25  1  0
 27 25  2  0
M  END
$$$$
