MFV.pdb
     RDKit          3D

 27 27  0  0  1  0  0  0  0  0999 V2000
   13.7245  -25.5237    5.3332 C   0  0  0  0  0  0  0  0  0  0  0  0
   12.3062  -24.6548    4.6164 S   0  0  0  0  0  0  0  0  0  0  0  0
   12.8620  -23.7761    3.1413 C   0  0  0  0  0  0  0  0  0  0  0  0
   14.0502  -22.8780    3.4553 C   0  0  0  0  0  0  0  0  0  0  0  0
   14.5027  -22.2153    2.1754 C   0  0  2  0  0  0  0  0  0  0  0  0
   15.0320  -23.1539    1.2247 N   0  0  0  0  0  0  0  0  0  0  0  0
   15.5087  -21.1661    2.4623 C   0  0  0  0  0  0  0  0  0  0  0  0
   16.7272  -21.5075    2.4860 O   0  0  0  0  0  0  0  0  0  0  0  0
   15.1271  -19.8141    2.7041 N   0  0  0  0  0  0  0  0  0  0  0  0
   16.1095  -18.8230    3.0564 C   0  0  1  0  0  0  0  0  0  0  0  0
   16.0109  -17.6527    2.1313 C   0  0  0  0  0  0  0  0  0  0  0  0
   16.8493  -16.5060    2.4769 C   0  0  0  0  0  0  0  0  0  0  0  0
   18.2292  -16.5105    2.2728 C   0  0  0  0  0  0  0  0  0  0  0  0
   19.0328  -15.4456    2.5990 C   0  0  0  0  0  0  0  0  0  0  0  0
   18.4587  -14.3374    3.1452 C   0  0  0  0  0  0  0  0  0  0  0  0
   17.1092  -14.3113    3.3539 C   0  0  0  0  0  0  0  0  0  0  0  0
   16.2841  -15.3820    3.0285 C   0  0  0  0  0  0  0  0  0  0  0  0
   15.8614  -18.4317    4.4798 C   0  0  0  0  0  0  0  0  0  0  0  0
   14.7070  -18.2740    4.9506 O   0  0  0  0  0  0  0  0  0  0  0  0
   16.7890  -20.0130    7.6791 C   0  0  0  0  0  0  0  0  0  0  0  0
   17.3537  -18.5943    7.7844 C   0  0  2  0  0  0  0  0  0  0  0  0
   16.9781  -18.0943    9.1642 C   0  0  0  0  0  0  0  0  0  0  0  0
   16.7056  -17.7573    6.7138 C   0  0  2  0  0  0  0  0  0  0  0  0
   16.9428  -18.2143    5.3901 N   0  0  0  0  0  0  0  0  0  0  0  0
   17.0684  -16.3287    6.8195 C   0  0  0  0  0  0  0  0  0  0  0  0
   16.3515  -15.4070    7.5638 O   0  0  0  0  0  0  0  0  0  0  0  0
   18.0786  -15.9217    6.2047 O   0  0  0  0  0  0  0  0  0  0  0  0
  2  3  1  0
  2  1  1  0
  3  4  1  0
  4  5  1  0
  5  6  1  6
  7  5  1  0
  7  8  2  0
  9  7  1  0
 10  9  1  0
 10 11  1  6
 12 13  2  0
 12 11  1  0
 14 13  1  0
 15 14  2  0
 16 15  1  0
 16 17  2  0
 17 12  1  0
 18 10  1  0
 19 18  2  0
 21 20  1  1
 21 22  1  0
 23 21  1  0
 23 24  1  6
 24 18  1  0
 25 23  1  0
 26 25  1  0
 27 25  2  0
M  END
$$$$
