MFV.pdb
     RDKit          3D

 27 27  0  0  1  0  0  0  0  0999 V2000
   31.0496  -24.2285  -15.1551 C   0  0  0  0  0  0  0  0  0  0  0  0
   30.8954  -25.0314  -16.7711 S   0  0  0  0  0  0  0  0  0  0  0  0
   29.8597  -23.9959  -17.8257 C   0  0  0  0  0  0  0  0  0  0  0  0
   29.0739  -22.9877  -16.9993 C   0  0  0  0  0  0  0  0  0  0  0  0
   28.1311  -22.2454  -17.9170 C   0  0  2  0  0  0  0  0  0  0  0  0
   28.8230  -21.4598  -18.9016 N   0  0  0  0  0  0  0  0  0  0  0  0
   27.2176  -21.3814  -17.1332 C   0  0  0  0  0  0  0  0  0  0  0  0
   27.4707  -20.1421  -17.0887 O   0  0  0  0  0  0  0  0  0  0  0  0
   26.0881  -21.9183  -16.4493 N   0  0  0  0  0  0  0  0  0  0  0  0
   25.1979  -21.0615  -15.7110 C   0  0  1  0  0  0  0  0  0  0  0  0
   23.8751  -20.9794  -16.4029 C   0  0  0  0  0  0  0  0  0  0  0  0
   22.8411  -20.2269  -15.6946 C   0  0  0  0  0  0  0  0  0  0  0  0
   22.7450  -18.8381  -15.7839 C   0  0  0  0  0  0  0  0  0  0  0  0
   21.7854  -18.1148  -15.1191 C   0  0  0  0  0  0  0  0  0  0  0  0
   20.8888  -18.7809  -14.3390 C   0  0  0  0  0  0  0  0  0  0  0  0
   20.9644  -20.1407  -14.2370 C   0  0  0  0  0  0  0  0  0  0  0  0
   21.9306  -20.8854  -14.9043 C   0  0  0  0  0  0  0  0  0  0  0  0
   25.0720  -21.6278  -14.3312 C   0  0  0  0  0  0  0  0  0  0  0  0
   24.8597  -22.8471  -14.1130 O   0  0  0  0  0  0  0  0  0  0  0  0
   25.4772  -21.4884   -9.4903 C   0  0  0  0  0  0  0  0  0  0  0  0
   25.9245  -20.8967  -10.8292 C   0  0  2  0  0  0  0  0  0  0  0  0
   25.9280  -19.3932  -10.6434 C   0  0  0  0  0  0  0  0  0  0  0  0
   24.9223  -21.3075  -11.8749 C   0  0  2  0  0  0  0  0  0  0  0  0
   25.1887  -20.7967  -13.1732 N   0  0  0  0  0  0  0  0  0  0  0  0
   23.5353  -20.9779  -11.4855 C   0  0  0  0  0  0  0  0  0  0  0  0
   22.7646  -21.7666  -10.6480 O   0  0  0  0  0  0  0  0  0  0  0  0
   23.0221  -19.9293  -11.9338 O   0  0  0  0  0  0  0  0  0  0  0  0
  2  3  1  0
  2  1  1  0
  3  4  1  0
  4  5  1  0
  5  6  1  6
  7  5  1  0
  7  8  2  0
  9  7  1  0
 10  9  1  0
 10 11  1  6
 12 13  2  0
 12 11  1  0
 14 13  1  0
 15 14  2  0
 16 15  1  0
 16 17  2  0
 17 12  1  0
 18 10  1  0
 19 18  2  0
 21 20  1  1
 21 22  1  0
 23 21  1  0
 23 24  1  6
 24 18  1  0
 25 23  1  0
 26 25  1  0
 27 25  2  0
M  END
$$$$
