MFV.pdb
     RDKit          3D

 27 27  0  0  1  0  0  0  0  0999 V2000
   21.1822  -20.7121  -11.8350 C   0  0  0  0  0  0  0  0  0  0  0  0
   21.8220  -20.4534  -13.5094 S   0  0  0  0  0  0  0  0  0  0  0  0
   23.6250  -20.5005  -13.4444 C   0  0  0  0  0  0  0  0  0  0  0  0
   24.1114  -20.9143  -12.0627 C   0  0  0  0  0  0  0  0  0  0  0  0
   25.6044  -20.6947  -11.9936 C   0  0  2  0  0  0  0  0  0  0  0  0
   26.3240  -21.4851  -12.9542 N   0  0  0  0  0  0  0  0  0  0  0  0
   26.1075  -20.9776  -10.6290 C   0  0  0  0  0  0  0  0  0  0  0  0
   26.1858  -22.1882  -10.2681 O   0  0  0  0  0  0  0  0  0  0  0  0
   26.4939  -19.9283   -9.7449 N   0  0  0  0  0  0  0  0  0  0  0  0
   26.9682  -20.2203   -8.4178 C   0  0  1  0  0  0  0  0  0  0  0  0
   28.0142  -19.2296   -8.0182 C   0  0  0  0  0  0  0  0  0  0  0  0
   28.5055  -19.3529   -6.6468 C   0  0  0  0  0  0  0  0  0  0  0  0
   28.2423  -18.3853   -5.6771 C   0  0  0  0  0  0  0  0  0  0  0  0
   28.7027  -18.4811   -4.3868 C   0  0  0  0  0  0  0  0  0  0  0  0
   29.4480  -19.5669   -4.0381 C   0  0  0  0  0  0  0  0  0  0  0  0
   29.7179  -20.5266   -4.9717 C   0  0  0  0  0  0  0  0  0  0  0  0
   29.2584  -20.4422   -6.2813 C   0  0  0  0  0  0  0  0  0  0  0  0
   25.7857  -20.1839   -7.5007 C   0  0  0  0  0  0  0  0  0  0  0  0
   24.8931  -19.3027   -7.5763 O   0  0  0  0  0  0  0  0  0  0  0  0
   24.1942  -23.5325   -5.4935 C   0  0  0  0  0  0  0  0  0  0  0  0
   23.4954  -22.1968   -5.7589 C   0  0  2  0  0  0  0  0  0  0  0  0
   23.0092  -22.2549   -7.1924 C   0  0  0  0  0  0  0  0  0  0  0  0
   24.5102  -21.0994   -5.5788 C   0  0  2  0  0  0  0  0  0  0  0  0
   25.6093  -21.1660   -6.4761 N   0  0  0  0  0  0  0  0  0  0  0  0
   25.0066  -21.0141   -4.1895 C   0  0  0  0  0  0  0  0  0  0  0  0
   24.1929  -20.7660   -3.0969 O   0  0  0  0  0  0  0  0  0  0  0  0
   26.2293  -21.1740   -3.9810 O   0  0  0  0  0  0  0  0  0  0  0  0
  2  3  1  0
  2  1  1  0
  3  4  1  0
  4  5  1  0
  5  6  1  6
  7  5  1  0
  7  8  2  0
  9  7  1  0
 10  9  1  0
 10 11  1  1
 12 13  2  0
 12 11  1  0
 14 13  1  0
 15 14  2  0
 16 15  1  0
 16 17  2  0
 17 12  1  0
 18 10  1  0
 19 18  2  0
 21 20  1  6
 21 22  1  0
 23 21  1  0
 23 24  1  6
 24 18  1  0
 25 23  1  0
 26 25  1  0
 27 25  2  0
M  END
$$$$
