MFV.pdb
     RDKit          3D

 27 27  0  0  1  0  0  0  0  0999 V2000
   21.0503  -23.8109  -16.0734 C   0  0  0  0  0  0  0  0  0  0  0  0
   19.6435  -23.4055  -15.0072 S   0  0  0  0  0  0  0  0  0  0  0  0
   19.6320  -21.6218  -14.7323 C   0  0  0  0  0  0  0  0  0  0  0  0
   21.0241  -21.1133  -14.3854 C   0  0  0  0  0  0  0  0  0  0  0  0
   21.1759  -21.1168  -12.8824 C   0  0  2  0  0  0  0  0  0  0  0  0
   20.1277  -20.3907  -12.2197 N   0  0  0  0  0  0  0  0  0  0  0  0
   22.4952  -20.5660  -12.4932 C   0  0  0  0  0  0  0  0  0  0  0  0
   22.5947  -19.3114  -12.3591 O   0  0  0  0  0  0  0  0  0  0  0  0
   23.6208  -21.4127  -12.2740 N   0  0  0  0  0  0  0  0  0  0  0  0
   24.9004  -20.8594  -11.9160 C   0  0  1  0  0  0  0  0  0  0  0  0
   25.5732  -21.7352  -10.9083 C   0  0  0  0  0  0  0  0  0  0  0  0
   26.7334  -21.1480  -10.2402 C   0  0  0  0  0  0  0  0  0  0  0  0
   26.6048  -20.3300   -9.1176 C   0  0  0  0  0  0  0  0  0  0  0  0
   27.6829  -19.7637   -8.4826 C   0  0  0  0  0  0  0  0  0  0  0  0
   28.9312  -20.0107   -8.9690 C   0  0  0  0  0  0  0  0  0  0  0  0
   29.0805  -20.8087  -10.0674 C   0  0  0  0  0  0  0  0  0  0  0  0
   27.9981  -21.3882  -10.7199 C   0  0  0  0  0  0  0  0  0  0  0  0
   25.7033  -20.7361  -13.1732 C   0  0  0  0  0  0  0  0  0  0  0  0
   25.7811  -21.6578  -14.0238 O   0  0  0  0  0  0  0  0  0  0  0  0
   27.2710  -16.9365  -14.3907 C   0  0  0  0  0  0  0  0  0  0  0  0
   26.7647  -18.0048  -15.3630 C   0  0  2  0  0  0  0  0  0  0  0  0
   25.2769  -17.7631  -15.5146 C   0  0  0  0  0  0  0  0  0  0  0  0
   27.0311  -19.3533  -14.7491 C   0  0  2  0  0  0  0  0  0  0  0  0
   26.4341  -19.5442  -13.4745 N   0  0  0  0  0  0  0  0  0  0  0  0
   28.4742  -19.6624  -14.6738 C   0  0  0  0  0  0  0  0  0  0  0  0
   29.2469  -19.9957  -15.7736 O   0  0  0  0  0  0  0  0  0  0  0  0
   29.0364  -19.6226  -13.5573 O   0  0  0  0  0  0  0  0  0  0  0  0
  2  3  1  0
  2  1  1  0
  3  4  1  0
  4  5  1  0
  5  6  1  1
  7  5  1  0
  7  8  2  0
  9  7  1  0
 10  9  1  0
 10 11  1  1
 12 13  2  0
 12 11  1  0
 14 13  1  0
 15 14  2  0
 16 15  1  0
 16 17  2  0
 17 12  1  0
 18 10  1  0
 19 18  2  0
 21 20  1  1
 21 22  1  0
 23 21  1  0
 23 24  1  1
 24 18  1  0
 25 23  1  0
 26 25  1  0
 27 25  2  0
M  END
$$$$
