MFV.pdb
     RDKit          3D

 27 27  0  0  1  0  0  0  0  0999 V2000
   30.4475  -18.1783  -13.5903 C   0  0  0  0  0  0  0  0  0  0  0  0
   28.7559  -18.6420  -14.0415 S   0  0  0  0  0  0  0  0  0  0  0  0
   28.2690  -20.0643  -13.0429 C   0  0  0  0  0  0  0  0  0  0  0  0
   29.4810  -20.8980  -12.6517 C   0  0  0  0  0  0  0  0  0  0  0  0
   29.7024  -20.7547  -11.1642 C   0  0  2  0  0  0  0  0  0  0  0  0
   30.7823  -21.5730  -10.6852 N   0  0  0  0  0  0  0  0  0  0  0  0
   28.4603  -21.0732  -10.4220 C   0  0  0  0  0  0  0  0  0  0  0  0
   28.1039  -22.2862  -10.3608 O   0  0  0  0  0  0  0  0  0  0  0  0
   27.6858  -20.0548   -9.7935 N   0  0  0  0  0  0  0  0  0  0  0  0
   26.4251  -20.3655   -9.1725 C   0  0  1  0  0  0  0  0  0  0  0  0
   26.2212  -19.5032   -7.9683 C   0  0  0  0  0  0  0  0  0  0  0  0
   27.1153  -19.7730   -6.8435 C   0  0  0  0  0  0  0  0  0  0  0  0
   27.0411  -20.9552   -6.1067 C   0  0  0  0  0  0  0  0  0  0  0  0
   27.8674  -21.2213   -5.0425 C   0  0  0  0  0  0  0  0  0  0  0  0
   28.7994  -20.2920   -4.6907 C   0  0  0  0  0  0  0  0  0  0  0  0
   28.8896  -19.1273   -5.3983 C   0  0  0  0  0  0  0  0  0  0  0  0
   28.0596  -18.8448   -6.4775 C   0  0  0  0  0  0  0  0  0  0  0  0
   25.3556  -20.1537  -10.1982 C   0  0  0  0  0  0  0  0  0  0  0  0
   25.1291  -19.0350  -10.7237 O   0  0  0  0  0  0  0  0  0  0  0  0
   23.5508  -23.4124  -12.3062 C   0  0  0  0  0  0  0  0  0  0  0  0
   23.7099  -21.9841  -12.8330 C   0  0  2  0  0  0  0  0  0  0  0  0
   25.1038  -21.9065  -13.4212 C   0  0  0  0  0  0  0  0  0  0  0  0
   23.5641  -21.0419  -11.6679 C   0  0  2  0  0  0  0  0  0  0  0  0
   24.5246  -21.2311  -10.6387 N   0  0  0  0  0  0  0  0  0  0  0  0
   22.2043  -21.0674  -11.0901 C   0  0  0  0  0  0  0  0  0  0  0  0
   21.0615  -20.7407  -11.8005 O   0  0  0  0  0  0  0  0  0  0  0  0
   22.0701  -21.4020   -9.8925 O   0  0  0  0  0  0  0  0  0  0  0  0
  2  3  1  0
  2  1  1  0
  3  4  1  0
  4  5  1  0
  5  6  1  1
  7  5  1  0
  7  8  2  0
  9  7  1  0
 10  9  1  0
 10 11  1  1
 12 13  2  0
 12 11  1  0
 14 13  1  0
 15 14  2  0
 16 15  1  0
 16 17  2  0
 17 12  1  0
 18 10  1  0
 19 18  2  0
 21 20  1  1
 21 22  1  0
 23 21  1  0
 23 24  1  1
 24 18  1  0
 25 23  1  0
 26 25  1  0
 27 25  2  0
M  END
$$$$
