PGF.pdb
     RDKit          3D

 23 24  0  0  1  0  0  0  0  0999 V2000
   25.9646  -17.4810  -13.4973 N   0  0  0  0  0  0  0  0  0  0  0  0
   26.9537  -16.9793  -14.4085 C   0  0  0  0  0  0  0  0  0  0  0  0
   26.7020  -17.5789  -15.7532 C   0  0  0  0  0  0  0  0  0  0  0  0
   25.2859  -18.1376  -15.5930 C   0  0  0  0  0  0  0  0  0  0  0  0
   25.3599  -18.6315  -14.1423 C   0  0  1  0  0  0  0  0  0  0  0  0
   26.3141  -19.7565  -14.0623 C   0  0  0  0  0  0  0  0  0  0  0  0
   26.2351  -20.7491  -14.8311 O   0  0  0  0  0  0  0  0  0  0  0  0
   27.3803  -19.7740  -13.1031 N   0  0  0  0  0  0  0  0  0  0  0  0
   27.8296  -21.0266  -12.5396 C   0  0  0  0  0  0  0  0  0  0  0  0
   27.2799  -21.2431  -11.1761 C   0  0  0  0  0  0  0  0  0  0  0  0
   26.7934  -22.3642  -10.8859 O   0  0  0  0  0  0  0  0  0  0  0  0
   27.2828  -20.2369  -10.1918 N   0  0  0  0  0  0  0  0  0  0  0  0
   27.2290  -20.5633   -8.7664 C   0  0  1  0  0  0  0  0  0  0  0  0
   28.1128  -19.5618   -8.0709 C   0  0  0  0  0  0  0  0  0  0  0  0
   28.1645  -19.6984   -6.6165 C   0  0  0  0  0  0  0  0  0  0  0  0
   27.6434  -18.6837   -5.8397 C   0  0  0  0  0  0  0  0  0  0  0  0
   27.6726  -18.7764   -4.4493 C   0  0  0  0  0  0  0  0  0  0  0  0
   28.2245  -19.8871   -3.8380 C   0  0  0  0  0  0  0  0  0  0  0  0
   28.7392  -20.8886   -4.6464 C   0  0  0  0  0  0  0  0  0  0  0  0
   28.7170  -20.8099   -6.0207 C   0  0  0  0  0  0  0  0  0  0  0  0
   25.8613  -20.5910   -8.2579 C   0  0  0  0  0  0  0  0  0  0  0  0
   25.5954  -21.2113   -7.2034 O   0  0  0  0  0  0  0  0  0  0  0  0
   24.8298  -19.9456   -8.9096 O   0  0  0  0  0  0  0  0  0  0  0  0
  1  2  1  0
  2  3  1  0
  4  3  1  0
  5  4  1  0
  5  1  1  0
  5  6  1  6
  6  7  2  0
  8  6  1  0
  9  8  1  0
  9 10  1  0
 10 12  1  0
 11 10  2  0
 12 13  1  0
 13 14  1  1
 14 15  1  0
 15 20  1  0
 16 15  2  0
 16 17  1  0
 17 18  2  0
 18 19  1  0
 20 19  2  0
 21 13  1  0
 21 23  1  0
 22 21  2  0
M  END
$$$$
