PGF.pdb
     RDKit          3D

 23 24  0  0  1  0  0  0  0  0999 V2000
   21.8581  -11.0740  -17.9994 N   0  0  0  0  0  0  0  0  0  0  0  0
   21.8442  -11.1347  -16.5654 C   0  0  0  0  0  0  0  0  0  0  0  0
   20.4541  -11.4529  -16.1213 C   0  0  0  0  0  0  0  0  0  0  0  0
   19.8064  -11.9346  -17.4219 C   0  0  0  0  0  0  0  0  0  0  0  0
   20.4724  -10.9768  -18.4185 C   0  0  1  0  0  0  0  0  0  0  0  0
   20.0077   -9.6002  -18.1510 C   0  0  0  0  0  0  0  0  0  0  0  0
   18.7890   -9.3304  -17.9937 O   0  0  0  0  0  0  0  0  0  0  0  0
   20.9233   -8.5002  -18.0568 N   0  0  0  0  0  0  0  0  0  0  0  0
   20.4276   -7.1431  -18.0301 C   0  0  0  0  0  0  0  0  0  0  0  0
   20.3066   -6.6308  -16.6404 C   0  0  0  0  0  0  0  0  0  0  0  0
   19.3714   -7.0516  -15.9149 O   0  0  0  0  0  0  0  0  0  0  0  0
   21.2025   -5.6881  -16.1020 N   0  0  0  0  0  0  0  0  0  0  0  0
   21.0618   -5.1981  -14.7304 C   0  0  1  0  0  0  0  0  0  0  0  0
   22.3242   -5.5927  -14.0101 C   0  0  0  0  0  0  0  0  0  0  0  0
   22.6361   -7.0199  -14.0607 C   0  0  0  0  0  0  0  0  0  0  0  0
   23.5757   -7.4578  -14.9716 C   0  0  0  0  0  0  0  0  0  0  0  0
   23.9019   -8.8106  -15.0504 C   0  0  0  0  0  0  0  0  0  0  0  0
   23.2856   -9.7242  -14.2154 C   0  0  0  0  0  0  0  0  0  0  0  0
   22.3464   -9.2521  -13.3117 C   0  0  0  0  0  0  0  0  0  0  0  0
   22.0148   -7.9189  -13.2233 C   0  0  0  0  0  0  0  0  0  0  0  0
   20.7822   -3.7665  -14.6818 C   0  0  0  0  0  0  0  0  0  0  0  0
   20.9493   -3.0587  -15.7009 O   0  0  0  0  0  0  0  0  0  0  0  0
   20.3313   -3.1521  -13.5309 O   0  0  0  0  0  0  0  0  0  0  0  0
  1  2  1  0
  2  3  1  0
  4  3  1  0
  5  4  1  0
  5  1  1  0
  5  6  1  1
  6  7  2  0
  8  6  1  0
  9  8  1  0
  9 10  1  0
 10 12  1  0
 11 10  2  0
 12 13  1  0
 13 14  1  1
 14 15  1  0
 15 20  1  0
 16 15  2  0
 16 17  1  0
 17 18  2  0
 18 19  1  0
 20 19  2  0
 21 13  1  0
 21 23  1  0
 22 21  2  0
M  END
$$$$
