PGF.pdb
     RDKit          3D

 23 24  0  0  1  0  0  0  0  0999 V2000
   26.3818  -18.5110  -16.5644 N   0  0  0  0  0  0  0  0  0  0  0  0
   25.3639  -17.9839  -15.7004 C   0  0  0  0  0  0  0  0  0  0  0  0
   26.0292  -17.3285  -14.5348 C   0  0  0  0  0  0  0  0  0  0  0  0
   27.4753  -17.2046  -15.0213 C   0  0  0  0  0  0  0  0  0  0  0  0
   27.6088  -18.5256  -15.7901 C   0  0  1  0  0  0  0  0  0  0  0  0
   27.5354  -19.6506  -14.8353 C   0  0  0  0  0  0  0  0  0  0  0  0
   28.2057  -19.6619  -13.7708 O   0  0  0  0  0  0  0  0  0  0  0  0
   26.6952  -20.7883  -15.0738 N   0  0  0  0  0  0  0  0  0  0  0  0
   26.7352  -21.9212  -14.1775 C   0  0  0  0  0  0  0  0  0  0  0  0
   25.6372  -21.8683  -13.1775 C   0  0  0  0  0  0  0  0  0  0  0  0
   25.4400  -22.8627  -12.4357 O   0  0  0  0  0  0  0  0  0  0  0  0
   24.8054  -20.7429  -13.0277 N   0  0  0  0  0  0  0  0  0  0  0  0
   23.6703  -20.7502  -12.1042 C   0  0  1  0  0  0  0  0  0  0  0  0
   23.8794  -19.5878  -11.1699 C   0  0  0  0  0  0  0  0  0  0  0  0
   24.6454  -19.9020   -9.9652 C   0  0  0  0  0  0  0  0  0  0  0  0
   25.8534  -19.2651   -9.7668 C   0  0  0  0  0  0  0  0  0  0  0  0
   26.6133  -19.5364   -8.6303 C   0  0  0  0  0  0  0  0  0  0  0  0
   26.1613  -20.4466   -7.6927 C   0  0  0  0  0  0  0  0  0  0  0  0
   24.9441  -21.0691   -7.9216 C   0  0  0  0  0  0  0  0  0  0  0  0
   24.1835  -20.8106   -9.0396 C   0  0  0  0  0  0  0  0  0  0  0  0
   22.3897  -20.7172  -12.8036 C   0  0  0  0  0  0  0  0  0  0  0  0
   22.3510  -20.4840  -14.0331 O   0  0  0  0  0  0  0  0  0  0  0  0
   21.1961  -20.9381  -12.1464 O   0  0  0  0  0  0  0  0  0  0  0  0
  1  2  1  0
  2  3  1  0
  4  3  1  0
  5  4  1  0
  5  1  1  0
  5  6  1  1
  6  7  2  0
  8  6  1  0
  9  8  1  0
  9 10  1  0
 10 12  1  0
 11 10  2  0
 12 13  1  0
 13 14  1  1
 14 15  1  0
 15 20  1  0
 16 15  2  0
 16 17  1  0
 17 18  2  0
 18 19  1  0
 20 19  2  0
 21 13  1  0
 21 23  1  0
 22 21  2  0
M  END
$$$$
