PGF.pdb
     RDKit          3D

 23 24  0  0  1  0  0  0  0  0999 V2000
   27.6245  -19.8103  -15.2371 N   0  0  0  0  0  0  0  0  0  0  0  0
   26.7130  -19.0221  -16.0168 C   0  0  0  0  0  0  0  0  0  0  0  0
   26.7562  -17.6167  -15.5129 C   0  0  0  0  0  0  0  0  0  0  0  0
   28.0299  -17.6215  -14.6639 C   0  0  0  0  0  0  0  0  0  0  0  0
   27.9362  -19.0271  -14.0560 C   0  0  1  0  0  0  0  0  0  0  0  0
   26.7728  -19.0847  -13.1473 C   0  0  0  0  0  0  0  0  0  0  0  0
   26.3378  -18.0601  -12.5612 O   0  0  0  0  0  0  0  0  0  0  0  0
   26.0795  -20.3130  -12.8869 N   0  0  0  0  0  0  0  0  0  0  0  0
   25.2723  -20.4529  -11.6965 C   0  0  0  0  0  0  0  0  0  0  0  0
   26.0878  -20.8723  -10.5271 C   0  0  0  0  0  0  0  0  0  0  0  0
   26.7239  -21.9540  -10.5841 O   0  0  0  0  0  0  0  0  0  0  0  0
   26.1763  -20.1020   -9.3524 N   0  0  0  0  0  0  0  0  0  0  0  0
   26.8092  -20.6263   -8.1417 C   0  0  1  0  0  0  0  0  0  0  0  0
   27.8398  -19.6083   -7.7300 C   0  0  0  0  0  0  0  0  0  0  0  0
   28.2536  -19.6890   -6.3304 C   0  0  0  0  0  0  0  0  0  0  0  0
   27.6511  -18.8503   -5.4151 C   0  0  0  0  0  0  0  0  0  0  0  0
   28.0170  -18.8971   -4.0709 C   0  0  0  0  0  0  0  0  0  0  0  0
   28.9872  -19.7854   -3.6450 C   0  0  0  0  0  0  0  0  0  0  0  0
   29.5730  -20.6141   -4.5893 C   0  0  0  0  0  0  0  0  0  0  0  0
   29.2212  -20.5783   -5.9198 C   0  0  0  0  0  0  0  0  0  0  0  0
   25.8357  -20.9302   -7.0976 C   0  0  0  0  0  0  0  0  0  0  0  0
   24.6969  -20.4110   -7.1298 O   0  0  0  0  0  0  0  0  0  0  0  0
   26.1303  -21.7860   -6.0554 O   0  0  0  0  0  0  0  0  0  0  0  0
  1  2  1  0
  2  3  1  0
  4  3  1  0
  5  4  1  0
  5  1  1  0
  5  6  1  1
  6  7  2  0
  8  6  1  0
  9  8  1  0
  9 10  1  0
 10 12  1  0
 11 10  2  0
 12 13  1  0
 13 14  1  1
 14 15  1  0
 15 20  1  0
 16 15  2  0
 16 17  1  0
 17 18  2  0
 18 19  1  0
 20 19  2  0
 21 13  1  0
 21 23  1  0
 22 21  2  0
M  END
$$$$
