PGF.pdb
     RDKit          3D

 23 24  0  0  1  0  0  0  0  0999 V2000
   27.1948  -18.9725  -14.6315 N   0  0  0  0  0  0  0  0  0  0  0  0
   28.3126  -19.5913  -13.9773 C   0  0  0  0  0  0  0  0  0  0  0  0
   28.0732  -21.0648  -13.9294 C   0  0  0  0  0  0  0  0  0  0  0  0
   26.9347  -21.2357  -14.9382 C   0  0  0  0  0  0  0  0  0  0  0  0
   26.1322  -19.9605  -14.6485 C   0  0  1  0  0  0  0  0  0  0  0  0
   25.5631  -20.0456  -13.2879 C   0  0  0  0  0  0  0  0  0  0  0  0
   24.6915  -20.9009  -12.9858 O   0  0  0  0  0  0  0  0  0  0  0  0
   25.9759  -19.1563  -12.2410 N   0  0  0  0  0  0  0  0  0  0  0  0
   25.2920  -19.1663  -10.9680 C   0  0  0  0  0  0  0  0  0  0  0  0
   25.7129  -20.3180  -10.1284 C   0  0  0  0  0  0  0  0  0  0  0  0
   25.4168  -21.4816  -10.4973 O   0  0  0  0  0  0  0  0  0  0  0  0
   26.4336  -20.1560   -8.9303 N   0  0  0  0  0  0  0  0  0  0  0  0
   26.6717  -21.2805   -8.0248 C   0  0  1  0  0  0  0  0  0  0  0  0
   28.0611  -21.0924   -7.4751 C   0  0  0  0  0  0  0  0  0  0  0  0
   28.1445  -20.2086   -6.3138 C   0  0  0  0  0  0  0  0  0  0  0  0
   28.4041  -20.7656   -5.0782 C   0  0  0  0  0  0  0  0  0  0  0  0
   28.4925  -19.9568   -3.9465 C   0  0  0  0  0  0  0  0  0  0  0  0
   28.3203  -18.5891   -4.0542 C   0  0  0  0  0  0  0  0  0  0  0  0
   28.0609  -18.0610   -5.3093 C   0  0  0  0  0  0  0  0  0  0  0  0
   27.9710  -18.8481   -6.4353 C   0  0  0  0  0  0  0  0  0  0  0  0
   25.6431  -21.3867   -6.9947 C   0  0  0  0  0  0  0  0  0  0  0  0
   24.8054  -20.4683   -6.8461 O   0  0  0  0  0  0  0  0  0  0  0  0
   25.5584  -22.4843   -6.1620 O   0  0  0  0  0  0  0  0  0  0  0  0
  1  2  1  0
  2  3  1  0
  4  3  1  0
  5  4  1  0
  5  1  1  0
  5  6  1  1
  6  7  2  0
  8  6  1  0
  9  8  1  0
  9 10  1  0
 10 12  1  0
 11 10  2  0
 12 13  1  0
 13 14  1  1
 14 15  1  0
 15 20  1  0
 16 15  2  0
 16 17  1  0
 17 18  2  0
 18 19  1  0
 20 19  2  0
 21 13  1  0
 21 23  1  0
 22 21  2  0
M  END
$$$$
