PGF.pdb
     RDKit          3D

 23 24  0  0  1  0  0  0  0  0999 V2000
   25.4119  -18.9261  -15.3641 N   0  0  0  0  0  0  0  0  0  0  0  0
   25.4909  -17.4929  -15.3589 C   0  0  0  0  0  0  0  0  0  0  0  0
   26.4551  -17.0709  -16.4187 C   0  0  0  0  0  0  0  0  0  0  0  0
   26.5992  -18.3505  -17.2464 C   0  0  0  0  0  0  0  0  0  0  0  0
   26.5547  -19.3964  -16.1246 C   0  0  1  0  0  0  0  0  0  0  0  0
   27.7584  -19.2519  -15.2804 C   0  0  0  0  0  0  0  0  0  0  0  0
   28.9177  -19.3895  -15.7492 O   0  0  0  0  0  0  0  0  0  0  0  0
   27.6664  -18.9471  -13.8819 N   0  0  0  0  0  0  0  0  0  0  0  0
   28.3210  -19.7926  -12.9098 C   0  0  0  0  0  0  0  0  0  0  0  0
   27.3407  -20.5919  -12.1296 C   0  0  0  0  0  0  0  0  0  0  0  0
   27.1596  -21.7977  -12.4314 O   0  0  0  0  0  0  0  0  0  0  0  0
   26.6034  -20.0488  -11.0607 N   0  0  0  0  0  0  0  0  0  0  0  0
   25.5198  -20.7972  -10.4228 C   0  0  1  0  0  0  0  0  0  0  0  0
   25.4310  -20.2876   -9.0085 C   0  0  0  0  0  0  0  0  0  0  0  0
   26.6867  -20.3351   -8.2617 C   0  0  0  0  0  0  0  0  0  0  0  0
   26.9918  -19.2875   -7.4168 C   0  0  0  0  0  0  0  0  0  0  0  0
   28.1789  -19.2957   -6.6865 C   0  0  0  0  0  0  0  0  0  0  0  0
   29.0601  -20.3548   -6.8036 C   0  0  0  0  0  0  0  0  0  0  0  0
   28.7242  -21.3913   -7.6606 C   0  0  0  0  0  0  0  0  0  0  0  0
   27.5552  -21.3960   -8.3878 C   0  0  0  0  0  0  0  0  0  0  0  0
   24.2665  -20.6926  -11.1634 C   0  0  0  0  0  0  0  0  0  0  0  0
   23.2257  -21.2253  -10.7157 O   0  0  0  0  0  0  0  0  0  0  0  0
   24.1849  -20.0144  -12.3628 O   0  0  0  0  0  0  0  0  0  0  0  0
  1  2  1  0
  2  3  1  0
  4  3  1  0
  5  4  1  0
  5  1  1  0
  5  6  1  1
  6  7  2  0
  8  6  1  0
  9  8  1  0
  9 10  1  0
 10 12  1  0
 11 10  2  0
 12 13  1  0
 13 14  1  1
 14 15  1  0
 15 20  1  0
 16 15  2  0
 16 17  1  0
 17 18  2  0
 18 19  1  0
 20 19  2  0
 21 13  1  0
 21 23  1  0
 22 21  2  0
M  END
$$$$
