PGF.pdb
     RDKit          3D

 23 24  0  0  1  0  0  0  0  0999 V2000
   26.2294  -19.4382  -14.6479 N   0  0  0  0  0  0  0  0  0  0  0  0
   27.0779  -18.2834  -14.5660 C   0  0  0  0  0  0  0  0  0  0  0  0
   28.4862  -18.7462  -14.3833 C   0  0  0  0  0  0  0  0  0  0  0  0
   28.3854  -20.2279  -14.7545 C   0  0  0  0  0  0  0  0  0  0  0  0
   27.0116  -20.5568  -14.1558 C   0  0  1  0  0  0  0  0  0  0  0  0
   27.0875  -20.4514  -12.6842 C   0  0  0  0  0  0  0  0  0  0  0  0
   27.8475  -21.1885  -12.0047 O   0  0  0  0  0  0  0  0  0  0  0  0
   26.2975  -19.5023  -11.9545 N   0  0  0  0  0  0  0  0  0  0  0  0
   25.1801  -19.9498  -11.1549 C   0  0  0  0  0  0  0  0  0  0  0  0
   25.6309  -20.6944   -9.9504 C   0  0  0  0  0  0  0  0  0  0  0  0
   25.0008  -21.7223   -9.5980 O   0  0  0  0  0  0  0  0  0  0  0  0
   26.7413  -20.2916   -9.1850 N   0  0  0  0  0  0  0  0  0  0  0  0
   27.0863  -20.9604   -7.9301 C   0  0  1  0  0  0  0  0  0  0  0  0
   28.4566  -20.4641   -7.5506 C   0  0  0  0  0  0  0  0  0  0  0  0
   28.5884  -20.0376   -6.1587 C   0  0  0  0  0  0  0  0  0  0  0  0
   28.3620  -18.7116   -5.8509 C   0  0  0  0  0  0  0  0  0  0  0  0
   28.4766  -18.2654   -4.5354 C   0  0  0  0  0  0  0  0  0  0  0  0
   28.8182  -19.1494   -3.5286 C   0  0  0  0  0  0  0  0  0  0  0  0
   29.0390  -20.4744   -3.8709 C   0  0  0  0  0  0  0  0  0  0  0  0
   28.9293  -20.9285   -5.1659 C   0  0  0  0  0  0  0  0  0  0  0  0
   26.0785  -20.7474   -6.8961 C   0  0  0  0  0  0  0  0  0  0  0  0
   25.9595  -21.5660   -5.9564 O   0  0  0  0  0  0  0  0  0  0  0  0
   25.2352  -19.6548   -6.9165 O   0  0  0  0  0  0  0  0  0  0  0  0
  1  2  1  0
  2  3  1  0
  4  3  1  0
  5  4  1  0
  5  1  1  0
  5  6  1  1
  6  7  2  0
  8  6  1  0
  9  8  1  0
  9 10  1  0
 10 12  1  0
 11 10  2  0
 12 13  1  0
 13 14  1  1
 14 15  1  0
 15 20  1  0
 16 15  2  0
 16 17  1  0
 17 18  2  0
 18 19  1  0
 20 19  2  0
 21 13  1  0
 21 23  1  0
 22 21  2  0
M  END
$$$$
