PGF.pdb
     RDKit          3D

 23 24  0  0  1  0  0  0  0  0999 V2000
7214151.0000-3596578.0000-3973290.2500 N   0  0  0  0  0  0  0  0  0  0  0  0
7214154.0000-3596577.5000-3973290.7500 C   0  0  0  0  0  0  0  0  0  0  0  0
7214155.0000-3596577.2500-3973291.2500 C   0  0  0  0  0  0  0  0  0  0  0  0
7214155.0000-3596574.5000-3973291.7500 C   0  0  0  0  0  0  0  0  0  0  0  0
7214154.0000-3596575.5000-3973289.0000 C   0  0  1  0  0  0  0  0  0  0  0  0
7214152.0000-3596576.2500-3973289.7500 C   0  0  0  0  0  0  0  0  0  0  0  0
7214151.0000-3596576.5000-3973289.7500 O   0  0  0  0  0  0  0  0  0  0  0  0
7214153.0000-3596574.7500-3973290.7500 N   0  0  0  0  0  0  0  0  0  0  0  0
7214154.0000-3596572.5000-3973289.5000 C   0  0  0  0  0  0  0  0  0  0  0  0
7214154.0000-3596572.5000-3973290.7500 C   0  0  0  0  0  0  0  0  0  0  0  0
7214156.0000-3596574.5000-3973290.2500 O   0  0  0  0  0  0  0  0  0  0  0  0
7214152.0000-3596572.7500-3973290.0000 N   0  0  0  0  0  0  0  0  0  0  0  0
7214154.0000-3596571.5000-3973292.7500 C   0  0  2  0  0  0  0  0  0  0  0  0
7214153.0000-3596571.2500-3973292.7500 C   0  0  0  0  0  0  0  0  0  0  0  0
7214152.0000-3596569.2500-3973293.2500 C   0  0  0  0  0  0  0  0  0  0  0  0
7214151.0000-3596570.5000-3973293.2500 C   0  0  0  0  0  0  0  0  0  0  0  0
7214150.0000-3596571.2500-3973295.2500 C   0  0  0  0  0  0  0  0  0  0  0  0
7214150.0000-3596569.7500-3973294.7500 C   0  0  0  0  0  0  0  0  0  0  0  0
7214151.0000-3596569.7500-3973293.7500 C   0  0  0  0  0  0  0  0  0  0  0  0
7214152.0000-3596569.2500-3973294.2500 C   0  0  0  0  0  0  0  0  0  0  0  0
7214154.0000-3596573.5000-3973294.0000 C   0  0  0  0  0  0  0  0  0  0  0  0
7214153.0000-3596573.0000-3973291.7500 O   0  0  0  0  0  0  0  0  0  0  0  0
7214155.0000-3596572.7500-3973293.0000 O   0  0  0  0  0  0  0  0  0  0  0  0
  1  2  1  0
  2  3  1  0
  4  3  1  0
  5  4  1  0
  5  1  1  0
  5  6  1  1
  6  7  2  0
  8  6  1  0
  9  8  1  0
  9 10  1  0
 10 12  1  0
 11 10  2  0
 12 13  1  0
 13 14  1  1
 14 15  1  0
 15 20  1  0
 16 15  2  0
 16 17  1  0
 17 18  2  0
 18 19  1  0
 20 19  2  0
 21 13  1  0
 21 23  1  0
 22 21  2  0
M  END
$$$$
