PGF.pdb
     RDKit          3D

 23 24  0  0  1  0  0  0  0  0999 V2000
   24.9826  -20.2109  -13.7994 N   0  0  0  0  0  0  0  0  0  0  0  0
   24.5676  -19.0716  -14.5675 C   0  0  0  0  0  0  0  0  0  0  0  0
   25.4619  -18.9558  -15.7582 C   0  0  0  0  0  0  0  0  0  0  0  0
   26.1413  -20.3273  -15.7812 C   0  0  0  0  0  0  0  0  0  0  0  0
   26.3072  -20.5646  -14.2744 C   0  0  1  0  0  0  0  0  0  0  0  0
   27.2667  -19.5806  -13.7325 C   0  0  0  0  0  0  0  0  0  0  0  0
   27.7950  -18.6999  -14.4589 O   0  0  0  0  0  0  0  0  0  0  0  0
   27.6450  -19.5795  -12.3490 N   0  0  0  0  0  0  0  0  0  0  0  0
   28.3870  -20.6906  -11.7982 C   0  0  0  0  0  0  0  0  0  0  0  0
   28.0456  -20.9243  -10.3709 C   0  0  0  0  0  0  0  0  0  0  0  0
   28.4972  -21.9455   -9.7955 O   0  0  0  0  0  0  0  0  0  0  0  0
   27.2322  -20.0427   -9.6345 N   0  0  0  0  0  0  0  0  0  0  0  0
   26.5494  -20.4734   -8.4141 C   0  0  1  0  0  0  0  0  0  0  0  0
   26.6937  -19.3434   -7.4290 C   0  0  0  0  0  0  0  0  0  0  0  0
   27.5640  -19.6322   -6.2907 C   0  0  0  0  0  0  0  0  0  0  0  0
   28.7069  -18.8766   -6.1258 C   0  0  0  0  0  0  0  0  0  0  0  0
   29.5623  -19.1199   -5.0526 C   0  0  0  0  0  0  0  0  0  0  0  0
   29.2712  -20.1213   -4.1447 C   0  0  0  0  0  0  0  0  0  0  0  0
   28.1158  -20.8621   -4.3386 C   0  0  0  0  0  0  0  0  0  0  0  0
   27.2622  -20.6325   -5.3941 C   0  0  0  0  0  0  0  0  0  0  0  0
   25.1645  -20.8603   -8.6638 C   0  0  0  0  0  0  0  0  0  0  0  0
   24.4755  -21.3580   -7.7445 O   0  0  0  0  0  0  0  0  0  0  0  0
   24.5746  -20.6942   -9.9006 O   0  0  0  0  0  0  0  0  0  0  0  0
  1  2  1  0
  2  3  1  0
  4  3  1  0
  5  4  1  0
  5  1  1  0
  5  6  1  1
  6  7  2  0
  8  6  1  0
  9  8  1  0
  9 10  1  0
 10 12  1  0
 11 10  2  0
 12 13  1  0
 13 14  1  1
 14 15  1  0
 15 20  1  0
 16 15  2  0
 16 17  1  0
 17 18  2  0
 18 19  1  0
 20 19  2  0
 21 13  1  0
 21 23  1  0
 22 21  2  0
M  END
$$$$
