PGF.pdb
     RDKit          3D

 23 24  0  0  1  0  0  0  0  0999 V2000
   20.5642  -11.9606  -17.8410 N   0  0  0  0  0  0  0  0  0  0  0  0
   20.0228  -11.8558  -16.5157 C   0  0  0  0  0  0  0  0  0  0  0  0
   18.5522  -11.6187  -16.6256 C   0  0  0  0  0  0  0  0  0  0  0  0
   18.2789  -11.9831  -18.0870 C   0  0  0  0  0  0  0  0  0  0  0  0
   19.5541  -11.4326  -18.7388 C   0  0  1  0  0  0  0  0  0  0  0  0
   19.5605   -9.9599  -18.6214 C   0  0  0  0  0  0  0  0  0  0  0  0
   18.5871   -9.2599  -19.0022 O   0  0  0  0  0  0  0  0  0  0  0  0
   20.6782   -9.2527  -18.0665 N   0  0  0  0  0  0  0  0  0  0  0  0
   20.7483   -7.8127  -18.1661 C   0  0  0  0  0  0  0  0  0  0  0  0
   20.5885   -7.1629  -16.8393 C   0  0  0  0  0  0  0  0  0  0  0  0
   19.7435   -7.6241  -16.0324 O   0  0  0  0  0  0  0  0  0  0  0  0
   21.3502   -6.0455  -16.4487 N   0  0  0  0  0  0  0  0  0  0  0  0
   21.1395   -5.3920  -15.1565 C   0  0  1  0  0  0  0  0  0  0  0  0
   22.3618   -5.6904  -14.3289 C   0  0  0  0  0  0  0  0  0  0  0  0
   22.6322   -7.1130  -14.1290 C   0  0  0  0  0  0  0  0  0  0  0  0
   23.5951   -7.7176  -14.9111 C   0  0  0  0  0  0  0  0  0  0  0  0
   23.8832   -9.0718  -14.7506 C   0  0  0  0  0  0  0  0  0  0  0  0
   23.2054   -9.8196  -13.8055 C   0  0  0  0  0  0  0  0  0  0  0  0
   22.2443   -9.1825  -13.0361 C   0  0  0  0  0  0  0  0  0  0  0  0
   21.9498   -7.8458  -13.1841 C   0  0  0  0  0  0  0  0  0  0  0  0
   20.8611   -3.9664  -15.2979 C   0  0  0  0  0  0  0  0  0  0  0  0
   21.1293   -3.3770  -16.3695 O   0  0  0  0  0  0  0  0  0  0  0  0
   20.3017   -3.2294  -14.2736 O   0  0  0  0  0  0  0  0  0  0  0  0
  1  2  1  0
  2  3  1  0
  4  3  1  0
  5  4  1  0
  5  1  1  0
  5  6  1  1
  6  7  2  0
  8  6  1  0
  9  8  1  0
  9 10  1  0
 10 12  1  0
 11 10  2  0
 12 13  1  0
 13 14  1  1
 14 15  1  0
 15 20  1  0
 16 15  2  0
 16 17  1  0
 17 18  2  0
 18 19  1  0
 20 19  2  0
 21 13  1  0
 21 23  1  0
 22 21  2  0
M  END
$$$$
