PGF.pdb
     RDKit          3D

 23 24  0  0  1  0  0  0  0  0999 V2000
   28.3305  -21.0324  -20.5943 N   0  0  0  0  0  0  0  0  0  0  0  0
   27.8219  -21.6628  -21.7793 C   0  0  0  0  0  0  0  0  0  0  0  0
   27.5696  -20.6054  -22.8035 C   0  0  0  0  0  0  0  0  0  0  0  0
   28.3339  -19.4121  -22.2247 C   0  0  0  0  0  0  0  0  0  0  0  0
   28.0485  -19.6157  -20.7311 C   0  0  1  0  0  0  0  0  0  0  0  0
   26.6072  -19.4086  -20.4813 C   0  0  0  0  0  0  0  0  0  0  0  0
   25.7254  -19.9721  -21.1796 O   0  0  0  0  0  0  0  0  0  0  0  0
   26.1395  -18.5538  -19.4288 N   0  0  0  0  0  0  0  0  0  0  0  0
   24.7216  -18.3772  -19.2127 C   0  0  0  0  0  0  0  0  0  0  0  0
   24.3668  -18.4981  -17.7747 C   0  0  0  0  0  0  0  0  0  0  0  0
   25.1904  -19.0247  -16.9859 O   0  0  0  0  0  0  0  0  0  0  0  0
   23.1386  -18.0438  -17.2589 N   0  0  0  0  0  0  0  0  0  0  0  0
   22.8173  -18.1629  -15.8363 C   0  0  1  0  0  0  0  0  0  0  0  0
   22.7671  -16.7580  -15.2962 C   0  0  0  0  0  0  0  0  0  0  0  0
   23.9627  -15.9591  -15.5591 C   0  0  0  0  0  0  0  0  0  0  0  0
   23.9652  -15.1153  -16.6510 C   0  0  0  0  0  0  0  0  0  0  0  0
   25.0854  -14.3361  -16.9352 C   0  0  0  0  0  0  0  0  0  0  0  0
   26.2031  -14.4033  -16.1240 C   0  0  0  0  0  0  0  0  0  0  0  0
   26.1685  -15.2606  -15.0353 C   0  0  0  0  0  0  0  0  0  0  0  0
   25.0689  -16.0358  -14.7430 C   0  0  0  0  0  0  0  0  0  0  0  0
   21.5919  -18.9224  -15.6090 C   0  0  0  0  0  0  0  0  0  0  0  0
   20.8621  -19.2414  -16.5750 O   0  0  0  0  0  0  0  0  0  0  0  0
   21.2003  -19.3097  -14.3433 O   0  0  0  0  0  0  0  0  0  0  0  0
  1  2  1  0
  2  3  1  0
  4  3  1  0
  5  4  1  0
  5  1  1  0
  5  6  1  6
  6  7  2  0
  8  6  1  0
  9  8  1  0
  9 10  1  0
 10 12  1  0
 11 10  2  0
 12 13  1  0
 13 14  1  6
 14 15  1  0
 15 20  1  0
 16 15  2  0
 16 17  1  0
 17 18  2  0
 18 19  1  0
 20 19  2  0
 21 13  1  0
 21 23  1  0
 22 21  2  0
M  END
$$$$
