KGY.pdb
     RDKit          3D

 26 26  0  0  1  0  0  0  0  0999 V2000
   20.0011   -9.4463  -19.8016 N   0  0  0  0  0  0  0  0  0  0  0  0
   21.4271   -9.4527  -19.7683 C   0  0  1  0  0  0  0  0  0  0  0  0
   22.0466  -10.5436  -20.5986 C   0  0  0  0  0  0  0  0  0  0  0  0
   21.3894  -11.8719  -20.4255 C   0  0  0  0  0  0  0  0  0  0  0  0
   22.0201  -12.9820  -21.2024 C   0  0  0  0  0  0  0  0  0  0  0  0
   21.2789  -14.2877  -21.0950 C   0  0  0  0  0  0  0  0  0  0  0  0
   21.8981  -15.3205  -21.9026 N   0  0  0  0  0  0  0  0  0  0  0  0
   21.9625   -8.1434  -20.2180 C   0  0  0  0  0  0  0  0  0  0  0  0
   21.3848   -7.4281  -21.0729 O   0  0  0  0  0  0  0  0  0  0  0  0
   23.1885   -7.6428  -19.6748 N   0  0  0  0  0  0  0  0  0  0  0  0
   23.7401   -6.3713  -20.0468 C   0  0  0  0  0  0  0  0  0  0  0  0
   23.5649   -5.4005  -18.9256 C   0  0  0  0  0  0  0  0  0  0  0  0
   22.4113   -5.0944  -18.5102 O   0  0  0  0  0  0  0  0  0  0  0  0
   21.0624   -8.2383  -14.4109 O   0  0  0  0  0  0  0  0  0  0  0  0
   22.0415   -7.3151  -14.7866 C   0  0  0  0  0  0  0  0  0  0  0  0
   21.9032   -5.9796  -14.4998 C   0  0  0  0  0  0  0  0  0  0  0  0
   22.8829   -5.0996  -14.8825 C   0  0  0  0  0  0  0  0  0  0  0  0
   24.0223   -5.5285  -15.5593 C   0  0  0  0  0  0  0  0  0  0  0  0
   25.0586   -4.5698  -15.9771 C   0  0  0  0  0  0  0  0  0  0  0  0
   24.5888   -3.8465  -17.2149 C   0  0  2  0  0  0  0  0  0  0  0  0
   24.6972   -4.8060  -18.3091 N   0  0  0  0  0  0  0  0  0  0  0  0
   25.3581   -2.6207  -17.5117 C   0  0  0  0  0  0  0  0  0  0  0  0
   25.2619   -1.4415  -16.7995 O   0  0  0  0  0  0  0  0  0  0  0  0
   24.1306   -6.8705  -15.8314 C   0  0  0  0  0  0  0  0  0  0  0  0
   23.1528   -7.7913  -15.4560 C   0  0  0  0  0  0  0  0  0  0  0  0
   26.1684   -2.6570  -18.4995 O   0  0  0  0  0  0  0  0  0  0  0  0
  2  3  1  0
  2  1  1  6
  4  5  1  0
  4  3  1  0
  6  7  1  0
  6  5  1  0
  8  2  1  0
  9  8  2  0
 10  8  1  0
 11 10  1  0
 12 11  1  0
 12 21  1  0
 13 12  2  0
 15 14  1  0
 16 15  2  0
 17 16  1  0
 18 17  2  0
 18 24  1  0
 19 18  1  0
 20 22  1  0
 20 21  1  0
 20 19  1  1
 22 23  1  0
 24 25  2  0
 25 15  1  0
 26 22  2  0
M  END
$$$$
