KGY.pdb
     RDKit          3D

 26 26  0  0  1  0  0  0  0  0999 V2000
   22.8614  -22.3950  -17.4914 N   0  0  0  0  0  0  0  0  0  0  0  0
   23.6881  -21.4131  -18.1134 C   0  0  1  0  0  0  0  0  0  0  0  0
   23.0867  -20.0342  -18.1229 C   0  0  0  0  0  0  0  0  0  0  0  0
   21.8950  -19.8964  -17.2357 C   0  0  0  0  0  0  0  0  0  0  0  0
   22.1712  -19.2359  -15.9238 C   0  0  0  0  0  0  0  0  0  0  0  0
   20.9482  -19.0792  -15.0603 C   0  0  0  0  0  0  0  0  0  0  0  0
   21.2894  -18.6046  -13.7335 N   0  0  0  0  0  0  0  0  0  0  0  0
   25.0141  -21.3547  -17.4489 C   0  0  0  0  0  0  0  0  0  0  0  0
   25.9220  -20.5652  -17.8077 O   0  0  0  0  0  0  0  0  0  0  0  0
   25.3055  -22.2215  -16.3478 N   0  0  0  0  0  0  0  0  0  0  0  0
   26.5606  -22.1974  -15.6524 C   0  0  0  0  0  0  0  0  0  0  0  0
   26.3190  -22.2267  -14.1789 C   0  0  0  0  0  0  0  0  0  0  0  0
   25.7551  -23.2189  -13.6362 O   0  0  0  0  0  0  0  0  0  0  0  0
   27.5420  -20.0734   -5.7604 O   0  0  0  0  0  0  0  0  0  0  0  0
   27.5798  -20.1150   -7.1565 C   0  0  0  0  0  0  0  0  0  0  0  0
   28.4306  -20.9663   -7.8171 C   0  0  0  0  0  0  0  0  0  0  0  0
   28.4428  -20.9825   -9.1884 C   0  0  0  0  0  0  0  0  0  0  0  0
   27.6087  -20.1520   -9.9333 C   0  0  0  0  0  0  0  0  0  0  0  0
   27.6438  -20.1698  -11.4050 C   0  0  0  0  0  0  0  0  0  0  0  0
   26.6182  -21.1545  -11.9094 C   0  0  2  0  0  0  0  0  0  0  0  0
   26.7215  -21.1353  -13.3649 N   0  0  0  0  0  0  0  0  0  0  0  0
   25.2397  -20.8475  -11.4757 C   0  0  0  0  0  0  0  0  0  0  0  0
   24.6166  -21.4137  -10.3811 O   0  0  0  0  0  0  0  0  0  0  0  0
   26.7695  -19.3120   -9.2427 C   0  0  0  0  0  0  0  0  0  0  0  0
   26.7325  -19.2711   -7.8492 C   0  0  0  0  0  0  0  0  0  0  0  0
   24.5792  -19.9980  -12.1655 O   0  0  0  0  0  0  0  0  0  0  0  0
  2  3  1  0
  2  1  1  1
  4  5  1  0
  4  3  1  0
  6  7  1  0
  6  5  1  0
  8  2  1  0
  9  8  2  0
 10  8  1  0
 11 10  1  0
 12 11  1  0
 12 21  1  0
 13 12  2  0
 15 14  1  0
 16 15  2  0
 17 16  1  0
 18 17  2  0
 18 24  1  0
 19 18  1  0
 20 22  1  0
 20 21  1  0
 20 19  1  1
 22 23  1  0
 24 25  2  0
 25 15  1  0
 26 22  2  0
M  END
$$$$
