KGY.pdb
     RDKit          3D

 26 26  0  0  1  0  0  0  0  0999 V2000
   25.4802  -21.9150  -15.9875 N   0  0  0  0  0  0  0  0  0  0  0  0
   26.2880  -20.8043  -16.3728 C   0  0  1  0  0  0  0  0  0  0  0  0
   25.7652  -20.0639  -17.5735 C   0  0  0  0  0  0  0  0  0  0  0  0
   24.5964  -20.7272  -18.2218 C   0  0  0  0  0  0  0  0  0  0  0  0
   24.4760  -20.4755  -19.6900 C   0  0  0  0  0  0  0  0  0  0  0  0
   23.2372  -21.0720  -20.3027 C   0  0  0  0  0  0  0  0  0  0  0  0
   23.1478  -20.7771  -21.7194 N   0  0  0  0  0  0  0  0  0  0  0  0
   26.4311  -19.8506  -15.2446 C   0  0  0  0  0  0  0  0  0  0  0  0
   27.1521  -18.8246  -15.3067 O   0  0  0  0  0  0  0  0  0  0  0  0
   25.7315  -20.0786  -14.0169 N   0  0  0  0  0  0  0  0  0  0  0  0
   25.8028  -19.1755  -12.9039 C   0  0  0  0  0  0  0  0  0  0  0  0
   26.2548  -19.9133  -11.6866 C   0  0  0  0  0  0  0  0  0  0  0  0
   26.4588  -21.1599  -11.7252 O   0  0  0  0  0  0  0  0  0  0  0  0
   29.4826  -21.1497   -3.6306 O   0  0  0  0  0  0  0  0  0  0  0  0
   28.9722  -20.5831   -4.8014 C   0  0  0  0  0  0  0  0  0  0  0  0
   29.5267  -20.8657   -6.0252 C   0  0  0  0  0  0  0  0  0  0  0  0
   29.0016  -20.2928   -7.1552 C   0  0  0  0  0  0  0  0  0  0  0  0
   27.9130  -19.4259   -7.0930 C   0  0  0  0  0  0  0  0  0  0  0  0
   27.3697  -18.8068   -8.3132 C   0  0  0  0  0  0  0  0  0  0  0  0
   26.8717  -19.8919   -9.2353 C   0  0  2  0  0  0  0  0  0  0  0  0
   26.4620  -19.2208  -10.4647 N   0  0  0  0  0  0  0  0  0  0  0  0
   25.7586  -20.6829   -8.6716 C   0  0  0  0  0  0  0  0  0  0  0  0
   25.9129  -21.7636   -7.8258 O   0  0  0  0  0  0  0  0  0  0  0  0
   27.3815  -19.1636   -5.8539 C   0  0  0  0  0  0  0  0  0  0  0  0
   27.8915  -19.7296   -4.6859 C   0  0  0  0  0  0  0  0  0  0  0  0
   24.5696  -20.3408   -8.9924 O   0  0  0  0  0  0  0  0  0  0  0  0
  2  3  1  0
  2  1  1  1
  4  5  1  0
  4  3  1  0
  6  7  1  0
  6  5  1  0
  8  2  1  0
  9  8  2  0
 10  8  1  0
 11 10  1  0
 12 11  1  0
 12 21  1  0
 13 12  2  0
 15 14  1  0
 16 15  2  0
 17 16  1  0
 18 17  2  0
 18 24  1  0
 19 18  1  0
 20 22  1  0
 20 21  1  0
 20 19  1  1
 22 23  1  0
 24 25  2  0
 25 15  1  0
 26 22  2  0
M  END
$$$$
