KGY.pdb
     RDKit          3D

 26 26  0  0  1  0  0  0  0  0999 V2000
   23.9666  -22.7907  -18.7595 N   0  0  0  0  0  0  0  0  0  0  0  0
   23.8484  -21.3736  -18.6479 C   0  0  1  0  0  0  0  0  0  0  0  0
   22.5719  -20.9230  -17.9916 C   0  0  0  0  0  0  0  0  0  0  0  0
   22.3862  -21.4633  -16.6132 C   0  0  0  0  0  0  0  0  0  0  0  0
   21.1310  -21.0170  -15.9358 C   0  0  0  0  0  0  0  0  0  0  0  0
   20.8566  -21.7376  -14.6430 C   0  0  0  0  0  0  0  0  0  0  0  0
   19.6401  -21.2608  -14.0145 N   0  0  0  0  0  0  0  0  0  0  0  0
   24.9992  -20.8146  -17.8955 C   0  0  0  0  0  0  0  0  0  0  0  0
   25.2126  -19.5815  -17.7936 O   0  0  0  0  0  0  0  0  0  0  0  0
   25.9266  -21.6894  -17.2450 N   0  0  0  0  0  0  0  0  0  0  0  0
   27.0350  -21.2084  -16.4708 C   0  0  0  0  0  0  0  0  0  0  0  0
   26.8612  -21.6083  -15.0424 C   0  0  0  0  0  0  0  0  0  0  0  0
   26.3205  -22.7100  -14.7411 O   0  0  0  0  0  0  0  0  0  0  0  0
   26.9547  -20.7985   -6.2878 O   0  0  0  0  0  0  0  0  0  0  0  0
   27.1669  -20.6029   -7.6549 C   0  0  0  0  0  0  0  0  0  0  0  0
   28.2581  -21.1457   -8.2872 C   0  0  0  0  0  0  0  0  0  0  0  0
   28.4369  -20.9347   -9.6304 C   0  0  0  0  0  0  0  0  0  0  0  0
   27.5341  -20.1790  -10.3748 C   0  0  0  0  0  0  0  0  0  0  0  0
   27.7475  -19.9486  -11.8132 C   0  0  0  0  0  0  0  0  0  0  0  0
   26.9748  -20.9808  -12.5963 C   0  0  2  0  0  0  0  0  0  0  0  0
   27.3031  -20.7520  -13.9998 N   0  0  0  0  0  0  0  0  0  0  0  0
   25.5148  -20.9167  -12.3803 C   0  0  0  0  0  0  0  0  0  0  0  0
   24.7950  -21.8092  -11.6106 O   0  0  0  0  0  0  0  0  0  0  0  0
   26.4532  -19.6497   -9.7129 C   0  0  0  0  0  0  0  0  0  0  0  0
   26.2421  -19.8454   -8.3484 C   0  0  0  0  0  0  0  0  0  0  0  0
   24.8751  -19.9673  -12.9488 O   0  0  0  0  0  0  0  0  0  0  0  0
  2  3  1  0
  2  1  1  1
  4  5  1  0
  4  3  1  0
  6  7  1  0
  6  5  1  0
  8  2  1  0
  9  8  2  0
 10  8  1  0
 11 10  1  0
 12 11  1  0
 12 21  1  0
 13 12  2  0
 15 14  1  0
 16 15  2  0
 17 16  1  0
 18 17  2  0
 18 24  1  0
 19 18  1  0
 20 22  1  0
 20 21  1  0
 20 19  1  1
 22 23  1  0
 24 25  2  0
 25 15  1  0
 26 22  2  0
M  END
$$$$
