KGY.pdb
     RDKit          3D

 26 26  0  0  1  0  0  0  0  0999 V2000
   21.7702  -17.9811  -15.9563 N   0  0  0  0  0  0  0  0  0  0  0  0
   20.9713  -19.1612  -15.8943 C   0  0  1  0  0  0  0  0  0  0  0  0
   21.1280  -20.0612  -17.0896 C   0  0  0  0  0  0  0  0  0  0  0  0
   20.7621  -19.4085  -18.3805 C   0  0  0  0  0  0  0  0  0  0  0  0
   21.9216  -19.1087  -19.2745 C   0  0  0  0  0  0  0  0  0  0  0  0
   21.5364  -18.3830  -20.5358 C   0  0  0  0  0  0  0  0  0  0  0  0
   22.7003  -18.0329  -21.3263 N   0  0  0  0  0  0  0  0  0  0  0  0
   21.2822  -19.9345  -14.6661 C   0  0  0  0  0  0  0  0  0  0  0  0
   20.8394  -21.0908  -14.4584 O   0  0  0  0  0  0  0  0  0  0  0  0
   22.1202  -19.3689  -13.6530 N   0  0  0  0  0  0  0  0  0  0  0  0
   22.5878  -20.1209  -12.5237 C   0  0  0  0  0  0  0  0  0  0  0  0
   24.0618  -20.3331  -12.6371 C   0  0  0  0  0  0  0  0  0  0  0  0
   24.7057  -19.8795  -13.6253 O   0  0  0  0  0  0  0  0  0  0  0  0
   27.9466  -18.6220   -6.1931 O   0  0  0  0  0  0  0  0  0  0  0  0
   27.6206  -19.4776   -7.2485 C   0  0  0  0  0  0  0  0  0  0  0  0
   28.5824  -19.9264   -8.1196 C   0  0  0  0  0  0  0  0  0  0  0  0
   28.2290  -20.7655   -9.1451 C   0  0  0  0  0  0  0  0  0  0  0  0
   26.9107  -21.1771   -9.3271 C   0  0  0  0  0  0  0  0  0  0  0  0
   26.5440  -22.0663  -10.4417 C   0  0  0  0  0  0  0  0  0  0  0  0
   26.2103  -21.2276  -11.6504 C   0  0  2  0  0  0  0  0  0  0  0  0
   24.7618  -21.0504  -11.6317 N   0  0  0  0  0  0  0  0  0  0  0  0
   26.6505  -21.8273  -12.9267 C   0  0  0  0  0  0  0  0  0  0  0  0
   27.7967  -21.4689  -13.6086 O   0  0  0  0  0  0  0  0  0  0  0  0
   25.9725  -20.7104   -8.4390 C   0  0  0  0  0  0  0  0  0  0  0  0
   26.2987  -19.8564   -7.3859 C   0  0  0  0  0  0  0  0  0  0  0  0
   25.9155  -22.7418  -13.4338 O   0  0  0  0  0  0  0  0  0  0  0  0
  2  3  1  0
  2  1  1  6
  4  5  1  0
  4  3  1  0
  6  7  1  0
  6  5  1  0
  8  2  1  0
  9  8  2  0
 10  8  1  0
 11 10  1  0
 12 11  1  0
 12 21  1  0
 13 12  2  0
 15 14  1  0
 16 15  2  0
 17 16  1  0
 18 17  2  0
 18 24  1  0
 19 18  1  0
 20 22  1  0
 20 21  1  0
 20 19  1  1
 22 23  1  0
 24 25  2  0
 25 15  1  0
 26 22  2  0
M  END
$$$$
