KGY.pdb
     RDKit          3D

 26 26  0  0  1  0  0  0  0  0999 V2000
   24.2259  -17.2489  -20.2989 N   0  0  0  0  0  0  0  0  0  0  0  0
   23.0563  -17.9032  -19.8106 C   0  0  1  0  0  0  0  0  0  0  0  0
   22.7006  -19.1524  -20.5697 C   0  0  0  0  0  0  0  0  0  0  0  0
   23.6982  -19.5192  -21.6169 C   0  0  0  0  0  0  0  0  0  0  0  0
   25.0237  -19.9583  -21.0842 C   0  0  0  0  0  0  0  0  0  0  0  0
   25.9830  -20.4066  -22.1540 C   0  0  0  0  0  0  0  0  0  0  0  0
   27.2931  -20.7004  -21.6066 N   0  0  0  0  0  0  0  0  0  0  0  0
   23.2126  -18.2418  -18.3740 C   0  0  0  0  0  0  0  0  0  0  0  0
   22.5770  -19.1720  -17.8199 O   0  0  0  0  0  0  0  0  0  0  0  0
   24.1186  -17.4966  -17.5539 N   0  0  0  0  0  0  0  0  0  0  0  0
   24.3505  -17.8084  -16.1724 C   0  0  0  0  0  0  0  0  0  0  0  0
   25.4796  -18.7792  -16.0592 C   0  0  0  0  0  0  0  0  0  0  0  0
   25.9419  -19.3551  -17.0847 O   0  0  0  0  0  0  0  0  0  0  0  0
   23.8699  -21.0343   -9.4186 O   0  0  0  0  0  0  0  0  0  0  0  0
   24.8459  -20.7006  -10.3611 C   0  0  0  0  0  0  0  0  0  0  0  0
   26.0433  -21.3706  -10.4086 C   0  0  0  0  0  0  0  0  0  0  0  0
   26.9799  -21.0181  -11.3463 C   0  0  0  0  0  0  0  0  0  0  0  0
   26.7462  -19.9911  -12.2579 C   0  0  0  0  0  0  0  0  0  0  0  0
   27.7674  -19.6141  -13.2491 C   0  0  0  0  0  0  0  0  0  0  0  0
   27.2392  -19.9012  -14.6327 C   0  0  2  0  0  0  0  0  0  0  0  0
   26.0511  -19.0691  -14.7923 N   0  0  0  0  0  0  0  0  0  0  0  0
   26.9186  -21.3253  -14.8600 C   0  0  0  0  0  0  0  0  0  0  0  0
   27.8554  -22.3150  -15.0837 O   0  0  0  0  0  0  0  0  0  0  0  0
   25.5388  -19.3405  -12.1841 C   0  0  0  0  0  0  0  0  0  0  0  0
   24.5653  -19.6742  -11.2430 C   0  0  0  0  0  0  0  0  0  0  0  0
   25.6855  -21.6617  -14.8495 O   0  0  0  0  0  0  0  0  0  0  0  0
  2  3  1  0
  2  1  1  6
  4  5  1  0
  4  3  1  0
  6  7  1  0
  6  5  1  0
  8  2  1  0
  9  8  2  0
 10  8  1  0
 11 10  1  0
 12 11  1  0
 12 21  1  0
 13 12  2  0
 15 14  1  0
 16 15  2  0
 17 16  1  0
 18 17  2  0
 18 24  1  0
 19 18  1  0
 20 22  1  0
 20 21  1  0
 20 19  1  1
 22 23  1  0
 24 25  2  0
 25 15  1  0
 26 22  2  0
M  END
$$$$
