TNL.pdb
     RDKit          3D

 24 23  0  0  1  0  0  0  0  0999 V2000
   28.8896  -19.4556  -16.6765 C   0  0  0  0  0  0  0  0  0  0  0  0
   27.6710  -19.7494  -15.8635 C   0  0  1  0  0  0  0  0  0  0  0  0
   26.5962  -19.8263  -16.7851 O   0  0  0  0  0  0  0  0  0  0  0  0
   27.7106  -21.0735  -15.1284 C   0  0  2  0  0  0  0  0  0  0  0  0
   27.8365  -22.1191  -16.1501 N   0  0  0  0  0  0  0  0  0  0  0  0
   26.4837  -21.3566  -14.3563 C   0  0  0  0  0  0  0  0  0  0  0  0
   25.7510  -22.3637  -14.6411 O   0  0  0  0  0  0  0  0  0  0  0  0
   24.5587  -21.0095   -8.8571 N   0  0  0  0  0  0  0  0  0  0  0  0
   24.1079  -20.8137  -10.1882 C   0  0  0  0  0  0  0  0  0  0  0  0
   22.9526  -21.1736  -10.5076 O   0  0  0  0  0  0  0  0  0  0  0  0
   24.9864  -20.1974  -11.1752 C   0  0  0  0  0  0  0  0  0  0  0  0
   24.8206  -20.7395  -12.5766 C   0  0  2  0  0  0  0  0  0  0  0  0
   26.0807  -20.5334  -13.2829 N   0  0  0  0  0  0  0  0  0  0  0  0
   23.7640  -19.9575  -13.3140 C   0  0  0  0  0  0  0  0  0  0  0  0
   22.6176  -19.7548  -12.8466 O   0  0  0  0  0  0  0  0  0  0  0  0
   25.7114  -15.9409  -16.1962 C   0  0  0  0  0  0  0  0  0  0  0  0
   24.7740  -16.6894  -15.1737 C   0  0  1  0  0  0  0  0  0  0  0  0
   24.1166  -15.5854  -14.3567 C   0  0  0  0  0  0  0  0  0  0  0  0
   23.7553  -17.4374  -15.9511 C   0  0  0  0  0  0  0  0  0  0  0  0
   23.0397  -18.5103  -15.2617 C   0  0  2  0  0  0  0  0  0  0  0  0
   24.0282  -19.4067  -14.5941 N   0  0  0  0  0  0  0  0  0  0  0  0
   22.1130  -19.3725  -15.9509 C   0  0  0  0  0  0  0  0  0  0  0  0
   20.9242  -18.8482  -16.5055 O   0  0  0  0  0  0  0  0  0  0  0  0
   22.2659  -20.5956  -16.1127 O   0  0  0  0  0  0  0  0  0  0  0  0
  2  1  1  6
  2  3  1  0
  4  2  1  0
  4  5  1  6
  6  4  1  0
  6  7  2  0
  9 11  1  0
  9  8  1  0
 10  9  2  0
 12 11  1  1
 12 13  1  0
 12 14  1  0
 13  6  1  0
 14 15  2  0
 14 21  1  0
 17 16  1  6
 18 17  1  0
 19 17  1  0
 20 19  1  6
 21 20  1  0
 22 23  1  0
 22 20  1  0
 24 22  2  0
M  END
$$$$
