TNL.pdb
     RDKit          3D

 24 23  0  0  1  0  0  0  0  0999 V2000
   28.6851  -22.6222  -15.3361 C   0  0  0  0  0  0  0  0  0  0  0  0
   28.8900  -23.2713  -16.6661 C   0  0  1  0  0  0  0  0  0  0  0  0
   30.2458  -23.6852  -16.6937 O   0  0  0  0  0  0  0  0  0  0  0  0
   28.0507  -24.5115  -16.8958 C   0  0  2  0  0  0  0  0  0  0  0  0
   28.3303  -24.9621  -18.2640 N   0  0  0  0  0  0  0  0  0  0  0  0
   26.5973  -24.2663  -16.8004 C   0  0  0  0  0  0  0  0  0  0  0  0
   25.9423  -23.8263  -17.8051 O   0  0  0  0  0  0  0  0  0  0  0  0
   21.6906  -24.0916  -15.2309 N   0  0  0  0  0  0  0  0  0  0  0  0
   22.3645  -25.1493  -14.5671 C   0  0  0  0  0  0  0  0  0  0  0  0
   21.7047  -25.9839  -13.9082 O   0  0  0  0  0  0  0  0  0  0  0  0
   23.8156  -25.2608  -14.6537 C   0  0  0  0  0  0  0  0  0  0  0  0
   24.4743  -24.1649  -15.4601 C   0  0  2  0  0  0  0  0  0  0  0  0
   25.8845  -24.5098  -15.6067 N   0  0  0  0  0  0  0  0  0  0  0  0
   24.4111  -22.8591  -14.7100 C   0  0  0  0  0  0  0  0  0  0  0  0
   24.7863  -22.7400  -13.5189 O   0  0  0  0  0  0  0  0  0  0  0  0
   27.0862  -18.7448  -15.8441 C   0  0  0  0  0  0  0  0  0  0  0  0
   26.2532  -19.8151  -15.0409 C   0  0  1  0  0  0  0  0  0  0  0  0
   26.7163  -19.6762  -13.5971 C   0  0  0  0  0  0  0  0  0  0  0  0
   24.8173  -19.4613  -15.1624 C   0  0  0  0  0  0  0  0  0  0  0  0
   23.8460  -20.3935  -14.5913 C   0  0  2  0  0  0  0  0  0  0  0  0
   23.9141  -21.6860  -15.3336 N   0  0  0  0  0  0  0  0  0  0  0  0
   22.4474  -20.0633  -14.4820 C   0  0  0  0  0  0  0  0  0  0  0  0
   22.0125  -19.0857  -13.5596 O   0  0  0  0  0  0  0  0  0  0  0  0
   21.5399  -20.5820  -15.1550 O   0  0  0  0  0  0  0  0  0  0  0  0
  2  1  1  1
  2  3  1  0
  4  2  1  0
  4  5  1  6
  6  4  1  0
  6  7  2  0
  9 11  1  0
  9  8  1  0
 10  9  2  0
 12 11  1  1
 12 13  1  0
 12 14  1  0
 13  6  1  0
 14 15  2  0
 14 21  1  0
 17 16  1  6
 18 17  1  0
 19 17  1  0
 20 19  1  6
 21 20  1  0
 22 23  1  0
 22 20  1  0
 24 22  2  0
M  END
$$$$
