TNL.pdb
     RDKit          3D

 24 23  0  0  1  0  0  0  0  0999 V2000
   18.7678  -13.4628  -15.0832 C   0  0  0  0  0  0  0  0  0  0  0  0
   19.1077  -14.1553  -16.3627 C   0  0  1  0  0  0  0  0  0  0  0  0
   18.5749  -15.4646  -16.2514 O   0  0  0  0  0  0  0  0  0  0  0  0
   18.4860  -13.5350  -17.5971 C   0  0  2  0  0  0  0  0  0  0  0  0
   18.9329  -14.3365  -18.7421 N   0  0  0  0  0  0  0  0  0  0  0  0
   18.9163  -12.1428  -17.8383 C   0  0  0  0  0  0  0  0  0  0  0  0
   20.0319  -11.8940  -18.4089 O   0  0  0  0  0  0  0  0  0  0  0  0
   18.9286   -7.0283  -18.4815 N   0  0  0  0  0  0  0  0  0  0  0  0
   17.5896   -7.4600  -18.2962 C   0  0  0  0  0  0  0  0  0  0  0  0
   16.6488   -6.6652  -18.5186 O   0  0  0  0  0  0  0  0  0  0  0  0
   17.3144   -8.8203  -17.8498 C   0  0  0  0  0  0  0  0  0  0  0  0
   18.5501   -9.6650  -17.6381 C   0  0  2  0  0  0  0  0  0  0  0  0
   18.1161  -11.0458  -17.4530 N   0  0  0  0  0  0  0  0  0  0  0  0
   19.2544   -9.2464  -16.3730 C   0  0  0  0  0  0  0  0  0  0  0  0
   18.8021   -9.4932  -15.2292 O   0  0  0  0  0  0  0  0  0  0  0  0
   24.0316  -10.8625  -15.0012 C   0  0  0  0  0  0  0  0  0  0  0  0
   22.5435  -10.3545  -14.8914 C   0  0  1  0  0  0  0  0  0  0  0  0
   22.1528  -10.5829  -13.4376 C   0  0  0  0  0  0  0  0  0  0  0  0
   22.5307   -8.9058  -15.2115 C   0  0  0  0  0  0  0  0  0  0  0  0
   21.2381   -8.2226  -15.1775 C   0  0  2  0  0  0  0  0  0  0  0  0
   20.4840   -8.5411  -16.4249 N   0  0  0  0  0  0  0  0  0  0  0  0
   21.1354   -6.7966  -14.9960 C   0  0  0  0  0  0  0  0  0  0  0  0
   20.6007   -5.9813  -16.0182 O   0  0  0  0  0  0  0  0  0  0  0  0
   21.4903   -6.1827  -13.9748 O   0  0  0  0  0  0  0  0  0  0  0  0
  2  1  1  1
  2  3  1  0
  4  2  1  0
  4  5  1  6
  6  4  1  0
  6  7  2  0
  9 11  1  0
  9  8  1  0
 10  9  2  0
 12 11  1  1
 12 13  1  0
 12 14  1  0
 13  6  1  0
 14 15  2  0
 14 21  1  0
 17 16  1  1
 18 17  1  0
 19 17  1  0
 20 19  1  6
 21 20  1  0
 22 23  1  0
 22 20  1  0
 24 22  2  0
M  END
$$$$
