TNL.pdb
     RDKit          3D

 24 23  0  0  1  0  0  0  0  0999 V2000
   20.0140  -20.4637  -14.2924 C   0  0  0  0  0  0  0  0  0  0  0  0
   19.0472  -21.5162  -13.8567 C   0  0  1  0  0  0  0  0  0  0  0  0
   17.7679  -21.0666  -14.2709 O   0  0  0  0  0  0  0  0  0  0  0  0
   19.2623  -22.8713  -14.4989 C   0  0  2  0  0  0  0  0  0  0  0  0
   18.2802  -23.7822  -13.8997 N   0  0  0  0  0  0  0  0  0  0  0  0
   20.6023  -23.4385  -14.2453 C   0  0  0  0  0  0  0  0  0  0  0  0
   20.8275  -24.1392  -13.2011 O   0  0  0  0  0  0  0  0  0  0  0  0
   25.1487  -26.1990  -15.2352 N   0  0  0  0  0  0  0  0  0  0  0  0
   24.8063  -25.0559  -16.0030 C   0  0  0  0  0  0  0  0  0  0  0  0
   25.6982  -24.4487  -16.6370 O   0  0  0  0  0  0  0  0  0  0  0  0
   23.4243  -24.5939  -16.0514 C   0  0  0  0  0  0  0  0  0  0  0  0
   23.0164  -23.7355  -14.8759 C   0  0  2  0  0  0  0  0  0  0  0  0
   21.6731  -23.2311  -15.1411 N   0  0  0  0  0  0  0  0  0  0  0  0
   23.9271  -22.5396  -14.7657 C   0  0  0  0  0  0  0  0  0  0  0  0
   23.7709  -21.5002  -15.4505 O   0  0  0  0  0  0  0  0  0  0  0  0
   26.2008  -21.4283   -9.8886 C   0  0  0  0  0  0  0  0  0  0  0  0
   25.4142  -21.3153  -11.2499 C   0  0  1  0  0  0  0  0  0  0  0  0
   24.6668  -19.9914  -11.1674 C   0  0  0  0  0  0  0  0  0  0  0  0
   26.4088  -21.2830  -12.3506 C   0  0  0  0  0  0  0  0  0  0  0  0
   25.8968  -21.3405  -13.7193 C   0  0  2  0  0  0  0  0  0  0  0  0
   25.0219  -22.5404  -13.8637 N   0  0  0  0  0  0  0  0  0  0  0  0
   26.7759  -21.3412  -14.8613 C   0  0  0  0  0  0  0  0  0  0  0  0
   27.3523  -20.1365  -15.3218 O   0  0  0  0  0  0  0  0  0  0  0  0
   27.0921  -22.3508  -15.5142 O   0  0  0  0  0  0  0  0  0  0  0  0
  2  1  1  6
  2  3  1  0
  4  2  1  0
  4  5  1  1
  6  4  1  0
  6  7  2  0
  9 11  1  0
  9  8  1  0
 10  9  2  0
 12 11  1  6
 12 13  1  0
 12 14  1  0
 13  6  1  0
 14 15  2  0
 14 21  1  0
 17 16  1  1
 18 17  1  0
 19 17  1  0
 20 19  1  1
 21 20  1  0
 22 23  1  0
 22 20  1  0
 24 22  2  0
M  END
$$$$
