TNL.pdb
     RDKit          3D

 24 23  0  0  1  0  0  0  0  0999 V2000
   18.1780  -10.2801  -14.5165 C   0  0  0  0  0  0  0  0  0  0  0  0
   17.0114   -9.9559  -15.3919 C   0  0  1  0  0  0  0  0  0  0  0  0
   16.5134  -11.2001  -15.8551 O   0  0  0  0  0  0  0  0  0  0  0  0
   15.8657   -9.2650  -14.6813 C   0  0  2  0  0  0  0  0  0  0  0  0
   14.8266   -9.0270  -15.6897 N   0  0  0  0  0  0  0  0  0  0  0  0
   16.2319   -7.9543  -14.1074 C   0  0  0  0  0  0  0  0  0  0  0  0
   16.4136   -6.9393  -14.8616 O   0  0  0  0  0  0  0  0  0  0  0  0
   16.6518   -5.1245   -8.6440 N   0  0  0  0  0  0  0  0  0  0  0  0
   16.7938   -5.1956  -10.0540 C   0  0  0  0  0  0  0  0  0  0  0  0
   17.3391   -4.2510  -10.6676 O   0  0  0  0  0  0  0  0  0  0  0  0
   16.3070   -6.3621  -10.7806 C   0  0  0  0  0  0  0  0  0  0  0  0
   16.9271   -6.5442  -12.1472 C   0  0  2  0  0  0  0  0  0  0  0  0
   16.3905   -7.7761  -12.7162 N   0  0  0  0  0  0  0  0  0  0  0  0
   18.4181   -6.7249  -12.0207 C   0  0  0  0  0  0  0  0  0  0  0  0
   18.9388   -7.5477  -11.2298 O   0  0  0  0  0  0  0  0  0  0  0  0
   22.4357   -9.6488  -12.7997 C   0  0  0  0  0  0  0  0  0  0  0  0
   22.3566   -8.1559  -13.2993 C   0  0  1  0  0  0  0  0  0  0  0  0
   22.6944   -8.2156  -14.7828 C   0  0  0  0  0  0  0  0  0  0  0  0
   20.9646   -7.6815  -13.1020 C   0  0  0  0  0  0  0  0  0  0  0  0
   20.7737   -6.2584  -12.8243 C   0  0  2  0  0  0  0  0  0  0  0  0
   19.3129   -5.9555  -12.8076 N   0  0  0  0  0  0  0  0  0  0  0  0
   21.3895   -5.2361  -13.6322 C   0  0  0  0  0  0  0  0  0  0  0  0
   22.7460   -4.8918  -13.4397 O   0  0  0  0  0  0  0  0  0  0  0  0
   20.8132   -4.5946  -14.5277 O   0  0  0  0  0  0  0  0  0  0  0  0
  2  1  1  1
  2  3  1  0
  4  2  1  0
  4  5  1  6
  6  4  1  0
  6  7  2  0
  9 11  1  0
  9  8  1  0
 10  9  2  0
 12 11  1  1
 12 13  1  0
 12 14  1  0
 13  6  1  0
 14 15  2  0
 14 21  1  0
 17 16  1  6
 18 17  1  0
 19 17  1  0
 20 19  1  6
 21 20  1  0
 22 23  1  0
 22 20  1  0
 24 22  2  0
M  END
$$$$
