TNL.pdb
     RDKit          3D

 24 23  0  0  1  0  0  0  0  0999 V2000
   25.2250  -21.9511  -20.7949 C   0  0  0  0  0  0  0  0  0  0  0  0
   24.6633  -21.3254  -19.5599 C   0  0  1  0  0  0  0  0  0  0  0  0
   25.1581  -22.0917  -18.4744 O   0  0  0  0  0  0  0  0  0  0  0  0
   25.1063  -19.8962  -19.3226 C   0  0  2  0  0  0  0  0  0  0  0  0
   26.5733  -19.9098  -19.2897 N   0  0  0  0  0  0  0  0  0  0  0  0
   24.6414  -19.3404  -18.0356 C   0  0  0  0  0  0  0  0  0  0  0  0
   25.4384  -18.6867  -17.2809 O   0  0  0  0  0  0  0  0  0  0  0  0
   21.4837  -17.3950  -14.4072 N   0  0  0  0  0  0  0  0  0  0  0  0
   20.7233  -17.7750  -15.5434 C   0  0  0  0  0  0  0  0  0  0  0  0
   19.5025  -17.5037  -15.5877 O   0  0  0  0  0  0  0  0  0  0  0  0
   21.3623  -18.4767  -16.6502 C   0  0  0  0  0  0  0  0  0  0  0  0
   22.8019  -18.8596  -16.3928 C   0  0  2  0  0  0  0  0  0  0  0  0
   23.3100  -19.5071  -17.5976 N   0  0  0  0  0  0  0  0  0  0  0  0
   22.8785  -19.8709  -15.2778 C   0  0  0  0  0  0  0  0  0  0  0  0
   22.4985  -21.0591  -15.4101 O   0  0  0  0  0  0  0  0  0  0  0  0
   26.6681  -20.8776  -10.6818 C   0  0  0  0  0  0  0  0  0  0  0  0
   25.2192  -21.2534  -11.1758 C   0  0  1  0  0  0  0  0  0  0  0  0
   24.3191  -21.0347   -9.9674 C   0  0  0  0  0  0  0  0  0  0  0  0
   24.8542  -20.3216  -12.2712 C   0  0  0  0  0  0  0  0  0  0  0  0
   23.5682  -20.5359  -12.9338 C   0  0  2  0  0  0  0  0  0  0  0  0
   23.3944  -19.5130  -14.0060 N   0  0  0  0  0  0  0  0  0  0  0  0
   22.3289  -20.5658  -12.1988 C   0  0  0  0  0  0  0  0  0  0  0  0
   21.7784  -21.7952  -11.7731 O   0  0  0  0  0  0  0  0  0  0  0  0
   21.6630  -19.5632  -11.8872 O   0  0  0  0  0  0  0  0  0  0  0  0
  2  1  1  6
  2  3  1  0
  4  2  1  0
  4  5  1  1
  6  4  1  0
  6  7  2  0
  9 11  1  0
  9  8  1  0
 10  9  2  0
 12 11  1  6
 12 13  1  0
 12 14  1  0
 13  6  1  0
 14 15  2  0
 14 21  1  0
 17 16  1  1
 18 17  1  0
 19 17  1  0
 20 19  1  1
 21 20  1  0
 22 23  1  0
 22 20  1  0
 24 22  2  0
M  END
$$$$
