TNL.pdb
     RDKit          3D

 24 23  0  0  1  0  0  0  0  0999 V2000
   17.0098   -5.5088  -17.8360 C   0  0  0  0  0  0  0  0  0  0  0  0
   15.7139   -6.2456  -17.9363 C   0  0  1  0  0  0  0  0  0  0  0  0
   15.4953   -6.4642  -19.3201 O   0  0  0  0  0  0  0  0  0  0  0  0
   15.7131   -7.6082  -17.2742 C   0  0  2  0  0  0  0  0  0  0  0  0
   14.4272   -8.2348  -17.6010 N   0  0  0  0  0  0  0  0  0  0  0  0
   15.8133   -7.5487  -15.8018 C   0  0  0  0  0  0  0  0  0  0  0  0
   15.4821   -6.4905  -15.1672 O   0  0  0  0  0  0  0  0  0  0  0  0
   13.6853   -9.1242  -13.4112 N   0  0  0  0  0  0  0  0  0  0  0  0
   14.5726  -10.1537  -13.0033 C   0  0  0  0  0  0  0  0  0  0  0  0
   14.1093  -11.2489  -12.6135 O   0  0  0  0  0  0  0  0  0  0  0  0
   16.0135   -9.9345  -13.0389 C   0  0  0  0  0  0  0  0  0  0  0  0
   16.4224   -8.5909  -13.5980 C   0  0  2  0  0  0  0  0  0  0  0  0
   16.2720   -8.6505  -15.0481 N   0  0  0  0  0  0  0  0  0  0  0  0
   17.8792   -8.3312  -13.3119 C   0  0  0  0  0  0  0  0  0  0  0  0
   18.3140   -8.0921  -12.1597 O   0  0  0  0  0  0  0  0  0  0  0  0
   23.1285  -10.4321  -13.4001 C   0  0  0  0  0  0  0  0  0  0  0  0
   22.5179   -9.1609  -14.1040 C   0  0  1  0  0  0  0  0  0  0  0  0
   23.0002   -9.2361  -15.5463 C   0  0  0  0  0  0  0  0  0  0  0  0
   21.0395   -9.2716  -14.0440 C   0  0  0  0  0  0  0  0  0  0  0  0
   20.2713   -8.0278  -14.0855 C   0  0  2  0  0  0  0  0  0  0  0  0
   18.8391   -8.3468  -14.3561 N   0  0  0  0  0  0  0  0  0  0  0  0
   20.6196   -6.9474  -14.9733 C   0  0  0  0  0  0  0  0  0  0  0  0
   19.7683   -6.5989  -16.0455 O   0  0  0  0  0  0  0  0  0  0  0  0
   21.6495   -6.2569  -14.8828 O   0  0  0  0  0  0  0  0  0  0  0  0
  2  1  1  6
  2  3  1  0
  4  2  1  0
  4  5  1  1
  6  4  1  0
  6  7  2  0
  9 11  1  0
  9  8  1  0
 10  9  2  0
 12 11  1  1
 12 13  1  0
 12 14  1  0
 13  6  1  0
 14 15  2  0
 14 21  1  0
 17 16  1  1
 18 17  1  0
 19 17  1  0
 20 19  1  6
 21 20  1  0
 22 23  1  0
 22 20  1  0
 24 22  2  0
M  END
$$$$
