TNL.pdb
     RDKit          3D

 24 23  0  0  1  0  0  0  0  0999 V2000
   22.6093   -9.4813  -20.5171 C   0  0  0  0  0  0  0  0  0  0  0  0
   21.6340  -10.6117  -20.4600 C   0  0  1  0  0  0  0  0  0  0  0  0
   22.2274  -11.6761  -21.1849 O   0  0  0  0  0  0  0  0  0  0  0  0
   21.3591  -11.1342  -19.0649 C   0  0  2  0  0  0  0  0  0  0  0  0
   20.4642  -12.2873  -19.2156 N   0  0  0  0  0  0  0  0  0  0  0  0
   20.6764  -10.1570  -18.1928 C   0  0  0  0  0  0  0  0  0  0  0  0
   19.4961   -9.7514  -18.4657 O   0  0  0  0  0  0  0  0  0  0  0  0
   19.7305   -6.7862  -14.3203 N   0  0  0  0  0  0  0  0  0  0  0  0
   20.7578   -7.6754  -13.9111 C   0  0  0  0  0  0  0  0  0  0  0  0
   21.2074   -7.6041  -12.7454 O   0  0  0  0  0  0  0  0  0  0  0  0
   21.2843   -8.6644  -14.8441 C   0  0  0  0  0  0  0  0  0  0  0  0
   20.6881   -8.5868  -16.2311 C   0  0  2  0  0  0  0  0  0  0  0  0
   21.2968   -9.6421  -17.0342 N   0  0  0  0  0  0  0  0  0  0  0  0
   21.0461   -7.2730  -16.8773 C   0  0  0  0  0  0  0  0  0  0  0  0
   22.0358   -7.1355  -17.6357 O   0  0  0  0  0  0  0  0  0  0  0  0
   22.4371   -3.8322  -19.9585 C   0  0  0  0  0  0  0  0  0  0  0  0
   20.8862   -4.0060  -19.7369 C   0  0  1  0  0  0  0  0  0  0  0  0
   20.3218   -4.3237  -21.1149 C   0  0  0  0  0  0  0  0  0  0  0  0
   20.6821   -5.1507  -18.8152 C   0  0  0  0  0  0  0  0  0  0  0  0
   20.5311   -4.8478  -17.3925 C   0  0  2  0  0  0  0  0  0  0  0  0
   20.2619   -6.1133  -16.6494 N   0  0  0  0  0  0  0  0  0  0  0  0
   19.5680   -3.8870  -16.9169 C   0  0  0  0  0  0  0  0  0  0  0  0
   19.9316   -2.5325  -16.7472 O   0  0  0  0  0  0  0  0  0  0  0  0
   18.3877   -4.1478  -16.6262 O   0  0  0  0  0  0  0  0  0  0  0  0
  2  1  1  1
  2  3  1  0
  4  2  1  0
  4  5  1  6
  6  4  1  0
  6  7  2  0
  9 11  1  0
  9  8  1  0
 10  9  2  0
 12 11  1  1
 12 13  1  0
 12 14  1  0
 13  6  1  0
 14 15  2  0
 14 21  1  0
 17 16  1  6
 18 17  1  0
 19 17  1  0
 20 19  1  6
 21 20  1  0
 22 23  1  0
 22 20  1  0
 24 22  2  0
M  END
$$$$
