TVI.pdb
     RDKit          3D

 23 22  0  0  1  0  0  0  0  0999 V2000
   18.8748   -9.2861  -18.6529 C   0  0  0  0  0  0  0  0  0  0  0  0
   18.2668  -10.6106  -18.2752 C   0  0  1  0  0  0  0  0  0  0  0  0
   17.3910  -11.0893  -19.2447 O   0  0  0  0  0  0  0  0  0  0  0  0
   19.3660  -11.6260  -18.0002 C   0  0  2  0  0  0  0  0  0  0  0  0
   18.6747  -12.8625  -17.6624 N   0  0  0  0  0  0  0  0  0  0  0  0
   20.2480  -11.1762  -16.9058 C   0  0  0  0  0  0  0  0  0  0  0  0
   19.8738  -11.1638  -15.6926 O   0  0  0  0  0  0  0  0  0  0  0  0
   24.5792  -10.0739  -14.9880 C   0  0  0  0  0  0  0  0  0  0  0  0
   23.7901  -10.7694  -16.0724 C   0  0  1  0  0  0  0  0  0  0  0  0
   23.7703  -12.2433  -15.7518 C   0  0  0  0  0  0  0  0  0  0  0  0
   22.3993  -10.1775  -16.0971 C   0  0  2  0  0  0  0  0  0  0  0  0
   21.5799  -10.7276  -17.1506 N   0  0  0  0  0  0  0  0  0  0  0  0
   22.4133   -8.6897  -16.1311 C   0  0  0  0  0  0  0  0  0  0  0  0
   23.0036   -8.0949  -17.0695 O   0  0  0  0  0  0  0  0  0  0  0  0
   19.2618   -3.9548  -16.5315 C   0  0  0  0  0  0  0  0  0  0  0  0
   20.5577   -4.3880  -15.8608 C   0  0  0  0  0  0  0  0  0  0  0  0
   20.5552   -5.8820  -15.7942 C   0  0  2  0  0  0  0  0  0  0  0  0
   19.3457   -6.3562  -15.0078 C   0  0  0  0  0  0  0  0  0  0  0  0
   21.8234   -6.4626  -15.2056 C   0  0  2  0  0  0  0  0  0  0  0  0
   21.7899   -7.8946  -15.1490 N   0  0  0  0  0  0  0  0  0  0  0  0
   22.0760   -5.9044  -13.8631 C   0  0  0  0  0  0  0  0  0  0  0  0
   22.5944   -4.6272  -13.7228 O   0  0  0  0  0  0  0  0  0  0  0  0
   21.8368   -6.5511  -12.8150 O   0  0  0  0  0  0  0  0  0  0  0  0
  2  1  1  6
  3  2  1  0
  4  2  1  0
  4  5  1  1
  6  7  2  0
  6  4  1  0
  9  8  1  1
  9 10  1  0
  9 11  1  0
 11 12  1  6
 12  6  1  0
 13 11  1  0
 13 20  1  0
 14 13  2  0
 15 16  1  0
 17 19  1  0
 17 16  1  0
 17 18  1  1
 19 21  1  0
 19 20  1  1
 21 23  2  0
 21 22  1  0
M  END
$$$$
