TVI.pdb
     RDKit          3D

 23 22  0  0  1  0  0  0  0  0999 V2000
   22.7269  -10.3996  -19.2909 C   0  0  0  0  0  0  0  0  0  0  0  0
   22.9578  -10.9683  -17.9161 C   0  0  1  0  0  0  0  0  0  0  0  0
   23.4135  -10.0114  -17.0146 O   0  0  0  0  0  0  0  0  0  0  0  0
   21.6820  -11.6201  -17.4037 C   0  0  2  0  0  0  0  0  0  0  0  0
   21.3290  -12.6183  -18.4037 N   0  0  0  0  0  0  0  0  0  0  0  0
   20.6081  -10.6241  -17.2226 C   0  0  0  0  0  0  0  0  0  0  0  0
   20.0946   -9.9932  -18.1975 O   0  0  0  0  0  0  0  0  0  0  0  0
   16.7850   -8.7743  -15.0213 C   0  0  0  0  0  0  0  0  0  0  0  0
   17.7238   -9.9065  -15.3666 C   0  0  1  0  0  0  0  0  0  0  0  0
   17.1033  -10.6881  -16.4978 C   0  0  0  0  0  0  0  0  0  0  0  0
   19.0577   -9.3111  -15.7558 C   0  0  2  0  0  0  0  0  0  0  0  0
   20.0824  -10.3123  -15.9337 N   0  0  0  0  0  0  0  0  0  0  0  0
   19.4953   -8.2354  -14.8250 C   0  0  0  0  0  0  0  0  0  0  0  0
   19.8046   -8.5260  -13.6406 O   0  0  0  0  0  0  0  0  0  0  0  0
   22.7513   -3.2047  -14.6854 C   0  0  0  0  0  0  0  0  0  0  0  0
   21.6268   -3.9443  -13.9744 C   0  0  0  0  0  0  0  0  0  0  0  0
   21.1522   -5.0303  -14.8864 C   0  0  2  0  0  0  0  0  0  0  0  0
   20.7116   -4.4299  -16.2098 C   0  0  0  0  0  0  0  0  0  0  0  0
   20.0400   -5.8714  -14.2966 C   0  0  2  0  0  0  0  0  0  0  0  0
   19.5828   -6.8815  -15.2052 N   0  0  0  0  0  0  0  0  0  0  0  0
   18.9131   -5.0186  -13.8721 C   0  0  0  0  0  0  0  0  0  0  0  0
   18.9531   -4.3627  -12.6523 O   0  0  0  0  0  0  0  0  0  0  0  0
   17.8929   -4.8566  -14.5841 O   0  0  0  0  0  0  0  0  0  0  0  0
  2  1  1  6
  3  2  1  0
  4  2  1  0
  4  5  1  6
  6  7  2  0
  6  4  1  0
  9  8  1  6
  9 10  1  0
  9 11  1  0
 11 12  1  1
 12  6  1  0
 13 11  1  0
 13 20  1  0
 14 13  2  0
 15 16  1  0
 17 19  1  0
 17 16  1  0
 17 18  1  6
 19 21  1  0
 19 20  1  6
 21 23  2  0
 21 22  1  0
M  END
$$$$
