TVI.pdb
     RDKit          3D

 23 22  0  0  1  0  0  0  0  0999 V2000
   26.8612    3.2934  -10.7826 C   0  0  0  0  0  0  0  0  0  0  0  0
   25.5653    2.5280  -10.8196 C   0  0  1  0  0  0  0  0  0  0  0  0
   25.4825    1.6754  -11.9161 O   0  0  0  0  0  0  0  0  0  0  0  0
   25.3850    1.7508   -9.5241 C   0  0  2  0  0  0  0  0  0  0  0  0
   24.1730    0.9650   -9.7097 N   0  0  0  0  0  0  0  0  0  0  0  0
   25.2756    2.6594   -8.3662 C   0  0  0  0  0  0  0  0  0  0  0  0
   26.2438    3.3814   -7.9748 O   0  0  0  0  0  0  0  0  0  0  0  0
   22.7161    5.5928   -5.5293 C   0  0  0  0  0  0  0  0  0  0  0  0
   22.7978    4.6950   -6.7416 C   0  0  1  0  0  0  0  0  0  0  0  0
   23.0159    5.5728   -7.9488 C   0  0  0  0  0  0  0  0  0  0  0  0
   23.9388    3.7253   -6.5342 C   0  0  2  0  0  0  0  0  0  0  0  0
   24.0677    2.7791   -7.6168 N   0  0  0  0  0  0  0  0  0  0  0  0
   23.8748    3.0437   -5.2127 C   0  0  0  0  0  0  0  0  0  0  0  0
   22.8719    2.3412   -4.9234 O   0  0  0  0  0  0  0  0  0  0  0  0
   25.2448   -0.4136   -1.6350 C   0  0  0  0  0  0  0  0  0  0  0  0
   26.0656    0.8575   -1.4698 C   0  0  0  0  0  0  0  0  0  0  0  0
   26.0665    1.5695   -2.7848 C   0  0  2  0  0  0  0  0  0  0  0  0
   27.3236    2.4124   -2.9085 C   0  0  0  0  0  0  0  0  0  0  0  0
   24.8378    2.4252   -3.0094 C   0  0  2  0  0  0  0  0  0  0  0  0
   24.8963    3.1452   -4.2476 N   0  0  0  0  0  0  0  0  0  0  0  0
   24.6429    3.3597   -1.8841 C   0  0  0  0  0  0  0  0  0  0  0  0
   25.0003    4.6923   -2.0115 O   0  0  0  0  0  0  0  0  0  0  0  0
   24.1559    2.9926   -0.7878 O   0  0  0  0  0  0  0  0  0  0  0  0
  2  1  1  1
  3  2  1  0
  4  2  1  0
  4  5  1  6
  6  7  2  0
  6  4  1  0
  9  8  1  1
  9 10  1  0
  9 11  1  0
 11 12  1  6
 12  6  1  0
 13 11  1  0
 13 20  1  0
 14 13  2  0
 15 16  1  0
 17 19  1  0
 17 16  1  0
 17 18  1  1
 19 21  1  0
 19 20  1  6
 21 23  2  0
 21 22  1  0
M  END
$$$$
