TVI.pdb
     RDKit          3D

 23 22  0  0  1  0  0  0  0  0999 V2000
   28.8175  -19.1538  -16.8604 C   0  0  0  0  0  0  0  0  0  0  0  0
   27.8270  -18.9270  -15.7494 C   0  0  1  0  0  0  0  0  0  0  0  0
   26.5174  -19.1816  -16.1446 O   0  0  0  0  0  0  0  0  0  0  0  0
   28.1963  -19.7785  -14.5438 C   0  0  2  0  0  0  0  0  0  0  0  0
   28.1600  -21.1554  -15.0171 N   0  0  0  0  0  0  0  0  0  0  0  0
   27.2572  -19.5595  -13.4265 C   0  0  0  0  0  0  0  0  0  0  0  0
   27.0989  -18.4224  -12.8846 O   0  0  0  0  0  0  0  0  0  0  0  0
   23.1380  -20.4397  -11.1640 C   0  0  0  0  0  0  0  0  0  0  0  0
   24.0887  -20.7766  -12.2887 C   0  0  1  0  0  0  0  0  0  0  0  0
   23.6403  -20.0159  -13.5118 C   0  0  0  0  0  0  0  0  0  0  0  0
   25.4844  -20.3850  -11.8597 C   0  0  2  0  0  0  0  0  0  0  0  0
   26.4686  -20.6200  -12.8893 N   0  0  0  0  0  0  0  0  0  0  0  0
   25.8800  -21.0091  -10.5678 C   0  0  0  0  0  0  0  0  0  0  0  0
   26.2227  -22.2194  -10.5413 O   0  0  0  0  0  0  0  0  0  0  0  0
   27.7386  -18.5451   -5.7177 C   0  0  0  0  0  0  0  0  0  0  0  0
   27.1039  -18.8354   -7.0703 C   0  0  0  0  0  0  0  0  0  0  0  0
   27.3638  -20.2723   -7.3930 C   0  0  2  0  0  0  0  0  0  0  0  0
   28.6353  -20.3894   -8.2150 C   0  0  0  0  0  0  0  0  0  0  0  0
   26.2134  -20.9485   -8.1082 C   0  0  2  0  0  0  0  0  0  0  0  0
   25.8908  -20.3046   -9.3477 N   0  0  0  0  0  0  0  0  0  0  0  0
   25.0230  -21.0067   -7.2381 C   0  0  0  0  0  0  0  0  0  0  0  0
   23.8453  -20.3858   -7.6216 O   0  0  0  0  0  0  0  0  0  0  0  0
   25.0292  -21.6084   -6.1372 O   0  0  0  0  0  0  0  0  0  0  0  0
  2  1  1  6
  3  2  1  0
  4  2  1  0
  4  5  1  6
  6  7  2  0
  6  4  1  0
  9  8  1  1
  9 10  1  0
  9 11  1  0
 11 12  1  6
 12  6  1  0
 13 11  1  0
 13 20  1  0
 14 13  2  0
 15 16  1  0
 17 19  1  0
 17 16  1  0
 17 18  1  6
 19 21  1  0
 19 20  1  6
 21 23  2  0
 21 22  1  0
M  END
$$$$
