TVI.pdb
     RDKit          3D

 23 22  0  0  1  0  0  0  0  0999 V2000
   19.7167   -9.4267  -18.8267 C   0  0  0  0  0  0  0  0  0  0  0  0
   19.0848  -10.6797  -18.2812 C   0  0  1  0  0  0  0  0  0  0  0  0
   18.2165  -11.2762  -19.1902 O   0  0  0  0  0  0  0  0  0  0  0  0
   20.1656  -11.6608  -17.8521 C   0  0  2  0  0  0  0  0  0  0  0  0
   19.4536  -12.8526  -17.4121 N   0  0  0  0  0  0  0  0  0  0  0  0
   21.0038  -11.0963  -16.7764 C   0  0  0  0  0  0  0  0  0  0  0  0
   20.5383  -10.8133  -15.6296 O   0  0  0  0  0  0  0  0  0  0  0  0
   25.3615   -9.7807  -14.9203 C   0  0  0  0  0  0  0  0  0  0  0  0
   24.6332  -10.5666  -15.9854 C   0  0  1  0  0  0  0  0  0  0  0  0
   24.8083  -12.0322  -15.6743 C   0  0  0  0  0  0  0  0  0  0  0  0
   23.1790  -10.1540  -15.9643 C   0  0  2  0  0  0  0  0  0  0  0  0
   22.3935  -10.8358  -16.9654 N   0  0  0  0  0  0  0  0  0  0  0  0
   23.0040   -8.6779  -16.0390 C   0  0  0  0  0  0  0  0  0  0  0  0
   23.4805   -8.0441  -17.0158 O   0  0  0  0  0  0  0  0  0  0  0  0
   19.3780   -4.4303  -16.7471 C   0  0  0  0  0  0  0  0  0  0  0  0
   20.6492   -4.6591  -15.9418 C   0  0  0  0  0  0  0  0  0  0  0  0
   20.8554   -6.1362  -15.8319 C   0  0  2  0  0  0  0  0  0  0  0  0
   19.6827   -6.7624  -15.0980 C   0  0  0  0  0  0  0  0  0  0  0  0
   22.1576   -6.5159  -15.1594 C   0  0  2  0  0  0  0  0  0  0  0  0
   22.3208   -7.9363  -15.0549 N   0  0  0  0  0  0  0  0  0  0  0  0
   22.2550   -5.8914  -13.8260 C   0  0  0  0  0  0  0  0  0  0  0  0
   22.6137   -4.5588  -13.7022 O   0  0  0  0  0  0  0  0  0  0  0  0
   22.0222   -6.5292  -12.7710 O   0  0  0  0  0  0  0  0  0  0  0  0
  2  1  1  6
  3  2  1  0
  4  2  1  0
  4  5  1  1
  6  7  2  0
  6  4  1  0
  9  8  1  1
  9 10  1  0
  9 11  1  0
 11 12  1  6
 12  6  1  0
 13 11  1  0
 13 20  1  0
 14 13  2  0
 15 16  1  0
 17 19  1  0
 17 16  1  0
 17 18  1  1
 19 21  1  0
 19 20  1  1
 21 23  2  0
 21 22  1  0
M  END
$$$$
