TVI.pdb
     RDKit          3D

 23 22  0  0  1  0  0  0  0  0999 V2000
   17.0121  -12.2971  -14.5738 C   0  0  0  0  0  0  0  0  0  0  0  0
   18.3421  -12.7347  -15.1272 C   0  0  1  0  0  0  0  0  0  0  0  0
   18.2265  -13.8134  -15.9984 O   0  0  0  0  0  0  0  0  0  0  0  0
   19.0280  -11.5637  -15.8151 C   0  0  2  0  0  0  0  0  0  0  0  0
   20.2891  -12.0935  -16.3151 N   0  0  0  0  0  0  0  0  0  0  0  0
   19.2388  -10.4423  -14.8790 C   0  0  0  0  0  0  0  0  0  0  0  0
   20.0955  -10.4900  -13.9432 O   0  0  0  0  0  0  0  0  0  0  0  0
   20.7206   -7.3762  -14.9559 C   0  0  0  0  0  0  0  0  0  0  0  0
   19.3285   -6.9634  -14.5389 C   0  0  1  0  0  0  0  0  0  0  0  0
   18.6330   -6.4021  -15.7541 C   0  0  0  0  0  0  0  0  0  0  0  0
   18.6187   -8.1816  -13.9936 C   0  0  2  0  0  0  0  0  0  0  0  0
   18.4875   -9.2334  -14.9737 N   0  0  0  0  0  0  0  0  0  0  0  0
   17.3106   -7.8468  -13.3676 C   0  0  0  0  0  0  0  0  0  0  0  0
   16.2491   -8.0019  -14.0249 O   0  0  0  0  0  0  0  0  0  0  0  0
   14.1839   -8.1022   -8.2832 C   0  0  0  0  0  0  0  0  0  0  0  0
   14.3692   -7.2588   -9.5366 C   0  0  0  0  0  0  0  0  0  0  0  0
   15.6583   -7.6711  -10.1729 C   0  0  2  0  0  0  0  0  0  0  0  0
   16.8059   -7.4214   -9.2102 C   0  0  0  0  0  0  0  0  0  0  0  0
   15.9255   -6.9852  -11.4959 C   0  0  2  0  0  0  0  0  0  0  0  0
   17.1938   -7.3546  -12.0526 N   0  0  0  0  0  0  0  0  0  0  0  0
   15.8403   -5.5195  -11.3476 C   0  0  0  0  0  0  0  0  0  0  0  0
   16.9911   -4.7479  -11.3524 O   0  0  0  0  0  0  0  0  0  0  0  0
   14.7441   -4.9244  -11.2133 O   0  0  0  0  0  0  0  0  0  0  0  0
  2  1  1  6
  3  2  1  0
  4  2  1  0
  4  5  1  1
  6  7  2  0
  6  4  1  0
  9  8  1  6
  9 10  1  0
  9 11  1  0
 11 12  1  6
 12  6  1  0
 13 11  1  0
 13 20  1  0
 14 13  2  0
 15 16  1  0
 17 19  1  0
 17 16  1  0
 17 18  1  1
 19 21  1  0
 19 20  1  1
 21 23  2  0
 21 22  1  0
M  END
$$$$
