TVI.pdb
     RDKit          3D

 23 22  0  0  1  0  0  0  0  0999 V2000
   19.2566   -9.8105  -18.6749 C   0  0  0  0  0  0  0  0  0  0  0  0
   18.7305  -11.1121  -18.1311 C   0  0  1  0  0  0  0  0  0  0  0  0
   17.8518  -11.7387  -19.0093 O   0  0  0  0  0  0  0  0  0  0  0  0
   19.8892  -12.0356  -17.7852 C   0  0  2  0  0  0  0  0  0  0  0  0
   19.2738  -13.2713  -17.3211 N   0  0  0  0  0  0  0  0  0  0  0  0
   20.7601  -11.4379  -16.7544 C   0  0  0  0  0  0  0  0  0  0  0  0
   20.3600  -11.2201  -15.5694 O   0  0  0  0  0  0  0  0  0  0  0  0
   25.1302   -9.9607  -15.0982 C   0  0  0  0  0  0  0  0  0  0  0  0
   24.3587  -10.8253  -16.0676 C   0  0  1  0  0  0  0  0  0  0  0  0
   24.4958  -12.2576  -15.6142 C   0  0  0  0  0  0  0  0  0  0  0  0
   22.9182  -10.3670  -16.0650 C   0  0  2  0  0  0  0  0  0  0  0  0
   22.1098  -11.0694  -17.0330 N   0  0  0  0  0  0  0  0  0  0  0  0
   22.7891   -8.8912  -16.2077 C   0  0  0  0  0  0  0  0  0  0  0  0
   23.2594   -8.3217  -17.2262 O   0  0  0  0  0  0  0  0  0  0  0  0
   19.2483   -4.4356  -16.6868 C   0  0  0  0  0  0  0  0  0  0  0  0
   20.6134   -4.7277  -16.0801 C   0  0  0  0  0  0  0  0  0  0  0  0
   20.7326   -6.2106  -15.9275 C   0  0  2  0  0  0  0  0  0  0  0  0
   19.6157   -6.7238  -15.0357 C   0  0  0  0  0  0  0  0  0  0  0  0
   22.0769   -6.6567  -15.3927 C   0  0  2  0  0  0  0  0  0  0  0  0
   22.1571   -8.0803  -15.2443 N   0  0  0  0  0  0  0  0  0  0  0  0
   22.3716   -5.9921  -14.1086 C   0  0  0  0  0  0  0  0  0  0  0  0
   22.8100   -4.6780  -14.0855 O   0  0  0  0  0  0  0  0  0  0  0  0
   22.2404   -6.5787  -13.0074 O   0  0  0  0  0  0  0  0  0  0  0  0
  2  1  1  6
  3  2  1  0
  4  2  1  0
  4  5  1  1
  6  7  2  0
  6  4  1  0
  9  8  1  1
  9 10  1  0
  9 11  1  0
 11 12  1  6
 12  6  1  0
 13 11  1  0
 13 20  1  0
 14 13  2  0
 15 16  1  0
 17 19  1  0
 17 16  1  0
 17 18  1  1
 19 21  1  0
 19 20  1  1
 21 23  2  0
 21 22  1  0
M  END
$$$$
