TVI.pdb
     RDKit          3D

 23 22  0  0  1  0  0  0  0  0999 V2000
   29.3525  -20.2592  -13.2138 C   0  0  0  0  0  0  0  0  0  0  0  0
   28.8747  -19.3746  -14.3346 C   0  0  1  0  0  0  0  0  0  0  0  0
   29.6415  -19.5158  -15.4870 O   0  0  0  0  0  0  0  0  0  0  0  0
   27.4094  -19.6580  -14.6300 C   0  0  2  0  0  0  0  0  0  0  0  0
   27.0473  -18.7433  -15.7039 N   0  0  0  0  0  0  0  0  0  0  0  0
   26.5727  -19.4526  -13.4316 C   0  0  0  0  0  0  0  0  0  0  0  0
   26.2075  -18.2991  -13.0471 O   0  0  0  0  0  0  0  0  0  0  0  0
   22.9615  -20.5617  -10.6065 C   0  0  0  0  0  0  0  0  0  0  0  0
   23.8218  -20.8386  -11.8172 C   0  0  1  0  0  0  0  0  0  0  0  0
   23.2088  -20.1154  -12.9906 C   0  0  0  0  0  0  0  0  0  0  0  0
   25.2222  -20.3518  -11.5220 C   0  0  2  0  0  0  0  0  0  0  0  0
   26.1236  -20.5458  -12.6328 N   0  0  0  0  0  0  0  0  0  0  0  0
   25.7708  -20.9234  -10.2621 C   0  0  0  0  0  0  0  0  0  0  0  0
   26.0256  -22.1537  -10.1968 O   0  0  0  0  0  0  0  0  0  0  0  0
   28.8119  -19.2749   -5.2031 C   0  0  0  0  0  0  0  0  0  0  0  0
   27.9803  -20.3543   -5.8815 C   0  0  0  0  0  0  0  0  0  0  0  0
   27.4194  -19.7700   -7.1386 C   0  0  2  0  0  0  0  0  0  0  0  0
   26.6581  -18.4965   -6.8147 C   0  0  0  0  0  0  0  0  0  0  0  0
   26.5346  -20.7280   -7.9078 C   0  0  2  0  0  0  0  0  0  0  0  0
   26.0245  -20.1462   -9.1145 N   0  0  0  0  0  0  0  0  0  0  0  0
   25.4237  -21.2030   -7.0606 C   0  0  0  0  0  0  0  0  0  0  0  0
   24.1487  -20.6860   -7.2243 O   0  0  0  0  0  0  0  0  0  0  0  0
   25.5855  -22.0766   -6.1748 O   0  0  0  0  0  0  0  0  0  0  0  0
  2  1  1  1
  3  2  1  0
  4  2  1  0
  4  5  1  6
  6  7  2  0
  6  4  1  0
  9  8  1  1
  9 10  1  0
  9 11  1  0
 11 12  1  6
 12  6  1  0
 13 11  1  0
 13 20  1  0
 14 13  2  0
 15 16  1  0
 17 19  1  0
 17 16  1  0
 17 18  1  1
 19 21  1  0
 19 20  1  6
 21 23  2  0
 21 22  1  0
M  END
$$$$
