TVI.pdb
     RDKit          3D

 23 22  0  0  1  0  0  0  0  0999 V2000
   27.9961  -22.4285  -15.5590 C   0  0  0  0  0  0  0  0  0  0  0  0
   28.6376  -21.3578  -16.4009 C   0  0  1  0  0  0  0  0  0  0  0  0
   29.5225  -21.8789  -17.3398 O   0  0  0  0  0  0  0  0  0  0  0  0
   27.5646  -20.5230  -17.0840 C   0  0  2  0  0  0  0  0  0  0  0  0
   28.2869  -19.5206  -17.8551 N   0  0  0  0  0  0  0  0  0  0  0  0
   26.6586  -19.9048  -16.0964 C   0  0  0  0  0  0  0  0  0  0  0  0
   26.9651  -18.8502  -15.4595 O   0  0  0  0  0  0  0  0  0  0  0  0
   22.3073  -18.8960  -14.3138 C   0  0  0  0  0  0  0  0  0  0  0  0
   23.1955  -19.3893  -15.4319 C   0  0  1  0  0  0  0  0  0  0  0  0
   23.4000  -18.2454  -16.3939 C   0  0  0  0  0  0  0  0  0  0  0  0
   24.4987  -19.8589  -14.8267 C   0  0  2  0  0  0  0  0  0  0  0  0
   25.3786  -20.4605  -15.8003 N   0  0  0  0  0  0  0  0  0  0  0  0
   24.2938  -20.7450  -13.6487 C   0  0  0  0  0  0  0  0  0  0  0  0
   23.7503  -21.8692  -13.8035 O   0  0  0  0  0  0  0  0  0  0  0  0
   26.1753  -19.6449   -8.2236 C   0  0  0  0  0  0  0  0  0  0  0  0
   25.1823  -19.6918   -9.3763 C   0  0  0  0  0  0  0  0  0  0  0  0
   25.3596  -21.0031  -10.0730 C   0  0  2  0  0  0  0  0  0  0  0  0
   26.7888  -21.1278  -10.5711 C   0  0  0  0  0  0  0  0  0  0  0  0
   24.3869  -21.2178  -11.2131 C   0  0  2  0  0  0  0  0  0  0  0  0
   24.6819  -20.3861  -12.3427 N   0  0  0  0  0  0  0  0  0  0  0  0
   23.0000  -20.9930  -10.7619 C   0  0  0  0  0  0  0  0  0  0  0  0
   22.3340  -21.9673  -10.0360 O   0  0  0  0  0  0  0  0  0  0  0  0
   22.3797  -19.9318  -11.0129 O   0  0  0  0  0  0  0  0  0  0  0  0
  2  1  1  6
  3  2  1  0
  4  2  1  0
  4  5  1  1
  6  7  2  0
  6  4  1  0
  9  8  1  1
  9 10  1  0
  9 11  1  0
 11 12  1  6
 12  6  1  0
 13 11  1  0
 13 20  1  0
 14 13  2  0
 15 16  1  0
 17 19  1  0
 17 16  1  0
 17 18  1  6
 19 21  1  0
 19 20  1  6
 21 23  2  0
 21 22  1  0
M  END
$$$$
