TVI.pdb
     RDKit          3D

 23 22  0  0  1  0  0  0  0  0999 V2000
   23.9785  -22.5555  -18.8045 C   0  0  0  0  0  0  0  0  0  0  0  0
   25.4107  -22.1210  -18.6413 C   0  0  1  0  0  0  0  0  0  0  0  0
   26.1882  -22.4236  -19.7549 O   0  0  0  0  0  0  0  0  0  0  0  0
   25.4692  -20.6312  -18.3380 C   0  0  2  0  0  0  0  0  0  0  0  0
   26.8842  -20.3230  -18.1843 N   0  0  0  0  0  0  0  0  0  0  0  0
   24.7027  -20.3029  -17.1203 C   0  0  0  0  0  0  0  0  0  0  0  0
   25.1883  -20.4361  -15.9548 O   0  0  0  0  0  0  0  0  0  0  0  0
   23.5263  -17.1313  -16.0297 C   0  0  0  0  0  0  0  0  0  0  0  0
   22.2593  -17.9539  -16.0136 C   0  0  1  0  0  0  0  0  0  0  0  0
   21.4635  -17.5948  -17.2438 C   0  0  0  0  0  0  0  0  0  0  0  0
   22.6460  -19.4152  -15.9971 C   0  0  2  0  0  0  0  0  0  0  0  0
   23.3643  -19.8134  -17.1843 N   0  0  0  0  0  0  0  0  0  0  0  0
   21.4863  -20.3089  -15.7302 C   0  0  0  0  0  0  0  0  0  0  0  0
   20.8207  -20.7684  -16.6939 O   0  0  0  0  0  0  0  0  0  0  0  0
   19.6868  -24.5846  -11.8639 C   0  0  0  0  0  0  0  0  0  0  0  0
   19.2205  -23.6095  -12.9356 C   0  0  0  0  0  0  0  0  0  0  0  0
   20.3159  -22.6139  -13.1488 C   0  0  2  0  0  0  0  0  0  0  0  0
   20.6523  -21.9350  -11.8327 C   0  0  0  0  0  0  0  0  0  0  0  0
   19.9938  -21.5783  -14.2052 C   0  0  2  0  0  0  0  0  0  0  0  0
   21.0839  -20.6752  -14.4305 N   0  0  0  0  0  0  0  0  0  0  0  0
   18.7758  -20.8282  -13.8429 C   0  0  0  0  0  0  0  0  0  0  0  0
   18.8637  -19.5077  -13.4324 O   0  0  0  0  0  0  0  0  0  0  0  0
   17.6339  -21.3456  -13.8902 O   0  0  0  0  0  0  0  0  0  0  0  0
  2  1  1  6
  3  2  1  0
  4  2  1  0
  4  5  1  1
  6  7  2  0
  6  4  1  0
  9  8  1  6
  9 10  1  0
  9 11  1  0
 11 12  1  6
 12  6  1  0
 13 11  1  0
 13 20  1  0
 14 13  2  0
 15 16  1  0
 17 19  1  0
 17 16  1  0
 17 18  1  1
 19 21  1  0
 19 20  1  1
 21 23  2  0
 21 22  1  0
M  END
$$$$
