TVI.pdb
     RDKit          3D

 23 22  0  0  1  0  0  0  0  0999 V2000
   23.8214  -24.7019  -16.4268 C   0  0  0  0  0  0  0  0  0  0  0  0
   24.9536  -25.6776  -16.6087 C   0  0  1  0  0  0  0  0  0  0  0  0
   24.6502  -26.6790  -17.5258 O   0  0  0  0  0  0  0  0  0  0  0  0
   26.2151  -24.9360  -17.0253 C   0  0  2  0  0  0  0  0  0  0  0  0
   27.2649  -25.9450  -17.0551 N   0  0  0  0  0  0  0  0  0  0  0  0
   26.5310  -23.8460  -16.0818 C   0  0  0  0  0  0  0  0  0  0  0  0
   27.0339  -24.0629  -14.9363 O   0  0  0  0  0  0  0  0  0  0  0  0
   26.9808  -19.0300  -15.0914 C   0  0  0  0  0  0  0  0  0  0  0  0
   26.7696  -20.0789  -16.1580 C   0  0  1  0  0  0  0  0  0  0  0  0
   27.9794  -20.0672  -17.0590 C   0  0  0  0  0  0  0  0  0  0  0  0
   26.5860  -21.4152  -15.4755 C   0  0  2  0  0  0  0  0  0  0  0  0
   26.2883  -22.4781  -16.4058 N   0  0  0  0  0  0  0  0  0  0  0  0
   25.5926  -21.3585  -14.3688 C   0  0  0  0  0  0  0  0  0  0  0  0
   24.3681  -21.4930  -14.6250 O   0  0  0  0  0  0  0  0  0  0  0  0
   25.3612  -20.6641   -8.2030 C   0  0  0  0  0  0  0  0  0  0  0  0
   24.5963  -20.8741   -9.5021 C   0  0  0  0  0  0  0  0  0  0  0  0
   25.5983  -20.9526  -10.6095 C   0  0  2  0  0  0  0  0  0  0  0  0
   26.5325  -19.7575  -10.5386 C   0  0  0  0  0  0  0  0  0  0  0  0
   24.9725  -21.0476  -11.9848 C   0  0  2  0  0  0  0  0  0  0  0  0
   25.9556  -21.1573  -13.0223 N   0  0  0  0  0  0  0  0  0  0  0  0
   24.0920  -19.8904  -12.2359 C   0  0  0  0  0  0  0  0  0  0  0  0
   24.5550  -18.8031  -12.9592 O   0  0  0  0  0  0  0  0  0  0  0  0
   22.9119  -19.8447  -11.8125 O   0  0  0  0  0  0  0  0  0  0  0  0
  2  1  1  6
  3  2  1  0
  4  2  1  0
  4  5  1  1
  6  7  2  0
  6  4  1  0
  9  8  1  1
  9 10  1  0
  9 11  1  0
 11 12  1  6
 12  6  1  0
 13 11  1  0
 13 20  1  0
 14 13  2  0
 15 16  1  0
 17 19  1  0
 17 16  1  0
 17 18  1  6
 19 21  1  0
 19 20  1  6
 21 23  2  0
 21 22  1  0
M  END
$$$$
