CWR.pdb
     RDKit          3D

 32 33  0  0  1  0  0  0  0  0999 V2000
   27.9308  -22.9633  -16.4121 N   0  0  0  0  0  0  0  0  0  0  0  0
   27.9757  -21.6896  -15.7702 C   0  0  1  0  0  0  0  0  0  0  0  0
   27.5903  -20.5519  -16.6894 C   0  0  0  0  0  0  0  0  0  0  0  0
   27.6795  -18.9468  -15.8867 S   0  0  0  0  0  0  0  0  0  0  0  0
   27.1403  -21.7162  -14.5485 C   0  0  0  0  0  0  0  0  0  0  0  0
   26.0002  -22.2297  -14.5332 O   0  0  0  0  0  0  0  0  0  0  0  0
   27.6363  -21.1449  -13.3500 N   0  0  0  0  0  0  0  0  0  0  0  0
   26.9757  -21.1005  -12.1041 C   0  0  1  0  0  0  0  0  0  0  0  0
   27.8243  -20.8209  -10.8795 C   0  0  0  0  0  0  0  0  0  0  0  0
   26.9819  -20.6083   -9.6792 C   0  0  0  0  0  0  0  0  0  0  0  0
   25.6397  -20.7592   -9.5131 C   0  0  0  0  0  0  0  0  0  0  0  0
   25.3022  -20.4572   -8.2386 N   0  0  0  0  0  0  0  0  0  0  0  0
   26.3867  -20.1066   -7.5405 C   0  0  0  0  0  0  0  0  0  0  0  0
   26.6045  -19.7212   -6.2386 C   0  0  0  0  0  0  0  0  0  0  0  0
   27.8909  -19.4303   -5.8433 C   0  0  0  0  0  0  0  0  0  0  0  0
   28.9453  -19.5189   -6.7199 C   0  0  0  0  0  0  0  0  0  0  0  0
   28.7403  -19.9091   -8.0470 C   0  0  0  0  0  0  0  0  0  0  0  0
   27.4428  -20.1945   -8.4184 C   0  0  0  0  0  0  0  0  0  0  0  0
   25.7292  -20.3658  -12.0076 C   0  0  0  0  0  0  0  0  0  0  0  0
   25.7436  -19.1650  -12.4467 O   0  0  0  0  0  0  0  0  0  0  0  0
   21.3647  -17.5185  -16.2036 N   0  0  0  0  0  0  0  0  0  0  0  0
   22.7655  -17.3722  -16.0683 C   0  0  0  0  0  0  0  0  0  0  0  0
   23.3366  -16.2507  -16.4195 N   0  0  0  0  0  0  0  0  0  0  0  0
   23.6121  -18.3950  -15.5613 N   0  0  0  0  0  0  0  0  0  0  0  0
   23.2562  -19.8017  -15.6346 C   0  0  0  0  0  0  0  0  0  0  0  0
   22.4165  -20.1431  -14.3994 C   0  0  0  0  0  0  0  0  0  0  0  0
   23.1595  -21.0683  -13.4869 C   0  0  0  0  0  0  0  0  0  0  0  0
   23.2068  -20.5550  -12.0928 C   0  0  2  0  0  0  0  0  0  0  0  0
   24.5194  -20.8317  -11.4870 N   0  0  0  0  0  0  0  0  0  0  0  0
   22.1363  -21.1164  -11.2751 C   0  0  0  0  0  0  0  0  0  0  0  0
   20.9072  -20.5428  -11.0758 O   0  0  0  0  0  0  0  0  0  0  0  0
   22.3364  -22.2303  -10.6836 O   0  0  0  0  0  0  0  0  0  0  0  0
  2  3  1  0
  2  1  1  6
  3  4  1  0
  5  2  1  0
  6  5  2  0
  7  5  1  0
  8  7  1  0
  9 10  1  0
  8  9  1  1
 10 11  2  0
 11 12  1  0
 13 14  2  0
 13 12  1  0
 15 14  1  0
 16 15  2  0
 17 16  1  0
 17 18  2  0
 18 10  1  0
 18 13  1  0
 19  8  1  0
 19 29  1  0
 20 19  2  0
 22 21  1  0
 23 22  2  0
 24 22  1  0
 25 26  1  0
 25 24  1  0
 26 27  1  0
 28 27  1  6
 28 29  1  0
 28 30  1  0
 30 32  2  0
 30 31  1  0
M  END
$$$$
