CWR.pdb
     RDKit          3D

 32 33  0  0  1  0  0  0  0  0999 V2000
   30.9438  -20.8253  -11.4808 N   0  0  0  0  0  0  0  0  0  0  0  0
   29.7787  -20.0109  -11.6065 C   0  0  1  0  0  0  0  0  0  0  0  0
   29.5879  -19.4661  -13.0045 C   0  0  0  0  0  0  0  0  0  0  0  0
   28.3243  -18.1914  -13.0890 S   0  0  0  0  0  0  0  0  0  0  0  0
   28.5912  -20.7633  -11.1429 C   0  0  0  0  0  0  0  0  0  0  0  0
   28.5228  -22.0097  -11.2167 O   0  0  0  0  0  0  0  0  0  0  0  0
   27.4886  -20.0608  -10.5954 N   0  0  0  0  0  0  0  0  0  0  0  0
   26.2785  -20.6226  -10.1365 C   0  0  1  0  0  0  0  0  0  0  0  0
   25.6530  -20.0060   -8.9010 C   0  0  0  0  0  0  0  0  0  0  0  0
   26.6865  -19.6131   -7.9145 C   0  0  0  0  0  0  0  0  0  0  0  0
   27.4676  -18.5001   -7.8605 C   0  0  0  0  0  0  0  0  0  0  0  0
   28.2711  -18.5605   -6.7740 N   0  0  0  0  0  0  0  0  0  0  0  0
   28.0490  -19.6889   -6.0930 C   0  0  0  0  0  0  0  0  0  0  0  0
   28.5725  -20.2328   -4.9437 C   0  0  0  0  0  0  0  0  0  0  0  0
   28.0919  -21.4484   -4.5109 C   0  0  0  0  0  0  0  0  0  0  0  0
   27.1100  -22.1159   -5.2025 C   0  0  0  0  0  0  0  0  0  0  0  0
   26.5676  -21.5763   -6.3729 C   0  0  0  0  0  0  0  0  0  0  0  0
   27.0661  -20.3581   -6.7858 C   0  0  0  0  0  0  0  0  0  0  0  0
   25.2424  -20.9212  -11.1062 C   0  0  0  0  0  0  0  0  0  0  0  0
   24.8075  -19.9341  -11.7930 O   0  0  0  0  0  0  0  0  0  0  0  0
   20.1657  -27.7467  -12.2512 N   0  0  0  0  0  0  0  0  0  0  0  0
   19.7820  -26.8907  -13.3106 C   0  0  0  0  0  0  0  0  0  0  0  0
   18.5617  -26.9418  -13.7750 N   0  0  0  0  0  0  0  0  0  0  0  0
   20.6634  -25.9550  -13.9168 N   0  0  0  0  0  0  0  0  0  0  0  0
   22.0015  -25.7093  -13.4071 C   0  0  0  0  0  0  0  0  0  0  0  0
   22.1462  -24.2038  -13.1619 C   0  0  0  0  0  0  0  0  0  0  0  0
   23.5162  -23.8737  -12.6570 C   0  0  0  0  0  0  0  0  0  0  0  0
   23.6905  -22.4143  -12.4358 C   0  0  2  0  0  0  0  0  0  0  0  0
   24.6726  -22.1697  -11.3670 N   0  0  0  0  0  0  0  0  0  0  0  0
   22.4229  -21.7607  -12.1263 C   0  0  0  0  0  0  0  0  0  0  0  0
   22.0320  -21.3382  -10.8822 O   0  0  0  0  0  0  0  0  0  0  0  0
   21.5910  -21.5567  -13.0734 O   0  0  0  0  0  0  0  0  0  0  0  0
  2  3  1  0
  2  1  1  6
  3  4  1  0
  5  2  1  0
  6  5  2  0
  7  5  1  0
  8  7  1  0
  9 10  1  0
  8  9  1  1
 10 11  2  0
 11 12  1  0
 13 14  2  0
 13 12  1  0
 15 14  1  0
 16 15  2  0
 17 16  1  0
 17 18  2  0
 18 10  1  0
 18 13  1  0
 19  8  1  0
 19 29  1  0
 20 19  2  0
 22 21  1  0
 23 22  2  0
 24 22  1  0
 25 26  1  0
 25 24  1  0
 26 27  1  0
 28 27  1  1
 28 29  1  0
 28 30  1  0
 30 32  2  0
 30 31  1  0
M  END
$$$$
