CWR.pdb
     RDKit          3D

 32 33  0  0  1  0  0  0  0  0999 V2000
   21.4761  -28.1813  -11.9892 N   0  0  0  0  0  0  0  0  0  0  0  0
   20.1965  -27.7233  -12.4241 C   0  0  1  0  0  0  0  0  0  0  0  0
   19.2094  -28.8487  -12.6405 C   0  0  0  0  0  0  0  0  0  0  0  0
   19.8448  -30.1343  -13.7231 S   0  0  0  0  0  0  0  0  0  0  0  0
   19.6784  -26.7128  -11.4744 C   0  0  0  0  0  0  0  0  0  0  0  0
   19.9457  -26.7488  -10.2534 O   0  0  0  0  0  0  0  0  0  0  0  0
   18.8516  -25.6649  -11.9510 N   0  0  0  0  0  0  0  0  0  0  0  0
   18.2306  -24.6649  -11.1733 C   0  0  1  0  0  0  0  0  0  0  0  0
   17.8663  -23.3700  -11.8724 C   0  0  0  0  0  0  0  0  0  0  0  0
   19.0692  -22.5474  -12.1407 C   0  0  0  0  0  0  0  0  0  0  0  0
   19.7344  -21.6785  -11.3319 C   0  0  0  0  0  0  0  0  0  0  0  0
   20.7873  -21.1520  -11.9980 N   0  0  0  0  0  0  0  0  0  0  0  0
   20.8481  -21.6469  -13.2381 C   0  0  0  0  0  0  0  0  0  0  0  0
   21.6972  -21.4597  -14.3034 C   0  0  0  0  0  0  0  0  0  0  0  0
   21.4608  -22.1586  -15.4660 C   0  0  0  0  0  0  0  0  0  0  0  0
   20.4027  -23.0286  -15.5743 C   0  0  0  0  0  0  0  0  0  0  0  0
   19.5302  -23.2297  -14.5001 C   0  0  0  0  0  0  0  0  0  0  0  0
   19.7880  -22.5176  -13.3472 C   0  0  0  0  0  0  0  0  0  0  0  0
   17.1566  -25.0510  -10.2787 C   0  0  0  0  0  0  0  0  0  0  0  0
   16.1162  -25.5538  -10.8262 O   0  0  0  0  0  0  0  0  0  0  0  0
   17.5099  -28.3234   -2.4925 N   0  0  0  0  0  0  0  0  0  0  0  0
   17.9653  -27.2805   -3.3334 C   0  0  0  0  0  0  0  0  0  0  0  0
   19.1346  -26.7386   -3.1181 N   0  0  0  0  0  0  0  0  0  0  0  0
   17.2110  -26.7723   -4.4256 N   0  0  0  0  0  0  0  0  0  0  0  0
   15.8797  -27.2609   -4.7410 C   0  0  0  0  0  0  0  0  0  0  0  0
   15.3565  -26.4684   -5.9433 C   0  0  0  0  0  0  0  0  0  0  0  0
   16.4868  -25.9807   -6.7949 C   0  0  0  0  0  0  0  0  0  0  0  0
   16.0038  -25.3349   -8.0435 C   0  0  2  0  0  0  0  0  0  0  0  0
   17.1407  -24.9314   -8.8869 N   0  0  0  0  0  0  0  0  0  0  0  0
   15.1438  -24.1904   -7.7606 C   0  0  0  0  0  0  0  0  0  0  0  0
   13.7811  -24.2388   -7.6187 O   0  0  0  0  0  0  0  0  0  0  0  0
   15.6789  -23.0379   -7.6334 O   0  0  0  0  0  0  0  0  0  0  0  0
  2  3  1  0
  2  1  1  1
  3  4  1  0
  5  2  1  0
  6  5  2  0
  7  5  1  0
  8  7  1  0
  9 10  1  0
  8  9  1  6
 10 11  2  0
 11 12  1  0
 13 14  2  0
 13 12  1  0
 15 14  1  0
 16 15  2  0
 17 16  1  0
 17 18  2  0
 18 10  1  0
 18 13  1  0
 19  8  1  0
 19 29  1  0
 20 19  2  0
 22 21  1  0
 23 22  2  0
 24 22  1  0
 25 26  1  0
 25 24  1  0
 26 27  1  0
 28 27  1  1
 28 29  1  0
 28 30  1  0
 30 32  2  0
 30 31  1  0
M  END
$$$$
