CWR.pdb
     RDKit          3D

 32 33  0  0  1  0  0  0  0  0999 V2000
   35.8285  -33.1054  -15.9818 N   0  0  0  0  0  0  0  0  0  0  0  0
   34.9286  -32.8726  -17.0646 C   0  0  1  0  0  0  0  0  0  0  0  0
   34.5302  -34.1422  -17.7837 C   0  0  0  0  0  0  0  0  0  0  0  0
   35.6402  -34.5554  -19.1348 S   0  0  0  0  0  0  0  0  0  0  0  0
   33.7484  -32.1216  -16.5805 C   0  0  0  0  0  0  0  0  0  0  0  0
   33.6553  -31.7170  -15.4010 O   0  0  0  0  0  0  0  0  0  0  0  0
   32.6821  -31.8450  -17.4722 N   0  0  0  0  0  0  0  0  0  0  0  0
   31.5256  -31.0877  -17.1899 C   0  0  1  0  0  0  0  0  0  0  0  0
   31.3751  -29.7598  -17.9053 C   0  0  0  0  0  0  0  0  0  0  0  0
   31.3387  -29.9425  -19.3753 C   0  0  0  0  0  0  0  0  0  0  0  0
   30.9581  -31.0194  -20.1149 C   0  0  0  0  0  0  0  0  0  0  0  0
   31.0846  -30.7350  -21.4312 N   0  0  0  0  0  0  0  0  0  0  0  0
   31.5412  -29.4898  -21.5965 C   0  0  0  0  0  0  0  0  0  0  0  0
   31.8370  -28.7159  -22.6941 C   0  0  0  0  0  0  0  0  0  0  0  0
   32.2952  -27.4332  -22.4925 C   0  0  0  0  0  0  0  0  0  0  0  0
   32.4584  -26.9231  -21.2270 C   0  0  0  0  0  0  0  0  0  0  0  0
   32.1622  -27.6974  -20.1009 C   0  0  0  0  0  0  0  0  0  0  0  0
   31.7055  -28.9789  -20.3293 C   0  0  0  0  0  0  0  0  0  0  0  0
   30.2449  -31.7670  -17.1552 C   0  0  0  0  0  0  0  0  0  0  0  0
   30.0254  -32.6107  -18.0907 O   0  0  0  0  0  0  0  0  0  0  0  0
   24.1468  -34.1038  -12.3077 N   0  0  0  0  0  0  0  0  0  0  0  0
   24.1198  -35.0161  -13.3889 C   0  0  0  0  0  0  0  0  0  0  0  0
   23.0338  -35.7009  -13.6317 N   0  0  0  0  0  0  0  0  0  0  0  0
   25.2285  -35.2401  -14.2494 N   0  0  0  0  0  0  0  0  0  0  0  0
   26.4080  -34.3922  -14.2292 C   0  0  0  0  0  0  0  0  0  0  0  0
   26.0317  -33.0418  -14.8474 C   0  0  0  0  0  0  0  0  0  0  0  0
   27.2282  -32.1480  -14.9483 C   0  0  0  0  0  0  0  0  0  0  0  0
   27.9628  -32.3445  -16.2254 C   0  0  2  0  0  0  0  0  0  0  0  0
   29.2304  -31.5964  -16.2101 N   0  0  0  0  0  0  0  0  0  0  0  0
   27.1541  -31.9589  -17.3774 C   0  0  0  0  0  0  0  0  0  0  0  0
   26.2934  -32.7844  -18.0534 O   0  0  0  0  0  0  0  0  0  0  0  0
   27.2390  -30.7615  -17.8130 O   0  0  0  0  0  0  0  0  0  0  0  0
  2  3  1  0
  2  1  1  1
  3  4  1  0
  5  2  1  0
  6  5  2  0
  7  5  1  0
  8  7  1  0
  9 10  1  0
  8  9  1  6
 10 11  2  0
 11 12  1  0
 13 14  2  0
 13 12  1  0
 15 14  1  0
 16 15  2  0
 17 16  1  0
 17 18  2  0
 18 10  1  0
 18 13  1  0
 19  8  1  0
 19 29  1  0
 20 19  2  0
 22 21  1  0
 23 22  2  0
 24 22  1  0
 25 26  1  0
 25 24  1  0
 26 27  1  0
 28 27  1  1
 28 29  1  0
 28 30  1  0
 30 32  2  0
 30 31  1  0
M  END
$$$$
