CWR.pdb
     RDKit          3D

 32 33  0  0  1  0  0  0  0  0999 V2000
   27.7501  -23.5417  -15.6777 N   0  0  0  0  0  0  0  0  0  0  0  0
   27.0580  -22.3176  -15.4350 C   0  0  1  0  0  0  0  0  0  0  0  0
   26.1772  -21.8987  -16.5910 C   0  0  0  0  0  0  0  0  0  0  0  0
   27.0815  -21.7450  -18.1360 S   0  0  0  0  0  0  0  0  0  0  0  0
   26.2947  -22.4178  -14.1706 C   0  0  0  0  0  0  0  0  0  0  0  0
   25.8710  -23.5103  -13.7340 O   0  0  0  0  0  0  0  0  0  0  0  0
   26.0283  -21.2452  -13.4203 N   0  0  0  0  0  0  0  0  0  0  0  0
   25.2746  -21.1622  -12.2305 C   0  0  1  0  0  0  0  0  0  0  0  0
   25.7417  -20.1720  -11.1820 C   0  0  0  0  0  0  0  0  0  0  0  0
   27.0120  -20.6099  -10.5575 C   0  0  0  0  0  0  0  0  0  0  0  0
   28.0910  -21.2295  -11.1084 C   0  0  0  0  0  0  0  0  0  0  0  0
   29.0313  -21.4360  -10.1583 N   0  0  0  0  0  0  0  0  0  0  0  0
   28.6114  -20.9688   -8.9786 C   0  0  0  0  0  0  0  0  0  0  0  0
   29.1594  -20.9184   -7.7184 C   0  0  0  0  0  0  0  0  0  0  0  0
   28.4285  -20.3420   -6.7039 C   0  0  0  0  0  0  0  0  0  0  0  0
   27.1763  -19.8235   -6.9307 C   0  0  0  0  0  0  0  0  0  0  0  0
   26.6052  -19.8672   -8.2063 C   0  0  0  0  0  0  0  0  0  0  0  0
   27.3570  -20.4501   -9.2052 C   0  0  0  0  0  0  0  0  0  0  0  0
   23.8285  -21.1171  -12.3290 C   0  0  0  0  0  0  0  0  0  0  0  0
   23.3446  -20.3193  -13.2034 O   0  0  0  0  0  0  0  0  0  0  0  0
   16.4915  -25.4187  -10.2421 N   0  0  0  0  0  0  0  0  0  0  0  0
   17.8644  -25.6730  -10.4719 C   0  0  0  0  0  0  0  0  0  0  0  0
   18.2397  -26.8382  -10.9285 N   0  0  0  0  0  0  0  0  0  0  0  0
   18.8869  -24.7157  -10.2307 N   0  0  0  0  0  0  0  0  0  0  0  0
   18.5941  -23.3702   -9.7676 C   0  0  0  0  0  0  0  0  0  0  0  0
   19.2792  -22.3824  -10.7176 C   0  0  0  0  0  0  0  0  0  0  0  0
   20.7686  -22.5063  -10.6343 C   0  0  0  0  0  0  0  0  0  0  0  0
   21.4529  -21.6985  -11.6776 C   0  0  2  0  0  0  0  0  0  0  0  0
   22.9130  -21.8516  -11.5713 N   0  0  0  0  0  0  0  0  0  0  0  0
   21.0784  -20.2901  -11.6009 C   0  0  0  0  0  0  0  0  0  0  0  0
   20.5152  -19.5632  -12.6177 O   0  0  0  0  0  0  0  0  0  0  0  0
   21.2843  -19.6594  -10.5098 O   0  0  0  0  0  0  0  0  0  0  0  0
  2  3  1  0
  2  1  1  6
  3  4  1  0
  5  2  1  0
  6  5  2  0
  7  5  1  0
  8  7  1  0
  9 10  1  0
  8  9  1  6
 10 11  2  0
 11 12  1  0
 13 14  2  0
 13 12  1  0
 15 14  1  0
 16 15  2  0
 17 16  1  0
 17 18  2  0
 18 10  1  0
 18 13  1  0
 19  8  1  0
 19 29  1  0
 20 19  2  0
 22 21  1  0
 23 22  2  0
 24 22  1  0
 25 26  1  0
 25 24  1  0
 26 27  1  0
 28 27  1  1
 28 29  1  0
 28 30  1  0
 30 32  2  0
 30 31  1  0
M  END
$$$$
