CWR.pdb
     RDKit          3D

 32 33  0  0  1  0  0  0  0  0999 V2000
   28.6701  -26.7841  -16.8970 N   0  0  0  0  0  0  0  0  0  0  0  0
   28.7203  -25.6913  -17.8134 C   0  0  1  0  0  0  0  0  0  0  0  0
   28.2004  -26.0496  -19.1877 C   0  0  0  0  0  0  0  0  0  0  0  0
   28.9085  -27.5729  -19.8253 S   0  0  0  0  0  0  0  0  0  0  0  0
   28.0066  -24.5271  -17.2419 C   0  0  0  0  0  0  0  0  0  0  0  0
   26.9727  -24.6546  -16.5501 O   0  0  0  0  0  0  0  0  0  0  0  0
   28.5000  -23.2197  -17.4787 N   0  0  0  0  0  0  0  0  0  0  0  0
   27.9695  -22.0162  -16.9681 C   0  0  1  0  0  0  0  0  0  0  0  0
   28.9559  -20.9917  -16.4433 C   0  0  0  0  0  0  0  0  0  0  0  0
   29.5220  -21.4097  -15.1392 C   0  0  0  0  0  0  0  0  0  0  0  0
   30.4647  -22.3486  -14.8541 C   0  0  0  0  0  0  0  0  0  0  0  0
   30.6773  -22.3890  -13.5189 N   0  0  0  0  0  0  0  0  0  0  0  0
   29.8996  -21.4978  -12.8966 C   0  0  0  0  0  0  0  0  0  0  0  0
   29.7245  -21.1316  -11.5827 C   0  0  0  0  0  0  0  0  0  0  0  0
   28.8151  -20.1401  -11.2900 C   0  0  0  0  0  0  0  0  0  0  0  0
   28.0903  -19.5203  -12.2792 C   0  0  0  0  0  0  0  0  0  0  0  0
   28.2567  -19.8814  -13.6198 C   0  0  0  0  0  0  0  0  0  0  0  0
   29.1730  -20.8773  -13.8870 C   0  0  0  0  0  0  0  0  0  0  0  0
   26.9282  -21.3443  -17.7211 C   0  0  0  0  0  0  0  0  0  0  0  0
   26.6060  -21.8740  -18.8395 O   0  0  0  0  0  0  0  0  0  0  0  0
   23.6603  -24.3275  -14.1981 N   0  0  0  0  0  0  0  0  0  0  0  0
   23.0953  -23.1666  -13.6192 C   0  0  0  0  0  0  0  0  0  0  0  0
   23.1417  -23.0004  -12.3240 N   0  0  0  0  0  0  0  0  0  0  0  0
   22.4642  -22.1437  -14.3778 N   0  0  0  0  0  0  0  0  0  0  0  0
   22.6152  -22.0438  -15.8193 C   0  0  0  0  0  0  0  0  0  0  0  0
   23.7438  -21.0490  -16.1097 C   0  0  0  0  0  0  0  0  0  0  0  0
   23.9191  -20.8550  -17.5836 C   0  0  0  0  0  0  0  0  0  0  0  0
   24.9259  -19.8055  -17.8903 C   0  0  2  0  0  0  0  0  0  0  0  0
   26.2432  -20.1837  -17.3533 N   0  0  0  0  0  0  0  0  0  0  0  0
   24.5186  -18.5014  -17.3775 C   0  0  0  0  0  0  0  0  0  0  0  0
   23.5203  -17.7207  -17.9003 O   0  0  0  0  0  0  0  0  0  0  0  0
   25.1278  -18.0244  -16.3616 O   0  0  0  0  0  0  0  0  0  0  0  0
  2  3  1  0
  2  1  1  1
  3  4  1  0
  5  2  1  0
  6  5  2  0
  7  5  1  0
  8  7  1  0
  9 10  1  0
  8  9  1  6
 10 11  2  0
 11 12  1  0
 13 14  2  0
 13 12  1  0
 15 14  1  0
 16 15  2  0
 17 16  1  0
 17 18  2  0
 18 10  1  0
 18 13  1  0
 19  8  1  0
 19 29  1  0
 20 19  2  0
 22 21  1  0
 23 22  2  0
 24 22  1  0
 25 26  1  0
 25 24  1  0
 26 27  1  0
 28 27  1  1
 28 29  1  0
 28 30  1  0
 30 32  2  0
 30 31  1  0
M  END
$$$$
