CWR.pdb
     RDKit          3D

 32 33  0  0  1  0  0  0  0  0999 V2000
   28.3899  -21.7523  -15.4559 N   0  0  0  0  0  0  0  0  0  0  0  0
   28.7226  -20.8411  -14.4093 C   0  0  1  0  0  0  0  0  0  0  0  0
   28.5962  -19.3927  -14.8259 C   0  0  0  0  0  0  0  0  0  0  0  0
   26.8988  -18.9109  -15.1656 S   0  0  0  0  0  0  0  0  0  0  0  0
   27.9096  -21.1408  -13.2090 C   0  0  0  0  0  0  0  0  0  0  0  0
   26.7512  -21.6049  -13.2890 O   0  0  0  0  0  0  0  0  0  0  0  0
   28.4494  -20.8987  -11.9211 N   0  0  0  0  0  0  0  0  0  0  0  0
   27.7499  -20.9363  -10.6963 C   0  0  1  0  0  0  0  0  0  0  0  0
   28.5205  -20.5594   -9.4465 C   0  0  0  0  0  0  0  0  0  0  0  0
   27.6206  -20.4432   -8.2750 C   0  0  0  0  0  0  0  0  0  0  0  0
   26.3031  -20.7587   -8.1479 C   0  0  0  0  0  0  0  0  0  0  0  0
   25.8904  -20.4901   -6.8881 N   0  0  0  0  0  0  0  0  0  0  0  0
   26.9004  -20.0012   -6.1618 C   0  0  0  0  0  0  0  0  0  0  0  0
   27.0272  -19.5805   -4.8588 C   0  0  0  0  0  0  0  0  0  0  0  0
   28.2544  -19.1282   -4.4283 C   0  0  0  0  0  0  0  0  0  0  0  0
   29.3388  -19.0922   -5.2714 C   0  0  0  0  0  0  0  0  0  0  0  0
   29.2260  -19.5163   -6.5991 C   0  0  0  0  0  0  0  0  0  0  0  0
   27.9865  -19.9643   -7.0061 C   0  0  0  0  0  0  0  0  0  0  0  0
   26.4219  -20.3566  -10.6397 C   0  0  0  0  0  0  0  0  0  0  0  0
   26.3362  -19.1090  -10.9067 O   0  0  0  0  0  0  0  0  0  0  0  0
   21.1439  -23.0518  -16.6509 N   0  0  0  0  0  0  0  0  0  0  0  0
   20.3075  -22.5125  -15.6450 C   0  0  0  0  0  0  0  0  0  0  0  0
   19.0104  -22.5350  -15.8002 N   0  0  0  0  0  0  0  0  0  0  0  0
   20.8029  -21.9326  -14.4457 N   0  0  0  0  0  0  0  0  0  0  0  0
   22.2147  -21.9490  -14.1034 C   0  0  0  0  0  0  0  0  0  0  0  0
   22.3977  -21.1508  -12.8084 C   0  0  0  0  0  0  0  0  0  0  0  0
   23.6987  -21.4903  -12.1505 C   0  0  0  0  0  0  0  0  0  0  0  0
   23.9283  -20.6840  -10.9231 C   0  0  2  0  0  0  0  0  0  0  0  0
   25.2315  -21.0167  -10.3253 N   0  0  0  0  0  0  0  0  0  0  0  0
   22.8563  -20.8665   -9.9499 C   0  0  0  0  0  0  0  0  0  0  0  0
   22.9542  -21.5894   -8.7892 O   0  0  0  0  0  0  0  0  0  0  0  0
   21.7238  -20.3214  -10.1756 O   0  0  0  0  0  0  0  0  0  0  0  0
  2  3  1  0
  2  1  1  6
  3  4  1  0
  5  2  1  0
  6  5  2  0
  7  5  1  0
  8  7  1  0
  9 10  1  0
  8  9  1  1
 10 11  2  0
 11 12  1  0
 13 14  2  0
 13 12  1  0
 15 14  1  0
 16 15  2  0
 17 16  1  0
 17 18  2  0
 18 10  1  0
 18 13  1  0
 19  8  1  0
 19 29  1  0
 20 19  2  0
 22 21  1  0
 23 22  2  0
 24 22  1  0
 25 26  1  0
 25 24  1  0
 26 27  1  0
 28 27  1  6
 28 29  1  0
 28 30  1  0
 30 32  2  0
 30 31  1  0
M  END
$$$$
