CWR.pdb
     RDKit          3D

 32 33  0  0  1  0  0  0  0  0999 V2000
   29.9002  -22.6360  -18.2626 N   0  0  0  0  0  0  0  0  0  0  0  0
   29.3306  -21.4247  -17.7681 C   0  0  1  0  0  0  0  0  0  0  0  0
   28.5295  -20.6800  -18.8128 C   0  0  0  0  0  0  0  0  0  0  0  0
   27.0598  -21.5740  -19.3318 S   0  0  0  0  0  0  0  0  0  0  0  0
   28.5266  -21.7083  -16.5580 C   0  0  0  0  0  0  0  0  0  0  0  0
   28.1576  -22.8655  -16.2606 O   0  0  0  0  0  0  0  0  0  0  0  0
   28.1560  -20.6431  -15.6996 N   0  0  0  0  0  0  0  0  0  0  0  0
   27.4974  -20.7558  -14.4570 C   0  0  1  0  0  0  0  0  0  0  0  0
   27.7940  -19.6937  -13.4168 C   0  0  0  0  0  0  0  0  0  0  0  0
   27.3876  -20.1389  -12.0632 C   0  0  0  0  0  0  0  0  0  0  0  0
   26.2043  -19.9854  -11.4092 C   0  0  0  0  0  0  0  0  0  0  0  0
   26.2821  -20.5596  -10.1870 N   0  0  0  0  0  0  0  0  0  0  0  0
   27.4914  -21.0981  -10.0019 C   0  0  0  0  0  0  0  0  0  0  0  0
   28.0853  -21.7874   -8.9708 C   0  0  0  0  0  0  0  0  0  0  0  0
   29.3850  -22.2147   -9.1256 C   0  0  0  0  0  0  0  0  0  0  0  0
   30.0867  -21.9652  -10.2804 C   0  0  0  0  0  0  0  0  0  0  0  0
   29.4970  -21.2655  -11.3377 C   0  0  0  0  0  0  0  0  0  0  0  0
   28.1947  -20.8477  -11.1580 C   0  0  0  0  0  0  0  0  0  0  0  0
   26.0790  -21.0574  -14.4502 C   0  0  0  0  0  0  0  0  0  0  0  0
   25.3329  -20.2891  -15.1489 O   0  0  0  0  0  0  0  0  0  0  0  0
   20.0866  -26.4730  -12.6370 N   0  0  0  0  0  0  0  0  0  0  0  0
   19.5836  -25.6603  -13.6804 C   0  0  0  0  0  0  0  0  0  0  0  0
   18.3115  -25.6998  -13.9763 N   0  0  0  0  0  0  0  0  0  0  0  0
   20.3962  -24.7813  -14.4466 N   0  0  0  0  0  0  0  0  0  0  0  0
   21.8423  -24.7479  -14.3106 C   0  0  0  0  0  0  0  0  0  0  0  0
   22.1847  -23.8685  -13.1036 C   0  0  0  0  0  0  0  0  0  0  0  0
   23.6515  -23.5742  -13.0556 C   0  0  0  0  0  0  0  0  0  0  0  0
   23.9913  -22.3217  -13.7802 C   0  0  2  0  0  0  0  0  0  0  0  0
   25.4457  -22.0957  -13.7628 N   0  0  0  0  0  0  0  0  0  0  0  0
   23.2870  -21.1701  -13.2258 C   0  0  0  0  0  0  0  0  0  0  0  0
   23.6512  -20.4880  -12.0938 O   0  0  0  0  0  0  0  0  0  0  0  0
   22.2414  -20.7450  -13.8231 O   0  0  0  0  0  0  0  0  0  0  0  0
  2  3  1  0
  2  1  1  6
  3  4  1  0
  5  2  1  0
  6  5  2  0
  7  5  1  0
  8  7  1  0
  9 10  1  0
  8  9  1  6
 10 11  2  0
 11 12  1  0
 13 14  2  0
 13 12  1  0
 15 14  1  0
 16 15  2  0
 17 16  1  0
 17 18  2  0
 18 10  1  0
 18 13  1  0
 19  8  1  0
 19 29  1  0
 20 19  2  0
 22 21  1  0
 23 22  2  0
 24 22  1  0
 25 26  1  0
 25 24  1  0
 26 27  1  0
 28 27  1  1
 28 29  1  0
 28 30  1  0
 30 32  2  0
 30 31  1  0
M  END
$$$$
