CWR.pdb
     RDKit          3D

 32 33  0  0  1  0  0  0  0  0999 V2000
   28.8455  -23.1561  -17.4289 N   0  0  0  0  0  0  0  0  0  0  0  0
   28.2847  -21.9047  -17.0341 C   0  0  1  0  0  0  0  0  0  0  0  0
   27.3514  -21.3229  -18.0723 C   0  0  0  0  0  0  0  0  0  0  0  0
   27.4271  -22.1924  -19.6428 S   0  0  0  0  0  0  0  0  0  0  0  0
   27.6225  -22.0471  -15.7178 C   0  0  0  0  0  0  0  0  0  0  0  0
   27.3523  -23.1649  -15.2266 O   0  0  0  0  0  0  0  0  0  0  0  0
   27.2780  -20.8873  -14.9796 N   0  0  0  0  0  0  0  0  0  0  0  0
   26.8425  -20.8437  -13.6384 C   0  0  1  0  0  0  0  0  0  0  0  0
   27.5146  -19.8385  -12.7240 C   0  0  0  0  0  0  0  0  0  0  0  0
   27.0853  -20.0205  -11.3176 C   0  0  0  0  0  0  0  0  0  0  0  0
   25.8758  -19.7980  -10.7352 C   0  0  0  0  0  0  0  0  0  0  0  0
   25.9401  -20.1082   -9.4202 N   0  0  0  0  0  0  0  0  0  0  0  0
   27.1658  -20.5360   -9.1022 C   0  0  0  0  0  0  0  0  0  0  0  0
   27.7566  -20.9713   -7.9393 C   0  0  0  0  0  0  0  0  0  0  0  0
   29.0786  -21.3546   -7.9746 C   0  0  0  0  0  0  0  0  0  0  0  0
   29.8052  -21.3088   -9.1400 C   0  0  0  0  0  0  0  0  0  0  0  0
   29.2189  -20.8684  -10.3307 C   0  0  0  0  0  0  0  0  0  0  0  0
   27.8940  -20.4895  -10.2690 C   0  0  0  0  0  0  0  0  0  0  0  0
   25.4171  -20.8627  -13.3725 C   0  0  0  0  0  0  0  0  0  0  0  0
   24.7147  -19.9870  -13.9849 O   0  0  0  0  0  0  0  0  0  0  0  0
   19.7844  -23.6329   -8.0988 N   0  0  0  0  0  0  0  0  0  0  0  0
   19.3842  -22.8459   -9.2046 C   0  0  0  0  0  0  0  0  0  0  0  0
   18.5190  -23.3228  -10.0597 N   0  0  0  0  0  0  0  0  0  0  0  0
   19.8773  -21.5357   -9.4498 N   0  0  0  0  0  0  0  0  0  0  0  0
   21.2729  -21.2795   -9.7617 C   0  0  0  0  0  0  0  0  0  0  0  0
   21.3506  -20.7731  -11.2057 C   0  0  0  0  0  0  0  0  0  0  0  0
   22.7740  -20.6032  -11.6366 C   0  0  0  0  0  0  0  0  0  0  0  0
   23.2682  -21.7795  -12.3991 C   0  0  2  0  0  0  0  0  0  0  0  0
   24.7344  -21.7345  -12.5208 N   0  0  0  0  0  0  0  0  0  0  0  0
   22.6471  -21.8676  -13.7167 C   0  0  0  0  0  0  0  0  0  0  0  0
   23.3214  -21.9093  -14.9096 O   0  0  0  0  0  0  0  0  0  0  0  0
   21.3730  -21.9074  -13.7925 O   0  0  0  0  0  0  0  0  0  0  0  0
  2  3  1  0
  2  1  1  6
  3  4  1  0
  5  2  1  0
  6  5  2  0
  7  5  1  0
  8  7  1  0
  9 10  1  0
  8  9  1  6
 10 11  2  0
 11 12  1  0
 13 14  2  0
 13 12  1  0
 15 14  1  0
 16 15  2  0
 17 16  1  0
 17 18  2  0
 18 10  1  0
 18 13  1  0
 19  8  1  0
 19 29  1  0
 20 19  2  0
 22 21  1  0
 23 22  2  0
 24 22  1  0
 25 26  1  0
 25 24  1  0
 26 27  1  0
 28 27  1  6
 28 29  1  0
 28 30  1  0
 30 32  2  0
 30 31  1  0
M  END
$$$$
