CWR.pdb
     RDKit          3D

 32 33  0  0  1  0  0  0  0  0999 V2000
   28.9416  -20.9828  -17.1313 N   0  0  0  0  0  0  0  0  0  0  0  0
   28.2659  -22.2376  -17.0595 C   0  0  1  0  0  0  0  0  0  0  0  0
   29.2133  -23.4155  -17.0069 C   0  0  0  0  0  0  0  0  0  0  0  0
   30.4883  -23.3413  -18.2708 S   0  0  0  0  0  0  0  0  0  0  0  0
   27.3279  -22.2351  -15.9143 C   0  0  0  0  0  0  0  0  0  0  0  0
   26.6058  -23.2194  -15.6436 O   0  0  0  0  0  0  0  0  0  0  0  0
   27.2351  -21.0863  -15.0895 N   0  0  0  0  0  0  0  0  0  0  0  0
   26.4415  -20.9452  -13.9316 C   0  0  1  0  0  0  0  0  0  0  0  0
   26.8587  -19.8862  -12.9303 C   0  0  0  0  0  0  0  0  0  0  0  0
   26.2293  -20.1183  -11.6091 C   0  0  0  0  0  0  0  0  0  0  0  0
   24.9456  -19.9202  -11.2035 C   0  0  0  0  0  0  0  0  0  0  0  0
   24.8190  -20.2755   -9.9045 N   0  0  0  0  0  0  0  0  0  0  0  0
   25.9884  -20.7099   -9.4247 C   0  0  0  0  0  0  0  0  0  0  0  0
   26.4060  -21.1832   -8.2030 C   0  0  0  0  0  0  0  0  0  0  0  0
   27.7221  -21.5606   -8.0567 C   0  0  0  0  0  0  0  0  0  0  0  0
   28.6112  -21.4720   -9.1005 C   0  0  0  0  0  0  0  0  0  0  0  0
   28.2022  -20.9926  -10.3488 C   0  0  0  0  0  0  0  0  0  0  0  0
   26.8794  -20.6206  -10.4696 C   0  0  0  0  0  0  0  0  0  0  0  0
   24.9989  -20.9309  -14.0788 C   0  0  0  0  0  0  0  0  0  0  0  0
   24.4912  -19.8715  -14.5840 O   0  0  0  0  0  0  0  0  0  0  0  0
   18.6050  -23.4610   -9.3902 N   0  0  0  0  0  0  0  0  0  0  0  0
   18.3074  -23.7080  -10.7513 C   0  0  0  0  0  0  0  0  0  0  0  0
   17.0688  -23.6541  -11.1637 N   0  0  0  0  0  0  0  0  0  0  0  0
   19.2969  -24.0193  -11.7229 N   0  0  0  0  0  0  0  0  0  0  0  0
   20.7109  -24.0826  -11.3952 C   0  0  0  0  0  0  0  0  0  0  0  0
   21.3772  -22.8079  -11.9231 C   0  0  0  0  0  0  0  0  0  0  0  0
   21.9884  -23.0425  -13.2693 C   0  0  0  0  0  0  0  0  0  0  0  0
   22.6456  -21.8204  -13.8021 C   0  0  2  0  0  0  0  0  0  0  0  0
   24.1100  -21.9498  -13.7277 N   0  0  0  0  0  0  0  0  0  0  0  0
   22.2010  -20.6200  -13.1013 C   0  0  0  0  0  0  0  0  0  0  0  0
   22.7951  -20.0871  -11.9867 O   0  0  0  0  0  0  0  0  0  0  0  0
   21.1754  -19.9984  -13.5400 O   0  0  0  0  0  0  0  0  0  0  0  0
  2  3  1  0
  2  1  1  1
  3  4  1  0
  5  2  1  0
  6  5  2  0
  7  5  1  0
  8  7  1  0
  9 10  1  0
  8  9  1  6
 10 11  2  0
 11 12  1  0
 13 14  2  0
 13 12  1  0
 15 14  1  0
 16 15  2  0
 17 16  1  0
 17 18  2  0
 18 10  1  0
 18 13  1  0
 19  8  1  0
 19 29  1  0
 20 19  2  0
 22 21  1  0
 23 22  2  0
 24 22  1  0
 25 26  1  0
 25 24  1  0
 26 27  1  0
 28 27  1  1
 28 29  1  0
 28 30  1  0
 30 32  2  0
 30 31  1  0
M  END
$$$$
