CWR.pdb
     RDKit          3D

 32 33  0  0  1  0  0  0  0  0999 V2000
    8.5407  -17.8116  -14.2006 N   0  0  0  0  0  0  0  0  0  0  0  0
    8.4432  -17.0391  -13.0048 C   0  0  1  0  0  0  0  0  0  0  0  0
    7.0292  -16.5953  -12.7028 C   0  0  0  0  0  0  0  0  0  0  0  0
    5.9111  -17.9736  -12.4226 S   0  0  0  0  0  0  0  0  0  0  0  0
    9.0366  -17.7900  -11.8754 C   0  0  0  0  0  0  0  0  0  0  0  0
    8.9026  -19.0275  -11.7558 O   0  0  0  0  0  0  0  0  0  0  0  0
    9.7834  -17.0964  -10.8905 N   0  0  0  0  0  0  0  0  0  0  0  0
   10.4920  -17.6708   -9.8142 C   0  0  1  0  0  0  0  0  0  0  0  0
   11.9564  -17.3046   -9.6746 C   0  0  0  0  0  0  0  0  0  0  0  0
   12.7697  -17.9237  -10.7474 C   0  0  0  0  0  0  0  0  0  0  0  0
   12.8492  -17.6210  -12.0717 C   0  0  0  0  0  0  0  0  0  0  0  0
   13.7307  -18.4502  -12.6758 N   0  0  0  0  0  0  0  0  0  0  0  0
   14.2487  -19.3051  -11.7886 C   0  0  0  0  0  0  0  0  0  0  0  0
   15.1675  -20.3254  -11.8653 C   0  0  0  0  0  0  0  0  0  0  0  0
   15.4824  -21.0171  -10.7171 C   0  0  0  0  0  0  0  0  0  0  0  0
   14.8991  -20.7058   -9.5126 C   0  0  0  0  0  0  0  0  0  0  0  0
   13.9630  -19.6713   -9.4181 C   0  0  0  0  0  0  0  0  0  0  0  0
   13.6642  -18.9942  -10.5822 C   0  0  0  0  0  0  0  0  0  0  0  0
    9.8694  -17.6850   -8.5046 C   0  0  0  0  0  0  0  0  0  0  0  0
    9.0006  -16.7740   -8.2803 O   0  0  0  0  0  0  0  0  0  0  0  0
    4.2426  -22.0738   -4.4291 N   0  0  0  0  0  0  0  0  0  0  0  0
    4.4706  -20.9372   -3.6177 C   0  0  0  0  0  0  0  0  0  0  0  0
    3.7802  -20.7758   -2.5203 N   0  0  0  0  0  0  0  0  0  0  0  0
    5.4282  -19.9344   -3.9298 N   0  0  0  0  0  0  0  0  0  0  0  0
    6.1736  -19.9370   -5.1768 C   0  0  0  0  0  0  0  0  0  0  0  0
    7.1554  -18.7612   -5.1445 C   0  0  0  0  0  0  0  0  0  0  0  0
    7.9254  -18.6725   -6.4251 C   0  0  0  0  0  0  0  0  0  0  0  0
    9.3902  -18.5854   -6.1883 C   0  0  2  0  0  0  0  0  0  0  0  0
   10.1190  -18.5867   -7.4672 N   0  0  0  0  0  0  0  0  0  0  0  0
    9.8624  -19.6657   -5.3282 C   0  0  0  0  0  0  0  0  0  0  0  0
    9.9518  -19.6091   -3.9614 O   0  0  0  0  0  0  0  0  0  0  0  0
   10.2312  -20.7626   -5.8681 O   0  0  0  0  0  0  0  0  0  0  0  0
  2  3  1  0
  2  1  1  6
  3  4  1  0
  5  2  1  0
  6  5  2  0
  7  5  1  0
  8  7  1  0
  9 10  1  0
  8  9  1  1
 10 11  2  0
 11 12  1  0
 13 14  2  0
 13 12  1  0
 15 14  1  0
 16 15  2  0
 17 16  1  0
 17 18  2  0
 18 10  1  0
 18 13  1  0
 19  8  1  0
 19 29  1  0
 20 19  2  0
 22 21  1  0
 23 22  2  0
 24 22  1  0
 25 26  1  0
 25 24  1  0
 26 27  1  0
 28 27  1  6
 28 29  1  0
 28 30  1  0
 30 32  2  0
 30 31  1  0
M  END
$$$$
