WSE.pdb
     RDKit          3D

 30 31  0  0  1  0  0  0  0  0999 V2000
    8.6420  -15.6214   22.8896 N   0  0  0  0  0  0  0  0  0  0  0  0
    9.3318  -15.8060   24.1459 C   0  0  1  0  0  0  0  0  0  0  0  0
    8.4466  -16.1345   25.3008 C   0  0  0  0  0  0  0  0  0  0  0  0
    7.3163  -15.1867   25.3797 C   0  0  0  0  0  0  0  0  0  0  0  0
    6.0174  -15.4152   24.9911 C   0  0  0  0  0  0  0  0  0  0  0  0
    5.3398  -14.2817   25.2200 N   0  0  0  0  0  0  0  0  0  0  0  0
    6.1527  -13.3485   25.7359 C   0  0  0  0  0  0  0  0  0  0  0  0
    5.9096  -12.0601   26.1332 C   0  0  0  0  0  0  0  0  0  0  0  0
    6.9311  -11.2962   26.6527 C   0  0  0  0  0  0  0  0  0  0  0  0
    8.1909  -11.8356   26.7687 C   0  0  0  0  0  0  0  0  0  0  0  0
    8.4355  -13.1377   26.3663 C   0  0  0  0  0  0  0  0  0  0  0  0
    7.4267  -13.8945   25.8520 C   0  0  0  0  0  0  0  0  0  0  0  0
   10.3421  -16.8733   23.9729 C   0  0  0  0  0  0  0  0  0  0  0  0
   10.9092  -17.3538   25.0049 O   0  0  0  0  0  0  0  0  0  0  0  0
   12.5045  -17.5212   20.4878 O   0  0  0  0  0  0  0  0  0  0  0  0
   11.9523  -18.6192   21.0867 C   0  0  0  0  0  0  0  0  0  0  0  0
   11.6571  -18.3832   22.5628 C   0  0  2  0  0  0  0  0  0  0  0  0
   10.6662  -17.3534   22.6694 N   0  0  0  0  0  0  0  0  0  0  0  0
   12.8915  -18.0938   23.3062 C   0  0  0  0  0  0  0  0  0  0  0  0
   13.1696  -16.8918   23.5881 O   0  0  0  0  0  0  0  0  0  0  0  0
   13.8172  -19.0700   23.7447 N   0  0  0  0  0  0  0  0  0  0  0  0
   14.3790  -19.1126   25.0979 C   0  0  1  0  0  0  0  0  0  0  0  0
   13.2000  -19.2308   26.0289 C   0  0  0  0  0  0  0  0  0  0  0  0
   13.5835  -19.4737   27.4682 C   0  0  0  0  0  0  0  0  0  0  0  0
   12.3664  -19.6715   28.3113 C   0  0  0  0  0  0  0  0  0  0  0  0
   11.4902  -18.7794   28.4275 O   0  0  0  0  0  0  0  0  0  0  0  0
   15.3540  -20.2124   25.2163 C   0  0  0  0  0  0  0  0  0  0  0  0
   15.1977  -21.2663   24.5071 O   0  0  0  0  0  0  0  0  0  0  0  0
   12.1965  -20.8714   28.9842 O   0  0  0  0  0  0  0  0  0  0  0  0
   16.4486  -20.2020   26.0462 O   0  0  0  0  0  0  0  0  0  0  0  0
  2  1  1  6
  2 13  1  0
  3  2  1  0
  3  4  1  0
  4 12  1  0
  4  5  2  0
  5  6  1  0
  7  6  1  0
  7  8  2  0
  9  8  1  0
 10  9  2  0
 11 12  2  0
 11 10  1  0
 12  7  1  0
 13 14  2  0
 16 15  1  0
 17 16  1  6
 18 13  1  0
 18 17  1  0
 19 17  1  0
 19 20  2  0
 21 19  1  0
 22 21  1  0
 22 27  1  0
 22 23  1  1
 24 23  1  0
 24 25  1  0
 25 26  2  0
 25 29  1  0
 27 28  2  0
 27 30  1  0
M  END
$$$$
