WSE.pdb
     RDKit          3D

 30 31  0  0  1  0  0  0  0  0999 V2000
    6.4153  -17.8477   24.7769 N   0  0  0  0  0  0  0  0  0  0  0  0
    7.2533  -16.8785   24.1088 C   0  0  1  0  0  0  0  0  0  0  0  0
    8.1874  -16.1381   25.0057 C   0  0  0  0  0  0  0  0  0  0  0  0
    7.4516  -15.1646   25.8383 C   0  0  0  0  0  0  0  0  0  0  0  0
    6.5803  -15.4460   26.8639 C   0  0  0  0  0  0  0  0  0  0  0  0
    6.1303  -14.2700   27.3232 N   0  0  0  0  0  0  0  0  0  0  0  0
    6.6787  -13.2594   26.6335 C   0  0  0  0  0  0  0  0  0  0  0  0
    6.5297  -11.9024   26.7497 C   0  0  0  0  0  0  0  0  0  0  0  0
    7.2275  -11.0598   25.9130 C   0  0  0  0  0  0  0  0  0  0  0  0
    8.0709  -11.5900   24.9648 C   0  0  0  0  0  0  0  0  0  0  0  0
    8.2202  -12.9615   24.8480 C   0  0  0  0  0  0  0  0  0  0  0  0
    7.5307  -13.7964   25.6743 C   0  0  0  0  0  0  0  0  0  0  0  0
    8.0224  -17.5736   23.0528 C   0  0  0  0  0  0  0  0  0  0  0  0
    8.5293  -18.7110   23.3116 O   0  0  0  0  0  0  0  0  0  0  0  0
    9.0975  -15.9108   19.1672 O   0  0  0  0  0  0  0  0  0  0  0  0
    8.6237  -17.1688   19.4163 C   0  0  0  0  0  0  0  0  0  0  0  0
    8.9991  -17.6608   20.8087 C   0  0  2  0  0  0  0  0  0  0  0  0
    8.1847  -16.9753   21.7682 N   0  0  0  0  0  0  0  0  0  0  0  0
   10.4420  -17.5140   21.0470 C   0  0  0  0  0  0  0  0  0  0  0  0
   10.8632  -16.4769   21.6376 O   0  0  0  0  0  0  0  0  0  0  0  0
   11.4236  -18.4581   20.6631 N   0  0  0  0  0  0  0  0  0  0  0  0
   12.8643  -18.2565   20.8427 C   0  0  1  0  0  0  0  0  0  0  0  0
   13.2577  -17.1939   19.8493 C   0  0  0  0  0  0  0  0  0  0  0  0
   13.9105  -15.9865   20.4766 C   0  0  0  0  0  0  0  0  0  0  0  0
   15.1123  -15.5707   19.6928 C   0  0  0  0  0  0  0  0  0  0  0  0
   16.1398  -16.2897   19.6266 O   0  0  0  0  0  0  0  0  0  0  0  0
   13.1654  -17.9129   22.2446 C   0  0  0  0  0  0  0  0  0  0  0  0
   12.2211  -17.5031   23.0052 O   0  0  0  0  0  0  0  0  0  0  0  0
   15.0955  -14.3595   19.0190 O   0  0  0  0  0  0  0  0  0  0  0  0
   14.4091  -17.9986   22.8217 O   0  0  0  0  0  0  0  0  0  0  0  0
  2  1  1  1
  2 13  1  0
  3  2  1  0
  3  4  1  0
  4 12  1  0
  4  5  2  0
  5  6  1  0
  7  6  1  0
  7  8  2  0
  9  8  1  0
 10  9  2  0
 11 12  2  0
 11 10  1  0
 12  7  1  0
 13 14  2  0
 16 15  1  0
 17 16  1  6
 18 13  1  0
 18 17  1  0
 19 17  1  0
 19 20  2  0
 21 19  1  0
 22 21  1  0
 22 27  1  0
 22 23  1  6
 24 23  1  0
 24 25  1  0
 25 26  2  0
 25 29  1  0
 27 28  2  0
 27 30  1  0
M  END
$$$$
