WSE.pdb
     RDKit          3D

 30 31  0  0  1  0  0  0  0  0999 V2000
    6.4226  -17.7423   24.7826 N   0  0  0  0  0  0  0  0  0  0  0  0
    7.0515  -16.6805   24.0307 C   0  0  1  0  0  0  0  0  0  0  0  0
    7.9605  -15.8062   24.8273 C   0  0  0  0  0  0  0  0  0  0  0  0
    7.1839  -14.8638   25.6586 C   0  0  0  0  0  0  0  0  0  0  0  0
    6.1837  -15.1774   26.5483 C   0  0  0  0  0  0  0  0  0  0  0  0
    5.7452  -14.0194   27.0616 N   0  0  0  0  0  0  0  0  0  0  0  0
    6.4242  -12.9896   26.5360 C   0  0  0  0  0  0  0  0  0  0  0  0
    6.3346  -11.6412   26.7610 C   0  0  0  0  0  0  0  0  0  0  0  0
    7.1701  -10.7751   26.0912 C   0  0  0  0  0  0  0  0  0  0  0  0
    8.0906  -11.2735   25.1990 C   0  0  0  0  0  0  0  0  0  0  0  0
    8.1798  -12.6364   24.9721 C   0  0  0  0  0  0  0  0  0  0  0  0
    7.3542  -13.4944   25.6333 C   0  0  0  0  0  0  0  0  0  0  0  0
    7.7998  -17.2836   22.9055 C   0  0  0  0  0  0  0  0  0  0  0  0
    8.4223  -18.3758   23.0985 O   0  0  0  0  0  0  0  0  0  0  0  0
    8.5393  -15.1308   19.3605 O   0  0  0  0  0  0  0  0  0  0  0  0
    8.4019  -16.4900   19.3064 C   0  0  0  0  0  0  0  0  0  0  0  0
    8.7205  -17.1550   20.6398 C   0  0  2  0  0  0  0  0  0  0  0  0
    7.8148  -16.6487   21.6283 N   0  0  0  0  0  0  0  0  0  0  0  0
   10.1367  -16.9776   20.9909 C   0  0  0  0  0  0  0  0  0  0  0  0
   10.5423  -15.8310   21.3408 O   0  0  0  0  0  0  0  0  0  0  0  0
   11.1081  -18.0062   20.9708 N   0  0  0  0  0  0  0  0  0  0  0  0
   12.5214  -17.8007   21.3006 C   0  0  1  0  0  0  0  0  0  0  0  0
   12.8661  -18.8630   22.3123 C   0  0  0  0  0  0  0  0  0  0  0  0
   12.7236  -18.4085   23.7443 C   0  0  0  0  0  0  0  0  0  0  0  0
   12.8076  -19.5722   24.6771 C   0  0  0  0  0  0  0  0  0  0  0  0
   13.0567  -20.7324   24.2662 O   0  0  0  0  0  0  0  0  0  0  0  0
   13.3463  -17.8405   20.0791 C   0  0  0  0  0  0  0  0  0  0  0  0
   12.8923  -18.4271   19.0361 O   0  0  0  0  0  0  0  0  0  0  0  0
   12.6062  -19.3688   26.0333 O   0  0  0  0  0  0  0  0  0  0  0  0
   14.5969  -17.2843   19.9607 O   0  0  0  0  0  0  0  0  0  0  0  0
  2  1  1  1
  2 13  1  0
  3  2  1  0
  3  4  1  0
  4 12  1  0
  4  5  2  0
  5  6  1  0
  7  6  1  0
  7  8  2  0
  9  8  1  0
 10  9  2  0
 11 12  2  0
 11 10  1  0
 12  7  1  0
 13 14  2  0
 16 15  1  0
 17 16  1  6
 18 13  1  0
 18 17  1  0
 19 17  1  0
 19 20  2  0
 21 19  1  0
 22 21  1  0
 22 27  1  0
 22 23  1  1
 24 23  1  0
 24 25  1  0
 25 26  2  0
 25 29  1  0
 27 28  2  0
 27 30  1  0
M  END
$$$$
