WSE.pdb
     RDKit          3D

 30 31  0  0  1  0  0  0  0  0999 V2000
    6.7630  -17.7586   24.6761 N   0  0  0  0  0  0  0  0  0  0  0  0
    7.2015  -16.6748   23.8269 C   0  0  1  0  0  0  0  0  0  0  0  0
    8.0278  -15.6399   24.5133 C   0  0  0  0  0  0  0  0  0  0  0  0
    7.1944  -14.8187   25.4152 C   0  0  0  0  0  0  0  0  0  0  0  0
    6.1469  -15.2505   26.1941 C   0  0  0  0  0  0  0  0  0  0  0  0
    5.6676  -14.1725   26.8302 N   0  0  0  0  0  0  0  0  0  0  0  0
    6.3658  -13.0803   26.4879 C   0  0  0  0  0  0  0  0  0  0  0  0
    6.2497  -11.7742   26.8850 C   0  0  0  0  0  0  0  0  0  0  0  0
    7.1143  -10.8246   26.3875 C   0  0  0  0  0  0  0  0  0  0  0  0
    8.0905  -11.1972   25.4932 C   0  0  0  0  0  0  0  0  0  0  0  0
    8.2065  -12.5174   25.0922 C   0  0  0  0  0  0  0  0  0  0  0  0
    7.3522  -13.4579   25.5829 C   0  0  0  0  0  0  0  0  0  0  0  0
    7.9604  -17.2467   22.6924 C   0  0  0  0  0  0  0  0  0  0  0  0
    8.5661  -18.3531   22.8557 O   0  0  0  0  0  0  0  0  0  0  0  0
    7.4357  -16.2745   18.7869 O   0  0  0  0  0  0  0  0  0  0  0  0
    8.7442  -16.2325   19.1807 C   0  0  0  0  0  0  0  0  0  0  0  0
    8.9796  -16.9927   20.4801 C   0  0  2  0  0  0  0  0  0  0  0  0
    8.0040  -16.5665   21.4395 N   0  0  0  0  0  0  0  0  0  0  0  0
   10.3669  -16.8336   20.9386 C   0  0  0  0  0  0  0  0  0  0  0  0
   10.6823  -15.7942   21.5880 O   0  0  0  0  0  0  0  0  0  0  0  0
   11.4046  -17.7680   20.7100 N   0  0  0  0  0  0  0  0  0  0  0  0
   12.7889  -17.5746   21.1513 C   0  0  1  0  0  0  0  0  0  0  0  0
   13.2015  -18.8744   21.7923 C   0  0  0  0  0  0  0  0  0  0  0  0
   12.4032  -19.2257   23.0239 C   0  0  0  0  0  0  0  0  0  0  0  0
   13.2545  -19.1325   24.2478 C   0  0  0  0  0  0  0  0  0  0  0  0
   14.5086  -19.1369   24.1829 O   0  0  0  0  0  0  0  0  0  0  0  0
   13.6382  -17.1646   20.0178 C   0  0  0  0  0  0  0  0  0  0  0  0
   13.2605  -17.4310   18.8243 O   0  0  0  0  0  0  0  0  0  0  0  0
   12.6465  -19.0376   25.4899 O   0  0  0  0  0  0  0  0  0  0  0  0
   14.8349  -16.5004   20.1364 O   0  0  0  0  0  0  0  0  0  0  0  0
  2  1  1  1
  2 13  1  0
  3  2  1  0
  3  4  1  0
  4 12  1  0
  4  5  2  0
  5  6  1  0
  7  6  1  0
  7  8  2  0
  9  8  1  0
 10  9  2  0
 11 12  2  0
 11 10  1  0
 12  7  1  0
 13 14  2  0
 16 15  1  0
 17 16  1  6
 18 13  1  0
 18 17  1  0
 19 17  1  0
 19 20  2  0
 21 19  1  0
 22 21  1  0
 22 27  1  0
 22 23  1  6
 24 23  1  0
 24 25  1  0
 25 26  2  0
 25 29  1  0
 27 28  2  0
 27 30  1  0
M  END
$$$$
