WSE.pdb
     RDKit          3D

 30 31  0  0  1  0  0  0  0  0999 V2000
    7.6198  -17.5687   24.7949 N   0  0  0  0  0  0  0  0  0  0  0  0
    8.0067  -16.6290   23.7675 C   0  0  1  0  0  0  0  0  0  0  0  0
    8.2777  -15.2463   24.2572 C   0  0  0  0  0  0  0  0  0  0  0  0
    7.2368  -14.8167   25.2134 C   0  0  0  0  0  0  0  0  0  0  0  0
    6.2315  -15.5903   25.7436 C   0  0  0  0  0  0  0  0  0  0  0  0
    5.5099  -14.7925   26.5431 N   0  0  0  0  0  0  0  0  0  0  0  0
    6.0149  -13.5505   26.5414 C   0  0  0  0  0  0  0  0  0  0  0  0
    5.6247  -12.4170   27.2046 C   0  0  0  0  0  0  0  0  0  0  0  0
    6.3317  -11.2465   27.0408 C   0  0  0  0  0  0  0  0  0  0  0  0
    7.4274  -11.2257   26.2098 C   0  0  0  0  0  0  0  0  0  0  0  0
    7.8205  -12.3718   25.5396 C   0  0  0  0  0  0  0  0  0  0  0  0
    7.1224  -13.5302   25.7001 C   0  0  0  0  0  0  0  0  0  0  0  0
    9.2045  -17.1570   23.0773 C   0  0  0  0  0  0  0  0  0  0  0  0
    9.8530  -18.1090   23.6166 O   0  0  0  0  0  0  0  0  0  0  0  0
   11.1647  -15.0865   19.8637 O   0  0  0  0  0  0  0  0  0  0  0  0
   11.0443  -16.4477   19.9047 C   0  0  0  0  0  0  0  0  0  0  0  0
   10.9095  -16.9718   21.3291 C   0  0  2  0  0  0  0  0  0  0  0  0
    9.6162  -16.6069   21.8274 N   0  0  0  0  0  0  0  0  0  0  0  0
   12.0199  -16.5021   22.1696 C   0  0  0  0  0  0  0  0  0  0  0  0
   11.7641  -15.7717   23.1709 O   0  0  0  0  0  0  0  0  0  0  0  0
   13.3841  -16.8059   21.9483 N   0  0  0  0  0  0  0  0  0  0  0  0
   14.4366  -16.6104   22.9495 C   0  0  1  0  0  0  0  0  0  0  0  0
   13.9792  -17.3544   24.1775 C   0  0  0  0  0  0  0  0  0  0  0  0
   14.8280  -18.5566   24.5119 C   0  0  0  0  0  0  0  0  0  0  0  0
   14.8598  -18.7849   25.9878 C   0  0  0  0  0  0  0  0  0  0  0  0
   15.4855  -19.7486   26.4945 O   0  0  0  0  0  0  0  0  0  0  0  0
   15.7385  -17.0591   22.4223 C   0  0  0  0  0  0  0  0  0  0  0  0
   15.7685  -17.9528   21.5066 O   0  0  0  0  0  0  0  0  0  0  0  0
   14.1819  -17.9106   26.8229 O   0  0  0  0  0  0  0  0  0  0  0  0
   16.9580  -16.5852   22.8413 O   0  0  0  0  0  0  0  0  0  0  0  0
  2  1  1  1
  2 13  1  0
  3  2  1  0
  3  4  1  0
  4 12  1  0
  4  5  2  0
  5  6  1  0
  7  6  1  0
  7  8  2  0
  9  8  1  0
 10  9  2  0
 11 12  2  0
 11 10  1  0
 12  7  1  0
 13 14  2  0
 16 15  1  0
 17 16  1  6
 18 13  1  0
 18 17  1  0
 19 17  1  0
 19 20  2  0
 21 19  1  0
 22 21  1  0
 22 27  1  0
 22 23  1  1
 24 23  1  0
 24 25  1  0
 25 26  2  0
 25 29  1  0
 27 28  2  0
 27 30  1  0
M  END
$$$$
