WSE.pdb
     RDKit          3D

 30 31  0  0  1  0  0  0  0  0999 V2000
   10.5171  -17.3193   19.4747 N   0  0  0  0  0  0  0  0  0  0  0  0
   10.1613  -16.5588   20.6509 C   0  0  1  0  0  0  0  0  0  0  0  0
    8.7269  -16.6590   21.0479 C   0  0  0  0  0  0  0  0  0  0  0  0
    7.9106  -15.6712   20.3128 C   0  0  0  0  0  0  0  0  0  0  0  0
    7.0111  -15.9282   19.3054 C   0  0  0  0  0  0  0  0  0  0  0  0
    6.5182  -14.7444   18.9152 N   0  0  0  0  0  0  0  0  0  0  0  0
    7.0662  -13.7522   19.6314 C   0  0  0  0  0  0  0  0  0  0  0  0
    6.8668  -12.3973   19.5959 C   0  0  0  0  0  0  0  0  0  0  0  0
    7.5565  -11.5776   20.4615 C   0  0  0  0  0  0  0  0  0  0  0  0
    8.4427  -12.1286   21.3574 C   0  0  0  0  0  0  0  0  0  0  0  0
    8.6438  -13.4980   21.3920 C   0  0  0  0  0  0  0  0  0  0  0  0
    7.9629  -14.3102   20.5366 C   0  0  0  0  0  0  0  0  0  0  0  0
   11.0207  -17.0008   21.7716 C   0  0  0  0  0  0  0  0  0  0  0  0
   12.0272  -17.7362   21.5193 O   0  0  0  0  0  0  0  0  0  0  0  0
   10.0715  -16.3833   25.8491 O   0  0  0  0  0  0  0  0  0  0  0  0
   11.3345  -16.1442   25.3836 C   0  0  0  0  0  0  0  0  0  0  0  0
   11.6535  -16.9603   24.1371 C   0  0  2  0  0  0  0  0  0  0  0  0
   10.7226  -16.6017   23.1082 N   0  0  0  0  0  0  0  0  0  0  0  0
   11.6727  -18.3983   24.4406 C   0  0  0  0  0  0  0  0  0  0  0  0
   10.5815  -19.0393   24.4403 O   0  0  0  0  0  0  0  0  0  0  0  0
   12.8371  -19.1445   24.7397 N   0  0  0  0  0  0  0  0  0  0  0  0
   12.8224  -20.5539   25.1421 C   0  0  1  0  0  0  0  0  0  0  0  0
   14.0999  -21.1475   24.6070 C   0  0  0  0  0  0  0  0  0  0  0  0
   14.9620  -20.1611   23.8578 C   0  0  0  0  0  0  0  0  0  0  0  0
   16.1757  -20.8350   23.3062 C   0  0  0  0  0  0  0  0  0  0  0  0
   17.2623  -20.8586   23.9352 O   0  0  0  0  0  0  0  0  0  0  0  0
   12.6688  -20.6705   26.6039 C   0  0  0  0  0  0  0  0  0  0  0  0
   13.5366  -21.3313   27.2736 O   0  0  0  0  0  0  0  0  0  0  0  0
   16.1032  -21.4523   22.0672 O   0  0  0  0  0  0  0  0  0  0  0  0
   11.6445  -20.1132   27.3302 O   0  0  0  0  0  0  0  0  0  0  0  0
  2  1  1  6
  2 13  1  0
  3  2  1  0
  3  4  1  0
  4 12  1  0
  4  5  2  0
  5  6  1  0
  7  6  1  0
  7  8  2  0
  9  8  1  0
 10  9  2  0
 11 12  2  0
 11 10  1  0
 12  7  1  0
 13 14  2  0
 16 15  1  0
 17 16  1  1
 18 13  1  0
 18 17  1  0
 19 17  1  0
 19 20  2  0
 21 19  1  0
 22 21  1  0
 22 27  1  0
 22 23  1  1
 24 23  1  0
 24 25  1  0
 25 26  2  0
 25 29  1  0
 27 28  2  0
 27 30  1  0
M  END
$$$$
