WSE.pdb
     RDKit          3D

 30 31  0  0  1  0  0  0  0  0999 V2000
   10.5279  -17.0045   19.4531 N   0  0  0  0  0  0  0  0  0  0  0  0
   11.3161  -15.7934   19.4440 C   0  0  1  0  0  0  0  0  0  0  0  0
   11.3603  -15.0684   20.7469 C   0  0  0  0  0  0  0  0  0  0  0  0
    9.9983  -14.7085   21.1917 C   0  0  0  0  0  0  0  0  0  0  0  0
    9.3409  -15.1787   22.3038 C   0  0  0  0  0  0  0  0  0  0  0  0
    8.1288  -14.6065   22.3077 N   0  0  0  0  0  0  0  0  0  0  0  0
    7.9923  -13.7963   21.2482 C   0  0  0  0  0  0  0  0  0  0  0  0
    6.9486  -13.0049   20.8462 C   0  0  0  0  0  0  0  0  0  0  0  0
    7.0637  -12.2421   19.7053 C   0  0  0  0  0  0  0  0  0  0  0  0
    8.2296  -12.2814   18.9769 C   0  0  0  0  0  0  0  0  0  0  0  0
    9.2835  -13.0820   19.3839 C   0  0  0  0  0  0  0  0  0  0  0  0
    9.1715  -13.8374   20.5117 C   0  0  0  0  0  0  0  0  0  0  0  0
   12.6913  -16.1330   19.0157 C   0  0  0  0  0  0  0  0  0  0  0  0
   13.0635  -17.3485   19.0568 O   0  0  0  0  0  0  0  0  0  0  0  0
   15.8701  -13.3382   17.9203 O   0  0  0  0  0  0  0  0  0  0  0  0
   15.4040  -14.3902   17.1819 C   0  0  0  0  0  0  0  0  0  0  0  0
   14.8575  -15.5113   18.0573 C   0  0  2  0  0  0  0  0  0  0  0  0
   13.5769  -15.1114   18.5616 N   0  0  0  0  0  0  0  0  0  0  0  0
   15.8187  -15.8740   19.1084 C   0  0  0  0  0  0  0  0  0  0  0  0
   15.5240  -15.6377   20.3162 O   0  0  0  0  0  0  0  0  0  0  0  0
   17.0760  -16.4806   18.8777 N   0  0  0  0  0  0  0  0  0  0  0  0
   18.0517  -16.7639   19.9343 C   0  0  1  0  0  0  0  0  0  0  0  0
   18.2257  -15.4721   20.6904 C   0  0  0  0  0  0  0  0  0  0  0  0
   19.2584  -15.5443   21.7885 C   0  0  0  0  0  0  0  0  0  0  0  0
   19.4550  -14.2029   22.4157 C   0  0  0  0  0  0  0  0  0  0  0  0
   20.3370  -13.4063   22.0102 O   0  0  0  0  0  0  0  0  0  0  0  0
   17.5966  -17.8932   20.7660 C   0  0  0  0  0  0  0  0  0  0  0  0
   18.3522  -18.3230   21.7054 O   0  0  0  0  0  0  0  0  0  0  0  0
   18.6431  -13.8245   23.4735 O   0  0  0  0  0  0  0  0  0  0  0  0
   16.3950  -18.5418   20.6155 O   0  0  0  0  0  0  0  0  0  0  0  0
  2  1  1  1
  2 13  1  0
  3  2  1  0
  3  4  1  0
  4 12  1  0
  4  5  2  0
  5  6  1  0
  7  6  1  0
  7  8  2  0
  9  8  1  0
 10  9  2  0
 11 12  2  0
 11 10  1  0
 12  7  1  0
 13 14  2  0
 16 15  1  0
 17 16  1  1
 18 13  1  0
 18 17  1  0
 19 17  1  0
 19 20  2  0
 21 19  1  0
 22 21  1  0
 22 27  1  0
 22 23  1  1
 24 23  1  0
 24 25  1  0
 25 26  2  0
 25 29  1  0
 27 28  2  0
 27 30  1  0
M  END
$$$$
