WSE.pdb
     RDKit          3D

 30 31  0  0  1  0  0  0  0  0999 V2000
    8.6862  -15.5226   20.3633 N   0  0  0  0  0  0  0  0  0  0  0  0
    8.6976  -15.4539   21.8066 C   0  0  1  0  0  0  0  0  0  0  0  0
    7.3859  -15.1036   22.4246 C   0  0  0  0  0  0  0  0  0  0  0  0
    7.3140  -13.6569   22.7148 C   0  0  0  0  0  0  0  0  0  0  0  0
    7.4240  -12.6263   21.8114 C   0  0  0  0  0  0  0  0  0  0  0  0
    7.3216  -11.4869   22.5098 N   0  0  0  0  0  0  0  0  0  0  0  0
    7.1516  -11.7524   23.8130 C   0  0  0  0  0  0  0  0  0  0  0  0
    6.9914  -10.9206   24.8898 C   0  0  0  0  0  0  0  0  0  0  0  0
    6.8183  -11.4511   26.1489 C   0  0  0  0  0  0  0  0  0  0  0  0
    6.8075  -12.8163   26.3149 C   0  0  0  0  0  0  0  0  0  0  0  0
    6.9700  -13.6559   25.2260 C   0  0  0  0  0  0  0  0  0  0  0  0
    7.1417  -13.1332   23.9801 C   0  0  0  0  0  0  0  0  0  0  0  0
    9.1651  -16.7553   22.3336 C   0  0  0  0  0  0  0  0  0  0  0  0
    9.3752  -17.7075   21.5171 O   0  0  0  0  0  0  0  0  0  0  0  0
   12.4320  -18.8783   23.7719 O   0  0  0  0  0  0  0  0  0  0  0  0
   11.5554  -17.8915   23.4155 C   0  0  0  0  0  0  0  0  0  0  0  0
   10.2259  -18.0085   24.1506 C   0  0  2  0  0  0  0  0  0  0  0  0
    9.3789  -16.9306   23.7329 N   0  0  0  0  0  0  0  0  0  0  0  0
   10.4324  -18.0674   25.6046 C   0  0  0  0  0  0  0  0  0  0  0  0
   11.0814  -17.1393   26.1695 O   0  0  0  0  0  0  0  0  0  0  0  0
    9.9543  -19.0992   26.4465 N   0  0  0  0  0  0  0  0  0  0  0  0
   10.1251  -19.1099   27.9023 C   0  0  1  0  0  0  0  0  0  0  0  0
    9.1994  -20.1819   28.4170 C   0  0  0  0  0  0  0  0  0  0  0  0
    7.8876  -20.2605   27.6749 C   0  0  0  0  0  0  0  0  0  0  0  0
    7.0202  -21.3318   28.2507 C   0  0  0  0  0  0  0  0  0  0  0  0
    7.4852  -22.2308   28.9940 O   0  0  0  0  0  0  0  0  0  0  0  0
   11.5422  -19.3171   28.2530 C   0  0  0  0  0  0  0  0  0  0  0  0
   11.8968  -19.2656   29.4817 O   0  0  0  0  0  0  0  0  0  0  0  0
    5.6652  -21.3356   27.9588 O   0  0  0  0  0  0  0  0  0  0  0  0
   12.5438  -19.5694   27.3473 O   0  0  0  0  0  0  0  0  0  0  0  0
  2  1  1  6
  2 13  1  0
  3  2  1  0
  3  4  1  0
  4 12  1  0
  4  5  2  0
  5  6  1  0
  7  6  1  0
  7  8  2  0
  9  8  1  0
 10  9  2  0
 11 12  2  0
 11 10  1  0
 12  7  1  0
 13 14  2  0
 16 15  1  0
 17 16  1  6
 18 13  1  0
 18 17  1  0
 19 17  1  0
 19 20  2  0
 21 19  1  0
 22 21  1  0
 22 27  1  0
 22 23  1  1
 24 23  1  0
 24 25  1  0
 25 26  2  0
 25 29  1  0
 27 28  2  0
 27 30  1  0
M  END
$$$$
