EFI.pdb
     RDKit          3D

 29 29  0  0  1  0  0  0  0  0999 V2000
   27.4654  -23.1164  -17.2658 N   0  0  0  0  0  0  0  0  0  0  0  0
   27.1669  -21.8093  -16.7195 C   0  0  1  0  0  0  0  0  0  0  0  0
   26.4378  -20.9258  -17.6627 C   0  0  0  0  0  0  0  0  0  0  0  0
   27.1958  -20.4543  -18.8527 C   0  0  0  0  0  0  0  0  0  0  0  0
   28.5028  -19.8655  -18.5058 C   0  0  0  0  0  0  0  0  0  0  0  0
   28.6618  -18.8212  -17.8511 O   0  0  0  0  0  0  0  0  0  0  0  0
   26.3529  -21.9273  -15.4656 C   0  0  0  0  0  0  0  0  0  0  0  0
   25.3677  -22.7120  -15.3951 O   0  0  0  0  0  0  0  0  0  0  0  0
   29.6428  -20.5569  -18.9619 O   0  0  0  0  0  0  0  0  0  0  0  0
   26.6858  -21.1482  -14.3321 N   0  0  0  0  0  0  0  0  0  0  0  0
   25.8912  -21.2256  -13.0750 C   0  0  1  0  0  0  0  0  0  0  0  0
   26.7071  -20.8102  -11.9280 C   0  0  0  0  0  0  0  0  0  0  0  0
   25.9948  -20.7229  -10.6637 C   0  0  0  0  0  0  0  0  0  0  0  0
   24.6877  -21.1040  -10.5295 C   0  0  0  0  0  0  0  0  0  0  0  0
   24.0904  -21.0481   -9.2956 C   0  0  0  0  0  0  0  0  0  0  0  0
   24.7617  -20.6163   -8.1612 C   0  0  0  0  0  0  0  0  0  0  0  0
   26.0809  -20.2387   -8.3310 C   0  0  0  0  0  0  0  0  0  0  0  0
   26.6779  -20.2918   -9.5501 C   0  0  0  0  0  0  0  0  0  0  0  0
   24.5698  -20.6325  -13.3030 C   0  0  0  0  0  0  0  0  0  0  0  0
   24.4961  -19.4031  -13.6945 O   0  0  0  0  0  0  0  0  0  0  0  0
   20.1261  -22.1207  -16.2238 C   0  0  0  0  0  0  0  0  0  0  0  0
   20.8666  -22.0531  -14.9039 C   0  0  0  0  0  0  0  0  0  0  0  0
   21.3865  -20.6601  -14.6356 C   0  0  2  0  0  0  0  0  0  0  0  0
   22.4413  -20.3656  -15.7144 C   0  0  0  0  0  0  0  0  0  0  0  0
   22.0517  -20.5470  -13.3290 C   0  0  2  0  0  0  0  0  0  0  0  0
   23.3046  -21.2550  -13.1551 N   0  0  0  0  0  0  0  0  0  0  0  0
   21.1371  -20.8905  -12.1683 C   0  0  0  0  0  0  0  0  0  0  0  0
   21.3775  -21.8689  -11.4206 O   0  0  0  0  0  0  0  0  0  0  0  0
   20.0140  -20.1516  -11.8863 O   0  0  0  0  0  0  0  0  0  0  0  0
  2  3  1  0
  2  1  1  6
  4  5  1  0
  4  3  1  0
  5  6  2  0
  7  2  1  0
  8  7  2  0
  9  5  1  0
 10  7  1  0
 11 10  1  0
 11 12  1  1
 12 13  1  0
 13 14  2  0
 14 15  1  0
 16 15  2  0
 17 16  1  0
 18 13  1  0
 18 17  2  0
 19 20  2  0
 19 11  1  0
 21 22  1  0
 22 23  1  0
 23 25  1  0
 23 24  1  6
 25 26  1  6
 26 19  1  0
 27 29  1  0
 27 25  1  0
 28 27  2  0
M  END
$$$$
