EFI.pdb
     RDKit          3D

 29 29  0  0  1  0  0  0  0  0999 V2000
   26.8405  -21.9701  -13.6994 N   0  0  0  0  0  0  0  0  0  0  0  0
   27.0672  -20.7844  -12.9002 C   0  0  1  0  0  0  0  0  0  0  0  0
   26.1751  -19.6526  -13.2540 C   0  0  0  0  0  0  0  0  0  0  0  0
   24.7970  -20.0036  -13.6903 C   0  0  0  0  0  0  0  0  0  0  0  0
   24.6814  -20.1716  -15.1510 C   0  0  0  0  0  0  0  0  0  0  0  0
   24.7915  -19.2558  -15.9837 O   0  0  0  0  0  0  0  0  0  0  0  0
   26.8892  -21.0813  -11.4410 C   0  0  0  0  0  0  0  0  0  0  0  0
   26.1738  -22.0441  -11.0506 O   0  0  0  0  0  0  0  0  0  0  0  0
   24.4270  -21.4781  -15.6136 O   0  0  0  0  0  0  0  0  0  0  0  0
   27.5307  -20.2727  -10.4730 N   0  0  0  0  0  0  0  0  0  0  0  0
   27.3302  -20.4989   -9.0148 C   0  0  1  0  0  0  0  0  0  0  0  0
   28.3833  -19.8278   -8.2437 C   0  0  0  0  0  0  0  0  0  0  0  0
   28.1771  -19.8089   -6.8048 C   0  0  0  0  0  0  0  0  0  0  0  0
   27.6154  -18.7426   -6.1573 C   0  0  0  0  0  0  0  0  0  0  0  0
   27.3980  -18.8110   -4.8044 C   0  0  0  0  0  0  0  0  0  0  0  0
   27.7268  -19.9290   -4.0521 C   0  0  0  0  0  0  0  0  0  0  0  0
   28.2922  -20.9890   -4.7365 C   0  0  0  0  0  0  0  0  0  0  0  0
   28.5099  -20.9273   -6.0760 C   0  0  0  0  0  0  0  0  0  0  0  0
   25.9170  -20.2897   -8.6846 C   0  0  0  0  0  0  0  0  0  0  0  0
   25.3509  -19.1822   -9.0356 O   0  0  0  0  0  0  0  0  0  0  0  0
   22.2004  -20.1499  -11.2537 C   0  0  0  0  0  0  0  0  0  0  0  0
   23.0345  -19.9392  -10.0067 C   0  0  0  0  0  0  0  0  0  0  0  0
   22.7478  -20.9981   -8.9678 C   0  0  2  0  0  0  0  0  0  0  0  0
   21.3132  -20.7551   -8.4718 C   0  0  0  0  0  0  0  0  0  0  0  0
   23.6379  -20.9011   -7.8012 C   0  0  2  0  0  0  0  0  0  0  0  0
   25.0446  -21.1812   -8.0107 N   0  0  0  0  0  0  0  0  0  0  0  0
   23.1531  -21.7179   -6.6182 C   0  0  0  0  0  0  0  0  0  0  0  0
   23.5338  -22.9011   -6.4474 O   0  0  0  0  0  0  0  0  0  0  0  0
   22.2828  -21.2028   -5.6887 O   0  0  0  0  0  0  0  0  0  0  0  0
  2  3  1  0
  2  1  1  6
  4  5  1  0
  4  3  1  0
  5  6  2  0
  7  2  1  0
  8  7  2  0
  9  5  1  0
 10  7  1  0
 11 10  1  0
 11 12  1  1
 12 13  1  0
 13 14  2  0
 14 15  1  0
 16 15  2  0
 17 16  1  0
 18 13  1  0
 18 17  2  0
 19 20  2  0
 19 11  1  0
 21 22  1  0
 22 23  1  0
 23 25  1  0
 23 24  1  1
 25 26  1  6
 26 19  1  0
 27 29  1  0
 27 25  1  0
 28 27  2  0
M  END
$$$$
