EFI.pdb
     RDKit          3D

 29 29  0  0  1  0  0  0  0  0999 V2000
   27.6844  -21.7715  -13.8460 N   0  0  0  0  0  0  0  0  0  0  0  0
   27.4088  -20.5796  -13.0717 C   0  0  1  0  0  0  0  0  0  0  0  0
   26.2786  -19.7775  -13.6018 C   0  0  0  0  0  0  0  0  0  0  0  0
   26.6346  -18.5786  -14.4073 C   0  0  0  0  0  0  0  0  0  0  0  0
   27.2344  -18.9190  -15.7110 C   0  0  0  0  0  0  0  0  0  0  0  0
   28.3319  -18.5035  -16.1198 O   0  0  0  0  0  0  0  0  0  0  0  0
   27.1063  -20.9274  -11.6447 C   0  0  0  0  0  0  0  0  0  0  0  0
   26.3031  -21.8551  -11.3523 O   0  0  0  0  0  0  0  0  0  0  0  0
   26.4883  -19.7821  -16.5382 O   0  0  0  0  0  0  0  0  0  0  0  0
   27.7271  -20.2079  -10.5961 N   0  0  0  0  0  0  0  0  0  0  0  0
   27.4996  -20.5638   -9.1681 C   0  0  1  0  0  0  0  0  0  0  0  0
   28.5920  -20.0509   -8.3329 C   0  0  0  0  0  0  0  0  0  0  0  0
   28.3124  -20.0126   -6.9069 C   0  0  0  0  0  0  0  0  0  0  0  0
   27.5952  -19.0026   -6.3260 C   0  0  0  0  0  0  0  0  0  0  0  0
   27.3192  -19.0550   -4.9831 C   0  0  0  0  0  0  0  0  0  0  0  0
   27.7406  -20.1011   -4.1757 C   0  0  0  0  0  0  0  0  0  0  0  0
   28.4626  -21.1054   -4.7934 C   0  0  0  0  0  0  0  0  0  0  0  0
   28.7390  -21.0593   -6.1227 C   0  0  0  0  0  0  0  0  0  0  0  0
   26.1025  -20.2874   -8.8194 C   0  0  0  0  0  0  0  0  0  0  0  0
   25.6286  -19.1037   -9.0299 O   0  0  0  0  0  0  0  0  0  0  0  0
   22.2620  -20.8373  -11.5462 C   0  0  0  0  0  0  0  0  0  0  0  0
   23.1456  -20.3821  -10.4029 C   0  0  0  0  0  0  0  0  0  0  0  0
   22.8129  -21.1160   -9.1248 C   0  0  2  0  0  0  0  0  0  0  0  0
   21.4357  -20.6080   -8.6681 C   0  0  0  0  0  0  0  0  0  0  0  0
   23.7673  -20.8291   -8.0434 C   0  0  2  0  0  0  0  0  0  0  0  0
   25.1546  -21.1853   -8.2667 N   0  0  0  0  0  0  0  0  0  0  0  0
   23.3320  -21.3956   -6.7051 C   0  0  0  0  0  0  0  0  0  0  0  0
   23.9299  -22.3697   -6.1877 O   0  0  0  0  0  0  0  0  0  0  0  0
   22.2723  -20.8717   -6.0055 O   0  0  0  0  0  0  0  0  0  0  0  0
  2  3  1  0
  2  1  1  6
  4  5  1  0
  4  3  1  0
  5  6  2  0
  7  2  1  0
  8  7  2  0
  9  5  1  0
 10  7  1  0
 11 10  1  0
 11 12  1  1
 12 13  1  0
 13 14  2  0
 14 15  1  0
 16 15  2  0
 17 16  1  0
 18 13  1  0
 18 17  2  0
 19 20  2  0
 19 11  1  0
 21 22  1  0
 22 23  1  0
 23 25  1  0
 23 24  1  1
 25 26  1  6
 26 19  1  0
 27 29  1  0
 27 25  1  0
 28 27  2  0
M  END
$$$$
