EFI.pdb
     RDKit          3D

 29 29  0  0  1  0  0  0  0  0999 V2000
   28.6384  -22.2633  -15.9305 N   0  0  0  0  0  0  0  0  0  0  0  0
   28.5674  -20.9880  -15.2490 C   0  0  1  0  0  0  0  0  0  0  0  0
   27.7858  -19.9650  -15.9870 C   0  0  0  0  0  0  0  0  0  0  0  0
   26.4289  -20.3678  -16.4448 C   0  0  0  0  0  0  0  0  0  0  0  0
   25.7887  -19.3560  -17.3059 C   0  0  0  0  0  0  0  0  0  0  0  0
   26.0572  -19.1688  -18.5047 O   0  0  0  0  0  0  0  0  0  0  0  0
   27.9632  -21.1437  -13.8853 C   0  0  0  0  0  0  0  0  0  0  0  0
   26.9435  -21.8625  -13.6983 O   0  0  0  0  0  0  0  0  0  0  0  0
   24.8009  -18.5529  -16.7017 O   0  0  0  0  0  0  0  0  0  0  0  0
   28.5385  -20.4761  -12.7781 N   0  0  0  0  0  0  0  0  0  0  0  0
   27.9977  -20.6462  -11.4010 C   0  0  1  0  0  0  0  0  0  0  0  0
   28.9075  -20.0478  -10.4169 C   0  0  0  0  0  0  0  0  0  0  0  0
   28.3865  -19.9716   -9.0619 C   0  0  0  0  0  0  0  0  0  0  0  0
   27.6290  -18.9197   -8.6244 C   0  0  0  0  0  0  0  0  0  0  0  0
   27.1217  -18.9358   -7.3497 C   0  0  0  0  0  0  0  0  0  0  0  0
   27.3454  -19.9858   -6.4715 C   0  0  0  0  0  0  0  0  0  0  0  0
   28.1142  -21.0330   -6.9446 C   0  0  0  0  0  0  0  0  0  0  0  0
   28.6193  -21.0230   -8.2057 C   0  0  0  0  0  0  0  0  0  0  0  0
   26.5710  -20.3082  -11.3985 C   0  0  0  0  0  0  0  0  0  0  0  0
   26.1794  -19.2471  -12.0236 O   0  0  0  0  0  0  0  0  0  0  0  0
   23.0516  -21.0187  -14.4724 C   0  0  0  0  0  0  0  0  0  0  0  0
   23.8429  -20.4790  -13.2986 C   0  0  0  0  0  0  0  0  0  0  0  0
   23.3283  -21.0291  -11.9889 C   0  0  2  0  0  0  0  0  0  0  0  0
   21.9097  -20.4679  -11.7996 C   0  0  0  0  0  0  0  0  0  0  0  0
   24.1309  -20.5908  -10.8373 C   0  0  2  0  0  0  0  0  0  0  0  0
   25.5130  -21.0247  -10.7841 N   0  0  0  0  0  0  0  0  0  0  0  0
   23.4744  -20.9035   -9.5058 C   0  0  0  0  0  0  0  0  0  0  0  0
   22.3449  -20.4410   -9.2152 O   0  0  0  0  0  0  0  0  0  0  0  0
   24.0822  -21.7005   -8.5666 O   0  0  0  0  0  0  0  0  0  0  0  0
  2  3  1  0
  2  1  1  6
  4  5  1  0
  4  3  1  0
  5  6  2  0
  7  2  1  0
  8  7  2  0
  9  5  1  0
 10  7  1  0
 11 10  1  0
 11 12  1  1
 12 13  1  0
 13 14  2  0
 14 15  1  0
 16 15  2  0
 17 16  1  0
 18 13  1  0
 18 17  2  0
 19 20  2  0
 19 11  1  0
 21 22  1  0
 22 23  1  0
 23 25  1  0
 23 24  1  1
 25 26  1  1
 26 19  1  0
 27 29  1  0
 27 25  1  0
 28 27  2  0
M  END
$$$$
