EFI.pdb
     RDKit          3D

 29 29  0  0  1  0  0  0  0  0999 V2000
   28.2637  -20.3324  -16.0038 N   0  0  0  0  0  0  0  0  0  0  0  0
   27.5902  -21.5944  -15.7814 C   0  0  1  0  0  0  0  0  0  0  0  0
   28.3515  -22.7673  -16.2778 C   0  0  0  0  0  0  0  0  0  0  0  0
   29.4596  -22.4862  -17.2297 C   0  0  0  0  0  0  0  0  0  0  0  0
   28.9824  -22.1403  -18.5817 C   0  0  0  0  0  0  0  0  0  0  0  0
   27.7905  -21.9881  -18.8986 O   0  0  0  0  0  0  0  0  0  0  0  0
   27.3113  -21.8016  -14.3225 C   0  0  0  0  0  0  0  0  0  0  0  0
   26.7668  -22.8594  -13.9031 O   0  0  0  0  0  0  0  0  0  0  0  0
   29.9710  -21.9751  -19.5722 O   0  0  0  0  0  0  0  0  0  0  0  0
   27.6606  -20.7982  -13.3878 N   0  0  0  0  0  0  0  0  0  0  0  0
   27.2694  -20.9008  -11.9546 C   0  0  1  0  0  0  0  0  0  0  0  0
   28.0970  -20.0092  -11.1336 C   0  0  0  0  0  0  0  0  0  0  0  0
   27.8056  -20.0348   -9.7096 C   0  0  0  0  0  0  0  0  0  0  0  0
   26.9037  -19.1855   -9.1291 C   0  0  0  0  0  0  0  0  0  0  0  0
   26.6339  -19.2989   -7.7887 C   0  0  0  0  0  0  0  0  0  0  0  0
   27.2432  -20.2498   -6.9835 C   0  0  0  0  0  0  0  0  0  0  0  0
   28.1490  -21.0925   -7.6008 C   0  0  0  0  0  0  0  0  0  0  0  0
   28.4203  -20.9852   -8.9276 C   0  0  0  0  0  0  0  0  0  0  0  0
   25.8073  -20.8656  -11.8506 C   0  0  0  0  0  0  0  0  0  0  0  0
   25.2630  -20.9151  -10.6795 O   0  0  0  0  0  0  0  0  0  0  0  0
   22.8510  -18.4858  -15.9514 C   0  0  0  0  0  0  0  0  0  0  0  0
   23.4430  -18.7345  -14.5792 C   0  0  0  0  0  0  0  0  0  0  0  0
   22.7488  -19.8799  -13.8801 C   0  0  2  0  0  0  0  0  0  0  0  0
   21.3982  -19.3412  -13.3813 C   0  0  0  0  0  0  0  0  0  0  0  0
   23.4917  -20.3582  -12.7046 C   0  0  2  0  0  0  0  0  0  0  0  0
   24.8666  -20.7704  -12.9071 N   0  0  0  0  0  0  0  0  0  0  0  0
   22.7637  -21.4559  -11.9516 C   0  0  0  0  0  0  0  0  0  0  0  0
   21.9167  -21.1838  -11.0670 O   0  0  0  0  0  0  0  0  0  0  0  0
   22.9974  -22.7860  -12.2028 O   0  0  0  0  0  0  0  0  0  0  0  0
  2  3  1  0
  2  1  1  1
  4  5  1  0
  4  3  1  0
  5  6  2  0
  7  2  1  0
  8  7  2  0
  9  5  1  0
 10  7  1  0
 11 10  1  0
 11 12  1  1
 12 13  1  0
 13 14  2  0
 14 15  1  0
 16 15  2  0
 17 16  1  0
 18 13  1  0
 18 17  2  0
 19 20  2  0
 19 11  1  0
 21 22  1  0
 22 23  1  0
 23 25  1  0
 23 24  1  1
 25 26  1  6
 26 19  1  0
 27 29  1  0
 27 25  1  0
 28 27  2  0
M  END
$$$$
