EFI.pdb
     RDKit          3D

 29 29  0  0  1  0  0  0  0  0999 V2000
   28.9432  -22.0876  -14.3470 N   0  0  0  0  0  0  0  0  0  0  0  0
   29.1523  -20.9496  -13.4769 C   0  0  1  0  0  0  0  0  0  0  0  0
   28.6387  -19.6747  -14.0359 C   0  0  0  0  0  0  0  0  0  0  0  0
   27.3377  -19.7401  -14.7543 C   0  0  0  0  0  0  0  0  0  0  0  0
   27.4291  -19.2801  -16.1526 C   0  0  0  0  0  0  0  0  0  0  0  0
   28.4569  -18.8329  -16.6891 O   0  0  0  0  0  0  0  0  0  0  0  0
   28.5032  -21.1702  -12.1431 C   0  0  0  0  0  0  0  0  0  0  0  0
   27.4420  -21.8434  -12.0340 O   0  0  0  0  0  0  0  0  0  0  0  0
   26.2491  -19.3638  -16.9185 O   0  0  0  0  0  0  0  0  0  0  0  0
   29.0823  -20.6171  -10.9764 N   0  0  0  0  0  0  0  0  0  0  0  0
   28.4389  -20.7695   -9.6420 C   0  0  1  0  0  0  0  0  0  0  0  0
   29.3071  -20.2264   -8.5907 C   0  0  0  0  0  0  0  0  0  0  0  0
   28.7128  -20.1761   -7.2649 C   0  0  0  0  0  0  0  0  0  0  0  0
   27.7969  -19.2251   -6.9063 C   0  0  0  0  0  0  0  0  0  0  0  0
   27.2329  -19.2670   -5.6563 C   0  0  0  0  0  0  0  0  0  0  0  0
   27.5539  -20.2444   -4.7259 C   0  0  0  0  0  0  0  0  0  0  0  0
   28.4822  -21.1903   -5.1197 C   0  0  0  0  0  0  0  0  0  0  0  0
   29.0442  -21.1542   -6.3560 C   0  0  0  0  0  0  0  0  0  0  0  0
   27.0345  -20.3585   -9.7345 C   0  0  0  0  0  0  0  0  0  0  0  0
   26.7542  -19.2013  -10.2371 O   0  0  0  0  0  0  0  0  0  0  0  0
   23.8958  -21.0188  -13.2855 C   0  0  0  0  0  0  0  0  0  0  0  0
   24.5404  -20.4852  -12.0226 C   0  0  0  0  0  0  0  0  0  0  0  0
   23.8591  -21.0251  -10.7869 C   0  0  2  0  0  0  0  0  0  0  0  0
   22.4469  -20.4183  -10.7589 C   0  0  0  0  0  0  0  0  0  0  0  0
   24.5356  -20.6199   -9.5457 C   0  0  2  0  0  0  0  0  0  0  0  0
   25.8894  -21.0948   -9.3387 N   0  0  0  0  0  0  0  0  0  0  0  0
   23.7211  -20.9236   -8.3023 C   0  0  0  0  0  0  0  0  0  0  0  0
   24.1189  -21.7583   -7.4543 O   0  0  0  0  0  0  0  0  0  0  0  0
   22.5215  -20.3033   -8.0513 O   0  0  0  0  0  0  0  0  0  0  0  0
  2  3  1  0
  2  1  1  6
  4  5  1  0
  4  3  1  0
  5  6  2  0
  7  2  1  0
  8  7  2  0
  9  5  1  0
 10  7  1  0
 11 10  1  0
 11 12  1  1
 12 13  1  0
 13 14  2  0
 14 15  1  0
 16 15  2  0
 17 16  1  0
 18 13  1  0
 18 17  2  0
 19 20  2  0
 19 11  1  0
 21 22  1  0
 22 23  1  0
 23 25  1  0
 23 24  1  1
 25 26  1  1
 26 19  1  0
 27 29  1  0
 27 25  1  0
 28 27  2  0
M  END
$$$$
