EFI.pdb
     RDKit          3D

 29 29  0  0  1  0  0  0  0  0999 V2000
   25.7484  -22.1433  -12.8984 N   0  0  0  0  0  0  0  0  0  0  0  0
   25.5014  -20.9833  -12.0682 C   0  0  1  0  0  0  0  0  0  0  0  0
   24.0786  -20.5626  -12.0469 C   0  0  0  0  0  0  0  0  0  0  0  0
   23.4610  -20.2403  -13.3613 C   0  0  0  0  0  0  0  0  0  0  0  0
   23.9004  -18.9394  -13.8997 C   0  0  0  0  0  0  0  0  0  0  0  0
   25.0817  -18.5594  -13.9672 O   0  0  0  0  0  0  0  0  0  0  0  0
   25.9354  -21.2353  -10.6549 C   0  0  0  0  0  0  0  0  0  0  0  0
   25.5827  -22.2769  -10.0369 O   0  0  0  0  0  0  0  0  0  0  0  0
   22.8865  -18.0795  -14.3668 O   0  0  0  0  0  0  0  0  0  0  0  0
   26.7564  -20.2937   -9.9903 N   0  0  0  0  0  0  0  0  0  0  0  0
   27.1904  -20.4989   -8.5806 C   0  0  1  0  0  0  0  0  0  0  0  0
   28.4113  -19.7325   -8.3047 C   0  0  0  0  0  0  0  0  0  0  0  0
   28.8021  -19.6777   -6.9056 C   0  0  0  0  0  0  0  0  0  0  0  0
   29.4453  -20.7115   -6.2817 C   0  0  0  0  0  0  0  0  0  0  0  0
   29.8359  -20.5739   -4.9737 C   0  0  0  0  0  0  0  0  0  0  0  0
   29.6047  -19.4169   -4.2444 C   0  0  0  0  0  0  0  0  0  0  0  0
   28.9529  -18.3914   -4.9040 C   0  0  0  0  0  0  0  0  0  0  0  0
   28.5638  -18.5216   -6.1990 C   0  0  0  0  0  0  0  0  0  0  0  0
   26.0257  -20.3880   -7.6969 C   0  0  0  0  0  0  0  0  0  0  0  0
   25.1708  -19.4416   -7.9060 O   0  0  0  0  0  0  0  0  0  0  0  0
   21.6002  -22.8043   -7.0741 C   0  0  0  0  0  0  0  0  0  0  0  0
   22.6955  -21.7590   -7.0197 C   0  0  0  0  0  0  0  0  0  0  0  0
   23.4353  -21.8056   -5.7032 C   0  0  2  0  0  0  0  0  0  0  0  0
   22.4592  -21.3003   -4.6285 C   0  0  0  0  0  0  0  0  0  0  0  0
   24.6084  -20.9191   -5.6824 C   0  0  2  0  0  0  0  0  0  0  0  0
   25.6888  -21.2213   -6.6004 N   0  0  0  0  0  0  0  0  0  0  0  0
   25.1902  -20.7411   -4.2926 C   0  0  0  0  0  0  0  0  0  0  0  0
   26.1135  -21.4816   -3.8763 O   0  0  0  0  0  0  0  0  0  0  0  0
   24.7360  -19.7691   -3.4349 O   0  0  0  0  0  0  0  0  0  0  0  0
  2  3  1  0
  2  1  1  6
  4  5  1  0
  4  3  1  0
  5  6  2  0
  7  2  1  0
  8  7  2  0
  9  5  1  0
 10  7  1  0
 11 10  1  0
 11 12  1  1
 12 13  1  0
 13 14  2  0
 14 15  1  0
 16 15  2  0
 17 16  1  0
 18 13  1  0
 18 17  2  0
 19 20  2  0
 19 11  1  0
 21 22  1  0
 22 23  1  0
 23 25  1  0
 23 24  1  1
 25 26  1  6
 26 19  1  0
 27 29  1  0
 27 25  1  0
 28 27  2  0
M  END
$$$$
