EFI.pdb
     RDKit          3D

 29 29  0  0  1  0  0  0  0  0999 V2000
   15.5695  -21.4556    0.9664 N   0  0  0  0  0  0  0  0  0  0  0  0
   15.2213  -20.7817    2.1996 C   0  0  1  0  0  0  0  0  0  0  0  0
   14.9954  -21.7077    3.3368 C   0  0  0  0  0  0  0  0  0  0  0  0
   13.7106  -21.5574    4.0714 C   0  0  0  0  0  0  0  0  0  0  0  0
   12.5634  -22.1369    3.3480 C   0  0  0  0  0  0  0  0  0  0  0  0
   12.6043  -23.1711    2.6601 O   0  0  0  0  0  0  0  0  0  0  0  0
   16.2896  -19.8067    2.5959 C   0  0  0  0  0  0  0  0  0  0  0  0
   17.5090  -20.0472    2.3807 O   0  0  0  0  0  0  0  0  0  0  0  0
   11.3389  -21.4485    3.4601 O   0  0  0  0  0  0  0  0  0  0  0  0
   15.9358  -18.5894    3.2249 N   0  0  0  0  0  0  0  0  0  0  0  0
   16.9644  -17.5783    3.5954 C   0  0  1  0  0  0  0  0  0  0  0  0
   16.5420  -16.2391    3.1685 C   0  0  0  0  0  0  0  0  0  0  0  0
   17.4697  -15.1675    3.4918 C   0  0  0  0  0  0  0  0  0  0  0  0
   17.2186  -14.2506    4.4756 C   0  0  0  0  0  0  0  0  0  0  0  0
   18.1610  -13.2974    4.7680 C   0  0  0  0  0  0  0  0  0  0  0  0
   19.3749  -13.2200    4.1015 C   0  0  0  0  0  0  0  0  0  0  0  0
   19.5976  -14.1612    3.1134 C   0  0  0  0  0  0  0  0  0  0  0  0
   18.6684  -15.1076    2.8193 C   0  0  0  0  0  0  0  0  0  0  0  0
   17.4003  -17.8175    4.9747 C   0  0  0  0  0  0  0  0  0  0  0  0
   16.5455  -18.2746    5.8295 O   0  0  0  0  0  0  0  0  0  0  0  0
   21.6401  -20.6862    6.5955 C   0  0  0  0  0  0  0  0  0  0  0  0
   20.2822  -20.0246    6.4783 C   0  0  0  0  0  0  0  0  0  0  0  0
   20.2729  -18.6668    7.1409 C   0  0  2  0  0  0  0  0  0  0  0  0
   20.3724  -18.9124    8.6552 C   0  0  0  0  0  0  0  0  0  0  0  0
   19.0252  -17.9275    6.8973 C   0  0  2  0  0  0  0  0  0  0  0  0
   18.6929  -17.6157    5.5212 N   0  0  0  0  0  0  0  0  0  0  0  0
   18.9207  -16.6570    7.7198 C   0  0  0  0  0  0  0  0  0  0  0  0
   18.7387  -16.7006    8.9604 O   0  0  0  0  0  0  0  0  0  0  0  0
   19.0199  -15.4121    7.1477 O   0  0  0  0  0  0  0  0  0  0  0  0
  2  3  1  0
  2  1  1  6
  4  5  1  0
  4  3  1  0
  5  6  2  0
  7  2  1  0
  8  7  2  0
  9  5  1  0
 10  7  1  0
 11 10  1  0
 11 12  1  1
 12 13  1  0
 13 14  2  0
 14 15  1  0
 16 15  2  0
 17 16  1  0
 18 13  1  0
 18 17  2  0
 19 20  2  0
 19 11  1  0
 21 22  1  0
 22 23  1  0
 23 25  1  0
 23 24  1  1
 25 26  1  6
 26 19  1  0
 27 29  1  0
 27 25  1  0
 28 27  2  0
M  END
$$$$
