EFI.pdb
     RDKit          3D

 29 29  0  0  1  0  0  0  0  0999 V2000
   25.7859  -21.1191  -13.4612 N   0  0  0  0  0  0  0  0  0  0  0  0
   25.0483  -20.3638  -12.4706 C   0  0  1  0  0  0  0  0  0  0  0  0
   23.5761  -20.4977  -12.5995 C   0  0  0  0  0  0  0  0  0  0  0  0
   22.9233  -19.6734  -13.6518 C   0  0  0  0  0  0  0  0  0  0  0  0
   23.5754  -19.8003  -14.9686 C   0  0  0  0  0  0  0  0  0  0  0  0
   23.4126  -20.7484  -15.7552 O   0  0  0  0  0  0  0  0  0  0  0  0
   25.4358  -20.7807  -11.0831 C   0  0  0  0  0  0  0  0  0  0  0  0
   25.4773  -21.9972  -10.7518 O   0  0  0  0  0  0  0  0  0  0  0  0
   24.4443  -18.7553  -15.3411 O   0  0  0  0  0  0  0  0  0  0  0  0
   25.7631  -19.7999  -10.1170 N   0  0  0  0  0  0  0  0  0  0  0  0
   26.2791  -20.1758   -8.7715 C   0  0  1  0  0  0  0  0  0  0  0  0
   27.3719  -19.2802   -8.3745 C   0  0  0  0  0  0  0  0  0  0  0  0
   27.8634  -19.4700   -7.0196 C   0  0  0  0  0  0  0  0  0  0  0  0
   27.4792  -18.6679   -5.9799 C   0  0  0  0  0  0  0  0  0  0  0  0
   27.9372  -18.9353   -4.7146 C   0  0  0  0  0  0  0  0  0  0  0  0
   28.7849  -19.9977   -4.4376 C   0  0  0  0  0  0  0  0  0  0  0  0
   29.1538  -20.7887   -5.5098 C   0  0  0  0  0  0  0  0  0  0  0  0
   28.7035  -20.5292   -6.7650 C   0  0  0  0  0  0  0  0  0  0  0  0
   25.1470  -20.4145   -7.8708 C   0  0  0  0  0  0  0  0  0  0  0  0
   24.1782  -19.5596   -7.8452 O   0  0  0  0  0  0  0  0  0  0  0  0
   21.4227  -24.5958   -5.2909 C   0  0  0  0  0  0  0  0  0  0  0  0
   21.9246  -23.1686   -5.3715 C   0  0  0  0  0  0  0  0  0  0  0  0
   23.2532  -23.0924   -6.0867 C   0  0  2  0  0  0  0  0  0  0  0  0
   24.2703  -23.8446   -5.2132 C   0  0  0  0  0  0  0  0  0  0  0  0
   23.7375  -21.7117   -6.2340 C   0  0  2  0  0  0  0  0  0  0  0  0
   24.9570  -21.5101   -6.9913 N   0  0  0  0  0  0  0  0  0  0  0  0
   23.8660  -20.9857   -4.9081 C   0  0  0  0  0  0  0  0  0  0  0  0
   24.9845  -20.8226   -4.3637 O   0  0  0  0  0  0  0  0  0  0  0  0
   22.7724  -20.4785   -4.2496 O   0  0  0  0  0  0  0  0  0  0  0  0
  2  3  1  0
  2  1  1  6
  4  5  1  0
  4  3  1  0
  5  6  2  0
  7  2  1  0
  8  7  2  0
  9  5  1  0
 10  7  1  0
 11 10  1  0
 11 12  1  1
 12 13  1  0
 13 14  2  0
 14 15  1  0
 16 15  2  0
 17 16  1  0
 18 13  1  0
 18 17  2  0
 19 20  2  0
 19 11  1  0
 21 22  1  0
 22 23  1  0
 23 25  1  0
 23 24  1  1
 25 26  1  1
 26 19  1  0
 27 29  1  0
 27 25  1  0
 28 27  2  0
M  END
$$$$
