EFI.pdb
     RDKit          3D

 29 29  0  0  1  0  0  0  0  0999 V2000
   25.7119  -19.1373  -19.2170 N   0  0  0  0  0  0  0  0  0  0  0  0
   25.6707  -18.2755  -18.0544 C   0  0  1  0  0  0  0  0  0  0  0  0
   24.4088  -17.5042  -17.9336 C   0  0  0  0  0  0  0  0  0  0  0  0
   24.1453  -16.4910  -18.9905 C   0  0  0  0  0  0  0  0  0  0  0  0
   23.9611  -17.0881  -20.3264 C   0  0  0  0  0  0  0  0  0  0  0  0
   24.8053  -17.0672  -21.2380 O   0  0  0  0  0  0  0  0  0  0  0  0
   25.8564  -19.0680  -16.7948 C   0  0  0  0  0  0  0  0  0  0  0  0
   25.2625  -20.1668  -16.6183 O   0  0  0  0  0  0  0  0  0  0  0  0
   22.7265  -17.7248  -20.5637 O   0  0  0  0  0  0  0  0  0  0  0  0
   26.7117  -18.5844  -15.7765 N   0  0  0  0  0  0  0  0  0  0  0  0
   26.9734  -19.3740  -14.5412 C   0  0  1  0  0  0  0  0  0  0  0  0
   28.2465  -18.9672  -13.9346 C   0  0  0  0  0  0  0  0  0  0  0  0
   28.5512  -19.5966  -12.6600 C   0  0  0  0  0  0  0  0  0  0  0  0
   28.0629  -19.1244  -11.4725 C   0  0  0  0  0  0  0  0  0  0  0  0
   28.3435  -19.7977  -10.3105 C   0  0  0  0  0  0  0  0  0  0  0  0
   29.1114  -20.9525  -10.2848 C   0  0  0  0  0  0  0  0  0  0  0  0
   29.5892  -21.4032  -11.5014 C   0  0  0  0  0  0  0  0  0  0  0  0
   29.3147  -20.7410  -12.6554 C   0  0  0  0  0  0  0  0  0  0  0  0
   25.7490  -19.4298  -13.7365 C   0  0  0  0  0  0  0  0  0  0  0  0
   25.0489  -18.3536  -13.5892 O   0  0  0  0  0  0  0  0  0  0  0  0
   20.9930  -20.9331  -14.3597 C   0  0  0  0  0  0  0  0  0  0  0  0
   22.2375  -20.2615  -13.8163 C   0  0  0  0  0  0  0  0  0  0  0  0
   22.7863  -21.0050  -12.6210 C   0  0  2  0  0  0  0  0  0  0  0  0
   21.7768  -20.8123  -11.4778 C   0  0  0  0  0  0  0  0  0  0  0  0
   24.0757  -20.4660  -12.1633 C   0  0  2  0  0  0  0  0  0  0  0  0
   25.1982  -20.5569  -13.0761 N   0  0  0  0  0  0  0  0  0  0  0  0
   24.5023  -21.0176  -10.8159 C   0  0  0  0  0  0  0  0  0  0  0  0
   25.2688  -22.0075  -10.7335 O   0  0  0  0  0  0  0  0  0  0  0  0
   24.0719  -20.4625   -9.6355 O   0  0  0  0  0  0  0  0  0  0  0  0
  2  3  1  0
  2  1  1  6
  4  5  1  0
  4  3  1  0
  5  6  2  0
  7  2  1  0
  8  7  2  0
  9  5  1  0
 10  7  1  0
 11 10  1  0
 11 12  1  1
 12 13  1  0
 13 14  2  0
 14 15  1  0
 16 15  2  0
 17 16  1  0
 18 13  1  0
 18 17  2  0
 19 20  2  0
 19 11  1  0
 21 22  1  0
 22 23  1  0
 23 25  1  0
 23 24  1  1
 25 26  1  6
 26 19  1  0
 27 29  1  0
 27 25  1  0
 28 27  2  0
M  END
$$$$
