TSD.pdb
     RDKit          3D

 22 21  0  0  1  0  0  0  0  0999 V2000
    7.1584  -18.6244   18.0869 C   0  0  0  0  0  0  0  0  0  0  0  0
    7.8239  -17.9737   19.2642 C   0  0  1  0  0  0  0  0  0  0  0  0
    9.0993  -18.5504   19.4456 O   0  0  0  0  0  0  0  0  0  0  0  0
    8.0826  -16.4948   19.0782 C   0  0  2  0  0  0  0  0  0  0  0  0
    9.0064  -16.4248   17.9253 N   0  0  0  0  0  0  0  0  0  0  0  0
    8.8101  -15.8889   20.2154 C   0  0  0  0  0  0  0  0  0  0  0  0
   10.0917  -15.7690   20.2063 O   0  0  0  0  0  0  0  0  0  0  0  0
    7.0480  -15.1020   23.8991 O   0  0  0  0  0  0  0  0  0  0  0  0
    7.9846  -14.1994   23.4522 C   0  0  0  0  0  0  0  0  0  0  0  0
    8.9773  -14.8339   22.5012 C   0  0  2  0  0  0  0  0  0  0  0  0
    8.2117  -15.3864   21.3999 N   0  0  0  0  0  0  0  0  0  0  0  0
    9.7964  -15.8752   23.1798 C   0  0  0  0  0  0  0  0  0  0  0  0
    9.4885  -17.0981   23.1127 O   0  0  0  0  0  0  0  0  0  0  0  0
   10.9469  -15.5144   23.9192 N   0  0  0  0  0  0  0  0  0  0  0  0
   11.8083  -16.4286   24.6352 C   0  0  1  0  0  0  0  0  0  0  0  0
   13.1872  -15.8798   24.8244 C   0  0  0  0  0  0  0  0  0  0  0  0
   14.1355  -16.4607   23.8612 C   0  0  0  0  0  0  0  0  0  0  0  0
   13.7293  -17.3118   23.0251 O   0  0  0  0  0  0  0  0  0  0  0  0
   11.1910  -16.8378   25.9415 C   0  0  0  0  0  0  0  0  0  0  0  0
   10.1946  -16.1938   26.3545 O   0  0  0  0  0  0  0  0  0  0  0  0
   15.4840  -16.1155   23.8177 O   0  0  0  0  0  0  0  0  0  0  0  0
   11.6749  -17.8890   26.7033 O   0  0  0  0  0  0  0  0  0  0  0  0
  2  1  1  6
  2  4  1  0
  3  2  1  0
  4  5  1  6
  6 11  1  0
  6  4  1  0
  7  6  2  0
  9  8  1  0
 10  9  1  1
 10 11  1  0
 10 12  1  0
 12 13  2  0
 14 12  1  0
 14 15  1  0
 15 16  1  1
 17 16  1  0
 18 17  2  0
 19 15  1  0
 19 22  1  0
 20 19  2  0
 21 17  1  0
M  END
$$$$
