TSD.pdb
     RDKit          3D

 22 21  0  0  1  0  0  0  0  0999 V2000
    8.1760  -24.5916   28.2553 C   0  0  0  0  0  0  0  0  0  0  0  0
    7.2833  -23.4185   27.9736 C   0  0  1  0  0  0  0  0  0  0  0  0
    7.6297  -22.8702   26.7200 O   0  0  0  0  0  0  0  0  0  0  0  0
    5.8193  -23.7806   27.8546 C   0  0  2  0  0  0  0  0  0  0  0  0
    5.1486  -22.5019   27.5346 N   0  0  0  0  0  0  0  0  0  0  0  0
    5.2315  -24.2354   29.1341 C   0  0  0  0  0  0  0  0  0  0  0  0
    5.1280  -23.4449   30.1448 O   0  0  0  0  0  0  0  0  0  0  0  0
    4.0255  -28.2158   29.9152 O   0  0  0  0  0  0  0  0  0  0  0  0
    3.3513  -27.1528   30.4694 C   0  0  0  0  0  0  0  0  0  0  0  0
    4.2569  -25.9608   30.6958 C   0  0  2  0  0  0  0  0  0  0  0  0
    4.7305  -25.5378   29.3916 N   0  0  0  0  0  0  0  0  0  0  0  0
    5.3838  -26.2952   31.6092 C   0  0  0  0  0  0  0  0  0  0  0  0
    6.5625  -26.4257   31.1753 O   0  0  0  0  0  0  0  0  0  0  0  0
    5.1566  -26.4744   32.9937 N   0  0  0  0  0  0  0  0  0  0  0  0
    6.1362  -26.9268   33.9558 C   0  0  1  0  0  0  0  0  0  0  0  0
    6.9597  -25.8025   34.4999 C   0  0  0  0  0  0  0  0  0  0  0  0
    7.9877  -26.2894   35.4330 C   0  0  0  0  0  0  0  0  0  0  0  0
    8.1410  -27.5296   35.5969 O   0  0  0  0  0  0  0  0  0  0  0  0
    5.4862  -27.7189   35.0535 C   0  0  0  0  0  0  0  0  0  0  0  0
    4.2983  -27.4467   35.3581 O   0  0  0  0  0  0  0  0  0  0  0  0
    8.8201  -25.4413   36.1591 O   0  0  0  0  0  0  0  0  0  0  0  0
    6.1413  -28.7293   35.7387 O   0  0  0  0  0  0  0  0  0  0  0  0
  2  1  1  6
  2  4  1  0
  3  2  1  0
  4  5  1  1
  6 11  1  0
  6  4  1  0
  7  6  2  0
  9  8  1  0
 10  9  1  6
 10 11  1  0
 10 12  1  0
 12 13  2  0
 14 12  1  0
 14 15  1  0
 15 16  1  1
 17 16  1  0
 18 17  2  0
 19 15  1  0
 19 22  1  0
 20 19  2  0
 21 17  1  0
M  END
$$$$
