TSD.pdb
     RDKit          3D

 22 21  0  0  1  0  0  0  0  0999 V2000
    8.2409  -15.8790   16.3072 C   0  0  0  0  0  0  0  0  0  0  0  0
    8.5200  -15.6232   17.7595 C   0  0  1  0  0  0  0  0  0  0  0  0
    9.9139  -15.6777   17.9743 O   0  0  0  0  0  0  0  0  0  0  0  0
    8.1023  -14.2468   18.2279 C   0  0  2  0  0  0  0  0  0  0  0  0
    8.8612  -13.3175   17.3630 N   0  0  0  0  0  0  0  0  0  0  0  0
    8.5338  -13.9527   19.6124 C   0  0  0  0  0  0  0  0  0  0  0  0
    9.6816  -13.4258   19.8611 O   0  0  0  0  0  0  0  0  0  0  0  0
    6.3332  -14.9679   23.0669 O   0  0  0  0  0  0  0  0  0  0  0  0
    6.9699  -13.7520   22.9797 C   0  0  0  0  0  0  0  0  0  0  0  0
    8.2080  -13.8195   22.1107 C   0  0  2  0  0  0  0  0  0  0  0  0
    7.7696  -14.2018   20.7819 N   0  0  0  0  0  0  0  0  0  0  0  0
    9.2086  -14.7766   22.6572 C   0  0  0  0  0  0  0  0  0  0  0  0
    9.7246  -14.6057   23.7971 O   0  0  0  0  0  0  0  0  0  0  0  0
    9.6052  -15.9074   21.9058 N   0  0  0  0  0  0  0  0  0  0  0  0
   10.5556  -16.9102   22.3319 C   0  0  1  0  0  0  0  0  0  0  0  0
   10.2202  -18.2704   21.8069 C   0  0  0  0  0  0  0  0  0  0  0  0
   10.4943  -19.3162   22.8048 C   0  0  0  0  0  0  0  0  0  0  0  0
   10.9383  -18.9920   23.9389 O   0  0  0  0  0  0  0  0  0  0  0  0
   11.9577  -16.5088   21.9745 C   0  0  0  0  0  0  0  0  0  0  0  0
   12.9077  -17.0933   22.5523 O   0  0  0  0  0  0  0  0  0  0  0  0
   10.2851  -20.6718   22.5642 O   0  0  0  0  0  0  0  0  0  0  0  0
   12.2416  -15.5256   21.0405 O   0  0  0  0  0  0  0  0  0  0  0  0
  2  1  1  6
  2  4  1  0
  3  2  1  0
  4  5  1  6
  6 11  1  0
  6  4  1  0
  7  6  2  0
  9  8  1  0
 10  9  1  1
 10 11  1  0
 10 12  1  0
 12 13  2  0
 14 12  1  0
 14 15  1  0
 15 16  1  6
 17 16  1  0
 18 17  2  0
 19 15  1  0
 19 22  1  0
 20 19  2  0
 21 17  1  0
M  END
$$$$
