TSD.pdb
     RDKit          3D

 22 21  0  0  1  0  0  0  0  0999 V2000
    8.4815  -16.2857   18.0190 C   0  0  0  0  0  0  0  0  0  0  0  0
    8.6520  -14.8250   17.7191 C   0  0  1  0  0  0  0  0  0  0  0  0
    8.1148  -14.5540   16.4424 O   0  0  0  0  0  0  0  0  0  0  0  0
    7.8986  -13.9160   18.6650 C   0  0  2  0  0  0  0  0  0  0  0  0
    8.1411  -12.5551   18.1390 N   0  0  0  0  0  0  0  0  0  0  0  0
    8.4535  -13.9232   20.0367 C   0  0  0  0  0  0  0  0  0  0  0  0
    9.6739  -13.5868   20.2699 O   0  0  0  0  0  0  0  0  0  0  0  0
    6.6072  -15.9292   23.2805 O   0  0  0  0  0  0  0  0  0  0  0  0
    7.2865  -14.7536   23.4999 C   0  0  0  0  0  0  0  0  0  0  0  0
    8.3872  -14.5349   22.4835 C   0  0  2  0  0  0  0  0  0  0  0  0
    7.7406  -14.2828   21.2098 N   0  0  0  0  0  0  0  0  0  0  0  0
    9.3067  -15.7034   22.4127 C   0  0  0  0  0  0  0  0  0  0  0  0
    9.5118  -16.3111   21.3249 O   0  0  0  0  0  0  0  0  0  0  0  0
    9.9765  -16.1610   23.5715 N   0  0  0  0  0  0  0  0  0  0  0  0
   11.2410  -16.8615   23.5915 C   0  0  1  0  0  0  0  0  0  0  0  0
   12.3056  -16.1343   22.8324 C   0  0  0  0  0  0  0  0  0  0  0  0
   13.5903  -16.8491   22.8865 C   0  0  0  0  0  0  0  0  0  0  0  0
   13.6042  -18.1080   22.8259 O   0  0  0  0  0  0  0  0  0  0  0  0
   11.6694  -17.1581   24.9998 C   0  0  0  0  0  0  0  0  0  0  0  0
   12.2607  -18.2437   25.2239 O   0  0  0  0  0  0  0  0  0  0  0  0
   14.8178  -16.2015   23.0011 O   0  0  0  0  0  0  0  0  0  0  0  0
   11.4385  -16.2884   26.0532 O   0  0  0  0  0  0  0  0  0  0  0  0
  2  1  1  1
  2  4  1  0
  3  2  1  0
  4  5  1  6
  6 11  1  0
  6  4  1  0
  7  6  2  0
  9  8  1  0
 10  9  1  1
 10 11  1  0
 10 12  1  0
 12 13  2  0
 14 12  1  0
 14 15  1  0
 15 16  1  1
 17 16  1  0
 18 17  2  0
 19 15  1  0
 19 22  1  0
 20 19  2  0
 21 17  1  0
M  END
$$$$
