TSD.pdb
     RDKit          3D

 22 21  0  0  1  0  0  0  0  0999 V2000
    7.4082  -14.9377   16.8392 C   0  0  0  0  0  0  0  0  0  0  0  0
    8.0474  -15.0361   18.1935 C   0  0  1  0  0  0  0  0  0  0  0  0
    9.4499  -14.9878   18.0424 O   0  0  0  0  0  0  0  0  0  0  0  0
    7.7098  -13.8831   19.1128 C   0  0  2  0  0  0  0  0  0  0  0  0
    8.2247  -12.6884   18.4093 N   0  0  0  0  0  0  0  0  0  0  0  0
    8.4382  -13.9387   20.3996 C   0  0  0  0  0  0  0  0  0  0  0  0
    9.6697  -13.5753   20.4911 O   0  0  0  0  0  0  0  0  0  0  0  0
    6.7413  -15.4705   23.8762 O   0  0  0  0  0  0  0  0  0  0  0  0
    7.7081  -14.5007   24.0055 C   0  0  0  0  0  0  0  0  0  0  0  0
    8.6807  -14.5094   22.8452 C   0  0  2  0  0  0  0  0  0  0  0  0
    7.8931  -14.3769   21.6343 N   0  0  0  0  0  0  0  0  0  0  0  0
    9.5065  -15.7478   22.8325 C   0  0  0  0  0  0  0  0  0  0  0  0
    9.2117  -16.7245   22.0884 O   0  0  0  0  0  0  0  0  0  0  0  0
   10.6487  -15.8575   23.6596 N   0  0  0  0  0  0  0  0  0  0  0  0
   11.4002  -17.0688   23.9007 C   0  0  1  0  0  0  0  0  0  0  0  0
   12.8736  -16.8650   23.7399 C   0  0  0  0  0  0  0  0  0  0  0  0
   13.2083  -16.3948   22.3866 C   0  0  0  0  0  0  0  0  0  0  0  0
   12.9270  -17.1148   21.3912 O   0  0  0  0  0  0  0  0  0  0  0  0
   11.0650  -17.6515   25.2435 C   0  0  0  0  0  0  0  0  0  0  0  0
   10.2744  -17.0166   25.9851 O   0  0  0  0  0  0  0  0  0  0  0  0
   13.8292  -15.1736   22.1367 O   0  0  0  0  0  0  0  0  0  0  0  0
   11.5908  -18.8520   25.6928 O   0  0  0  0  0  0  0  0  0  0  0  0
  2  1  1  6
  2  4  1  0
  3  2  1  0
  4  5  1  6
  6 11  1  0
  6  4  1  0
  7  6  2  0
  9  8  1  0
 10  9  1  1
 10 11  1  0
 10 12  1  0
 12 13  2  0
 14 12  1  0
 14 15  1  0
 15 16  1  1
 17 16  1  0
 18 17  2  0
 19 15  1  0
 19 22  1  0
 20 19  2  0
 21 17  1  0
M  END
$$$$
