TSD.pdb
     RDKit          3D

 22 21  0  0  1  0  0  0  0  0999 V2000
    7.2198  -15.6070   15.8108 C   0  0  0  0  0  0  0  0  0  0  0  0
    7.9607  -15.4486   17.1063 C   0  0  1  0  0  0  0  0  0  0  0  0
    9.3460  -15.4068   16.8393 O   0  0  0  0  0  0  0  0  0  0  0  0
    7.6589  -14.1533   17.8273 C   0  0  2  0  0  0  0  0  0  0  0  0
    8.1806  -13.1013   16.9281 N   0  0  0  0  0  0  0  0  0  0  0  0
    8.4095  -14.0098   19.0944 C   0  0  0  0  0  0  0  0  0  0  0  0
    9.6298  -13.6003   19.1100 O   0  0  0  0  0  0  0  0  0  0  0  0
    6.9520  -15.3462   22.7717 O   0  0  0  0  0  0  0  0  0  0  0  0
    7.7487  -14.2250   22.7643 C   0  0  0  0  0  0  0  0  0  0  0  0
    8.7061  -14.2156   21.5914 C   0  0  2  0  0  0  0  0  0  0  0  0
    7.8992  -14.2906   20.3883 N   0  0  0  0  0  0  0  0  0  0  0  0
    9.6809  -15.3377   21.6716 C   0  0  0  0  0  0  0  0  0  0  0  0
    9.5018  -16.4088   21.0272 O   0  0  0  0  0  0  0  0  0  0  0  0
   10.8383  -15.2269   22.4771 N   0  0  0  0  0  0  0  0  0  0  0  0
   11.8098  -16.2734   22.7033 C   0  0  1  0  0  0  0  0  0  0  0  0
   13.2160  -15.7660   22.6432 C   0  0  0  0  0  0  0  0  0  0  0  0
   13.5999  -15.4029   21.2702 C   0  0  0  0  0  0  0  0  0  0  0  0
   13.1536  -16.0747   20.3017 O   0  0  0  0  0  0  0  0  0  0  0  0
   11.5353  -16.9928   23.9925 C   0  0  0  0  0  0  0  0  0  0  0  0
   10.6352  -16.5415   24.7437 O   0  0  0  0  0  0  0  0  0  0  0  0
   14.4440  -14.3360   20.9725 O   0  0  0  0  0  0  0  0  0  0  0  0
   12.2315  -18.1252   24.3828 O   0  0  0  0  0  0  0  0  0  0  0  0
  2  1  1  6
  2  4  1  0
  3  2  1  0
  4  5  1  6
  6 11  1  0
  6  4  1  0
  7  6  2  0
  9  8  1  0
 10  9  1  1
 10 11  1  0
 10 12  1  0
 12 13  2  0
 14 12  1  0
 14 15  1  0
 15 16  1  1
 17 16  1  0
 18 17  2  0
 19 15  1  0
 19 22  1  0
 20 19  2  0
 21 17  1  0
M  END
$$$$
