TSD.pdb
     RDKit          3D

 22 21  0  0  1  0  0  0  0  0999 V2000
    7.4969  -11.9985   19.4839 C   0  0  0  0  0  0  0  0  0  0  0  0
    8.3898  -13.1437   19.8627 C   0  0  1  0  0  0  0  0  0  0  0  0
    8.2569  -13.3897   21.2462 O   0  0  0  0  0  0  0  0  0  0  0  0
    8.0241  -14.4500   19.1930 C   0  0  2  0  0  0  0  0  0  0  0  0
    6.6264  -14.6978   19.6080 N   0  0  0  0  0  0  0  0  0  0  0  0
    8.8059  -15.5984   19.7026 C   0  0  0  0  0  0  0  0  0  0  0  0
    8.3688  -16.3358   20.6629 O   0  0  0  0  0  0  0  0  0  0  0  0
   11.8151  -19.1811   19.0987 O   0  0  0  0  0  0  0  0  0  0  0  0
   11.1272  -18.0731   18.6620 C   0  0  0  0  0  0  0  0  0  0  0  0
   10.8231  -17.1112   19.7910 C   0  0  2  0  0  0  0  0  0  0  0  0
   10.0737  -16.0103   19.2161 N   0  0  0  0  0  0  0  0  0  0  0  0
   12.0673  -16.6410   20.4594 C   0  0  0  0  0  0  0  0  0  0  0  0
   12.7501  -15.6928   19.9808 O   0  0  0  0  0  0  0  0  0  0  0  0
   12.5141  -17.2506   21.6550 N   0  0  0  0  0  0  0  0  0  0  0  0
   13.6963  -16.8778   22.3991 C   0  0  1  0  0  0  0  0  0  0  0  0
   13.5827  -17.2149   23.8524 C   0  0  0  0  0  0  0  0  0  0  0  0
   14.7543  -16.7450   24.6079 C   0  0  0  0  0  0  0  0  0  0  0  0
   15.6642  -16.1085   24.0116 O   0  0  0  0  0  0  0  0  0  0  0  0
   14.9290  -17.4774   21.7862 C   0  0  0  0  0  0  0  0  0  0  0  0
   15.8823  -16.7109   21.5002 O   0  0  0  0  0  0  0  0  0  0  0  0
   14.9185  -16.9656   25.9731 O   0  0  0  0  0  0  0  0  0  0  0  0
   15.0540  -18.8322   21.5248 O   0  0  0  0  0  0  0  0  0  0  0  0
  2  1  1  6
  2  4  1  0
  3  2  1  0
  4  5  1  1
  6 11  1  0
  6  4  1  0
  7  6  2  0
  9  8  1  0
 10  9  1  6
 10 11  1  0
 10 12  1  0
 12 13  2  0
 14 12  1  0
 14 15  1  0
 15 16  1  1
 17 16  1  0
 18 17  2  0
 19 15  1  0
 19 22  1  0
 20 19  2  0
 21 17  1  0
M  END
$$$$
