DWF.pdb
     RDKit          3D

 34 36  0  0  1  0  0  0  0  0999 V2000
   22.3641  -10.6496  -20.8485 N   0  0  0  0  0  0  0  0  0  0  0  0
   23.1584   -9.7793  -19.9756 C   0  0  1  0  0  0  0  0  0  0  0  0
   23.8867   -8.8044  -20.8113 C   0  0  0  0  0  0  0  0  0  0  0  0
   24.9763   -9.3791  -21.6168 C   0  0  0  0  0  0  0  0  0  0  0  0
   25.3018  -10.5714  -21.5897 O   0  0  0  0  0  0  0  0  0  0  0  0
   22.3774   -9.3032  -18.8495 C   0  0  0  0  0  0  0  0  0  0  0  0
   21.3012   -8.6544  -19.1469 O   0  0  0  0  0  0  0  0  0  0  0  0
   25.6749   -8.5301  -22.4532 O   0  0  0  0  0  0  0  0  0  0  0  0
   22.6180   -9.4370  -17.4791 N   0  0  0  0  0  0  0  0  0  0  0  0
   21.6764   -9.0223  -16.4280 C   0  0  1  0  0  0  0  0  0  0  0  0
   21.3350  -10.1531  -15.5281 C   0  0  0  0  0  0  0  0  0  0  0  0
   20.5102  -11.2043  -16.1391 C   0  0  0  0  0  0  0  0  0  0  0  0
   20.8449  -12.3665  -16.7841 C   0  0  0  0  0  0  0  0  0  0  0  0
   19.6984  -12.9992  -17.1731 N   0  0  0  0  0  0  0  0  0  0  0  0
   18.6312  -12.2832  -16.8008 C   0  0  0  0  0  0  0  0  0  0  0  0
   17.2770  -12.4792  -16.9508 C   0  0  0  0  0  0  0  0  0  0  0  0
   16.3946  -11.5501  -16.4523 C   0  0  0  0  0  0  0  0  0  0  0  0
   16.8337  -10.4030  -15.7931 C   0  0  0  0  0  0  0  0  0  0  0  0
   18.1986  -10.2404  -15.6622 C   0  0  0  0  0  0  0  0  0  0  0  0
   19.1273  -11.1544  -16.1504 C   0  0  0  0  0  0  0  0  0  0  0  0
   22.3927   -8.0013  -15.6218 C   0  0  0  0  0  0  0  0  0  0  0  0
   23.6370   -8.1173  -15.4172 O   0  0  0  0  0  0  0  0  0  0  0  0
   21.7523   -6.8785  -15.0562 N   0  0  0  0  0  0  0  0  0  0  0  0
   22.5286   -5.8764  -14.3016 C   0  0  1  0  0  0  0  0  0  0  0  0
   23.4974   -5.2623  -15.2792 C   0  0  0  0  0  0  0  0  0  0  0  0
   22.8399   -4.4336  -16.2956 C   0  0  0  0  0  0  0  0  0  0  0  0
   22.8365   -4.9418  -17.5981 C   0  0  0  0  0  0  0  0  0  0  0  0
   22.2649   -4.2808  -18.6569 C   0  0  0  0  0  0  0  0  0  0  0  0
   21.6624   -3.0640  -18.4559 C   0  0  0  0  0  0  0  0  0  0  0  0
   21.6554   -2.5473  -17.1791 C   0  0  0  0  0  0  0  0  0  0  0  0
   22.2381   -3.2247  -16.1085 C   0  0  0  0  0  0  0  0  0  0  0  0
   21.5669   -4.9003  -13.7568 C   0  0  0  0  0  0  0  0  0  0  0  0
   20.2224   -5.0069  -14.0191 O   0  0  0  0  0  0  0  0  0  0  0  0
   21.9731   -3.9575  -13.0444 O   0  0  0  0  0  0  0  0  0  0  0  0
  2  1  1  6
  2  3  1  0
  3  4  1  0
  4  8  1  0
  5  4  2  0
  6  2  1  0
  6  7  2  0
  9  6  1  0
 10  9  1  0
 10 11  1  1
 11 12  1  0
 12 13  2  0
 12 20  1  0
 13 14  1  0
 14 15  1  0
 15 16  2  0
 16 17  1  0
 18 17  2  0
 19 18  1  0
 20 19  2  0
 20 15  1  0
 21 10  1  0
 22 21  2  0
 23 21  1  0
 24 25  1  6
 24 23  1  0
 25 26  1  0
 26 31  1  0
 27 26  2  0
 27 28  1  0
 28 29  2  0
 29 30  1  0
 31 30  2  0
 32 24  1  0
 33 32  1  0
 34 32  2  0
M  END
$$$$
