DWF.pdb
     RDKit          3D

 34 36  0  0  1  0  0  0  0  0999 V2000
   27.8489  -19.5102  -18.6216 N   0  0  0  0  0  0  0  0  0  0  0  0
   27.0886  -18.7038  -17.6613 C   0  0  1  0  0  0  0  0  0  0  0  0
   26.0764  -17.9192  -18.3955 C   0  0  0  0  0  0  0  0  0  0  0  0
   26.5840  -16.6792  -19.0047 C   0  0  0  0  0  0  0  0  0  0  0  0
   27.4592  -16.6450  -19.8771 O   0  0  0  0  0  0  0  0  0  0  0  0
   26.6788  -19.4923  -16.5146 C   0  0  0  0  0  0  0  0  0  0  0  0
   26.1089  -20.6196  -16.7830 O   0  0  0  0  0  0  0  0  0  0  0  0
   26.0459  -15.4826  -18.5720 O   0  0  0  0  0  0  0  0  0  0  0  0
   26.8037  -19.2119  -15.1509 N   0  0  0  0  0  0  0  0  0  0  0  0
   26.3554  -20.1099  -14.0758 C   0  0  1  0  0  0  0  0  0  0  0  0
   26.8987  -19.6929  -12.7582 C   0  0  0  0  0  0  0  0  0  0  0  0
   26.6053  -20.6098  -11.6485 C   0  0  0  0  0  0  0  0  0  0  0  0
   26.4331  -21.9691  -11.6099 C   0  0  0  0  0  0  0  0  0  0  0  0
   26.1723  -22.3428  -10.3221 N   0  0  0  0  0  0  0  0  0  0  0  0
   26.1697  -21.2682   -9.5249 C   0  0  0  0  0  0  0  0  0  0  0  0
   25.9625  -21.1090   -8.1735 C   0  0  0  0  0  0  0  0  0  0  0  0
   26.0234  -19.8528   -7.6180 C   0  0  0  0  0  0  0  0  0  0  0  0
   26.2907  -18.7230   -8.3897 C   0  0  0  0  0  0  0  0  0  0  0  0
   26.4927  -18.9219   -9.7411 C   0  0  0  0  0  0  0  0  0  0  0  0
   26.4408  -20.1742  -10.3453 C   0  0  0  0  0  0  0  0  0  0  0  0
   24.8777  -19.9713  -14.0216 C   0  0  0  0  0  0  0  0  0  0  0  0
   24.3502  -18.8204  -14.0438 O   0  0  0  0  0  0  0  0  0  0  0  0
   24.0029  -21.0758  -13.9463 N   0  0  0  0  0  0  0  0  0  0  0  0
   22.5552  -20.8708  -13.7502 C   0  0  1  0  0  0  0  0  0  0  0  0
   21.8890  -22.1796  -14.0882 C   0  0  0  0  0  0  0  0  0  0  0  0
   20.4418  -22.1661  -13.8485 C   0  0  0  0  0  0  0  0  0  0  0  0
   20.0056  -22.7825  -12.6718 C   0  0  0  0  0  0  0  0  0  0  0  0
   18.6828  -22.8545  -12.3117 C   0  0  0  0  0  0  0  0  0  0  0  0
   17.7239  -22.3047  -13.1254 C   0  0  0  0  0  0  0  0  0  0  0  0
   18.1345  -21.6928  -14.2891 C   0  0  0  0  0  0  0  0  0  0  0  0
   19.4802  -21.6234  -14.6481 C   0  0  0  0  0  0  0  0  0  0  0  0
   22.3582  -20.4728  -12.3440 C   0  0  0  0  0  0  0  0  0  0  0  0
   21.3775  -19.5777  -11.9908 O   0  0  0  0  0  0  0  0  0  0  0  0
   23.0912  -20.9526  -11.4530 O   0  0  0  0  0  0  0  0  0  0  0  0
  2  1  1  6
  2  3  1  0
  3  4  1  0
  4  8  1  0
  5  4  2  0
  6  2  1  0
  6  7  2  0
  9  6  1  0
 10  9  1  0
 10 11  1  1
 11 12  1  0
 12 13  2  0
 12 20  1  0
 13 14  1  0
 14 15  1  0
 15 16  2  0
 16 17  1  0
 18 17  2  0
 19 18  1  0
 20 19  2  0
 20 15  1  0
 21 10  1  0
 22 21  2  0
 23 21  1  0
 24 25  1  1
 24 23  1  0
 25 26  1  0
 26 31  1  0
 27 26  2  0
 27 28  1  0
 28 29  2  0
 29 30  1  0
 31 30  2  0
 32 24  1  0
 33 32  1  0
 34 32  2  0
M  END
$$$$
