DWF.pdb
     RDKit          3D

 34 36  0  0  1  0  0  0  0  0999 V2000
   28.4013  -21.7280  -14.9732 N   0  0  0  0  0  0  0  0  0  0  0  0
   27.6795  -20.6059  -14.3647 C   0  0  1  0  0  0  0  0  0  0  0  0
   27.0576  -19.8033  -15.4364 C   0  0  0  0  0  0  0  0  0  0  0  0
   28.0084  -19.2181  -16.3955 C   0  0  0  0  0  0  0  0  0  0  0  0
   28.9133  -18.4361  -16.0829 O   0  0  0  0  0  0  0  0  0  0  0  0
   26.8672  -21.0433  -13.2451 C   0  0  0  0  0  0  0  0  0  0  0  0
   26.3148  -22.2036  -13.3716 O   0  0  0  0  0  0  0  0  0  0  0  0
   27.8776  -19.5676  -17.7257 O   0  0  0  0  0  0  0  0  0  0  0  0
   26.5850  -20.3909  -12.0415 N   0  0  0  0  0  0  0  0  0  0  0  0
   25.6275  -20.8807  -11.0381 C   0  0  1  0  0  0  0  0  0  0  0  0
   25.9560  -20.3738   -9.6816 C   0  0  0  0  0  0  0  0  0  0  0  0
   27.2501  -20.8214   -9.1492 C   0  0  0  0  0  0  0  0  0  0  0  0
   28.1888  -21.6891   -9.6439 C   0  0  0  0  0  0  0  0  0  0  0  0
   29.2244  -21.7690   -8.7566 N   0  0  0  0  0  0  0  0  0  0  0  0
   28.9860  -20.9806   -7.7021 C   0  0  0  0  0  0  0  0  0  0  0  0
   29.7013  -20.7112   -6.5574 C   0  0  0  0  0  0  0  0  0  0  0  0
   29.1937  -19.8355   -5.6268 C   0  0  0  0  0  0  0  0  0  0  0  0
   27.9634  -19.2058   -5.8086 C   0  0  0  0  0  0  0  0  0  0  0  0
   27.2747  -19.5009   -6.9684 C   0  0  0  0  0  0  0  0  0  0  0  0
   27.7501  -20.3799   -7.9367 C   0  0  0  0  0  0  0  0  0  0  0  0
   24.3095  -20.3168  -11.4263 C   0  0  0  0  0  0  0  0  0  0  0  0
   24.2531  -19.2235  -12.0626 O   0  0  0  0  0  0  0  0  0  0  0  0
   23.0834  -20.9447  -11.1213 N   0  0  0  0  0  0  0  0  0  0  0  0
   21.8197  -20.4284  -11.6807 C   0  0  1  0  0  0  0  0  0  0  0  0
   21.9245  -20.5732  -13.1770 C   0  0  0  0  0  0  0  0  0  0  0  0
   21.9672  -21.9721  -13.6171 C   0  0  0  0  0  0  0  0  0  0  0  0
   23.2210  -22.4619  -13.9950 C   0  0  0  0  0  0  0  0  0  0  0  0
   23.4202  -23.7476  -14.4331 C   0  0  0  0  0  0  0  0  0  0  0  0
   22.3576  -24.6127  -14.5136 C   0  0  0  0  0  0  0  0  0  0  0  0
   21.1143  -24.1482  -14.1452 C   0  0  0  0  0  0  0  0  0  0  0  0
   20.9198  -22.8407  -13.7009 C   0  0  0  0  0  0  0  0  0  0  0  0
   20.7268  -21.2314  -11.1015 C   0  0  0  0  0  0  0  0  0  0  0  0
   19.4111  -20.9048  -11.3254 O   0  0  0  0  0  0  0  0  0  0  0  0
   20.9930  -22.2263  -10.3941 O   0  0  0  0  0  0  0  0  0  0  0  0
  2  1  1  6
  2  3  1  0
  3  4  1  0
  4  8  1  0
  5  4  2  0
  6  2  1  0
  6  7  2  0
  9  6  1  0
 10  9  1  0
 10 11  1  1
 11 12  1  0
 12 13  2  0
 12 20  1  0
 13 14  1  0
 14 15  1  0
 15 16  2  0
 16 17  1  0
 18 17  2  0
 19 18  1  0
 20 19  2  0
 20 15  1  0
 21 10  1  0
 22 21  2  0
 23 21  1  0
 24 25  1  6
 24 23  1  0
 25 26  1  0
 26 31  1  0
 27 26  2  0
 27 28  1  0
 28 29  2  0
 29 30  1  0
 31 30  2  0
 32 24  1  0
 33 32  1  0
 34 32  2  0
M  END
$$$$
