DWF.pdb
     RDKit          3D

 34 36  0  0  1  0  0  0  0  0999 V2000
   26.6845  -19.9146  -18.2766 N   0  0  0  0  0  0  0  0  0  0  0  0
   25.9186  -19.4672  -17.1088 C   0  0  1  0  0  0  0  0  0  0  0  0
   24.4796  -19.5249  -17.4333 C   0  0  0  0  0  0  0  0  0  0  0  0
   24.0609  -18.6343  -18.5277 C   0  0  0  0  0  0  0  0  0  0  0  0
   23.2920  -18.9688  -19.4360 O   0  0  0  0  0  0  0  0  0  0  0  0
   26.3957  -20.0939  -15.8905 C   0  0  0  0  0  0  0  0  0  0  0  0
   25.7422  -21.1382  -15.5031 O   0  0  0  0  0  0  0  0  0  0  0  0
   24.5602  -17.3462  -18.5358 O   0  0  0  0  0  0  0  0  0  0  0  0
   27.4620  -19.7324  -15.0620 N   0  0  0  0  0  0  0  0  0  0  0  0
   27.7998  -20.4120  -13.8021 C   0  0  1  0  0  0  0  0  0  0  0  0
   29.0965  -19.9345  -13.2585 C   0  0  0  0  0  0  0  0  0  0  0  0
   29.6617  -20.7636  -12.1854 C   0  0  0  0  0  0  0  0  0  0  0  0
   30.3088  -21.9716  -12.2111 C   0  0  0  0  0  0  0  0  0  0  0  0
   30.6346  -22.3231  -10.9318 N   0  0  0  0  0  0  0  0  0  0  0  0
   30.2185  -21.3809  -10.0778 C   0  0  0  0  0  0  0  0  0  0  0  0
   30.2991  -21.2604   -8.7090 C   0  0  0  0  0  0  0  0  0  0  0  0
   29.7698  -20.1526   -8.0901 C   0  0  0  0  0  0  0  0  0  0  0  0
   29.1467  -19.1370   -8.8138 C   0  0  0  0  0  0  0  0  0  0  0  0
   29.0846  -19.2930  -10.1843 C   0  0  0  0  0  0  0  0  0  0  0  0
   29.6067  -20.3964  -10.8522 C   0  0  0  0  0  0  0  0  0  0  0  0
   26.7360  -20.0313  -12.8382 C   0  0  0  0  0  0  0  0  0  0  0  0
   26.1229  -18.9319  -12.9761 O   0  0  0  0  0  0  0  0  0  0  0  0
   26.3565  -20.8443  -11.7494 N   0  0  0  0  0  0  0  0  0  0  0  0
   25.1837  -20.4923  -10.9266 C   0  0  1  0  0  0  0  0  0  0  0  0
   23.9935  -20.5083  -11.8507 C   0  0  0  0  0  0  0  0  0  0  0  0
   22.7225  -20.2803  -11.1543 C   0  0  0  0  0  0  0  0  0  0  0  0
   21.5653  -20.3880  -11.9314 C   0  0  0  0  0  0  0  0  0  0  0  0
   20.3038  -20.1983  -11.4241 C   0  0  0  0  0  0  0  0  0  0  0  0
   20.1425  -19.8877  -10.0969 C   0  0  0  0  0  0  0  0  0  0  0  0
   21.2712  -19.7775   -9.3152 C   0  0  0  0  0  0  0  0  0  0  0  0
   22.5494  -19.9719   -9.8377 C   0  0  0  0  0  0  0  0  0  0  0  0
   25.0888  -21.4968   -9.8511 C   0  0  0  0  0  0  0  0  0  0  0  0
   24.7127  -21.1403   -8.5786 O   0  0  0  0  0  0  0  0  0  0  0  0
   25.3535  -22.6939  -10.0925 O   0  0  0  0  0  0  0  0  0  0  0  0
  2  1  1  6
  2  3  1  0
  3  4  1  0
  4  8  1  0
  5  4  2  0
  6  2  1  0
  6  7  2  0
  9  6  1  0
 10  9  1  0
 10 11  1  1
 11 12  1  0
 12 13  2  0
 12 20  1  0
 13 14  1  0
 14 15  1  0
 15 16  2  0
 16 17  1  0
 18 17  2  0
 19 18  1  0
 20 19  2  0
 20 15  1  0
 21 10  1  0
 22 21  2  0
 23 21  1  0
 24 25  1  6
 24 23  1  0
 25 26  1  0
 26 31  1  0
 27 26  2  0
 27 28  1  0
 28 29  2  0
 29 30  1  0
 31 30  2  0
 32 24  1  0
 33 32  1  0
 34 32  2  0
M  END
$$$$
