DWF.pdb
     RDKit          3D

 34 36  0  0  1  0  0  0  0  0999 V2000
   28.5823  -21.8116  -14.7904 N   0  0  0  0  0  0  0  0  0  0  0  0
   27.7205  -20.7239  -14.3167 C   0  0  1  0  0  0  0  0  0  0  0  0
   27.0257  -20.1287  -15.4754 C   0  0  0  0  0  0  0  0  0  0  0  0
   27.7998  -19.1051  -16.1959 C   0  0  0  0  0  0  0  0  0  0  0  0
   29.0058  -18.8985  -16.0199 O   0  0  0  0  0  0  0  0  0  0  0  0
   26.9470  -21.1273  -13.1576 C   0  0  0  0  0  0  0  0  0  0  0  0
   26.4404  -22.3142  -13.2060 O   0  0  0  0  0  0  0  0  0  0  0  0
   27.1332  -18.3303  -17.1255 O   0  0  0  0  0  0  0  0  0  0  0  0
   26.6599  -20.4177  -11.9880 N   0  0  0  0  0  0  0  0  0  0  0  0
   25.6795  -20.8458  -10.9786 C   0  0  1  0  0  0  0  0  0  0  0  0
   26.0101  -20.3033   -9.6364 C   0  0  0  0  0  0  0  0  0  0  0  0
   27.2995  -20.7465   -9.0891 C   0  0  0  0  0  0  0  0  0  0  0  0
   28.2862  -21.5425   -9.6103 C   0  0  0  0  0  0  0  0  0  0  0  0
   29.2914  -21.6547   -8.6921 N   0  0  0  0  0  0  0  0  0  0  0  0
   28.9868  -20.9567   -7.5920 C   0  0  0  0  0  0  0  0  0  0  0  0
   29.6502  -20.7510   -6.4036 C   0  0  0  0  0  0  0  0  0  0  0  0
   29.0781  -19.9656   -5.4308 C   0  0  0  0  0  0  0  0  0  0  0  0
   27.8332  -19.3653   -5.6127 C   0  0  0  0  0  0  0  0  0  0  0  0
   27.1978  -19.5946   -6.8169 C   0  0  0  0  0  0  0  0  0  0  0  0
   27.7393  -20.3815   -7.8288 C   0  0  0  0  0  0  0  0  0  0  0  0
   24.3820  -20.2577  -11.3986 C   0  0  0  0  0  0  0  0  0  0  0  0
   24.3501  -19.1014  -11.9137 O   0  0  0  0  0  0  0  0  0  0  0  0
   23.1496  -20.9295  -11.2552 N   0  0  0  0  0  0  0  0  0  0  0  0
   21.9060  -20.3288  -11.7736 C   0  0  1  0  0  0  0  0  0  0  0  0
   22.0327  -20.3138  -13.2752 C   0  0  0  0  0  0  0  0  0  0  0  0
   22.1081  -21.6577  -13.8587 C   0  0  0  0  0  0  0  0  0  0  0  0
   23.2858  -21.9667  -14.5459 C   0  0  0  0  0  0  0  0  0  0  0  0
   23.5028  -23.1807  -15.1491 C   0  0  0  0  0  0  0  0  0  0  0  0
   22.5362  -24.1535  -15.0902 C   0  0  0  0  0  0  0  0  0  0  0  0
   21.3690  -23.8676  -14.4171 C   0  0  0  0  0  0  0  0  0  0  0  0
   21.1560  -22.6320  -13.8067 C   0  0  0  0  0  0  0  0  0  0  0  0
   20.7878  -21.1655  -11.3003 C   0  0  0  0  0  0  0  0  0  0  0  0
   19.4836  -20.8189  -11.5585 O   0  0  0  0  0  0  0  0  0  0  0  0
   21.0215  -22.2083  -10.6528 O   0  0  0  0  0  0  0  0  0  0  0  0
  2  1  1  6
  2  3  1  0
  3  4  1  0
  4  8  1  0
  5  4  2  0
  6  2  1  0
  6  7  2  0
  9  6  1  0
 10  9  1  0
 10 11  1  1
 11 12  1  0
 12 13  2  0
 12 20  1  0
 13 14  1  0
 14 15  1  0
 15 16  2  0
 16 17  1  0
 18 17  2  0
 19 18  1  0
 20 19  2  0
 20 15  1  0
 21 10  1  0
 22 21  2  0
 23 21  1  0
 24 25  1  6
 24 23  1  0
 25 26  1  0
 26 31  1  0
 27 26  2  0
 27 28  1  0
 28 29  2  0
 29 30  1  0
 31 30  2  0
 32 24  1  0
 33 32  1  0
 34 32  2  0
M  END
$$$$
