DWF.pdb
     RDKit          3D

 34 36  0  0  1  0  0  0  0  0999 V2000
   25.9803  -19.4155  -17.9967 N   0  0  0  0  0  0  0  0  0  0  0  0
   26.1035  -18.5575  -16.8139 C   0  0  1  0  0  0  0  0  0  0  0  0
   24.9384  -17.6526  -16.7593 C   0  0  0  0  0  0  0  0  0  0  0  0
   24.9606  -16.5629  -17.7483 C   0  0  0  0  0  0  0  0  0  0  0  0
   25.1995  -15.3821  -17.4714 O   0  0  0  0  0  0  0  0  0  0  0  0
   26.4589  -19.3267  -15.6363 C   0  0  0  0  0  0  0  0  0  0  0  0
   26.0096  -20.5368  -15.5993 O   0  0  0  0  0  0  0  0  0  0  0  0
   24.6981  -16.8845  -19.0660 O   0  0  0  0  0  0  0  0  0  0  0  0
   27.2163  -18.9514  -14.5230 N   0  0  0  0  0  0  0  0  0  0  0  0
   27.3880  -19.7800  -13.3200 C   0  0  1  0  0  0  0  0  0  0  0  0
   28.5294  -19.3092  -12.4949 C   0  0  0  0  0  0  0  0  0  0  0  0
   28.8050  -20.1176  -11.2995 C   0  0  0  0  0  0  0  0  0  0  0  0
   29.5847  -21.2289  -11.1101 C   0  0  0  0  0  0  0  0  0  0  0  0
   29.5006  -21.6067   -9.7999 N   0  0  0  0  0  0  0  0  0  0  0  0
   28.6904  -20.7754   -9.1346 C   0  0  0  0  0  0  0  0  0  0  0  0
   28.2816  -20.7226   -7.8213 C   0  0  0  0  0  0  0  0  0  0  0  0
   27.4232  -19.7287   -7.4142 C   0  0  0  0  0  0  0  0  0  0  0  0
   26.9484  -18.7628   -8.3002 C   0  0  0  0  0  0  0  0  0  0  0  0
   27.3799  -18.8482   -9.6090 C   0  0  0  0  0  0  0  0  0  0  0  0
   28.2477  -19.8359  -10.0645 C   0  0  0  0  0  0  0  0  0  0  0  0
   26.1476  -19.5999  -12.5233 C   0  0  0  0  0  0  0  0  0  0  0  0
   25.4839  -18.5261  -12.6223 O   0  0  0  0  0  0  0  0  0  0  0  0
   25.6506  -20.5813  -11.6398 N   0  0  0  0  0  0  0  0  0  0  0  0
   24.3629  -20.3813  -10.9483 C   0  0  1  0  0  0  0  0  0  0  0  0
   23.3003  -20.3786  -12.0168 C   0  0  0  0  0  0  0  0  0  0  0  0
   21.9436  -20.2345  -11.4773 C   0  0  0  0  0  0  0  0  0  0  0  0
   21.8452  -20.0617  -10.0934 C   0  0  0  0  0  0  0  0  0  0  0  0
   20.6456  -19.9176   -9.4416 C   0  0  0  0  0  0  0  0  0  0  0  0
   19.4742  -19.9405  -10.1566 C   0  0  0  0  0  0  0  0  0  0  0  0
   19.5511  -20.1096  -11.5214 C   0  0  0  0  0  0  0  0  0  0  0  0
   20.7735  -20.2551  -12.1765 C   0  0  0  0  0  0  0  0  0  0  0  0
   24.2078  -21.4891   -9.9874 C   0  0  0  0  0  0  0  0  0  0  0  0
   23.5713  -21.3009   -8.7844 O   0  0  0  0  0  0  0  0  0  0  0  0
   24.6602  -22.6206  -10.2639 O   0  0  0  0  0  0  0  0  0  0  0  0
  2  1  1  6
  2  3  1  0
  3  4  1  0
  4  8  1  0
  5  4  2  0
  6  2  1  0
  6  7  2  0
  9  6  1  0
 10  9  1  0
 10 11  1  1
 11 12  1  0
 12 13  2  0
 12 20  1  0
 13 14  1  0
 14 15  1  0
 15 16  2  0
 16 17  1  0
 18 17  2  0
 19 18  1  0
 20 19  2  0
 20 15  1  0
 21 10  1  0
 22 21  2  0
 23 21  1  0
 24 25  1  6
 24 23  1  0
 25 26  1  0
 26 31  1  0
 27 26  2  0
 27 28  1  0
 28 29  2  0
 29 30  1  0
 31 30  2  0
 32 24  1  0
 33 32  1  0
 34 32  2  0
M  END
$$$$
