DWF.pdb
     RDKit          3D

 34 36  0  0  1  0  0  0  0  0999 V2000
   27.2174  -22.5502  -15.3857 N   0  0  0  0  0  0  0  0  0  0  0  0
   27.2349  -21.2849  -14.6446 C   0  0  1  0  0  0  0  0  0  0  0  0
   26.6224  -20.2348  -15.4821 C   0  0  0  0  0  0  0  0  0  0  0  0
   27.4262  -19.8323  -16.6475 C   0  0  0  0  0  0  0  0  0  0  0  0
   28.5521  -20.2769  -16.8982 O   0  0  0  0  0  0  0  0  0  0  0  0
   26.7725  -21.4631  -13.2811 C   0  0  0  0  0  0  0  0  0  0  0  0
   25.7569  -22.2463  -13.1305 O   0  0  0  0  0  0  0  0  0  0  0  0
   26.8846  -18.9004  -17.5117 O   0  0  0  0  0  0  0  0  0  0  0  0
   27.2608  -20.9064  -12.0955 N   0  0  0  0  0  0  0  0  0  0  0  0
   26.6499  -21.1071  -10.7727 C   0  0  1  0  0  0  0  0  0  0  0  0
   27.5146  -20.5751   -9.6891 C   0  0  0  0  0  0  0  0  0  0  0  0
   26.9645  -20.7118   -8.3337 C   0  0  0  0  0  0  0  0  0  0  0  0
   25.7635  -21.1931   -7.8812 C   0  0  0  0  0  0  0  0  0  0  0  0
   25.7378  -21.0997   -6.5185 N   0  0  0  0  0  0  0  0  0  0  0  0
   26.8843  -20.5725   -6.0738 C   0  0  0  0  0  0  0  0  0  0  0  0
   27.3478  -20.2758   -4.8121 C   0  0  0  0  0  0  0  0  0  0  0  0
   28.5988  -19.7269   -4.6574 C   0  0  0  0  0  0  0  0  0  0  0  0
   29.4210  -19.4581   -5.7506 C   0  0  0  0  0  0  0  0  0  0  0  0
   28.9220  -19.7687   -7.0000 C   0  0  0  0  0  0  0  0  0  0  0  0
   27.6630  -20.3251   -7.2033 C   0  0  0  0  0  0  0  0  0  0  0  0
   25.3941  -20.3141  -10.7816 C   0  0  0  0  0  0  0  0  0  0  0  0
   25.4432  -19.0526  -10.6833 O   0  0  0  0  0  0  0  0  0  0  0  0
   24.1152  -20.8985  -10.8977 N   0  0  0  0  0  0  0  0  0  0  0  0
   22.9041  -20.0563  -10.8807 C   0  0  1  0  0  0  0  0  0  0  0  0
   23.0409  -19.0886  -12.0279 C   0  0  0  0  0  0  0  0  0  0  0  0
   22.9238  -19.7335  -13.3404 C   0  0  0  0  0  0  0  0  0  0  0  0
   23.7049  -19.1919  -14.3657 C   0  0  0  0  0  0  0  0  0  0  0  0
   23.7006  -19.6830  -15.6477 C   0  0  0  0  0  0  0  0  0  0  0  0
   22.9024  -20.7537  -15.9648 C   0  0  0  0  0  0  0  0  0  0  0  0
   22.1258  -21.3010  -14.9675 C   0  0  0  0  0  0  0  0  0  0  0  0
   22.1357  -20.7967  -13.6674 C   0  0  0  0  0  0  0  0  0  0  0  0
   21.7452  -20.9568  -11.0245 C   0  0  0  0  0  0  0  0  0  0  0  0
   21.9151  -22.3082  -11.2051 O   0  0  0  0  0  0  0  0  0  0  0  0
   20.5864  -20.4911  -10.9831 O   0  0  0  0  0  0  0  0  0  0  0  0
  2  1  1  6
  2  3  1  0
  3  4  1  0
  4  8  1  0
  5  4  2  0
  6  2  1  0
  6  7  2  0
  9  6  1  0
 10  9  1  0
 10 11  1  1
 11 12  1  0
 12 13  2  0
 12 20  1  0
 13 14  1  0
 14 15  1  0
 15 16  2  0
 16 17  1  0
 18 17  2  0
 19 18  1  0
 20 19  2  0
 20 15  1  0
 21 10  1  0
 22 21  2  0
 23 21  1  0
 24 25  1  6
 24 23  1  0
 25 26  1  0
 26 31  1  0
 27 26  2  0
 27 28  1  0
 28 29  2  0
 29 30  1  0
 31 30  2  0
 32 24  1  0
 33 32  1  0
 34 32  2  0
M  END
$$$$
