DWF.pdb
     RDKit          3D

 34 36  0  0  1  0  0  0  0  0999 V2000
   27.9350  -22.3896  -15.5410 N   0  0  0  0  0  0  0  0  0  0  0  0
   27.9119  -21.1553  -14.7495 C   0  0  1  0  0  0  0  0  0  0  0  0
   27.4245  -20.0529  -15.6018 C   0  0  0  0  0  0  0  0  0  0  0  0
   28.3365  -19.6703  -16.6918 C   0  0  0  0  0  0  0  0  0  0  0  0
   28.0705  -19.7958  -17.8925 O   0  0  0  0  0  0  0  0  0  0  0  0
   27.3014  -21.3701  -13.4511 C   0  0  0  0  0  0  0  0  0  0  0  0
   26.1846  -22.0184  -13.4561 O   0  0  0  0  0  0  0  0  0  0  0  0
   29.5639  -19.1383  -16.3469 O   0  0  0  0  0  0  0  0  0  0  0  0
   27.7401  -20.9734  -12.1845 N   0  0  0  0  0  0  0  0  0  0  0  0
   26.9828  -21.1850  -10.9415 C   0  0  1  0  0  0  0  0  0  0  0  0
   27.7189  -20.6634   -9.7620 C   0  0  0  0  0  0  0  0  0  0  0  0
   26.9423  -20.6217   -8.5155 C   0  0  0  0  0  0  0  0  0  0  0  0
   25.6219  -20.8809   -8.2546 C   0  0  0  0  0  0  0  0  0  0  0  0
   25.3921  -20.6924   -6.9213 N   0  0  0  0  0  0  0  0  0  0  0  0
   26.5221  -20.3186   -6.3100 C   0  0  0  0  0  0  0  0  0  0  0  0
   26.8178  -20.0117   -5.0012 C   0  0  0  0  0  0  0  0  0  0  0  0
   28.0999  -19.6522   -4.6585 C   0  0  0  0  0  0  0  0  0  0  0  0
   29.1204  -19.5878   -5.6060 C   0  0  0  0  0  0  0  0  0  0  0  0
   28.7859  -19.9021   -6.9082 C   0  0  0  0  0  0  0  0  0  0  0  0
   27.5026  -20.2710   -7.2997 C   0  0  0  0  0  0  0  0  0  0  0  0
   25.7362  -20.3907  -11.0859 C   0  0  0  0  0  0  0  0  0  0  0  0
   25.8026  -19.1530  -11.3450 O   0  0  0  0  0  0  0  0  0  0  0  0
   24.4475  -20.9486  -10.9495 N   0  0  0  0  0  0  0  0  0  0  0  0
   23.2603  -20.2128  -11.4244 C   0  0  1  0  0  0  0  0  0  0  0  0
   23.4369  -20.0305  -12.9099 C   0  0  0  0  0  0  0  0  0  0  0  0
   22.2811  -19.3949  -13.5520 C   0  0  0  0  0  0  0  0  0  0  0  0
   21.3729  -20.2544  -14.1775 C   0  0  0  0  0  0  0  0  0  0  0  0
   20.2465  -19.8096  -14.8239 C   0  0  0  0  0  0  0  0  0  0  0  0
   19.9752  -18.4650  -14.8737 C   0  0  0  0  0  0  0  0  0  0  0  0
   20.8585  -17.6025  -14.2628 C   0  0  0  0  0  0  0  0  0  0  0  0
   22.0006  -18.0619  -13.6078 C   0  0  0  0  0  0  0  0  0  0  0  0
   22.0784  -21.0258  -11.0825 C   0  0  0  0  0  0  0  0  0  0  0  0
   22.0522  -22.3775  -11.3277 O   0  0  0  0  0  0  0  0  0  0  0  0
   21.0802  -20.4842  -10.5614 O   0  0  0  0  0  0  0  0  0  0  0  0
  2  1  1  6
  2  3  1  0
  3  4  1  0
  4  8  1  0
  5  4  2  0
  6  2  1  0
  6  7  2  0
  9  6  1  0
 10  9  1  0
 10 11  1  1
 11 12  1  0
 12 13  2  0
 12 20  1  0
 13 14  1  0
 14 15  1  0
 15 16  2  0
 16 17  1  0
 18 17  2  0
 19 18  1  0
 20 19  2  0
 20 15  1  0
 21 10  1  0
 22 21  2  0
 23 21  1  0
 24 25  1  6
 24 23  1  0
 25 26  1  0
 26 31  1  0
 27 26  2  0
 27 28  1  0
 28 29  2  0
 29 30  1  0
 31 30  2  0
 32 24  1  0
 33 32  1  0
 34 32  2  0
M  END
$$$$
