DWF.pdb
     RDKit          3D

 34 36  0  0  1  0  0  0  0  0999 V2000
   27.6724  -22.7876  -15.6287 N   0  0  0  0  0  0  0  0  0  0  0  0
   27.1675  -21.4981  -15.1462 C   0  0  1  0  0  0  0  0  0  0  0  0
   26.5161  -20.7927  -16.2677 C   0  0  0  0  0  0  0  0  0  0  0  0
   27.4452  -20.2215  -17.2561 C   0  0  0  0  0  0  0  0  0  0  0  0
   28.6747  -20.3345  -17.1959 O   0  0  0  0  0  0  0  0  0  0  0  0
   26.4542  -21.6444  -13.8915 C   0  0  0  0  0  0  0  0  0  0  0  0
   25.7095  -22.6943  -13.7880 O   0  0  0  0  0  0  0  0  0  0  0  0
   26.9050  -19.5170  -18.3146 O   0  0  0  0  0  0  0  0  0  0  0  0
   26.4466  -20.8109  -12.7693 N   0  0  0  0  0  0  0  0  0  0  0  0
   25.5979  -21.0213  -11.5866 C   0  0  1  0  0  0  0  0  0  0  0  0
   26.1084  -20.2703  -10.4117 C   0  0  0  0  0  0  0  0  0  0  0  0
   27.4050  -20.7311   -9.8970 C   0  0  0  0  0  0  0  0  0  0  0  0
   28.4280  -21.4233  -10.4911 C   0  0  0  0  0  0  0  0  0  0  0  0
   29.4229  -21.6107   -9.5738 N   0  0  0  0  0  0  0  0  0  0  0  0
   29.0763  -21.0621   -8.4037 C   0  0  0  0  0  0  0  0  0  0  0  0
   29.7138  -20.9787   -7.1866 C   0  0  0  0  0  0  0  0  0  0  0  0
   29.0986  -20.3373   -6.1376 C   0  0  0  0  0  0  0  0  0  0  0  0
   27.8352  -19.7632   -6.2698 C   0  0  0  0  0  0  0  0  0  0  0  0
   27.2268  -19.8671   -7.5050 C   0  0  0  0  0  0  0  0  0  0  0  0
   27.8121  -20.5063   -8.5936 C   0  0  0  0  0  0  0  0  0  0  0  0
   24.2671  -20.4637  -11.9381 C   0  0  0  0  0  0  0  0  0  0  0  0
   24.1791  -19.2970  -12.4225 O   0  0  0  0  0  0  0  0  0  0  0  0
   23.0623  -21.1765  -11.7612 N   0  0  0  0  0  0  0  0  0  0  0  0
   21.8315  -20.7475  -12.4520 C   0  0  1  0  0  0  0  0  0  0  0  0
   22.1388  -20.7729  -13.9271 C   0  0  0  0  0  0  0  0  0  0  0  0
   20.9778  -20.4440  -14.7614 C   0  0  0  0  0  0  0  0  0  0  0  0
   20.2229  -21.5267  -15.2225 C   0  0  0  0  0  0  0  0  0  0  0  0
   19.1120  -21.3797  -16.0156 C   0  0  0  0  0  0  0  0  0  0  0  0
   18.7016  -20.1239  -16.3879 C   0  0  0  0  0  0  0  0  0  0  0  0
   19.4327  -19.0447  -15.9431 C   0  0  0  0  0  0  0  0  0  0  0  0
   20.5600  -19.2020  -15.1374 C   0  0  0  0  0  0  0  0  0  0  0  0
   20.7661  -21.6933  -12.0714 C   0  0  0  0  0  0  0  0  0  0  0  0
   19.4859  -21.2587  -11.8262 O   0  0  0  0  0  0  0  0  0  0  0  0
   21.0235  -22.9116  -11.9675 O   0  0  0  0  0  0  0  0  0  0  0  0
  2  1  1  6
  2  3  1  0
  3  4  1  0
  4  8  1  0
  5  4  2  0
  6  2  1  0
  6  7  2  0
  9  6  1  0
 10  9  1  0
 10 11  1  1
 11 12  1  0
 12 13  2  0
 12 20  1  0
 13 14  1  0
 14 15  1  0
 15 16  2  0
 16 17  1  0
 18 17  2  0
 19 18  1  0
 20 19  2  0
 20 15  1  0
 21 10  1  0
 22 21  2  0
 23 21  1  0
 24 25  1  6
 24 23  1  0
 25 26  1  0
 26 31  1  0
 27 26  2  0
 27 28  1  0
 28 29  2  0
 29 30  1  0
 31 30  2  0
 32 24  1  0
 33 32  1  0
 34 32  2  0
M  END
$$$$
