DWF.pdb
     RDKit          3D

 34 36  0  0  1  0  0  0  0  0999 V2000
   27.9201  -23.1563  -16.4414 N   0  0  0  0  0  0  0  0  0  0  0  0
   27.4437  -21.8212  -16.0661 C   0  0  1  0  0  0  0  0  0  0  0  0
   26.7072  -21.2411  -17.2064 C   0  0  0  0  0  0  0  0  0  0  0  0
   27.5546  -20.8164  -18.3324 C   0  0  0  0  0  0  0  0  0  0  0  0
   27.4834  -21.2940  -19.4704 O   0  0  0  0  0  0  0  0  0  0  0  0
   26.8255  -21.8289  -14.7537 C   0  0  0  0  0  0  0  0  0  0  0  0
   26.1088  -22.8668  -14.4767 O   0  0  0  0  0  0  0  0  0  0  0  0
   28.4849  -19.8223  -18.0983 O   0  0  0  0  0  0  0  0  0  0  0  0
   26.8842  -20.8721  -13.7363 N   0  0  0  0  0  0  0  0  0  0  0  0
   26.1275  -20.9533  -12.4777 C   0  0  1  0  0  0  0  0  0  0  0  0
   26.6885  -20.0430  -11.4473 C   0  0  0  0  0  0  0  0  0  0  0  0
   27.8898  -20.5437  -10.7658 C   0  0  0  0  0  0  0  0  0  0  0  0
   29.0415  -21.1106  -11.2466 C   0  0  0  0  0  0  0  0  0  0  0  0
   29.8572  -21.4103  -10.1925 N   0  0  0  0  0  0  0  0  0  0  0  0
   29.2700  -21.0558   -9.0437 C   0  0  0  0  0  0  0  0  0  0  0  0
   29.6647  -21.1429   -7.7279 C   0  0  0  0  0  0  0  0  0  0  0  0
   28.8314  -20.6851   -6.7347 C   0  0  0  0  0  0  0  0  0  0  0  0
   27.5854  -20.1300   -7.0222 C   0  0  0  0  0  0  0  0  0  0  0  0
   27.2237  -20.0597   -8.3529 C   0  0  0  0  0  0  0  0  0  0  0  0
   28.0348  -20.5101   -9.3899 C   0  0  0  0  0  0  0  0  0  0  0  0
   24.7553  -20.4843  -12.7987 C   0  0  0  0  0  0  0  0  0  0  0  0
   24.5822  -19.3351  -13.3013 O   0  0  0  0  0  0  0  0  0  0  0  0
   23.6021  -21.2650  -12.5721 N   0  0  0  0  0  0  0  0  0  0  0  0
   22.2690  -20.7550  -12.9452 C   0  0  1  0  0  0  0  0  0  0  0  0
   21.8284  -21.5508  -14.1468 C   0  0  0  0  0  0  0  0  0  0  0  0
   20.4867  -21.1875  -14.6157 C   0  0  0  0  0  0  0  0  0  0  0  0
   19.4524  -22.0591  -14.2616 C   0  0  0  0  0  0  0  0  0  0  0  0
   18.1454  -21.8567  -14.6296 C   0  0  0  0  0  0  0  0  0  0  0  0
   17.8108  -20.7567  -15.3793 C   0  0  0  0  0  0  0  0  0  0  0  0
   18.8164  -19.8863  -15.7377 C   0  0  0  0  0  0  0  0  0  0  0  0
   20.1419  -20.0986  -15.3599 C   0  0  0  0  0  0  0  0  0  0  0  0
   21.3881  -20.9434  -11.7777 C   0  0  0  0  0  0  0  0  0  0  0  0
   20.3603  -20.0699  -11.5163 O   0  0  0  0  0  0  0  0  0  0  0  0
   21.5729  -21.9104  -11.0083 O   0  0  0  0  0  0  0  0  0  0  0  0
  2  1  1  6
  2  3  1  0
  3  4  1  0
  4  8  1  0
  5  4  2  0
  6  2  1  0
  6  7  2  0
  9  6  1  0
 10  9  1  0
 10 11  1  1
 11 12  1  0
 12 13  2  0
 12 20  1  0
 13 14  1  0
 14 15  1  0
 15 16  2  0
 16 17  1  0
 18 17  2  0
 19 18  1  0
 20 19  2  0
 20 15  1  0
 21 10  1  0
 22 21  2  0
 23 21  1  0
 24 25  1  6
 24 23  1  0
 25 26  1  0
 26 31  1  0
 27 26  2  0
 27 28  1  0
 28 29  2  0
 29 30  1  0
 31 30  2  0
 32 24  1  0
 33 32  1  0
 34 32  2  0
M  END
$$$$
