YHM.pdb
     RDKit          3D

 31 32  0  0  1  0  0  0  0  0999 V2000
   14.7053  -18.1390  -12.1997 O   0  0  0  0  0  0  0  0  0  0  0  0
   15.9189  -18.7836  -12.3755 C   0  0  0  0  0  0  0  0  0  0  0  0
   16.8427  -18.4230  -13.3280 C   0  0  0  0  0  0  0  0  0  0  0  0
   18.0261  -19.0885  -13.4638 C   0  0  0  0  0  0  0  0  0  0  0  0
   18.2844  -20.1509  -12.6112 C   0  0  0  0  0  0  0  0  0  0  0  0
   19.5600  -20.8617  -12.7839 C   0  0  0  0  0  0  0  0  0  0  0  0
   19.6523  -21.6562  -14.0611 C   0  0  2  0  0  0  0  0  0  0  0  0
   18.7558  -22.8194  -13.9283 N   0  0  0  0  0  0  0  0  0  0  0  0
   21.0500  -22.0996  -14.2576 C   0  0  0  0  0  0  0  0  0  0  0  0
   21.4620  -23.1410  -13.6933 O   0  0  0  0  0  0  0  0  0  0  0  0
   17.3945  -20.5392  -11.6544 C   0  0  0  0  0  0  0  0  0  0  0  0
   16.2076  -19.8522  -11.5371 C   0  0  0  0  0  0  0  0  0  0  0  0
   21.9286  -21.3470  -15.0861 N   0  0  0  0  0  0  0  0  0  0  0  0
   23.2811  -21.7610  -15.3387 C   0  0  1  0  0  0  0  0  0  0  0  0
   23.6705  -21.6813  -16.7830 C   0  0  0  0  0  0  0  0  0  0  0  0
   25.0644  -22.0118  -17.0509 C   0  0  0  0  0  0  0  0  0  0  0  0
   26.0570  -21.1194  -17.3591 C   0  0  0  0  0  0  0  0  0  0  0  0
   27.1942  -21.8429  -17.5294 N   0  0  0  0  0  0  0  0  0  0  0  0
   26.9176  -23.1301  -17.3348 C   0  0  0  0  0  0  0  0  0  0  0  0
   25.6136  -23.2285  -17.0423 N   0  0  0  0  0  0  0  0  0  0  0  0
   24.2183  -21.0419  -14.4414 C   0  0  0  0  0  0  0  0  0  0  0  0
   24.0599  -19.7791  -14.3315 O   0  0  0  0  0  0  0  0  0  0  0  0
   26.2644  -20.3037   -7.7874 C   0  0  0  0  0  0  0  0  0  0  0  0
   27.2388  -21.3097   -8.9403 S   0  0  0  0  0  0  0  0  0  0  0  0
   27.1571  -20.6590  -10.6138 C   0  0  0  0  0  0  0  0  0  0  0  0
   26.2891  -21.3911  -11.5596 C   0  0  0  0  0  0  0  0  0  0  0  0
   26.1578  -20.8179  -12.9046 C   0  0  2  0  0  0  0  0  0  0  0  0
   25.2431  -21.6343  -13.7207 N   0  0  0  0  0  0  0  0  0  0  0  0
   27.4027  -20.5794  -13.6129 C   0  0  0  0  0  0  0  0  0  0  0  0
   28.0190  -21.3636  -14.3482 O   0  0  0  0  0  0  0  0  0  0  0  0
   27.9960  -19.3122  -13.4591 O   0  0  0  0  0  0  0  0  0  0  0  0
  2  1  1  0
  3  2  2  0
  4  3  1  0
  5  4  2  0
  5 11  1  0
  6  5  1  0
  7  6  1  0
  7  8  1  1
  9 10  2  0
  9  7  1  0
 11 12  2  0
 12  2  1  0
 13  9  1  0
 14 15  1  6
 14 13  1  0
 15 16  1  0
 16 20  1  0
 16 17  2  0
 17 18  1  0
 19 18  1  0
 20 19  2  0
 21 14  1  0
 22 21  2  0
 24 23  1  0
 24 25  1  0
 26 25  1  0
 27 26  1  1
 27 28  1  0
 28 21  1  0
 29 31  1  0
 29 27  1  0
 30 29  2  0
M  END
$$$$
