YHM.pdb
     RDKit          3D

 31 32  0  0  1  0  0  0  0  0999 V2000
   18.2227  -19.3316  -23.7906 O   0  0  0  0  0  0  0  0  0  0  0  0
   19.2050  -19.5629  -22.8413 C   0  0  0  0  0  0  0  0  0  0  0  0
   20.2604  -20.4237  -23.0305 C   0  0  0  0  0  0  0  0  0  0  0  0
   21.2048  -20.6193  -22.0653 C   0  0  0  0  0  0  0  0  0  0  0  0
   21.0794  -19.9239  -20.8724 C   0  0  0  0  0  0  0  0  0  0  0  0
   22.1014  -20.1598  -19.8417 C   0  0  0  0  0  0  0  0  0  0  0  0
   23.1479  -19.0790  -19.7557 C   0  0  2  0  0  0  0  0  0  0  0  0
   24.0658  -19.2555  -20.8963 N   0  0  0  0  0  0  0  0  0  0  0  0
   23.8797  -19.2119  -18.4769 C   0  0  0  0  0  0  0  0  0  0  0  0
   24.9585  -19.8500  -18.4359 O   0  0  0  0  0  0  0  0  0  0  0  0
   20.0480  -19.0618  -20.6464 C   0  0  0  0  0  0  0  0  0  0  0  0
   19.1079  -18.8815  -21.6354 C   0  0  0  0  0  0  0  0  0  0  0  0
   23.3624  -18.6167  -17.2924 N   0  0  0  0  0  0  0  0  0  0  0  0
   24.0427  -18.7122  -16.0304 C   0  0  1  0  0  0  0  0  0  0  0  0
   24.1632  -17.4011  -15.3160 C   0  0  0  0  0  0  0  0  0  0  0  0
   25.2509  -16.5543  -15.7890 C   0  0  0  0  0  0  0  0  0  0  0  0
   26.1384  -16.8672  -16.7845 C   0  0  0  0  0  0  0  0  0  0  0  0
   26.9795  -15.8073  -16.9060 N   0  0  0  0  0  0  0  0  0  0  0  0
   26.6277  -14.8762  -16.0223 C   0  0  0  0  0  0  0  0  0  0  0  0
   25.5698  -15.3377  -15.3414 N   0  0  0  0  0  0  0  0  0  0  0  0
   23.4366  -19.7779  -15.1954 C   0  0  0  0  0  0  0  0  0  0  0  0
   22.1608  -19.8365  -15.1684 O   0  0  0  0  0  0  0  0  0  0  0  0
   21.7980  -25.7952  -13.5618 C   0  0  0  0  0  0  0  0  0  0  0  0
   23.5495  -25.4193  -13.2760 S   0  0  0  0  0  0  0  0  0  0  0  0
   23.7555  -23.8581  -12.4096 C   0  0  0  0  0  0  0  0  0  0  0  0
   24.3521  -22.7515  -13.1864 C   0  0  0  0  0  0  0  0  0  0  0  0
   23.4459  -21.6658  -13.5800 C   0  0  2  0  0  0  0  0  0  0  0  0
   24.1465  -20.7056  -14.4497 N   0  0  0  0  0  0  0  0  0  0  0  0
   22.7759  -20.9775  -12.4912 C   0  0  0  0  0  0  0  0  0  0  0  0
   23.1088  -19.9152  -11.9468 O   0  0  0  0  0  0  0  0  0  0  0  0
   21.6070  -21.5714  -11.9790 O   0  0  0  0  0  0  0  0  0  0  0  0
  2  1  1  0
  3  2  2  0
  4  3  1  0
  5  4  2  0
  5 11  1  0
  6  5  1  0
  7  6  1  0
  7  8  1  6
  9 10  2  0
  9  7  1  0
 11 12  2  0
 12  2  1  0
 13  9  1  0
 14 15  1  1
 14 13  1  0
 15 16  1  0
 16 20  1  0
 16 17  2  0
 17 18  1  0
 19 18  1  0
 20 19  2  0
 21 14  1  0
 22 21  2  0
 24 23  1  0
 24 25  1  0
 26 25  1  0
 27 26  1  1
 27 28  1  0
 28 21  1  0
 29 31  1  0
 29 27  1  0
 30 29  2  0
M  END
$$$$
