YHM.pdb
     RDKit          3D

 31 32  0  0  1  0  0  0  0  0999 V2000
    9.2260  -12.6337    3.0862 O   0  0  0  0  0  0  0  0  0  0  0  0
   10.0624  -13.6439    3.5329 C   0  0  0  0  0  0  0  0  0  0  0  0
   11.4196  -13.4941    3.6947 C   0  0  0  0  0  0  0  0  0  0  0  0
   12.2038  -14.5189    4.1381 C   0  0  0  0  0  0  0  0  0  0  0  0
   11.5984  -15.7323    4.4270 C   0  0  0  0  0  0  0  0  0  0  0  0
   12.4644  -16.8264    4.8910 C   0  0  0  0  0  0  0  0  0  0  0  0
   13.0409  -17.6664    3.7806 C   0  0  2  0  0  0  0  0  0  0  0  0
   11.9182  -18.3415    3.1036 N   0  0  0  0  0  0  0  0  0  0  0  0
   13.9716  -18.6615    4.3571 C   0  0  0  0  0  0  0  0  0  0  0  0
   13.5288  -19.7422    4.8142 O   0  0  0  0  0  0  0  0  0  0  0  0
   10.2564  -15.9207    4.2796 C   0  0  0  0  0  0  0  0  0  0  0  0
    9.4866  -14.8718    3.8308 C   0  0  0  0  0  0  0  0  0  0  0  0
   15.3689  -18.3955    4.3942 N   0  0  0  0  0  0  0  0  0  0  0  0
   16.3073  -19.3217    4.9652 C   0  0  1  0  0  0  0  0  0  0  0  0
   17.2005  -19.9686    3.9514 C   0  0  0  0  0  0  0  0  0  0  0  0
   18.0123  -21.0610    4.4726 C   0  0  0  0  0  0  0  0  0  0  0  0
   17.9772  -21.5488    5.7522 C   0  0  0  0  0  0  0  0  0  0  0  0
   18.8855  -22.5573    5.8114 N   0  0  0  0  0  0  0  0  0  0  0  0
   19.4596  -22.6889    4.6178 C   0  0  0  0  0  0  0  0  0  0  0  0
   18.9222  -21.7715    3.8022 N   0  0  0  0  0  0  0  0  0  0  0  0
   17.0535  -18.6828    6.0767 C   0  0  0  0  0  0  0  0  0  0  0  0
   17.0707  -17.4058    6.1033 O   0  0  0  0  0  0  0  0  0  0  0  0
   17.3131  -15.1018   12.2652 C   0  0  0  0  0  0  0  0  0  0  0  0
   16.6097  -15.9602   10.8301 S   0  0  0  0  0  0  0  0  0  0  0  0
   17.8407  -16.9731    9.9998 C   0  0  0  0  0  0  0  0  0  0  0  0
   17.3819  -17.7149    8.8068 C   0  0  0  0  0  0  0  0  0  0  0  0
   18.3500  -18.6337    8.1958 C   0  0  2  0  0  0  0  0  0  0  0  0
   17.7267  -19.3636    7.0786 N   0  0  0  0  0  0  0  0  0  0  0  0
   19.0077  -19.5540    9.1062 C   0  0  0  0  0  0  0  0  0  0  0  0
   18.6790  -20.7177    9.3767 O   0  0  0  0  0  0  0  0  0  0  0  0
   20.1578  -19.0876    9.7705 O   0  0  0  0  0  0  0  0  0  0  0  0
  2  1  1  0
  3  2  2  0
  4  3  1  0
  5  4  2  0
  5 11  1  0
  6  5  1  0
  7  6  1  0
  7  8  1  1
  9 10  2  0
  9  7  1  0
 11 12  2  0
 12  2  1  0
 13  9  1  0
 14 15  1  6
 14 13  1  0
 15 16  1  0
 16 20  1  0
 16 17  2  0
 17 18  1  0
 19 18  1  0
 20 19  2  0
 21 14  1  0
 22 21  2  0
 24 23  1  0
 24 25  1  0
 26 25  1  0
 27 26  1  1
 27 28  1  0
 28 21  1  0
 29 31  1  0
 29 27  1  0
 30 29  2  0
M  END
$$$$
