YHM.pdb
     RDKit          3D

 31 32  0  0  1  0  0  0  0  0999 V2000
   21.4640  -13.5361  -17.1224 O   0  0  0  0  0  0  0  0  0  0  0  0
   21.7802  -14.6325  -16.3367 C   0  0  0  0  0  0  0  0  0  0  0  0
   20.8707  -15.5973  -15.9726 C   0  0  0  0  0  0  0  0  0  0  0  0
   21.2292  -16.6607  -15.1965 C   0  0  0  0  0  0  0  0  0  0  0  0
   22.5469  -16.7525  -14.7753 C   0  0  0  0  0  0  0  0  0  0  0  0
   22.9078  -17.8999  -13.9292 C   0  0  0  0  0  0  0  0  0  0  0  0
   23.8136  -18.8985  -14.6024 C   0  0  2  0  0  0  0  0  0  0  0  0
   23.1208  -19.3859  -15.8094 N   0  0  0  0  0  0  0  0  0  0  0  0
   24.0807  -20.0169  -13.6716 C   0  0  0  0  0  0  0  0  0  0  0  0
   23.1732  -20.8404  -13.4051 O   0  0  0  0  0  0  0  0  0  0  0  0
   23.4782  -15.8169  -15.1147 C   0  0  0  0  0  0  0  0  0  0  0  0
   23.0923  -14.7534  -15.8985 C   0  0  0  0  0  0  0  0  0  0  0  0
   25.3657  -20.1609  -13.0778 N   0  0  0  0  0  0  0  0  0  0  0  0
   25.6859  -21.2589  -12.2080 C   0  0  1  0  0  0  0  0  0  0  0  0
   26.7334  -22.1748  -12.7627 C   0  0  0  0  0  0  0  0  0  0  0  0
   26.4256  -22.7147  -14.0809 C   0  0  0  0  0  0  0  0  0  0  0  0
   25.6310  -23.8003  -14.3393 C   0  0  0  0  0  0  0  0  0  0  0  0
   25.6108  -23.9579  -15.6885 N   0  0  0  0  0  0  0  0  0  0  0  0
   26.3618  -23.0093  -16.2431 C   0  0  0  0  0  0  0  0  0  0  0  0
   26.8581  -22.2512  -15.2558 N   0  0  0  0  0  0  0  0  0  0  0  0
   26.0054  -20.7642  -10.8465 C   0  0  0  0  0  0  0  0  0  0  0  0
   27.0732  -20.0751  -10.7171 O   0  0  0  0  0  0  0  0  0  0  0  0
   29.4612  -18.3778   -5.3959 C   0  0  0  0  0  0  0  0  0  0  0  0
   28.7988  -19.6408   -6.5170 S   0  0  0  0  0  0  0  0  0  0  0  0
   27.0408  -19.4061   -6.8087 C   0  0  0  0  0  0  0  0  0  0  0  0
   26.5610  -19.6858   -8.1782 C   0  0  0  0  0  0  0  0  0  0  0  0
   25.8438  -20.9515   -8.3742 C   0  0  2  0  0  0  0  0  0  0  0  0
   25.2375  -20.9927   -9.7157 N   0  0  0  0  0  0  0  0  0  0  0  0
   24.8622  -21.2843   -7.3573 C   0  0  0  0  0  0  0  0  0  0  0  0
   23.6548  -21.5135   -7.5152 O   0  0  0  0  0  0  0  0  0  0  0  0
   25.3166  -21.3608   -6.0272 O   0  0  0  0  0  0  0  0  0  0  0  0
  2  1  1  0
  3  2  2  0
  4  3  1  0
  5  4  2  0
  5 11  1  0
  6  5  1  0
  7  6  1  0
  7  8  1  6
  9 10  2  0
  9  7  1  0
 11 12  2  0
 12  2  1  0
 13  9  1  0
 14 15  1  6
 14 13  1  0
 15 16  1  0
 16 20  1  0
 16 17  2  0
 17 18  1  0
 19 18  1  0
 20 19  2  0
 21 14  1  0
 22 21  2  0
 24 23  1  0
 24 25  1  0
 26 25  1  0
 27 26  1  1
 27 28  1  0
 28 21  1  0
 29 31  1  0
 29 27  1  0
 30 29  2  0
M  END
$$$$
