YHM.pdb
     RDKit          3D

 31 32  0  0  1  0  0  0  0  0999 V2000
   24.7219  -12.2274  -21.5502 O   0  0  0  0  0  0  0  0  0  0  0  0
   23.9385  -11.4174  -20.7441 C   0  0  0  0  0  0  0  0  0  0  0  0
   22.8812  -10.6722  -21.2102 C   0  0  0  0  0  0  0  0  0  0  0  0
   22.1374   -9.8882  -20.3773 C   0  0  0  0  0  0  0  0  0  0  0  0
   22.4718   -9.8560  -19.0322 C   0  0  0  0  0  0  0  0  0  0  0  0
   21.6648   -8.9944  -18.1553 C   0  0  0  0  0  0  0  0  0  0  0  0
   20.6257   -9.7353  -17.3538 C   0  0  2  0  0  0  0  0  0  0  0  0
   19.6524  -10.3049  -18.3038 N   0  0  0  0  0  0  0  0  0  0  0  0
   19.9576   -8.7898  -16.4326 C   0  0  0  0  0  0  0  0  0  0  0  0
   18.9611   -8.1352  -16.8212 O   0  0  0  0  0  0  0  0  0  0  0  0
   23.5125  -10.5800  -18.5313 C   0  0  0  0  0  0  0  0  0  0  0  0
   24.2479  -11.3633  -19.3916 C   0  0  0  0  0  0  0  0  0  0  0  0
   20.4431   -8.6215  -15.1057 N   0  0  0  0  0  0  0  0  0  0  0  0
   19.8826   -7.6524  -14.2050 C   0  0  1  0  0  0  0  0  0  0  0  0
   19.7751   -8.1410  -12.7931 C   0  0  0  0  0  0  0  0  0  0  0  0
   19.2316   -7.1651  -11.8570 C   0  0  0  0  0  0  0  0  0  0  0  0
   18.8675   -5.8792  -12.1576 C   0  0  0  0  0  0  0  0  0  0  0  0
   18.4139   -5.3215  -11.0049 N   0  0  0  0  0  0  0  0  0  0  0  0
   18.4937   -6.2245  -10.0304 C   0  0  0  0  0  0  0  0  0  0  0  0
   18.9943   -7.3507  -10.5564 N   0  0  0  0  0  0  0  0  0  0  0  0
   20.6022   -6.3605  -14.3220 C   0  0  0  0  0  0  0  0  0  0  0  0
   21.8376   -6.4133  -14.6427 O   0  0  0  0  0  0  0  0  0  0  0  0
   22.9610   -1.4101  -18.9081 C   0  0  0  0  0  0  0  0  0  0  0  0
   22.2179   -2.9473  -18.2954 S   0  0  0  0  0  0  0  0  0  0  0  0
   21.7521   -2.8098  -16.5648 C   0  0  0  0  0  0  0  0  0  0  0  0
   21.1021   -3.9939  -15.9654 C   0  0  0  0  0  0  0  0  0  0  0  0
   20.7314   -3.8896  -14.5489 C   0  0  2  0  0  0  0  0  0  0  0  0
   20.0375   -5.1127  -14.1109 N   0  0  0  0  0  0  0  0  0  0  0  0
   19.9706   -2.7088  -14.1813 C   0  0  0  0  0  0  0  0  0  0  0  0
   20.3952   -1.5585  -14.0026 O   0  0  0  0  0  0  0  0  0  0  0  0
   18.5835   -2.8689  -14.0021 O   0  0  0  0  0  0  0  0  0  0  0  0
  2  1  1  0
  3  2  2  0
  4  3  1  0
  5  4  2  0
  5 11  1  0
  6  5  1  0
  7  6  1  0
  7  8  1  6
  9 10  2  0
  9  7  1  0
 11 12  2  0
 12  2  1  0
 13  9  1  0
 14 15  1  1
 14 13  1  0
 15 16  1  0
 16 20  1  0
 16 17  2  0
 17 18  1  0
 19 18  1  0
 20 19  2  0
 21 14  1  0
 22 21  2  0
 24 23  1  0
 24 25  1  0
 26 25  1  0
 27 26  1  6
 27 28  1  0
 28 21  1  0
 29 31  1  0
 29 27  1  0
 30 29  2  0
M  END
$$$$
