YHM.pdb
     RDKit          3D

 31 32  0  0  1  0  0  0  0  0999 V2000
   31.6578  -16.8515  -18.8088 O   0  0  0  0  0  0  0  0  0  0  0  0
   30.6250  -17.0879  -17.9161 C   0  0  0  0  0  0  0  0  0  0  0  0
   30.2703  -18.3410  -17.4753 C   0  0  0  0  0  0  0  0  0  0  0  0
   29.2446  -18.5248  -16.5944 C   0  0  0  0  0  0  0  0  0  0  0  0
   28.5561  -17.4084  -16.1450 C   0  0  0  0  0  0  0  0  0  0  0  0
   27.4463  -17.6312  -15.2063 C   0  0  0  0  0  0  0  0  0  0  0  0
   26.2413  -18.2909  -15.8255 C   0  0  2  0  0  0  0  0  0  0  0  0
   25.6781  -17.3527  -16.8140 N   0  0  0  0  0  0  0  0  0  0  0  0
   25.2502  -18.5841  -14.7669 C   0  0  0  0  0  0  0  0  0  0  0  0
   24.5239  -17.6660  -14.3172 O   0  0  0  0  0  0  0  0  0  0  0  0
   28.8770  -16.1498  -16.5583 C   0  0  0  0  0  0  0  0  0  0  0  0
   29.9156  -15.9902  -17.4472 C   0  0  0  0  0  0  0  0  0  0  0  0
   25.1188  -19.9061  -14.2575 N   0  0  0  0  0  0  0  0  0  0  0  0
   24.1289  -20.2505  -13.2746 C   0  0  1  0  0  0  0  0  0  0  0  0
   23.0685  -21.1732  -13.7923 C   0  0  0  0  0  0  0  0  0  0  0  0
   22.0257  -21.4958  -12.8266 C   0  0  0  0  0  0  0  0  0  0  0  0
   21.9195  -20.9879  -11.5588 C   0  0  0  0  0  0  0  0  0  0  0  0
   20.8122  -21.5472  -11.0050 N   0  0  0  0  0  0  0  0  0  0  0  0
   20.2555  -22.3677  -11.8929 C   0  0  0  0  0  0  0  0  0  0  0  0
   21.0013  -22.3329  -13.0056 N   0  0  0  0  0  0  0  0  0  0  0  0
   24.7794  -20.7457  -12.0368 C   0  0  0  0  0  0  0  0  0  0  0  0
   25.5346  -21.7697  -12.1500 O   0  0  0  0  0  0  0  0  0  0  0  0
   28.4641  -19.7788   -5.2684 C   0  0  0  0  0  0  0  0  0  0  0  0
   27.6551  -19.0536   -6.7211 S   0  0  0  0  0  0  0  0  0  0  0  0
   26.6993  -20.2795   -7.6235 C   0  0  0  0  0  0  0  0  0  0  0  0
   26.1055  -19.8358   -8.9019 C   0  0  0  0  0  0  0  0  0  0  0  0
   25.2520  -20.8062   -9.5982 C   0  0  2  0  0  0  0  0  0  0  0  0
   24.6291  -20.1839  -10.7789 N   0  0  0  0  0  0  0  0  0  0  0  0
   24.2519  -21.4681   -8.7797 C   0  0  0  0  0  0  0  0  0  0  0  0
   24.4196  -22.4084   -7.9903 O   0  0  0  0  0  0  0  0  0  0  0  0
   22.9280  -21.0005   -8.8804 O   0  0  0  0  0  0  0  0  0  0  0  0
  2  1  1  0
  3  2  2  0
  4  3  1  0
  5  4  2  0
  5 11  1  0
  6  5  1  0
  7  6  1  0
  7  8  1  6
  9 10  2  0
  9  7  1  0
 11 12  2  0
 12  2  1  0
 13  9  1  0
 14 15  1  6
 14 13  1  0
 15 16  1  0
 16 20  1  0
 16 17  2  0
 17 18  1  0
 19 18  1  0
 20 19  2  0
 21 14  1  0
 22 21  2  0
 24 23  1  0
 24 25  1  0
 26 25  1  0
 27 26  1  1
 27 28  1  0
 28 21  1  0
 29 31  1  0
 29 27  1  0
 30 29  2  0
M  END
$$$$
