YHM.pdb
     RDKit          3D

 31 32  0  0  1  0  0  0  0  0999 V2000
   15.3807  -13.1811  -19.0197 O   0  0  0  0  0  0  0  0  0  0  0  0
   16.0471  -14.2682  -18.4777 C   0  0  0  0  0  0  0  0  0  0  0  0
   16.3889  -15.3889  -19.1972 C   0  0  0  0  0  0  0  0  0  0  0  0
   17.0460  -16.4360  -18.6196 C   0  0  0  0  0  0  0  0  0  0  0  0
   17.3677  -16.3483  -17.2738 C   0  0  0  0  0  0  0  0  0  0  0  0
   18.0641  -17.4937  -16.6692 C   0  0  0  0  0  0  0  0  0  0  0  0
   19.5472  -17.2894  -16.4971 C   0  0  2  0  0  0  0  0  0  0  0  0
   20.1217  -17.0458  -17.8331 N   0  0  0  0  0  0  0  0  0  0  0  0
   20.1380  -18.5039  -15.8931 C   0  0  0  0  0  0  0  0  0  0  0  0
   21.3126  -18.8376  -16.1788 O   0  0  0  0  0  0  0  0  0  0  0  0
   17.0462  -15.2547  -16.5264 C   0  0  0  0  0  0  0  0  0  0  0  0
   16.3834  -14.2113  -17.1317 C   0  0  0  0  0  0  0  0  0  0  0  0
   19.3765  -19.2947  -14.9880 N   0  0  0  0  0  0  0  0  0  0  0  0
   19.9241  -20.4550  -14.3411 C   0  0  1  0  0  0  0  0  0  0  0  0
   21.2115  -20.1873  -13.6236 C   0  0  0  0  0  0  0  0  0  0  0  0
   22.3278  -19.8445  -14.4955 C   0  0  0  0  0  0  0  0  0  0  0  0
   22.9002  -18.6060  -14.6190 C   0  0  0  0  0  0  0  0  0  0  0  0
   23.9011  -18.7268  -15.5297 N   0  0  0  0  0  0  0  0  0  0  0  0
   23.9469  -19.9879  -15.9528 C   0  0  0  0  0  0  0  0  0  0  0  0
   22.9827  -20.6677  -15.3174 N   0  0  0  0  0  0  0  0  0  0  0  0
   18.9007  -21.0996  -13.4821 C   0  0  0  0  0  0  0  0  0  0  0  0
   18.2944  -20.3509  -12.6434 O   0  0  0  0  0  0  0  0  0  0  0  0
   18.7117  -24.0034   -8.0095 C   0  0  0  0  0  0  0  0  0  0  0  0
   17.3396  -24.5248   -9.0756 S   0  0  0  0  0  0  0  0  0  0  0  0
   16.8785  -23.2316  -10.2357 C   0  0  0  0  0  0  0  0  0  0  0  0
   17.8967  -22.8589  -11.2397 C   0  0  0  0  0  0  0  0  0  0  0  0
   17.4994  -22.9742  -12.6481 C   0  0  2  0  0  0  0  0  0  0  0  0
   18.5579  -22.4418  -13.5229 N   0  0  0  0  0  0  0  0  0  0  0  0
   16.2123  -22.3954  -12.9898 C   0  0  0  0  0  0  0  0  0  0  0  0
   15.1415  -22.9883  -13.1829 O   0  0  0  0  0  0  0  0  0  0  0  0
   16.1529  -20.9952  -13.1219 O   0  0  0  0  0  0  0  0  0  0  0  0
  2  1  1  0
  3  2  2  0
  4  3  1  0
  5  4  2  0
  5 11  1  0
  6  5  1  0
  7  6  1  0
  7  8  1  6
  9 10  2  0
  9  7  1  0
 11 12  2  0
 12  2  1  0
 13  9  1  0
 14 15  1  1
 14 13  1  0
 15 16  1  0
 16 20  1  0
 16 17  2  0
 17 18  1  0
 19 18  1  0
 20 19  2  0
 21 14  1  0
 22 21  2  0
 24 23  1  0
 24 25  1  0
 26 25  1  0
 27 26  1  1
 27 28  1  0
 28 21  1  0
 29 31  1  0
 29 27  1  0
 30 29  2  0
M  END
$$$$
