YHM.pdb
     RDKit          3D

 31 32  0  0  1  0  0  0  0  0999 V2000
   16.1736  -15.7502  -17.6353 O   0  0  0  0  0  0  0  0  0  0  0  0
   16.8603  -14.6240  -17.2117 C   0  0  0  0  0  0  0  0  0  0  0  0
   17.2210  -13.5923  -18.0461 C   0  0  0  0  0  0  0  0  0  0  0  0
   17.8974  -12.5017  -17.5827 C   0  0  0  0  0  0  0  0  0  0  0  0
   18.2195  -12.4517  -16.2350 C   0  0  0  0  0  0  0  0  0  0  0  0
   18.9598  -11.2732  -15.7602 C   0  0  0  0  0  0  0  0  0  0  0  0
   20.4326  -11.3042  -16.0778 C   0  0  2  0  0  0  0  0  0  0  0  0
   21.0301  -12.4150  -15.3140 N   0  0  0  0  0  0  0  0  0  0  0  0
   21.0424  -10.0160  -15.6809 C   0  0  0  0  0  0  0  0  0  0  0  0
   21.1672   -9.7300  -14.4662 O   0  0  0  0  0  0  0  0  0  0  0  0
   17.8799  -13.4539  -15.3758 C   0  0  0  0  0  0  0  0  0  0  0  0
   17.1978  -14.5436  -15.8672 C   0  0  0  0  0  0  0  0  0  0  0  0
   21.4884   -9.1003  -16.6744 N   0  0  0  0  0  0  0  0  0  0  0  0
   22.1876   -7.8907  -16.3389 C   0  0  1  0  0  0  0  0  0  0  0  0
   23.6283   -7.8999  -16.7492 C   0  0  0  0  0  0  0  0  0  0  0  0
   24.4191   -8.9674  -16.1502 C   0  0  0  0  0  0  0  0  0  0  0  0
   23.9709   -9.8833  -15.2354 C   0  0  0  0  0  0  0  0  0  0  0  0
   25.0229  -10.6921  -14.9441 N   0  0  0  0  0  0  0  0  0  0  0  0
   26.0791  -10.2938  -15.6492 C   0  0  0  0  0  0  0  0  0  0  0  0
   25.7049   -9.2386  -16.3855 N   0  0  0  0  0  0  0  0  0  0  0  0
   21.4457   -6.7082  -16.8408 C   0  0  0  0  0  0  0  0  0  0  0  0
   20.9364   -6.7977  -18.0088 O   0  0  0  0  0  0  0  0  0  0  0  0
   15.3724   -3.1111  -18.2983 C   0  0  0  0  0  0  0  0  0  0  0  0
   16.4271   -4.4444  -17.6651 S   0  0  0  0  0  0  0  0  0  0  0  0
   18.1037   -3.8711  -17.3630 C   0  0  0  0  0  0  0  0  0  0  0  0
   19.0874   -4.9014  -16.9698 C   0  0  0  0  0  0  0  0  0  0  0  0
   20.4537   -4.4342  -16.7058 C   0  0  2  0  0  0  0  0  0  0  0  0
   21.2666   -5.5251  -16.1417 N   0  0  0  0  0  0  0  0  0  0  0  0
   20.5648   -3.2377  -15.8908 C   0  0  0  0  0  0  0  0  0  0  0  0
   21.1429   -3.1128  -14.8020 O   0  0  0  0  0  0  0  0  0  0  0  0
   19.9491   -2.0694  -16.3784 O   0  0  0  0  0  0  0  0  0  0  0  0
  2  1  1  0
  3  2  2  0
  4  3  1  0
  5  4  2  0
  5 11  1  0
  6  5  1  0
  7  6  1  0
  7  8  1  1
  9 10  2  0
  9  7  1  0
 11 12  2  0
 12  2  1  0
 13  9  1  0
 14 15  1  6
 14 13  1  0
 15 16  1  0
 16 20  1  0
 16 17  2  0
 17 18  1  0
 19 18  1  0
 20 19  2  0
 21 14  1  0
 22 21  2  0
 24 23  1  0
 24 25  1  0
 26 25  1  0
 27 26  1  1
 27 28  1  0
 28 21  1  0
 29 31  1  0
 29 27  1  0
 30 29  2  0
M  END
$$$$
