YHM.pdb
     RDKit          3D

 31 32  0  0  1  0  0  0  0  0999 V2000
   17.0915  -17.1087  -14.7096 O   0  0  0  0  0  0  0  0  0  0  0  0
   18.1651  -17.8638  -14.2662 C   0  0  0  0  0  0  0  0  0  0  0  0
   18.0328  -19.0594  -13.6002 C   0  0  0  0  0  0  0  0  0  0  0  0
   19.1209  -19.7687  -13.1823 C   0  0  0  0  0  0  0  0  0  0  0  0
   20.3814  -19.2545  -13.4452 C   0  0  0  0  0  0  0  0  0  0  0  0
   21.5393  -20.0292  -12.9744 C   0  0  0  0  0  0  0  0  0  0  0  0
   22.3715  -20.6236  -14.0811 C   0  0  2  0  0  0  0  0  0  0  0  0
   21.5066  -21.5410  -14.8458 N   0  0  0  0  0  0  0  0  0  0  0  0
   23.5116  -21.3586  -13.4906 C   0  0  0  0  0  0  0  0  0  0  0  0
   23.3498  -22.5261  -13.0621 O   0  0  0  0  0  0  0  0  0  0  0  0
   20.5544  -18.0729  -14.1024 C   0  0  0  0  0  0  0  0  0  0  0  0
   19.4412  -17.3758  -14.5140 C   0  0  0  0  0  0  0  0  0  0  0  0
   24.7922  -20.7440  -13.4078 N   0  0  0  0  0  0  0  0  0  0  0  0
   25.9156  -21.3998  -12.7975 C   0  0  1  0  0  0  0  0  0  0  0  0
   27.1732  -21.3070  -13.6060 C   0  0  0  0  0  0  0  0  0  0  0  0
   27.3517  -20.0379  -14.3000 C   0  0  0  0  0  0  0  0  0  0  0  0
   26.7444  -19.6703  -15.4716 C   0  0  0  0  0  0  0  0  0  0  0  0
   27.1848  -18.4189  -15.7645 N   0  0  0  0  0  0  0  0  0  0  0  0
   28.0301  -18.0275  -14.8138 C   0  0  0  0  0  0  0  0  0  0  0  0
   28.1289  -19.0212  -13.9201 N   0  0  0  0  0  0  0  0  0  0  0  0
   26.0864  -20.9383  -11.3981 C   0  0  0  0  0  0  0  0  0  0  0  0
   25.9378  -19.6887  -11.1788 O   0  0  0  0  0  0  0  0  0  0  0  0
   28.7017  -19.2789   -4.8487 C   0  0  0  0  0  0  0  0  0  0  0  0
   28.2609  -20.3623   -6.2353 S   0  0  0  0  0  0  0  0  0  0  0  0
   27.6707  -19.4189   -7.6468 C   0  0  0  0  0  0  0  0  0  0  0  0
   27.5347  -20.1589   -8.9187 C   0  0  0  0  0  0  0  0  0  0  0  0
   26.5009  -21.2001   -8.9622 C   0  0  2  0  0  0  0  0  0  0  0  0
   26.3925  -21.7559  -10.3218 N   0  0  0  0  0  0  0  0  0  0  0  0
   25.1943  -20.8130   -8.4609 C   0  0  0  0  0  0  0  0  0  0  0  0
   24.6185  -19.7253   -8.6054 O   0  0  0  0  0  0  0  0  0  0  0  0
   24.4805  -21.7738   -7.7200 O   0  0  0  0  0  0  0  0  0  0  0  0
  2  1  1  0
  3  2  2  0
  4  3  1  0
  5  4  2  0
  5 11  1  0
  6  5  1  0
  7  6  1  0
  7  8  1  1
  9 10  2  0
  9  7  1  0
 11 12  2  0
 12  2  1  0
 13  9  1  0
 14 15  1  6
 14 13  1  0
 15 16  1  0
 16 20  1  0
 16 17  2  0
 17 18  1  0
 19 18  1  0
 20 19  2  0
 21 14  1  0
 22 21  2  0
 24 23  1  0
 24 25  1  0
 26 25  1  0
 27 26  1  6
 27 28  1  0
 28 21  1  0
 29 31  1  0
 29 27  1  0
 30 29  2  0
M  END
$$$$
