YHM.pdb
     RDKit          3D

 31 32  0  0  1  0  0  0  0  0999 V2000
    9.3293  -14.6237    0.0294 O   0  0  0  0  0  0  0  0  0  0  0  0
   10.1324  -15.5794    0.6304 C   0  0  0  0  0  0  0  0  0  0  0  0
    9.8715  -16.9288    0.5908 C   0  0  0  0  0  0  0  0  0  0  0  0
   10.6925  -17.8335    1.1983 C   0  0  0  0  0  0  0  0  0  0  0  0
   11.8117  -17.3606    1.8663 C   0  0  0  0  0  0  0  0  0  0  0  0
   12.6753  -18.3522    2.5246 C   0  0  0  0  0  0  0  0  0  0  0  0
   13.5739  -19.1076    1.5796 C   0  0  2  0  0  0  0  0  0  0  0  0
   12.7114  -19.8700    0.6580 N   0  0  0  0  0  0  0  0  0  0  0  0
   14.4370  -20.0233    2.3576 C   0  0  0  0  0  0  0  0  0  0  0  0
   14.3863  -21.2591    2.1505 O   0  0  0  0  0  0  0  0  0  0  0  0
   12.1049  -16.0309    1.9284 C   0  0  0  0  0  0  0  0  0  0  0  0
   11.2613  -15.1379    1.3077 C   0  0  0  0  0  0  0  0  0  0  0  0
   15.3255  -19.5050    3.3408 N   0  0  0  0  0  0  0  0  0  0  0  0
   16.2802  -20.3360    4.0208 C   0  0  1  0  0  0  0  0  0  0  0  0
   17.2100  -21.0586    3.0949 C   0  0  0  0  0  0  0  0  0  0  0  0
   18.1589  -21.9416    3.7611 C   0  0  0  0  0  0  0  0  0  0  0  0
   17.9217  -23.2362    4.1412 C   0  0  0  0  0  0  0  0  0  0  0  0
   19.0635  -23.6888    4.7216 N   0  0  0  0  0  0  0  0  0  0  0  0
   19.9706  -22.7150    4.7020 C   0  0  0  0  0  0  0  0  0  0  0  0
   19.4127  -21.6483    4.1134 N   0  0  0  0  0  0  0  0  0  0  0  0
   16.9873  -19.5603    5.0691 C   0  0  0  0  0  0  0  0  0  0  0  0
   17.5538  -18.4756    4.7030 O   0  0  0  0  0  0  0  0  0  0  0  0
   21.7204  -22.2919    9.4194 C   0  0  0  0  0  0  0  0  0  0  0  0
   21.3745  -20.8866    8.3256 S   0  0  0  0  0  0  0  0  0  0  0  0
   19.6138  -20.5351    8.2413 C   0  0  0  0  0  0  0  0  0  0  0  0
   19.2137  -19.3934    7.3926 C   0  0  0  0  0  0  0  0  0  0  0  0
   17.7832  -19.0649    7.3701 C   0  0  2  0  0  0  0  0  0  0  0  0
   17.0771  -19.9231    6.4036 N   0  0  0  0  0  0  0  0  0  0  0  0
   17.4604  -17.6671    7.1462 C   0  0  0  0  0  0  0  0  0  0  0  0
   16.8103  -17.1794    6.2108 O   0  0  0  0  0  0  0  0  0  0  0  0
   17.9331  -16.7394    8.0936 O   0  0  0  0  0  0  0  0  0  0  0  0
  2  1  1  0
  3  2  2  0
  4  3  1  0
  5  4  2  0
  5 11  1  0
  6  5  1  0
  7  6  1  0
  7  8  1  6
  9 10  2  0
  9  7  1  0
 11 12  2  0
 12  2  1  0
 13  9  1  0
 14 15  1  6
 14 13  1  0
 15 16  1  0
 16 20  1  0
 16 17  2  0
 17 18  1  0
 19 18  1  0
 20 19  2  0
 21 14  1  0
 22 21  2  0
 24 23  1  0
 24 25  1  0
 26 25  1  0
 27 26  1  6
 27 28  1  0
 28 21  1  0
 29 31  1  0
 29 27  1  0
 30 29  2  0
M  END
$$$$
