YHM.pdb
     RDKit          3D

 31 32  0  0  1  0  0  0  0  0999 V2000
   27.5357  -29.3719  -16.9853 O   0  0  0  0  0  0  0  0  0  0  0  0
   27.1119  -28.0858  -16.6925 C   0  0  0  0  0  0  0  0  0  0  0  0
   25.7918  -27.7011  -16.6859 C   0  0  0  0  0  0  0  0  0  0  0  0
   25.4220  -26.4213  -16.3909 C   0  0  0  0  0  0  0  0  0  0  0  0
   26.4161  -25.5018  -16.0933 C   0  0  0  0  0  0  0  0  0  0  0  0
   25.9955  -24.1255  -15.7910 C   0  0  0  0  0  0  0  0  0  0  0  0
   25.8522  -23.2462  -17.0064 C   0  0  2  0  0  0  0  0  0  0  0  0
   27.2090  -22.9167  -17.4807 N   0  0  0  0  0  0  0  0  0  0  0  0
   25.1215  -22.0155  -16.6322 C   0  0  0  0  0  0  0  0  0  0  0  0
   25.6994  -21.1206  -15.9706 O   0  0  0  0  0  0  0  0  0  0  0  0
   27.7355  -25.8438  -16.0893 C   0  0  0  0  0  0  0  0  0  0  0  0
   28.0835  -27.1410  -16.3902 C   0  0  0  0  0  0  0  0  0  0  0  0
   23.7637  -21.8442  -17.0218 N   0  0  0  0  0  0  0  0  0  0  0  0
   23.0274  -20.6484  -16.7178 C   0  0  1  0  0  0  0  0  0  0  0  0
   22.1200  -20.2077  -17.8252 C   0  0  0  0  0  0  0  0  0  0  0  0
   21.3833  -18.9809  -17.5492 C   0  0  0  0  0  0  0  0  0  0  0  0
   21.4471  -18.2478  -16.3937 C   0  0  0  0  0  0  0  0  0  0  0  0
   20.6101  -17.1900  -16.5549 N   0  0  0  0  0  0  0  0  0  0  0  0
   20.0508  -17.2646  -17.7604 C   0  0  0  0  0  0  0  0  0  0  0  0
   20.5269  -18.3617  -18.3648 N   0  0  0  0  0  0  0  0  0  0  0  0
   22.3327  -20.7860  -15.4144 C   0  0  0  0  0  0  0  0  0  0  0  0
   21.8476  -21.9343  -15.1357 O   0  0  0  0  0  0  0  0  0  0  0  0
   20.7875  -20.8250   -8.3762 C   0  0  0  0  0  0  0  0  0  0  0  0
   21.4906  -20.8666  -10.0480 S   0  0  0  0  0  0  0  0  0  0  0  0
   21.4649  -19.2408  -10.8141 C   0  0  0  0  0  0  0  0  0  0  0  0
   22.0705  -19.1405  -12.1584 C   0  0  0  0  0  0  0  0  0  0  0  0
   21.5234  -20.0299  -13.1902 C   0  0  2  0  0  0  0  0  0  0  0  0
   22.1731  -19.7694  -14.4860 N   0  0  0  0  0  0  0  0  0  0  0  0
   20.0782  -20.0198  -13.3299 C   0  0  0  0  0  0  0  0  0  0  0  0
   19.3758  -19.1614  -13.8824 O   0  0  0  0  0  0  0  0  0  0  0  0
   19.3724  -21.1060  -12.7789 O   0  0  0  0  0  0  0  0  0  0  0  0
  2  1  1  0
  3  2  2  0
  4  3  1  0
  5  4  2  0
  5 11  1  0
  6  5  1  0
  7  6  1  0
  7  8  1  1
  9 10  2  0
  9  7  1  0
 11 12  2  0
 12  2  1  0
 13  9  1  0
 14 15  1  6
 14 13  1  0
 15 16  1  0
 16 20  1  0
 16 17  2  0
 17 18  1  0
 19 18  1  0
 20 19  2  0
 21 14  1  0
 22 21  2  0
 24 23  1  0
 24 25  1  0
 26 25  1  0
 27 26  1  1
 27 28  1  0
 28 21  1  0
 29 31  1  0
 29 27  1  0
 30 29  2  0
M  END
$$$$
