YQH.pdb
     RDKit          3D

 32 33  0  0  1  0  0  0  0  0999 V2000
   10.4998  -12.9641  -10.4967 O   0  0  0  0  0  0  0  0  0  0  0  0
   11.4605  -11.9439  -10.6193 C   0  0  0  0  0  0  0  0  0  0  0  0
   11.8331  -11.1764   -9.5410 C   0  0  0  0  0  0  0  0  0  0  0  0
   12.7733  -10.1791   -9.6645 C   0  0  0  0  0  0  0  0  0  0  0  0
   13.3904   -9.9010  -10.8855 C   0  0  0  0  0  0  0  0  0  0  0  0
   14.4065   -8.8231  -11.0192 C   0  0  0  0  0  0  0  0  0  0  0  0
   15.7176   -9.4630  -11.3367 C   0  0  2  0  0  0  0  0  0  0  0  0
   16.1723  -10.1316  -10.1066 N   0  0  0  0  0  0  0  0  0  0  0  0
   16.7764   -8.5245  -11.7281 C   0  0  0  0  0  0  0  0  0  0  0  0
   17.4131   -7.9574  -10.7747 O   0  0  0  0  0  0  0  0  0  0  0  0
   13.0054  -10.6798  -11.9566 C   0  0  0  0  0  0  0  0  0  0  0  0
   12.0634  -11.6788  -11.8322 C   0  0  0  0  0  0  0  0  0  0  0  0
   21.4697   -9.4269  -15.0296 N   0  0  0  0  0  0  0  0  0  0  0  0
   21.6757   -8.0312  -14.9145 C   0  0  0  0  0  0  0  0  0  0  0  0
   22.7319   -7.4891  -15.2594 O   0  0  0  0  0  0  0  0  0  0  0  0
   20.5726   -7.2029  -14.3568 C   0  0  0  0  0  0  0  0  0  0  0  0
   19.3976   -7.9585  -13.8996 C   0  0  0  0  0  0  0  0  0  0  0  0
   18.2510   -7.2289  -13.2976 C   0  0  2  0  0  0  0  0  0  0  0  0
   17.1482   -8.1978  -13.0353 N   0  0  0  0  0  0  0  0  0  0  0  0
   17.7050   -6.1188  -14.1097 C   0  0  0  0  0  0  0  0  0  0  0  0
   16.9864   -6.3658  -15.1512 O   0  0  0  0  0  0  0  0  0  0  0  0
   17.8823   -4.7385  -13.8675 N   0  0  0  0  0  0  0  0  0  0  0  0
   17.3059   -3.7154  -14.7366 C   0  0  1  0  0  0  0  0  0  0  0  0
   16.6090   -2.6420  -13.9307 C   0  0  0  0  0  0  0  0  0  0  0  0
   15.2867   -3.0468  -13.4396 C   0  0  0  0  0  0  0  0  0  0  0  0
   14.6108   -4.2330  -13.6939 C   0  0  0  0  0  0  0  0  0  0  0  0
   13.4169   -4.2092  -13.0501 N   0  0  0  0  0  0  0  0  0  0  0  0
   13.3412   -3.0230  -12.3984 C   0  0  0  0  0  0  0  0  0  0  0  0
   14.4751   -2.3361  -12.6438 N   0  0  0  0  0  0  0  0  0  0  0  0
   18.3827   -3.1730  -15.5732 C   0  0  0  0  0  0  0  0  0  0  0  0
   19.5409   -3.6239  -15.4615 O   0  0  0  0  0  0  0  0  0  0  0  0
   18.1350   -2.1725  -16.4811 O   0  0  0  0  0  0  0  0  0  0  0  0
  2  1  1  0
  3  2  2  0
  4  3  1  0
  5  4  2  0
  5 11  1  0
  6  5  1  0
  7  9  1  0
  7  6  1  0
  7  8  1  1
  9 10  2  0
 11 12  2  0
 12  2  1  0
 14 13  1  0
 15 14  2  0
 16 14  1  0
 17 16  1  0
 18 17  1  6
 19 18  1  0
 19  9  1  0
 20 18  1  0
 21 20  2  0
 22 20  1  0
 23 30  1  0
 23 22  1  0
 24 25  1  0
 23 24  1  1
 25 29  1  0
 26 27  1  0
 26 25  2  0
 27 28  1  0
 28 29  2  0
 30 32  1  0
 31 30  2  0
M  END
$$$$
