YQH.pdb
     RDKit          3D

 32 33  0  0  1  0  0  0  0  0999 V2000
   30.7007  -15.7037  -18.9671 O   0  0  0  0  0  0  0  0  0  0  0  0
   29.7238  -16.5095  -18.3547 C   0  0  0  0  0  0  0  0  0  0  0  0
   29.4409  -16.3991  -17.0136 C   0  0  0  0  0  0  0  0  0  0  0  0
   28.4845  -17.1889  -16.4177 C   0  0  0  0  0  0  0  0  0  0  0  0
   27.7596  -18.1355  -17.1439 C   0  0  0  0  0  0  0  0  0  0  0  0
   26.7259  -18.9895  -16.4999 C   0  0  0  0  0  0  0  0  0  0  0  0
   27.4238  -20.1087  -15.8001 C   0  0  2  0  0  0  0  0  0  0  0  0
   27.9754  -20.9850  -16.8464 N   0  0  0  0  0  0  0  0  0  0  0  0
   26.5535  -20.9418  -14.9614 C   0  0  0  0  0  0  0  0  0  0  0  0
   25.9325  -21.8899  -15.5542 O   0  0  0  0  0  0  0  0  0  0  0  0
   28.0555  -18.2335  -18.4872 C   0  0  0  0  0  0  0  0  0  0  0  0
   29.0138  -17.4418  -19.0837 C   0  0  0  0  0  0  0  0  0  0  0  0
   26.4013  -21.3537   -8.7649 N   0  0  0  0  0  0  0  0  0  0  0  0
   25.7364  -20.2202   -9.2909 C   0  0  0  0  0  0  0  0  0  0  0  0
   25.4595  -19.2358   -8.5962 O   0  0  0  0  0  0  0  0  0  0  0  0
   25.3650  -20.2306  -10.7317 C   0  0  0  0  0  0  0  0  0  0  0  0
   25.5579  -21.5181  -11.4142 C   0  0  0  0  0  0  0  0  0  0  0  0
   25.3168  -21.6101  -12.8781 C   0  0  2  0  0  0  0  0  0  0  0  0
   26.3440  -20.7944  -13.5874 N   0  0  0  0  0  0  0  0  0  0  0  0
   23.9809  -21.1651  -13.3331 C   0  0  0  0  0  0  0  0  0  0  0  0
   23.7442  -19.9136  -13.5327 O   0  0  0  0  0  0  0  0  0  0  0  0
   22.8668  -21.9932  -13.5947 N   0  0  0  0  0  0  0  0  0  0  0  0
   21.6008  -21.4606  -14.0926 C   0  0  1  0  0  0  0  0  0  0  0  0
   21.1256  -22.2252  -15.3079 C   0  0  0  0  0  0  0  0  0  0  0  0
   19.8458  -21.7411  -15.8384 C   0  0  0  0  0  0  0  0  0  0  0  0
   19.0400  -20.7318  -15.3280 C   0  0  0  0  0  0  0  0  0  0  0  0
   17.9447  -20.5978  -16.1172 N   0  0  0  0  0  0  0  0  0  0  0  0
   18.0588  -21.5111  -17.1124 C   0  0  0  0  0  0  0  0  0  0  0  0
   19.2088  -22.1905  -16.9290 N   0  0  0  0  0  0  0  0  0  0  0  0
   20.6290  -21.5015  -12.9937 C   0  0  0  0  0  0  0  0  0  0  0  0
   19.8322  -20.5544  -12.8358 O   0  0  0  0  0  0  0  0  0  0  0  0
   20.5824  -22.5705  -12.1324 O   0  0  0  0  0  0  0  0  0  0  0  0
  2  1  1  0
  3  2  2  0
  4  3  1  0
  5  4  2  0
  5 11  1  0
  6  5  1  0
  7  9  1  0
  7  6  1  0
  7  8  1  6
  9 10  2  0
 11 12  2  0
 12  2  1  0
 14 13  1  0
 15 14  2  0
 16 14  1  0
 17 16  1  0
 18 17  1  1
 19 18  1  0
 19  9  1  0
 20 18  1  0
 21 20  2  0
 22 20  1  0
 23 30  1  0
 23 22  1  0
 24 25  1  0
 23 24  1  6
 25 29  1  0
 26 27  1  0
 26 25  2  0
 27 28  1  0
 28 29  2  0
 30 32  1  0
 31 30  2  0
M  END
$$$$
