YQH.pdb
     RDKit          3D

 32 33  0  0  1  0  0  0  0  0999 V2000
   32.6661  -25.6913  -21.4000 O   0  0  0  0  0  0  0  0  0  0  0  0
   31.4595  -25.9925  -20.7425 C   0  0  0  0  0  0  0  0  0  0  0  0
   31.1511  -27.2776  -20.3629 C   0  0  0  0  0  0  0  0  0  0  0  0
   29.9698  -27.5687  -19.7198 C   0  0  0  0  0  0  0  0  0  0  0  0
   29.0329  -26.5769  -19.4239 C   0  0  0  0  0  0  0  0  0  0  0  0
   27.7560  -26.8913  -18.7290 C   0  0  0  0  0  0  0  0  0  0  0  0
   27.9293  -26.5725  -17.2806 C   0  0  2  0  0  0  0  0  0  0  0  0
   28.7801  -27.6307  -16.7122 N   0  0  0  0  0  0  0  0  0  0  0  0
   26.6837  -26.5638  -16.5039 C   0  0  0  0  0  0  0  0  0  0  0  0
   26.7072  -27.1858  -15.3865 O   0  0  0  0  0  0  0  0  0  0  0  0
   29.3577  -25.2938  -19.8113 C   0  0  0  0  0  0  0  0  0  0  0  0
   30.5414  -25.0028  -20.4555 C   0  0  0  0  0  0  0  0  0  0  0  0
   23.5735  -22.8775  -13.6792 N   0  0  0  0  0  0  0  0  0  0  0  0
   24.8612  -22.7137  -14.2440 C   0  0  0  0  0  0  0  0  0  0  0  0
   25.4304  -21.6170  -14.2827 O   0  0  0  0  0  0  0  0  0  0  0  0
   25.5383  -23.9134  -14.8063 C   0  0  0  0  0  0  0  0  0  0  0  0
   24.7809  -25.1675  -14.6882 C   0  0  0  0  0  0  0  0  0  0  0  0
   24.3392  -25.8710  -15.9209 C   0  0  2  0  0  0  0  0  0  0  0  0
   25.4862  -25.9434  -16.8710 N   0  0  0  0  0  0  0  0  0  0  0  0
   23.1932  -25.2580  -16.6285 C   0  0  0  0  0  0  0  0  0  0  0  0
   23.2919  -24.0714  -17.1227 O   0  0  0  0  0  0  0  0  0  0  0  0
   21.9292  -25.8502  -16.8450 N   0  0  0  0  0  0  0  0  0  0  0  0
   20.7592  -25.5032  -16.0419 C   0  0  1  0  0  0  0  0  0  0  0  0
   21.0128  -25.7481  -14.5711 C   0  0  0  0  0  0  0  0  0  0  0  0
   20.7586  -27.1331  -14.1577 C   0  0  0  0  0  0  0  0  0  0  0  0
   20.2516  -28.1718  -14.9276 C   0  0  0  0  0  0  0  0  0  0  0  0
   20.1717  -29.2906  -14.1644 N   0  0  0  0  0  0  0  0  0  0  0  0
   20.6226  -28.9611  -12.9292 C   0  0  0  0  0  0  0  0  0  0  0  0
   20.9716  -27.6590  -12.9431 N   0  0  0  0  0  0  0  0  0  0  0  0
   20.4162  -24.1042  -16.3226 C   0  0  0  0  0  0  0  0  0  0  0  0
   19.2739  -23.6804  -16.0531 O   0  0  0  0  0  0  0  0  0  0  0  0
   21.3365  -23.2502  -16.8796 O   0  0  0  0  0  0  0  0  0  0  0  0
  2  1  1  0
  3  2  2  0
  4  3  1  0
  5  4  2  0
  5 11  1  0
  6  5  1  0
  7  9  1  0
  7  6  1  0
  7  8  1  1
  9 10  2  0
 11 12  2  0
 12  2  1  0
 14 13  1  0
 15 14  2  0
 16 14  1  0
 17 16  1  0
 18 17  1  1
 19 18  1  0
 19  9  1  0
 20 18  1  0
 21 20  2  0
 22 20  1  0
 23 30  1  0
 23 22  1  0
 24 25  1  0
 23 24  1  1
 25 29  1  0
 26 27  1  0
 26 25  2  0
 27 28  1  0
 28 29  2  0
 30 32  1  0
 31 30  2  0
M  END
$$$$
