YQH.pdb
     RDKit          3D

 32 33  0  0  1  0  0  0  0  0999 V2000
   44.2570  -15.1802   -9.2481 O   0  0  0  0  0  0  0  0  0  0  0  0
   43.3221  -14.1400   -9.0966 C   0  0  0  0  0  0  0  0  0  0  0  0
   42.9407  -13.6941   -7.8531 C   0  0  0  0  0  0  0  0  0  0  0  0
   42.0259  -12.6763   -7.7086 C   0  0  0  0  0  0  0  0  0  0  0  0
   41.4447  -12.0512   -8.8133 C   0  0  0  0  0  0  0  0  0  0  0  0
   40.4558  -10.9511   -8.6573 C   0  0  0  0  0  0  0  0  0  0  0  0
   41.1936   -9.6550   -8.7299 C   0  0  2  0  0  0  0  0  0  0  0  0
   41.5250   -9.2775   -7.3463 N   0  0  0  0  0  0  0  0  0  0  0  0
   40.4223   -8.5445   -9.3018 C   0  0  0  0  0  0  0  0  0  0  0  0
   39.6635   -7.9055   -8.4945 O   0  0  0  0  0  0  0  0  0  0  0  0
   41.8380  -12.5102  -10.0528 C   0  0  0  0  0  0  0  0  0  0  0  0
   42.7546  -13.5300  -10.1969 C   0  0  0  0  0  0  0  0  0  0  0  0
   42.2870   -3.6999  -11.7289 N   0  0  0  0  0  0  0  0  0  0  0  0
   40.9586   -3.4989  -12.1748 C   0  0  0  0  0  0  0  0  0  0  0  0
   40.5931   -2.4443  -12.7065 O   0  0  0  0  0  0  0  0  0  0  0  0
   39.9812   -4.6053  -11.9889 C   0  0  0  0  0  0  0  0  0  0  0  0
   40.5265   -5.8178  -11.3620 C   0  0  0  0  0  0  0  0  0  0  0  0
   39.6223   -6.9647  -11.0851 C   0  0  2  0  0  0  0  0  0  0  0  0
   40.4420   -8.1263  -10.6353 N   0  0  0  0  0  0  0  0  0  0  0  0
   38.7850   -7.4051  -12.2230 C   0  0  0  0  0  0  0  0  0  0  0  0
   39.2577   -8.2212  -13.1021 O   0  0  0  0  0  0  0  0  0  0  0  0
   37.4498   -7.0209  -12.4780 N   0  0  0  0  0  0  0  0  0  0  0  0
   36.7172   -7.4850  -13.6536 C   0  0  1  0  0  0  0  0  0  0  0  0
   35.2458   -7.1512  -13.5486 C   0  0  0  0  0  0  0  0  0  0  0  0
   34.4565   -7.6266  -14.6907 C   0  0  0  0  0  0  0  0  0  0  0  0
   34.6821   -8.7526  -15.4716 C   0  0  0  0  0  0  0  0  0  0  0  0
   33.7197   -8.8307  -16.4247 N   0  0  0  0  0  0  0  0  0  0  0  0
   32.8981   -7.7672  -16.2468 C   0  0  0  0  0  0  0  0  0  0  0  0
   33.3564   -7.0533  -15.1990 N   0  0  0  0  0  0  0  0  0  0  0  0
   37.3406   -6.8878  -14.8403 C   0  0  0  0  0  0  0  0  0  0  0  0
   37.6829   -7.6168  -15.7934 O   0  0  0  0  0  0  0  0  0  0  0  0
   37.5541   -5.5332  -14.9191 O   0  0  0  0  0  0  0  0  0  0  0  0
  2  1  1  0
  3  2  2  0
  4  3  1  0
  5  4  2  0
  5 11  1  0
  6  5  1  0
  7  9  1  0
  7  6  1  0
  7  8  1  1
  9 10  2  0
 11 12  2  0
 12  2  1  0
 14 13  1  0
 15 14  2  0
 16 14  1  0
 17 16  1  0
 18 17  1  6
 19 18  1  0
 19  9  1  0
 20 18  1  0
 21 20  2  0
 22 20  1  0
 23 30  1  0
 23 22  1  0
 24 25  1  0
 23 24  1  1
 25 29  1  0
 26 27  1  0
 26 25  2  0
 27 28  1  0
 28 29  2  0
 30 32  1  0
 31 30  2  0
M  END
$$$$
