YQH.pdb
     RDKit          3D

 32 33  0  0  1  0  0  0  0  0999 V2000
   21.4295  -28.1359  -11.8115 O   0  0  0  0  0  0  0  0  0  0  0  0
   21.8650  -29.2051  -11.0078 C   0  0  0  0  0  0  0  0  0  0  0  0
   21.3366  -30.4671  -11.1453 C   0  0  0  0  0  0  0  0  0  0  0  0
   21.7650  -31.5109  -10.3575 C   0  0  0  0  0  0  0  0  0  0  0  0
   22.7522  -31.3381   -9.3856 C   0  0  0  0  0  0  0  0  0  0  0  0
   23.2152  -32.4660   -8.5338 C   0  0  0  0  0  0  0  0  0  0  0  0
   24.6072  -32.8139   -8.9471 C   0  0  2  0  0  0  0  0  0  0  0  0
   24.5035  -33.5211  -10.2339 N   0  0  0  0  0  0  0  0  0  0  0  0
   25.3124  -33.7109   -8.0234 C   0  0  0  0  0  0  0  0  0  0  0  0
   25.0867  -34.9619   -8.1638 O   0  0  0  0  0  0  0  0  0  0  0  0
   23.2714  -30.0666   -9.2606 C   0  0  0  0  0  0  0  0  0  0  0  0
   22.8418  -29.0213  -10.0503 C   0  0  0  0  0  0  0  0  0  0  0  0
   30.5889  -32.9785   -4.8832 N   0  0  0  0  0  0  0  0  0  0  0  0
   30.1838  -34.2100   -4.3147 C   0  0  0  0  0  0  0  0  0  0  0  0
   30.8806  -34.8200   -3.4957 O   0  0  0  0  0  0  0  0  0  0  0  0
   28.8713  -34.7757   -4.7285 C   0  0  0  0  0  0  0  0  0  0  0  0
   28.1478  -33.9924   -5.7402 C   0  0  0  0  0  0  0  0  0  0  0  0
   26.7296  -34.3219   -6.0398 C   0  0  2  0  0  0  0  0  0  0  0  0
   26.1994  -33.3254   -7.0143 N   0  0  0  0  0  0  0  0  0  0  0  0
   25.8218  -34.3514   -4.8716 C   0  0  0  0  0  0  0  0  0  0  0  0
   24.9122  -33.4487   -4.7304 O   0  0  0  0  0  0  0  0  0  0  0  0
   25.8274  -35.3067   -3.8310 N   0  0  0  0  0  0  0  0  0  0  0  0
   24.6028  -35.9437   -3.3525 C   0  0  1  0  0  0  0  0  0  0  0  0
   23.9635  -36.7835   -4.4358 C   0  0  0  0  0  0  0  0  0  0  0  0
   22.5335  -36.5094   -4.6192 C   0  0  0  0  0  0  0  0  0  0  0  0
   21.7396  -35.6187   -3.9086 C   0  0  0  0  0  0  0  0  0  0  0  0
   20.4736  -35.6698   -4.3936 N   0  0  0  0  0  0  0  0  0  0  0  0
   20.4697  -36.5812   -5.3970 C   0  0  0  0  0  0  0  0  0  0  0  0
   21.7176  -37.0765   -5.5191 N   0  0  0  0  0  0  0  0  0  0  0  0
   24.9385  -36.7325   -2.1615 C   0  0  0  0  0  0  0  0  0  0  0  0
   25.8739  -37.5571   -2.2080 O   0  0  0  0  0  0  0  0  0  0  0  0
   24.2364  -36.5771   -0.9912 O   0  0  0  0  0  0  0  0  0  0  0  0
  2  1  1  0
  3  2  2  0
  4  3  1  0
  5  4  2  0
  5 11  1  0
  6  5  1  0
  7  9  1  0
  7  6  1  0
  7  8  1  6
  9 10  2  0
 11 12  2  0
 12  2  1  0
 14 13  1  0
 15 14  2  0
 16 14  1  0
 17 16  1  0
 18 17  1  1
 19 18  1  0
 19  9  1  0
 20 18  1  0
 21 20  2  0
 22 20  1  0
 23 30  1  0
 23 22  1  0
 24 25  1  0
 23 24  1  6
 25 29  1  0
 26 27  1  0
 26 25  2  0
 27 28  1  0
 28 29  2  0
 30 32  1  0
 31 30  2  0
M  END
$$$$
