YQH.pdb
     RDKit          3D

 32 33  0  0  1  0  0  0  0  0999 V2000
   21.7024    2.9756  -14.3705 O   0  0  0  0  0  0  0  0  0  0  0  0
   21.0385    1.7404  -14.4823 C   0  0  0  0  0  0  0  0  0  0  0  0
   19.7864    1.5482  -13.9475 C   0  0  0  0  0  0  0  0  0  0  0  0
   19.1399    0.3385  -14.0587 C   0  0  0  0  0  0  0  0  0  0  0  0
   19.7226   -0.7459  -14.7171 C   0  0  0  0  0  0  0  0  0  0  0  0
   19.0241   -2.0535  -14.8373 C   0  0  0  0  0  0  0  0  0  0  0  0
   18.6610   -2.2515  -16.2720 C   0  0  2  0  0  0  0  0  0  0  0  0
   17.5808   -1.2975  -16.5718 N   0  0  0  0  0  0  0  0  0  0  0  0
   18.1496   -3.5894  -16.5936 C   0  0  0  0  0  0  0  0  0  0  0  0
   16.9035   -3.7864  -16.3831 O   0  0  0  0  0  0  0  0  0  0  0  0
   20.9783   -0.5364  -15.2475 C   0  0  0  0  0  0  0  0  0  0  0  0
   21.6255    0.6758  -15.1358 C   0  0  0  0  0  0  0  0  0  0  0  0
   17.1986   -8.8196  -21.0284 N   0  0  0  0  0  0  0  0  0  0  0  0
   18.1997   -7.9195  -20.5910 C   0  0  0  0  0  0  0  0  0  0  0  0
   18.8298   -7.2010  -21.3753 O   0  0  0  0  0  0  0  0  0  0  0  0
   18.4913   -7.8487  -19.1337 C   0  0  0  0  0  0  0  0  0  0  0  0
   18.9022   -6.5246  -18.6454 C   0  0  0  0  0  0  0  0  0  0  0  0
   18.2385   -5.9525  -17.4447 C   0  0  2  0  0  0  0  0  0  0  0  0
   18.8936   -4.6570  -17.1039 N   0  0  0  0  0  0  0  0  0  0  0  0
   18.2563   -6.8088  -16.2380 C   0  0  0  0  0  0  0  0  0  0  0  0
   18.8341   -6.4027  -15.1594 O   0  0  0  0  0  0  0  0  0  0  0  0
   17.6804   -8.0927  -16.1140 N   0  0  0  0  0  0  0  0  0  0  0  0
   17.5780   -8.7792  -14.8285 C   0  0  1  0  0  0  0  0  0  0  0  0
   16.9116   -7.9026  -13.7916 C   0  0  0  0  0  0  0  0  0  0  0  0
   16.6664   -8.5888  -12.5178 C   0  0  0  0  0  0  0  0  0  0  0  0
   17.5547   -8.7752  -11.4667 C   0  0  0  0  0  0  0  0  0  0  0  0
   16.9306   -9.4603  -10.4758 N   0  0  0  0  0  0  0  0  0  0  0  0
   15.6652   -9.7026  -10.8971 C   0  0  0  0  0  0  0  0  0  0  0  0
   15.5236   -9.1711  -12.1281 N   0  0  0  0  0  0  0  0  0  0  0  0
   16.8534  -10.0370  -15.0434 C   0  0  0  0  0  0  0  0  0  0  0  0
   16.1705  -10.1898  -16.0766 O   0  0  0  0  0  0  0  0  0  0  0  0
   16.9150  -11.0532  -14.1213 O   0  0  0  0  0  0  0  0  0  0  0  0
  2  1  1  0
  3  2  2  0
  4  3  1  0
  5  4  2  0
  5 11  1  0
  6  5  1  0
  7  9  1  0
  7  6  1  0
  7  8  1  1
  9 10  2  0
 11 12  2  0
 12  2  1  0
 14 13  1  0
 15 14  2  0
 16 14  1  0
 17 16  1  0
 18 17  1  6
 19 18  1  0
 19  9  1  0
 20 18  1  0
 21 20  2  0
 22 20  1  0
 23 30  1  0
 23 22  1  0
 24 25  1  0
 23 24  1  1
 25 29  1  0
 26 27  1  0
 26 25  2  0
 27 28  1  0
 28 29  2  0
 30 32  1  0
 31 30  2  0
M  END
$$$$
