YQH.pdb
     RDKit          3D

 32 33  0  0  1  0  0  0  0  0999 V2000
   20.7658  -19.1857  -20.2967 O   0  0  0  0  0  0  0  0  0  0  0  0
   21.2837  -18.0785  -19.6004 C   0  0  0  0  0  0  0  0  0  0  0  0
   21.0194  -16.7906  -20.0031 C   0  0  0  0  0  0  0  0  0  0  0  0
   21.5277  -15.7098  -19.3196 C   0  0  0  0  0  0  0  0  0  0  0  0
   22.3322  -15.8696  -18.1899 C   0  0  0  0  0  0  0  0  0  0  0  0
   22.8818  -14.7015  -17.4511 C   0  0  0  0  0  0  0  0  0  0  0  0
   24.0392  -14.1678  -18.2289 C   0  0  2  0  0  0  0  0  0  0  0  0
   25.1017  -15.1841  -18.1598 N   0  0  0  0  0  0  0  0  0  0  0  0
   24.6068  -12.9210  -17.7011 C   0  0  0  0  0  0  0  0  0  0  0  0
   25.7864  -12.9967  -17.2124 O   0  0  0  0  0  0  0  0  0  0  0  0
   22.5875  -17.1674  -17.7996 C   0  0  0  0  0  0  0  0  0  0  0  0
   22.0779  -18.2499  -18.4848 C   0  0  0  0  0  0  0  0  0  0  0  0
   28.2694  -10.1241  -19.5025 N   0  0  0  0  0  0  0  0  0  0  0  0
   28.0697   -9.1066  -18.5389 C   0  0  0  0  0  0  0  0  0  0  0  0
   28.8572   -8.1635  -18.4017 O   0  0  0  0  0  0  0  0  0  0  0  0
   26.8654   -9.1907  -17.6691 C   0  0  0  0  0  0  0  0  0  0  0  0
   25.9966  -10.3495  -17.9203 C   0  0  0  0  0  0  0  0  0  0  0  0
   24.7029  -10.4608  -17.1968 C   0  0  2  0  0  0  0  0  0  0  0  0
   23.9813  -11.6712  -17.6844 N   0  0  0  0  0  0  0  0  0  0  0  0
   23.7961   -9.2991  -17.3306 C   0  0  0  0  0  0  0  0  0  0  0  0
   23.5117   -8.8253  -18.4954 O   0  0  0  0  0  0  0  0  0  0  0  0
   23.1627   -8.6057  -16.2754 N   0  0  0  0  0  0  0  0  0  0  0  0
   21.9381   -7.8346  -16.4751 C   0  0  1  0  0  0  0  0  0  0  0  0
   20.7950   -8.7253  -16.9080 C   0  0  0  0  0  0  0  0  0  0  0  0
   19.5197   -8.0126  -17.0465 C   0  0  0  0  0  0  0  0  0  0  0  0
   19.2613   -6.8664  -17.7868 C   0  0  0  0  0  0  0  0  0  0  0  0
   17.9537   -6.5333  -17.6455 N   0  0  0  0  0  0  0  0  0  0  0  0
   17.3952   -7.4579  -16.8264 C   0  0  0  0  0  0  0  0  0  0  0  0
   18.3520   -8.3405  -16.4755 N   0  0  0  0  0  0  0  0  0  0  0  0
   21.6452   -7.1191  -15.2278 C   0  0  0  0  0  0  0  0  0  0  0  0
   22.3232   -7.3516  -14.2064 O   0  0  0  0  0  0  0  0  0  0  0  0
   20.6322   -6.1934  -15.1665 O   0  0  0  0  0  0  0  0  0  0  0  0
  2  1  1  0
  3  2  2  0
  4  3  1  0
  5  4  2  0
  5 11  1  0
  6  5  1  0
  7  9  1  0
  7  6  1  0
  7  8  1  1
  9 10  2  0
 11 12  2  0
 12  2  1  0
 14 13  1  0
 15 14  2  0
 16 14  1  0
 17 16  1  0
 18 17  1  6
 19 18  1  0
 19  9  1  0
 20 18  1  0
 21 20  2  0
 22 20  1  0
 23 30  1  0
 23 22  1  0
 24 25  1  0
 23 24  1  1
 25 29  1  0
 26 27  1  0
 26 25  2  0
 27 28  1  0
 28 29  2  0
 30 32  1  0
 31 30  2  0
M  END
$$$$
