YQH.pdb
     RDKit          3D

 32 33  0  0  1  0  0  0  0  0999 V2000
   21.3498  -33.3025  -21.2220 O   0  0  0  0  0  0  0  0  0  0  0  0
   21.7633  -33.5939  -19.9093 C   0  0  0  0  0  0  0  0  0  0  0  0
   21.4854  -32.7441  -18.8647 C   0  0  0  0  0  0  0  0  0  0  0  0
   21.8913  -33.0323  -17.5818 C   0  0  0  0  0  0  0  0  0  0  0  0
   22.6015  -34.1963  -17.2820 C   0  0  0  0  0  0  0  0  0  0  0  0
   23.0406  -34.5078  -15.8955 C   0  0  0  0  0  0  0  0  0  0  0  0
   23.9914  -33.4410  -15.4628 C   0  0  2  0  0  0  0  0  0  0  0  0
   25.2350  -33.6473  -16.2229 N   0  0  0  0  0  0  0  0  0  0  0  0
   24.3496  -33.4826  -14.0398 C   0  0  0  0  0  0  0  0  0  0  0  0
   25.4140  -34.1257  -13.7410 O   0  0  0  0  0  0  0  0  0  0  0  0
   22.8719  -35.0374  -18.3409 C   0  0  0  0  0  0  0  0  0  0  0  0
   22.4649  -34.7481  -19.6260 C   0  0  0  0  0  0  0  0  0  0  0  0
   22.2778  -29.8435   -9.3973 N   0  0  0  0  0  0  0  0  0  0  0  0
   23.2129  -30.6186   -8.6703 C   0  0  0  0  0  0  0  0  0  0  0  0
   23.4675  -30.4010   -7.4803 O   0  0  0  0  0  0  0  0  0  0  0  0
   23.9044  -31.7296   -9.3784 C   0  0  0  0  0  0  0  0  0  0  0  0
   23.6146  -31.8264  -10.8162 C   0  0  0  0  0  0  0  0  0  0  0  0
   24.1232  -32.9923  -11.5853 C   0  0  2  0  0  0  0  0  0  0  0  0
   23.6399  -32.8889  -12.9922 N   0  0  0  0  0  0  0  0  0  0  0  0
   23.7337  -34.3203  -11.0612 C   0  0  0  0  0  0  0  0  0  0  0  0
   22.8288  -35.0170  -11.6595 O   0  0  0  0  0  0  0  0  0  0  0  0
   24.2659  -34.9585   -9.9189 N   0  0  0  0  0  0  0  0  0  0  0  0
   23.7650  -36.2452   -9.4418 C   0  0  1  0  0  0  0  0  0  0  0  0
   24.1953  -37.3723  -10.3540 C   0  0  0  0  0  0  0  0  0  0  0  0
   23.7810  -38.6977   -9.8795 C   0  0  0  0  0  0  0  0  0  0  0  0
   22.5500  -39.3171  -10.0518 C   0  0  0  0  0  0  0  0  0  0  0  0
   22.5810  -40.5366   -9.4582 N   0  0  0  0  0  0  0  0  0  0  0  0
   23.8158  -40.6840   -8.9187 C   0  0  0  0  0  0  0  0  0  0  0  0
   24.5248  -39.5678   -9.1817 N   0  0  0  0  0  0  0  0  0  0  0  0
   24.2367  -36.4322   -8.0648 C   0  0  0  0  0  0  0  0  0  0  0  0
   25.0864  -35.6517   -7.5897 O   0  0  0  0  0  0  0  0  0  0  0  0
   23.7556  -37.4572   -7.2872 O   0  0  0  0  0  0  0  0  0  0  0  0
  2  1  1  0
  3  2  2  0
  4  3  1  0
  5  4  2  0
  5 11  1  0
  6  5  1  0
  7  9  1  0
  7  6  1  0
  7  8  1  6
  9 10  2  0
 11 12  2  0
 12  2  1  0
 14 13  1  0
 15 14  2  0
 16 14  1  0
 17 16  1  0
 18 17  1  1
 19 18  1  0
 19  9  1  0
 20 18  1  0
 21 20  2  0
 22 20  1  0
 23 30  1  0
 23 22  1  0
 24 25  1  0
 23 24  1  6
 25 29  1  0
 26 27  1  0
 26 25  2  0
 27 28  1  0
 28 29  2  0
 30 32  1  0
 31 30  2  0
M  END
$$$$
