TVR.pdb
     RDKit          3D

 26 25  0  0  1  0  0  0  0  0999 V2000
   21.2943  -13.0450  -16.8112 C   0  0  0  0  0  0  0  0  0  0  0  0
   20.5380  -14.3436  -16.9919 C   0  0  1  0  0  0  0  0  0  0  0  0
   21.3623  -15.4019  -16.6306 O   0  0  0  0  0  0  0  0  0  0  0  0
   19.2345  -14.3343  -16.2153 C   0  0  2  0  0  0  0  0  0  0  0  0
   18.5580  -15.5923  -16.3104 N   0  0  0  0  0  0  0  0  0  0  0  0
   18.3748  -13.1888  -16.6140 C   0  0  0  0  0  0  0  0  0  0  0  0
   17.9879  -13.0487  -17.8035 O   0  0  0  0  0  0  0  0  0  0  0  0
   14.9746   -9.9024  -15.5399 C   0  0  0  0  0  0  0  0  0  0  0  0
   15.7671  -11.1659  -15.4123 C   0  0  1  0  0  0  0  0  0  0  0  0
   14.9376  -12.3192  -15.9364 C   0  0  0  0  0  0  0  0  0  0  0  0
   17.0942  -11.0599  -16.0905 C   0  0  2  0  0  0  0  0  0  0  0  0
   17.9438  -12.1974  -15.6919 N   0  0  0  0  0  0  0  0  0  0  0  0
   17.7822   -9.8282  -15.5728 C   0  0  0  0  0  0  0  0  0  0  0  0
   18.4925   -9.9877  -14.5480 O   0  0  0  0  0  0  0  0  0  0  0  0
   22.3220   -9.3792  -12.9654 N   0  0  0  0  0  0  0  0  0  0  0  0
   22.8429   -9.6612  -14.2597 C   0  0  0  0  0  0  0  0  0  0  0  0
   23.4792  -10.7884  -14.3831 N   0  0  0  0  0  0  0  0  0  0  0  0
   22.6735   -8.7601  -15.3465 N   0  0  0  0  0  0  0  0  0  0  0  0
   22.0208   -7.4678  -14.9871 C   0  0  0  0  0  0  0  0  0  0  0  0
   21.1439   -7.0053  -16.0716 C   0  0  0  0  0  0  0  0  0  0  0  0
   19.9169   -7.7807  -16.2821 C   0  0  0  0  0  0  0  0  0  0  0  0
   18.6147   -7.4884  -15.6968 C   0  0  2  0  0  0  0  0  0  0  0  0
   17.6790   -8.5659  -16.1517 N   0  0  0  0  0  0  0  0  0  0  0  0
   17.8870   -6.2567  -15.8550 C   0  0  0  0  0  0  0  0  0  0  0  0
   17.9601   -5.0920  -15.1014 O   0  0  0  0  0  0  0  0  0  0  0  0
   17.0206   -6.1547  -16.8071 O   0  0  0  0  0  0  0  0  0  0  0  0
  2  1  1  1
  2  4  1  0
  3  2  1  0
  4  6  1  0
  4  5  1  6
  6  7  2  0
  9  8  1  6
 10  9  1  0
 11  9  1  0
 11 12  1  1
 12  6  1  0
 13 14  2  0
 13 11  1  0
 15 16  1  0
 16 17  2  0
 18 16  1  0
 19 18  1  0
 20 19  1  0
 20 21  1  0
 22 21  1  6
 22 23  1  0
 23 13  1  0
 24 22  1  0
 24 25  1  0
 26 24  2  0
M  END
$$$$
