TVR.pdb
     RDKit          3D

 26 25  0  0  1  0  0  0  0  0999 V2000
   16.0518   -7.8837   -9.5955 C   0  0  0  0  0  0  0  0  0  0  0  0
   15.6161   -6.4909   -9.1938 C   0  0  1  0  0  0  0  0  0  0  0  0
   14.9295   -6.5611   -7.9882 O   0  0  0  0  0  0  0  0  0  0  0  0
   16.7974   -5.5407   -9.1324 C   0  0  2  0  0  0  0  0  0  0  0  0
   16.4093   -4.2518   -8.6451 N   0  0  0  0  0  0  0  0  0  0  0  0
   17.5050   -5.4713  -10.4381 C   0  0  0  0  0  0  0  0  0  0  0  0
   17.2399   -4.5692  -11.2748 O   0  0  0  0  0  0  0  0  0  0  0  0
   20.9379   -7.7154  -11.0950 C   0  0  0  0  0  0  0  0  0  0  0  0
   20.5978   -6.5975  -12.0308 C   0  0  1  0  0  0  0  0  0  0  0  0
   21.2668   -6.8548  -13.3646 C   0  0  0  0  0  0  0  0  0  0  0  0
   19.1211   -6.4090  -12.1572 C   0  0  2  0  0  0  0  0  0  0  0  0
   18.5081   -6.4039  -10.8160 N   0  0  0  0  0  0  0  0  0  0  0  0
   18.5593   -7.6101  -12.8644 C   0  0  0  0  0  0  0  0  0  0  0  0
   18.5396   -8.6770  -12.2001 O   0  0  0  0  0  0  0  0  0  0  0  0
   11.4340   -9.3584  -11.8381 N   0  0  0  0  0  0  0  0  0  0  0  0
   12.2246  -10.4964  -11.5126 C   0  0  0  0  0  0  0  0  0  0  0  0
   11.7048  -11.3226  -10.6536 N   0  0  0  0  0  0  0  0  0  0  0  0
   13.5038  -10.7097  -12.0955 N   0  0  0  0  0  0  0  0  0  0  0  0
   14.0243   -9.5603  -12.8911 C   0  0  0  0  0  0  0  0  0  0  0  0
   15.3254   -9.8859  -13.4912 C   0  0  0  0  0  0  0  0  0  0  0  0
   16.0148   -8.7838  -14.1704 C   0  0  0  0  0  0  0  0  0  0  0  0
   17.3773   -8.8216  -14.6860 C   0  0  2  0  0  0  0  0  0  0  0  0
   18.0742   -7.6004  -14.1697 N   0  0  0  0  0  0  0  0  0  0  0  0
   17.7406   -8.9115  -16.0759 C   0  0  0  0  0  0  0  0  0  0  0  0
   17.9695  -10.0413  -16.8510 O   0  0  0  0  0  0  0  0  0  0  0  0
   17.9019   -7.8260  -16.7564 O   0  0  0  0  0  0  0  0  0  0  0  0
  2  1  1  1
  2  4  1  0
  3  2  1  0
  4  6  1  0
  4  5  1  6
  6  7  2  0
  9  8  1  1
 10  9  1  0
 11  9  1  0
 11 12  1  1
 12  6  1  0
 13 14  2  0
 13 11  1  0
 15 16  1  0
 16 17  2  0
 18 16  1  0
 19 18  1  0
 20 19  1  0
 20 21  1  0
 22 21  1  6
 22 23  1  0
 23 13  1  0
 24 22  1  0
 24 25  1  0
 26 24  2  0
M  END
$$$$
