TVR.pdb
     RDKit          3D

 26 25  0  0  1  0  0  0  0  0999 V2000
   20.3115  -16.8243  -12.9917 C   0  0  0  0  0  0  0  0  0  0  0  0
   19.6531  -18.0017  -13.6782 C   0  0  1  0  0  0  0  0  0  0  0  0
   18.2849  -17.7737  -13.7557 O   0  0  0  0  0  0  0  0  0  0  0  0
   20.2738  -18.2641  -15.0377 C   0  0  2  0  0  0  0  0  0  0  0  0
   20.0980  -17.1495  -15.9187 N   0  0  0  0  0  0  0  0  0  0  0  0
   19.7811  -19.5398  -15.6209 C   0  0  0  0  0  0  0  0  0  0  0  0
   18.8422  -19.5524  -16.4589 O   0  0  0  0  0  0  0  0  0  0  0  0
   20.5898  -24.1312  -17.0020 C   0  0  0  0  0  0  0  0  0  0  0  0
   20.9482  -22.7325  -16.6066 C   0  0  1  0  0  0  0  0  0  0  0  0
   21.3538  -21.9622  -17.8455 C   0  0  0  0  0  0  0  0  0  0  0  0
   19.8417  -22.0673  -15.8548 C   0  0  2  0  0  0  0  0  0  0  0  0
   20.3309  -20.8031  -15.2737 N   0  0  0  0  0  0  0  0  0  0  0  0
   19.4793  -22.9451  -14.6901 C   0  0  0  0  0  0  0  0  0  0  0  0
   19.8871  -22.5588  -13.5656 O   0  0  0  0  0  0  0  0  0  0  0  0
   18.5344  -24.3160   -7.2198 N   0  0  0  0  0  0  0  0  0  0  0  0
   18.4594  -25.3782   -8.1643 C   0  0  0  0  0  0  0  0  0  0  0  0
   18.6594  -26.5733   -7.6927 N   0  0  0  0  0  0  0  0  0  0  0  0
   18.1822  -25.1389   -9.5382 N   0  0  0  0  0  0  0  0  0  0  0  0
   18.3759  -23.7257   -9.9749 C   0  0  0  0  0  0  0  0  0  0  0  0
   17.8882  -23.5307  -11.3471 C   0  0  0  0  0  0  0  0  0  0  0  0
   18.7737  -24.0007  -12.4178 C   0  0  0  0  0  0  0  0  0  0  0  0
   18.3823  -24.8531  -13.5330 C   0  0  2  0  0  0  0  0  0  0  0  0
   18.7388  -24.1202  -14.7897 N   0  0  0  0  0  0  0  0  0  0  0  0
   17.0611  -25.3785  -13.7572 C   0  0  0  0  0  0  0  0  0  0  0  0
   16.1629  -25.0872  -14.7761 O   0  0  0  0  0  0  0  0  0  0  0  0
   16.5763  -26.2400  -12.9265 O   0  0  0  0  0  0  0  0  0  0  0  0
  2  1  1  6
  2  4  1  0
  3  2  1  0
  4  6  1  0
  4  5  1  6
  6  7  2  0
  9  8  1  6
 10  9  1  0
 11  9  1  0
 11 12  1  1
 12  6  1  0
 13 14  2  0
 13 11  1  0
 15 16  1  0
 16 17  2  0
 18 16  1  0
 19 18  1  0
 20 19  1  0
 20 21  1  0
 22 21  1  1
 22 23  1  0
 23 13  1  0
 24 22  1  0
 24 25  1  0
 26 24  2  0
M  END
$$$$
