TVR.pdb
     RDKit          3D

 26 25  0  0  1  0  0  0  0  0999 V2000
   28.5945  -19.9210  -17.5545 C   0  0  0  0  0  0  0  0  0  0  0  0
   27.4554  -20.4390  -16.7028 C   0  0  1  0  0  0  0  0  0  0  0  0
   26.4709  -20.9614  -17.5321 O   0  0  0  0  0  0  0  0  0  0  0  0
   27.9464  -21.4477  -15.6810 C   0  0  2  0  0  0  0  0  0  0  0  0
   28.5223  -22.5962  -16.3124 N   0  0  0  0  0  0  0  0  0  0  0  0
   26.8759  -21.8018  -14.7120 C   0  0  0  0  0  0  0  0  0  0  0  0
   26.2606  -22.8967  -14.7936 O   0  0  0  0  0  0  0  0  0  0  0  0
   24.7477  -20.7984  -10.3222 C   0  0  0  0  0  0  0  0  0  0  0  0
   25.8317  -20.6186  -11.3389 C   0  0  1  0  0  0  0  0  0  0  0  0
   27.1518  -21.0366  -10.7263 C   0  0  0  0  0  0  0  0  0  0  0  0
   25.5309  -21.3500  -12.6065 C   0  0  2  0  0  0  0  0  0  0  0  0
   26.4877  -20.9401  -13.6511 N   0  0  0  0  0  0  0  0  0  0  0  0
   24.1780  -20.9069  -13.0876 C   0  0  0  0  0  0  0  0  0  0  0  0
   24.1245  -19.7538  -13.5852 O   0  0  0  0  0  0  0  0  0  0  0  0
   17.5457  -25.8361  -15.2418 N   0  0  0  0  0  0  0  0  0  0  0  0
   17.2151  -24.9975  -14.1402 C   0  0  0  0  0  0  0  0  0  0  0  0
   16.2740  -25.4336  -13.3562 N   0  0  0  0  0  0  0  0  0  0  0  0
   17.8783  -23.7596  -13.9174 N   0  0  0  0  0  0  0  0  0  0  0  0
   18.9511  -23.4423  -14.9042 C   0  0  0  0  0  0  0  0  0  0  0  0
   19.5946  -22.1609  -14.5833 C   0  0  0  0  0  0  0  0  0  0  0  0
   20.9528  -22.2421  -14.0358 C   0  0  0  0  0  0  0  0  0  0  0  0
   21.7446  -21.1176  -13.5538 C   0  0  2  0  0  0  0  0  0  0  0  0
   23.0234  -21.6820  -13.0157 N   0  0  0  0  0  0  0  0  0  0  0  0
   21.3123  -20.1504  -12.5794 C   0  0  0  0  0  0  0  0  0  0  0  0
   20.6256  -18.9583  -12.7720 O   0  0  0  0  0  0  0  0  0  0  0  0
   21.5753  -20.3526  -11.3314 O   0  0  0  0  0  0  0  0  0  0  0  0
  2  1  1  6
  2  4  1  0
  3  2  1  0
  4  6  1  0
  4  5  1  6
  6  7  2  0
  9  8  1  1
 10  9  1  0
 11  9  1  0
 11 12  1  6
 12  6  1  0
 13 14  2  0
 13 11  1  0
 15 16  1  0
 16 17  2  0
 18 16  1  0
 19 18  1  0
 20 19  1  0
 20 21  1  0
 22 21  1  1
 22 23  1  0
 23 13  1  0
 24 22  1  0
 24 25  1  0
 26 24  2  0
M  END
$$$$
