TVR.pdb
     RDKit          3D

 26 25  0  0  1  0  0  0  0  0999 V2000
   21.1367  -17.5316  -15.5492 C   0  0  0  0  0  0  0  0  0  0  0  0
   21.1940  -17.2280  -17.0309 C   0  0  1  0  0  0  0  0  0  0  0  0
   20.1512  -16.3704  -17.3582 O   0  0  0  0  0  0  0  0  0  0  0  0
   22.5482  -16.6694  -17.4266 C   0  0  2  0  0  0  0  0  0  0  0  0
   22.5924  -16.3370  -18.8183 N   0  0  0  0  0  0  0  0  0  0  0  0
   23.6499  -17.5807  -17.0189 C   0  0  0  0  0  0  0  0  0  0  0  0
   23.8519  -18.6674  -17.6210 O   0  0  0  0  0  0  0  0  0  0  0  0
   27.8597  -18.2359  -14.4960 C   0  0  0  0  0  0  0  0  0  0  0  0
   26.8410  -17.4151  -15.2236 C   0  0  1  0  0  0  0  0  0  0  0  0
   27.4785  -16.8343  -16.4683 C   0  0  0  0  0  0  0  0  0  0  0  0
   25.6070  -18.2015  -15.5254 C   0  0  2  0  0  0  0  0  0  0  0  0
   24.5286  -17.2859  -15.9420 N   0  0  0  0  0  0  0  0  0  0  0  0
   25.1388  -18.8379  -14.2471 C   0  0  0  0  0  0  0  0  0  0  0  0
   24.5568  -18.0739  -13.4362 O   0  0  0  0  0  0  0  0  0  0  0  0
   18.2379  -19.7643  -12.1069 N   0  0  0  0  0  0  0  0  0  0  0  0
   18.5013  -21.0827  -11.6396 C   0  0  0  0  0  0  0  0  0  0  0  0
   17.4593  -21.7895  -11.3151 N   0  0  0  0  0  0  0  0  0  0  0  0
   19.8261  -21.5888  -11.5368 N   0  0  0  0  0  0  0  0  0  0  0  0
   20.8118  -20.9419  -12.4506 C   0  0  0  0  0  0  0  0  0  0  0  0
   22.1675  -21.4512  -12.2026 C   0  0  0  0  0  0  0  0  0  0  0  0
   23.2193  -20.9390  -13.0874 C   0  0  0  0  0  0  0  0  0  0  0  0
   24.6132  -20.7274  -12.7184 C   0  0  2  0  0  0  0  0  0  0  0  0
   25.3079  -20.1830  -13.9286 N   0  0  0  0  0  0  0  0  0  0  0  0
   25.4971  -21.7321  -12.1884 C   0  0  0  0  0  0  0  0  0  0  0  0
   25.6383  -22.1730  -10.8786 O   0  0  0  0  0  0  0  0  0  0  0  0
   26.3070  -22.3434  -12.9870 O   0  0  0  0  0  0  0  0  0  0  0  0
  2  1  1  1
  2  4  1  0
  3  2  1  0
  4  6  1  0
  4  5  1  6
  6  7  2  0
  9  8  1  6
 10  9  1  0
 11  9  1  0
 11 12  1  1
 12  6  1  0
 13 14  2  0
 13 11  1  0
 15 16  1  0
 16 17  2  0
 18 16  1  0
 19 18  1  0
 20 19  1  0
 20 21  1  0
 22 21  1  6
 22 23  1  0
 23 13  1  0
 24 22  1  0
 24 25  1  0
 26 24  2  0
M  END
$$$$
