TVR.pdb
     RDKit          3D

 26 25  0  0  1  0  0  0  0  0999 V2000
   24.3295  -23.7526  -12.7856 C   0  0  0  0  0  0  0  0  0  0  0  0
   24.3782  -22.3145  -13.2553 C   0  0  1  0  0  0  0  0  0  0  0  0
   23.2990  -21.6252  -12.7167 O   0  0  0  0  0  0  0  0  0  0  0  0
   25.7073  -21.6679  -12.9122 C   0  0  2  0  0  0  0  0  0  0  0  0
   25.9627  -21.7089  -11.5042 N   0  0  0  0  0  0  0  0  0  0  0  0
   25.8020  -20.2941  -13.4728 C   0  0  0  0  0  0  0  0  0  0  0  0
   25.6052  -19.2819  -12.7512 O   0  0  0  0  0  0  0  0  0  0  0  0
   27.0467  -17.3785  -17.3257 C   0  0  0  0  0  0  0  0  0  0  0  0
   27.0423  -18.7058  -16.6335 C   0  0  1  0  0  0  0  0  0  0  0  0
   28.4734  -19.1278  -16.3749 C   0  0  0  0  0  0  0  0  0  0  0  0
   26.2186  -18.6794  -15.3873 C   0  0  2  0  0  0  0  0  0  0  0  0
   26.1153  -20.0432  -14.8357 N   0  0  0  0  0  0  0  0  0  0  0  0
   24.8202  -18.2786  -15.7644 C   0  0  0  0  0  0  0  0  0  0  0  0
   24.0677  -19.2104  -16.1462 O   0  0  0  0  0  0  0  0  0  0  0  0
   19.0417  -19.6717  -11.4020 N   0  0  0  0  0  0  0  0  0  0  0  0
   18.2200  -18.9141  -12.2834 C   0  0  0  0  0  0  0  0  0  0  0  0
   16.9376  -19.0196  -12.0964 N   0  0  0  0  0  0  0  0  0  0  0  0
   18.7752  -18.0940  -13.3037 N   0  0  0  0  0  0  0  0  0  0  0  0
   20.2594  -18.1757  -13.4285 C   0  0  0  0  0  0  0  0  0  0  0  0
   20.7305  -17.4019  -14.5854 C   0  0  0  0  0  0  0  0  0  0  0  0
   22.1706  -17.4623  -14.8569 C   0  0  0  0  0  0  0  0  0  0  0  0
   22.8669  -16.7477  -15.9190 C   0  0  2  0  0  0  0  0  0  0  0  0
   24.3327  -16.9753  -15.7111 N   0  0  0  0  0  0  0  0  0  0  0  0
   22.7338  -15.3434  -16.2053 C   0  0  0  0  0  0  0  0  0  0  0  0
   23.5994  -14.3004  -15.9005 O   0  0  0  0  0  0  0  0  0  0  0  0
   21.6803  -14.9233  -16.8227 O   0  0  0  0  0  0  0  0  0  0  0  0
  2  1  1  1
  2  4  1  0
  3  2  1  0
  4  6  1  0
  4  5  1  1
  6  7  2  0
  9  8  1  1
 10  9  1  0
 11  9  1  0
 11 12  1  6
 12  6  1  0
 13 14  2  0
 13 11  1  0
 15 16  1  0
 16 17  2  0
 18 16  1  0
 19 18  1  0
 20 19  1  0
 20 21  1  0
 22 21  1  1
 22 23  1  0
 23 13  1  0
 24 22  1  0
 24 25  1  0
 26 24  2  0
M  END
$$$$
