TVR.pdb
     RDKit          3D

 26 25  0  0  1  0  0  0  0  0999 V2000
   28.1618  -19.4292  -17.2938 C   0  0  0  0  0  0  0  0  0  0  0  0
   27.1555  -20.1377  -16.4128 C   0  0  1  0  0  0  0  0  0  0  0  0
   26.2318  -20.7935  -17.2169 O   0  0  0  0  0  0  0  0  0  0  0  0
   27.8418  -21.0754  -15.4370 C   0  0  2  0  0  0  0  0  0  0  0  0
   28.6023  -22.0781  -16.1195 N   0  0  0  0  0  0  0  0  0  0  0  0
   26.8734  -21.6510  -14.4668 C   0  0  0  0  0  0  0  0  0  0  0  0
   26.5223  -22.8576  -14.5359 O   0  0  0  0  0  0  0  0  0  0  0  0
   24.5179  -21.2096  -10.1152 C   0  0  0  0  0  0  0  0  0  0  0  0
   25.5340  -20.7618  -11.1192 C   0  0  1  0  0  0  0  0  0  0  0  0
   26.9168  -20.9343  -10.5267 C   0  0  0  0  0  0  0  0  0  0  0  0
   25.3767  -21.4730  -12.4236 C   0  0  2  0  0  0  0  0  0  0  0  0
   26.2939  -20.8867  -13.4185 N   0  0  0  0  0  0  0  0  0  0  0  0
   23.9882  -21.2058  -12.9327 C   0  0  0  0  0  0  0  0  0  0  0  0
   23.7413  -20.0149  -13.2503 O   0  0  0  0  0  0  0  0  0  0  0  0
   17.0286  -24.2182  -13.1907 N   0  0  0  0  0  0  0  0  0  0  0  0
   16.7463  -24.1343  -14.5833 C   0  0  0  0  0  0  0  0  0  0  0  0
   15.5023  -23.9270  -14.8996 N   0  0  0  0  0  0  0  0  0  0  0  0
   17.7681  -24.2701  -15.5628 N   0  0  0  0  0  0  0  0  0  0  0  0
   19.1522  -24.3452  -15.0116 C   0  0  0  0  0  0  0  0  0  0  0  0
   19.6016  -23.0264  -14.5449 C   0  0  0  0  0  0  0  0  0  0  0  0
   20.9795  -22.9550  -14.0473 C   0  0  0  0  0  0  0  0  0  0  0  0
   21.6432  -21.7571  -13.5490 C   0  0  2  0  0  0  0  0  0  0  0  0
   22.9986  -22.1760  -13.0687 N   0  0  0  0  0  0  0  0  0  0  0  0
   21.1284  -20.8820  -12.5287 C   0  0  0  0  0  0  0  0  0  0  0  0
   21.2456  -20.9805  -11.1480 O   0  0  0  0  0  0  0  0  0  0  0  0
   20.4433  -19.8439  -12.8760 O   0  0  0  0  0  0  0  0  0  0  0  0
  2  1  1  6
  2  4  1  0
  3  2  1  0
  4  6  1  0
  4  5  1  6
  6  7  2  0
  9  8  1  1
 10  9  1  0
 11  9  1  0
 11 12  1  6
 12  6  1  0
 13 14  2  0
 13 11  1  0
 15 16  1  0
 16 17  2  0
 18 16  1  0
 19 18  1  0
 20 19  1  0
 20 21  1  0
 22 21  1  1
 22 23  1  0
 23 13  1  0
 24 22  1  0
 24 25  1  0
 26 24  2  0
M  END
$$$$
