TVR.pdb
     RDKit          3D

 26 25  0  0  1  0  0  0  0  0999 V2000
   26.3847  -20.3969  -17.0358 C   0  0  0  0  0  0  0  0  0  0  0  0
   27.1259  -19.6320  -15.9603 C   0  0  1  0  0  0  0  0  0  0  0  0
   26.2585  -18.7185  -15.3746 O   0  0  0  0  0  0  0  0  0  0  0  0
   27.7475  -20.5726  -14.9448 C   0  0  2  0  0  0  0  0  0  0  0  0
   28.7219  -21.4289  -15.5503 N   0  0  0  0  0  0  0  0  0  0  0  0
   26.7069  -21.3263  -14.1968 C   0  0  0  0  0  0  0  0  0  0  0  0
   26.2181  -22.3912  -14.6565 O   0  0  0  0  0  0  0  0  0  0  0  0
   26.5476  -21.7507  -10.1745 C   0  0  0  0  0  0  0  0  0  0  0  0
   25.2372  -21.3191  -10.7555 C   0  0  1  0  0  0  0  0  0  0  0  0
   25.0302  -19.8489  -10.4580 C   0  0  0  0  0  0  0  0  0  0  0  0
   25.1487  -21.6265  -12.2149 C   0  0  2  0  0  0  0  0  0  0  0  0
   26.2080  -20.8981  -12.9373 N   0  0  0  0  0  0  0  0  0  0  0  0
   23.8465  -21.0776  -12.7261 C   0  0  0  0  0  0  0  0  0  0  0  0
   23.9010  -19.9353  -13.2477 O   0  0  0  0  0  0  0  0  0  0  0  0
   20.1026  -24.7475  -18.8554 N   0  0  0  0  0  0  0  0  0  0  0  0
   19.2174  -23.6343  -18.7981 C   0  0  0  0  0  0  0  0  0  0  0  0
   18.3456  -23.5513  -19.7592 N   0  0  0  0  0  0  0  0  0  0  0  0
   19.2884  -22.6757  -17.7503 N   0  0  0  0  0  0  0  0  0  0  0  0
   20.3690  -22.9238  -16.7524 C   0  0  0  0  0  0  0  0  0  0  0  0
   20.3456  -21.9067  -15.6923 C   0  0  0  0  0  0  0  0  0  0  0  0
   21.3652  -22.0433  -14.6467 C   0  0  0  0  0  0  0  0  0  0  0  0
   21.4717  -21.2194  -13.4493 C   0  0  2  0  0  0  0  0  0  0  0  0
   22.6277  -21.7476  -12.6567 N   0  0  0  0  0  0  0  0  0  0  0  0
   20.4192  -20.9994  -12.4924 C   0  0  0  0  0  0  0  0  0  0  0  0
   19.3156  -20.1602  -12.5802 O   0  0  0  0  0  0  0  0  0  0  0  0
   20.4479  -21.6329  -11.3676 O   0  0  0  0  0  0  0  0  0  0  0  0
  2  1  1  6
  2  4  1  0
  3  2  1  0
  4  6  1  0
  4  5  1  6
  6  7  2  0
  9  8  1  6
 10  9  1  0
 11  9  1  0
 11 12  1  6
 12  6  1  0
 13 14  2  0
 13 11  1  0
 15 16  1  0
 16 17  2  0
 18 16  1  0
 19 18  1  0
 20 19  1  0
 20 21  1  0
 22 21  1  6
 22 23  1  0
 23 13  1  0
 24 22  1  0
 24 25  1  0
 26 24  2  0
M  END
$$$$
