TVR.pdb
     RDKit          3D

 26 25  0  0  1  0  0  0  0  0999 V2000
   20.9293  -12.3510  -18.8642 C   0  0  0  0  0  0  0  0  0  0  0  0
   21.1499  -13.8373  -18.6818 C   0  0  1  0  0  0  0  0  0  0  0  0
   20.6836  -14.5059  -19.8068 O   0  0  0  0  0  0  0  0  0  0  0  0
   22.6061  -14.1458  -18.3877 C   0  0  2  0  0  0  0  0  0  0  0  0
   22.8332  -15.5554  -18.2832 N   0  0  0  0  0  0  0  0  0  0  0  0
   23.0885  -13.3970  -17.1973 C   0  0  0  0  0  0  0  0  0  0  0  0
   22.7512  -13.7377  -16.0336 O   0  0  0  0  0  0  0  0  0  0  0  0
   26.1164  -10.5315  -17.5469 C   0  0  0  0  0  0  0  0  0  0  0  0
   25.7311  -11.0514  -16.1970 C   0  0  1  0  0  0  0  0  0  0  0  0
   26.1093  -10.0245  -15.1505 C   0  0  0  0  0  0  0  0  0  0  0  0
   24.2856  -11.4246  -16.1376 C   0  0  2  0  0  0  0  0  0  0  0  0
   23.9462  -12.2688  -17.2982 N   0  0  0  0  0  0  0  0  0  0  0  0
   23.4758  -10.1677  -16.2892 C   0  0  0  0  0  0  0  0  0  0  0  0
   23.2205   -9.8200  -17.4698 O   0  0  0  0  0  0  0  0  0  0  0  0
   15.9999  -10.1976  -17.2585 N   0  0  0  0  0  0  0  0  0  0  0  0
   16.0434   -8.7750  -17.2381 C   0  0  0  0  0  0  0  0  0  0  0  0
   14.9290   -8.1682  -17.5219 N   0  0  0  0  0  0  0  0  0  0  0  0
   17.2367   -8.0679  -16.9254 N   0  0  0  0  0  0  0  0  0  0  0  0
   18.4007   -8.9343  -16.5798 C   0  0  0  0  0  0  0  0  0  0  0  0
   19.5937   -8.1221  -16.3038 C   0  0  0  0  0  0  0  0  0  0  0  0
   20.8005   -8.8613  -15.9183 C   0  0  0  0  0  0  0  0  0  0  0  0
   22.0695   -8.2682  -15.5165 C   0  0  2  0  0  0  0  0  0  0  0  0
   23.0082   -9.3988  -15.2265 N   0  0  0  0  0  0  0  0  0  0  0  0
   22.2484   -7.3346  -14.4356 C   0  0  0  0  0  0  0  0  0  0  0  0
   21.9826   -5.9715  -14.4013 O   0  0  0  0  0  0  0  0  0  0  0  0
   22.7285   -7.7549  -13.3131 O   0  0  0  0  0  0  0  0  0  0  0  0
  2  1  1  6
  2  4  1  0
  3  2  1  0
  4  6  1  0
  4  5  1  1
  6  7  2  0
  9  8  1  6
 10  9  1  0
 11  9  1  0
 11 12  1  6
 12  6  1  0
 13 14  2  0
 13 11  1  0
 15 16  1  0
 16 17  2  0
 18 16  1  0
 19 18  1  0
 20 19  1  0
 20 21  1  0
 22 21  1  1
 22 23  1  0
 23 13  1  0
 24 22  1  0
 24 25  1  0
 26 24  2  0
M  END
$$$$
