TVR.pdb
     RDKit          3D

 26 25  0  0  1  0  0  0  0  0999 V2000
   22.7332  -17.2334  -14.9211 C   0  0  0  0  0  0  0  0  0  0  0  0
   22.3359  -17.8410  -16.2493 C   0  0  1  0  0  0  0  0  0  0  0  0
   21.6665  -16.8847  -17.0027 O   0  0  0  0  0  0  0  0  0  0  0  0
   23.5396  -18.4114  -16.9760 C   0  0  2  0  0  0  0  0  0  0  0  0
   23.1727  -18.9667  -18.2434 N   0  0  0  0  0  0  0  0  0  0  0  0
   24.2821  -19.3746  -16.1207 C   0  0  0  0  0  0  0  0  0  0  0  0
   23.7998  -20.5031  -15.8419 O   0  0  0  0  0  0  0  0  0  0  0  0
   27.8973  -18.2024  -14.2455 C   0  0  0  0  0  0  0  0  0  0  0  0
   27.7164  -19.6424  -14.6125 C   0  0  1  0  0  0  0  0  0  0  0  0
   28.4937  -20.4983  -13.6347 C   0  0  0  0  0  0  0  0  0  0  0  0
   26.2726  -20.0203  -14.6831 C   0  0  2  0  0  0  0  0  0  0  0  0
   25.5612  -19.0851  -15.5743 N   0  0  0  0  0  0  0  0  0  0  0  0
   25.6754  -19.8261  -13.3178 C   0  0  0  0  0  0  0  0  0  0  0  0
   25.4199  -18.6382  -12.9959 O   0  0  0  0  0  0  0  0  0  0  0  0
   18.9931  -20.4552  -12.5875 N   0  0  0  0  0  0  0  0  0  0  0  0
   19.0647  -19.6238  -11.4343 C   0  0  0  0  0  0  0  0  0  0  0  0
   17.9584  -19.0341  -11.0893 N   0  0  0  0  0  0  0  0  0  0  0  0
   20.2759  -19.4537  -10.7092 N   0  0  0  0  0  0  0  0  0  0  0  0
   21.0113  -20.7191  -10.4210 C   0  0  0  0  0  0  0  0  0  0  0  0
   22.4188  -20.4449  -10.1009 C   0  0  0  0  0  0  0  0  0  0  0  0
   23.3848  -20.7014  -11.1744 C   0  0  0  0  0  0  0  0  0  0  0  0
   24.8272  -20.5139  -11.0839 C   0  0  2  0  0  0  0  0  0  0  0  0
   25.3978  -20.8583  -12.4252 N   0  0  0  0  0  0  0  0  0  0  0  0
   25.6920  -21.1493  -10.1246 C   0  0  0  0  0  0  0  0  0  0  0  0
   25.9642  -20.7840   -8.8123 O   0  0  0  0  0  0  0  0  0  0  0  0
   26.3449  -22.2086  -10.4696 O   0  0  0  0  0  0  0  0  0  0  0  0
  2  1  1  1
  2  4  1  0
  3  2  1  0
  4  6  1  0
  4  5  1  6
  6  7  2  0
  9  8  1  1
 10  9  1  0
 11  9  1  0
 11 12  1  6
 12  6  1  0
 13 14  2  0
 13 11  1  0
 15 16  1  0
 16 17  2  0
 18 16  1  0
 19 18  1  0
 20 19  1  0
 20 21  1  0
 22 21  1  6
 22 23  1  0
 23 13  1  0
 24 22  1  0
 24 25  1  0
 26 24  2  0
M  END
$$$$
