TVR.pdb
     RDKit          3D

 26 25  0  0  1  0  0  0  0  0999 V2000
   25.2570  -23.1156  -15.6413 C   0  0  0  0  0  0  0  0  0  0  0  0
   24.7393  -21.7123  -15.4091 C   0  0  1  0  0  0  0  0  0  0  0  0
   23.3527  -21.7481  -15.3318 O   0  0  0  0  0  0  0  0  0  0  0  0
   25.3715  -21.0889  -14.1787 C   0  0  2  0  0  0  0  0  0  0  0  0
   25.1191  -21.8702  -13.0060 N   0  0  0  0  0  0  0  0  0  0  0  0
   24.9627  -19.6682  -14.0206 C   0  0  0  0  0  0  0  0  0  0  0  0
   24.1391  -19.3229  -13.1337 O   0  0  0  0  0  0  0  0  0  0  0  0
   25.4043  -14.9380  -15.5355 C   0  0  0  0  0  0  0  0  0  0  0  0
   25.9744  -16.2917  -15.2466 C   0  0  1  0  0  0  0  0  0  0  0  0
   27.0742  -16.1499  -14.2154 C   0  0  0  0  0  0  0  0  0  0  0  0
   24.9178  -17.2614  -14.8279 C   0  0  2  0  0  0  0  0  0  0  0  0
   25.4683  -18.6294  -14.8477 N   0  0  0  0  0  0  0  0  0  0  0  0
   23.8301  -17.2380  -15.8645 C   0  0  0  0  0  0  0  0  0  0  0  0
   24.0322  -17.9419  -16.8861 O   0  0  0  0  0  0  0  0  0  0  0  0
   19.5382  -20.3333  -11.8157 N   0  0  0  0  0  0  0  0  0  0  0  0
   18.8283  -19.1211  -12.0452 C   0  0  0  0  0  0  0  0  0  0  0  0
   18.4258  -18.4884  -10.9830 N   0  0  0  0  0  0  0  0  0  0  0  0
   18.5785  -18.6381  -13.3590 N   0  0  0  0  0  0  0  0  0  0  0  0
   19.6988  -18.8464  -14.3218 C   0  0  0  0  0  0  0  0  0  0  0  0
   19.6787  -17.8239  -15.3768 C   0  0  0  0  0  0  0  0  0  0  0  0
   20.7906  -17.8633  -16.3325 C   0  0  0  0  0  0  0  0  0  0  0  0
   21.5749  -16.7168  -16.7731 C   0  0  2  0  0  0  0  0  0  0  0  0
   22.6511  -16.5053  -15.7531 N   0  0  0  0  0  0  0  0  0  0  0  0
   21.0503  -15.4063  -17.0544 C   0  0  0  0  0  0  0  0  0  0  0  0
   21.3268  -14.1979  -16.4273 O   0  0  0  0  0  0  0  0  0  0  0  0
   20.1892  -15.2633  -18.0060 O   0  0  0  0  0  0  0  0  0  0  0  0
  2  1  1  1
  2  4  1  0
  3  2  1  0
  4  6  1  0
  4  5  1  1
  6  7  2  0
  9  8  1  1
 10  9  1  0
 11  9  1  0
 11 12  1  6
 12  6  1  0
 13 14  2  0
 13 11  1  0
 15 16  1  0
 16 17  2  0
 18 16  1  0
 19 18  1  0
 20 19  1  0
 20 21  1  0
 22 21  1  1
 22 23  1  0
 23 13  1  0
 24 22  1  0
 24 25  1  0
 26 24  2  0
M  END
$$$$
