QTK.pdb
     RDKit          3D

 26 25  0  0  1  0  0  0  0  0999 V2000
    7.5189  -13.0452   14.6517 N   0  0  0  0  0  0  0  0  0  0  0  0
    7.6573  -14.4808   14.6388 C   0  0  0  0  0  0  0  0  0  0  0  0
    7.5625  -15.0995   13.5553 O   0  0  0  0  0  0  0  0  0  0  0  0
    7.9059  -15.1263   15.9317 C   0  0  0  0  0  0  0  0  0  0  0  0
    8.0032  -14.1902   17.0895 C   0  0  0  0  0  0  0  0  0  0  0  0
    9.1534  -14.4906   18.0313 C   0  0  2  0  0  0  0  0  0  0  0  0
    9.6330  -15.8350   17.8931 N   0  0  0  0  0  0  0  0  0  0  0  0
    8.6369  -14.2165   19.4092 C   0  0  0  0  0  0  0  0  0  0  0  0
    8.2675  -13.0401   19.6497 O   0  0  0  0  0  0  0  0  0  0  0  0
    5.6431  -15.4212   20.9868 C   0  0  0  0  0  0  0  0  0  0  0  0
    6.7838  -15.8435   21.8855 C   0  0  1  0  0  0  0  0  0  0  0  0
    7.1041  -17.1805   21.7667 O   0  0  0  0  0  0  0  0  0  0  0  0
    7.9659  -14.9237   21.7328 C   0  0  2  0  0  0  0  0  0  0  0  0
    8.5419  -15.1728   20.4275 N   0  0  0  0  0  0  0  0  0  0  0  0
    8.9566  -15.0934   22.8244 C   0  0  0  0  0  0  0  0  0  0  0  0
   10.1142  -15.4870   22.4696 O   0  0  0  0  0  0  0  0  0  0  0  0
    8.6678  -14.8431   24.1819 N   0  0  0  0  0  0  0  0  0  0  0  0
    9.6712  -15.2345   25.1837 C   0  0  1  0  0  0  0  0  0  0  0  0
    9.3501  -14.5849   26.4990 C   0  0  0  0  0  0  0  0  0  0  0  0
   10.2766  -15.0880   27.5602 C   0  0  0  0  0  0  0  0  0  0  0  0
    9.8998  -14.5362   28.9362 C   0  0  0  0  0  0  0  0  0  0  0  0
   10.8743  -15.1492   29.9199 C   0  0  0  0  0  0  0  0  0  0  0  0
   10.6023  -14.5889   31.2322 N   0  0  0  0  0  0  0  0  0  0  0  0
    9.8348  -16.6822   25.2090 C   0  0  0  0  0  0  0  0  0  0  0  0
    8.7097  -17.4840   24.9157 O   0  0  0  0  0  0  0  0  0  0  0  0
   10.9100  -17.2294   25.4749 O   0  0  0  0  0  0  0  0  0  0  0  0
  1  2  1  0
  2  3  2  0
  4  5  1  0
  4  2  1  0
  5  6  1  0
  6  8  1  0
  6  7  1  1
  8 14  1  0
  9  8  2  0
 11 12  1  0
 11 10  1  6
 13 11  1  0
 13 14  1  6
 15 13  1  0
 15 16  2  0
 17 15  1  0
 18 17  1  0
 18 19  1  1
 19 20  1  0
 20 21  1  0
 22 21  1  0
 22 23  1  0
 24 18  1  0
 25 24  1  0
 26 24  2  0
M  END
$$$$
