QTK.pdb
     RDKit          3D

 26 25  0  0  1  0  0  0  0  0999 V2000
   10.0988  -20.9128   17.4597 N   0  0  0  0  0  0  0  0  0  0  0  0
   10.6271  -20.1204   16.3766 C   0  0  0  0  0  0  0  0  0  0  0  0
   11.4375  -20.6354   15.5742 O   0  0  0  0  0  0  0  0  0  0  0  0
   10.1625  -18.7321   16.2938 C   0  0  0  0  0  0  0  0  0  0  0  0
    9.1451  -18.3513   17.3166 C   0  0  0  0  0  0  0  0  0  0  0  0
    8.6965  -16.9049   17.2324 C   0  0  2  0  0  0  0  0  0  0  0  0
    9.1560  -16.2614   16.0361 N   0  0  0  0  0  0  0  0  0  0  0  0
    9.2226  -16.2404   18.4662 C   0  0  0  0  0  0  0  0  0  0  0  0
   10.4353  -15.9123   18.4570 O   0  0  0  0  0  0  0  0  0  0  0  0
    7.6280  -13.2039   20.1626 C   0  0  0  0  0  0  0  0  0  0  0  0
    7.8470  -14.2943   21.1872 C   0  0  1  0  0  0  0  0  0  0  0  0
    6.6829  -14.9374   21.5551 O   0  0  0  0  0  0  0  0  0  0  0  0
    8.9446  -15.2314   20.7584 C   0  0  2  0  0  0  0  0  0  0  0  0
    8.4606  -15.9670   19.6085 N   0  0  0  0  0  0  0  0  0  0  0  0
    9.3795  -16.1300   21.8563 C   0  0  0  0  0  0  0  0  0  0  0  0
    8.9553  -17.3289   21.7957 O   0  0  0  0  0  0  0  0  0  0  0  0
   10.2109  -15.7150   22.9171 N   0  0  0  0  0  0  0  0  0  0  0  0
   10.5838  -16.7126   23.9316 C   0  0  1  0  0  0  0  0  0  0  0  0
   12.0779  -16.7477   24.0784 C   0  0  0  0  0  0  0  0  0  0  0  0
   12.4717  -17.7900   25.0765 C   0  0  0  0  0  0  0  0  0  0  0  0
   13.9924  -17.8885   25.2090 C   0  0  0  0  0  0  0  0  0  0  0  0
   14.2607  -19.0149   26.1848 C   0  0  0  0  0  0  0  0  0  0  0  0
   15.6997  -19.1615   26.3192 N   0  0  0  0  0  0  0  0  0  0  0  0
    9.8257  -16.5060   25.1588 C   0  0  0  0  0  0  0  0  0  0  0  0
    9.8467  -17.5277   26.1337 O   0  0  0  0  0  0  0  0  0  0  0  0
    9.1716  -15.4809   25.3764 O   0  0  0  0  0  0  0  0  0  0  0  0
  1  2  1  0
  2  3  2  0
  4  5  1  0
  4  2  1  0
  5  6  1  0
  6  8  1  0
  6  7  1  6
  8 14  1  0
  9  8  2  0
 11 12  1  0
 11 10  1  6
 13 11  1  0
 13 14  1  6
 15 13  1  0
 15 16  2  0
 17 15  1  0
 18 17  1  0
 18 19  1  1
 19 20  1  0
 20 21  1  0
 22 21  1  0
 22 23  1  0
 24 18  1  0
 25 24  1  0
 26 24  2  0
M  END
$$$$
