QTK.pdb
     RDKit          3D

 26 25  0  0  1  0  0  0  0  0999 V2000
    9.3926  -21.3104   17.4324 N   0  0  0  0  0  0  0  0  0  0  0  0
    8.0250  -21.2678   16.9764 C   0  0  0  0  0  0  0  0  0  0  0  0
    7.5347  -22.2665   16.4037 O   0  0  0  0  0  0  0  0  0  0  0  0
    7.2903  -20.0234   17.2250 C   0  0  0  0  0  0  0  0  0  0  0  0
    8.0603  -18.9794   17.9623 C   0  0  0  0  0  0  0  0  0  0  0  0
    7.4242  -18.5524   19.2712 C   0  0  2  0  0  0  0  0  0  0  0  0
    6.0861  -18.0682   19.0935 N   0  0  0  0  0  0  0  0  0  0  0  0
    8.3290  -17.5069   19.8446 C   0  0  0  0  0  0  0  0  0  0  0  0
    9.5436  -17.5784   19.5313 O   0  0  0  0  0  0  0  0  0  0  0  0
    8.0908  -13.7667   19.7303 C   0  0  0  0  0  0  0  0  0  0  0  0
    8.1984  -14.1623   21.1860 C   0  0  1  0  0  0  0  0  0  0  0  0
    7.0175  -14.0031   21.8820 O   0  0  0  0  0  0  0  0  0  0  0  0
    8.8066  -15.5315   21.3343 C   0  0  2  0  0  0  0  0  0  0  0  0
    7.9129  -16.4734   20.6926 N   0  0  0  0  0  0  0  0  0  0  0  0
    9.0664  -15.8822   22.7525 C   0  0  0  0  0  0  0  0  0  0  0  0
    8.1559  -16.5543   23.3358 O   0  0  0  0  0  0  0  0  0  0  0  0
   10.2385  -15.5103   23.4429 N   0  0  0  0  0  0  0  0  0  0  0  0
   10.4511  -16.0644   24.7888 C   0  0  1  0  0  0  0  0  0  0  0  0
   10.4434  -17.5646   24.7230 C   0  0  0  0  0  0  0  0  0  0  0  0
   10.6022  -18.1397   26.0948 C   0  0  0  0  0  0  0  0  0  0  0  0
   10.7012  -19.6655   26.0513 C   0  0  0  0  0  0  0  0  0  0  0  0
   10.8401  -20.1223   27.4884 C   0  0  0  0  0  0  0  0  0  0  0  0
   10.7361  -21.5710   27.5129 N   0  0  0  0  0  0  0  0  0  0  0  0
   11.6184  -15.4581   25.4158 C   0  0  0  0  0  0  0  0  0  0  0  0
   12.6436  -14.9666   24.5779 O   0  0  0  0  0  0  0  0  0  0  0  0
   11.7440  -15.3588   26.6407 O   0  0  0  0  0  0  0  0  0  0  0  0
  1  2  1  0
  2  3  2  0
  4  5  1  0
  4  2  1  0
  5  6  1  0
  6  8  1  0
  6  7  1  6
  8 14  1  0
  9  8  2  0
 11 12  1  0
 11 10  1  6
 13 11  1  0
 13 14  1  1
 15 13  1  0
 15 16  2  0
 17 15  1  0
 18 17  1  0
 18 19  1  6
 19 20  1  0
 20 21  1  0
 22 21  1  0
 22 23  1  0
 24 18  1  0
 25 24  1  0
 26 24  2  0
M  END
$$$$
