QTK.pdb
     RDKit          3D

 26 25  0  0  1  0  0  0  0  0999 V2000
   15.7168  -14.0436   18.8552 N   0  0  0  0  0  0  0  0  0  0  0  0
   15.3281  -15.4313   18.9122 C   0  0  0  0  0  0  0  0  0  0  0  0
   16.2023  -16.3096   19.0865 O   0  0  0  0  0  0  0  0  0  0  0  0
   13.8984  -15.7178   18.7578 C   0  0  0  0  0  0  0  0  0  0  0  0
   13.0310  -14.5121   18.6159 C   0  0  0  0  0  0  0  0  0  0  0  0
   11.5747  -14.8291   18.3346 C   0  0  2  0  0  0  0  0  0  0  0  0
   11.1485  -14.3399   17.0557 N   0  0  0  0  0  0  0  0  0  0  0  0
   10.7978  -14.2171   19.4582 C   0  0  0  0  0  0  0  0  0  0  0  0
   11.0656  -13.0236   19.7451 O   0  0  0  0  0  0  0  0  0  0  0  0
    7.4287  -13.1167   19.7353 C   0  0  0  0  0  0  0  0  0  0  0  0
    7.6036  -14.1998   20.7761 C   0  0  1  0  0  0  0  0  0  0  0  0
    7.0896  -15.4191   20.3846 O   0  0  0  0  0  0  0  0  0  0  0  0
    9.0299  -14.2710   21.2530 C   0  0  2  0  0  0  0  0  0  0  0  0
    9.8095  -14.8805   20.1954 N   0  0  0  0  0  0  0  0  0  0  0  0
    9.1589  -15.0027   22.5375 C   0  0  0  0  0  0  0  0  0  0  0  0
    9.6175  -16.1878   22.4597 O   0  0  0  0  0  0  0  0  0  0  0  0
    8.8047  -14.4499   23.7856 N   0  0  0  0  0  0  0  0  0  0  0  0
    8.9633  -15.2910   24.9820 C   0  0  1  0  0  0  0  0  0  0  0  0
    9.2077  -14.4205   26.1810 C   0  0  0  0  0  0  0  0  0  0  0  0
    9.4308  -15.2675   27.3937 C   0  0  0  0  0  0  0  0  0  0  0  0
    9.5955  -14.4100   28.6496 C   0  0  0  0  0  0  0  0  0  0  0  0
    9.8783  -15.3713   29.7850 C   0  0  0  0  0  0  0  0  0  0  0  0
   10.0245  -14.5970   31.0053 N   0  0  0  0  0  0  0  0  0  0  0  0
    7.8619  -16.2385   25.0939 C   0  0  0  0  0  0  0  0  0  0  0  0
    8.1123  -17.4785   25.7219 O   0  0  0  0  0  0  0  0  0  0  0  0
    6.7284  -16.0004   24.6642 O   0  0  0  0  0  0  0  0  0  0  0  0
  1  2  1  0
  2  3  2  0
  4  5  1  0
  4  2  1  0
  5  6  1  0
  6  8  1  0
  6  7  1  6
  8 14  1  0
  9  8  2  0
 11 12  1  0
 11 10  1  6
 13 11  1  0
 13 14  1  6
 15 13  1  0
 15 16  2  0
 17 15  1  0
 18 17  1  0
 18 19  1  1
 19 20  1  0
 20 21  1  0
 22 21  1  0
 22 23  1  0
 24 18  1  0
 25 24  1  0
 26 24  2  0
M  END
$$$$
