QTK.pdb
     RDKit          3D

 26 25  0  0  1  0  0  0  0  0999 V2000
   15.8042  -13.4317   17.3236 N   0  0  0  0  0  0  0  0  0  0  0  0
   15.6725  -14.6862   16.6243 C   0  0  0  0  0  0  0  0  0  0  0  0
   16.5888  -15.0656   15.8612 O   0  0  0  0  0  0  0  0  0  0  0  0
   14.4412  -15.4447   16.8663 C   0  0  0  0  0  0  0  0  0  0  0  0
   13.4291  -14.7418   17.7076 C   0  0  0  0  0  0  0  0  0  0  0  0
   12.1449  -15.5229   17.9101 C   0  0  2  0  0  0  0  0  0  0  0  0
   11.2616  -15.4189   16.7852 N   0  0  0  0  0  0  0  0  0  0  0  0
   11.5283  -14.9803   19.1614 C   0  0  0  0  0  0  0  0  0  0  0  0
   12.3183  -14.6184   20.0687 O   0  0  0  0  0  0  0  0  0  0  0  0
    8.4076  -12.5189   19.3726 C   0  0  0  0  0  0  0  0  0  0  0  0
    8.2295  -13.7440   20.2411 C   0  0  1  0  0  0  0  0  0  0  0  0
    7.3272  -14.6512   19.7242 O   0  0  0  0  0  0  0  0  0  0  0  0
    9.5583  -14.3530   20.6019 C   0  0  2  0  0  0  0  0  0  0  0  0
   10.1509  -14.8536   19.3789 N   0  0  0  0  0  0  0  0  0  0  0  0
    9.4318  -15.4090   21.6367 C   0  0  0  0  0  0  0  0  0  0  0  0
    9.1819  -16.5815   21.2082 O   0  0  0  0  0  0  0  0  0  0  0  0
    9.5737  -15.1642   23.0183 N   0  0  0  0  0  0  0  0  0  0  0  0
    9.3915  -16.2951   23.9411 C   0  0  1  0  0  0  0  0  0  0  0  0
   10.7316  -16.8552   24.3224 C   0  0  0  0  0  0  0  0  0  0  0  0
   11.0157  -18.0920   23.5303 C   0  0  0  0  0  0  0  0  0  0  0  0
   12.4173  -18.6307   23.8217 C   0  0  0  0  0  0  0  0  0  0  0  0
   12.5296  -19.9446   23.0772 C   0  0  0  0  0  0  0  0  0  0  0  0
   13.8941  -20.4241   23.2125 N   0  0  0  0  0  0  0  0  0  0  0  0
    8.5172  -15.9217   25.0454 C   0  0  0  0  0  0  0  0  0  0  0  0
    8.1933  -16.9100   26.0009 O   0  0  0  0  0  0  0  0  0  0  0  0
    8.0531  -14.7843   25.1762 O   0  0  0  0  0  0  0  0  0  0  0  0
  1  2  1  0
  2  3  2  0
  4  5  1  0
  4  2  1  0
  5  6  1  0
  6  8  1  0
  6  7  1  6
  8 14  1  0
  9  8  2  0
 11 12  1  0
 11 10  1  6
 13 11  1  0
 13 14  1  6
 15 13  1  0
 15 16  2  0
 17 15  1  0
 18 17  1  0
 18 19  1  1
 19 20  1  0
 20 21  1  0
 22 21  1  0
 22 23  1  0
 24 18  1  0
 25 24  1  0
 26 24  2  0
M  END
$$$$
