QTK.pdb
     RDKit          3D

 26 25  0  0  1  0  0  0  0  0999 V2000
   16.4729  -14.4829   19.7227 N   0  0  0  0  0  0  0  0  0  0  0  0
   15.9389  -14.5838   18.3868 C   0  0  0  0  0  0  0  0  0  0  0  0
   16.7036  -14.8639   17.4368 O   0  0  0  0  0  0  0  0  0  0  0  0
   14.5000  -14.3445   18.2369 C   0  0  0  0  0  0  0  0  0  0  0  0
   13.6317  -15.1888   19.1085 C   0  0  0  0  0  0  0  0  0  0  0  0
   12.2616  -15.4741   18.5240 C   0  0  2  0  0  0  0  0  0  0  0  0
   12.2040  -15.2066   17.1163 N   0  0  0  0  0  0  0  0  0  0  0  0
   11.3014  -14.6253   19.2974 C   0  0  0  0  0  0  0  0  0  0  0  0
   11.3144  -13.3930   19.0533 O   0  0  0  0  0  0  0  0  0  0  0  0
    8.0202  -14.2024   18.7214 C   0  0  0  0  0  0  0  0  0  0  0  0
    8.0582  -14.7415   20.1338 C   0  0  1  0  0  0  0  0  0  0  0  0
    7.7909  -16.0933   20.2078 O   0  0  0  0  0  0  0  0  0  0  0  0
    9.3270  -14.3377   20.8364 C   0  0  2  0  0  0  0  0  0  0  0  0
   10.4064  -15.1112   20.2583 N   0  0  0  0  0  0  0  0  0  0  0  0
    9.2370  -14.5129   22.3072 C   0  0  0  0  0  0  0  0  0  0  0  0
    9.9886  -15.4102   22.8082 O   0  0  0  0  0  0  0  0  0  0  0  0
    8.3827  -13.7499   23.1299 N   0  0  0  0  0  0  0  0  0  0  0  0
    8.1760  -14.2005   24.5148 C   0  0  1  0  0  0  0  0  0  0  0  0
    6.8496  -13.7036   25.0136 C   0  0  0  0  0  0  0  0  0  0  0  0
    7.0501  -12.7796   26.1728 C   0  0  0  0  0  0  0  0  0  0  0  0
    5.7453  -12.0825   26.5619 C   0  0  0  0  0  0  0  0  0  0  0  0
    6.0542  -11.2646   27.7983 C   0  0  0  0  0  0  0  0  0  0  0  0
    4.8488  -10.5483   28.1776 N   0  0  0  0  0  0  0  0  0  0  0  0
    8.4047  -15.6351   24.6282 C   0  0  0  0  0  0  0  0  0  0  0  0
    9.1264  -16.1073   25.7466 O   0  0  0  0  0  0  0  0  0  0  0  0
    7.9953  -16.4461   23.7910 O   0  0  0  0  0  0  0  0  0  0  0  0
  1  2  1  0
  2  3  2  0
  4  5  1  0
  4  2  1  0
  5  6  1  0
  6  8  1  0
  6  7  1  6
  8 14  1  0
  9  8  2  0
 11 12  1  0
 11 10  1  6
 13 11  1  0
 13 14  1  6
 15 13  1  0
 15 16  2  0
 17 15  1  0
 18 17  1  0
 18 19  1  6
 19 20  1  0
 20 21  1  0
 22 21  1  0
 22 23  1  0
 24 18  1  0
 25 24  1  0
 26 24  2  0
M  END
$$$$
