SVH.pdb
     RDKit          3D

 24 24  0  0  1  0  0  0  0  0999 V2000
    6.5164  -19.2755   18.1097 O   0  0  0  0  0  0  0  0  0  0  0  0
    7.7674  -18.8776   18.5418 C   0  0  0  0  0  0  0  0  0  0  0  0
    8.0937  -17.5676   17.8474 C   0  0  2  0  0  0  0  0  0  0  0  0
    9.0244  -17.7010   16.7770 N   0  0  0  0  0  0  0  0  0  0  0  0
    8.7014  -16.6415   18.8816 C   0  0  0  0  0  0  0  0  0  0  0  0
    9.9364  -16.6912   18.9400 O   0  0  0  0  0  0  0  0  0  0  0  0
    7.1046  -12.9142   19.8574 C   0  0  0  0  0  0  0  0  0  0  0  0
    7.3754  -13.8218   21.0381 C   0  0  2  0  0  0  0  0  0  0  0  0
    7.6364  -12.9844   22.2344 C   0  0  0  0  0  0  0  0  0  0  0  0
    8.2845  -14.9700   20.7723 C   0  0  2  0  0  0  0  0  0  0  0  0
    7.9237  -15.8315   19.6686 N   0  0  0  0  0  0  0  0  0  0  0  0
    8.7350  -15.7453   21.9338 C   0  0  0  0  0  0  0  0  0  0  0  0
    7.8845  -16.5605   22.4544 O   0  0  0  0  0  0  0  0  0  0  0  0
    9.9864  -15.7096   22.5457 N   0  0  0  0  0  0  0  0  0  0  0  0
   10.3311  -16.3989   23.7729 C   0  0  1  0  0  0  0  0  0  0  0  0
   11.8575  -16.5637   23.7401 C   0  0  0  0  0  0  0  0  0  0  0  0
   12.2535  -17.5021   22.6638 C   0  0  0  0  0  0  0  0  0  0  0  0
   11.6119  -18.6599   22.2783 C   0  0  0  0  0  0  0  0  0  0  0  0
   12.2794  -19.2498   21.2555 N   0  0  0  0  0  0  0  0  0  0  0  0
   13.3370  -18.4615   21.0019 C   0  0  0  0  0  0  0  0  0  0  0  0
   13.3183  -17.4165   21.8469 N   0  0  0  0  0  0  0  0  0  0  0  0
    9.8948  -15.7192   24.9836 C   0  0  0  0  0  0  0  0  0  0  0  0
    9.4417  -14.5579   24.9342 O   0  0  0  0  0  0  0  0  0  0  0  0
    9.9703  -16.3381   26.2156 O   0  0  0  0  0  0  0  0  0  0  0  0
  2  1  1  0
  2  3  1  0
  3  4  1  6
  5  3  1  0
  5  6  2  0
  8  7  1  6
  8 10  1  0
  8  9  1  0
 10 11  1  6
 11  5  1  0
 12 10  1  0
 13 12  2  0
 14 12  1  0
 15 22  1  0
 15 14  1  0
 15 16  1  1
 17 18  2  0
 17 16  1  0
 19 18  1  0
 20 21  2  0
 20 19  1  0
 21 17  1  0
 22 24  1  0
 23 22  2  0
M  END
$$$$
