SVH.pdb
     RDKit          3D

 24 24  0  0  1  0  0  0  0  0999 V2000
   10.3617  -20.0982   18.8704 O   0  0  0  0  0  0  0  0  0  0  0  0
    9.9698  -19.0440   19.6735 C   0  0  0  0  0  0  0  0  0  0  0  0
   10.1154  -17.7717   18.8582 C   0  0  2  0  0  0  0  0  0  0  0  0
   11.3566  -17.6718   18.1661 N   0  0  0  0  0  0  0  0  0  0  0  0
   10.0197  -16.6016   19.8165 C   0  0  0  0  0  0  0  0  0  0  0  0
   11.1124  -16.1040   20.1160 O   0  0  0  0  0  0  0  0  0  0  0  0
    7.4377  -13.4823   19.5446 C   0  0  0  0  0  0  0  0  0  0  0  0
    7.3337  -14.2312   20.8559 C   0  0  2  0  0  0  0  0  0  0  0  0
    6.8007  -13.3114   21.8905 C   0  0  0  0  0  0  0  0  0  0  0  0
    8.5046  -15.0805   21.2067 C   0  0  2  0  0  0  0  0  0  0  0  0
    8.8129  -16.1571   20.2922 N   0  0  0  0  0  0  0  0  0  0  0  0
    8.6181  -15.5137   22.6041 C   0  0  0  0  0  0  0  0  0  0  0  0
    7.8903  -16.5135   22.9641 O   0  0  0  0  0  0  0  0  0  0  0  0
    9.4299  -14.9716   23.5986 N   0  0  0  0  0  0  0  0  0  0  0  0
    9.4455  -15.3992   24.9830 C   0  0  1  0  0  0  0  0  0  0  0  0
    9.9721  -14.1976   25.7812 C   0  0  0  0  0  0  0  0  0  0  0  0
   10.1036  -14.5467   27.2153 C   0  0  0  0  0  0  0  0  0  0  0  0
    9.8492  -15.7631   27.8123 C   0  0  0  0  0  0  0  0  0  0  0  0
   10.0840  -15.6911   29.1462 N   0  0  0  0  0  0  0  0  0  0  0  0
   10.4849  -14.4312   29.3827 C   0  0  0  0  0  0  0  0  0  0  0  0
   10.4953  -13.7490   28.2247 N   0  0  0  0  0  0  0  0  0  0  0  0
    8.1553  -15.8477   25.4852 C   0  0  0  0  0  0  0  0  0  0  0  0
    7.1151  -15.2075   25.2310 O   0  0  0  0  0  0  0  0  0  0  0  0
    8.0470  -16.9896   26.2541 O   0  0  0  0  0  0  0  0  0  0  0  0
  2  1  1  0
  2  3  1  0
  3  4  1  1
  5  3  1  0
  5  6  2  0
  8  7  1  6
  8 10  1  0
  8  9  1  0
 10 11  1  6
 11  5  1  0
 12 10  1  0
 13 12  2  0
 14 12  1  0
 15 22  1  0
 15 14  1  0
 15 16  1  1
 17 18  2  0
 17 16  1  0
 19 18  1  0
 20 21  2  0
 20 19  1  0
 21 17  1  0
 22 24  1  0
 23 22  2  0
M  END
$$$$
