SVH.pdb
     RDKit          3D

 24 24  0  0  1  0  0  0  0  0999 V2000
    7.7128  -17.1183   22.4870 O   0  0  0  0  0  0  0  0  0  0  0  0
    6.5608  -16.4325   22.1515 C   0  0  0  0  0  0  0  0  0  0  0  0
    6.9473  -14.9849   21.9071 C   0  0  2  0  0  0  0  0  0  0  0  0
    7.7338  -14.7903   20.7352 N   0  0  0  0  0  0  0  0  0  0  0  0
    7.7621  -14.5223   23.0982 C   0  0  0  0  0  0  0  0  0  0  0  0
    8.9754  -14.4290   22.8741 O   0  0  0  0  0  0  0  0  0  0  0  0
    6.3780  -11.6713   25.6046 C   0  0  0  0  0  0  0  0  0  0  0  0
    6.9554  -12.8479   26.3618 C   0  0  2  0  0  0  0  0  0  0  0  0
    7.5246  -12.3596   27.6416 C   0  0  0  0  0  0  0  0  0  0  0  0
    7.7625  -13.8011   25.5522 C   0  0  2  0  0  0  0  0  0  0  0  0
    7.1763  -14.2398   24.3054 N   0  0  0  0  0  0  0  0  0  0  0  0
    8.3953  -14.9140   26.2692 C   0  0  0  0  0  0  0  0  0  0  0  0
    7.6127  -15.8207   26.7430 O   0  0  0  0  0  0  0  0  0  0  0  0
    9.7553  -15.1135   26.4983 N   0  0  0  0  0  0  0  0  0  0  0  0
   10.3183  -16.2203   27.2451 C   0  0  1  0  0  0  0  0  0  0  0  0
   11.7450  -16.3999   26.7060 C   0  0  0  0  0  0  0  0  0  0  0  0
   11.7165  -16.6871   25.2525 C   0  0  0  0  0  0  0  0  0  0  0  0
   10.6346  -17.0786   24.4930 C   0  0  0  0  0  0  0  0  0  0  0  0
   11.0041  -17.2469   23.1989 N   0  0  0  0  0  0  0  0  0  0  0  0
   12.3156  -16.9608   23.1496 C   0  0  0  0  0  0  0  0  0  0  0  0
   12.7386  -16.6262   24.3807 N   0  0  0  0  0  0  0  0  0  0  0  0
   10.3143  -16.0318   28.6882 C   0  0  0  0  0  0  0  0  0  0  0  0
   10.5806  -16.9790   29.4552 O   0  0  0  0  0  0  0  0  0  0  0  0
   10.0165  -14.8044   29.2463 O   0  0  0  0  0  0  0  0  0  0  0  0
  2  1  1  0
  2  3  1  0
  3  4  1  6
  5  3  1  0
  5  6  2  0
  8  7  1  6
  8 10  1  0
  8  9  1  0
 10 11  1  6
 11  5  1  0
 12 10  1  0
 13 12  2  0
 14 12  1  0
 15 22  1  0
 15 14  1  0
 15 16  1  6
 17 18  2  0
 17 16  1  0
 19 18  1  0
 20 21  2  0
 20 19  1  0
 21 17  1  0
 22 24  1  0
 23 22  2  0
M  END
$$$$
