SVH.pdb
     RDKit          3D

 24 24  0  0  1  0  0  0  0  0999 V2000
    7.7487  -17.0174   21.9276 O   0  0  0  0  0  0  0  0  0  0  0  0
    6.5575  -16.3346   21.7699 C   0  0  0  0  0  0  0  0  0  0  0  0
    6.8911  -14.8584   21.6498 C   0  0  2  0  0  0  0  0  0  0  0  0
    7.6430  -14.5324   20.4845 N   0  0  0  0  0  0  0  0  0  0  0  0
    7.7184  -14.4771   22.8609 C   0  0  0  0  0  0  0  0  0  0  0  0
    8.9344  -14.4119   22.6413 O   0  0  0  0  0  0  0  0  0  0  0  0
    6.4416  -11.8378   25.7154 C   0  0  0  0  0  0  0  0  0  0  0  0
    6.9767  -13.1241   26.3072 C   0  0  2  0  0  0  0  0  0  0  0  0
    7.5703  -12.8290   27.6342 C   0  0  0  0  0  0  0  0  0  0  0  0
    7.7425  -13.9931   25.3724 C   0  0  2  0  0  0  0  0  0  0  0  0
    7.1401  -14.2322   24.0799 N   0  0  0  0  0  0  0  0  0  0  0  0
    8.3240  -15.2199   25.9291 C   0  0  0  0  0  0  0  0  0  0  0  0
    7.5008  -16.1441   26.2858 O   0  0  0  0  0  0  0  0  0  0  0  0
    9.6738  -15.5114   26.1166 N   0  0  0  0  0  0  0  0  0  0  0  0
   10.1855  -16.7272   26.7165 C   0  0  1  0  0  0  0  0  0  0  0  0
   11.5348  -16.9900   26.0320 C   0  0  0  0  0  0  0  0  0  0  0  0
   11.3580  -17.0989   24.5647 C   0  0  0  0  0  0  0  0  0  0  0  0
   10.4810  -17.9136   23.8807 C   0  0  0  0  0  0  0  0  0  0  0  0
   10.6149  -17.7317   22.5434 N   0  0  0  0  0  0  0  0  0  0  0  0
   11.5745  -16.8041   22.3916 C   0  0  0  0  0  0  0  0  0  0  0  0
   12.0169  -16.4277   23.6036 N   0  0  0  0  0  0  0  0  0  0  0  0
   10.3256  -16.6671   28.1638 C   0  0  0  0  0  0  0  0  0  0  0  0
   10.6583  -17.6783   28.8143 O   0  0  0  0  0  0  0  0  0  0  0  0
   10.0949  -15.4939   28.8546 O   0  0  0  0  0  0  0  0  0  0  0  0
  2  1  1  0
  2  3  1  0
  3  4  1  6
  5  3  1  0
  5  6  2  0
  8  7  1  6
  8 10  1  0
  8  9  1  0
 10 11  1  6
 11  5  1  0
 12 10  1  0
 13 12  2  0
 14 12  1  0
 15 22  1  0
 15 14  1  0
 15 16  1  6
 17 18  2  0
 17 16  1  0
 19 18  1  0
 20 21  2  0
 20 19  1  0
 21 17  1  0
 22 24  1  0
 23 22  2  0
M  END
$$$$
