SVH.pdb
     RDKit          3D

 24 24  0  0  1  0  0  0  0  0999 V2000
    8.6140  -19.7023   20.2438 O   0  0  0  0  0  0  0  0  0  0  0  0
    7.6885  -18.9825   19.5123 C   0  0  0  0  0  0  0  0  0  0  0  0
    8.4589  -18.0685   18.5765 C   0  0  2  0  0  0  0  0  0  0  0  0
    9.5730  -18.6963   17.9485 N   0  0  0  0  0  0  0  0  0  0  0  0
    8.9800  -16.9071   19.3989 C   0  0  0  0  0  0  0  0  0  0  0  0
   10.1610  -17.0260   19.7484 O   0  0  0  0  0  0  0  0  0  0  0  0
    7.4386  -13.0579   18.9743 C   0  0  0  0  0  0  0  0  0  0  0  0
    7.5781  -13.5184   20.4094 C   0  0  2  0  0  0  0  0  0  0  0  0
    7.8307  -12.3357   21.2684 C   0  0  0  0  0  0  0  0  0  0  0  0
    8.4169  -14.7302   20.6180 C   0  0  2  0  0  0  0  0  0  0  0  0
    8.1870  -15.8330   19.7117 N   0  0  0  0  0  0  0  0  0  0  0  0
    8.5820  -15.1960   21.9997 C   0  0  0  0  0  0  0  0  0  0  0  0
    7.7174  -16.0459   22.4343 O   0  0  0  0  0  0  0  0  0  0  0  0
    9.5742  -14.8297   22.9070 N   0  0  0  0  0  0  0  0  0  0  0  0
    9.7171  -15.3690   24.2443 C   0  0  1  0  0  0  0  0  0  0  0  0
    8.3088  -15.8159   24.6628 C   0  0  0  0  0  0  0  0  0  0  0  0
    7.5446  -14.6712   25.2120 C   0  0  0  0  0  0  0  0  0  0  0  0
    7.9720  -13.3694   25.3644 C   0  0  0  0  0  0  0  0  0  0  0  0
    6.9863  -12.6105   25.9050 N   0  0  0  0  0  0  0  0  0  0  0  0
    5.9439  -13.4371   26.0901 C   0  0  0  0  0  0  0  0  0  0  0  0
    6.2817  -14.6697   25.6742 N   0  0  0  0  0  0  0  0  0  0  0  0
   10.6751  -16.4594   24.3505 C   0  0  0  0  0  0  0  0  0  0  0  0
   10.4520  -17.5590   23.8050 O   0  0  0  0  0  0  0  0  0  0  0  0
   11.8529  -16.3079   25.0554 O   0  0  0  0  0  0  0  0  0  0  0  0
  2  1  1  0
  2  3  1  0
  3  4  1  1
  5  3  1  0
  5  6  2  0
  8  7  1  6
  8 10  1  0
  8  9  1  0
 10 11  1  6
 11  5  1  0
 12 10  1  0
 13 12  2  0
 14 12  1  0
 15 22  1  0
 15 14  1  0
 15 16  1  6
 17 18  2  0
 17 16  1  0
 19 18  1  0
 20 21  2  0
 20 19  1  0
 21 17  1  0
 22 24  1  0
 23 22  2  0
M  END
$$$$
