SVH.pdb
     RDKit          3D

 24 24  0  0  1  0  0  0  0  0999 V2000
    8.6963  -19.3573   18.4876 O   0  0  0  0  0  0  0  0  0  0  0  0
    7.8624  -18.5258   17.7643 C   0  0  0  0  0  0  0  0  0  0  0  0
    8.6865  -17.3320   17.3164 C   0  0  2  0  0  0  0  0  0  0  0  0
    9.8284  -17.6813   16.5393 N   0  0  0  0  0  0  0  0  0  0  0  0
    9.1704  -16.6178   18.5622 C   0  0  0  0  0  0  0  0  0  0  0  0
   10.3572  -16.8329   18.8385 O   0  0  0  0  0  0  0  0  0  0  0  0
    7.3356  -12.9739   19.6985 C   0  0  0  0  0  0  0  0  0  0  0  0
    7.6157  -13.9646   20.8081 C   0  0  2  0  0  0  0  0  0  0  0  0
    7.7769  -13.2222   22.0822 C   0  0  0  0  0  0  0  0  0  0  0  0
    8.6042  -15.0297   20.4857 C   0  0  2  0  0  0  0  0  0  0  0  0
    8.3410  -15.8105   19.2976 N   0  0  0  0  0  0  0  0  0  0  0  0
    9.0565  -15.8764   21.5956 C   0  0  0  0  0  0  0  0  0  0  0  0
    8.2628  -16.8196   21.9685 O   0  0  0  0  0  0  0  0  0  0  0  0
   10.2557  -15.7855   22.2996 N   0  0  0  0  0  0  0  0  0  0  0  0
   10.6422  -16.6493   23.3970 C   0  0  1  0  0  0  0  0  0  0  0  0
   12.1712  -16.5413   23.4897 C   0  0  0  0  0  0  0  0  0  0  0  0
   12.8097  -17.2531   22.3575 C   0  0  0  0  0  0  0  0  0  0  0  0
   12.2871  -18.2884   21.6120 C   0  0  0  0  0  0  0  0  0  0  0  0
   13.1730  -18.6782   20.6619 N   0  0  0  0  0  0  0  0  0  0  0  0
   14.2481  -17.8873   20.8132 C   0  0  0  0  0  0  0  0  0  0  0  0
   14.0270  -17.0356   21.8292 N   0  0  0  0  0  0  0  0  0  0  0  0
   10.0077  -16.3247   24.6659 C   0  0  0  0  0  0  0  0  0  0  0  0
    9.9131  -17.1809   25.5684 O   0  0  0  0  0  0  0  0  0  0  0  0
    9.4944  -15.0653   24.9051 O   0  0  0  0  0  0  0  0  0  0  0  0
  2  1  1  0
  2  3  1  0
  3  4  1  1
  5  3  1  0
  5  6  2  0
  8  7  1  6
  8 10  1  0
  8  9  1  0
 10 11  1  6
 11  5  1  0
 12 10  1  0
 13 12  2  0
 14 12  1  0
 15 22  1  0
 15 14  1  0
 15 16  1  1
 17 18  2  0
 17 16  1  0
 19 18  1  0
 20 21  2  0
 20 19  1  0
 21 17  1  0
 22 24  1  0
 23 22  2  0
M  END
$$$$
