YHR.pdb
     RDKit          3D

 34 35  0  0  1  0  0  0  0  0999 V2000
   18.6783  -15.8630  -15.7015 O   0  0  0  0  0  0  0  0  0  0  0  0
   17.7878  -14.8160  -15.4615 C   0  0  0  0  0  0  0  0  0  0  0  0
   18.2318  -13.4992  -15.5289 C   0  0  0  0  0  0  0  0  0  0  0  0
   17.3317  -12.4848  -15.2876 C   0  0  0  0  0  0  0  0  0  0  0  0
   15.9966  -12.7733  -14.9807 C   0  0  0  0  0  0  0  0  0  0  0  0
   15.0953  -11.6470  -14.7392 C   0  0  0  0  0  0  0  0  0  0  0  0
   14.4403  -11.1855  -16.0150 C   0  0  2  0  0  0  0  0  0  0  0  0
   13.9289  -12.2652  -16.7892 N   0  0  0  0  0  0  0  0  0  0  0  0
   15.3489  -10.3495  -16.8446 C   0  0  0  0  0  0  0  0  0  0  0  0
   15.7496  -10.8286  -17.9296 O   0  0  0  0  0  0  0  0  0  0  0  0
   15.5469  -14.0767  -14.9118 C   0  0  0  0  0  0  0  0  0  0  0  0
   16.4583  -15.0776  -15.1552 C   0  0  0  0  0  0  0  0  0  0  0  0
   15.7764   -9.0648  -16.4781 N   0  0  0  0  0  0  0  0  0  0  0  0
   16.5501   -8.1333  -17.2109 C   0  0  1  0  0  0  0  0  0  0  0  0
   16.1717   -7.9373  -18.6663 C   0  0  0  0  0  0  0  0  0  0  0  0
   17.1639   -7.0734  -19.3775 C   0  0  0  0  0  0  0  0  0  0  0  0
   18.3257   -6.6061  -18.7373 C   0  0  0  0  0  0  0  0  0  0  0  0
   18.9667   -5.8793  -19.6568 N   0  0  0  0  0  0  0  0  0  0  0  0
   18.2845   -5.8671  -20.8114 C   0  0  0  0  0  0  0  0  0  0  0  0
   17.1912   -6.6020  -20.6129 N   0  0  0  0  0  0  0  0  0  0  0  0
   16.7799   -6.8710  -16.5320 C   0  0  0  0  0  0  0  0  0  0  0  0
   15.8296   -6.0055  -16.5419 O   0  0  0  0  0  0  0  0  0  0  0  0
   14.9083   -8.2704   -8.9240 N   0  0  0  0  0  0  0  0  0  0  0  0
   14.9662   -6.8575   -9.0909 C   0  0  0  0  0  0  0  0  0  0  0  0
   14.2442   -6.1014   -8.3578 N   0  0  0  0  0  0  0  0  0  0  0  0
   15.8236   -6.2648  -10.0690 N   0  0  0  0  0  0  0  0  0  0  0  0
   16.0752   -6.8680  -11.3613 C   0  0  0  0  0  0  0  0  0  0  0  0
   16.9624   -6.0098  -12.2383 C   0  0  0  0  0  0  0  0  0  0  0  0
   17.0835   -6.7059  -13.5751 C   0  0  0  0  0  0  0  0  0  0  0  0
   17.8872   -5.8988  -14.5632 C   0  0  2  0  0  0  0  0  0  0  0  0
   17.9523   -6.5020  -15.8584 N   0  0  0  0  0  0  0  0  0  0  0  0
   19.2700   -5.6502  -14.0904 C   0  0  0  0  0  0  0  0  0  0  0  0
   19.4915   -5.0366  -13.0163 O   0  0  0  0  0  0  0  0  0  0  0  0
   20.3763   -6.0793  -14.8047 O   0  0  0  0  0  0  0  0  0  0  0  0
  2  1  1  0
  3  2  2  0
  4  3  1  0
  5  4  2  0
  5 11  1  0
  6  5  1  0
  7  6  1  0
  7  8  1  6
  9  7  1  0
 10  9  2  0
 11 12  2  0
 12  2  1  0
 13  9  1  0
 14 13  1  0
 14 21  1  0
 14 15  1  6
 16 15  1  0
 17 16  2  0
 18 19  1  0
 18 17  1  0
 19 20  2  0
 20 16  1  0
 21 22  2  0
 23 24  1  0
 24 26  1  0
 24 25  2  0
 26 27  1  0
 27 28  1  0
 29 28  1  0
 30 29  1  1
 31 21  1  0
 31 30  1  0
 32 30  1  0
 32 34  1  0
 33 32  2  0
M  END
$$$$
