YHR.pdb
     RDKit          3D

 34 35  0  0  1  0  0  0  0  0999 V2000
   21.6098  -17.0961  -21.2484 O   0  0  0  0  0  0  0  0  0  0  0  0
   21.2570  -15.8260  -20.7908 C   0  0  0  0  0  0  0  0  0  0  0  0
   22.2412  -14.9568  -20.3311 C   0  0  0  0  0  0  0  0  0  0  0  0
   21.8653  -13.7089  -19.8851 C   0  0  0  0  0  0  0  0  0  0  0  0
   20.5196  -13.3232  -19.8942 C   0  0  0  0  0  0  0  0  0  0  0  0
   20.1928  -11.9826  -19.4091 C   0  0  0  0  0  0  0  0  0  0  0  0
   20.2488  -11.9149  -17.9051 C   0  0  2  0  0  0  0  0  0  0  0  0
   19.3314  -12.8081  -17.2827 N   0  0  0  0  0  0  0  0  0  0  0  0
   20.0401  -10.5333  -17.3950 C   0  0  0  0  0  0  0  0  0  0  0  0
   18.9483   -9.9778  -17.6533 O   0  0  0  0  0  0  0  0  0  0  0  0
   19.5361  -14.1788  -20.3486 C   0  0  0  0  0  0  0  0  0  0  0  0
   19.9282  -15.4210  -20.7903 C   0  0  0  0  0  0  0  0  0  0  0  0
   20.9936   -9.8270  -16.6471 N   0  0  0  0  0  0  0  0  0  0  0  0
   20.9430   -8.5028  -16.1499 C   0  0  1  0  0  0  0  0  0  0  0  0
   21.9170   -8.1604  -15.0391 C   0  0  0  0  0  0  0  0  0  0  0  0
   21.7266   -6.7572  -14.5584 C   0  0  0  0  0  0  0  0  0  0  0  0
   20.7776   -5.9004  -15.1446 C   0  0  0  0  0  0  0  0  0  0  0  0
   20.8806   -4.7493  -14.4745 N   0  0  0  0  0  0  0  0  0  0  0  0
   21.8210   -4.8376  -13.5224 C   0  0  0  0  0  0  0  0  0  0  0  0
   22.3197   -6.0707  -13.5960 N   0  0  0  0  0  0  0  0  0  0  0  0
   20.8982   -7.4739  -17.1729 C   0  0  0  0  0  0  0  0  0  0  0  0
   21.8686   -7.4252  -18.0144 O   0  0  0  0  0  0  0  0  0  0  0  0
   14.4627   -8.7109  -19.4441 N   0  0  0  0  0  0  0  0  0  0  0  0
   15.6089   -9.4765  -19.8012 C   0  0  0  0  0  0  0  0  0  0  0  0
   15.4966  -10.7327  -20.0004 N   0  0  0  0  0  0  0  0  0  0  0  0
   16.8915   -8.8617  -19.9434 N   0  0  0  0  0  0  0  0  0  0  0  0
   17.1638   -7.5054  -19.5151 C   0  0  0  0  0  0  0  0  0  0  0  0
   18.5573   -7.0479  -19.8915 C   0  0  0  0  0  0  0  0  0  0  0  0
   18.7439   -5.6585  -19.3247 C   0  0  0  0  0  0  0  0  0  0  0  0
   19.9384   -5.5764  -18.4081 C   0  0  2  0  0  0  0  0  0  0  0  0
   19.8857   -6.5179  -17.3328 N   0  0  0  0  0  0  0  0  0  0  0  0
   20.1142   -4.2199  -17.8369 C   0  0  0  0  0  0  0  0  0  0  0  0
   19.2457   -3.7118  -17.0839 O   0  0  0  0  0  0  0  0  0  0  0  0
   21.2359   -3.4527  -18.1038 O   0  0  0  0  0  0  0  0  0  0  0  0
  2  1  1  0
  3  2  2  0
  4  3  1  0
  5  4  2  0
  5 11  1  0
  6  5  1  0
  7  6  1  0
  7  8  1  1
  9  7  1  0
 10  9  2  0
 11 12  2  0
 12  2  1  0
 13  9  1  0
 14 13  1  0
 14 21  1  0
 14 15  1  6
 16 15  1  0
 17 16  2  0
 18 19  1  0
 18 17  1  0
 19 20  2  0
 20 16  1  0
 21 22  2  0
 23 24  1  0
 24 26  1  0
 24 25  2  0
 26 27  1  0
 27 28  1  0
 29 28  1  0
 30 29  1  1
 31 21  1  0
 31 30  1  0
 32 30  1  0
 32 34  1  0
 33 32  2  0
M  END
$$$$
