YHR.pdb
     RDKit          3D

 34 35  0  0  1  0  0  0  0  0999 V2000
   21.5448  -12.4634  -17.9372 O   0  0  0  0  0  0  0  0  0  0  0  0
   21.8921  -13.6842  -17.3576 C   0  0  0  0  0  0  0  0  0  0  0  0
   23.1399  -13.8386  -16.7620 C   0  0  0  0  0  0  0  0  0  0  0  0
   23.4570  -15.0543  -16.1973 C   0  0  0  0  0  0  0  0  0  0  0  0
   22.5418  -16.1134  -16.2223 C   0  0  0  0  0  0  0  0  0  0  0  0
   22.9439  -17.3750  -15.6011 C   0  0  0  0  0  0  0  0  0  0  0  0
   24.2019  -17.9181  -16.2275 C   0  0  2  0  0  0  0  0  0  0  0  0
   24.0278  -18.2571  -17.5991 N   0  0  0  0  0  0  0  0  0  0  0  0
   24.7459  -19.0834  -15.4799 C   0  0  0  0  0  0  0  0  0  0  0  0
   24.1403  -20.1741  -15.5841 O   0  0  0  0  0  0  0  0  0  0  0  0
   21.3014  -15.9695  -16.8109 C   0  0  0  0  0  0  0  0  0  0  0  0
   21.0005  -14.7494  -17.3702 C   0  0  0  0  0  0  0  0  0  0  0  0
   25.8909  -19.0245  -14.6719 N   0  0  0  0  0  0  0  0  0  0  0  0
   26.3860  -19.9740  -13.7463 C   0  0  1  0  0  0  0  0  0  0  0  0
   27.7854  -20.4998  -14.0010 C   0  0  0  0  0  0  0  0  0  0  0  0
   28.0654  -20.6218  -15.4650 C   0  0  0  0  0  0  0  0  0  0  0  0
   27.0762  -20.3549  -16.4286 C   0  0  0  0  0  0  0  0  0  0  0  0
   27.6687  -20.5604  -17.6082 N   0  0  0  0  0  0  0  0  0  0  0  0
   28.9458  -20.9328  -17.4386 C   0  0  0  0  0  0  0  0  0  0  0  0
   29.1605  -20.9619  -16.1241 N   0  0  0  0  0  0  0  0  0  0  0  0
   26.1795  -19.6246  -12.3526 C   0  0  0  0  0  0  0  0  0  0  0  0
   26.9671  -18.7521  -11.8322 O   0  0  0  0  0  0  0  0  0  0  0  0
   20.7681  -21.7314   -6.0307 N   0  0  0  0  0  0  0  0  0  0  0  0
   20.9512  -21.7731   -7.4421 C   0  0  0  0  0  0  0  0  0  0  0  0
   19.9359  -21.7370   -8.2155 N   0  0  0  0  0  0  0  0  0  0  0  0
   22.2587  -21.8540   -8.0141 N   0  0  0  0  0  0  0  0  0  0  0  0
   23.4686  -21.7554   -7.2245 C   0  0  0  0  0  0  0  0  0  0  0  0
   24.4970  -20.8385   -7.8526 C   0  0  0  0  0  0  0  0  0  0  0  0
   24.3369  -20.9421   -9.3526 C   0  0  0  0  0  0  0  0  0  0  0  0
   25.3349  -20.0848  -10.0893 C   0  0  2  0  0  0  0  0  0  0  0  0
   25.1915  -20.1535  -11.5107 N   0  0  0  0  0  0  0  0  0  0  0  0
   26.7340  -20.4287   -9.7409 C   0  0  0  0  0  0  0  0  0  0  0  0
   27.3306  -21.3817  -10.3023 O   0  0  0  0  0  0  0  0  0  0  0  0
   27.4460  -19.7211   -8.7866 O   0  0  0  0  0  0  0  0  0  0  0  0
  2  1  1  0
  3  2  2  0
  4  3  1  0
  5  4  2  0
  5 11  1  0
  6  5  1  0
  7  6  1  0
  7  8  1  6
  9  7  1  0
 10  9  2  0
 11 12  2  0
 12  2  1  0
 13  9  1  0
 14 13  1  0
 14 21  1  0
 14 15  1  1
 16 15  1  0
 17 16  2  0
 18 19  1  0
 18 17  1  0
 19 20  2  0
 20 16  1  0
 21 22  2  0
 23 24  1  0
 24 26  1  0
 24 25  2  0
 26 27  1  0
 27 28  1  0
 29 28  1  0
 30 29  1  1
 31 21  1  0
 31 30  1  0
 32 30  1  0
 32 34  1  0
 33 32  2  0
M  END
$$$$
