YHR.pdb
     RDKit          3D

 34 35  0  0  1  0  0  0  0  0999 V2000
   32.1041  -16.4347  -18.7736 O   0  0  0  0  0  0  0  0  0  0  0  0
   30.8012  -16.4113  -18.2748 C   0  0  0  0  0  0  0  0  0  0  0  0
   30.2154  -17.5850  -17.8111 C   0  0  0  0  0  0  0  0  0  0  0  0
   28.9280  -17.5337  -17.3240 C   0  0  0  0  0  0  0  0  0  0  0  0
   28.2231  -16.3244  -17.2960 C   0  0  0  0  0  0  0  0  0  0  0  0
   26.8613  -16.3429  -16.7626 C   0  0  0  0  0  0  0  0  0  0  0  0
   25.9016  -16.9835  -17.7314 C   0  0  2  0  0  0  0  0  0  0  0  0
   25.9047  -16.3483  -19.0054 N   0  0  0  0  0  0  0  0  0  0  0  0
   24.5154  -17.0429  -17.1952 C   0  0  0  0  0  0  0  0  0  0  0  0
   23.7795  -16.0464  -17.3766 O   0  0  0  0  0  0  0  0  0  0  0  0
   28.7961  -15.1549  -17.7538 C   0  0  0  0  0  0  0  0  0  0  0  0
   30.0820  -15.2234  -18.2371 C   0  0  0  0  0  0  0  0  0  0  0  0
   23.9946  -18.1463  -16.5034 N   0  0  0  0  0  0  0  0  0  0  0  0
   22.7621  -18.2769  -15.8198 C   0  0  1  0  0  0  0  0  0  0  0  0
   21.5208  -17.8448  -16.5763 C   0  0  0  0  0  0  0  0  0  0  0  0
   21.4741  -18.4522  -17.9421 C   0  0  0  0  0  0  0  0  0  0  0  0
   22.4892  -19.3104  -18.4014 C   0  0  0  0  0  0  0  0  0  0  0  0
   22.1242  -19.6575  -19.6388 N   0  0  0  0  0  0  0  0  0  0  0  0
   20.9621  -19.0762  -19.9707 C   0  0  0  0  0  0  0  0  0  0  0  0
   20.5890  -18.3482  -18.9194 N   0  0  0  0  0  0  0  0  0  0  0  0
   22.5758  -19.5494  -15.1466 C   0  0  0  0  0  0  0  0  0  0  0  0
   22.9438  -20.6133  -15.7671 O   0  0  0  0  0  0  0  0  0  0  0  0
   28.9284  -20.8152  -11.1814 N   0  0  0  0  0  0  0  0  0  0  0  0
   28.1106  -21.5191  -10.2523 C   0  0  0  0  0  0  0  0  0  0  0  0
   28.6481  -22.1261   -9.2659 N   0  0  0  0  0  0  0  0  0  0  0  0
   26.6897  -21.5588  -10.4027 N   0  0  0  0  0  0  0  0  0  0  0  0
   25.9764  -20.7235  -11.3465 C   0  0  0  0  0  0  0  0  0  0  0  0
   24.4736  -20.8394  -11.2021 C   0  0  0  0  0  0  0  0  0  0  0  0
   23.8499  -19.9379  -12.2436 C   0  0  0  0  0  0  0  0  0  0  0  0
   22.6671  -20.5856  -12.9183 C   0  0  2  0  0  0  0  0  0  0  0  0
   22.0271  -19.7307  -13.8696 N   0  0  0  0  0  0  0  0  0  0  0  0
   21.6506  -21.0486  -11.9439 C   0  0  0  0  0  0  0  0  0  0  0  0
   21.9209  -21.9280  -11.0877 O   0  0  0  0  0  0  0  0  0  0  0  0
   20.3632  -20.5380  -11.9303 O   0  0  0  0  0  0  0  0  0  0  0  0
  2  1  1  0
  3  2  2  0
  4  3  1  0
  5  4  2  0
  5 11  1  0
  6  5  1  0
  7  6  1  0
  7  8  1  6
  9  7  1  0
 10  9  2  0
 11 12  2  0
 12  2  1  0
 13  9  1  0
 14 13  1  0
 14 21  1  0
 14 15  1  6
 16 15  1  0
 17 16  2  0
 18 19  1  0
 18 17  1  0
 19 20  2  0
 20 16  1  0
 21 22  2  0
 23 24  1  0
 24 26  1  0
 24 25  2  0
 26 27  1  0
 27 28  1  0
 29 28  1  0
 30 29  1  1
 31 21  1  0
 31 30  1  0
 32 30  1  0
 32 34  1  0
 33 32  2  0
M  END
$$$$
