YHR.pdb
     RDKit          3D

 34 35  0  0  1  0  0  0  0  0999 V2000
   16.0187  -20.8984   -9.9747 O   0  0  0  0  0  0  0  0  0  0  0  0
   17.1764  -20.7176  -10.7323 C   0  0  0  0  0  0  0  0  0  0  0  0
   17.4145  -19.4956  -11.3534 C   0  0  0  0  0  0  0  0  0  0  0  0
   18.5652  -19.3442  -12.0952 C   0  0  0  0  0  0  0  0  0  0  0  0
   19.4769  -20.3989  -12.2216 C   0  0  0  0  0  0  0  0  0  0  0  0
   20.6791  -20.1670  -13.0218 C   0  0  0  0  0  0  0  0  0  0  0  0
   20.3681  -20.1830  -14.4958 C   0  0  2  0  0  0  0  0  0  0  0  0
   19.8176  -21.4236  -14.9254 N   0  0  0  0  0  0  0  0  0  0  0  0
   21.5532  -19.8371  -15.3256 C   0  0  0  0  0  0  0  0  0  0  0  0
   22.2676  -20.7787  -15.7386 O   0  0  0  0  0  0  0  0  0  0  0  0
   19.2493  -21.6149  -11.6089 C   0  0  0  0  0  0  0  0  0  0  0  0
   18.0957  -21.7497  -10.8721 C   0  0  0  0  0  0  0  0  0  0  0  0
   21.9090  -18.5238  -15.6660 N   0  0  0  0  0  0  0  0  0  0  0  0
   23.0217  -18.0587  -16.4070 C   0  0  1  0  0  0  0  0  0  0  0  0
   22.9057  -16.6671  -16.9984 C   0  0  0  0  0  0  0  0  0  0  0  0
   21.9030  -16.6262  -18.1071 C   0  0  0  0  0  0  0  0  0  0  0  0
   21.2670  -17.7929  -18.5682 C   0  0  0  0  0  0  0  0  0  0  0  0
   20.4506  -17.3869  -19.5446 N   0  0  0  0  0  0  0  0  0  0  0  0
   20.5393  -16.0597  -19.7154 C   0  0  0  0  0  0  0  0  0  0  0  0
   21.4306  -15.6224  -18.8272 N   0  0  0  0  0  0  0  0  0  0  0  0
   24.3069  -18.2748  -15.7679 C   0  0  0  0  0  0  0  0  0  0  0  0
   24.5009  -17.7344  -14.6178 O   0  0  0  0  0  0  0  0  0  0  0  0
   25.0273  -21.7002  -10.6327 N   0  0  0  0  0  0  0  0  0  0  0  0
   26.4500  -21.7461  -10.5980 C   0  0  0  0  0  0  0  0  0  0  0  0
   27.0503  -22.0103   -9.5025 N   0  0  0  0  0  0  0  0  0  0  0  0
   27.2248  -21.5017  -11.7742 N   0  0  0  0  0  0  0  0  0  0  0  0
   26.6278  -21.2386  -13.0670 C   0  0  0  0  0  0  0  0  0  0  0  0
   27.6634  -21.0411  -14.1539 C   0  0  0  0  0  0  0  0  0  0  0  0
   26.9207  -20.7171  -15.4305 C   0  0  0  0  0  0  0  0  0  0  0  0
   26.5463  -19.2588  -15.5135 C   0  0  2  0  0  0  0  0  0  0  0  0
   25.3687  -19.0258  -16.2909 N   0  0  0  0  0  0  0  0  0  0  0  0
   27.6444  -18.4288  -16.0634 C   0  0  0  0  0  0  0  0  0  0  0  0
   27.8505  -18.3567  -17.3010 O   0  0  0  0  0  0  0  0  0  0  0  0
   28.4901  -17.6980  -15.2454 O   0  0  0  0  0  0  0  0  0  0  0  0
  2  1  1  0
  3  2  2  0
  4  3  1  0
  5  4  2  0
  5 11  1  0
  6  5  1  0
  7  6  1  0
  7  8  1  6
  9  7  1  0
 10  9  2  0
 11 12  2  0
 12  2  1  0
 13  9  1  0
 14 13  1  0
 14 21  1  0
 14 15  1  1
 16 15  1  0
 17 16  2  0
 18 19  1  0
 18 17  1  0
 19 20  2  0
 20 16  1  0
 21 22  2  0
 23 24  1  0
 24 26  1  0
 24 25  2  0
 26 27  1  0
 27 28  1  0
 29 28  1  0
 30 29  1  6
 31 21  1  0
 31 30  1  0
 32 30  1  0
 32 34  1  0
 33 32  2  0
M  END
$$$$
