YHR.pdb
     RDKit          3D

 34 35  0  0  1  0  0  0  0  0999 V2000
   24.1192  -11.9748  -20.5204 O   0  0  0  0  0  0  0  0  0  0  0  0
   24.1645  -13.1728  -19.8065 C   0  0  0  0  0  0  0  0  0  0  0  0
   25.1924  -13.3991  -18.8967 C   0  0  0  0  0  0  0  0  0  0  0  0
   25.2131  -14.5903  -18.2054 C   0  0  0  0  0  0  0  0  0  0  0  0
   24.2194  -15.5541  -18.4141 C   0  0  0  0  0  0  0  0  0  0  0  0
   24.3019  -16.7945  -17.6435 C   0  0  0  0  0  0  0  0  0  0  0  0
   25.4501  -17.6526  -18.1072 C   0  0  2  0  0  0  0  0  0  0  0  0
   25.3267  -18.0413  -19.4712 N   0  0  0  0  0  0  0  0  0  0  0  0
   25.6378  -18.8539  -17.2504 C   0  0  0  0  0  0  0  0  0  0  0  0
   24.9053  -19.8449  -17.4714 O   0  0  0  0  0  0  0  0  0  0  0  0
   23.1955  -15.3384  -19.3146 C   0  0  0  0  0  0  0  0  0  0  0  0
   23.1896  -14.1440  -19.9968 C   0  0  0  0  0  0  0  0  0  0  0  0
   26.5832  -18.9337  -16.2174 N   0  0  0  0  0  0  0  0  0  0  0  0
   26.8585  -20.0042  -15.3333 C   0  0  1  0  0  0  0  0  0  0  0  0
   28.3126  -20.4133  -15.1995 C   0  0  0  0  0  0  0  0  0  0  0  0
   28.7906  -21.1385  -16.4169 C   0  0  0  0  0  0  0  0  0  0  0  0
   27.9081  -21.5077  -17.4479 C   0  0  0  0  0  0  0  0  0  0  0  0
   28.6674  -22.1247  -18.3576 N   0  0  0  0  0  0  0  0  0  0  0  0
   29.9479  -22.1604  -17.9607 C   0  0  0  0  0  0  0  0  0  0  0  0
   29.9942  -21.5529  -16.7760 N   0  0  0  0  0  0  0  0  0  0  0  0
   26.1974  -19.9095  -14.0444 C   0  0  0  0  0  0  0  0  0  0  0  0
   26.3798  -18.8390  -13.3565 O   0  0  0  0  0  0  0  0  0  0  0  0
   18.1313  -21.5869  -11.8956 N   0  0  0  0  0  0  0  0  0  0  0  0
   18.6676  -20.4069  -11.3062 C   0  0  0  0  0  0  0  0  0  0  0  0
   17.8863  -19.5614  -10.7538 N   0  0  0  0  0  0  0  0  0  0  0  0
   20.0735  -20.1490  -11.3199 N   0  0  0  0  0  0  0  0  0  0  0  0
   21.0649  -21.1946  -11.1757 C   0  0  0  0  0  0  0  0  0  0  0  0
   22.4707  -20.6464  -11.0488 C   0  0  0  0  0  0  0  0  0  0  0  0
   23.2045  -20.9877  -12.3261 C   0  0  0  0  0  0  0  0  0  0  0  0
   24.6647  -20.6177  -12.2565 C   0  0  2  0  0  0  0  0  0  0  0  0
   25.3691  -20.8847  -13.4723 N   0  0  0  0  0  0  0  0  0  0  0  0
   25.3650  -21.3067  -11.1465 C   0  0  0  0  0  0  0  0  0  0  0  0
   26.0423  -22.3460  -11.3480 O   0  0  0  0  0  0  0  0  0  0  0  0
   25.3068  -20.8416   -9.8432 O   0  0  0  0  0  0  0  0  0  0  0  0
  2  1  1  0
  3  2  2  0
  4  3  1  0
  5  4  2  0
  5 11  1  0
  6  5  1  0
  7  6  1  0
  7  8  1  6
  9  7  1  0
 10  9  2  0
 11 12  2  0
 12  2  1  0
 13  9  1  0
 14 13  1  0
 14 21  1  0
 14 15  1  1
 16 15  1  0
 17 16  2  0
 18 19  1  0
 18 17  1  0
 19 20  2  0
 20 16  1  0
 21 22  2  0
 23 24  1  0
 24 26  1  0
 24 25  2  0
 26 27  1  0
 27 28  1  0
 29 28  1  0
 30 29  1  6
 31 21  1  0
 31 30  1  0
 32 30  1  0
 32 34  1  0
 33 32  2  0
M  END
$$$$
