CYV.pdb
     RDKit          3D

 26 26  0  0  1  0  0  0  0  0999 V2000
   25.7579  -20.4521   -8.5086 N   0  0  0  0  0  0  0  0  0  0  0  0
   24.9777  -20.7632   -9.6634 C   0  0  1  0  0  0  0  0  0  0  0  0
   23.5108  -20.8018   -9.2530 C   0  0  0  0  0  0  0  0  0  0  0  0
   23.2361  -22.0733   -7.9945 S   0  0  0  0  0  0  0  0  0  0  0  0
   25.1440  -19.8004  -10.7671 C   0  0  0  0  0  0  0  0  0  0  0  0
   24.9254  -18.5720  -10.5348 O   0  0  0  0  0  0  0  0  0  0  0  0
   28.8577  -16.0437  -17.9265 O   0  0  0  0  0  0  0  0  0  0  0  0
   28.4447  -16.7748  -16.8189 C   0  0  0  0  0  0  0  0  0  0  0  0
   28.6561  -18.1394  -16.7435 C   0  0  0  0  0  0  0  0  0  0  0  0
   28.2482  -18.8633  -15.6487 C   0  0  0  0  0  0  0  0  0  0  0  0
   27.6016  -18.2684  -14.5567 C   0  0  0  0  0  0  0  0  0  0  0  0
   27.1468  -19.0779  -13.4178 C   0  0  0  0  0  0  0  0  0  0  0  0
   25.6966  -19.1395  -13.1458 C   0  0  2  0  0  0  0  0  0  0  0  0
   25.5319  -20.1609  -12.0693 N   0  0  0  0  0  0  0  0  0  0  0  0
   24.8634  -19.5076  -14.2955 C   0  0  0  0  0  0  0  0  0  0  0  0
   24.8924  -20.7475  -14.6383 O   0  0  0  0  0  0  0  0  0  0  0  0
   27.4000  -16.9101  -14.6496 C   0  0  0  0  0  0  0  0  0  0  0  0
   27.8074  -16.1801  -15.7459 C   0  0  0  0  0  0  0  0  0  0  0  0
   21.4949  -17.4800  -15.8175 C   0  0  0  0  0  0  0  0  0  0  0  0
   21.8344  -18.9129  -16.0875 C   0  0  2  0  0  0  0  0  0  0  0  0
   21.2459  -19.7438  -14.9708 C   0  0  0  0  0  0  0  0  0  0  0  0
   23.3254  -19.1610  -16.1688 C   0  0  2  0  0  0  0  0  0  0  0  0
   24.0348  -18.6291  -15.0465 N   0  0  0  0  0  0  0  0  0  0  0  0
   23.8222  -18.5602  -17.4228 C   0  0  0  0  0  0  0  0  0  0  0  0
   24.6008  -17.5964  -17.4679 O   0  0  0  0  0  0  0  0  0  0  0  0
   23.4206  -19.0724  -18.6769 O   0  0  0  0  0  0  0  0  0  0  0  0
  2  3  1  0
  2  1  1  1
  4  3  1  0
  5  6  2  0
  5  2  1  0
  7  8  1  0
  8 18  2  0
  9 10  2  0
  9  8  1  0
 10 11  1  0
 11 17  2  0
 11 12  1  0
 13 12  1  6
 13 14  1  0
 14  5  1  0
 15 13  1  0
 15 16  2  0
 18 17  1  0
 20 19  1  1
 20 21  1  0
 22 23  1  1
 22 20  1  0
 23 15  1  0
 24 22  1  0
 25 24  2  0
 26 24  1  0
M  END
$$$$
