CYV.pdb
     RDKit          3D

 26 26  0  0  1  0  0  0  0  0999 V2000
   28.5572  -22.9486  -17.2330 N   0  0  0  0  0  0  0  0  0  0  0  0
   28.2813  -21.6959  -16.6057 C   0  0  1  0  0  0  0  0  0  0  0  0
   27.6624  -20.7675  -17.6435 C   0  0  0  0  0  0  0  0  0  0  0  0
   28.8704  -20.3527  -18.9259 S   0  0  0  0  0  0  0  0  0  0  0  0
   27.3727  -21.8000  -15.4497 C   0  0  0  0  0  0  0  0  0  0  0  0
   26.4834  -22.7055  -15.4604 O   0  0  0  0  0  0  0  0  0  0  0  0
   24.5022  -20.5637   -7.0031 O   0  0  0  0  0  0  0  0  0  0  0  0
   25.1649  -20.5381   -8.2247 C   0  0  0  0  0  0  0  0  0  0  0  0
   24.6881  -21.2479   -9.3116 C   0  0  0  0  0  0  0  0  0  0  0  0
   25.3424  -21.2232  -10.5200 C   0  0  0  0  0  0  0  0  0  0  0  0
   26.5177  -20.4861  -10.7198 C   0  0  0  0  0  0  0  0  0  0  0  0
   27.2115  -20.5105  -12.0150 C   0  0  0  0  0  0  0  0  0  0  0  0
   26.5248  -21.1455  -13.1578 C   0  0  2  0  0  0  0  0  0  0  0  0
   27.4303  -20.9532  -14.3291 N   0  0  0  0  0  0  0  0  0  0  0  0
   25.2016  -20.5956  -13.4719 C   0  0  0  0  0  0  0  0  0  0  0  0
   25.1846  -19.3883  -13.9166 O   0  0  0  0  0  0  0  0  0  0  0  0
   26.9768  -19.7864   -9.6271 C   0  0  0  0  0  0  0  0  0  0  0  0
   26.3237  -19.8083   -8.4133 C   0  0  0  0  0  0  0  0  0  0  0  0
   21.6555  -22.4580  -14.7690 C   0  0  0  0  0  0  0  0  0  0  0  0
   22.0308  -21.0098  -14.8272 C   0  0  2  0  0  0  0  0  0  0  0  0
   22.9178  -20.8123  -16.0347 C   0  0  0  0  0  0  0  0  0  0  0  0
   22.7566  -20.5378  -13.5856 C   0  0  2  0  0  0  0  0  0  0  0  0
   23.9583  -21.2724  -13.3367 N   0  0  0  0  0  0  0  0  0  0  0  0
   21.8326  -20.6600  -12.4404 C   0  0  0  0  0  0  0  0  0  0  0  0
   22.0150  -21.4254  -11.4822 O   0  0  0  0  0  0  0  0  0  0  0  0
   20.6540  -19.8833  -12.3781 O   0  0  0  0  0  0  0  0  0  0  0  0
  2  3  1  0
  2  1  1  6
  4  3  1  0
  5  6  2  0
  5  2  1  0
  7  8  1  0
  8 18  2  0
  9 10  2  0
  9  8  1  0
 10 11  1  0
 11 17  2  0
 11 12  1  0
 13 12  1  1
 13 14  1  0
 14  5  1  0
 15 13  1  0
 15 16  2  0
 18 17  1  0
 20 19  1  1
 20 21  1  0
 22 23  1  1
 22 20  1  0
 23 15  1  0
 24 22  1  0
 25 24  2  0
 26 24  1  0
M  END
$$$$
