CYV.pdb
     RDKit          3D

 26 26  0  0  1  0  0  0  0  0999 V2000
   21.6278  -13.4006  -16.3070 N   0  0  0  0  0  0  0  0  0  0  0  0
   21.3544  -12.1397  -16.9188 C   0  0  1  0  0  0  0  0  0  0  0  0
   20.1065  -12.2871  -17.7807 C   0  0  0  0  0  0  0  0  0  0  0  0
   20.4874  -13.1924  -19.3009 S   0  0  0  0  0  0  0  0  0  0  0  0
   21.1464  -11.0457  -15.9530 C   0  0  0  0  0  0  0  0  0  0  0  0
   20.4016  -11.2610  -14.9481 O   0  0  0  0  0  0  0  0  0  0  0  0
   27.6390   -9.4139  -16.8261 O   0  0  0  0  0  0  0  0  0  0  0  0
   26.4152   -9.1694  -16.2142 C   0  0  0  0  0  0  0  0  0  0  0  0
   25.9863   -9.9320  -15.1432 C   0  0  0  0  0  0  0  0  0  0  0  0
   24.7765   -9.6910  -14.5373 C   0  0  0  0  0  0  0  0  0  0  0  0
   23.9159   -8.6703  -14.9639 C   0  0  0  0  0  0  0  0  0  0  0  0
   22.6133   -8.4629  -14.3161 C   0  0  0  0  0  0  0  0  0  0  0  0
   21.3956   -8.6679  -15.1260 C   0  0  2  0  0  0  0  0  0  0  0  0
   21.7253   -9.7707  -16.0768 N   0  0  0  0  0  0  0  0  0  0  0  0
   20.9465   -7.4937  -15.8818 C   0  0  0  0  0  0  0  0  0  0  0  0
   21.5818   -7.2499  -16.9738 O   0  0  0  0  0  0  0  0  0  0  0  0
   24.3595   -7.9222  -16.0306 C   0  0  0  0  0  0  0  0  0  0  0  0
   25.5723   -8.1604  -16.6414 C   0  0  0  0  0  0  0  0  0  0  0  0
   17.3806   -6.6045  -17.1405 C   0  0  0  0  0  0  0  0  0  0  0  0
   18.0503   -5.3873  -16.5825 C   0  0  2  0  0  0  0  0  0  0  0  0
   17.7758   -4.2381  -17.5249 C   0  0  0  0  0  0  0  0  0  0  0  0
   19.5452   -5.5590  -16.4186 C   0  0  2  0  0  0  0  0  0  0  0  0
   19.8832   -6.6207  -15.5218 N   0  0  0  0  0  0  0  0  0  0  0  0
   20.1030   -4.2803  -15.9350 C   0  0  0  0  0  0  0  0  0  0  0  0
   20.4582   -4.0784  -14.7644 O   0  0  0  0  0  0  0  0  0  0  0  0
   20.2652   -3.1856  -16.8134 O   0  0  0  0  0  0  0  0  0  0  0  0
  2  3  1  0
  2  1  1  1
  4  3  1  0
  5  6  2  0
  5  2  1  0
  7  8  1  0
  8 18  2  0
  9 10  2  0
  9  8  1  0
 10 11  1  0
 11 17  2  0
 11 12  1  0
 13 12  1  6
 13 14  1  0
 14  5  1  0
 15 13  1  0
 15 16  2  0
 18 17  1  0
 20 19  1  6
 20 21  1  0
 22 23  1  1
 22 20  1  0
 23 15  1  0
 24 22  1  0
 25 24  2  0
 26 24  1  0
M  END
$$$$
