CYV.pdb
     RDKit          3D

 26 26  0  0  1  0  0  0  0  0999 V2000
   29.4174  -20.1916  -18.7540 N   0  0  0  0  0  0  0  0  0  0  0  0
   28.7351  -21.1107  -17.9003 C   0  0  1  0  0  0  0  0  0  0  0  0
   29.7683  -21.8022  -17.0193 C   0  0  0  0  0  0  0  0  0  0  0  0
   28.9613  -22.9438  -15.8697 S   0  0  0  0  0  0  0  0  0  0  0  0
   27.7169  -20.4779  -17.0426 C   0  0  0  0  0  0  0  0  0  0  0  0
   27.9736  -19.3418  -16.5383 O   0  0  0  0  0  0  0  0  0  0  0  0
   19.4013  -18.1518  -14.7184 O   0  0  0  0  0  0  0  0  0  0  0  0
   20.5989  -18.6362  -15.2311 C   0  0  0  0  0  0  0  0  0  0  0  0
   21.6410  -17.7818  -15.5423 C   0  0  0  0  0  0  0  0  0  0  0  0
   22.8257  -18.2597  -16.0493 C   0  0  0  0  0  0  0  0  0  0  0  0
   23.0453  -19.6249  -16.2782 C   0  0  0  0  0  0  0  0  0  0  0  0
   24.3114  -20.0982  -16.8548 C   0  0  0  0  0  0  0  0  0  0  0  0
   25.4451  -20.3352  -15.9386 C   0  0  2  0  0  0  0  0  0  0  0  0
   26.4713  -21.0585  -16.7465 N   0  0  0  0  0  0  0  0  0  0  0  0
   25.1246  -21.1232  -14.7436 C   0  0  0  0  0  0  0  0  0  0  0  0
   24.8906  -22.3732  -14.9392 O   0  0  0  0  0  0  0  0  0  0  0  0
   21.9974  -20.4595  -15.9626 C   0  0  0  0  0  0  0  0  0  0  0  0
   20.8074  -19.9845  -15.4539 C   0  0  0  0  0  0  0  0  0  0  0  0
   25.1940  -19.9880  -10.4890 C   0  0  0  0  0  0  0  0  0  0  0  0
   25.3591  -21.3513  -11.0853 C   0  0  2  0  0  0  0  0  0  0  0  0
   26.8343  -21.5717  -11.3285 C   0  0  0  0  0  0  0  0  0  0  0  0
   24.6026  -21.5226  -12.3851 C   0  0  2  0  0  0  0  0  0  0  0  0
   25.0586  -20.6349  -13.4096 N   0  0  0  0  0  0  0  0  0  0  0  0
   23.1684  -21.3004  -12.1131 C   0  0  0  0  0  0  0  0  0  0  0  0
   22.5510  -20.2776  -12.4447 O   0  0  0  0  0  0  0  0  0  0  0  0
   22.4022  -22.2770  -11.4381 O   0  0  0  0  0  0  0  0  0  0  0  0
  2  3  1  0
  2  1  1  1
  4  3  1  0
  5  6  2  0
  5  2  1  0
  7  8  1  0
  8 18  2  0
  9 10  2  0
  9  8  1  0
 10 11  1  0
 11 17  2  0
 11 12  1  0
 13 12  1  6
 13 14  1  0
 14  5  1  0
 15 13  1  0
 15 16  2  0
 18 17  1  0
 20 19  1  6
 20 21  1  0
 22 23  1  6
 22 20  1  0
 23 15  1  0
 24 22  1  0
 25 24  2  0
 26 24  1  0
M  END
$$$$
