CYV.pdb
     RDKit          3D

 26 26  0  0  1  0  0  0  0  0999 V2000
   28.8267  -21.5180  -18.6411 N   0  0  0  0  0  0  0  0  0  0  0  0
   28.3917  -20.4881  -17.7529 C   0  0  1  0  0  0  0  0  0  0  0  0
   27.5314  -19.5085  -18.5417 C   0  0  0  0  0  0  0  0  0  0  0  0
   28.5385  -18.6012  -19.7411 S   0  0  0  0  0  0  0  0  0  0  0  0
   27.6200  -20.9870  -16.6004 C   0  0  0  0  0  0  0  0  0  0  0  0
   27.1505  -22.1650  -16.6526 O   0  0  0  0  0  0  0  0  0  0  0  0
   24.2753  -20.8698   -8.2205 O   0  0  0  0  0  0  0  0  0  0  0  0
   24.9863  -20.6909   -9.4015 C   0  0  0  0  0  0  0  0  0  0  0  0
   24.6720  -19.6678  -10.2772 C   0  0  0  0  0  0  0  0  0  0  0  0
   25.3744  -19.4900  -11.4451 C   0  0  0  0  0  0  0  0  0  0  0  0
   26.4381  -20.3251  -11.8133 C   0  0  0  0  0  0  0  0  0  0  0  0
   27.1447  -20.1284  -13.0867 C   0  0  0  0  0  0  0  0  0  0  0  0
   26.6131  -20.8054  -14.2866 C   0  0  2  0  0  0  0  0  0  0  0  0
   27.3702  -20.2343  -15.4397 N   0  0  0  0  0  0  0  0  0  0  0  0
   25.1750  -20.6281  -14.5149 C   0  0  0  0  0  0  0  0  0  0  0  0
   24.8145  -19.4807  -14.9722 O   0  0  0  0  0  0  0  0  0  0  0  0
   26.7361  -21.3373  -10.9297 C   0  0  0  0  0  0  0  0  0  0  0  0
   26.0342  -21.5194   -9.7571 C   0  0  0  0  0  0  0  0  0  0  0  0
   22.8032  -21.8093  -16.9423 C   0  0  0  0  0  0  0  0  0  0  0  0
   22.1456  -22.0157  -15.6132 C   0  0  2  0  0  0  0  0  0  0  0  0
   20.6995  -21.5973  -15.7452 C   0  0  0  0  0  0  0  0  0  0  0  0
   22.8003  -21.2240  -14.5015 C   0  0  2  0  0  0  0  0  0  0  0  0
   24.1630  -21.6004  -14.2852 N   0  0  0  0  0  0  0  0  0  0  0  0
   22.0101  -21.4235  -13.2703 C   0  0  0  0  0  0  0  0  0  0  0  0
   22.2536  -22.2974  -12.4251 O   0  0  0  0  0  0  0  0  0  0  0  0
   20.8987  -20.5991  -12.9847 O   0  0  0  0  0  0  0  0  0  0  0  0
  2  3  1  0
  2  1  1  6
  4  3  1  0
  5  6  2  0
  5  2  1  0
  7  8  1  0
  8 18  2  0
  9 10  2  0
  9  8  1  0
 10 11  1  0
 11 17  2  0
 11 12  1  0
 13 12  1  1
 13 14  1  0
 14  5  1  0
 15 13  1  0
 15 16  2  0
 18 17  1  0
 20 19  1  6
 20 21  1  0
 22 23  1  1
 22 20  1  0
 23 15  1  0
 24 22  1  0
 25 24  2  0
 26 24  1  0
M  END
$$$$
