CYV.pdb
     RDKit          3D

 26 26  0  0  1  0  0  0  0  0999 V2000
   27.9042  -20.4187  -17.6600 N   0  0  0  0  0  0  0  0  0  0  0  0
   27.5640  -21.3174  -16.6038 C   0  0  1  0  0  0  0  0  0  0  0  0
   28.8545  -21.8053  -15.9569 C   0  0  0  0  0  0  0  0  0  0  0  0
   29.6071  -23.1174  -16.9510 S   0  0  0  0  0  0  0  0  0  0  0  0
   26.7038  -20.7161  -15.5688 C   0  0  0  0  0  0  0  0  0  0  0  0
   26.8413  -19.4807  -15.3124 O   0  0  0  0  0  0  0  0  0  0  0  0
   19.1912  -19.5869  -10.7871 O   0  0  0  0  0  0  0  0  0  0  0  0
   20.2415  -19.9713  -11.6123 C   0  0  0  0  0  0  0  0  0  0  0  0
   20.7928  -19.0908  -12.5251 C   0  0  0  0  0  0  0  0  0  0  0  0
   21.8314  -19.4698  -13.3415 C   0  0  0  0  0  0  0  0  0  0  0  0
   22.3869  -20.7559  -13.2977 C   0  0  0  0  0  0  0  0  0  0  0  0
   23.4734  -21.1390  -14.2099 C   0  0  0  0  0  0  0  0  0  0  0  0
   24.8524  -20.7566  -13.8452 C   0  0  2  0  0  0  0  0  0  0  0  0
   25.7345  -21.4306  -14.8435 N   0  0  0  0  0  0  0  0  0  0  0  0
   25.2675  -21.1425  -12.4922 C   0  0  0  0  0  0  0  0  0  0  0  0
   25.4506  -22.4010  -12.2967 O   0  0  0  0  0  0  0  0  0  0  0  0
   21.8255  -21.6180  -12.3834 C   0  0  0  0  0  0  0  0  0  0  0  0
   20.7836  -21.2421  -11.5627 C   0  0  0  0  0  0  0  0  0  0  0  0
   26.8417  -20.5048   -7.8776 C   0  0  0  0  0  0  0  0  0  0  0  0
   26.5019  -19.8882   -9.1989 C   0  0  2  0  0  0  0  0  0  0  0  0
   25.6629  -18.6600   -8.9315 C   0  0  0  0  0  0  0  0  0  0  0  0
   25.7435  -20.8282  -10.1112 C   0  0  2  0  0  0  0  0  0  0  0  0
   25.4882  -20.2604  -11.3988 N   0  0  0  0  0  0  0  0  0  0  0  0
   24.4747  -21.1873   -9.4468 C   0  0  0  0  0  0  0  0  0  0  0  0
   23.3682  -20.7360   -9.7773 O   0  0  0  0  0  0  0  0  0  0  0  0
   24.4588  -22.0947   -8.3639 O   0  0  0  0  0  0  0  0  0  0  0  0
  2  3  1  0
  2  1  1  6
  4  3  1  0
  5  6  2  0
  5  2  1  0
  7  8  1  0
  8 18  2  0
  9 10  2  0
  9  8  1  0
 10 11  1  0
 11 17  2  0
 11 12  1  0
 13 12  1  6
 13 14  1  0
 14  5  1  0
 15 13  1  0
 15 16  2  0
 18 17  1  0
 20 19  1  1
 20 21  1  0
 22 23  1  6
 22 20  1  0
 23 15  1  0
 24 22  1  0
 25 24  2  0
 26 24  1  0
M  END
$$$$
