CYV.pdb
     RDKit          3D

 26 26  0  0  1  0  0  0  0  0999 V2000
   27.5287  -20.5694  -18.7426 N   0  0  0  0  0  0  0  0  0  0  0  0
   26.6334  -21.1549  -17.7967 C   0  0  1  0  0  0  0  0  0  0  0  0
   27.3138  -22.3736  -17.1854 C   0  0  0  0  0  0  0  0  0  0  0  0
   27.7347  -22.0640  -15.4525 S   0  0  0  0  0  0  0  0  0  0  0  0
   26.2294  -20.2365  -16.7169 C   0  0  0  0  0  0  0  0  0  0  0  0
   26.5258  -19.0073  -16.8272 O   0  0  0  0  0  0  0  0  0  0  0  0
   18.8644  -21.2710  -16.1918 O   0  0  0  0  0  0  0  0  0  0  0  0
   20.1142  -20.6990  -15.9848 C   0  0  0  0  0  0  0  0  0  0  0  0
   20.4118  -20.0381  -14.8071 C   0  0  0  0  0  0  0  0  0  0  0  0
   21.6473  -19.4723  -14.6013 C   0  0  0  0  0  0  0  0  0  0  0  0
   22.6666  -19.5310  -15.5615 C   0  0  0  0  0  0  0  0  0  0  0  0
   23.9645  -18.8842  -15.3232 C   0  0  0  0  0  0  0  0  0  0  0  0
   24.9947  -19.6463  -14.5892 C   0  0  2  0  0  0  0  0  0  0  0  0
   25.5319  -20.6402  -15.5651 N   0  0  0  0  0  0  0  0  0  0  0  0
   24.5148  -20.3496  -13.3947 C   0  0  0  0  0  0  0  0  0  0  0  0
   24.1233  -21.5621  -13.5742 O   0  0  0  0  0  0  0  0  0  0  0  0
   22.3521  -20.1926  -16.7267 C   0  0  0  0  0  0  0  0  0  0  0  0
   21.1142  -20.7615  -16.9373 C   0  0  0  0  0  0  0  0  0  0  0  0
   24.8777  -21.4340   -8.6855 C   0  0  0  0  0  0  0  0  0  0  0  0
   25.1821  -20.5489   -9.8541 C   0  0  2  0  0  0  0  0  0  0  0  0
   25.1464  -19.1180   -9.3694 C   0  0  0  0  0  0  0  0  0  0  0  0
   24.2018  -20.7197  -10.9948 C   0  0  2  0  0  0  0  0  0  0  0  0
   24.4527  -19.8187  -12.0769 N   0  0  0  0  0  0  0  0  0  0  0  0
   22.8395  -20.5172  -10.4624 C   0  0  0  0  0  0  0  0  0  0  0  0
   22.3209  -21.2362   -9.5955 O   0  0  0  0  0  0  0  0  0  0  0  0
   22.0319  -19.4569  -10.9311 O   0  0  0  0  0  0  0  0  0  0  0  0
  2  3  1  0
  2  1  1  6
  4  3  1  0
  5  6  2  0
  5  2  1  0
  7  8  1  0
  8 18  2  0
  9 10  2  0
  9  8  1  0
 10 11  1  0
 11 17  2  0
 11 12  1  0
 13 12  1  6
 13 14  1  0
 14  5  1  0
 15 13  1  0
 15 16  2  0
 18 17  1  0
 20 19  1  1
 20 21  1  0
 22 23  1  6
 22 20  1  0
 23 15  1  0
 24 22  1  0
 25 24  2  0
 26 24  1  0
M  END
$$$$
