CYV.pdb
     RDKit          3D

 26 26  0  0  1  0  0  0  0  0999 V2000
   29.3676  -22.9382  -17.2620 N   0  0  0  0  0  0  0  0  0  0  0  0
   28.6428  -21.7599  -16.9077 C   0  0  1  0  0  0  0  0  0  0  0  0
   27.8916  -21.2720  -18.1403 C   0  0  0  0  0  0  0  0  0  0  0  0
   29.0501  -20.6683  -19.3931 S   0  0  0  0  0  0  0  0  0  0  0  0
   27.6829  -21.9636  -15.8078 C   0  0  0  0  0  0  0  0  0  0  0  0
   27.0879  -23.0817  -15.7249 O   0  0  0  0  0  0  0  0  0  0  0  0
   23.8980  -20.4406   -7.7418 O   0  0  0  0  0  0  0  0  0  0  0  0
   24.6127  -20.4362   -8.9339 C   0  0  0  0  0  0  0  0  0  0  0  0
   25.8240  -21.0946   -9.0437 C   0  0  0  0  0  0  0  0  0  0  0  0
   26.5315  -21.0910  -10.2219 C   0  0  0  0  0  0  0  0  0  0  0  0
   26.0728  -20.4278  -11.3683 C   0  0  0  0  0  0  0  0  0  0  0  0
   26.8719  -20.4142  -12.6015 C   0  0  0  0  0  0  0  0  0  0  0  0
   26.4295  -21.2657  -13.7240 C   0  0  2  0  0  0  0  0  0  0  0  0
   27.3836  -20.9901  -14.8388 N   0  0  0  0  0  0  0  0  0  0  0  0
   25.0590  -21.0219  -14.1869 C   0  0  0  0  0  0  0  0  0  0  0  0
   24.8965  -20.0011  -14.9532 O   0  0  0  0  0  0  0  0  0  0  0  0
   24.8661  -19.7785  -11.2400 C   0  0  0  0  0  0  0  0  0  0  0  0
   24.1531  -19.7794  -10.0601 C   0  0  0  0  0  0  0  0  0  0  0  0
   21.8905  -23.7524  -14.6653 C   0  0  0  0  0  0  0  0  0  0  0  0
   21.9986  -22.3929  -15.2830 C   0  0  2  0  0  0  0  0  0  0  0  0
   22.8207  -22.5245  -16.5443 C   0  0  0  0  0  0  0  0  0  0  0  0
   22.6431  -21.3769  -14.3646 C   0  0  2  0  0  0  0  0  0  0  0  0
   23.9155  -21.8069  -13.8731 N   0  0  0  0  0  0  0  0  0  0  0  0
   21.7179  -21.1218  -13.2425 C   0  0  0  0  0  0  0  0  0  0  0  0
   20.6086  -20.5824  -13.3685 O   0  0  0  0  0  0  0  0  0  0  0  0
   22.0634  -21.4930  -11.9237 O   0  0  0  0  0  0  0  0  0  0  0  0
  2  3  1  0
  2  1  1  6
  4  3  1  0
  5  6  2  0
  5  2  1  0
  7  8  1  0
  8 18  2  0
  9 10  2  0
  9  8  1  0
 10 11  1  0
 11 17  2  0
 11 12  1  0
 13 12  1  1
 13 14  1  0
 14  5  1  0
 15 13  1  0
 15 16  2  0
 18 17  1  0
 20 19  1  1
 20 21  1  0
 22 23  1  1
 22 20  1  0
 23 15  1  0
 24 22  1  0
 25 24  2  0
 26 24  1  0
M  END
$$$$
