CYV.pdb
     RDKit          3D

 26 26  0  0  1  0  0  0  0  0999 V2000
   29.2727  -23.0537  -17.3606 N   0  0  0  0  0  0  0  0  0  0  0  0
   28.4264  -21.9487  -17.0416 C   0  0  1  0  0  0  0  0  0  0  0  0
   27.6375  -21.5747  -18.2905 C   0  0  0  0  0  0  0  0  0  0  0  0
   28.7385  -20.9028  -19.5602 S   0  0  0  0  0  0  0  0  0  0  0  0
   27.4848  -22.2225  -15.9411 C   0  0  0  0  0  0  0  0  0  0  0  0
   27.0235  -23.3986  -15.8197 O   0  0  0  0  0  0  0  0  0  0  0  0
   23.0737  -20.6368   -8.1934 O   0  0  0  0  0  0  0  0  0  0  0  0
   23.8757  -20.6479   -9.3286 C   0  0  0  0  0  0  0  0  0  0  0  0
   25.1745  -21.1204   -9.2819 C   0  0  0  0  0  0  0  0  0  0  0  0
   25.9683  -21.1319  -10.4038 C   0  0  0  0  0  0  0  0  0  0  0  0
   25.5138  -20.6710  -11.6470 C   0  0  0  0  0  0  0  0  0  0  0  0
   26.4009  -20.6644  -12.8185 C   0  0  0  0  0  0  0  0  0  0  0  0
   26.0883  -21.5849  -13.9302 C   0  0  2  0  0  0  0  0  0  0  0  0
   27.0634  -21.2555  -15.0118 N   0  0  0  0  0  0  0  0  0  0  0  0
   24.7239  -21.4810  -14.4587 C   0  0  0  0  0  0  0  0  0  0  0  0
   24.4971  -20.4843  -15.2403 O   0  0  0  0  0  0  0  0  0  0  0  0
   24.2191  -20.2047  -11.6740 C   0  0  0  0  0  0  0  0  0  0  0  0
   23.4194  -20.1913  -10.5511 C   0  0  0  0  0  0  0  0  0  0  0  0
   21.7405  -22.7737  -17.0915 C   0  0  0  0  0  0  0  0  0  0  0  0
   21.8680  -23.1950  -15.6605 C   0  0  2  0  0  0  0  0  0  0  0  0
   20.5043  -23.6454  -15.1900 C   0  0  0  0  0  0  0  0  0  0  0  0
   22.3709  -22.0860  -14.7614 C   0  0  2  0  0  0  0  0  0  0  0  0
   23.6508  -22.3752  -14.1923 N   0  0  0  0  0  0  0  0  0  0  0  0
   21.3713  -21.8710  -13.6961 C   0  0  0  0  0  0  0  0  0  0  0  0
   21.4866  -22.3052  -12.5405 O   0  0  0  0  0  0  0  0  0  0  0  0
   20.1931  -21.1338  -13.9504 O   0  0  0  0  0  0  0  0  0  0  0  0
  2  3  1  0
  2  1  1  6
  4  3  1  0
  5  6  2  0
  5  2  1  0
  7  8  1  0
  8 18  2  0
  9 10  2  0
  9  8  1  0
 10 11  1  0
 11 17  2  0
 11 12  1  0
 13 12  1  1
 13 14  1  0
 14  5  1  0
 15 13  1  0
 15 16  2  0
 18 17  1  0
 20 19  1  6
 20 21  1  0
 22 23  1  1
 22 20  1  0
 23 15  1  0
 24 22  1  0
 25 24  2  0
 26 24  1  0
M  END
$$$$
