VDF.pdb
     RDKit          3D

 27 27  0  0  1  0  0  0  0  0999 V2000
   28.5278  -17.6426  -16.1231 C   0  0  0  0  0  0  0  0  0  0  0  0
   27.6965  -17.8166  -14.8788 C   0  0  1  0  0  0  0  0  0  0  0  0
   26.2390  -17.7567  -15.2716 C   0  0  0  0  0  0  0  0  0  0  0  0
   27.9968  -19.1204  -14.1724 C   0  0  2  0  0  0  0  0  0  0  0  0
   27.8552  -20.2437  -15.0694 N   0  0  0  0  0  0  0  0  0  0  0  0
   27.1618  -19.2545  -12.9647 C   0  0  0  0  0  0  0  0  0  0  0  0
   27.0312  -18.2583  -12.2097 O   0  0  0  0  0  0  0  0  0  0  0  0
   26.4911  -20.4472  -12.5985 N   0  0  0  0  0  0  0  0  0  0  0  0
   25.6465  -20.5161  -11.4239 C   0  0  1  0  0  0  0  0  0  0  0  0
   24.4835  -21.4369  -11.6329 C   0  0  0  0  0  0  0  0  0  0  0  0
   23.4816  -20.9359  -12.5700 C   0  0  0  0  0  0  0  0  0  0  0  0
   23.6314  -21.1479  -13.7971 O   0  0  0  0  0  0  0  0  0  0  0  0
   26.4327  -20.8590  -10.2093 C   0  0  0  0  0  0  0  0  0  0  0  0
   27.6401  -21.1981  -10.2563 O   0  0  0  0  0  0  0  0  0  0  0  0
   22.3629  -20.2306  -12.1618 O   0  0  0  0  0  0  0  0  0  0  0  0
   25.8199  -20.8100   -8.9266 N   0  0  0  0  0  0  0  0  0  0  0  0
   26.5932  -20.9746   -7.6838 C   0  0  1  0  0  0  0  0  0  0  0  0
   27.7561  -20.0398   -7.6540 C   0  0  0  0  0  0  0  0  0  0  0  0
   28.3371  -19.9919   -6.3069 C   0  0  0  0  0  0  0  0  0  0  0  0
   29.2173  -20.9663   -5.8861 C   0  0  0  0  0  0  0  0  0  0  0  0
   29.7847  -20.9313   -4.6330 C   0  0  0  0  0  0  0  0  0  0  0  0
   29.4904  -19.9211   -3.7607 C   0  0  0  0  0  0  0  0  0  0  0  0
   28.6168  -18.9450   -4.1651 C   0  0  0  0  0  0  0  0  0  0  0  0
   28.0381  -18.9737   -5.4327 C   0  0  0  0  0  0  0  0  0  0  0  0
   25.7007  -20.9170   -6.5142 C   0  0  0  0  0  0  0  0  0  0  0  0
   25.9690  -21.4912   -5.2839 O   0  0  0  0  0  0  0  0  0  0  0  0
   24.5748  -20.3065   -6.5715 O   0  0  0  0  0  0  0  0  0  0  0  0
  2  3  1  6
  2  1  1  0
  4  2  1  0
  4  5  1  6
  6  7  2  0
  6  4  1  0
  8  6  1  0
  9  8  1  0
  9 10  1  6
 11 10  1  0
 12 11  2  0
 13 16  1  0
 13  9  1  0
 14 13  2  0
 15 11  1  0
 17 16  1  0
 17 25  1  0
 17 18  1  1
 19 20  2  0
 19 18  1  0
 21 20  1  0
 22 21  2  0
 23 22  1  0
 23 24  2  0
 24 19  1  0
 25 26  1  0
 27 25  2  0
M  END
$$$$
