VDF.pdb
     RDKit          3D

 27 27  0  0  1  0  0  0  0  0999 V2000
   15.6923  -13.9244  -16.6198 C   0  0  0  0  0  0  0  0  0  0  0  0
   15.8281  -12.4251  -16.6762 C   0  0  1  0  0  0  0  0  0  0  0  0
   15.3053  -11.8538  -15.3790 C   0  0  0  0  0  0  0  0  0  0  0  0
   17.2603  -11.9921  -16.9011 C   0  0  2  0  0  0  0  0  0  0  0  0
   18.1713  -12.7615  -16.0858 N   0  0  0  0  0  0  0  0  0  0  0  0
   17.3982  -10.5404  -16.6844 C   0  0  0  0  0  0  0  0  0  0  0  0
   16.6938   -9.7596  -17.3726 O   0  0  0  0  0  0  0  0  0  0  0  0
   18.2833   -9.9649  -15.7400 N   0  0  0  0  0  0  0  0  0  0  0  0
   18.4839   -8.5328  -15.6583 C   0  0  1  0  0  0  0  0  0  0  0  0
   17.1827   -7.7973  -15.5587 C   0  0  0  0  0  0  0  0  0  0  0  0
   17.3192   -6.3471  -15.4525 C   0  0  0  0  0  0  0  0  0  0  0  0
   16.5153   -5.7080  -14.7325 O   0  0  0  0  0  0  0  0  0  0  0  0
   19.4236   -8.1780  -14.5618 C   0  0  0  0  0  0  0  0  0  0  0  0
   19.4168   -8.7576  -13.4488 O   0  0  0  0  0  0  0  0  0  0  0  0
   18.3051   -5.6385  -16.1169 O   0  0  0  0  0  0  0  0  0  0  0  0
   20.3815   -7.1436  -14.7513 N   0  0  0  0  0  0  0  0  0  0  0  0
   21.8306   -7.3964  -14.6746 C   0  0  1  0  0  0  0  0  0  0  0  0
   22.2219   -8.5216  -15.5734 C   0  0  0  0  0  0  0  0  0  0  0  0
   23.6589   -8.7950  -15.4518 C   0  0  0  0  0  0  0  0  0  0  0  0
   24.5607   -8.2138  -16.3179 C   0  0  0  0  0  0  0  0  0  0  0  0
   25.9129   -8.4449  -16.2112 C   0  0  0  0  0  0  0  0  0  0  0  0
   26.4068   -9.2643  -15.2352 C   0  0  0  0  0  0  0  0  0  0  0  0
   25.5222   -9.8494  -14.3665 C   0  0  0  0  0  0  0  0  0  0  0  0
   24.1512   -9.6201  -14.4683 C   0  0  0  0  0  0  0  0  0  0  0  0
   22.5794   -6.1426  -14.8621 C   0  0  0  0  0  0  0  0  0  0  0  0
   23.5364   -5.6535  -13.9901 O   0  0  0  0  0  0  0  0  0  0  0  0
   22.3782   -5.3996  -15.8873 O   0  0  0  0  0  0  0  0  0  0  0  0
  2  3  1  1
  2  1  1  0
  4  2  1  0
  4  5  1  1
  6  7  2  0
  6  4  1  0
  8  6  1  0
  9  8  1  0
  9 10  1  1
 11 10  1  0
 12 11  2  0
 13 16  1  0
 13  9  1  0
 14 13  2  0
 15 11  1  0
 17 16  1  0
 17 25  1  0
 17 18  1  6
 19 20  2  0
 19 18  1  0
 21 20  1  0
 22 21  2  0
 23 22  1  0
 23 24  2  0
 24 19  1  0
 25 26  1  0
 27 25  2  0
M  END
$$$$
