VDF.pdb
     RDKit          3D

 27 27  0  0  1  0  0  0  0  0999 V2000
   18.4338  -11.3220  -24.0395 C   0  0  0  0  0  0  0  0  0  0  0  0
   18.3320  -10.6142  -22.7135 C   0  0  1  0  0  0  0  0  0  0  0  0
   18.5743  -11.6256  -21.6178 C   0  0  0  0  0  0  0  0  0  0  0  0
   19.3183   -9.4724  -22.6016 C   0  0  2  0  0  0  0  0  0  0  0  0
   20.6585   -9.9086  -22.9181 N   0  0  0  0  0  0  0  0  0  0  0  0
   19.2291   -8.8451  -21.2704 C   0  0  0  0  0  0  0  0  0  0  0  0
   18.1075   -8.4473  -20.8665 O   0  0  0  0  0  0  0  0  0  0  0  0
   20.3390   -8.6610  -20.4098 N   0  0  0  0  0  0  0  0  0  0  0  0
   20.2245   -7.9295  -19.1649 C   0  0  1  0  0  0  0  0  0  0  0  0
   21.1718   -8.4511  -18.1283 C   0  0  0  0  0  0  0  0  0  0  0  0
   20.9758   -9.8582  -17.7895 C   0  0  0  0  0  0  0  0  0  0  0  0
   19.8622  -10.2325  -17.3503 O   0  0  0  0  0  0  0  0  0  0  0  0
   20.3670   -6.4652  -19.3807 C   0  0  0  0  0  0  0  0  0  0  0  0
   20.8772   -5.9791  -20.4191 O   0  0  0  0  0  0  0  0  0  0  0  0
   21.9730  -10.8073  -17.9323 O   0  0  0  0  0  0  0  0  0  0  0  0
   19.9162   -5.5516  -18.3880 N   0  0  0  0  0  0  0  0  0  0  0  0
   20.0180   -4.0926  -18.5642 C   0  0  1  0  0  0  0  0  0  0  0  0
   19.4529   -3.6759  -19.8810 C   0  0  0  0  0  0  0  0  0  0  0  0
   19.5869   -2.2247  -20.0567 C   0  0  0  0  0  0  0  0  0  0  0  0
   20.8313   -1.6311  -20.0758 C   0  0  0  0  0  0  0  0  0  0  0  0
   20.9792   -0.2748  -20.2547 C   0  0  0  0  0  0  0  0  0  0  0  0
   19.8879    0.5313  -20.4202 C   0  0  0  0  0  0  0  0  0  0  0  0
   18.6440   -0.0448  -20.4036 C   0  0  0  0  0  0  0  0  0  0  0  0
   18.4862   -1.4178  -20.2229 C   0  0  0  0  0  0  0  0  0  0  0  0
   19.4711   -3.3958  -17.3881 C   0  0  0  0  0  0  0  0  0  0  0  0
   18.7971   -4.0089  -16.3464 O   0  0  0  0  0  0  0  0  0  0  0  0
   19.5921   -2.1262  -17.2567 O   0  0  0  0  0  0  0  0  0  0  0  0
  2  3  1  1
  2  1  1  0
  4  2  1  0
  4  5  1  1
  6  7  2  0
  6  4  1  0
  8  6  1  0
  9  8  1  0
  9 10  1  1
 11 10  1  0
 12 11  2  0
 13 16  1  0
 13  9  1  0
 14 13  2  0
 15 11  1  0
 17 16  1  0
 17 25  1  0
 17 18  1  6
 19 20  2  0
 19 18  1  0
 21 20  1  0
 22 21  2  0
 23 22  1  0
 23 24  2  0
 24 19  1  0
 25 26  1  0
 27 25  2  0
M  END
$$$$
