VDF.pdb
     RDKit          3D

 27 27  0  0  1  0  0  0  0  0999 V2000
   22.9292  -14.0332  -14.7089 C   0  0  0  0  0  0  0  0  0  0  0  0
   22.9893  -14.7848  -16.0131 C   0  0  1  0  0  0  0  0  0  0  0  0
   23.6000  -16.1412  -15.7495 C   0  0  0  0  0  0  0  0  0  0  0  0
   21.6229  -14.9378  -16.6443 C   0  0  2  0  0  0  0  0  0  0  0  0
   21.6868  -15.7553  -17.8336 N   0  0  0  0  0  0  0  0  0  0  0  0
   21.0244  -13.6150  -16.9009 C   0  0  0  0  0  0  0  0  0  0  0  0
   21.3968  -12.9725  -17.9147 O   0  0  0  0  0  0  0  0  0  0  0  0
   20.0467  -13.0173  -16.0683 N   0  0  0  0  0  0  0  0  0  0  0  0
   19.4529  -11.7360  -16.3897 C   0  0  1  0  0  0  0  0  0  0  0  0
   17.9612  -11.7694  -16.2571 C   0  0  0  0  0  0  0  0  0  0  0  0
   17.3201  -12.8756  -16.9629 C   0  0  0  0  0  0  0  0  0  0  0  0
   17.5161  -13.0113  -18.1944 O   0  0  0  0  0  0  0  0  0  0  0  0
   20.0701  -10.6381  -15.5992 C   0  0  0  0  0  0  0  0  0  0  0  0
   20.7214  -10.8437  -14.5464 O   0  0  0  0  0  0  0  0  0  0  0  0
   16.4978  -13.7906  -16.3287 O   0  0  0  0  0  0  0  0  0  0  0  0
   19.9346   -9.2885  -16.0277 N   0  0  0  0  0  0  0  0  0  0  0  0
   20.6717   -8.1866  -15.3857 C   0  0  1  0  0  0  0  0  0  0  0  0
   22.1449   -8.3884  -15.5119 C   0  0  0  0  0  0  0  0  0  0  0  0
   22.6238   -9.3101  -14.4748 C   0  0  0  0  0  0  0  0  0  0  0  0
   23.5063  -10.3225  -14.7874 C   0  0  0  0  0  0  0  0  0  0  0  0
   23.9790  -11.1873  -13.8272 C   0  0  0  0  0  0  0  0  0  0  0  0
   23.5848  -11.0678  -12.5241 C   0  0  0  0  0  0  0  0  0  0  0  0
   22.7076  -10.0659  -12.1981 C   0  0  0  0  0  0  0  0  0  0  0  0
   22.2244   -9.1861  -13.1651 C   0  0  0  0  0  0  0  0  0  0  0  0
   20.1647   -6.8877  -15.8586 C   0  0  0  0  0  0  0  0  0  0  0  0
   19.4851   -6.6879  -17.0475 O   0  0  0  0  0  0  0  0  0  0  0  0
   20.3321   -5.8213  -15.1668 O   0  0  0  0  0  0  0  0  0  0  0  0
  2  3  1  1
  2  1  1  0
  4  2  1  0
  4  5  1  6
  6  7  2  0
  6  4  1  0
  8  6  1  0
  9  8  1  0
  9 10  1  1
 11 10  1  0
 12 11  2  0
 13 16  1  0
 13  9  1  0
 14 13  2  0
 15 11  1  0
 17 16  1  0
 17 25  1  0
 17 18  1  6
 19 20  2  0
 19 18  1  0
 21 20  1  0
 22 21  2  0
 23 22  1  0
 23 24  2  0
 24 19  1  0
 25 26  1  0
 27 25  2  0
M  END
$$$$
