VDF.pdb
     RDKit          3D

 27 27  0  0  1  0  0  0  0  0999 V2000
   20.7391  -14.2719  -17.2311 C   0  0  0  0  0  0  0  0  0  0  0  0
   21.5717  -14.5138  -18.4631 C   0  0  1  0  0  0  0  0  0  0  0  0
   21.3504  -15.9395  -18.9110 C   0  0  0  0  0  0  0  0  0  0  0  0
   21.2267  -13.5530  -19.5798 C   0  0  2  0  0  0  0  0  0  0  0  0
   22.1081  -13.7303  -20.7105 N   0  0  0  0  0  0  0  0  0  0  0  0
   21.2218  -12.1658  -19.0807 C   0  0  0  0  0  0  0  0  0  0  0  0
   22.3126  -11.5448  -19.0185 O   0  0  0  0  0  0  0  0  0  0  0  0
   20.0534  -11.4824  -18.6631 N   0  0  0  0  0  0  0  0  0  0  0  0
   20.0886  -10.0937  -18.2535 C   0  0  1  0  0  0  0  0  0  0  0  0
   18.8395   -9.3685  -18.6506 C   0  0  0  0  0  0  0  0  0  0  0  0
   18.8119   -7.9615  -18.2601 C   0  0  0  0  0  0  0  0  0  0  0  0
   17.7360   -7.4598  -17.8551 O   0  0  0  0  0  0  0  0  0  0  0  0
   20.3856   -9.9631  -16.8023 C   0  0  0  0  0  0  0  0  0  0  0  0
   19.8171  -10.6614  -15.9282 O   0  0  0  0  0  0  0  0  0  0  0  0
   19.9301   -7.1479  -18.3171 O   0  0  0  0  0  0  0  0  0  0  0  0
   21.3488   -9.0170  -16.3545 N   0  0  0  0  0  0  0  0  0  0  0  0
   21.6981   -8.8709  -14.9310 C   0  0  1  0  0  0  0  0  0  0  0  0
   22.5388  -10.0145  -14.4702 C   0  0  0  0  0  0  0  0  0  0  0  0
   23.8747   -9.9407  -15.0742 C   0  0  0  0  0  0  0  0  0  0  0  0
   24.1006   -9.1584  -16.1869 C   0  0  0  0  0  0  0  0  0  0  0  0
   25.3485   -9.0635  -16.7589 C   0  0  0  0  0  0  0  0  0  0  0  0
   26.4103   -9.7475  -16.2368 C   0  0  0  0  0  0  0  0  0  0  0  0
   26.2009  -10.5296  -15.1304 C   0  0  0  0  0  0  0  0  0  0  0  0
   24.9399  -10.6307  -14.5455 C   0  0  0  0  0  0  0  0  0  0  0  0
   22.2515   -7.5307  -14.6748 C   0  0  0  0  0  0  0  0  0  0  0  0
   22.4597   -6.5617  -15.6406 O   0  0  0  0  0  0  0  0  0  0  0  0
   22.5878   -7.1697  -13.4914 O   0  0  0  0  0  0  0  0  0  0  0  0
  2  3  1  6
  2  1  1  0
  4  2  1  0
  4  5  1  6
  6  7  2  0
  6  4  1  0
  8  6  1  0
  9  8  1  0
  9 10  1  1
 11 10  1  0
 12 11  2  0
 13 16  1  0
 13  9  1  0
 14 13  2  0
 15 11  1  0
 17 16  1  0
 17 25  1  0
 17 18  1  6
 19 20  2  0
 19 18  1  0
 21 20  1  0
 22 21  2  0
 23 22  1  0
 23 24  2  0
 24 19  1  0
 25 26  1  0
 27 25  2  0
M  END
$$$$
