VDF.pdb
     RDKit          3D

 27 27  0  0  1  0  0  0  0  0999 V2000
   22.7101  -12.5431  -19.7811 C   0  0  0  0  0  0  0  0  0  0  0  0
   22.2124  -11.2692  -19.1495 C   0  0  1  0  0  0  0  0  0  0  0  0
   22.5157  -10.1257  -20.0889 C   0  0  0  0  0  0  0  0  0  0  0  0
   20.7302  -11.3244  -18.8507 C   0  0  2  0  0  0  0  0  0  0  0  0
   19.9688  -11.6158  -20.0432 N   0  0  0  0  0  0  0  0  0  0  0  0
   20.2923  -10.0801  -18.1922 C   0  0  0  0  0  0  0  0  0  0  0  0
   19.9288   -9.1149  -18.9103 O   0  0  0  0  0  0  0  0  0  0  0  0
   20.2552   -9.9027  -16.7873 N   0  0  0  0  0  0  0  0  0  0  0  0
   19.9295   -8.6243  -16.1894 C   0  0  1  0  0  0  0  0  0  0  0  0
   18.7551   -8.7296  -15.2654 C   0  0  0  0  0  0  0  0  0  0  0  0
   17.4838   -8.9860  -15.9368 C   0  0  0  0  0  0  0  0  0  0  0  0
   17.3279   -8.5999  -17.1200 O   0  0  0  0  0  0  0  0  0  0  0  0
   21.1163   -8.0135  -15.5341 C   0  0  0  0  0  0  0  0  0  0  0  0
   21.9687   -8.6896  -14.9086 O   0  0  0  0  0  0  0  0  0  0  0  0
   16.4322   -9.6421  -15.3210 O   0  0  0  0  0  0  0  0  0  0  0  0
   21.3223   -6.6076  -15.6011 N   0  0  0  0  0  0  0  0  0  0  0  0
   22.5189   -5.9647  -15.0314 C   0  0  1  0  0  0  0  0  0  0  0  0
   23.2131   -5.1314  -16.0565 C   0  0  0  0  0  0  0  0  0  0  0  0
   23.5892   -5.9542  -17.2125 C   0  0  0  0  0  0  0  0  0  0  0  0
   22.7164   -6.1267  -18.2659 C   0  0  0  0  0  0  0  0  0  0  0  0
   23.0555   -6.8812  -19.3655 C   0  0  0  0  0  0  0  0  0  0  0  0
   24.2778   -7.4872  -19.4472 C   0  0  0  0  0  0  0  0  0  0  0  0
   25.1563   -7.3246  -18.4073 C   0  0  0  0  0  0  0  0  0  0  0  0
   24.8200   -6.5619  -17.2902 C   0  0  0  0  0  0  0  0  0  0  0  0
   22.1807   -5.2762  -13.7746 C   0  0  0  0  0  0  0  0  0  0  0  0
   23.0979   -4.6841  -12.9241 O   0  0  0  0  0  0  0  0  0  0  0  0
   20.9649   -5.1830  -13.3786 O   0  0  0  0  0  0  0  0  0  0  0  0
  2  3  1  6
  2  1  1  0
  4  2  1  0
  4  5  1  6
  6  7  2  0
  6  4  1  0
  8  6  1  0
  9  8  1  0
  9 10  1  1
 11 10  1  0
 12 11  2  0
 13 16  1  0
 13  9  1  0
 14 13  2  0
 15 11  1  0
 17 16  1  0
 17 25  1  0
 17 18  1  6
 19 20  2  0
 19 18  1  0
 21 20  1  0
 22 21  2  0
 23 22  1  0
 23 24  2  0
 24 19  1  0
 25 26  1  0
 27 25  2  0
M  END
$$$$
