VDF.pdb
     RDKit          3D

 27 27  0  0  1  0  0  0  0  0999 V2000
   15.7772   -9.6641  -20.9154 C   0  0  0  0  0  0  0  0  0  0  0  0
   16.8567   -8.7537  -20.3906 C   0  0  1  0  0  0  0  0  0  0  0  0
   16.8917   -7.5149  -21.2545 C   0  0  0  0  0  0  0  0  0  0  0  0
   16.6291   -8.3779  -18.9428 C   0  0  2  0  0  0  0  0  0  0  0  0
   15.2848   -7.8915  -18.7359 N   0  0  0  0  0  0  0  0  0  0  0  0
   17.6522   -7.4155  -18.4949 C   0  0  0  0  0  0  0  0  0  0  0  0
   18.8617   -7.7519  -18.5540 O   0  0  0  0  0  0  0  0  0  0  0  0
   17.3546   -6.1231  -17.9975 N   0  0  0  0  0  0  0  0  0  0  0  0
   18.3877   -5.2494  -17.4804 C   0  0  1  0  0  0  0  0  0  0  0  0
   17.9901   -3.8082  -17.5733 C   0  0  0  0  0  0  0  0  0  0  0  0
   17.9579   -3.2806  -18.9348 C   0  0  0  0  0  0  0  0  0  0  0  0
   17.0021   -2.5474  -19.2845 O   0  0  0  0  0  0  0  0  0  0  0  0
   18.7909   -5.6410  -16.1038 C   0  0  0  0  0  0  0  0  0  0  0  0
   17.9852   -5.6644  -15.1419 O   0  0  0  0  0  0  0  0  0  0  0  0
   18.9438   -3.5554  -19.8664 O   0  0  0  0  0  0  0  0  0  0  0  0
   20.1379   -6.0096  -15.8336 N   0  0  0  0  0  0  0  0  0  0  0  0
   20.5645   -6.4988  -14.5113 C   0  0  1  0  0  0  0  0  0  0  0  0
   20.3404   -7.9693  -14.3912 C   0  0  0  0  0  0  0  0  0  0  0  0
   21.2830   -8.5515  -13.4284 C   0  0  0  0  0  0  0  0  0  0  0  0
   22.4663   -9.1154  -13.8565 C   0  0  0  0  0  0  0  0  0  0  0  0
   23.3703   -9.6525  -12.9690 C   0  0  0  0  0  0  0  0  0  0  0  0
   23.1203   -9.6431  -11.6253 C   0  0  0  0  0  0  0  0  0  0  0  0
   21.9478   -9.0858  -11.1847 C   0  0  0  0  0  0  0  0  0  0  0  0
   21.0273   -8.5398  -12.0776 C   0  0  0  0  0  0  0  0  0  0  0  0
   21.9298   -6.0368  -14.2107 C   0  0  0  0  0  0  0  0  0  0  0  0
   22.3890   -5.6878  -12.9527 O   0  0  0  0  0  0  0  0  0  0  0  0
   22.8088   -5.9252  -15.1374 O   0  0  0  0  0  0  0  0  0  0  0  0
  2  3  1  6
  2  1  1  0
  4  2  1  0
  4  5  1  6
  6  7  2  0
  6  4  1  0
  8  6  1  0
  9  8  1  0
  9 10  1  1
 11 10  1  0
 12 11  2  0
 13 16  1  0
 13  9  1  0
 14 13  2  0
 15 11  1  0
 17 16  1  0
 17 25  1  0
 17 18  1  6
 19 20  2  0
 19 18  1  0
 21 20  1  0
 22 21  2  0
 23 22  1  0
 23 24  2  0
 24 19  1  0
 25 26  1  0
 27 25  2  0
M  END
$$$$
