VDF.pdb
     RDKit          3D

 27 27  0  0  1  0  0  0  0  0999 V2000
   25.2371  -10.4126  -15.0912 C   0  0  0  0  0  0  0  0  0  0  0  0
   25.4541  -11.0051  -16.4592 C   0  0  1  0  0  0  0  0  0  0  0  0
   26.6075  -11.9772  -16.3759 C   0  0  0  0  0  0  0  0  0  0  0  0
   24.2163  -11.7024  -16.9795 C   0  0  2  0  0  0  0  0  0  0  0  0
   24.4898  -12.3950  -18.2172 N   0  0  0  0  0  0  0  0  0  0  0  0
   23.1015  -10.7456  -17.1032 C   0  0  0  0  0  0  0  0  0  0  0  0
   23.1528   -9.8756  -18.0087 O   0  0  0  0  0  0  0  0  0  0  0  0
   21.9652  -10.7455  -16.2574 N   0  0  0  0  0  0  0  0  0  0  0  0
   20.9358   -9.7323  -16.3649 C   0  0  1  0  0  0  0  0  0  0  0  0
   19.5683  -10.3396  -16.4380 C   0  0  0  0  0  0  0  0  0  0  0  0
   19.3700  -11.2381  -17.5722 C   0  0  0  0  0  0  0  0  0  0  0  0
   19.3409  -12.4763  -17.3742 O   0  0  0  0  0  0  0  0  0  0  0  0
   21.0527   -8.7223  -15.2799 C   0  0  0  0  0  0  0  0  0  0  0  0
   20.8234   -8.9909  -14.0757 O   0  0  0  0  0  0  0  0  0  0  0  0
   19.2112  -10.7811  -18.8689 O   0  0  0  0  0  0  0  0  0  0  0  0
   21.4383   -7.3881  -15.5872 N   0  0  0  0  0  0  0  0  0  0  0  0
   21.6325   -6.3696  -14.5408 C   0  0  1  0  0  0  0  0  0  0  0  0
   23.0537   -6.3391  -14.0866 C   0  0  0  0  0  0  0  0  0  0  0  0
   23.9446   -6.0578  -15.2188 C   0  0  0  0  0  0  0  0  0  0  0  0
   24.2322   -4.7587  -15.5808 C   0  0  0  0  0  0  0  0  0  0  0  0
   25.0769   -4.4737  -16.6290 C   0  0  0  0  0  0  0  0  0  0  0  0
   25.6610   -5.4782  -17.3487 C   0  0  0  0  0  0  0  0  0  0  0  0
   25.3844   -6.7750  -17.0003 C   0  0  0  0  0  0  0  0  0  0  0  0
   24.5299   -7.0715  -15.9399 C   0  0  0  0  0  0  0  0  0  0  0  0
   21.0754   -5.0776  -14.9744 C   0  0  0  0  0  0  0  0  0  0  0  0
   20.9691   -3.9526  -14.1755 O   0  0  0  0  0  0  0  0  0  0  0  0
   20.6367   -4.9142  -16.1680 O   0  0  0  0  0  0  0  0  0  0  0  0
  2  3  1  1
  2  1  1  0
  4  2  1  0
  4  5  1  6
  6  7  2  0
  6  4  1  0
  8  6  1  0
  9  8  1  0
  9 10  1  1
 11 10  1  0
 12 11  2  0
 13 16  1  0
 13  9  1  0
 14 13  2  0
 15 11  1  0
 17 16  1  0
 17 25  1  0
 17 18  1  6
 19 20  2  0
 19 18  1  0
 21 20  1  0
 22 21  2  0
 23 22  1  0
 23 24  2  0
 24 19  1  0
 25 26  1  0
 27 25  2  0
M  END
$$$$
