VIH.pdb
     RDKit          3D

 26 26  0  0  1  0  0  0  0  0999 V2000
    7.7590  -19.8502   19.3129 C   0  0  0  0  0  0  0  0  0  0  0  0
    8.3536  -19.5018   17.9780 C   0  0  1  0  0  0  0  0  0  0  0  0
    7.8989  -20.3896   16.8542 C   0  0  0  0  0  0  0  0  0  0  0  0
    8.2702  -18.0314   17.6526 C   0  0  2  0  0  0  0  0  0  0  0  0
    9.0161  -17.8488   16.4106 N   0  0  0  0  0  0  0  0  0  0  0  0
    8.8264  -17.1494   18.6799 C   0  0  0  0  0  0  0  0  0  0  0  0
   10.0619  -17.2157   18.9327 O   0  0  0  0  0  0  0  0  0  0  0  0
    6.6326  -12.1848   19.9484 C   0  0  0  0  0  0  0  0  0  0  0  0
    7.6846  -13.2437   19.6991 C   0  0  0  0  0  0  0  0  0  0  0  0
    7.7105  -14.2618   20.8194 C   0  0  2  0  0  0  0  0  0  0  0  0
    8.0937  -13.5996   22.1248 C   0  0  0  0  0  0  0  0  0  0  0  0
    8.6484  -15.4091   20.5048 C   0  0  2  0  0  0  0  0  0  0  0  0
    8.0928  -16.2033   19.4376 N   0  0  0  0  0  0  0  0  0  0  0  0
    8.8294  -16.2581   21.7264 C   0  0  0  0  0  0  0  0  0  0  0  0
    7.9298  -17.0676   22.0944 O   0  0  0  0  0  0  0  0  0  0  0  0
    9.9904  -16.1988   22.5133 N   0  0  0  0  0  0  0  0  0  0  0  0
   10.3637  -17.2461   23.4931 C   0  0  1  0  0  0  0  0  0  0  0  0
   10.7182  -18.4311   22.6713 C   0  0  0  0  0  0  0  0  0  0  0  0
   11.1878  -19.6200   23.3706 C   0  0  0  0  0  0  0  0  0  0  0  0
   11.3894  -19.9427   24.6882 C   0  0  0  0  0  0  0  0  0  0  0  0
   11.8024  -21.2466   24.7266 N   0  0  0  0  0  0  0  0  0  0  0  0
   11.8557  -21.7207   23.4797 C   0  0  0  0  0  0  0  0  0  0  0  0
   11.4896  -20.7547   22.6630 N   0  0  0  0  0  0  0  0  0  0  0  0
   11.6388  -16.7378   24.1186 C   0  0  0  0  0  0  0  0  0  0  0  0
   12.0986  -17.3004   25.2798 O   0  0  0  0  0  0  0  0  0  0  0  0
   12.3000  -15.8156   23.6167 O   0  0  0  0  0  0  0  0  0  0  0  0
  2  4  1  0
  2  1  1  1
  3  2  1  0
  4  5  1  6
  4  6  1  0
  6  7  2  0
  8  9  1  0
 10 12  1  0
 10  9  1  0
 10 11  1  1
 12 14  1  0
 13  6  1  0
 12 13  1  6
 14 15  2  0
 16 17  1  0
 16 14  1  0
 17 24  1  0
 17 18  1  6
 19 20  2  0
 19 18  1  0
 21 20  1  0
 22 23  2  0
 22 21  1  0
 23 19  1  0
 24 26  2  0
 24 25  1  0
M  END
$$$$
