VIH.pdb
     RDKit          3D

 26 26  0  0  1  0  0  0  0  0999 V2000
    6.0571  -16.9627   20.0735 C   0  0  0  0  0  0  0  0  0  0  0  0
    6.8771  -16.6425   21.2908 C   0  0  1  0  0  0  0  0  0  0  0  0
    7.9460  -17.6545   21.5930 C   0  0  0  0  0  0  0  0  0  0  0  0
    7.3736  -15.2185   21.3188 C   0  0  2  0  0  0  0  0  0  0  0  0
    8.3202  -15.0982   20.2135 N   0  0  0  0  0  0  0  0  0  0  0  0
    8.0386  -14.8315   22.5639 C   0  0  0  0  0  0  0  0  0  0  0  0
    9.2857  -15.0033   22.6647 O   0  0  0  0  0  0  0  0  0  0  0  0
    8.1097  -11.1643   27.0266 C   0  0  0  0  0  0  0  0  0  0  0  0
    7.8423  -12.6533   27.0655 C   0  0  0  0  0  0  0  0  0  0  0  0
    7.1473  -13.1162   25.8026 C   0  0  2  0  0  0  0  0  0  0  0  0
    5.9019  -13.9043   26.1448 C   0  0  0  0  0  0  0  0  0  0  0  0
    8.0748  -13.9331   24.9266 C   0  0  2  0  0  0  0  0  0  0  0  0
    7.4012  -14.2675   23.6967 N   0  0  0  0  0  0  0  0  0  0  0  0
    8.4680  -15.1877   25.6458 C   0  0  0  0  0  0  0  0  0  0  0  0
    7.6075  -16.0691   25.9330 O   0  0  0  0  0  0  0  0  0  0  0  0
    9.7930  -15.4447   26.0319 N   0  0  0  0  0  0  0  0  0  0  0  0
   10.2208  -16.7050   26.6836 C   0  0  1  0  0  0  0  0  0  0  0  0
   11.6415  -16.8784   26.2878 C   0  0  0  0  0  0  0  0  0  0  0  0
   11.9115  -17.3532   24.9370 C   0  0  0  0  0  0  0  0  0  0  0  0
   11.1336  -17.8283   23.9123 C   0  0  0  0  0  0  0  0  0  0  0  0
   11.9650  -18.0734   22.8536 N   0  0  0  0  0  0  0  0  0  0  0  0
   13.2151  -17.7621   23.2037 C   0  0  0  0  0  0  0  0  0  0  0  0
   13.1919  -17.3305   24.4477 N   0  0  0  0  0  0  0  0  0  0  0  0
   10.2026  -16.3899   28.1588 C   0  0  0  0  0  0  0  0  0  0  0  0
   10.2910  -17.4062   29.0728 O   0  0  0  0  0  0  0  0  0  0  0  0
   10.1093  -15.2287   28.5860 O   0  0  0  0  0  0  0  0  0  0  0  0
  2  4  1  0
  2  1  1  6
  3  2  1  0
  4  5  1  6
  4  6  1  0
  6  7  2  0
  8  9  1  0
 10 12  1  0
 10  9  1  0
 10 11  1  1
 12 14  1  0
 13  6  1  0
 12 13  1  6
 14 15  2  0
 16 17  1  0
 16 14  1  0
 17 24  1  0
 17 18  1  6
 19 20  2  0
 19 18  1  0
 21 20  1  0
 22 23  2  0
 22 21  1  0
 23 19  1  0
 24 26  2  0
 24 25  1  0
M  END
$$$$
