VIH.pdb
     RDKit          3D

 26 26  0  0  1  0  0  0  0  0999 V2000
    6.3736  -17.1194   21.5885 C   0  0  0  0  0  0  0  0  0  0  0  0
    7.0241  -16.2546   20.5465 C   0  0  1  0  0  0  0  0  0  0  0  0
    6.4346  -16.4026   19.1723 C   0  0  0  0  0  0  0  0  0  0  0  0
    7.1862  -14.8187   20.9786 C   0  0  2  0  0  0  0  0  0  0  0  0
    7.9244  -14.1547   19.9078 N   0  0  0  0  0  0  0  0  0  0  0  0
    7.9077  -14.6415   22.2397 C   0  0  0  0  0  0  0  0  0  0  0  0
    9.1550  -14.8379   22.2581 O   0  0  0  0  0  0  0  0  0  0  0  0
    5.9687  -11.3263   26.1977 C   0  0  0  0  0  0  0  0  0  0  0  0
    6.9251  -12.0336   25.2622 C   0  0  0  0  0  0  0  0  0  0  0  0
    7.2177  -13.4396   25.7413 C   0  0  2  0  0  0  0  0  0  0  0  0
    7.9191  -13.4047   27.0815 C   0  0  0  0  0  0  0  0  0  0  0  0
    8.0367  -14.2120   24.7276 C   0  0  2  0  0  0  0  0  0  0  0  0
    7.3261  -14.2604   23.4742 N   0  0  0  0  0  0  0  0  0  0  0  0
    8.2728  -15.6041   25.2299 C   0  0  0  0  0  0  0  0  0  0  0  0
    7.3893  -16.5001   25.1012 O   0  0  0  0  0  0  0  0  0  0  0  0
    9.4700  -15.9791   25.8598 N   0  0  0  0  0  0  0  0  0  0  0  0
    9.8751  -17.3900   26.0635 C   0  0  1  0  0  0  0  0  0  0  0  0
   10.3093  -17.8615   24.7241 C   0  0  0  0  0  0  0  0  0  0  0  0
   10.8480  -19.2118   24.6271 C   0  0  0  0  0  0  0  0  0  0  0  0
   11.0180  -20.2443   25.5136 C   0  0  0  0  0  0  0  0  0  0  0  0
   11.5395  -21.2974   24.8127 N   0  0  0  0  0  0  0  0  0  0  0  0
   11.6885  -20.9365   23.5361 C   0  0  0  0  0  0  0  0  0  0  0  0
   11.2772  -19.6911   23.4165 N   0  0  0  0  0  0  0  0  0  0  0  0
   11.1074  -17.3056   26.9294 C   0  0  0  0  0  0  0  0  0  0  0  0
   11.4608  -18.3699   27.7159 O   0  0  0  0  0  0  0  0  0  0  0  0
   11.8268  -16.2951   26.9595 O   0  0  0  0  0  0  0  0  0  0  0  0
  2  4  1  0
  2  1  1  1
  3  2  1  0
  4  5  1  6
  4  6  1  0
  6  7  2  0
  8  9  1  0
 10 12  1  0
 10  9  1  0
 10 11  1  1
 12 14  1  0
 13  6  1  0
 12 13  1  6
 14 15  2  0
 16 17  1  0
 16 14  1  0
 17 24  1  0
 17 18  1  6
 19 20  2  0
 19 18  1  0
 21 20  1  0
 22 23  2  0
 22 21  1  0
 23 19  1  0
 24 26  2  0
 24 25  1  0
M  END
$$$$
