VIH.pdb
     RDKit          3D

 26 26  0  0  1  0  0  0  0  0999 V2000
    6.3481  -17.1061   21.7812 C   0  0  0  0  0  0  0  0  0  0  0  0
    6.9483  -16.3394   20.6373 C   0  0  1  0  0  0  0  0  0  0  0  0
    6.2701  -16.5769   19.3176 C   0  0  0  0  0  0  0  0  0  0  0  0
    7.1659  -14.8791   20.9460 C   0  0  2  0  0  0  0  0  0  0  0  0
    7.8786  -14.3246   19.7984 N   0  0  0  0  0  0  0  0  0  0  0  0
    7.9414  -14.6240   22.1609 C   0  0  0  0  0  0  0  0  0  0  0  0
    9.1932  -14.7872   22.1273 O   0  0  0  0  0  0  0  0  0  0  0  0
    7.6278  -11.5543   27.5312 C   0  0  0  0  0  0  0  0  0  0  0  0
    8.3304  -12.5821   26.6709 C   0  0  0  0  0  0  0  0  0  0  0  0
    7.4858  -12.9602   25.4727 C   0  0  2  0  0  0  0  0  0  0  0  0
    6.1443  -13.4972   25.9216 C   0  0  0  0  0  0  0  0  0  0  0  0
    8.1961  -13.9639   24.5878 C   0  0  2  0  0  0  0  0  0  0  0  0
    7.4088  -14.2003   23.4036 N   0  0  0  0  0  0  0  0  0  0  0  0
    8.3827  -15.2487   25.3366 C   0  0  0  0  0  0  0  0  0  0  0  0
    7.3879  -15.9451   25.6905 O   0  0  0  0  0  0  0  0  0  0  0  0
    9.6535  -15.7376   25.6783 N   0  0  0  0  0  0  0  0  0  0  0  0
    9.8714  -17.0472   26.3368 C   0  0  1  0  0  0  0  0  0  0  0  0
   11.1503  -17.5509   25.7748 C   0  0  0  0  0  0  0  0  0  0  0  0
   11.1244  -18.0951   24.4234 C   0  0  0  0  0  0  0  0  0  0  0  0
   10.1447  -18.2842   23.4825 C   0  0  0  0  0  0  0  0  0  0  0  0
   10.7483  -18.8005   22.3683 N   0  0  0  0  0  0  0  0  0  0  0  0
   12.0560  -18.9281   22.6043 C   0  0  0  0  0  0  0  0  0  0  0  0
   12.2894  -18.5084   23.8306 N   0  0  0  0  0  0  0  0  0  0  0  0
   10.1235  -16.7026   27.7837 C   0  0  0  0  0  0  0  0  0  0  0  0
   10.1218  -17.6933   28.7295 O   0  0  0  0  0  0  0  0  0  0  0  0
   10.3361  -15.5392   28.1592 O   0  0  0  0  0  0  0  0  0  0  0  0
  2  4  1  0
  2  1  1  1
  3  2  1  0
  4  5  1  6
  4  6  1  0
  6  7  2  0
  8  9  1  0
 10 12  1  0
 10  9  1  0
 10 11  1  1
 12 14  1  0
 13  6  1  0
 12 13  1  6
 14 15  2  0
 16 17  1  0
 16 14  1  0
 17 24  1  0
 17 18  1  6
 19 20  2  0
 19 18  1  0
 21 20  1  0
 22 23  2  0
 22 21  1  0
 23 19  1  0
 24 26  2  0
 24 25  1  0
M  END
$$$$
