VIH.pdb
     RDKit          3D

 26 26  0  0  1  0  0  0  0  0999 V2000
    6.7021  -17.1305   21.5438 C   0  0  0  0  0  0  0  0  0  0  0  0
    7.3523  -16.3176   20.4606 C   0  0  1  0  0  0  0  0  0  0  0  0
    6.8117  -16.5865   19.0846 C   0  0  0  0  0  0  0  0  0  0  0  0
    7.4477  -14.8492   20.7916 C   0  0  2  0  0  0  0  0  0  0  0  0
    8.2410  -14.2446   19.7251 N   0  0  0  0  0  0  0  0  0  0  0  0
    8.0758  -14.5567   22.0809 C   0  0  0  0  0  0  0  0  0  0  0  0
    9.3344  -14.6105   22.1690 O   0  0  0  0  0  0  0  0  0  0  0  0
    6.7962  -12.1893   27.7049 C   0  0  0  0  0  0  0  0  0  0  0  0
    7.7131  -13.0053   26.8199 C   0  0  0  0  0  0  0  0  0  0  0  0
    7.1319  -13.1643   25.4310 C   0  0  2  0  0  0  0  0  0  0  0  0
    5.7408  -13.7547   25.5060 C   0  0  0  0  0  0  0  0  0  0  0  0
    8.0265  -14.0104   24.5487 C   0  0  2  0  0  0  0  0  0  0  0  0
    7.3895  -14.2096   23.2709 N   0  0  0  0  0  0  0  0  0  0  0  0
    8.2697  -15.3355   25.2052 C   0  0  0  0  0  0  0  0  0  0  0  0
    7.3100  -16.1162   25.4686 O   0  0  0  0  0  0  0  0  0  0  0  0
    9.5571  -15.7714   25.5563 N   0  0  0  0  0  0  0  0  0  0  0  0
    9.8251  -17.0746   26.2092 C   0  0  1  0  0  0  0  0  0  0  0  0
   11.0682  -17.5753   25.5697 C   0  0  0  0  0  0  0  0  0  0  0  0
   10.9591  -18.1287   24.2263 C   0  0  0  0  0  0  0  0  0  0  0  0
    9.9261  -18.6242   23.4724 C   0  0  0  0  0  0  0  0  0  0  0  0
   10.4412  -18.9557   22.2488 N   0  0  0  0  0  0  0  0  0  0  0  0
   11.7467  -18.6767   22.2387 C   0  0  0  0  0  0  0  0  0  0  0  0
   12.0644  -18.1817   23.4170 N   0  0  0  0  0  0  0  0  0  0  0  0
   10.1677  -16.7172   27.6342 C   0  0  0  0  0  0  0  0  0  0  0  0
   10.3629  -17.7106   28.5568 O   0  0  0  0  0  0  0  0  0  0  0  0
   10.2819  -15.5408   28.0120 O   0  0  0  0  0  0  0  0  0  0  0  0
  2  4  1  0
  2  1  1  1
  3  2  1  0
  4  5  1  6
  4  6  1  0
  6  7  2  0
  8  9  1  0
 10 12  1  0
 10  9  1  0
 10 11  1  1
 12 14  1  0
 13  6  1  0
 12 13  1  6
 14 15  2  0
 16 17  1  0
 16 14  1  0
 17 24  1  0
 17 18  1  6
 19 20  2  0
 19 18  1  0
 21 20  1  0
 22 23  2  0
 22 21  1  0
 23 19  1  0
 24 26  2  0
 24 25  1  0
M  END
$$$$
