DWK.pdb
     RDKit          3D

 32 33  0  0  1  0  0  0  0  0999 V2000
    7.2687  -16.0668   21.4307 N   0  0  0  0  0  0  0  0  0  0  0  0
    8.6641  -16.4091   21.5605 C   0  0  1  0  0  0  0  0  0  0  0  0
    9.4146  -15.8948   20.3555 C   0  0  0  0  0  0  0  0  0  0  0  0
   10.1173  -16.9289   19.6075 C   0  0  0  0  0  0  0  0  0  0  0  0
    9.8269  -18.1304   19.8372 O   0  0  0  0  0  0  0  0  0  0  0  0
    9.2891  -15.9477   22.8104 C   0  0  0  0  0  0  0  0  0  0  0  0
   10.0239  -14.9029   22.8493 O   0  0  0  0  0  0  0  0  0  0  0  0
   11.0845  -16.6729   18.6581 O   0  0  0  0  0  0  0  0  0  0  0  0
    9.1355  -16.6036   24.0441 N   0  0  0  0  0  0  0  0  0  0  0  0
    9.8154  -16.1696   25.2473 C   0  0  1  0  0  0  0  0  0  0  0  0
    8.8991  -16.2000   26.3915 C   0  0  0  0  0  0  0  0  0  0  0  0
    7.7152  -15.3310   26.1687 C   0  0  0  0  0  0  0  0  0  0  0  0
    6.4497  -15.8434   25.8471 C   0  0  0  0  0  0  0  0  0  0  0  0
    5.6263  -14.8037   25.7565 N   0  0  0  0  0  0  0  0  0  0  0  0
    6.2684  -13.6509   25.9960 C   0  0  0  0  0  0  0  0  0  0  0  0
    5.8915  -12.3220   26.0158 C   0  0  0  0  0  0  0  0  0  0  0  0
    6.8066  -11.3446   26.2869 C   0  0  0  0  0  0  0  0  0  0  0  0
    8.1207  -11.6565   26.5458 C   0  0  0  0  0  0  0  0  0  0  0  0
    8.4935  -12.9848   26.5257 C   0  0  0  0  0  0  0  0  0  0  0  0
    7.5764  -13.9711   26.2545 C   0  0  0  0  0  0  0  0  0  0  0  0
   11.0392  -16.9706   25.3693 C   0  0  0  0  0  0  0  0  0  0  0  0
   11.1698  -17.7513   26.3466 O   0  0  0  0  0  0  0  0  0  0  0  0
   12.1175  -16.9423   24.4580 N   0  0  0  0  0  0  0  0  0  0  0  0
   13.3223  -17.7950   24.6399 C   0  0  1  0  0  0  0  0  0  0  0  0
   13.7373  -18.3343   23.2942 C   0  0  0  0  0  0  0  0  0  0  0  0
   12.6080  -19.0865   22.6655 C   0  0  0  0  0  0  0  0  0  0  0  0
   12.9354  -19.7584   21.3669 C   0  0  0  0  0  0  0  0  0  0  0  0
   11.8623  -20.5907   20.7695 C   0  0  0  0  0  0  0  0  0  0  0  0
   12.1703  -21.1526   19.4750 N   0  0  0  0  0  0  0  0  0  0  0  0
   14.3498  -16.8674   25.1502 C   0  0  0  0  0  0  0  0  0  0  0  0
   15.5974  -17.3596   25.6033 O   0  0  0  0  0  0  0  0  0  0  0  0
   14.2397  -15.6181   25.2346 O   0  0  0  0  0  0  0  0  0  0  0  0
  2  1  1  6
  2  3  1  0
  3  4  1  0
  4  8  1  0
  5  4  2  0
  6  7  2  0
  6  2  1  0
  9  6  1  0
 10  9  1  0
 10 11  1  1
 11 12  1  0
 12 13  2  0
 12 20  1  0
 13 14  1  0
 14 15  1  0
 15 16  2  0
 16 17  1  0
 18 17  2  0
 19 18  1  0
 20 19  2  0
 20 15  1  0
 21 10  1  0
 22 21  2  0
 23 21  1  0
 24 25  1  6
 24 23  1  0
 26 25  1  0
 27 26  1  0
 27 28  1  0
 28 29  1  0
 30 24  1  0
 31 30  1  0
 32 30  2  0
M  END
$$$$
