DWK.pdb
     RDKit          3D

 32 33  0  0  1  0  0  0  0  0999 V2000
    9.3439  -16.8987   20.5090 N   0  0  0  0  0  0  0  0  0  0  0  0
   10.1417  -17.5994   21.4854 C   0  0  1  0  0  0  0  0  0  0  0  0
   11.5863  -17.5865   21.0464 C   0  0  0  0  0  0  0  0  0  0  0  0
   11.7938  -18.0265   19.6731 C   0  0  0  0  0  0  0  0  0  0  0  0
   11.1589  -19.0335   19.2688 O   0  0  0  0  0  0  0  0  0  0  0  0
   10.0014  -17.0941   22.8604 C   0  0  0  0  0  0  0  0  0  0  0  0
   10.8810  -16.3338   23.3907 O   0  0  0  0  0  0  0  0  0  0  0  0
   12.6453  -17.4053   18.7835 O   0  0  0  0  0  0  0  0  0  0  0  0
    8.9102  -17.3986   23.6925 N   0  0  0  0  0  0  0  0  0  0  0  0
    8.7860  -16.8751   25.0375 C   0  0  1  0  0  0  0  0  0  0  0  0
    7.4218  -16.3928   25.2744 C   0  0  0  0  0  0  0  0  0  0  0  0
    7.2379  -15.0042   24.7799 C   0  0  0  0  0  0  0  0  0  0  0  0
    7.0070  -14.7060   23.4290 C   0  0  0  0  0  0  0  0  0  0  0  0
    6.8535  -13.3881   23.3476 N   0  0  0  0  0  0  0  0  0  0  0  0
    6.9691  -12.8084   24.5515 C   0  0  0  0  0  0  0  0  0  0  0  0
    6.9082  -11.5051   25.0053 C   0  0  0  0  0  0  0  0  0  0  0  0
    7.0864  -11.2219   26.3298 C   0  0  0  0  0  0  0  0  0  0  0  0
    7.3302  -12.2221   27.2416 C   0  0  0  0  0  0  0  0  0  0  0  0
    7.3899  -13.5227   26.7849 C   0  0  0  0  0  0  0  0  0  0  0  0
    7.2102  -13.8122   25.4540 C   0  0  0  0  0  0  0  0  0  0  0  0
    9.2819  -17.9081   25.9547 C   0  0  0  0  0  0  0  0  0  0  0  0
    8.6202  -18.9667   26.1062 O   0  0  0  0  0  0  0  0  0  0  0  0
   10.4741  -17.8166   26.7060 N   0  0  0  0  0  0  0  0  0  0  0  0
   10.9453  -18.9312   27.5703 C   0  0  1  0  0  0  0  0  0  0  0  0
   12.4315  -19.0961   27.3749 C   0  0  0  0  0  0  0  0  0  0  0  0
   12.7096  -19.8280   26.1008 C   0  0  0  0  0  0  0  0  0  0  0  0
   14.1561  -20.1121   25.8324 C   0  0  0  0  0  0  0  0  0  0  0  0
   14.4588  -20.8537   24.5836 C   0  0  0  0  0  0  0  0  0  0  0  0
   15.8624  -21.0804   24.3294 N   0  0  0  0  0  0  0  0  0  0  0  0
   10.6654  -18.4693   28.9432 C   0  0  0  0  0  0  0  0  0  0  0  0
   10.3964  -17.1031   29.1983 O   0  0  0  0  0  0  0  0  0  0  0  0
   10.6368  -19.1899   29.9729 O   0  0  0  0  0  0  0  0  0  0  0  0
  2  1  1  6
  2  3  1  0
  3  4  1  0
  4  8  1  0
  5  4  2  0
  6  7  2  0
  6  2  1  0
  9  6  1  0
 10  9  1  0
 10 11  1  1
 11 12  1  0
 12 13  2  0
 12 20  1  0
 13 14  1  0
 14 15  1  0
 15 16  2  0
 16 17  1  0
 18 17  2  0
 19 18  1  0
 20 19  2  0
 20 15  1  0
 21 10  1  0
 22 21  2  0
 23 21  1  0
 24 25  1  1
 24 23  1  0
 26 25  1  0
 27 26  1  0
 27 28  1  0
 28 29  1  0
 30 24  1  0
 31 30  1  0
 32 30  2  0
M  END
$$$$
