DWK.pdb
     RDKit          3D

 32 33  0  0  1  0  0  0  0  0999 V2000
   10.8355  -18.2777   19.0799 N   0  0  0  0  0  0  0  0  0  0  0  0
   10.1129  -18.6204   20.2805 C   0  0  1  0  0  0  0  0  0  0  0  0
   10.6952  -19.8846   20.8656 C   0  0  0  0  0  0  0  0  0  0  0  0
   11.1578  -20.8420   19.8695 C   0  0  0  0  0  0  0  0  0  0  0  0
   10.3945  -21.7909   19.5571 O   0  0  0  0  0  0  0  0  0  0  0  0
   10.0607  -17.5467   21.2856 C   0  0  0  0  0  0  0  0  0  0  0  0
   11.0716  -16.8040   21.5296 O   0  0  0  0  0  0  0  0  0  0  0  0
   12.3848  -20.7729   19.2434 O   0  0  0  0  0  0  0  0  0  0  0  0
    8.9179  -17.2520   22.0490 N   0  0  0  0  0  0  0  0  0  0  0  0
    8.8797  -16.1663   23.0073 C   0  0  1  0  0  0  0  0  0  0  0  0
    7.5392  -15.5740   23.0556 C   0  0  0  0  0  0  0  0  0  0  0  0
    7.5271  -14.3083   23.8330 C   0  0  0  0  0  0  0  0  0  0  0  0
    7.9161  -13.0782   23.2828 C   0  0  0  0  0  0  0  0  0  0  0  0
    7.7481  -12.1629   24.2320 N   0  0  0  0  0  0  0  0  0  0  0  0
    7.2777  -12.7122   25.3614 C   0  0  0  0  0  0  0  0  0  0  0  0
    6.9512  -12.2212   26.6107 C   0  0  0  0  0  0  0  0  0  0  0  0
    6.4974  -13.0593   27.5894 C   0  0  0  0  0  0  0  0  0  0  0  0
    6.3544  -14.4073   27.3577 C   0  0  0  0  0  0  0  0  0  0  0  0
    6.6808  -14.8942   26.1087 C   0  0  0  0  0  0  0  0  0  0  0  0
    7.1367  -14.0548   25.1212 C   0  0  0  0  0  0  0  0  0  0  0  0
    9.4107  -16.6841   24.2738 C   0  0  0  0  0  0  0  0  0  0  0  0
    9.0474  -17.8188   24.6763 O   0  0  0  0  0  0  0  0  0  0  0  0
   10.3226  -16.0000   25.1073 N   0  0  0  0  0  0  0  0  0  0  0  0
   10.9347  -16.6463   26.2987 C   0  0  1  0  0  0  0  0  0  0  0  0
   12.4345  -16.6167   26.1443 C   0  0  0  0  0  0  0  0  0  0  0  0
   12.8700  -17.6077   25.1124 C   0  0  0  0  0  0  0  0  0  0  0  0
   14.3511  -17.7060   24.9092 C   0  0  0  0  0  0  0  0  0  0  0  0
   14.8135  -18.7185   23.9281 C   0  0  0  0  0  0  0  0  0  0  0  0
   16.2334  -18.7131   23.6636 N   0  0  0  0  0  0  0  0  0  0  0  0
   10.5269  -15.7878   27.4271 C   0  0  0  0  0  0  0  0  0  0  0  0
   10.3746  -16.3342   28.7241 O   0  0  0  0  0  0  0  0  0  0  0  0
   10.2845  -14.5558   27.3670 O   0  0  0  0  0  0  0  0  0  0  0  0
  2  1  1  6
  2  3  1  0
  3  4  1  0
  4  8  1  0
  5  4  2  0
  6  7  2  0
  6  2  1  0
  9  6  1  0
 10  9  1  0
 10 11  1  1
 11 12  1  0
 12 13  2  0
 12 20  1  0
 13 14  1  0
 14 15  1  0
 15 16  2  0
 16 17  1  0
 18 17  2  0
 19 18  1  0
 20 19  2  0
 20 15  1  0
 21 10  1  0
 22 21  2  0
 23 21  1  0
 24 25  1  6
 24 23  1  0
 26 25  1  0
 27 26  1  0
 27 28  1  0
 28 29  1  0
 30 24  1  0
 31 30  1  0
 32 30  2  0
M  END
$$$$
