DWK.pdb
     RDKit          3D

 32 33  0  0  1  0  0  0  0  0999 V2000
    9.2621  -17.9867   20.9131 N   0  0  0  0  0  0  0  0  0  0  0  0
   10.5063  -17.5960   21.5296 C   0  0  1  0  0  0  0  0  0  0  0  0
   11.1892  -16.5682   20.6595 C   0  0  0  0  0  0  0  0  0  0  0  0
   11.4949  -17.0373   19.3144 C   0  0  0  0  0  0  0  0  0  0  0  0
   11.0990  -18.1826   18.9796 O   0  0  0  0  0  0  0  0  0  0  0  0
   10.3736  -17.1141   22.9137 C   0  0  0  0  0  0  0  0  0  0  0  0
   11.2877  -16.4193   23.4747 O   0  0  0  0  0  0  0  0  0  0  0  0
   12.1932  -16.3013   18.3800 O   0  0  0  0  0  0  0  0  0  0  0  0
    9.2529  -17.3719   23.7220 N   0  0  0  0  0  0  0  0  0  0  0  0
    9.1316  -16.8606   25.0719 C   0  0  1  0  0  0  0  0  0  0  0  0
    7.7552  -16.4279   25.3329 C   0  0  0  0  0  0  0  0  0  0  0  0
    7.5189  -15.0388   24.8625 C   0  0  0  0  0  0  0  0  0  0  0  0
    7.2752  -14.7263   23.5171 C   0  0  0  0  0  0  0  0  0  0  0  0
    7.0726  -13.4139   23.4584 N   0  0  0  0  0  0  0  0  0  0  0  0
    7.1683  -12.8510   24.6720 C   0  0  0  0  0  0  0  0  0  0  0  0
    7.0594  -11.5588   25.1482 C   0  0  0  0  0  0  0  0  0  0  0  0
    7.2288  -11.2919   26.4772 C   0  0  0  0  0  0  0  0  0  0  0  0
    7.5110  -12.2978   27.3715 C   0  0  0  0  0  0  0  0  0  0  0  0
    7.6185  -13.5873   26.8926 C   0  0  0  0  0  0  0  0  0  0  0  0
    7.4479  -13.8604   25.5570 C   0  0  0  0  0  0  0  0  0  0  0  0
    9.6777  -17.8806   25.9750 C   0  0  0  0  0  0  0  0  0  0  0  0
    9.1524  -19.0229   26.0039 O   0  0  0  0  0  0  0  0  0  0  0  0
   10.7757  -17.6878   26.8419 N   0  0  0  0  0  0  0  0  0  0  0  0
   11.3142  -18.7887   27.6842 C   0  0  1  0  0  0  0  0  0  0  0  0
   12.8195  -18.7689   27.5966 C   0  0  0  0  0  0  0  0  0  0  0  0
   13.2777  -19.4901   26.3693 C   0  0  0  0  0  0  0  0  0  0  0  0
   14.7636  -19.6067   26.2168 C   0  0  0  0  0  0  0  0  0  0  0  0
   15.2487  -20.2011   24.9469 C   0  0  0  0  0  0  0  0  0  0  0  0
   16.6848  -20.2471   24.8000 N   0  0  0  0  0  0  0  0  0  0  0  0
   10.8841  -18.4427   29.0524 C   0  0  0  0  0  0  0  0  0  0  0  0
   11.0805  -19.3546   30.1171 O   0  0  0  0  0  0  0  0  0  0  0  0
   10.3309  -17.3697   29.4029 O   0  0  0  0  0  0  0  0  0  0  0  0
  2  1  1  6
  2  3  1  0
  3  4  1  0
  4  8  1  0
  5  4  2  0
  6  7  2  0
  6  2  1  0
  9  6  1  0
 10  9  1  0
 10 11  1  1
 11 12  1  0
 12 13  2  0
 12 20  1  0
 13 14  1  0
 14 15  1  0
 15 16  2  0
 16 17  1  0
 18 17  2  0
 19 18  1  0
 20 19  2  0
 20 15  1  0
 21 10  1  0
 22 21  2  0
 23 21  1  0
 24 25  1  1
 24 23  1  0
 26 25  1  0
 27 26  1  0
 27 28  1  0
 28 29  1  0
 30 24  1  0
 31 30  1  0
 32 30  2  0
M  END
$$$$
