DWK.pdb
     RDKit          3D

 32 33  0  0  1  0  0  0  0  0999 V2000
    8.9783  -18.1667   21.0955 N   0  0  0  0  0  0  0  0  0  0  0  0
   10.2361  -17.8009   21.6998 C   0  0  1  0  0  0  0  0  0  0  0  0
   10.9113  -16.7557   20.8447 C   0  0  0  0  0  0  0  0  0  0  0  0
   11.2996  -17.2298   19.5229 C   0  0  0  0  0  0  0  0  0  0  0  0
   11.0097  -18.4114   19.2060 O   0  0  0  0  0  0  0  0  0  0  0  0
   10.1312  -17.3543   23.0981 C   0  0  0  0  0  0  0  0  0  0  0  0
   11.0434  -16.6492   23.6493 O   0  0  0  0  0  0  0  0  0  0  0  0
   11.9668  -16.4612   18.5920 O   0  0  0  0  0  0  0  0  0  0  0  0
    9.0410  -17.6591   23.9314 N   0  0  0  0  0  0  0  0  0  0  0  0
    8.9469  -17.1838   25.2966 C   0  0  1  0  0  0  0  0  0  0  0  0
    7.5695  -16.7876   25.6060 C   0  0  0  0  0  0  0  0  0  0  0  0
    7.2303  -15.4712   25.0072 C   0  0  0  0  0  0  0  0  0  0  0  0
    6.6424  -15.3449   23.7399 C   0  0  0  0  0  0  0  0  0  0  0  0
    6.4437  -14.0464   23.5366 N   0  0  0  0  0  0  0  0  0  0  0  0
    6.8621  -13.3194   24.5831 C   0  0  0  0  0  0  0  0  0  0  0  0
    6.8951  -11.9681   24.8684 C   0  0  0  0  0  0  0  0  0  0  0  0
    7.4124  -11.5205   26.0509 C   0  0  0  0  0  0  0  0  0  0  0  0
    7.9116  -12.3991   26.9837 C   0  0  0  0  0  0  0  0  0  0  0  0
    7.8765  -13.7480   26.6956 C   0  0  0  0  0  0  0  0  0  0  0  0
    7.3563  -14.2027   25.5081 C   0  0  0  0  0  0  0  0  0  0  0  0
    9.5393  -18.2135   26.1584 C   0  0  0  0  0  0  0  0  0  0  0  0
    8.8865  -19.2592   26.4072 O   0  0  0  0  0  0  0  0  0  0  0  0
   10.8182  -18.1325   26.7519 N   0  0  0  0  0  0  0  0  0  0  0  0
   11.3373  -19.1999   27.6478 C   0  0  1  0  0  0  0  0  0  0  0  0
   12.8240  -19.3288   27.4309 C   0  0  0  0  0  0  0  0  0  0  0  0
   13.1174  -19.5922   25.9884 C   0  0  0  0  0  0  0  0  0  0  0  0
   14.5664  -19.7821   25.6576 C   0  0  0  0  0  0  0  0  0  0  0  0
   14.9070  -19.8518   24.2152 C   0  0  0  0  0  0  0  0  0  0  0  0
   16.3184  -19.7928   23.9144 N   0  0  0  0  0  0  0  0  0  0  0  0
   11.0680  -18.6952   29.0077 C   0  0  0  0  0  0  0  0  0  0  0  0
   11.2558  -19.5334   30.1329 O   0  0  0  0  0  0  0  0  0  0  0  0
   10.6675  -17.5402   29.3004 O   0  0  0  0  0  0  0  0  0  0  0  0
  2  1  1  6
  2  3  1  0
  3  4  1  0
  4  8  1  0
  5  4  2  0
  6  7  2  0
  6  2  1  0
  9  6  1  0
 10  9  1  0
 10 11  1  1
 11 12  1  0
 12 13  2  0
 12 20  1  0
 13 14  1  0
 14 15  1  0
 15 16  2  0
 16 17  1  0
 18 17  2  0
 19 18  1  0
 20 19  2  0
 20 15  1  0
 21 10  1  0
 22 21  2  0
 23 21  1  0
 24 25  1  1
 24 23  1  0
 26 25  1  0
 27 26  1  0
 27 28  1  0
 28 29  1  0
 30 24  1  0
 31 30  1  0
 32 30  2  0
M  END
$$$$
