DWK.pdb
     RDKit          3D

 32 33  0  0  1  0  0  0  0  0999 V2000
    9.0896  -17.3448   20.2713 N   0  0  0  0  0  0  0  0  0  0  0  0
   10.2327  -17.5467   21.1279 C   0  0  1  0  0  0  0  0  0  0  0  0
   11.4621  -16.9862   20.4540 C   0  0  0  0  0  0  0  0  0  0  0  0
   11.7182  -17.5388   19.1305 C   0  0  0  0  0  0  0  0  0  0  0  0
   11.4312  -18.7454   18.9240 O   0  0  0  0  0  0  0  0  0  0  0  0
   10.0781  -17.0015   22.4860 C   0  0  0  0  0  0  0  0  0  0  0  0
   10.9021  -16.1519   22.9677 O   0  0  0  0  0  0  0  0  0  0  0  0
   12.2567  -16.8194   18.0842 O   0  0  0  0  0  0  0  0  0  0  0  0
    9.0322  -17.3617   23.3533 N   0  0  0  0  0  0  0  0  0  0  0  0
    8.9168  -16.8324   24.6968 C   0  0  1  0  0  0  0  0  0  0  0  0
    7.5332  -16.4325   24.9717 C   0  0  0  0  0  0  0  0  0  0  0  0
    7.2724  -15.0333   24.5466 C   0  0  0  0  0  0  0  0  0  0  0  0
    7.0419  -14.6789   23.2092 C   0  0  0  0  0  0  0  0  0  0  0  0
    6.8102  -13.3701   23.1934 N   0  0  0  0  0  0  0  0  0  0  0  0
    6.8748  -12.8485   24.4273 C   0  0  0  0  0  0  0  0  0  0  0  0
    6.7293  -11.5767   24.9466 C   0  0  0  0  0  0  0  0  0  0  0  0
    6.8726  -11.3532   26.2867 C   0  0  0  0  0  0  0  0  0  0  0  0
    7.1642  -12.3836   27.1496 C   0  0  0  0  0  0  0  0  0  0  0  0
    7.3083  -13.6526   26.6275 C   0  0  0  0  0  0  0  0  0  0  0  0
    7.1640  -13.8821   25.2806 C   0  0  0  0  0  0  0  0  0  0  0  0
    9.5034  -17.8229   25.6073 C   0  0  0  0  0  0  0  0  0  0  0  0
    8.9091  -18.9152   25.7952 O   0  0  0  0  0  0  0  0  0  0  0  0
   10.7145  -17.6537   26.3135 N   0  0  0  0  0  0  0  0  0  0  0  0
   11.2217  -18.6819   27.2607 C   0  0  1  0  0  0  0  0  0  0  0  0
   12.6952  -18.8814   27.0101 C   0  0  0  0  0  0  0  0  0  0  0  0
   12.9334  -19.2521   25.5810 C   0  0  0  0  0  0  0  0  0  0  0  0
   14.3569  -19.5640   25.2329 C   0  0  0  0  0  0  0  0  0  0  0  0
   14.6488  -19.7801   23.7943 C   0  0  0  0  0  0  0  0  0  0  0  0
   16.0313  -20.0605   23.4840 N   0  0  0  0  0  0  0  0  0  0  0  0
   11.0132  -18.0827   28.5927 C   0  0  0  0  0  0  0  0  0  0  0  0
   10.5488  -16.7511   28.7143 O   0  0  0  0  0  0  0  0  0  0  0  0
   11.2121  -18.6504   29.6965 O   0  0  0  0  0  0  0  0  0  0  0  0
  2  1  1  6
  2  3  1  0
  3  4  1  0
  4  8  1  0
  5  4  2  0
  6  7  2  0
  6  2  1  0
  9  6  1  0
 10  9  1  0
 10 11  1  1
 11 12  1  0
 12 13  2  0
 12 20  1  0
 13 14  1  0
 14 15  1  0
 15 16  2  0
 16 17  1  0
 18 17  2  0
 19 18  1  0
 20 19  2  0
 20 15  1  0
 21 10  1  0
 22 21  2  0
 23 21  1  0
 24 25  1  6
 24 23  1  0
 26 25  1  0
 27 26  1  0
 27 28  1  0
 28 29  1  0
 30 24  1  0
 31 30  1  0
 32 30  2  0
M  END
$$$$
