DWK.pdb
     RDKit          3D

 32 33  0  0  1  0  0  0  0  0999 V2000
    9.8332  -18.4356   21.2926 N   0  0  0  0  0  0  0  0  0  0  0  0
   10.8446  -17.5726   21.8522 C   0  0  1  0  0  0  0  0  0  0  0  0
   11.2460  -16.5457   20.8207 C   0  0  0  0  0  0  0  0  0  0  0  0
   11.6113  -17.1125   19.5292 C   0  0  0  0  0  0  0  0  0  0  0  0
   11.9763  -18.3149   19.4891 O   0  0  0  0  0  0  0  0  0  0  0  0
   10.4612  -16.9290   23.1189 C   0  0  0  0  0  0  0  0  0  0  0  0
   11.1689  -16.0041   23.6448 O   0  0  0  0  0  0  0  0  0  0  0  0
   11.5810  -16.4113   18.3418 O   0  0  0  0  0  0  0  0  0  0  0  0
    9.3070  -17.2699   23.8453 N   0  0  0  0  0  0  0  0  0  0  0  0
    8.9215  -16.5847   25.0620 C   0  0  1  0  0  0  0  0  0  0  0  0
    7.5060  -16.2060   25.0088 C   0  0  0  0  0  0  0  0  0  0  0  0
    7.3362  -14.7615   24.7070 C   0  0  0  0  0  0  0  0  0  0  0  0
    7.4259  -14.2442   23.4063 C   0  0  0  0  0  0  0  0  0  0  0  0
    7.1882  -12.9394   23.4949 N   0  0  0  0  0  0  0  0  0  0  0  0
    6.9509  -12.5719   24.7627 C   0  0  0  0  0  0  0  0  0  0  0  0
    6.6701  -11.3699   25.3830 C   0  0  0  0  0  0  0  0  0  0  0  0
    6.4878  -11.3125   26.7357 C   0  0  0  0  0  0  0  0  0  0  0  0
    6.5788  -12.4443   27.5116 C   0  0  0  0  0  0  0  0  0  0  0  0
    6.8588  -13.6432   26.8886 C   0  0  0  0  0  0  0  0  0  0  0  0
    7.0419  -13.7057   25.5284 C   0  0  0  0  0  0  0  0  0  0  0  0
    9.3283  -17.4338   26.1880 C   0  0  0  0  0  0  0  0  0  0  0  0
    8.9212  -17.1588   27.3457 O   0  0  0  0  0  0  0  0  0  0  0  0
   10.1626  -18.5684   26.0840 N   0  0  0  0  0  0  0  0  0  0  0  0
   10.6372  -19.3069   27.2843 C   0  0  1  0  0  0  0  0  0  0  0  0
   11.2922  -20.5880   26.8328 C   0  0  0  0  0  0  0  0  0  0  0  0
   10.2607  -21.5551   26.3459 C   0  0  0  0  0  0  0  0  0  0  0  0
   10.7903  -22.8906   25.9208 C   0  0  0  0  0  0  0  0  0  0  0  0
    9.8121  -23.8176   25.3004 C   0  0  0  0  0  0  0  0  0  0  0  0
    9.9740  -24.0196   23.8794 N   0  0  0  0  0  0  0  0  0  0  0  0
   11.6430  -18.4116   27.8873 C   0  0  0  0  0  0  0  0  0  0  0  0
   12.4178  -17.5524   27.0716 O   0  0  0  0  0  0  0  0  0  0  0  0
   11.9075  -18.3180   29.1126 O   0  0  0  0  0  0  0  0  0  0  0  0
  2  1  1  6
  2  3  1  0
  3  4  1  0
  4  8  1  0
  5  4  2  0
  6  7  2  0
  6  2  1  0
  9  6  1  0
 10  9  1  0
 10 11  1  6
 11 12  1  0
 12 13  2  0
 12 20  1  0
 13 14  1  0
 14 15  1  0
 15 16  2  0
 16 17  1  0
 18 17  2  0
 19 18  1  0
 20 19  2  0
 20 15  1  0
 21 10  1  0
 22 21  2  0
 23 21  1  0
 24 25  1  6
 24 23  1  0
 26 25  1  0
 27 26  1  0
 27 28  1  0
 28 29  1  0
 30 24  1  0
 31 30  1  0
 32 30  2  0
M  END
$$$$
