DWK.pdb
     RDKit          3D

 32 33  0  0  1  0  0  0  0  0999 V2000
    9.3446  -18.0459   20.5739 N   0  0  0  0  0  0  0  0  0  0  0  0
   10.5454  -17.5431   21.1954 C   0  0  1  0  0  0  0  0  0  0  0  0
   11.1818  -16.5185   20.2871 C   0  0  0  0  0  0  0  0  0  0  0  0
   11.4774  -17.0130   18.9489 C   0  0  0  0  0  0  0  0  0  0  0  0
   11.1693  -18.2001   18.6719 O   0  0  0  0  0  0  0  0  0  0  0  0
   10.3477  -17.0009   22.5491 C   0  0  0  0  0  0  0  0  0  0  0  0
   11.2262  -16.2642   23.1135 O   0  0  0  0  0  0  0  0  0  0  0  0
   12.0753  -16.2582   17.9614 O   0  0  0  0  0  0  0  0  0  0  0  0
    9.1992  -17.2422   23.3226 N   0  0  0  0  0  0  0  0  0  0  0  0
    9.0241  -16.6907   24.6507 C   0  0  1  0  0  0  0  0  0  0  0  0
    7.6223  -16.3214   24.8701 C   0  0  0  0  0  0  0  0  0  0  0  0
    7.3849  -14.8818   24.5918 C   0  0  0  0  0  0  0  0  0  0  0  0
    7.1496  -14.3893   23.2997 C   0  0  0  0  0  0  0  0  0  0  0  0
    6.9431  -13.0815   23.4190 N   0  0  0  0  0  0  0  0  0  0  0  0
    7.0285  -12.6892   24.6987 C   0  0  0  0  0  0  0  0  0  0  0  0
    6.9121  -11.4742   25.3457 C   0  0  0  0  0  0  0  0  0  0  0  0
    7.0714  -11.3906   26.6999 C   0  0  0  0  0  0  0  0  0  0  0  0
    7.3505  -12.5084   27.4509 C   0  0  0  0  0  0  0  0  0  0  0  0
    7.4655  -13.7203   26.8014 C   0  0  0  0  0  0  0  0  0  0  0  0
    7.3051  -13.8092   25.4398 C   0  0  0  0  0  0  0  0  0  0  0  0
    9.6033  -17.6486   25.6001 C   0  0  0  0  0  0  0  0  0  0  0  0
    9.2070  -18.8420   25.5904 O   0  0  0  0  0  0  0  0  0  0  0  0
   10.5980  -17.3398   26.5537 N   0  0  0  0  0  0  0  0  0  0  0  0
   11.1292  -18.3624   27.4938 C   0  0  1  0  0  0  0  0  0  0  0  0
   12.6112  -18.5093   27.2572 C   0  0  0  0  0  0  0  0  0  0  0  0
   12.8656  -19.0980   25.9063 C   0  0  0  0  0  0  0  0  0  0  0  0
   14.3069  -19.3457   25.5807 C   0  0  0  0  0  0  0  0  0  0  0  0
   14.5967  -19.8263   24.2073 C   0  0  0  0  0  0  0  0  0  0  0  0
   15.9977  -19.9911   23.8976 N   0  0  0  0  0  0  0  0  0  0  0  0
   10.8865  -17.7874   28.8307 C   0  0  0  0  0  0  0  0  0  0  0  0
   11.1726  -18.5383   29.9960 O   0  0  0  0  0  0  0  0  0  0  0  0
   10.4281  -16.6414   29.0689 O   0  0  0  0  0  0  0  0  0  0  0  0
  2  1  1  6
  2  3  1  0
  3  4  1  0
  4  8  1  0
  5  4  2  0
  6  7  2  0
  6  2  1  0
  9  6  1  0
 10  9  1  0
 10 11  1  1
 11 12  1  0
 12 13  2  0
 12 20  1  0
 13 14  1  0
 14 15  1  0
 15 16  2  0
 16 17  1  0
 18 17  2  0
 19 18  1  0
 20 19  2  0
 20 15  1  0
 21 10  1  0
 22 21  2  0
 23 21  1  0
 24 25  1  6
 24 23  1  0
 26 25  1  0
 27 26  1  0
 27 28  1  0
 28 29  1  0
 30 24  1  0
 31 30  1  0
 32 30  2  0
M  END
$$$$
