VDI.pdb
     RDKit          3D

 24 23  0  0  1  0  0  0  0  0999 V2000
   14.6403  -23.8621    2.0632 C   0  0  0  0  0  0  0  0  0  0  0  0
   15.2887  -22.7987    2.9231 C   0  0  1  0  0  0  0  0  0  0  0  0
   16.7545  -22.6565    2.6471 C   0  0  0  0  0  0  0  0  0  0  0  0
   14.5824  -21.4959    2.6313 C   0  0  2  0  0  0  0  0  0  0  0  0
   14.5766  -21.1574    1.2438 N   0  0  0  0  0  0  0  0  0  0  0  0
   15.1077  -20.3901    3.4734 C   0  0  0  0  0  0  0  0  0  0  0  0
   15.4520  -19.3146    2.9217 O   0  0  0  0  0  0  0  0  0  0  0  0
   15.2472  -20.4725    4.8810 N   0  0  0  0  0  0  0  0  0  0  0  0
   15.7067  -19.3593    5.6891 C   0  0  1  0  0  0  0  0  0  0  0  0
   14.7450  -19.0520    6.8121 C   0  0  0  0  0  0  0  0  0  0  0  0
   15.1571  -17.9204    7.6417 C   0  0  0  0  0  0  0  0  0  0  0  0
   15.6603  -18.0292    8.7869 O   0  0  0  0  0  0  0  0  0  0  0  0
   17.0679  -19.6539    6.1713 C   0  0  0  0  0  0  0  0  0  0  0  0
   17.4019  -20.8062    6.5093 O   0  0  0  0  0  0  0  0  0  0  0  0
   14.9913  -16.6337    7.1530 O   0  0  0  0  0  0  0  0  0  0  0  0
   21.2523  -18.0259    3.5671 C   0  0  0  0  0  0  0  0  0  0  0  0
   20.3670  -18.8347    4.4689 C   0  0  0  0  0  0  0  0  0  0  0  0
   20.3857  -18.2428    5.8783 C   0  0  2  0  0  0  0  0  0  0  0  0
   21.7686  -18.4010    6.4214 C   0  0  0  0  0  0  0  0  0  0  0  0
   19.3429  -18.9178    6.7461 C   0  0  2  0  0  0  0  0  0  0  0  0
   18.0277  -18.6238    6.2597 N   0  0  0  0  0  0  0  0  0  0  0  0
   19.4135  -18.4151    8.1500 C   0  0  0  0  0  0  0  0  0  0  0  0
   18.9669  -17.1646    8.5306 O   0  0  0  0  0  0  0  0  0  0  0  0
   19.9029  -19.1658    9.0287 O   0  0  0  0  0  0  0  0  0  0  0  0
  2  3  1  6
  2  1  1  0
  4  2  1  0
  4  5  1  6
  6  7  2  0
  6  4  1  0
  8  6  1  0
  9  8  1  0
  9 10  1  1
 10 11  1  0
 11 12  2  0
 11 15  1  0
 13  9  1  0
 14 13  2  0
 16 17  1  0
 18 17  1  0
 18 20  1  0
 18 19  1  1
 20 21  1  6
 21 13  1  0
 22 20  1  0
 22 23  1  0
 24 22  2  0
M  END
$$$$
