VDI.pdb
     RDKit          3D

 24 23  0  0  1  0  0  0  0  0999 V2000
   21.1014  -17.7693  -19.0233 C   0  0  0  0  0  0  0  0  0  0  0  0
   21.7179  -16.4121  -19.2848 C   0  0  1  0  0  0  0  0  0  0  0  0
   21.2514  -15.8121  -20.5761 C   0  0  0  0  0  0  0  0  0  0  0  0
   21.3306  -15.5157  -18.1325 C   0  0  2  0  0  0  0  0  0  0  0  0
   19.9305  -15.5345  -17.8508 N   0  0  0  0  0  0  0  0  0  0  0  0
   21.8437  -14.1338  -18.3199 C   0  0  0  0  0  0  0  0  0  0  0  0
   23.0815  -13.9549  -18.4433 O   0  0  0  0  0  0  0  0  0  0  0  0
   21.0128  -12.9872  -18.3690 N   0  0  0  0  0  0  0  0  0  0  0  0
   21.5421  -11.6390  -18.4449 C   0  0  1  0  0  0  0  0  0  0  0  0
   20.6730  -10.7468  -19.2987 C   0  0  0  0  0  0  0  0  0  0  0  0
   20.8185  -10.9886  -20.7336 C   0  0  0  0  0  0  0  0  0  0  0  0
   21.9210  -11.0979  -21.3244 O   0  0  0  0  0  0  0  0  0  0  0  0
   21.7169  -11.1208  -17.0763 C   0  0  0  0  0  0  0  0  0  0  0  0
   21.0388  -11.5564  -16.1254 O   0  0  0  0  0  0  0  0  0  0  0  0
   19.6785  -11.1085  -21.5134 O   0  0  0  0  0  0  0  0  0  0  0  0
   25.9636  -11.7971  -14.6549 C   0  0  0  0  0  0  0  0  0  0  0  0
   24.5361  -11.5024  -15.0105 C   0  0  0  0  0  0  0  0  0  0  0  0
   24.3147   -9.9903  -15.0497 C   0  0  2  0  0  0  0  0  0  0  0  0
   24.6433   -9.4457  -13.6978 C   0  0  0  0  0  0  0  0  0  0  0  0
   22.8925   -9.6777  -15.4691 C   0  0  2  0  0  0  0  0  0  0  0  0
   22.6665  -10.1106  -16.8161 N   0  0  0  0  0  0  0  0  0  0  0  0
   22.6388   -8.2070  -15.4329 C   0  0  0  0  0  0  0  0  0  0  0  0
   22.1926   -7.5423  -14.3072 O   0  0  0  0  0  0  0  0  0  0  0  0
   22.8408   -7.5407  -16.4771 O   0  0  0  0  0  0  0  0  0  0  0  0
  2  3  1  6
  2  1  1  0
  4  2  1  0
  4  5  1  6
  6  7  2  0
  6  4  1  0
  8  6  1  0
  9  8  1  0
  9 10  1  6
 10 11  1  0
 11 12  2  0
 11 15  1  0
 13  9  1  0
 14 13  2  0
 16 17  1  0
 18 17  1  0
 18 20  1  0
 18 19  1  1
 20 21  1  6
 21 13  1  0
 22 20  1  0
 22 23  1  0
 24 22  2  0
M  END
$$$$
