VDI.pdb
     RDKit          3D

 24 23  0  0  1  0  0  0  0  0999 V2000
   13.3707   -9.5583   -9.2836 C   0  0  0  0  0  0  0  0  0  0  0  0
   14.4320   -9.3874  -10.3490 C   0  0  1  0  0  0  0  0  0  0  0  0
   15.6934  -10.1273  -10.0224 C   0  0  0  0  0  0  0  0  0  0  0  0
   13.8530   -9.9062  -11.6440 C   0  0  2  0  0  0  0  0  0  0  0  0
   13.3916  -11.2548  -11.5538 N   0  0  0  0  0  0  0  0  0  0  0  0
   14.7932   -9.7126  -12.7782 C   0  0  0  0  0  0  0  0  0  0  0  0
   15.0683  -10.6923  -13.5158 O   0  0  0  0  0  0  0  0  0  0  0  0
   15.4089   -8.4740  -13.0857 N   0  0  0  0  0  0  0  0  0  0  0  0
   16.2156   -8.2741  -14.2743 C   0  0  1  0  0  0  0  0  0  0  0  0
   15.4900   -7.4448  -15.3068 C   0  0  0  0  0  0  0  0  0  0  0  0
   16.1916   -7.3600  -16.5871 C   0  0  0  0  0  0  0  0  0  0  0  0
   17.4393   -7.2855  -16.7063 O   0  0  0  0  0  0  0  0  0  0  0  0
   17.5066   -7.6846  -13.8771 C   0  0  0  0  0  0  0  0  0  0  0  0
   17.6060   -6.9572  -12.8698 O   0  0  0  0  0  0  0  0  0  0  0  0
   15.4520   -7.3601  -17.7596 O   0  0  0  0  0  0  0  0  0  0  0  0
   21.9726  -10.6220  -14.2002 C   0  0  0  0  0  0  0  0  0  0  0  0
   20.8902   -9.6637  -13.7986 C   0  0  0  0  0  0  0  0  0  0  0  0
   21.0482   -8.3529  -14.5691 C   0  0  2  0  0  0  0  0  0  0  0  0
   22.3949   -7.7927  -14.2457 C   0  0  0  0  0  0  0  0  0  0  0  0
   19.9252   -7.3978  -14.2182 C   0  0  2  0  0  0  0  0  0  0  0  0
   18.6663   -7.9369  -14.6397 N   0  0  0  0  0  0  0  0  0  0  0  0
   20.0996   -6.0916  -14.9197 C   0  0  0  0  0  0  0  0  0  0  0  0
   20.6568   -4.9784  -14.3210 O   0  0  0  0  0  0  0  0  0  0  0  0
   19.7212   -5.9998  -16.1128 O   0  0  0  0  0  0  0  0  0  0  0  0
  2  3  1  1
  2  1  1  0
  4  2  1  0
  4  5  1  1
  6  7  2  0
  6  4  1  0
  8  6  1  0
  9  8  1  0
  9 10  1  6
 10 11  1  0
 11 12  2  0
 11 15  1  0
 13  9  1  0
 14 13  2  0
 16 17  1  0
 18 17  1  0
 18 20  1  0
 18 19  1  1
 20 21  1  6
 21 13  1  0
 22 20  1  0
 22 23  1  0
 24 22  2  0
M  END
$$$$
