VDI.pdb
     RDKit          3D

 24 23  0  0  1  0  0  0  0  0999 V2000
   16.6480  -15.2880  -16.5332 C   0  0  0  0  0  0  0  0  0  0  0  0
   17.5288  -14.1903  -15.9766 C   0  0  1  0  0  0  0  0  0  0  0  0
   18.8265  -14.0694  -16.7157 C   0  0  0  0  0  0  0  0  0  0  0  0
   16.7542  -12.8981  -16.0840 C   0  0  2  0  0  0  0  0  0  0  0  0
   16.2191  -12.6695  -17.3883 N   0  0  0  0  0  0  0  0  0  0  0  0
   17.5512  -11.7423  -15.5973 C   0  0  0  0  0  0  0  0  0  0  0  0
   17.9066  -11.7113  -14.3922 O   0  0  0  0  0  0  0  0  0  0  0  0
   17.9420  -10.6558  -16.4186 N   0  0  0  0  0  0  0  0  0  0  0  0
   18.5639   -9.4575  -15.8888 C   0  0  1  0  0  0  0  0  0  0  0  0
   20.0064   -9.3414  -16.3199 C   0  0  0  0  0  0  0  0  0  0  0  0
   20.6864   -8.1663  -15.7764 C   0  0  0  0  0  0  0  0  0  0  0  0
   20.2782   -7.5063  -14.7894 O   0  0  0  0  0  0  0  0  0  0  0  0
   17.7566   -8.2899  -16.2852 C   0  0  0  0  0  0  0  0  0  0  0  0
   17.4433   -8.0907  -17.4752 O   0  0  0  0  0  0  0  0  0  0  0  0
   21.8605   -7.7339  -16.3734 O   0  0  0  0  0  0  0  0  0  0  0  0
   12.7710   -5.5866  -15.6410 C   0  0  0  0  0  0  0  0  0  0  0  0
   14.2314   -5.2574  -15.7404 C   0  0  0  0  0  0  0  0  0  0  0  0
   15.0642   -6.4975  -15.4159 C   0  0  2  0  0  0  0  0  0  0  0  0
   14.8217   -6.8484  -13.9841 C   0  0  0  0  0  0  0  0  0  0  0  0
   16.5285   -6.2389  -15.7079 C   0  0  2  0  0  0  0  0  0  0  0  0
   17.3194   -7.3664  -15.3126 N   0  0  0  0  0  0  0  0  0  0  0  0
   17.0250   -5.0625  -14.9345 C   0  0  0  0  0  0  0  0  0  0  0  0
   16.7895   -3.7543  -15.3104 O   0  0  0  0  0  0  0  0  0  0  0  0
   17.6897   -5.2719  -13.8908 O   0  0  0  0  0  0  0  0  0  0  0  0
  2  3  1  6
  2  1  1  0
  4  2  1  0
  4  5  1  6
  6  7  2  0
  6  4  1  0
  8  6  1  0
  9  8  1  0
  9 10  1  6
 10 11  1  0
 11 12  2  0
 11 15  1  0
 13  9  1  0
 14 13  2  0
 16 17  1  0
 18 17  1  0
 18 20  1  0
 18 19  1  1
 20 21  1  1
 21 13  1  0
 22 20  1  0
 22 23  1  0
 24 22  2  0
M  END
$$$$
