VDI.pdb
     RDKit          3D

 24 23  0  0  1  0  0  0  0  0999 V2000
   12.1678  -12.8003  -13.8269 C   0  0  0  0  0  0  0  0  0  0  0  0
   12.9949  -11.7341  -13.1416 C   0  0  1  0  0  0  0  0  0  0  0  0
   12.8185  -11.7429  -11.6537 C   0  0  0  0  0  0  0  0  0  0  0  0
   14.4409  -11.9980  -13.4890 C   0  0  2  0  0  0  0  0  0  0  0  0
   14.8729  -13.3134  -13.1383 N   0  0  0  0  0  0  0  0  0  0  0  0
   15.3356  -10.9499  -12.9331 C   0  0  0  0  0  0  0  0  0  0  0  0
   16.0139  -11.2091  -11.9073 O   0  0  0  0  0  0  0  0  0  0  0  0
   15.4746   -9.6566  -13.4950 N   0  0  0  0  0  0  0  0  0  0  0  0
   16.2283   -8.5990  -12.8494 C   0  0  1  0  0  0  0  0  0  0  0  0
   17.0157   -7.7862  -13.8492 C   0  0  0  0  0  0  0  0  0  0  0  0
   17.7840   -6.6992  -13.2436 C   0  0  0  0  0  0  0  0  0  0  0  0
   18.5120   -6.8276  -12.2287 O   0  0  0  0  0  0  0  0  0  0  0  0
   15.3019   -7.7760  -12.0516 C   0  0  0  0  0  0  0  0  0  0  0  0
   14.1391   -7.5472  -12.4381 O   0  0  0  0  0  0  0  0  0  0  0  0
   17.7203   -5.4353  -13.8095 O   0  0  0  0  0  0  0  0  0  0  0  0
   13.2955   -6.7324   -6.5983 C   0  0  0  0  0  0  0  0  0  0  0  0
   13.6901   -6.0536   -7.8769 C   0  0  0  0  0  0  0  0  0  0  0  0
   14.5766   -6.9845   -8.7042 C   0  0  2  0  0  0  0  0  0  0  0  0
   15.8409   -7.2087   -7.9405 C   0  0  0  0  0  0  0  0  0  0  0  0
   14.8270   -6.3909  -10.0758 C   0  0  2  0  0  0  0  0  0  0  0  0
   15.7206   -7.2262  -10.8218 N   0  0  0  0  0  0  0  0  0  0  0  0
   15.4715   -5.0489   -9.9645 C   0  0  0  0  0  0  0  0  0  0  0  0
   14.7871   -3.9078   -9.5937 O   0  0  0  0  0  0  0  0  0  0  0  0
   16.6963   -4.9522  -10.2206 O   0  0  0  0  0  0  0  0  0  0  0  0
  2  3  1  1
  2  1  1  0
  4  2  1  0
  4  5  1  1
  6  7  2  0
  6  4  1  0
  8  6  1  0
  9  8  1  0
  9 10  1  6
 10 11  1  0
 11 12  2  0
 11 15  1  0
 13  9  1  0
 14 13  2  0
 16 17  1  0
 18 17  1  0
 18 20  1  0
 18 19  1  1
 20 21  1  6
 21 13  1  0
 22 20  1  0
 22 23  1  0
 24 22  2  0
M  END
$$$$
