VDI.pdb
     RDKit          3D

 24 23  0  0  1  0  0  0  0  0999 V2000
   21.2968  -19.8977  -14.0990 C   0  0  0  0  0  0  0  0  0  0  0  0
   22.6237  -20.5464  -13.7687 C   0  0  1  0  0  0  0  0  0  0  0  0
   23.7860  -19.6418  -14.0439 C   0  0  0  0  0  0  0  0  0  0  0  0
   22.5912  -20.9093  -12.3029 C   0  0  2  0  0  0  0  0  0  0  0  0
   21.9685  -19.9135  -11.4902 N   0  0  0  0  0  0  0  0  0  0  0  0
   23.9414  -21.2748  -11.8013 C   0  0  0  0  0  0  0  0  0  0  0  0
   24.5533  -22.2312  -12.3400 O   0  0  0  0  0  0  0  0  0  0  0  0
   24.5927  -20.6028  -10.7374 N   0  0  0  0  0  0  0  0  0  0  0  0
   25.9491  -20.9135  -10.3285 C   0  0  1  0  0  0  0  0  0  0  0  0
   26.9175  -20.8037  -11.4819 C   0  0  0  0  0  0  0  0  0  0  0  0
   28.2965  -21.1299  -11.1207 C   0  0  0  0  0  0  0  0  0  0  0  0
   29.3066  -20.7239  -11.7464 O   0  0  0  0  0  0  0  0  0  0  0  0
   26.3135  -20.0438   -9.1958 C   0  0  0  0  0  0  0  0  0  0  0  0
   26.0810  -18.8193   -9.2162 O   0  0  0  0  0  0  0  0  0  0  0  0
   28.5289  -21.9387  -10.0190 O   0  0  0  0  0  0  0  0  0  0  0  0
   28.2047  -20.5940   -3.3251 C   0  0  0  0  0  0  0  0  0  0  0  0
   27.7392  -19.7487   -4.4741 C   0  0  0  0  0  0  0  0  0  0  0  0
   27.5775  -20.6164   -5.7222 C   0  0  2  0  0  0  0  0  0  0  0  0
   28.8715  -21.3257   -5.9558 C   0  0  0  0  0  0  0  0  0  0  0  0
   27.1632  -19.7646   -6.9050 C   0  0  2  0  0  0  0  0  0  0  0  0
   26.9393  -20.5891   -8.0552 N   0  0  0  0  0  0  0  0  0  0  0  0
   28.2392  -18.7941   -7.2639 C   0  0  0  0  0  0  0  0  0  0  0  0
   29.1302  -18.9993   -8.2994 O   0  0  0  0  0  0  0  0  0  0  0  0
   28.3398  -17.7391   -6.5918 O   0  0  0  0  0  0  0  0  0  0  0  0
  2  3  1  1
  2  1  1  0
  4  2  1  0
  4  5  1  1
  6  7  2  0
  6  4  1  0
  8  6  1  0
  9  8  1  0
  9 10  1  6
 10 11  1  0
 11 12  2  0
 11 15  1  0
 13  9  1  0
 14 13  2  0
 16 17  1  0
 18 17  1  0
 18 20  1  0
 18 19  1  6
 20 21  1  6
 21 13  1  0
 22 20  1  0
 22 23  1  0
 24 22  2  0
M  END
$$$$
