VDI.pdb
     RDKit          3D

 24 23  0  0  1  0  0  0  0  0999 V2000
   18.6690  -33.4118   -3.7490 C   0  0  0  0  0  0  0  0  0  0  0  0
   19.2745  -33.5324   -5.1307 C   0  0  1  0  0  0  0  0  0  0  0  0
   19.5218  -34.9570   -5.5236 C   0  0  0  0  0  0  0  0  0  0  0  0
   18.3082  -32.8928   -6.0995 C   0  0  2  0  0  0  0  0  0  0  0  0
   18.7644  -32.9240   -7.4526 N   0  0  0  0  0  0  0  0  0  0  0  0
   17.9316  -31.5213   -5.6690 C   0  0  0  0  0  0  0  0  0  0  0  0
   18.7473  -30.5817   -5.8455 O   0  0  0  0  0  0  0  0  0  0  0  0
   16.6917  -31.2009   -5.0627 N   0  0  0  0  0  0  0  0  0  0  0  0
   16.3533  -29.8572   -4.6346 C   0  0  1  0  0  0  0  0  0  0  0  0
   14.8947  -29.5475   -4.8729 C   0  0  0  0  0  0  0  0  0  0  0  0
   14.4895  -28.2295   -4.3859 C   0  0  0  0  0  0  0  0  0  0  0  0
   14.6123  -27.8464   -3.1965 O   0  0  0  0  0  0  0  0  0  0  0  0
   16.7449  -29.6969   -3.2228 C   0  0  0  0  0  0  0  0  0  0  0  0
   16.5197  -30.5884   -2.3811 O   0  0  0  0  0  0  0  0  0  0  0  0
   13.9307  -27.3267   -5.2774 O   0  0  0  0  0  0  0  0  0  0  0  0
   21.3359  -27.2188   -2.0690 C   0  0  0  0  0  0  0  0  0  0  0  0
   20.1614  -28.1523   -2.0553 C   0  0  0  0  0  0  0  0  0  0  0  0
   18.9997  -27.5106   -1.2967 C   0  0  2  0  0  0  0  0  0  0  0  0
   19.4283  -27.3252    0.1225 C   0  0  0  0  0  0  0  0  0  0  0  0
   17.7554  -28.3670   -1.4177 C   0  0  2  0  0  0  0  0  0  0  0  0
   17.3892  -28.5172   -2.7948 N   0  0  0  0  0  0  0  0  0  0  0  0
   16.5993  -27.7259   -0.7242 C   0  0  0  0  0  0  0  0  0  0  0  0
   15.8566  -26.7014   -1.2780 O   0  0  0  0  0  0  0  0  0  0  0  0
   16.2862  -28.1380    0.4192 O   0  0  0  0  0  0  0  0  0  0  0  0
  2  3  1  6
  2  1  1  0
  4  2  1  0
  4  5  1  6
  6  7  2  0
  6  4  1  0
  8  6  1  0
  9  8  1  0
  9 10  1  1
 10 11  1  0
 11 12  2  0
 11 15  1  0
 13  9  1  0
 14 13  2  0
 16 17  1  0
 18 17  1  0
 18 20  1  0
 18 19  1  1
 20 21  1  6
 21 13  1  0
 22 20  1  0
 22 23  1  0
 24 22  2  0
M  END
$$$$
