QLN.pdb
     RDKit          3D

 26 25  0  0  1  0  0  0  0  0999 V2000
   27.7295  -21.7306  -18.6588 N   0  0  0  0  0  0  0  0  0  0  0  0
   27.9554  -20.4644  -18.0885 C   0  0  0  0  0  0  0  0  0  0  0  0
   29.1249  -19.9818  -18.0629 O   0  0  0  0  0  0  0  0  0  0  0  0
   26.8691  -19.6420  -17.4999 C   0  0  0  0  0  0  0  0  0  0  0  0
   25.9634  -20.4497  -16.6300 C   0  0  0  0  0  0  0  0  0  0  0  0
   26.7261  -20.9197  -15.4241 C   0  0  2  0  0  0  0  0  0  0  0  0
   27.4921  -22.0999  -15.8041 N   0  0  0  0  0  0  0  0  0  0  0  0
   25.8551  -21.2209  -14.2651 C   0  0  0  0  0  0  0  0  0  0  0  0
   24.8817  -21.9899  -14.3918 O   0  0  0  0  0  0  0  0  0  0  0  0
   24.8834  -21.8585   -9.1019 C   0  0  0  0  0  0  0  0  0  0  0  0
   25.0003  -20.3852   -9.4373 C   0  0  1  0  0  0  0  0  0  0  0  0
   25.5588  -19.6249   -8.2358 C   0  0  0  0  0  0  0  0  0  0  0  0
   25.8797  -20.2088  -10.6434 C   0  0  0  0  0  0  0  0  0  0  0  0
   25.3019  -20.8461  -11.8684 C   0  0  2  0  0  0  0  0  0  0  0  0
   26.1367  -20.6297  -13.0155 N   0  0  0  0  0  0  0  0  0  0  0  0
   23.9149  -20.3442  -12.1320 C   0  0  0  0  0  0  0  0  0  0  0  0
   23.7396  -19.2438  -12.6999 O   0  0  0  0  0  0  0  0  0  0  0  0
   18.9680  -20.3520  -13.4400 N   0  0  0  0  0  0  0  0  0  0  0  0
   19.9291  -21.1073  -14.1673 C   0  0  0  0  0  0  0  0  0  0  0  0
   19.6011  -21.5450  -15.2949 O   0  0  0  0  0  0  0  0  0  0  0  0
   21.2559  -21.3681  -13.6245 C   0  0  0  0  0  0  0  0  0  0  0  0
   21.4642  -20.7655  -12.2615 C   0  0  2  0  0  0  0  0  0  0  0  0
   22.7927  -21.1044  -11.7441 N   0  0  0  0  0  0  0  0  0  0  0  0
   20.4282  -21.2328  -11.3375 C   0  0  0  0  0  0  0  0  0  0  0  0
   19.1949  -20.6570  -11.1402 O   0  0  0  0  0  0  0  0  0  0  0  0
   20.6739  -22.2736  -10.6368 O   0  0  0  0  0  0  0  0  0  0  0  0
  1  2  1  0
  2  4  1  0
  3  2  2  0
  4  5  1  0
  5  6  1  0
  6  7  1  6
  8  6  1  0
  9  8  2  0
 11 10  1  1
 12 11  1  0
 13 11  1  0
 14 15  1  0
 14 13  1  1
 15  8  1  0
 16 14  1  0
 17 16  2  0
 19 18  1  0
 19 21  1  0
 20 19  2  0
 22 21  1  6
 22 23  1  0
 23 16  1  0
 24 25  1  0
 24 22  1  0
 26 24  2  0
M  END
$$$$
