QLN.pdb
     RDKit          3D

 26 25  0  0  1  0  0  0  0  0999 V2000
   19.4315  -18.7907  -11.3107 N   0  0  0  0  0  0  0  0  0  0  0  0
   19.8307  -19.9907  -10.6941 C   0  0  0  0  0  0  0  0  0  0  0  0
   19.0408  -20.5917   -9.9091 O   0  0  0  0  0  0  0  0  0  0  0  0
   21.1621  -20.6065  -10.9196 C   0  0  0  0  0  0  0  0  0  0  0  0
   22.0500  -19.7352  -11.7453 C   0  0  0  0  0  0  0  0  0  0  0  0
   23.3412  -20.4557  -12.0106 C   0  0  2  0  0  0  0  0  0  0  0  0
   24.1020  -20.4947  -10.7681 N   0  0  0  0  0  0  0  0  0  0  0  0
   24.1444  -19.8339  -13.0881 C   0  0  0  0  0  0  0  0  0  0  0  0
   23.9826  -18.6327  -13.3811 O   0  0  0  0  0  0  0  0  0  0  0  0
   29.2722  -21.4765  -13.7163 C   0  0  0  0  0  0  0  0  0  0  0  0
   27.9528  -20.7431  -13.5826 C   0  0  1  0  0  0  0  0  0  0  0  0
   28.2018  -19.3172  -13.0942 C   0  0  0  0  0  0  0  0  0  0  0  0
   27.2373  -20.7432  -14.9045 C   0  0  0  0  0  0  0  0  0  0  0  0
   25.9046  -20.0656  -14.8314 C   0  0  2  0  0  0  0  0  0  0  0  0
   25.0949  -20.6133  -13.7807 N   0  0  0  0  0  0  0  0  0  0  0  0
   25.1846  -20.1528  -16.1425 C   0  0  0  0  0  0  0  0  0  0  0  0
   25.1316  -21.2379  -16.7620 O   0  0  0  0  0  0  0  0  0  0  0  0
   20.3339  -21.1952  -17.5129 N   0  0  0  0  0  0  0  0  0  0  0  0
   20.9893  -19.9399  -17.3798 C   0  0  0  0  0  0  0  0  0  0  0  0
   20.4474  -18.9363  -17.8992 O   0  0  0  0  0  0  0  0  0  0  0  0
   22.2521  -19.8168  -16.6632 C   0  0  0  0  0  0  0  0  0  0  0  0
   23.3327  -19.1632  -17.4811 C   0  0  2  0  0  0  0  0  0  0  0  0
   24.5594  -19.0153  -16.6930 N   0  0  0  0  0  0  0  0  0  0  0  0
   22.8820  -17.8556  -17.9635 C   0  0  0  0  0  0  0  0  0  0  0  0
   23.4158  -16.6350  -17.6222 O   0  0  0  0  0  0  0  0  0  0  0  0
   21.8989  -17.8234  -18.7802 O   0  0  0  0  0  0  0  0  0  0  0  0
  1  2  1  0
  2  4  1  0
  3  2  2  0
  4  5  1  0
  5  6  1  0
  6  7  1  1
  8  6  1  0
  9  8  2  0
 11 10  1  6
 12 11  1  0
 13 11  1  0
 14 15  1  0
 14 13  1  6
 15  8  1  0
 16 14  1  0
 17 16  2  0
 19 18  1  0
 19 21  1  0
 20 19  2  0
 22 21  1  1
 22 23  1  0
 23 16  1  0
 24 25  1  0
 24 22  1  0
 26 24  2  0
M  END
$$$$
