QLN.pdb
     RDKit          3D

 26 25  0  0  1  0  0  0  0  0999 V2000
   16.8782  -15.5862  -16.6695 N   0  0  0  0  0  0  0  0  0  0  0  0
   15.7485  -15.0184  -17.2869 C   0  0  0  0  0  0  0  0  0  0  0  0
   14.9267  -15.7570  -17.9037 O   0  0  0  0  0  0  0  0  0  0  0  0
   15.4602  -13.5629  -17.2535 C   0  0  0  0  0  0  0  0  0  0  0  0
   16.4304  -12.8190  -16.3965 C   0  0  0  0  0  0  0  0  0  0  0  0
   17.2564  -11.9091  -17.2607 C   0  0  2  0  0  0  0  0  0  0  0  0
   18.0372  -12.7357  -18.1724 N   0  0  0  0  0  0  0  0  0  0  0  0
   18.1460  -11.0165  -16.4831 C   0  0  0  0  0  0  0  0  0  0  0  0
   17.6665  -10.2032  -15.6686 O   0  0  0  0  0  0  0  0  0  0  0  0
   22.3282  -10.0075  -13.6246 C   0  0  0  0  0  0  0  0  0  0  0  0
   22.7891  -10.0785  -15.0665 C   0  0  1  0  0  0  0  0  0  0  0  0
   24.1950  -10.6727  -15.1306 C   0  0  0  0  0  0  0  0  0  0  0  0
   21.8191  -10.9003  -15.8683 C   0  0  0  0  0  0  0  0  0  0  0  0
   20.4561  -10.2837  -15.9199 C   0  0  2  0  0  0  0  0  0  0  0  0
   19.5419  -11.0947  -16.6723 N   0  0  0  0  0  0  0  0  0  0  0  0
   20.5137   -8.8991  -16.4897 C   0  0  0  0  0  0  0  0  0  0  0  0
   20.9522   -8.7105  -17.6456 O   0  0  0  0  0  0  0  0  0  0  0  0
   19.9638   -3.6892  -16.7099 N   0  0  0  0  0  0  0  0  0  0  0  0
   18.7833   -4.4709  -16.8461 C   0  0  0  0  0  0  0  0  0  0  0  0
   17.7251   -3.8847  -17.1739 O   0  0  0  0  0  0  0  0  0  0  0  0
   18.7961   -5.9093  -16.6134 C   0  0  0  0  0  0  0  0  0  0  0  0
   20.1655   -6.4417  -16.2888 C   0  0  2  0  0  0  0  0  0  0  0  0
   20.0755   -7.7941  -15.7316 N   0  0  0  0  0  0  0  0  0  0  0  0
   20.8446   -5.5510  -15.3448 C   0  0  0  0  0  0  0  0  0  0  0  0
   21.2314   -5.8671  -14.0634 O   0  0  0  0  0  0  0  0  0  0  0  0
   21.1120   -4.3611  -15.7284 O   0  0  0  0  0  0  0  0  0  0  0  0
  1  2  1  0
  2  4  1  0
  3  2  2  0
  4  5  1  0
  5  6  1  0
  6  7  1  6
  8  6  1  0
  9  8  2  0
 11 10  1  1
 12 11  1  0
 13 11  1  0
 14 15  1  0
 14 13  1  6
 15  8  1  0
 16 14  1  0
 17 16  2  0
 19 18  1  0
 19 21  1  0
 20 19  2  0
 22 21  1  1
 22 23  1  0
 23 16  1  0
 24 25  1  0
 24 22  1  0
 26 24  2  0
M  END
$$$$
