QLN.pdb
     RDKit          3D

 26 25  0  0  1  0  0  0  0  0999 V2000
    8.1003  -23.1883   -4.8144 N   0  0  0  0  0  0  0  0  0  0  0  0
    9.1236  -23.3804   -5.7607 C   0  0  0  0  0  0  0  0  0  0  0  0
    8.8674  -23.2893   -6.9966 O   0  0  0  0  0  0  0  0  0  0  0  0
   10.5236  -23.6921   -5.3792 C   0  0  0  0  0  0  0  0  0  0  0  0
   10.6799  -23.8513   -3.9029 C   0  0  0  0  0  0  0  0  0  0  0  0
   12.0970  -24.2441   -3.5955 C   0  0  2  0  0  0  0  0  0  0  0  0
   12.2901  -25.6213   -4.0314 N   0  0  0  0  0  0  0  0  0  0  0  0
   12.4427  -24.1030   -2.1626 C   0  0  0  0  0  0  0  0  0  0  0  0
   11.5437  -23.9909   -1.3058 O   0  0  0  0  0  0  0  0  0  0  0  0
   16.6186  -27.0370   -0.2151 C   0  0  0  0  0  0  0  0  0  0  0  0
   15.2912  -26.3316   -0.4074 C   0  0  1  0  0  0  0  0  0  0  0  0
   14.2553  -26.9091    0.5554 C   0  0  0  0  0  0  0  0  0  0  0  0
   15.4664  -24.8548   -0.1891 C   0  0  0  0  0  0  0  0  0  0  0  0
   14.1944  -24.0932   -0.3956 C   0  0  2  0  0  0  0  0  0  0  0  0
   13.7993  -24.0966   -1.7752 N   0  0  0  0  0  0  0  0  0  0  0  0
   14.3225  -22.6869    0.1055 C   0  0  0  0  0  0  0  0  0  0  0  0
   14.8874  -21.8173   -0.5935 O   0  0  0  0  0  0  0  0  0  0  0  0
   13.9746  -18.3460    2.8537 N   0  0  0  0  0  0  0  0  0  0  0  0
   12.7188  -18.9351    2.5389 C   0  0  0  0  0  0  0  0  0  0  0  0
   11.6831  -18.2672    2.7666 O   0  0  0  0  0  0  0  0  0  0  0  0
   12.6314  -20.2733    1.9692 C   0  0  0  0  0  0  0  0  0  0  0  0
   13.9679  -20.9560    1.8601 C   0  0  2  0  0  0  0  0  0  0  0  0
   13.8092  -22.3273    1.3684 N   0  0  0  0  0  0  0  0  0  0  0  0
   14.6419  -20.9609    3.1606 C   0  0  0  0  0  0  0  0  0  0  0  0
   15.4453  -19.9643    3.6636 O   0  0  0  0  0  0  0  0  0  0  0  0
   14.4820  -21.9800    3.9158 O   0  0  0  0  0  0  0  0  0  0  0  0
  1  2  1  0
  2  4  1  0
  3  2  2  0
  4  5  1  0
  5  6  1  0
  6  7  1  1
  8  6  1  0
  9  8  2  0
 11 10  1  1
 12 11  1  0
 13 11  1  0
 14 15  1  0
 14 13  1  6
 15  8  1  0
 16 14  1  0
 17 16  2  0
 19 18  1  0
 19 21  1  0
 20 19  2  0
 22 21  1  1
 22 23  1  0
 23 16  1  0
 24 25  1  0
 24 22  1  0
 26 24  2  0
M  END
$$$$
