QLN.pdb
     RDKit          3D

 26 25  0  0  1  0  0  0  0  0999 V2000
   15.7636  -30.5985   -7.8174 N   0  0  0  0  0  0  0  0  0  0  0  0
   15.9995  -31.7987   -8.5129 C   0  0  0  0  0  0  0  0  0  0  0  0
   15.4348  -32.0061   -9.6261 O   0  0  0  0  0  0  0  0  0  0  0  0
   16.8976  -32.8627   -7.9990 C   0  0  0  0  0  0  0  0  0  0  0  0
   17.3712  -32.5750   -6.6126 C   0  0  0  0  0  0  0  0  0  0  0  0
   18.4620  -31.5435   -6.6670 C   0  0  2  0  0  0  0  0  0  0  0  0
   19.5173  -32.0455   -7.5379 N   0  0  0  0  0  0  0  0  0  0  0  0
   19.0105  -31.2051   -5.3338 C   0  0  0  0  0  0  0  0  0  0  0  0
   19.8448  -31.9536   -4.7874 O   0  0  0  0  0  0  0  0  0  0  0  0
   20.7077  -27.7263   -1.5376 C   0  0  0  0  0  0  0  0  0  0  0  0
   19.2052  -27.8147   -1.7143 C   0  0  1  0  0  0  0  0  0  0  0  0
   18.5623  -26.4792   -1.3444 C   0  0  0  0  0  0  0  0  0  0  0  0
   18.8835  -28.1937   -3.1328 C   0  0  0  0  0  0  0  0  0  0  0  0
   19.0588  -29.6587   -3.3852 C   0  0  2  0  0  0  0  0  0  0  0  0
   18.5804  -30.0273   -4.6870 N   0  0  0  0  0  0  0  0  0  0  0  0
   18.3737  -30.4718   -2.3295 C   0  0  0  0  0  0  0  0  0  0  0  0
   17.1308  -30.4195   -2.2006 O   0  0  0  0  0  0  0  0  0  0  0  0
   16.6273  -34.1156    0.1055 N   0  0  0  0  0  0  0  0  0  0  0  0
   17.9978  -34.4629   -0.0510 C   0  0  0  0  0  0  0  0  0  0  0  0
   18.3106  -35.6734    0.0358 O   0  0  0  0  0  0  0  0  0  0  0  0
   19.0122  -33.4481   -0.3046 C   0  0  0  0  0  0  0  0  0  0  0  0
   18.4428  -32.0594   -0.4125 C   0  0  2  0  0  0  0  0  0  0  0  0
   19.1197  -31.3040   -1.4701 N   0  0  0  0  0  0  0  0  0  0  0  0
   18.5693  -31.3593    0.8679 C   0  0  0  0  0  0  0  0  0  0  0  0
   17.5904  -31.2335    1.8258 O   0  0  0  0  0  0  0  0  0  0  0  0
   19.6882  -30.8041    1.1406 O   0  0  0  0  0  0  0  0  0  0  0  0
  1  2  1  0
  2  4  1  0
  3  2  2  0
  4  5  1  0
  5  6  1  0
  6  7  1  6
  8  6  1  0
  9  8  2  0
 11 10  1  6
 12 11  1  0
 13 11  1  0
 14 15  1  0
 14 13  1  1
 15  8  1  0
 16 14  1  0
 17 16  2  0
 19 18  1  0
 19 21  1  0
 20 19  2  0
 22 21  1  1
 22 23  1  0
 23 16  1  0
 24 25  1  0
 24 22  1  0
 26 24  2  0
M  END
$$$$
