QLN.pdb
     RDKit          3D

 26 25  0  0  1  0  0  0  0  0999 V2000
    9.4931  -18.0845    0.5207 N   0  0  0  0  0  0  0  0  0  0  0  0
   10.6045  -17.8958    1.3625 C   0  0  0  0  0  0  0  0  0  0  0  0
   10.7891  -16.7775    1.9252 O   0  0  0  0  0  0  0  0  0  0  0  0
   11.5983  -18.9642    1.6340 C   0  0  0  0  0  0  0  0  0  0  0  0
   12.7249  -18.4785    2.4850 C   0  0  0  0  0  0  0  0  0  0  0  0
   14.0168  -18.6445    1.7364 C   0  0  2  0  0  0  0  0  0  0  0  0
   13.9469  -19.8898    0.9825 N   0  0  0  0  0  0  0  0  0  0  0  0
   15.2058  -18.6416    2.6190 C   0  0  0  0  0  0  0  0  0  0  0  0
   15.8990  -19.6704    2.7454 O   0  0  0  0  0  0  0  0  0  0  0  0
   17.8831  -13.9632    2.8262 C   0  0  0  0  0  0  0  0  0  0  0  0
   17.6779  -15.4640    2.7805 C   0  0  1  0  0  0  0  0  0  0  0  0
   18.9641  -16.1472    2.3193 C   0  0  0  0  0  0  0  0  0  0  0  0
   17.2604  -15.9595    4.1368 C   0  0  0  0  0  0  0  0  0  0  0  0
   16.7474  -17.3652    4.0971 C   0  0  2  0  0  0  0  0  0  0  0  0
   15.5475  -17.4636    3.3161 N   0  0  0  0  0  0  0  0  0  0  0  0
   16.5126  -17.8908    5.4805 C   0  0  0  0  0  0  0  0  0  0  0  0
   15.4426  -17.6400    6.0773 O   0  0  0  0  0  0  0  0  0  0  0  0
   18.3909  -22.3377    5.9709 N   0  0  0  0  0  0  0  0  0  0  0  0
   17.5038  -21.5995    6.8023 C   0  0  0  0  0  0  0  0  0  0  0  0
   16.2892  -21.9081    6.7854 O   0  0  0  0  0  0  0  0  0  0  0  0
   17.9850  -20.5165    7.6501 C   0  0  0  0  0  0  0  0  0  0  0  0
   17.2263  -19.2321    7.4532 C   0  0  2  0  0  0  0  0  0  0  0  0
   17.4926  -18.6729    6.1251 N   0  0  0  0  0  0  0  0  0  0  0  0
   17.5907  -18.2645    8.4907 C   0  0  0  0  0  0  0  0  0  0  0  0
   18.1542  -17.0267    8.2861 O   0  0  0  0  0  0  0  0  0  0  0  0
   17.3734  -18.5813    9.7101 O   0  0  0  0  0  0  0  0  0  0  0  0
  1  2  1  0
  2  4  1  0
  3  2  2  0
  4  5  1  0
  5  6  1  0
  6  7  1  1
  8  6  1  0
  9  8  2  0
 11 10  1  1
 12 11  1  0
 13 11  1  0
 14 15  1  0
 14 13  1  1
 15  8  1  0
 16 14  1  0
 17 16  2  0
 19 18  1  0
 19 21  1  0
 20 19  2  0
 22 21  1  1
 22 23  1  0
 23 16  1  0
 24 25  1  0
 24 22  1  0
 26 24  2  0
M  END
$$$$
