LDH.pdb
     RDKit          3D

 27 27  0  0  1  0  0  0  0  0999 V2000
   27.2087  -10.7622  -18.2401 C   0  0  0  0  0  0  0  0  0  0  0  0
   26.4273  -10.5513  -16.9850 C   0  0  1  0  0  0  0  0  0  0  0  0
   27.3334   -9.9870  -15.9149 C   0  0  0  0  0  0  0  0  0  0  0  0
   25.2320   -9.6677  -17.1625 C   0  0  0  0  0  0  0  0  0  0  0  0
   24.5116   -9.4032  -15.8677 C   0  0  2  0  0  0  0  0  0  0  0  0
   24.2662  -10.6793  -15.2240 N   0  0  0  0  0  0  0  0  0  0  0  0
   23.1938   -8.7777  -16.1233 C   0  0  0  0  0  0  0  0  0  0  0  0
   23.1265   -7.6621  -16.6852 O   0  0  0  0  0  0  0  0  0  0  0  0
   21.9540   -9.4075  -15.7467 N   0  0  0  0  0  0  0  0  0  0  0  0
   20.6760   -8.7940  -16.0042 C   0  0  1  0  0  0  0  0  0  0  0  0
   19.5055   -9.6869  -15.7327 C   0  0  0  0  0  0  0  0  0  0  0  0
   18.2375   -9.1678  -16.2695 C   0  0  0  0  0  0  0  0  0  0  0  0
   18.1958   -7.9773  -16.6674 O   0  0  0  0  0  0  0  0  0  0  0  0
   20.5326   -7.4887  -15.2837 C   0  0  0  0  0  0  0  0  0  0  0  0
   20.8533   -7.3749  -14.0733 O   0  0  0  0  0  0  0  0  0  0  0  0
   17.0758   -9.9132  -16.3658 O   0  0  0  0  0  0  0  0  0  0  0  0
   20.0298   -6.3189  -15.9276 N   0  0  0  0  0  0  0  0  0  0  0  0
   19.8653   -5.0588  -15.2230 C   0  0  1  0  0  0  0  0  0  0  0  0
   20.6898   -4.0303  -15.9549 C   0  0  0  0  0  0  0  0  0  0  0  0
   22.1291   -4.1798  -15.7508 C   0  0  0  0  0  0  0  0  0  0  0  0
   23.0668   -4.6105  -16.6571 C   0  0  0  0  0  0  0  0  0  0  0  0
   24.2518   -4.5866  -16.0307 N   0  0  0  0  0  0  0  0  0  0  0  0
   24.0821   -4.1601  -14.7798 C   0  0  0  0  0  0  0  0  0  0  0  0
   22.7736   -3.9097  -14.6084 N   0  0  0  0  0  0  0  0  0  0  0  0
   18.4269   -4.6688  -15.1571 C   0  0  0  0  0  0  0  0  0  0  0  0
   17.9822   -3.6904  -14.2804 O   0  0  0  0  0  0  0  0  0  0  0  0
   17.5620   -5.2123  -15.8939 O   0  0  0  0  0  0  0  0  0  0  0  0
  2  1  1  6
  2  3  1  0
  4  5  1  0
  4  2  1  0
  5  6  1  6
  7  5  1  0
  7  8  2  0
  9  7  1  0
 10  9  1  0
 10 11  1  1
 12 11  1  0
 13 12  2  0
 14 10  1  0
 15 14  2  0
 16 12  1  0
 17 14  1  0
 18 17  1  0
 18 25  1  0
 18 19  1  6
 20 19  1  0
 21 20  2  0
 22 21  1  0
 23 22  1  0
 23 24  2  0
 24 20  1  0
 25 26  1  0
 27 25  2  0
M  END
$$$$
