LDH.pdb
     RDKit          3D

 27 27  0  0  1  0  0  0  0  0999 V2000
   26.5125  -15.1327  -14.9057 C   0  0  0  0  0  0  0  0  0  0  0  0
   25.4327  -14.6013  -15.7899 C   0  0  1  0  0  0  0  0  0  0  0  0
   24.3230  -15.6216  -15.9009 C   0  0  0  0  0  0  0  0  0  0  0  0
   24.8770  -13.2873  -15.3368 C   0  0  0  0  0  0  0  0  0  0  0  0
   23.6932  -12.8471  -16.1556 C   0  0  2  0  0  0  0  0  0  0  0  0
   24.0143  -13.0573  -17.5542 N   0  0  0  0  0  0  0  0  0  0  0  0
   23.4435  -11.3988  -15.9735 C   0  0  0  0  0  0  0  0  0  0  0  0
   23.1805  -10.9448  -14.8380 O   0  0  0  0  0  0  0  0  0  0  0  0
   23.4899  -10.4636  -17.0683 N   0  0  0  0  0  0  0  0  0  0  0  0
   23.1722   -9.0688  -16.8960 C   0  0  1  0  0  0  0  0  0  0  0  0
   23.8188   -8.1677  -17.9015 C   0  0  0  0  0  0  0  0  0  0  0  0
   23.5361   -6.7413  -17.6751 C   0  0  0  0  0  0  0  0  0  0  0  0
   23.2712   -6.0164  -18.6658 O   0  0  0  0  0  0  0  0  0  0  0  0
   21.6929   -8.8396  -16.8442 C   0  0  0  0  0  0  0  0  0  0  0  0
   20.9384   -9.2488  -17.7630 O   0  0  0  0  0  0  0  0  0  0  0  0
   23.5431   -6.1401  -16.4289 O   0  0  0  0  0  0  0  0  0  0  0  0
   21.0701   -8.1520  -15.7601 N   0  0  0  0  0  0  0  0  0  0  0  0
   19.6529   -7.8310  -15.7604 C   0  0  1  0  0  0  0  0  0  0  0  0
   18.9221   -9.0489  -15.2544 C   0  0  0  0  0  0  0  0  0  0  0  0
   17.4703   -8.8874  -15.2163 C   0  0  0  0  0  0  0  0  0  0  0  0
   16.7401   -7.7671  -15.5296 C   0  0  0  0  0  0  0  0  0  0  0  0
   15.4495   -8.0818  -15.3491 N   0  0  0  0  0  0  0  0  0  0  0  0
   15.3560   -9.3460  -14.9389 C   0  0  0  0  0  0  0  0  0  0  0  0
   16.6018   -9.8415  -14.8574 N   0  0  0  0  0  0  0  0  0  0  0  0
   19.3779   -6.6315  -14.9173 C   0  0  0  0  0  0  0  0  0  0  0  0
   18.0903   -6.1433  -14.7521 O   0  0  0  0  0  0  0  0  0  0  0  0
   20.3031   -6.0167  -14.3237 O   0  0  0  0  0  0  0  0  0  0  0  0
  2  1  1  1
  2  3  1  0
  4  5  1  0
  4  2  1  0
  5  6  1  6
  7  5  1  0
  7  8  2  0
  9  7  1  0
 10  9  1  0
 10 11  1  6
 12 11  1  0
 13 12  2  0
 14 10  1  0
 15 14  2  0
 16 12  1  0
 17 14  1  0
 18 17  1  0
 18 25  1  0
 18 19  1  1
 20 19  1  0
 21 20  2  0
 22 21  1  0
 23 22  1  0
 23 24  2  0
 24 20  1  0
 25 26  1  0
 27 25  2  0
M  END
$$$$
