LDH.pdb
     RDKit          3D

 27 27  0  0  1  0  0  0  0  0999 V2000
   27.7168  -20.1898   -9.0316 C   0  0  0  0  0  0  0  0  0  0  0  0
   26.6180  -20.9395   -9.7104 C   0  0  1  0  0  0  0  0  0  0  0  0
   25.5237  -21.2443   -8.7132 C   0  0  0  0  0  0  0  0  0  0  0  0
   26.0466  -20.2261  -10.8958 C   0  0  0  0  0  0  0  0  0  0  0  0
   24.9871  -21.0310  -11.5994 C   0  0  2  0  0  0  0  0  0  0  0  0
   25.5728  -22.3004  -11.9853 N   0  0  0  0  0  0  0  0  0  0  0  0
   24.5540  -20.3498  -12.8409 C   0  0  0  0  0  0  0  0  0  0  0  0
   24.0513  -19.2056  -12.7868 O   0  0  0  0  0  0  0  0  0  0  0  0
   24.6868  -20.9561  -14.1410 N   0  0  0  0  0  0  0  0  0  0  0  0
   24.1698  -20.3314  -15.3321 C   0  0  1  0  0  0  0  0  0  0  0  0
   24.9609  -20.6274  -16.5680 C   0  0  0  0  0  0  0  0  0  0  0  0
   26.3888  -20.2947  -16.4416 C   0  0  0  0  0  0  0  0  0  0  0  0
   27.2339  -21.2151  -16.5680 O   0  0  0  0  0  0  0  0  0  0  0  0
   22.7193  -20.6439  -15.5367 C   0  0  0  0  0  0  0  0  0  0  0  0
   22.1184  -20.2890  -16.5826 O   0  0  0  0  0  0  0  0  0  0  0  0
   26.8665  -19.0208  -16.1899 O   0  0  0  0  0  0  0  0  0  0  0  0
   21.9525  -21.3533  -14.5648 N   0  0  0  0  0  0  0  0  0  0  0  0
   20.5350  -21.6191  -14.7422 C   0  0  1  0  0  0  0  0  0  0  0  0
   20.1181  -22.5579  -13.6385 C   0  0  0  0  0  0  0  0  0  0  0  0
   18.7231  -22.9841  -13.7273 C   0  0  0  0  0  0  0  0  0  0  0  0
   17.8825  -22.8910  -14.8094 C   0  0  0  0  0  0  0  0  0  0  0  0
   16.7038  -23.4053  -14.4309 N   0  0  0  0  0  0  0  0  0  0  0  0
   16.7845  -23.8098  -13.1638 C   0  0  0  0  0  0  0  0  0  0  0  0
   18.0293  -23.5498  -12.7313 N   0  0  0  0  0  0  0  0  0  0  0  0
   19.7478  -20.3522  -14.7169 C   0  0  0  0  0  0  0  0  0  0  0  0
   18.5694  -20.2183  -15.4360 O   0  0  0  0  0  0  0  0  0  0  0  0
   20.1225  -19.3567  -14.0423 O   0  0  0  0  0  0  0  0  0  0  0  0
  2  1  1  1
  2  3  1  0
  4  5  1  0
  4  2  1  0
  5  6  1  6
  7  5  1  0
  7  8  2  0
  9  7  1  0
 10  9  1  0
 10 11  1  6
 12 11  1  0
 13 12  2  0
 14 10  1  0
 15 14  2  0
 16 12  1  0
 17 14  1  0
 18 17  1  0
 18 25  1  0
 18 19  1  1
 20 19  1  0
 21 20  2  0
 22 21  1  0
 23 22  1  0
 23 24  2  0
 24 20  1  0
 25 26  1  0
 27 25  2  0
M  END
$$$$
