LDH.pdb
     RDKit          3D

 27 27  0  0  1  0  0  0  0  0999 V2000
   28.0763  -18.7131  -17.7602 C   0  0  0  0  0  0  0  0  0  0  0  0
   27.2798  -18.3494  -16.5504 C   0  0  1  0  0  0  0  0  0  0  0  0
   27.5452  -16.9067  -16.1860 C   0  0  0  0  0  0  0  0  0  0  0  0
   25.8086  -18.5755  -16.7091 C   0  0  0  0  0  0  0  0  0  0  0  0
   25.0279  -18.1816  -15.4839 C   0  0  2  0  0  0  0  0  0  0  0  0
   25.5349  -18.9514  -14.3643 N   0  0  0  0  0  0  0  0  0  0  0  0
   23.5969  -18.5274  -15.6447 C   0  0  0  0  0  0  0  0  0  0  0  0
   22.9732  -18.1612  -16.6654 O   0  0  0  0  0  0  0  0  0  0  0  0
   22.8697  -19.2841  -14.6578 N   0  0  0  0  0  0  0  0  0  0  0  0
   21.4814  -19.6294  -14.8298 C   0  0  1  0  0  0  0  0  0  0  0  0
   20.9878  -20.6664  -13.8696 C   0  0  0  0  0  0  0  0  0  0  0  0
   21.5092  -22.0144  -14.1463 C   0  0  0  0  0  0  0  0  0  0  0  0
   21.3533  -22.9090  -13.2787 O   0  0  0  0  0  0  0  0  0  0  0  0
   20.6021  -18.4170  -14.8078 C   0  0  0  0  0  0  0  0  0  0  0  0
   20.6015  -17.6312  -13.8263 O   0  0  0  0  0  0  0  0  0  0  0  0
   22.1669  -22.3647  -15.3121 O   0  0  0  0  0  0  0  0  0  0  0  0
   19.7286  -18.0947  -15.8891 N   0  0  0  0  0  0  0  0  0  0  0  0
   18.9363  -16.8768  -15.9062 C   0  0  1  0  0  0  0  0  0  0  0  0
   19.1568  -16.2229  -17.2468 C   0  0  0  0  0  0  0  0  0  0  0  0
   20.4530  -15.5591  -17.3689 C   0  0  0  0  0  0  0  0  0  0  0  0
   20.9236  -14.4928  -16.6424 C   0  0  0  0  0  0  0  0  0  0  0  0
   22.1556  -14.2258  -17.0984 N   0  0  0  0  0  0  0  0  0  0  0  0
   22.4614  -15.0815  -18.0729 C   0  0  0  0  0  0  0  0  0  0  0  0
   21.4115  -15.9027  -18.2387 N   0  0  0  0  0  0  0  0  0  0  0  0
   17.4944  -17.1755  -15.6675 C   0  0  0  0  0  0  0  0  0  0  0  0
   16.7058  -16.3510  -14.8790 O   0  0  0  0  0  0  0  0  0  0  0  0
   16.9383  -18.1866  -16.1723 O   0  0  0  0  0  0  0  0  0  0  0  0
  2  1  1  6
  2  3  1  0
  4  5  1  0
  4  2  1  0
  5  6  1  1
  7  5  1  0
  7  8  2  0
  9  7  1  0
 10  9  1  0
 10 11  1  1
 12 11  1  0
 13 12  2  0
 14 10  1  0
 15 14  2  0
 16 12  1  0
 17 14  1  0
 18 17  1  0
 18 25  1  0
 18 19  1  6
 20 19  1  0
 21 20  2  0
 22 21  1  0
 23 22  1  0
 23 24  2  0
 24 20  1  0
 25 26  1  0
 27 25  2  0
M  END
$$$$
