LDH.pdb
     RDKit          3D

 27 27  0  0  1  0  0  0  0  0999 V2000
   32.1526  -21.3262    3.2237 C   0  0  0  0  0  0  0  0  0  0  0  0
   33.3804  -21.9449    3.8069 C   0  0  1  0  0  0  0  0  0  0  0  0
   34.5276  -20.9642    3.7250 C   0  0  0  0  0  0  0  0  0  0  0  0
   33.2056  -22.4123    5.2181 C   0  0  0  0  0  0  0  0  0  0  0  0
   34.4789  -22.9561    5.8087 C   0  0  2  0  0  0  0  0  0  0  0  0
   34.7341  -24.2502    5.2058 N   0  0  0  0  0  0  0  0  0  0  0  0
   34.3269  -23.1709    7.2660 C   0  0  0  0  0  0  0  0  0  0  0  0
   33.2217  -23.5186    7.7377 O   0  0  0  0  0  0  0  0  0  0  0  0
   35.4176  -22.9946    8.1905 N   0  0  0  0  0  0  0  0  0  0  0  0
   35.2392  -23.1153    9.6152 C   0  0  1  0  0  0  0  0  0  0  0  0
   36.5193  -23.1247   10.3911 C   0  0  0  0  0  0  0  0  0  0  0  0
   37.3971  -24.2576   10.0568 C   0  0  0  0  0  0  0  0  0  0  0  0
   36.9564  -25.4240   10.2068 O   0  0  0  0  0  0  0  0  0  0  0  0
   34.2987  -22.0773   10.1457 C   0  0  0  0  0  0  0  0  0  0  0  0
   34.5440  -20.8507   10.0180 O   0  0  0  0  0  0  0  0  0  0  0  0
   38.6898  -24.1205    9.5831 O   0  0  0  0  0  0  0  0  0  0  0  0
   33.0880  -22.4237   10.8166 N   0  0  0  0  0  0  0  0  0  0  0  0
   32.1807  -21.4180   11.3427 C   0  0  1  0  0  0  0  0  0  0  0  0
   31.2282  -21.0550   10.2316 C   0  0  0  0  0  0  0  0  0  0  0  0
   30.2094  -20.0848   10.6266 C   0  0  0  0  0  0  0  0  0  0  0  0
   30.0808  -19.4451   11.8352 C   0  0  0  0  0  0  0  0  0  0  0  0
   29.0059  -18.6496   11.7410 N   0  0  0  0  0  0  0  0  0  0  0  0
   28.4694  -18.7733   10.5276 C   0  0  0  0  0  0  0  0  0  0  0  0
   29.2118  -19.6579    9.8418 N   0  0  0  0  0  0  0  0  0  0  0  0
   31.4590  -21.9276   12.5447 C   0  0  0  0  0  0  0  0  0  0  0  0
   31.0152  -23.2395   12.6197 O   0  0  0  0  0  0  0  0  0  0  0  0
   31.2253  -21.1873   13.5365 O   0  0  0  0  0  0  0  0  0  0  0  0
  2  1  1  1
  2  3  1  0
  4  5  1  0
  4  2  1  0
  5  6  1  6
  7  5  1  0
  7  8  2  0
  9  7  1  0
 10  9  1  0
 10 11  1  1
 12 11  1  0
 13 12  2  0
 14 10  1  0
 15 14  2  0
 16 12  1  0
 17 14  1  0
 18 17  1  0
 18 25  1  0
 18 19  1  6
 20 19  1  0
 21 20  2  0
 22 21  1  0
 23 22  1  0
 23 24  2  0
 24 20  1  0
 25 26  1  0
 27 25  2  0
M  END
$$$$
