TCC.pdb
     RDKit          3D

 20 19  0  0  1  0  0  0  0  0999 V2000
   23.5307  -11.4668  -18.7006 C   0  0  0  0  0  0  0  0  0  0  0  0
   22.5225  -10.4738  -18.1153 C   0  0  1  0  0  0  0  0  0  0  0  0
   21.2970  -10.7874  -18.6953 O   0  0  0  0  0  0  0  0  0  0  0  0
   22.4797  -10.6144  -16.5964 C   0  0  2  0  0  0  0  0  0  0  0  0
   22.1209  -11.9346  -16.1876 N   0  0  0  0  0  0  0  0  0  0  0  0
   21.4913   -9.5915  -16.1188 C   0  0  0  0  0  0  0  0  0  0  0  0
   20.3756   -9.9278  -15.6492 O   0  0  0  0  0  0  0  0  0  0  0  0
   21.7603   -8.1945  -16.1707 N   0  0  0  0  0  0  0  0  0  0  0  0
   20.8264   -7.1955  -15.7219 C   0  0  1  0  0  0  0  0  0  0  0  0
   20.4104   -7.4031  -14.2801 C   0  0  0  0  0  0  0  0  0  0  0  0
   21.9261   -7.5471  -13.2939 S   0  0  0  0  0  0  0  0  0  0  0  0
   21.3216   -5.8139  -15.9628 C   0  0  0  0  0  0  0  0  0  0  0  0
   22.4908   -5.4858  -15.6361 O   0  0  0  0  0  0  0  0  0  0  0  0
   20.5217   -4.8006  -16.5642 N   0  0  0  0  0  0  0  0  0  0  0  0
   21.0007   -3.4893  -16.8863 C   0  0  1  0  0  0  0  0  0  0  0  0
   20.5079   -3.0681  -18.2669 C   0  0  0  0  0  0  0  0  0  0  0  0
   20.8775   -4.3058  -19.5123 S   0  0  0  0  0  0  0  0  0  0  0  0
   20.7019   -2.4838  -15.8659 C   0  0  0  0  0  0  0  0  0  0  0  0
   21.4841   -1.3276  -15.6887 O   0  0  0  0  0  0  0  0  0  0  0  0
   19.7245   -2.6107  -15.0963 O   0  0  0  0  0  0  0  0  0  0  0  0
  2  4  1  0
  2  3  1  0
  2  1  1  6
  4  5  1  6
  6  8  1  0
  6  4  1  0
  7  6  2  0
  9 12  1  0
  9 10  1  1
  9  8  1  0
 11 10  1  0
 12 14  1  0
 13 12  2  0
 14 15  1  0
 15 16  1  6
 16 17  1  0
 18 19  1  0
 18 15  1  0
 20 18  2  0
M  END
$$$$
