TCC.pdb
     RDKit          3D

 20 19  0  0  1  0  0  0  0  0999 V2000
   16.3073  -10.8890  -18.2351 C   0  0  0  0  0  0  0  0  0  0  0  0
   17.3256  -10.1875  -17.3318 C   0  0  1  0  0  0  0  0  0  0  0  0
   16.5980   -9.2766  -16.5717 O   0  0  0  0  0  0  0  0  0  0  0  0
   18.0336  -11.2156  -16.4539 C   0  0  2  0  0  0  0  0  0  0  0  0
   17.1278  -11.8986  -15.5869 N   0  0  0  0  0  0  0  0  0  0  0  0
   19.0744  -10.4525  -15.6888 C   0  0  0  0  0  0  0  0  0  0  0  0
   18.9024  -10.1367  -14.4850 O   0  0  0  0  0  0  0  0  0  0  0  0
   20.3048  -10.0469  -16.2791 N   0  0  0  0  0  0  0  0  0  0  0  0
   21.3156   -9.3112  -15.5661 C   0  0  1  0  0  0  0  0  0  0  0  0
   22.7170   -9.7482  -15.9404 C   0  0  0  0  0  0  0  0  0  0  0  0
   23.0418  -11.3161  -15.0878 S   0  0  0  0  0  0  0  0  0  0  0  0
   21.1394   -7.8403  -15.6986 C   0  0  0  0  0  0  0  0  0  0  0  0
   20.7339   -7.3377  -16.7778 O   0  0  0  0  0  0  0  0  0  0  0  0
   21.4124   -6.9310  -14.6370 N   0  0  0  0  0  0  0  0  0  0  0  0
   21.1717   -5.5205  -14.7102 C   0  0  1  0  0  0  0  0  0  0  0  0
   19.7282   -5.2076  -14.3300 C   0  0  0  0  0  0  0  0  0  0  0  0
   19.4396   -3.4410  -14.2072 S   0  0  0  0  0  0  0  0  0  0  0  0
   22.1275   -4.7176  -13.9463 C   0  0  0  0  0  0  0  0  0  0  0  0
   22.5542   -3.4441  -14.3662 O   0  0  0  0  0  0  0  0  0  0  0  0
   22.6132   -5.1347  -12.8722 O   0  0  0  0  0  0  0  0  0  0  0  0
  2  4  1  0
  2  3  1  0
  2  1  1  6
  4  5  1  1
  6  8  1  0
  6  4  1  0
  7  6  2  0
  9 12  1  0
  9 10  1  6
  9  8  1  0
 11 10  1  0
 12 14  1  0
 13 12  2  0
 14 15  1  0
 15 16  1  1
 16 17  1  0
 18 19  1  0
 18 15  1  0
 20 18  2  0
M  END
$$$$
