TCC.pdb
     RDKit          3D

 20 19  0  0  1  0  0  0  0  0999 V2000
   21.3629   -9.5974  -20.1861 C   0  0  0  0  0  0  0  0  0  0  0  0
   20.7398  -10.9001  -19.6766 C   0  0  1  0  0  0  0  0  0  0  0  0
   20.1396  -11.4945  -20.7826 O   0  0  0  0  0  0  0  0  0  0  0  0
   21.8229  -11.7918  -19.0760 C   0  0  2  0  0  0  0  0  0  0  0  0
   21.3265  -13.0860  -18.7337 N   0  0  0  0  0  0  0  0  0  0  0  0
   22.3407  -11.0545  -17.8762 C   0  0  0  0  0  0  0  0  0  0  0  0
   21.6522  -10.9371  -16.8319 O   0  0  0  0  0  0  0  0  0  0  0  0
   23.6303  -10.4519  -17.8542 N   0  0  0  0  0  0  0  0  0  0  0  0
   24.1208   -9.6816  -16.7417 C   0  0  1  0  0  0  0  0  0  0  0  0
   25.6343   -9.6644  -16.6765 C   0  0  0  0  0  0  0  0  0  0  0  0
   26.1020   -8.7520  -15.1800 S   0  0  0  0  0  0  0  0  0  0  0  0
   23.5487   -8.3091  -16.7121 C   0  0  0  0  0  0  0  0  0  0  0  0
   23.6652   -7.5444  -17.7037 O   0  0  0  0  0  0  0  0  0  0  0  0
   22.8501   -7.7877  -15.5859 N   0  0  0  0  0  0  0  0  0  0  0  0
   22.2371   -6.4930  -15.5540 C   0  0  1  0  0  0  0  0  0  0  0  0
   20.8128   -6.5929  -15.0176 C   0  0  0  0  0  0  0  0  0  0  0  0
   19.8547   -7.8286  -15.8977 S   0  0  0  0  0  0  0  0  0  0  0  0
   23.0229   -5.4845  -14.8420 C   0  0  0  0  0  0  0  0  0  0  0  0
   22.5958   -4.1512  -14.7007 O   0  0  0  0  0  0  0  0  0  0  0  0
   24.1238   -5.7682  -14.3212 O   0  0  0  0  0  0  0  0  0  0  0  0
  2  4  1  0
  2  3  1  0
  2  1  1  6
  4  5  1  1
  6  8  1  0
  6  4  1  0
  7  6  2  0
  9 12  1  0
  9 10  1  6
  9  8  1  0
 11 10  1  0
 12 14  1  0
 13 12  2  0
 14 15  1  0
 15 16  1  1
 16 17  1  0
 18 19  1  0
 18 15  1  0
 20 18  2  0
M  END
$$$$
