TCC.pdb
     RDKit          3D

 20 19  0  0  1  0  0  0  0  0999 V2000
   16.2964  -10.5586  -17.8254 C   0  0  0  0  0  0  0  0  0  0  0  0
   15.6710  -11.2197  -16.5939 C   0  0  1  0  0  0  0  0  0  0  0  0
   14.8853  -12.2617  -17.0774 O   0  0  0  0  0  0  0  0  0  0  0  0
   16.7700  -11.7269  -15.6644 C   0  0  2  0  0  0  0  0  0  0  0  0
   16.2496  -12.5213  -14.5982 N   0  0  0  0  0  0  0  0  0  0  0  0
   17.4753  -10.5029  -15.1590 C   0  0  0  0  0  0  0  0  0  0  0  0
   16.9721   -9.7796  -14.2635 O   0  0  0  0  0  0  0  0  0  0  0  0
   18.7436  -10.0961  -15.6618 N   0  0  0  0  0  0  0  0  0  0  0  0
   19.4335   -8.9204  -15.2000 C   0  0  1  0  0  0  0  0  0  0  0  0
   20.9244   -9.1476  -15.0556 C   0  0  0  0  0  0  0  0  0  0  0  0
   21.6492   -7.6075  -14.4285 S   0  0  0  0  0  0  0  0  0  0  0  0
   19.1327   -7.7271  -16.0351 C   0  0  0  0  0  0  0  0  0  0  0  0
   19.3143   -7.7529  -17.2793 O   0  0  0  0  0  0  0  0  0  0  0  0
   18.6320   -6.5099  -15.4910 N   0  0  0  0  0  0  0  0  0  0  0  0
   18.3762   -5.3325  -16.2663 C   0  0  1  0  0  0  0  0  0  0  0  0
   16.8946   -4.9742  -16.2147 C   0  0  0  0  0  0  0  0  0  0  0  0
   15.8526   -6.4041  -16.5137 S   0  0  0  0  0  0  0  0  0  0  0  0
   19.2289   -4.1964  -15.9145 C   0  0  0  0  0  0  0  0  0  0  0  0
   19.1286   -2.9467  -16.5534 O   0  0  0  0  0  0  0  0  0  0  0  0
   20.0958   -4.2887  -15.0181 O   0  0  0  0  0  0  0  0  0  0  0  0
  2  4  1  0
  2  3  1  0
  2  1  1  6
  4  5  1  1
  6  8  1  0
  6  4  1  0
  7  6  2  0
  9 12  1  0
  9 10  1  6
  9  8  1  0
 11 10  1  0
 12 14  1  0
 13 12  2  0
 14 15  1  0
 15 16  1  1
 16 17  1  0
 18 19  1  0
 18 15  1  0
 20 18  2  0
M  END
$$$$
