TCC.pdb
     RDKit          3D

 20 19  0  0  1  0  0  0  0  0999 V2000
   24.7151  -10.1647  -18.6265 C   0  0  0  0  0  0  0  0  0  0  0  0
   23.8635  -11.4177  -18.8494 C   0  0  1  0  0  0  0  0  0  0  0  0
   24.7443  -12.4071  -19.2759 O   0  0  0  0  0  0  0  0  0  0  0  0
   23.1652  -11.8070  -17.5495 C   0  0  2  0  0  0  0  0  0  0  0  0
   22.5357  -13.0855  -17.6382 N   0  0  0  0  0  0  0  0  0  0  0  0
   22.1762  -10.7130  -17.2731 C   0  0  0  0  0  0  0  0  0  0  0  0
   21.2659  -10.4307  -18.0916 O   0  0  0  0  0  0  0  0  0  0  0  0
   22.2138   -9.9404  -16.0780 N   0  0  0  0  0  0  0  0  0  0  0  0
   21.3005   -8.8609  -15.8090 C   0  0  1  0  0  0  0  0  0  0  0  0
   21.0885   -8.6429  -14.3249 C   0  0  0  0  0  0  0  0  0  0  0  0
   20.2543  -10.1165  -13.6743 S   0  0  0  0  0  0  0  0  0  0  0  0
   21.6932   -7.6057  -16.5035 C   0  0  0  0  0  0  0  0  0  0  0  0
   22.8708   -7.1712  -16.4256 O   0  0  0  0  0  0  0  0  0  0  0  0
   20.7819   -6.8359  -17.2814 N   0  0  0  0  0  0  0  0  0  0  0  0
   21.1561   -5.6795  -18.0400 C   0  0  1  0  0  0  0  0  0  0  0  0
   20.5824   -5.7613  -19.4508 C   0  0  0  0  0  0  0  0  0  0  0  0
   21.0390   -7.2922  -20.2678 S   0  0  0  0  0  0  0  0  0  0  0  0
   20.8280   -4.4121  -17.3860 C   0  0  0  0  0  0  0  0  0  0  0  0
   21.2613   -3.1686  -17.8819 O   0  0  0  0  0  0  0  0  0  0  0  0
   20.1385   -4.3793  -16.3433 O   0  0  0  0  0  0  0  0  0  0  0  0
  2  4  1  0
  2  3  1  0
  2  1  1  1
  4  5  1  6
  6  8  1  0
  6  4  1  0
  7  6  2  0
  9 12  1  0
  9 10  1  1
  9  8  1  0
 11 10  1  0
 12 14  1  0
 13 12  2  0
 14 15  1  0
 15 16  1  6
 16 17  1  0
 18 19  1  0
 18 15  1  0
 20 18  2  0
M  END
$$$$
