TCC.pdb
     RDKit          3D

 20 19  0  0  1  0  0  0  0  0999 V2000
   17.9843  -11.2326  -19.7335 C   0  0  0  0  0  0  0  0  0  0  0  0
   18.6077  -10.4652  -18.5641 C   0  0  1  0  0  0  0  0  0  0  0  0
   17.5733   -9.7264  -17.9975 O   0  0  0  0  0  0  0  0  0  0  0  0
   19.2124  -11.4468  -17.5644 C   0  0  2  0  0  0  0  0  0  0  0  0
   18.2320  -12.3257  -17.0120 N   0  0  0  0  0  0  0  0  0  0  0  0
   19.8681  -10.6046  -16.5098 C   0  0  0  0  0  0  0  0  0  0  0  0
   19.2045  -10.0926  -15.5740 O   0  0  0  0  0  0  0  0  0  0  0  0
   21.2671  -10.3409  -16.5108 N   0  0  0  0  0  0  0  0  0  0  0  0
   21.9185   -9.5414  -15.5068 C   0  0  1  0  0  0  0  0  0  0  0  0
   23.3913   -9.8706  -15.3753 C   0  0  0  0  0  0  0  0  0  0  0  0
   23.5187  -11.4262  -14.4508 S   0  0  0  0  0  0  0  0  0  0  0  0
   21.6917   -8.0860  -15.7122 C   0  0  0  0  0  0  0  0  0  0  0  0
   21.8048   -7.5745  -16.8555 O   0  0  0  0  0  0  0  0  0  0  0  0
   21.3406   -7.2019  -14.6523 N   0  0  0  0  0  0  0  0  0  0  0  0
   21.1420   -5.7927  -14.8186 C   0  0  1  0  0  0  0  0  0  0  0  0
   19.6869   -5.4256  -14.5461 C   0  0  0  0  0  0  0  0  0  0  0  0
   19.4286   -3.6506  -14.5879 S   0  0  0  0  0  0  0  0  0  0  0  0
   22.0709   -4.9694  -14.0433 C   0  0  0  0  0  0  0  0  0  0  0  0
   22.6685   -3.8063  -14.5631 O   0  0  0  0  0  0  0  0  0  0  0  0
   22.3780   -5.2684  -12.8686 O   0  0  0  0  0  0  0  0  0  0  0  0
  2  4  1  0
  2  3  1  0
  2  1  1  6
  4  5  1  1
  6  8  1  0
  6  4  1  0
  7  6  2  0
  9 12  1  0
  9 10  1  6
  9  8  1  0
 11 10  1  0
 12 14  1  0
 13 12  2  0
 14 15  1  0
 15 16  1  1
 16 17  1  0
 18 19  1  0
 18 15  1  0
 20 18  2  0
M  END
$$$$
