TCC.pdb
     RDKit          3D

 20 19  0  0  1  0  0  0  0  0999 V2000
   13.3593   -9.4213  -14.9565 C   0  0  0  0  0  0  0  0  0  0  0  0
   14.8498   -9.0767  -15.0251 C   0  0  1  0  0  0  0  0  0  0  0  0
   15.1591   -8.4754  -13.8088 O   0  0  0  0  0  0  0  0  0  0  0  0
   15.6651  -10.3471  -15.2493 C   0  0  2  0  0  0  0  0  0  0  0  0
   15.5305  -11.2711  -14.1691 N   0  0  0  0  0  0  0  0  0  0  0  0
   17.0848   -9.8958  -15.4274 C   0  0  0  0  0  0  0  0  0  0  0  0
   17.9830  -10.2211  -14.6115 O   0  0  0  0  0  0  0  0  0  0  0  0
   17.4901   -9.0804  -16.5219 N   0  0  0  0  0  0  0  0  0  0  0  0
   18.8355   -8.5968  -16.6878 C   0  0  1  0  0  0  0  0  0  0  0  0
   19.1681   -8.3070  -18.1371 C   0  0  0  0  0  0  0  0  0  0  0  0
   19.3668   -9.9024  -18.9772 S   0  0  0  0  0  0  0  0  0  0  0  0
   19.1275   -7.4334  -15.8084 C   0  0  0  0  0  0  0  0  0  0  0  0
   18.2556   -6.5510  -15.6018 O   0  0  0  0  0  0  0  0  0  0  0  0
   20.3827   -7.2506  -15.1609 N   0  0  0  0  0  0  0  0  0  0  0  0
   20.7197   -6.0974  -14.3802 C   0  0  1  0  0  0  0  0  0  0  0  0
   21.9864   -6.3556  -13.5709 C   0  0  0  0  0  0  0  0  0  0  0  0
   22.3403   -5.0085  -12.4398 S   0  0  0  0  0  0  0  0  0  0  0  0
   20.8076   -4.8616  -15.1592 C   0  0  0  0  0  0  0  0  0  0  0  0
   21.5376   -4.7718  -16.3588 O   0  0  0  0  0  0  0  0  0  0  0  0
   20.2295   -3.8172  -14.7868 O   0  0  0  0  0  0  0  0  0  0  0  0
  2  4  1  0
  2  3  1  0
  2  1  1  1
  4  5  1  1
  6  8  1  0
  6  4  1  0
  7  6  2  0
  9 12  1  0
  9 10  1  6
  9  8  1  0
 11 10  1  0
 12 14  1  0
 13 12  2  0
 14 15  1  0
 15 16  1  6
 16 17  1  0
 18 19  1  0
 18 15  1  0
 20 18  2  0
M  END
$$$$
