TCC.pdb
     RDKit          3D

 20 19  0  0  1  0  0  0  0  0999 V2000
   16.7660  -10.7176  -17.8871 C   0  0  0  0  0  0  0  0  0  0  0  0
   17.5470   -9.8621  -16.8855 C   0  0  1  0  0  0  0  0  0  0  0  0
   16.5971   -9.0998  -16.2122 O   0  0  0  0  0  0  0  0  0  0  0  0
   18.3257  -10.7634  -15.9315 C   0  0  2  0  0  0  0  0  0  0  0  0
   17.4649  -11.4930  -15.0566 N   0  0  0  0  0  0  0  0  0  0  0  0
   19.2532   -9.8564  -15.1776 C   0  0  0  0  0  0  0  0  0  0  0  0
   19.0140   -9.5125  -13.9932 O   0  0  0  0  0  0  0  0  0  0  0  0
   20.4460   -9.3392  -15.7576 N   0  0  0  0  0  0  0  0  0  0  0  0
   21.3702   -8.4998  -15.0413 C   0  0  1  0  0  0  0  0  0  0  0  0
   22.8077   -8.9427  -15.2208 C   0  0  0  0  0  0  0  0  0  0  0  0
   23.0739  -10.3724  -14.1364 S   0  0  0  0  0  0  0  0  0  0  0  0
   21.1890   -7.0596  -15.3651 C   0  0  0  0  0  0  0  0  0  0  0  0
   21.1755   -6.6677  -16.5600 O   0  0  0  0  0  0  0  0  0  0  0  0
   21.0234   -6.0582  -14.3660 N   0  0  0  0  0  0  0  0  0  0  0  0
   20.8207   -4.6689  -14.6516 C   0  0  1  0  0  0  0  0  0  0  0  0
   19.6823   -4.1128  -13.8025 C   0  0  0  0  0  0  0  0  0  0  0  0
   18.2191   -5.1474  -13.8902 S   0  0  0  0  0  0  0  0  0  0  0  0
   22.0350   -3.8596  -14.5409 C   0  0  0  0  0  0  0  0  0  0  0  0
   23.2482   -4.3760  -14.0496 O   0  0  0  0  0  0  0  0  0  0  0  0
   22.0467   -2.6569  -14.8831 O   0  0  0  0  0  0  0  0  0  0  0  0
  2  4  1  0
  2  3  1  0
  2  1  1  6
  4  5  1  1
  6  8  1  0
  6  4  1  0
  7  6  2  0
  9 12  1  0
  9 10  1  6
  9  8  1  0
 11 10  1  0
 12 14  1  0
 13 12  2  0
 14 15  1  0
 15 16  1  1
 16 17  1  0
 18 19  1  0
 18 15  1  0
 20 18  2  0
M  END
$$$$
