TCC.pdb
     RDKit          3D

 20 19  0  0  1  0  0  0  0  0999 V2000
   18.1449   -9.9810  -17.6985 C   0  0  0  0  0  0  0  0  0  0  0  0
   18.0635  -11.2256  -16.8101 C   0  0  1  0  0  0  0  0  0  0  0  0
   17.1655  -12.0842  -17.4373 O   0  0  0  0  0  0  0  0  0  0  0  0
   19.4463  -11.8568  -16.6752 C   0  0  2  0  0  0  0  0  0  0  0  0
   19.4011  -13.1135  -15.9990 N   0  0  0  0  0  0  0  0  0  0  0  0
   20.2836  -10.8533  -15.9383 C   0  0  0  0  0  0  0  0  0  0  0  0
   20.1072  -10.6243  -14.7157 O   0  0  0  0  0  0  0  0  0  0  0  0
   21.3163  -10.1108  -16.5780 N   0  0  0  0  0  0  0  0  0  0  0  0
   22.0465   -9.0552  -15.9267 C   0  0  1  0  0  0  0  0  0  0  0  0
   23.5148   -9.0563  -16.2995 C   0  0  0  0  0  0  0  0  0  0  0  0
   24.2997   -7.6808  -15.4149 S   0  0  0  0  0  0  0  0  0  0  0  0
   21.4208   -7.7231  -16.1411 C   0  0  0  0  0  0  0  0  0  0  0  0
   21.2955   -7.2527  -17.3007 O   0  0  0  0  0  0  0  0  0  0  0  0
   20.9359   -6.9165  -15.0722 N   0  0  0  0  0  0  0  0  0  0  0  0
   20.2828   -5.6544  -15.2550 C   0  0  1  0  0  0  0  0  0  0  0  0
   19.1440   -5.4957  -14.2529 C   0  0  0  0  0  0  0  0  0  0  0  0
   17.8283   -6.6798  -14.5466 S   0  0  0  0  0  0  0  0  0  0  0  0
   21.1939   -4.5094  -15.2373 C   0  0  0  0  0  0  0  0  0  0  0  0
   20.7621   -3.1929  -15.4826 O   0  0  0  0  0  0  0  0  0  0  0  0
   22.4131   -4.6538  -14.9999 O   0  0  0  0  0  0  0  0  0  0  0  0
  2  4  1  0
  2  3  1  0
  2  1  1  6
  4  5  1  1
  6  8  1  0
  6  4  1  0
  7  6  2  0
  9 12  1  0
  9 10  1  6
  9  8  1  0
 11 10  1  0
 12 14  1  0
 13 12  2  0
 14 15  1  0
 15 16  1  1
 16 17  1  0
 18 19  1  0
 18 15  1  0
 20 18  2  0
M  END
$$$$
