EMQ.pdb
     RDKit          3D

 27 26  0  0  1  0  0  0  0  0999 V2000
    8.2142  -18.2497   22.0970 N   0  0  0  0  0  0  0  0  0  0  0  0
    9.4795  -17.6238   21.8946 C   0  0  1  0  0  0  0  0  0  0  0  0
    9.8386  -17.3124   20.4894 C   0  0  0  0  0  0  0  0  0  0  0  0
    8.7191  -16.8305   19.6277 C   0  0  0  0  0  0  0  0  0  0  0  0
    8.9928  -16.6997   18.1959 C   0  0  0  0  0  0  0  0  0  0  0  0
    9.5539  -17.5823   17.5086 O   0  0  0  0  0  0  0  0  0  0  0  0
    9.5533  -16.3889   22.7464 C   0  0  0  0  0  0  0  0  0  0  0  0
   10.5975  -15.7179   22.7899 O   0  0  0  0  0  0  0  0  0  0  0  0
    8.6214  -15.5233   17.4934 O   0  0  0  0  0  0  0  0  0  0  0  0
    6.2030  -10.7359   27.0687 C   0  0  0  0  0  0  0  0  0  0  0  0
    6.0528  -12.0178   25.8072 S   0  0  0  0  0  0  0  0  0  0  0  0
    7.5659  -13.0441   25.7491 C   0  0  0  0  0  0  0  0  0  0  0  0
    7.4372  -14.0546   24.6417 C   0  0  0  0  0  0  0  0  0  0  0  0
    8.5508  -15.0368   24.5708 C   0  0  2  0  0  0  0  0  0  0  0  0
    8.4303  -15.9883   23.5017 N   0  0  0  0  0  0  0  0  0  0  0  0
    8.8590  -15.6911   25.8753 C   0  0  0  0  0  0  0  0  0  0  0  0
    9.1287  -15.0109   26.9231 O   0  0  0  0  0  0  0  0  0  0  0  0
    7.0328  -21.4203   26.9298 N   0  0  0  0  0  0  0  0  0  0  0  0
    7.7755  -21.2960   28.1247 C   0  0  0  0  0  0  0  0  0  0  0  0
    7.7978  -22.2224   28.9625 O   0  0  0  0  0  0  0  0  0  0  0  0
    8.5426  -20.0214   28.3703 C   0  0  0  0  0  0  0  0  0  0  0  0
    8.3331  -19.0662   27.2398 C   0  0  0  0  0  0  0  0  0  0  0  0
    9.0670  -17.7747   27.3223 C   0  0  2  0  0  0  0  0  0  0  0  0
    8.8720  -17.0933   26.0340 N   0  0  0  0  0  0  0  0  0  0  0  0
   10.4783  -17.9615   27.6251 C   0  0  0  0  0  0  0  0  0  0  0  0
   10.8576  -18.1799   28.7948 O   0  0  0  0  0  0  0  0  0  0  0  0
   11.4216  -17.8952   26.5909 O   0  0  0  0  0  0  0  0  0  0  0  0
  2  1  1  6
  2  3  1  0
  4  3  1  0
  5  4  1  0
  5  6  2  0
  7  2  1  0
  8  7  2  0
  9  5  1  0
 11 10  1  0
 11 12  1  0
 12 13  1  0
 14 13  1  1
 14 15  1  0
 15  7  1  0
 16 24  1  0
 16 14  1  0
 17 16  2  0
 19 18  1  0
 19 21  1  0
 20 19  2  0
 22 21  1  0
 23 22  1  6
 23 24  1  0
 25 27  1  0
 25 23  1  0
 26 25  2  0
M  END
$$$$
