EMQ.pdb
     RDKit          3D

 27 26  0  0  1  0  0  0  0  0999 V2000
    8.9335  -17.1684   20.7816 N   0  0  0  0  0  0  0  0  0  0  0  0
   10.1999  -17.1775   21.4374 C   0  0  1  0  0  0  0  0  0  0  0  0
   11.3845  -16.9392   20.5769 C   0  0  0  0  0  0  0  0  0  0  0  0
   11.2143  -17.2804   19.1338 C   0  0  0  0  0  0  0  0  0  0  0  0
   12.3455  -17.9267   18.4670 C   0  0  0  0  0  0  0  0  0  0  0  0
   13.3926  -17.3292   18.1310 O   0  0  0  0  0  0  0  0  0  0  0  0
   10.1657  -16.1974   22.5751 C   0  0  0  0  0  0  0  0  0  0  0  0
   11.1817  -15.9956   23.2603 O   0  0  0  0  0  0  0  0  0  0  0  0
   12.3076  -19.3118   18.1585 O   0  0  0  0  0  0  0  0  0  0  0  0
    5.9830  -11.8359   27.3493 C   0  0  0  0  0  0  0  0  0  0  0  0
    6.1509  -12.8961   25.8984 S   0  0  0  0  0  0  0  0  0  0  0  0
    7.7971  -12.6804   25.1307 C   0  0  0  0  0  0  0  0  0  0  0  0
    7.8957  -13.5603   23.9141 C   0  0  0  0  0  0  0  0  0  0  0  0
    8.8519  -14.6908   24.0467 C   0  0  2  0  0  0  0  0  0  0  0  0
    8.9729  -15.5019   22.8676 N   0  0  0  0  0  0  0  0  0  0  0  0
    8.6466  -15.5107   25.2758 C   0  0  0  0  0  0  0  0  0  0  0  0
    7.5820  -16.1934   25.4602 O   0  0  0  0  0  0  0  0  0  0  0  0
    9.9787  -20.2943   25.2970 N   0  0  0  0  0  0  0  0  0  0  0  0
   11.2083  -19.6326   25.5090 C   0  0  0  0  0  0  0  0  0  0  0  0
   12.2811  -20.1353   25.1130 O   0  0  0  0  0  0  0  0  0  0  0  0
   11.2015  -18.3050   26.2238 C   0  0  0  0  0  0  0  0  0  0  0  0
    9.8056  -17.9309   26.6056 C   0  0  0  0  0  0  0  0  0  0  0  0
    9.6421  -16.6404   27.3278 C   0  0  2  0  0  0  0  0  0  0  0  0
    9.6085  -15.5839   26.3058 N   0  0  0  0  0  0  0  0  0  0  0  0
   10.7009  -16.4159   28.3008 C   0  0  0  0  0  0  0  0  0  0  0  0
   11.5335  -15.4991   28.1394 O   0  0  0  0  0  0  0  0  0  0  0  0
   10.7860  -17.2390   29.4318 O   0  0  0  0  0  0  0  0  0  0  0  0
  2  1  1  6
  2  3  1  0
  4  3  1  0
  5  4  1  0
  5  6  2  0
  7  2  1  0
  8  7  2  0
  9  5  1  0
 11 10  1  0
 11 12  1  0
 12 13  1  0
 14 13  1  6
 14 15  1  0
 15  7  1  0
 16 24  1  0
 16 14  1  0
 17 16  2  0
 19 18  1  0
 19 21  1  0
 20 19  2  0
 22 21  1  0
 23 22  1  6
 23 24  1  0
 25 27  1  0
 25 23  1  0
 26 25  2  0
M  END
$$$$
