EMQ.pdb
     RDKit          3D

 27 26  0  0  1  0  0  0  0  0999 V2000
    7.3959  -17.8982   21.0329 N   0  0  0  0  0  0  0  0  0  0  0  0
    8.7936  -17.6182   21.0754 C   0  0  1  0  0  0  0  0  0  0  0  0
    9.3949  -17.0951   19.8243 C   0  0  0  0  0  0  0  0  0  0  0  0
    8.4886  -16.2794   18.9633 C   0  0  0  0  0  0  0  0  0  0  0  0
    9.0505  -15.7562   17.7173 C   0  0  0  0  0  0  0  0  0  0  0  0
   10.2392  -15.9223   17.3631 O   0  0  0  0  0  0  0  0  0  0  0  0
    9.0694  -16.6905   22.2240 C   0  0  0  0  0  0  0  0  0  0  0  0
   10.2306  -16.3264   22.4719 O   0  0  0  0  0  0  0  0  0  0  0  0
    8.2448  -15.0086   16.8188 O   0  0  0  0  0  0  0  0  0  0  0  0
    6.7809  -11.0129   27.0920 C   0  0  0  0  0  0  0  0  0  0  0  0
    6.4322  -12.0750   25.6751 S   0  0  0  0  0  0  0  0  0  0  0  0
    7.5838  -13.4957   25.6367 C   0  0  0  0  0  0  0  0  0  0  0  0
    7.3674  -14.2749   24.3679 C   0  0  0  0  0  0  0  0  0  0  0  0
    8.2431  -15.4669   24.2195 C   0  0  2  0  0  0  0  0  0  0  0  0
    8.0035  -16.2296   23.0262 N   0  0  0  0  0  0  0  0  0  0  0  0
    8.2981  -16.3276   25.4365 C   0  0  0  0  0  0  0  0  0  0  0  0
    7.3392  -17.1117   25.7510 O   0  0  0  0  0  0  0  0  0  0  0  0
   11.6960  -20.6180   24.3049 N   0  0  0  0  0  0  0  0  0  0  0  0
   10.9180  -20.8234   25.4656 C   0  0  0  0  0  0  0  0  0  0  0  0
   10.2341  -21.8600   25.6014 O   0  0  0  0  0  0  0  0  0  0  0  0
   10.9286  -19.7657   26.5401 C   0  0  0  0  0  0  0  0  0  0  0  0
   10.3341  -18.4961   26.0213 C   0  0  0  0  0  0  0  0  0  0  0  0
    9.8741  -17.5169   27.0427 C   0  0  2  0  0  0  0  0  0  0  0  0
    9.4052  -16.3305   26.3117 N   0  0  0  0  0  0  0  0  0  0  0  0
   10.9213  -17.1833   27.9968 C   0  0  0  0  0  0  0  0  0  0  0  0
   11.4037  -18.0566   28.7480 O   0  0  0  0  0  0  0  0  0  0  0  0
   11.3930  -15.8658   28.0724 O   0  0  0  0  0  0  0  0  0  0  0  0
  2  1  1  6
  2  3  1  0
  4  3  1  0
  5  4  1  0
  5  6  2  0
  7  2  1  0
  8  7  2  0
  9  5  1  0
 11 10  1  0
 11 12  1  0
 12 13  1  0
 14 13  1  1
 14 15  1  0
 15  7  1  0
 16 24  1  0
 16 14  1  0
 17 16  2  0
 19 18  1  0
 19 21  1  0
 20 19  2  0
 22 21  1  0
 23 22  1  6
 23 24  1  0
 25 27  1  0
 25 23  1  0
 26 25  2  0
M  END
$$$$
