EMQ.pdb
     RDKit          3D

 27 26  0  0  1  0  0  0  0  0999 V2000
    7.6159  -17.7304   21.6557 N   0  0  0  0  0  0  0  0  0  0  0  0
    8.9619  -17.2728   21.5435 C   0  0  1  0  0  0  0  0  0  0  0  0
    9.3801  -16.7908   20.2044 C   0  0  0  0  0  0  0  0  0  0  0  0
    8.5253  -17.2315   19.0628 C   0  0  0  0  0  0  0  0  0  0  0  0
    9.1842  -17.3994   17.7668 C   0  0  0  0  0  0  0  0  0  0  0  0
    8.5865  -17.7237   16.7161 O   0  0  0  0  0  0  0  0  0  0  0  0
    9.2062  -16.2194   22.5859 C   0  0  0  0  0  0  0  0  0  0  0  0
   10.3535  -15.7871   22.7845 O   0  0  0  0  0  0  0  0  0  0  0  0
   10.5828  -17.1951   17.6350 O   0  0  0  0  0  0  0  0  0  0  0  0
    5.9082  -10.8098   27.3620 C   0  0  0  0  0  0  0  0  0  0  0  0
    5.8148  -11.8632   25.8994 S   0  0  0  0  0  0  0  0  0  0  0  0
    7.3386  -12.8600   25.7257 C   0  0  0  0  0  0  0  0  0  0  0  0
    7.1671  -13.8340   24.5918 C   0  0  0  0  0  0  0  0  0  0  0  0
    8.3293  -14.7343   24.3712 C   0  0  2  0  0  0  0  0  0  0  0  0
    8.1266  -15.7176   23.3441 N   0  0  0  0  0  0  0  0  0  0  0  0
    8.8723  -15.3329   25.6249 C   0  0  0  0  0  0  0  0  0  0  0  0
    9.1684  -14.6159   26.6406 O   0  0  0  0  0  0  0  0  0  0  0  0
    7.0161  -20.6068   27.6478 N   0  0  0  0  0  0  0  0  0  0  0  0
    8.1330  -20.5676   28.5115 C   0  0  0  0  0  0  0  0  0  0  0  0
    8.2984  -21.4477   29.3825 O   0  0  0  0  0  0  0  0  0  0  0  0
    9.1240  -19.4411   28.3617 C   0  0  0  0  0  0  0  0  0  0  0  0
    8.6978  -18.5205   27.2640 C   0  0  0  0  0  0  0  0  0  0  0  0
    9.5819  -17.3532   27.0008 C   0  0  2  0  0  0  0  0  0  0  0  0
    9.0918  -16.7196   25.7678 N   0  0  0  0  0  0  0  0  0  0  0  0
   10.9817  -17.7363   26.8906 C   0  0  0  0  0  0  0  0  0  0  0  0
   11.6424  -18.0431   27.9050 O   0  0  0  0  0  0  0  0  0  0  0  0
   11.5942  -17.7606   25.6303 O   0  0  0  0  0  0  0  0  0  0  0  0
  2  1  1  6
  2  3  1  0
  4  3  1  0
  5  4  1  0
  5  6  2  0
  7  2  1  0
  8  7  2  0
  9  5  1  0
 11 10  1  0
 11 12  1  0
 12 13  1  0
 14 13  1  1
 14 15  1  0
 15  7  1  0
 16 24  1  0
 16 14  1  0
 17 16  2  0
 19 18  1  0
 19 21  1  0
 20 19  2  0
 22 21  1  0
 23 22  1  6
 23 24  1  0
 25 27  1  0
 25 23  1  0
 26 25  2  0
M  END
$$$$
