EMQ.pdb
     RDKit          3D

 27 26  0  0  1  0  0  0  0  0999 V2000
    7.9640  -17.1859   20.7329 N   0  0  0  0  0  0  0  0  0  0  0  0
    9.3569  -17.0185   20.9890 C   0  0  1  0  0  0  0  0  0  0  0  0
   10.1845  -16.5725   19.8415 C   0  0  0  0  0  0  0  0  0  0  0  0
   10.1383  -17.4469   18.6326 C   0  0  0  0  0  0  0  0  0  0  0  0
   10.8752  -16.9889   17.4540 C   0  0  0  0  0  0  0  0  0  0  0  0
   10.3309  -16.6305   16.3856 O   0  0  0  0  0  0  0  0  0  0  0  0
    9.5288  -16.0914   22.1581 C   0  0  0  0  0  0  0  0  0  0  0  0
   10.6628  -15.7230   22.5056 O   0  0  0  0  0  0  0  0  0  0  0  0
   12.2934  -16.9272   17.4670 O   0  0  0  0  0  0  0  0  0  0  0  0
    6.7053  -10.8850   26.1910 C   0  0  0  0  0  0  0  0  0  0  0  0
    6.1099  -12.5808   26.3559 S   0  0  0  0  0  0  0  0  0  0  0  0
    7.4639  -13.7713   26.0471 C   0  0  0  0  0  0  0  0  0  0  0  0
    7.3785  -14.2617   24.6272 C   0  0  0  0  0  0  0  0  0  0  0  0
    8.5057  -15.1354   24.2078 C   0  0  2  0  0  0  0  0  0  0  0  0
    8.3958  -15.6361   22.8661 N   0  0  0  0  0  0  0  0  0  0  0  0
    8.8269  -16.2138   25.1870 C   0  0  0  0  0  0  0  0  0  0  0  0
    8.0738  -17.2357   25.3348 O   0  0  0  0  0  0  0  0  0  0  0  0
   13.5761  -19.2732   25.1069 N   0  0  0  0  0  0  0  0  0  0  0  0
   13.8311  -17.9134   25.3911 C   0  0  0  0  0  0  0  0  0  0  0  0
   14.9180  -17.3868   25.0721 O   0  0  0  0  0  0  0  0  0  0  0  0
   12.7641  -17.1076   26.0881 C   0  0  0  0  0  0  0  0  0  0  0  0
   11.5381  -17.9387   26.2898 C   0  0  0  0  0  0  0  0  0  0  0  0
   10.3744  -17.2568   26.9178 C   0  0  2  0  0  0  0  0  0  0  0  0
    9.9750  -16.1741   26.0066 N   0  0  0  0  0  0  0  0  0  0  0  0
   10.6825  -16.7551   28.2488 C   0  0  0  0  0  0  0  0  0  0  0  0
   10.6377  -15.5320   28.4973 O   0  0  0  0  0  0  0  0  0  0  0  0
   11.0335  -17.6565   29.2629 O   0  0  0  0  0  0  0  0  0  0  0  0
  2  1  1  6
  2  3  1  0
  4  3  1  0
  5  4  1  0
  5  6  2  0
  7  2  1  0
  8  7  2  0
  9  5  1  0
 11 10  1  0
 11 12  1  0
 12 13  1  0
 14 13  1  1
 14 15  1  0
 15  7  1  0
 16 24  1  0
 16 14  1  0
 17 16  2  0
 19 18  1  0
 19 21  1  0
 20 19  2  0
 22 21  1  0
 23 22  1  6
 23 24  1  0
 25 27  1  0
 25 23  1  0
 26 25  2  0
M  END
$$$$
