EMQ.pdb
     RDKit          3D

 27 26  0  0  1  0  0  0  0  0999 V2000
    7.8783  -16.2719   19.7452 N   0  0  0  0  0  0  0  0  0  0  0  0
    8.7126  -17.0266   20.6217 C   0  0  1  0  0  0  0  0  0  0  0  0
    9.8565  -17.7306   19.9920 C   0  0  0  0  0  0  0  0  0  0  0  0
   10.0264  -17.5055   18.5262 C   0  0  0  0  0  0  0  0  0  0  0  0
   11.1267  -18.2128   17.8695 C   0  0  0  0  0  0  0  0  0  0  0  0
   11.1890  -19.4577   17.7578 O   0  0  0  0  0  0  0  0  0  0  0  0
    9.1868  -16.1327   21.7317 C   0  0  0  0  0  0  0  0  0  0  0  0
   10.3633  -16.1911   22.1255 O   0  0  0  0  0  0  0  0  0  0  0  0
   12.2147  -17.4944   17.3078 O   0  0  0  0  0  0  0  0  0  0  0  0
    7.0761  -11.4681   27.6569 C   0  0  0  0  0  0  0  0  0  0  0  0
    6.9278  -11.9325   25.9192 S   0  0  0  0  0  0  0  0  0  0  0  0
    7.3503  -13.6969   25.6862 C   0  0  0  0  0  0  0  0  0  0  0  0
    7.2694  -14.0369   24.2227 C   0  0  0  0  0  0  0  0  0  0  0  0
    8.3631  -14.9164   23.7327 C   0  0  2  0  0  0  0  0  0  0  0  0
    8.2911  -15.2213   22.3310 N   0  0  0  0  0  0  0  0  0  0  0  0
    8.5714  -16.1368   24.5647 C   0  0  0  0  0  0  0  0  0  0  0  0
    7.6993  -17.0691   24.6233 O   0  0  0  0  0  0  0  0  0  0  0  0
   11.9481  -21.4754   24.3649 N   0  0  0  0  0  0  0  0  0  0  0  0
   12.4238  -20.3332   25.0462 C   0  0  0  0  0  0  0  0  0  0  0  0
   13.5956  -19.9329   24.8815 O   0  0  0  0  0  0  0  0  0  0  0  0
   11.4883  -19.6047   25.9776 C   0  0  0  0  0  0  0  0  0  0  0  0
   10.9450  -18.3817   25.3117 C   0  0  0  0  0  0  0  0  0  0  0  0
   10.0080  -17.5528   26.1170 C   0  0  2  0  0  0  0  0  0  0  0  0
    9.7370  -16.3378   25.3344 N   0  0  0  0  0  0  0  0  0  0  0  0
   10.5432  -17.2380   27.4333 C   0  0  0  0  0  0  0  0  0  0  0  0
   11.0305  -16.1133   27.6731 O   0  0  0  0  0  0  0  0  0  0  0  0
   10.5107  -18.2094   28.4429 O   0  0  0  0  0  0  0  0  0  0  0  0
  2  1  1  6
  2  3  1  0
  4  3  1  0
  5  4  1  0
  5  6  2  0
  7  2  1  0
  8  7  2  0
  9  5  1  0
 11 10  1  0
 11 12  1  0
 12 13  1  0
 14 13  1  1
 14 15  1  0
 15  7  1  0
 16 24  1  0
 16 14  1  0
 17 16  2  0
 19 18  1  0
 19 21  1  0
 20 19  2  0
 22 21  1  0
 23 22  1  6
 23 24  1  0
 25 27  1  0
 25 23  1  0
 26 25  2  0
M  END
$$$$
