EMQ.pdb
     RDKit          3D

 27 26  0  0  1  0  0  0  0  0999 V2000
    8.1337  -17.5923   21.4625 N   0  0  0  0  0  0  0  0  0  0  0  0
    9.4414  -17.0432   21.3130 C   0  0  1  0  0  0  0  0  0  0  0  0
    9.8381  -16.6629   19.9351 C   0  0  0  0  0  0  0  0  0  0  0  0
    8.8553  -16.9992   18.8633 C   0  0  0  0  0  0  0  0  0  0  0  0
    9.2226  -16.6454   17.4915 C   0  0  0  0  0  0  0  0  0  0  0  0
    8.9650  -15.5410   16.9621 O   0  0  0  0  0  0  0  0  0  0  0  0
    9.5892  -15.8769   22.2479 C   0  0  0  0  0  0  0  0  0  0  0  0
   10.6112  -15.1720   22.2152 O   0  0  0  0  0  0  0  0  0  0  0  0
    9.9134  -17.5713   16.6664 O   0  0  0  0  0  0  0  0  0  0  0  0
    5.1716  -12.8238   26.8854 C   0  0  0  0  0  0  0  0  0  0  0  0
    6.5170  -11.8767   26.1436 S   0  0  0  0  0  0  0  0  0  0  0  0
    7.9711  -12.9467   25.8488 C   0  0  0  0  0  0  0  0  0  0  0  0
    7.7178  -13.8051   24.6394 C   0  0  0  0  0  0  0  0  0  0  0  0
    8.8083  -14.7653   24.3254 C   0  0  2  0  0  0  0  0  0  0  0  0
    8.5615  -15.5800   23.1686 N   0  0  0  0  0  0  0  0  0  0  0  0
    9.2547  -15.5721   25.4979 C   0  0  0  0  0  0  0  0  0  0  0  0
    8.5927  -16.5845   25.9103 O   0  0  0  0  0  0  0  0  0  0  0  0
   15.0502  -16.8933   26.7414 N   0  0  0  0  0  0  0  0  0  0  0  0
   14.2291  -17.1412   25.6192 C   0  0  0  0  0  0  0  0  0  0  0  0
   14.7298  -17.4441   24.5155 O   0  0  0  0  0  0  0  0  0  0  0  0
   12.7337  -17.0334   25.7790 C   0  0  0  0  0  0  0  0  0  0  0  0
   12.4001  -16.3076   27.0425 C   0  0  0  0  0  0  0  0  0  0  0  0
   10.9538  -16.0949   27.3194 C   0  0  2  0  0  0  0  0  0  0  0  0
   10.4286  -15.2707   26.2209 N   0  0  0  0  0  0  0  0  0  0  0  0
   10.7269  -15.4735   28.6158 C   0  0  0  0  0  0  0  0  0  0  0  0
   10.2481  -14.3230   28.6982 O   0  0  0  0  0  0  0  0  0  0  0  0
   11.0500  -16.1757   29.7847 O   0  0  0  0  0  0  0  0  0  0  0  0
  2  1  1  6
  2  3  1  0
  4  3  1  0
  5  4  1  0
  5  6  2  0
  7  2  1  0
  8  7  2  0
  9  5  1  0
 11 10  1  0
 11 12  1  0
 12 13  1  0
 14 13  1  1
 14 15  1  0
 15  7  1  0
 16 24  1  0
 16 14  1  0
 17 16  2  0
 19 18  1  0
 19 21  1  0
 20 19  2  0
 22 21  1  0
 23 22  1  6
 23 24  1  0
 25 27  1  0
 25 23  1  0
 26 25  2  0
M  END
$$$$
