EMQ.pdb
     RDKit          3D

 27 26  0  0  1  0  0  0  0  0999 V2000
    8.8080  -15.1780   19.2593 N   0  0  0  0  0  0  0  0  0  0  0  0
    7.6913  -15.3229   20.1343 C   0  0  1  0  0  0  0  0  0  0  0  0
    6.9486  -16.6037   20.0416 C   0  0  0  0  0  0  0  0  0  0  0  0
    7.7873  -17.8384   20.0390 C   0  0  0  0  0  0  0  0  0  0  0  0
    7.0822  -19.1192   19.9704 C   0  0  0  0  0  0  0  0  0  0  0  0
    5.8381  -19.2282   19.8901 O   0  0  0  0  0  0  0  0  0  0  0  0
    8.1428  -15.0733   21.5449 C   0  0  0  0  0  0  0  0  0  0  0  0
    9.3288  -15.2553   21.8658 O   0  0  0  0  0  0  0  0  0  0  0  0
    7.8019  -20.3426   19.9923 O   0  0  0  0  0  0  0  0  0  0  0  0
    6.4914  -11.4293   28.3767 C   0  0  0  0  0  0  0  0  0  0  0  0
    5.8831  -12.0705   26.8031 S   0  0  0  0  0  0  0  0  0  0  0  0
    7.1615  -13.0933   25.9874 C   0  0  0  0  0  0  0  0  0  0  0  0
    6.6766  -13.4961   24.6212 C   0  0  0  0  0  0  0  0  0  0  0  0
    7.6160  -14.3654   23.8651 C   0  0  2  0  0  0  0  0  0  0  0  0
    7.2149  -14.6296   22.5115 N   0  0  0  0  0  0  0  0  0  0  0  0
    8.0003  -15.6101   24.5919 C   0  0  0  0  0  0  0  0  0  0  0  0
    7.5271  -16.7524   24.2684 O   0  0  0  0  0  0  0  0  0  0  0  0
   12.5801  -16.3626   22.6972 N   0  0  0  0  0  0  0  0  0  0  0  0
   12.9399  -17.3267   23.6646 C   0  0  0  0  0  0  0  0  0  0  0  0
   13.9730  -18.0155   23.5269 O   0  0  0  0  0  0  0  0  0  0  0  0
   12.0518  -17.5090   24.8693 C   0  0  0  0  0  0  0  0  0  0  0  0
   10.9107  -16.5447   24.8208 C   0  0  0  0  0  0  0  0  0  0  0  0
    9.9085  -16.6523   25.9151 C   0  0  2  0  0  0  0  0  0  0  0  0
    8.9047  -15.6050   25.6751 N   0  0  0  0  0  0  0  0  0  0  0  0
   10.5151  -16.5261   27.2320 C   0  0  0  0  0  0  0  0  0  0  0  0
   10.7013  -17.5315   27.9491 O   0  0  0  0  0  0  0  0  0  0  0  0
   10.8944  -15.2606   27.6996 O   0  0  0  0  0  0  0  0  0  0  0  0
  2  1  1  6
  2  3  1  0
  4  3  1  0
  5  4  1  0
  5  6  2  0
  7  2  1  0
  8  7  2  0
  9  5  1  0
 11 10  1  0
 11 12  1  0
 12 13  1  0
 14 13  1  1
 14 15  1  0
 15  7  1  0
 16 24  1  0
 16 14  1  0
 17 16  2  0
 19 18  1  0
 19 21  1  0
 20 19  2  0
 22 21  1  0
 23 22  1  6
 23 24  1  0
 25 27  1  0
 25 23  1  0
 26 25  2  0
M  END
$$$$
