GDC.pdb
     RDKit          3D

 19 18  0  0  1  0  0  0  0  0999 V2000
    7.8540  -17.1243   18.5741 N   0  0  0  0  0  0  0  0  0  0  0  0
    8.5478  -16.1409   19.3393 C   0  0  0  0  0  0  0  0  0  0  0  0
    8.4912  -16.4044   20.8008 C   0  0  0  0  0  0  0  0  0  0  0  0
    7.5266  -17.0129   21.3398 O   0  0  0  0  0  0  0  0  0  0  0  0
    9.5387  -15.9790   21.6858 N   0  0  0  0  0  0  0  0  0  0  0  0
    9.5034  -16.1893   23.1125 C   0  0  1  0  0  0  0  0  0  0  0  0
   10.7893  -16.7963   23.6375 C   0  0  0  0  0  0  0  0  0  0  0  0
   10.6740  -18.2736   23.7369 C   0  0  0  0  0  0  0  0  0  0  0  0
    9.7638  -18.8477   24.3689 O   0  0  0  0  0  0  0  0  0  0  0  0
    9.1564  -14.9165   23.7696 C   0  0  0  0  0  0  0  0  0  0  0  0
    9.6887  -13.8033   23.4728 O   0  0  0  0  0  0  0  0  0  0  0  0
   11.6332  -19.0406   23.0933 O   0  0  0  0  0  0  0  0  0  0  0  0
    8.1598  -14.8684   24.8213 N   0  0  0  0  0  0  0  0  0  0  0  0
    7.8710  -13.6715   25.5630 C   0  0  1  0  0  0  0  0  0  0  0  0
    6.3809  -13.4341   25.4795 C   0  0  0  0  0  0  0  0  0  0  0  0
    6.0095  -11.9531   26.4653 S   0  0  0  0  0  0  0  0  0  0  0  0
    8.2518  -13.7831   26.9996 C   0  0  0  0  0  0  0  0  0  0  0  0
    8.4552  -12.7247   27.8485 O   0  0  0  0  0  0  0  0  0  0  0  0
    8.3907  -14.9714   27.4379 O   0  0  0  0  0  0  0  0  0  0  0  0
  2  1  1  0
  3  5  1  0
  3  2  1  0
  4  3  2  0
  6  7  1  1
  6  5  1  0
  7  8  1  0
  8  9  2  0
  8 12  1  0
 10  6  1  0
 10 11  2  0
 13 10  1  0
 14 13  1  0
 14 15  1  1
 16 15  1  0
 17 14  1  0
 17 18  1  0
 19 17  2  0
M  END
$$$$
