GDC.pdb
     RDKit          3D

 19 18  0  0  1  0  0  0  0  0999 V2000
    7.2129  -13.0174   18.6071 N   0  0  0  0  0  0  0  0  0  0  0  0
    8.3476  -13.3247   19.4145 C   0  0  0  0  0  0  0  0  0  0  0  0
    7.9875  -14.0532   20.6588 C   0  0  0  0  0  0  0  0  0  0  0  0
    6.7900  -14.2485   21.0037 O   0  0  0  0  0  0  0  0  0  0  0  0
    8.9894  -14.5793   21.5425 N   0  0  0  0  0  0  0  0  0  0  0  0
    8.6887  -15.4595   22.6452 C   0  0  1  0  0  0  0  0  0  0  0  0
    9.4939  -16.7427   22.5943 C   0  0  0  0  0  0  0  0  0  0  0  0
    9.2013  -17.5009   21.3514 C   0  0  0  0  0  0  0  0  0  0  0  0
    8.1196  -18.0890   21.1474 O   0  0  0  0  0  0  0  0  0  0  0  0
    8.8672  -14.7165   23.9055 C   0  0  0  0  0  0  0  0  0  0  0  0
    9.9499  -14.1432   24.2372 O   0  0  0  0  0  0  0  0  0  0  0  0
   10.1886  -17.5520   20.3791 O   0  0  0  0  0  0  0  0  0  0  0  0
    7.7833  -14.5988   24.8609 N   0  0  0  0  0  0  0  0  0  0  0  0
    7.9381  -13.9512   26.1347 C   0  0  1  0  0  0  0  0  0  0  0  0
    6.5662  -13.5104   26.5897 C   0  0  0  0  0  0  0  0  0  0  0  0
    6.3608  -11.7733   26.0960 S   0  0  0  0  0  0  0  0  0  0  0  0
    8.5112  -14.8567   27.1707 C   0  0  0  0  0  0  0  0  0  0  0  0
    9.0298  -14.4528   28.3749 O   0  0  0  0  0  0  0  0  0  0  0  0
    8.5015  -16.0969   26.8788 O   0  0  0  0  0  0  0  0  0  0  0  0
  2  1  1  0
  3  5  1  0
  3  2  1  0
  4  3  2  0
  6  7  1  1
  6  5  1  0
  7  8  1  0
  8  9  2  0
  8 12  1  0
 10  6  1  0
 10 11  2  0
 13 10  1  0
 14 13  1  0
 14 15  1  1
 16 15  1  0
 17 14  1  0
 17 18  1  0
 19 17  2  0
M  END
$$$$
