GDC.pdb
     RDKit          3D

 19 18  0  0  1  0  0  0  0  0999 V2000
    6.1044  -19.6800   23.8065 N   0  0  0  0  0  0  0  0  0  0  0  0
    5.6908  -18.3291   23.6118 C   0  0  0  0  0  0  0  0  0  0  0  0
    6.8317  -17.4073   23.3725 C   0  0  0  0  0  0  0  0  0  0  0  0
    8.0283  -17.7454   23.5848 O   0  0  0  0  0  0  0  0  0  0  0  0
    6.6339  -16.0725   22.8820 N   0  0  0  0  0  0  0  0  0  0  0  0
    7.7095  -15.1283   22.7011 C   0  0  1  0  0  0  0  0  0  0  0  0
    7.5839  -14.3533   21.4044 C   0  0  0  0  0  0  0  0  0  0  0  0
    7.9548  -15.2022   20.2437 C   0  0  0  0  0  0  0  0  0  0  0  0
    7.1636  -15.9980   19.6977 O   0  0  0  0  0  0  0  0  0  0  0  0
    7.7792  -14.2580   23.8884 C   0  0  0  0  0  0  0  0  0  0  0  0
    7.3312  -13.0709   23.9182 O   0  0  0  0  0  0  0  0  0  0  0  0
    9.2479  -15.0973   19.7545 O   0  0  0  0  0  0  0  0  0  0  0  0
    8.3819  -14.7261   25.1210 N   0  0  0  0  0  0  0  0  0  0  0  0
    8.3285  -13.9752   26.3454 C   0  0  1  0  0  0  0  0  0  0  0  0
    6.8785  -13.8886   26.7620 C   0  0  0  0  0  0  0  0  0  0  0  0
    6.3172  -12.1920   26.4306 S   0  0  0  0  0  0  0  0  0  0  0  0
    9.0985  -14.6209   27.4463 C   0  0  0  0  0  0  0  0  0  0  0  0
    9.4108  -14.0309   28.6448 O   0  0  0  0  0  0  0  0  0  0  0  0
    9.4803  -15.8151   27.2192 O   0  0  0  0  0  0  0  0  0  0  0  0
  2  1  1  0
  3  5  1  0
  3  2  1  0
  4  3  2  0
  6  7  1  6
  6  5  1  0
  7  8  1  0
  8  9  2  0
  8 12  1  0
 10  6  1  0
 10 11  2  0
 13 10  1  0
 14 13  1  0
 14 15  1  1
 16 15  1  0
 17 14  1  0
 17 18  1  0
 19 17  2  0
M  END
$$$$
