GDC.pdb
     RDKit          3D

 19 18  0  0  1  0  0  0  0  0999 V2000
   -1.4750  -27.6577   28.1167 N   0  0  0  0  0  0  0  0  0  0  0  0
   -2.3475  -26.7049   27.5127 C   0  0  0  0  0  0  0  0  0  0  0  0
   -3.4530  -26.2858   28.4132 C   0  0  0  0  0  0  0  0  0  0  0  0
   -4.6664  -26.3828   28.0823 O   0  0  0  0  0  0  0  0  0  0  0  0
   -3.1994  -25.7450   29.7189 N   0  0  0  0  0  0  0  0  0  0  0  0
   -4.2454  -25.3112   30.6126 C   0  0  1  0  0  0  0  0  0  0  0  0
   -3.7948  -25.2899   32.0597 C   0  0  0  0  0  0  0  0  0  0  0  0
   -3.7293  -26.6666   32.6128 C   0  0  0  0  0  0  0  0  0  0  0  0
   -4.4898  -27.5868   32.2491 O   0  0  0  0  0  0  0  0  0  0  0  0
   -4.7542  -24.0083   30.1480 C   0  0  0  0  0  0  0  0  0  0  0  0
   -4.0083  -23.0183   29.8750 O   0  0  0  0  0  0  0  0  0  0  0  0
   -2.7731  -26.9277   33.5824 O   0  0  0  0  0  0  0  0  0  0  0  0
   -6.1755  -23.7825   29.9741 N   0  0  0  0  0  0  0  0  0  0  0  0
   -6.7125  -22.5298   29.5176 C   0  0  1  0  0  0  0  0  0  0  0  0
   -7.1363  -22.7147   28.0790 C   0  0  0  0  0  0  0  0  0  0  0  0
   -7.8567  -21.1434   27.5173 S   0  0  0  0  0  0  0  0  0  0  0  0
   -7.8992  -22.0945   30.3075 C   0  0  0  0  0  0  0  0  0  0  0  0
   -8.1914  -20.7976   30.6463 O   0  0  0  0  0  0  0  0  0  0  0  0
   -8.6809  -23.0291   30.6800 O   0  0  0  0  0  0  0  0  0  0  0  0
  2  1  1  0
  3  5  1  0
  3  2  1  0
  4  3  2  0
  6  7  1  1
  6  5  1  0
  7  8  1  0
  8  9  2  0
  8 12  1  0
 10  6  1  0
 10 11  2  0
 13 10  1  0
 14 13  1  0
 14 15  1  6
 16 15  1  0
 17 14  1  0
 17 18  1  0
 19 17  2  0
M  END
$$$$
