GDC.pdb
     RDKit          3D

 19 18  0  0  1  0  0  0  0  0999 V2000
    9.3645  -18.5591   19.0813 N   0  0  0  0  0  0  0  0  0  0  0  0
    9.5551  -18.6098   20.4937 C   0  0  0  0  0  0  0  0  0  0  0  0
    8.5494  -17.8084   21.2387 C   0  0  0  0  0  0  0  0  0  0  0  0
    7.7550  -17.0171   20.6610 O   0  0  0  0  0  0  0  0  0  0  0  0
    8.4248  -17.8921   22.6667 N   0  0  0  0  0  0  0  0  0  0  0  0
    7.4613  -17.1300   23.4230 C   0  0  1  0  0  0  0  0  0  0  0  0
    6.3788  -18.0044   24.0240 C   0  0  0  0  0  0  0  0  0  0  0  0
    6.9639  -19.0097   24.9472 C   0  0  0  0  0  0  0  0  0  0  0  0
    8.1915  -19.1324   25.1360 O   0  0  0  0  0  0  0  0  0  0  0  0
    8.1786  -16.3269   24.4293 C   0  0  0  0  0  0  0  0  0  0  0  0
    9.3002  -16.6563   24.9235 O   0  0  0  0  0  0  0  0  0  0  0  0
    6.0920  -19.8487   25.6244 O   0  0  0  0  0  0  0  0  0  0  0  0
    7.6234  -15.0818   24.9225 N   0  0  0  0  0  0  0  0  0  0  0  0
    8.2512  -14.3085   25.9588 C   0  0  1  0  0  0  0  0  0  0  0  0
    7.2748  -13.2340   26.3781 C   0  0  0  0  0  0  0  0  0  0  0  0
    8.1497  -12.1165   27.5136 S   0  0  0  0  0  0  0  0  0  0  0  0
    8.5946  -15.1279   27.1555 C   0  0  0  0  0  0  0  0  0  0  0  0
    9.7090  -14.9579   27.9373 O   0  0  0  0  0  0  0  0  0  0  0  0
    7.7636  -16.0499   27.4437 O   0  0  0  0  0  0  0  0  0  0  0  0
  2  1  1  0
  3  5  1  0
  3  2  1  0
  4  3  2  0
  6  7  1  1
  6  5  1  0
  7  8  1  0
  8  9  2  0
  8 12  1  0
 10  6  1  0
 10 11  2  0
 13 10  1  0
 14 13  1  0
 14 15  1  1
 16 15  1  0
 17 14  1  0
 17 18  1  0
 19 17  2  0
M  END
$$$$
