GDC.pdb
     RDKit          3D

 19 18  0  0  1  0  0  0  0  0999 V2000
    7.7530  -13.3687   17.6136 N   0  0  0  0  0  0  0  0  0  0  0  0
    8.5827  -13.2468   18.7671 C   0  0  0  0  0  0  0  0  0  0  0  0
    8.6497  -14.5006   19.5622 C   0  0  0  0  0  0  0  0  0  0  0  0
    7.6154  -15.1118   19.9466 O   0  0  0  0  0  0  0  0  0  0  0  0
    9.9038  -15.0899   19.9383 N   0  0  0  0  0  0  0  0  0  0  0  0
   10.0155  -16.1852   20.8706 C   0  0  1  0  0  0  0  0  0  0  0  0
   11.1636  -17.1152   20.5320 C   0  0  0  0  0  0  0  0  0  0  0  0
   10.9358  -17.7811   19.2243 C   0  0  0  0  0  0  0  0  0  0  0  0
    9.9409  -18.4953   18.9845 O   0  0  0  0  0  0  0  0  0  0  0  0
   10.1011  -15.6370   22.2360 C   0  0  0  0  0  0  0  0  0  0  0  0
   11.0721  -14.9338   22.6524 O   0  0  0  0  0  0  0  0  0  0  0  0
   11.8846  -17.5937   18.2306 O   0  0  0  0  0  0  0  0  0  0  0  0
    9.0496  -15.8803   23.2038 N   0  0  0  0  0  0  0  0  0  0  0  0
    9.1426  -15.4568   24.5742 C   0  0  1  0  0  0  0  0  0  0  0  0
    7.7386  -15.1812   25.0605 C   0  0  0  0  0  0  0  0  0  0  0  0
    7.1600  -13.6732   24.2271 S   0  0  0  0  0  0  0  0  0  0  0  0
    9.7519  -16.4947   25.4534 C   0  0  0  0  0  0  0  0  0  0  0  0
   10.0461  -16.3313   26.7834 O   0  0  0  0  0  0  0  0  0  0  0  0
   10.0057  -17.6087   24.8894 O   0  0  0  0  0  0  0  0  0  0  0  0
  2  1  1  0
  3  5  1  0
  3  2  1  0
  4  3  2  0
  6  7  1  6
  6  5  1  0
  7  8  1  0
  8  9  2  0
  8 12  1  0
 10  6  1  0
 10 11  2  0
 13 10  1  0
 14 13  1  0
 14 15  1  1
 16 15  1  0
 17 14  1  0
 17 18  1  0
 19 17  2  0
M  END
$$$$
