GDC.pdb
     RDKit          3D

 19 18  0  0  1  0  0  0  0  0999 V2000
    7.0287  -12.8815   18.3038 N   0  0  0  0  0  0  0  0  0  0  0  0
    8.1574  -13.0799   19.1527 C   0  0  0  0  0  0  0  0  0  0  0  0
    7.9931  -14.2411   20.0656 C   0  0  0  0  0  0  0  0  0  0  0  0
    6.8607  -14.7110   20.3625 O   0  0  0  0  0  0  0  0  0  0  0  0
    9.1217  -14.8973   20.6632 N   0  0  0  0  0  0  0  0  0  0  0  0
    8.9982  -15.9694   21.6205 C   0  0  1  0  0  0  0  0  0  0  0  0
    9.9088  -17.1375   21.2980 C   0  0  0  0  0  0  0  0  0  0  0  0
    9.5993  -18.3033   22.1644 C   0  0  0  0  0  0  0  0  0  0  0  0
    8.4457  -18.5808   22.5514 O   0  0  0  0  0  0  0  0  0  0  0  0
    9.2170  -15.4239   22.9721 C   0  0  0  0  0  0  0  0  0  0  0  0
   10.3074  -14.8956   23.3498 O   0  0  0  0  0  0  0  0  0  0  0  0
   10.6538  -19.1133   22.5574 O   0  0  0  0  0  0  0  0  0  0  0  0
    8.1670  -15.4643   23.9708 N   0  0  0  0  0  0  0  0  0  0  0  0
    8.3635  -15.0167   25.3225 C   0  0  1  0  0  0  0  0  0  0  0  0
    7.0241  -14.5532   25.8466 C   0  0  0  0  0  0  0  0  0  0  0  0
    6.6841  -12.9271   25.1094 S   0  0  0  0  0  0  0  0  0  0  0  0
    8.8718  -16.0972   26.2145 C   0  0  0  0  0  0  0  0  0  0  0  0
    9.2113  -15.9390   27.5343 O   0  0  0  0  0  0  0  0  0  0  0  0
    8.9868  -17.2447   25.6728 O   0  0  0  0  0  0  0  0  0  0  0  0
  2  1  1  0
  3  5  1  0
  3  2  1  0
  4  3  2  0
  6  7  1  6
  6  5  1  0
  7  8  1  0
  8  9  2  0
  8 12  1  0
 10  6  1  0
 10 11  2  0
 13 10  1  0
 14 13  1  0
 14 15  1  1
 16 15  1  0
 17 14  1  0
 17 18  1  0
 19 17  2  0
M  END
$$$$
