REW.pdb
     RDKit          3D

 35 36  0  0  1  0  0  0  0  0999 V2000
   32.4141  -22.9395  -19.4217 N   0  0  0  0  0  0  0  0  0  0  0  0
   31.2998  -23.0383  -20.2977 C   0  0  0  0  0  0  0  0  0  0  0  0
   31.5073  -23.1713  -21.5603 N   0  0  0  0  0  0  0  0  0  0  0  0
   29.9731  -22.9901  -19.7853 N   0  0  0  0  0  0  0  0  0  0  0  0
   29.7026  -22.8105  -18.3562 C   0  0  0  0  0  0  0  0  0  0  0  0
   29.0877  -24.0659  -17.8196 C   0  0  0  0  0  0  0  0  0  0  0  0
   27.6160  -23.9917  -17.7088 C   0  0  0  0  0  0  0  0  0  0  0  0
   27.1177  -22.8601  -16.9017 C   0  0  2  0  0  0  0  0  0  0  0  0
   27.6922  -22.7306  -15.5968 N   0  0  0  0  0  0  0  0  0  0  0  0
   25.6303  -22.9389  -16.7827 C   0  0  0  0  0  0  0  0  0  0  0  0
   24.9231  -23.3866  -17.7454 O   0  0  0  0  0  0  0  0  0  0  0  0
   30.7025  -23.2341  -22.1979 N   0  0  0  0  0  0  0  0  0  0  0  0
   24.9472  -22.5341  -15.6346 C   0  0  2  0  0  0  0  0  0  0  0  0
   24.0078  -23.4320  -14.9444 C   0  0  0  0  0  0  0  0  0  0  0  0
   24.6860  -24.6604  -14.5107 C   0  0  0  0  0  0  0  0  0  0  0  0
   23.8847  -25.8839  -14.2514 C   0  0  0  0  0  0  0  0  0  0  0  0
   23.3979  -26.5383  -15.4735 O   0  0  0  0  0  0  0  0  0  0  0  0
   23.7181  -26.1774  -16.6232 C   0  0  0  0  0  0  0  0  0  0  0  0
   23.3580  -22.6065  -13.9203 O   0  0  0  0  0  0  0  0  0  0  0  0
   22.8033  -23.0803  -12.8675 O   0  0  0  0  0  0  0  0  0  0  0  0
   22.5322  -27.6259  -15.3393 N   0  0  0  0  0  0  0  0  0  0  0  0
   23.2860  -21.1757  -14.0053 C   0  0  2  0  0  0  0  0  0  0  0  0
   24.3254  -20.3106  -13.4124 C   0  0  0  0  0  0  0  0  0  0  0  0
   25.4403  -21.1788  -12.9019 C   0  0  0  0  0  0  0  0  0  0  0  0
   25.6633  -21.0443  -11.4688 C   0  0  0  0  0  0  0  0  0  0  0  0
   24.6710  -21.0526  -10.4727 N   0  0  0  0  0  0  0  0  0  0  0  0
   25.2299  -20.8579   -9.2740 C   0  0  0  0  0  0  0  0  0  0  0  0
   26.5629  -20.7166   -9.3955 C   0  0  0  0  0  0  0  0  0  0  0  0
   27.5666  -20.5206   -8.4624 C   0  0  0  0  0  0  0  0  0  0  0  0
   28.8587  -20.4458   -8.9359 C   0  0  0  0  0  0  0  0  0  0  0  0
   29.1608  -20.5571  -10.2626 C   0  0  0  0  0  0  0  0  0  0  0  0
   28.1406  -20.7503  -11.1658 C   0  0  0  0  0  0  0  0  0  0  0  0
   26.8308  -20.8323  -10.7548 C   0  0  0  0  0  0  0  0  0  0  0  0
   24.7971  -19.2715  -14.3073 O   0  0  0  0  0  0  0  0  0  0  0  0
   25.1124  -17.9902  -13.9212 O   0  0  0  0  0  0  0  0  0  0  0  0
  2  3  2  0
  2  1  1  0
  4  2  1  0
  5  4  1  0
  6  5  1  0
  7  6  1  0
  8  7  1  0
  8  9  1  1
 10  8  1  0
 10 11  2  0
 12 10  1  0
 13 12  1  0
 13 18  1  0
 13 14  1  6
 15 14  1  0
 16 17  2  0
 16 15  1  0
 18 21  1  0
 18 19  2  0
 20 16  1  0
 21 22  1  0
 22 23  1  1
 23 24  1  0
 24 32  1  0
 25 26  1  0
 25 24  2  0
 26 27  1  0
 27 32  2  0
 27 28  1  0
 28 29  2  0
 29 30  1  0
 31 30  2  0
 32 31  1  0
 33 22  1  0
 33 34  1  0
 35 33  2  0
M  END
$$$$
