REW.pdb
     RDKit          3D

 35 36  0  0  1  0  0  0  0  0999 V2000
   30.0537  -25.2676  -16.8963 N   0  0  0  0  0  0  0  0  0  0  0  0
   28.7074  -25.4831  -16.4966 C   0  0  0  0  0  0  0  0  0  0  0  0
   28.3219  -26.6784  -16.2182 N   0  0  0  0  0  0  0  0  0  0  0  0
   27.7984  -24.3919  -16.4063 N   0  0  0  0  0  0  0  0  0  0  0  0
   28.0805  -23.0972  -17.0323 C   0  0  0  0  0  0  0  0  0  0  0  0
   28.9588  -22.3000  -16.1184 C   0  0  0  0  0  0  0  0  0  0  0  0
   28.2280  -21.7101  -14.9774 C   0  0  0  0  0  0  0  0  0  0  0  0
   27.1692  -20.7530  -15.3558 C   0  0  2  0  0  0  0  0  0  0  0  0
   27.5855  -19.6686  -16.1926 N   0  0  0  0  0  0  0  0  0  0  0  0
   26.5161  -20.2083  -14.1271 C   0  0  0  0  0  0  0  0  0  0  0  0
   26.9803  -19.1703  -13.5489 O   0  0  0  0  0  0  0  0  0  0  0  0
   27.3383  -26.8431  -15.9660 N   0  0  0  0  0  0  0  0  0  0  0  0
   25.3854  -20.7947  -13.5560 C   0  0  2  0  0  0  0  0  0  0  0  0
   24.7780  -20.2547  -12.3295 C   0  0  0  0  0  0  0  0  0  0  0  0
   23.3151  -20.2091  -12.4501 C   0  0  0  0  0  0  0  0  0  0  0  0
   22.6998  -19.5285  -13.6183 C   0  0  0  0  0  0  0  0  0  0  0  0
   21.6545  -20.3225  -14.2782 O   0  0  0  0  0  0  0  0  0  0  0  0
   20.4491  -20.2733  -13.9633 C   0  0  0  0  0  0  0  0  0  0  0  0
   25.3537  -21.0374  -11.2301 O   0  0  0  0  0  0  0  0  0  0  0  0
   25.8074  -22.2279  -11.3624 O   0  0  0  0  0  0  0  0  0  0  0  0
   22.0318  -21.1761  -15.3173 N   0  0  0  0  0  0  0  0  0  0  0  0
   25.4640  -20.5330   -9.8910 C   0  0  1  0  0  0  0  0  0  0  0  0
   25.8937  -21.3941   -8.7713 C   0  0  0  0  0  0  0  0  0  0  0  0
   27.3671  -21.1983   -8.5515 C   0  0  0  0  0  0  0  0  0  0  0  0
   27.6712  -20.1132   -7.6285 C   0  0  0  0  0  0  0  0  0  0  0  0
   27.2708  -18.7726   -7.7669 N   0  0  0  0  0  0  0  0  0  0  0  0
   27.7675  -18.0447   -6.7616 C   0  0  0  0  0  0  0  0  0  0  0  0
   28.4919  -18.8207   -5.9341 C   0  0  0  0  0  0  0  0  0  0  0  0
   29.1765  -18.5461   -4.7627 C   0  0  0  0  0  0  0  0  0  0  0  0
   29.8027  -19.6032   -4.1384 C   0  0  0  0  0  0  0  0  0  0  0  0
   29.7640  -20.8746   -4.6342 C   0  0  0  0  0  0  0  0  0  0  0  0
   29.0760  -21.1153   -5.8017 C   0  0  0  0  0  0  0  0  0  0  0  0
   28.4317  -20.1016   -6.4713 C   0  0  0  0  0  0  0  0  0  0  0  0
   25.1217  -21.2001   -7.5591 O   0  0  0  0  0  0  0  0  0  0  0  0
   24.1015  -20.2891   -7.4186 O   0  0  0  0  0  0  0  0  0  0  0  0
  2  3  2  0
  2  1  1  0
  4  2  1  0
  5  4  1  0
  6  5  1  0
  7  6  1  0
  8  7  1  0
  8  9  1  1
 10  8  1  0
 10 11  2  0
 12 10  1  0
 13 12  1  0
 13 18  1  0
 13 14  1  6
 15 14  1  0
 16 17  2  0
 16 15  1  0
 18 21  1  0
 18 19  2  0
 20 16  1  0
 21 22  1  0
 22 23  1  1
 23 24  1  0
 24 32  1  0
 25 26  1  0
 25 24  2  0
 26 27  1  0
 27 32  2  0
 27 28  1  0
 28 29  2  0
 29 30  1  0
 31 30  2  0
 32 31  1  0
 33 22  1  0
 33 34  1  0
 35 33  2  0
M  END
$$$$
