REW.pdb
     RDKit          3D

 35 36  0  0  1  0  0  0  0  0999 V2000
   19.3470  -15.4558  -17.0745 N   0  0  0  0  0  0  0  0  0  0  0  0
   19.9931  -14.5500  -17.9581 C   0  0  0  0  0  0  0  0  0  0  0  0
   19.3943  -13.4584  -18.2818 N   0  0  0  0  0  0  0  0  0  0  0  0
   21.2841  -14.8468  -18.4780 N   0  0  0  0  0  0  0  0  0  0  0  0
   21.7886  -16.2204  -18.5564 C   0  0  0  0  0  0  0  0  0  0  0  0
   21.4178  -16.9436  -17.2988 C   0  0  0  0  0  0  0  0  0  0  0  0
   22.4937  -17.8220  -16.7940 C   0  0  0  0  0  0  0  0  0  0  0  0
   23.6466  -17.9658  -17.7052 C   0  0  2  0  0  0  0  0  0  0  0  0
   23.3254  -18.0893  -19.0948 N   0  0  0  0  0  0  0  0  0  0  0  0
   24.4826  -19.1307  -17.2844 C   0  0  0  0  0  0  0  0  0  0  0  0
   24.1393  -20.3214  -17.5873 O   0  0  0  0  0  0  0  0  0  0  0  0
   19.8822  -12.7749  -18.8759 N   0  0  0  0  0  0  0  0  0  0  0  0
   25.6608  -18.9823  -16.5508 C   0  0  1  0  0  0  0  0  0  0  0  0
   26.4875  -20.1430  -16.1843 C   0  0  0  0  0  0  0  0  0  0  0  0
   27.4405  -20.4617  -17.2553 C   0  0  0  0  0  0  0  0  0  0  0  0
   28.3602  -21.6170  -17.0941 C   0  0  0  0  0  0  0  0  0  0  0  0
   29.2269  -21.8456  -18.2583 O   0  0  0  0  0  0  0  0  0  0  0  0
   30.4474  -21.5911  -18.2698 C   0  0  0  0  0  0  0  0  0  0  0  0
   27.0247  -19.8366  -14.8539 O   0  0  0  0  0  0  0  0  0  0  0  0
   27.4037  -18.6689  -14.4885 O   0  0  0  0  0  0  0  0  0  0  0  0
   28.6524  -22.3806  -19.4134 N   0  0  0  0  0  0  0  0  0  0  0  0
   27.1742  -20.8291  -13.8281 C   0  0  1  0  0  0  0  0  0  0  0  0
   27.7693  -20.5048  -12.5164 C   0  0  0  0  0  0  0  0  0  0  0  0
   27.0498  -19.3175  -11.9419 C   0  0  0  0  0  0  0  0  0  0  0  0
   25.7317  -19.6439  -11.4149 C   0  0  0  0  0  0  0  0  0  0  0  0
   25.4509  -20.1079  -10.1178 N   0  0  0  0  0  0  0  0  0  0  0  0
   24.1418  -20.3502   -9.9961 C   0  0  0  0  0  0  0  0  0  0  0  0
   23.5046  -20.0739  -11.1490 C   0  0  0  0  0  0  0  0  0  0  0  0
   22.1708  -20.1394  -11.5137 C   0  0  0  0  0  0  0  0  0  0  0  0
   21.8499  -19.7474  -12.7954 C   0  0  0  0  0  0  0  0  0  0  0  0
   22.7887  -19.3101  -13.6849 C   0  0  0  0  0  0  0  0  0  0  0  0
   24.1069  -19.2576  -13.2927 C   0  0  0  0  0  0  0  0  0  0  0  0
   24.4896  -19.6364  -12.0272 C   0  0  0  0  0  0  0  0  0  0  0  0
   27.8046  -21.6283  -11.6001 O   0  0  0  0  0  0  0  0  0  0  0  0
   27.2083  -22.8454  -11.8312 O   0  0  0  0  0  0  0  0  0  0  0  0
  2  3  2  0
  2  1  1  0
  4  2  1  0
  5  4  1  0
  6  5  1  0
  7  6  1  0
  8  7  1  0
  8  9  1  6
 10  8  1  0
 10 11  2  0
 12 10  1  0
 13 12  1  0
 13 18  1  0
 13 14  1  6
 15 14  1  0
 16 17  2  0
 16 15  1  0
 18 21  1  0
 18 19  2  0
 20 16  1  0
 21 22  1  0
 22 23  1  6
 23 24  1  0
 24 32  1  0
 25 26  1  0
 25 24  2  0
 26 27  1  0
 27 32  2  0
 27 28  1  0
 28 29  2  0
 29 30  1  0
 31 30  2  0
 32 31  1  0
 33 22  1  0
 33 34  1  0
 35 33  2  0
M  END
$$$$
