REW.pdb
     RDKit          3D

 35 36  0  0  1  0  0  0  0  0999 V2000
   31.6963  -23.1391  -18.5837 N   0  0  0  0  0  0  0  0  0  0  0  0
   30.9161  -23.3970  -19.7428 C   0  0  0  0  0  0  0  0  0  0  0  0
   31.4787  -23.9319  -20.7685 N   0  0  0  0  0  0  0  0  0  0  0  0
   29.5319  -23.0674  -19.7685 N   0  0  0  0  0  0  0  0  0  0  0  0
   28.8391  -22.5481  -18.5861 C   0  0  0  0  0  0  0  0  0  0  0  0
   29.0944  -21.0762  -18.4844 C   0  0  0  0  0  0  0  0  0  0  0  0
   28.9885  -20.5613  -17.1032 C   0  0  0  0  0  0  0  0  0  0  0  0
   28.4788  -21.5393  -16.1213 C   0  0  2  0  0  0  0  0  0  0  0  0
   27.5951  -22.5373  -16.6436 N   0  0  0  0  0  0  0  0  0  0  0  0
   27.8072  -20.8231  -14.9949 C   0  0  0  0  0  0  0  0  0  0  0  0
   28.4189  -19.9102  -14.3471 O   0  0  0  0  0  0  0  0  0  0  0  0
   30.9109  -24.1428  -21.6001 N   0  0  0  0  0  0  0  0  0  0  0  0
   26.4999  -21.1091  -14.5976 C   0  0  1  0  0  0  0  0  0  0  0  0
   25.8374  -20.3421  -13.5310 C   0  0  0  0  0  0  0  0  0  0  0  0
   24.4952  -19.9193  -13.9513 C   0  0  0  0  0  0  0  0  0  0  0  0
   23.6380  -19.1624  -13.0033 C   0  0  0  0  0  0  0  0  0  0  0  0
   22.4054  -19.8701  -12.6311 O   0  0  0  0  0  0  0  0  0  0  0  0
   22.1426  -20.2318  -11.4673 C   0  0  0  0  0  0  0  0  0  0  0  0
   25.9519  -21.1694  -12.3248 O   0  0  0  0  0  0  0  0  0  0  0  0
   25.8325  -22.4446  -12.3197 O   0  0  0  0  0  0  0  0  0  0  0  0
   21.4762  -20.1495  -13.6357 N   0  0  0  0  0  0  0  0  0  0  0  0
   26.2136  -20.6182  -11.0258 C   0  0  2  0  0  0  0  0  0  0  0  0
   26.0271  -21.4121   -9.7949 C   0  0  0  0  0  0  0  0  0  0  0  0
   27.3189  -21.4209   -9.0276 C   0  0  0  0  0  0  0  0  0  0  0  0
   27.4030  -20.3612   -8.0318 C   0  0  0  0  0  0  0  0  0  0  0  0
   26.6997  -19.1441   -8.0573 N   0  0  0  0  0  0  0  0  0  0  0  0
   27.0566  -18.3918   -7.0114 C   0  0  0  0  0  0  0  0  0  0  0  0
   27.9734  -19.0334   -6.2634 C   0  0  0  0  0  0  0  0  0  0  0  0
   28.6241  -18.6888   -5.0912 C   0  0  0  0  0  0  0  0  0  0  0  0
   29.5017  -19.6120   -4.5650 C   0  0  0  0  0  0  0  0  0  0  0  0
   29.7360  -20.8202   -5.1557 C   0  0  0  0  0  0  0  0  0  0  0  0
   29.0745  -21.1331   -6.3213 C   0  0  0  0  0  0  0  0  0  0  0  0
   28.1874  -20.2530   -6.8956 C   0  0  0  0  0  0  0  0  0  0  0  0
   24.9049  -20.9763   -8.9863 O   0  0  0  0  0  0  0  0  0  0  0  0
   24.3437  -21.7090   -7.9672 O   0  0  0  0  0  0  0  0  0  0  0  0
  2  3  2  0
  2  1  1  0
  4  2  1  0
  5  4  1  0
  6  5  1  0
  7  6  1  0
  8  7  1  0
  8  9  1  6
 10  8  1  0
 10 11  2  0
 12 10  1  0
 13 12  1  0
 13 18  1  0
 13 14  1  6
 15 14  1  0
 16 17  2  0
 16 15  1  0
 18 21  1  0
 18 19  2  0
 20 16  1  0
 21 22  1  0
 22 23  1  6
 23 24  1  0
 24 32  1  0
 25 26  1  0
 25 24  2  0
 26 27  1  0
 27 32  2  0
 27 28  1  0
 28 29  2  0
 29 30  1  0
 31 30  2  0
 32 31  1  0
 33 22  1  0
 33 34  1  0
 35 33  2  0
M  END
$$$$
