REW.pdb
     RDKit          3D

 35 36  0  0  1  0  0  0  0  0999 V2000
   30.5855  -21.8371  -20.2186 N   0  0  0  0  0  0  0  0  0  0  0  0
   30.5453  -22.7982  -19.1730 C   0  0  0  0  0  0  0  0  0  0  0  0
   31.5333  -23.6099  -19.0320 N   0  0  0  0  0  0  0  0  0  0  0  0
   29.4275  -22.8620  -18.2945 N   0  0  0  0  0  0  0  0  0  0  0  0
   28.2945  -21.9407  -18.4174 C   0  0  0  0  0  0  0  0  0  0  0  0
   28.7335  -20.5754  -17.9871 C   0  0  0  0  0  0  0  0  0  0  0  0
   27.9472  -20.0410  -16.8556 C   0  0  0  0  0  0  0  0  0  0  0  0
   28.2752  -20.6368  -15.5450 C   0  0  2  0  0  0  0  0  0  0  0  0
   28.2331  -22.0666  -15.4873 N   0  0  0  0  0  0  0  0  0  0  0  0
   27.3772  -20.0717  -14.4928 C   0  0  0  0  0  0  0  0  0  0  0  0
   27.2993  -18.8114  -14.3117 O   0  0  0  0  0  0  0  0  0  0  0  0
   31.5272  -24.2777  -18.2495 N   0  0  0  0  0  0  0  0  0  0  0  0
   26.5910  -20.8765  -13.6665 C   0  0  2  0  0  0  0  0  0  0  0  0
   25.7170  -20.2946  -12.6357 C   0  0  0  0  0  0  0  0  0  0  0  0
   24.3042  -20.4382  -13.0102 C   0  0  0  0  0  0  0  0  0  0  0  0
   23.7704  -19.6603  -14.1574 C   0  0  0  0  0  0  0  0  0  0  0  0
   22.3242  -19.8252  -14.3579 O   0  0  0  0  0  0  0  0  0  0  0  0
   21.6271  -20.6354  -13.7160 C   0  0  0  0  0  0  0  0  0  0  0  0
   26.1568  -20.8889  -11.3685 O   0  0  0  0  0  0  0  0  0  0  0  0
   27.2841  -21.4753  -11.2081 O   0  0  0  0  0  0  0  0  0  0  0  0
   21.6962  -19.0280  -15.3174 N   0  0  0  0  0  0  0  0  0  0  0  0
   25.3547  -20.8647  -10.1785 C   0  0  2  0  0  0  0  0  0  0  0  0
   25.9623  -20.9022   -8.8333 C   0  0  0  0  0  0  0  0  0  0  0  0
   27.0722  -19.8910   -8.7782 C   0  0  0  0  0  0  0  0  0  0  0  0
   27.5337  -19.6175   -7.4240 C   0  0  0  0  0  0  0  0  0  0  0  0
   26.9197  -18.7549   -6.4991 N   0  0  0  0  0  0  0  0  0  0  0  0
   27.6405  -18.7087   -5.3740 C   0  0  0  0  0  0  0  0  0  0  0  0
   28.7238  -19.5006   -5.4784 C   0  0  0  0  0  0  0  0  0  0  0  0
   29.7443  -19.8024   -4.5931 C   0  0  0  0  0  0  0  0  0  0  0  0
   30.7035  -20.6949   -5.0207 C   0  0  0  0  0  0  0  0  0  0  0  0
   30.6703  -21.2694   -6.2586 C   0  0  0  0  0  0  0  0  0  0  0  0
   29.6432  -20.9481   -7.1165 C   0  0  0  0  0  0  0  0  0  0  0  0
   28.6570  -20.0634   -6.7479 C   0  0  0  0  0  0  0  0  0  0  0  0
   25.0043  -20.7331   -7.7578 O   0  0  0  0  0  0  0  0  0  0  0  0
   24.9966  -21.4662   -6.5945 O   0  0  0  0  0  0  0  0  0  0  0  0
  2  3  2  0
  2  1  1  0
  4  2  1  0
  5  4  1  0
  6  5  1  0
  7  6  1  0
  8  7  1  0
  8  9  1  6
 10  8  1  0
 10 11  2  0
 12 10  1  0
 13 12  1  0
 13 18  1  0
 13 14  1  6
 15 14  1  0
 16 17  2  0
 16 15  1  0
 18 21  1  0
 18 19  2  0
 20 16  1  0
 21 22  1  0
 22 23  1  6
 23 24  1  0
 24 32  1  0
 25 26  1  0
 25 24  2  0
 26 27  1  0
 27 32  2  0
 27 28  1  0
 28 29  2  0
 29 30  1  0
 31 30  2  0
 32 31  1  0
 33 22  1  0
 33 34  1  0
 35 33  2  0
M  END
$$$$
