REW.pdb
     RDKit          3D

 35 36  0  0  1  0  0  0  0  0999 V2000
   18.3207  -23.0803  -12.4817 N   0  0  0  0  0  0  0  0  0  0  0  0
   18.9899  -21.9616  -11.9164 C   0  0  0  0  0  0  0  0  0  0  0  0
   18.8918  -21.7484  -10.6516 N   0  0  0  0  0  0  0  0  0  0  0  0
   19.7572  -21.0893  -12.7383 N   0  0  0  0  0  0  0  0  0  0  0  0
   19.8124  -21.2486  -14.1940 C   0  0  0  0  0  0  0  0  0  0  0  0
   20.7000  -20.1853  -14.7629 C   0  0  0  0  0  0  0  0  0  0  0  0
   22.1270  -20.5689  -14.7849 C   0  0  0  0  0  0  0  0  0  0  0  0
   22.8566  -20.2900  -13.5319 C   0  0  2  0  0  0  0  0  0  0  0  0
   22.9740  -18.9076  -13.1788 N   0  0  0  0  0  0  0  0  0  0  0  0
   24.2178  -20.9037  -13.5911 C   0  0  0  0  0  0  0  0  0  0  0  0
   24.6429  -21.4420  -14.6666 O   0  0  0  0  0  0  0  0  0  0  0  0
   19.3675  -20.9338  -10.2411 N   0  0  0  0  0  0  0  0  0  0  0  0
   25.0808  -20.9216  -12.4940 C   0  0  1  0  0  0  0  0  0  0  0  0
   26.5400  -20.8405  -12.6647 C   0  0  0  0  0  0  0  0  0  0  0  0
   26.9248  -19.5466  -13.2431 C   0  0  0  0  0  0  0  0  0  0  0  0
   27.5445  -19.5056  -14.5925 C   0  0  0  0  0  0  0  0  0  0  0  0
   27.7251  -20.8323  -15.1973 O   0  0  0  0  0  0  0  0  0  0  0  0
   28.5436  -21.6749  -14.7796 C   0  0  0  0  0  0  0  0  0  0  0  0
   27.1074  -21.2081  -11.3626 O   0  0  0  0  0  0  0  0  0  0  0  0
   28.3592  -21.1728  -11.0937 O   0  0  0  0  0  0  0  0  0  0  0  0
   26.9339  -21.1686  -16.2980 N   0  0  0  0  0  0  0  0  0  0  0  0
   26.3013  -21.6438  -10.2581 C   0  0  1  0  0  0  0  0  0  0  0  0
   26.7344  -21.4530   -8.8595 C   0  0  0  0  0  0  0  0  0  0  0  0
   27.7981  -20.3924   -8.8255 C   0  0  0  0  0  0  0  0  0  0  0  0
   28.6383  -20.4589   -7.6376 C   0  0  0  0  0  0  0  0  0  0  0  0
   29.7957  -21.2426   -7.4857 N   0  0  0  0  0  0  0  0  0  0  0  0
   30.2857  -21.0935   -6.2507 C   0  0  0  0  0  0  0  0  0  0  0  0
   29.5209  -20.2419   -5.5425 C   0  0  0  0  0  0  0  0  0  0  0  0
   29.6213  -19.7561   -4.2502 C   0  0  0  0  0  0  0  0  0  0  0  0
   28.6622  -18.8548   -3.8415 C   0  0  0  0  0  0  0  0  0  0  0  0
   27.6475  -18.4438   -4.6572 C   0  0  0  0  0  0  0  0  0  0  0  0
   27.5742  -18.9460   -5.9365 C   0  0  0  0  0  0  0  0  0  0  0  0
   28.5011  -19.8490   -6.4019 C   0  0  0  0  0  0  0  0  0  0  0  0
   25.6434  -21.1734   -7.9459 O   0  0  0  0  0  0  0  0  0  0  0  0
   25.5853  -21.6042   -6.6414 O   0  0  0  0  0  0  0  0  0  0  0  0
  2  3  2  0
  2  1  1  0
  4  2  1  0
  5  4  1  0
  6  5  1  0
  7  6  1  0
  8  7  1  0
  8  9  1  6
 10  8  1  0
 10 11  2  0
 12 10  1  0
 13 12  1  0
 13 18  1  0
 13 14  1  1
 15 14  1  0
 16 17  2  0
 16 15  1  0
 18 21  1  0
 18 19  2  0
 20 16  1  0
 21 22  1  0
 22 23  1  1
 23 24  1  0
 24 32  1  0
 25 26  1  0
 25 24  2  0
 26 27  1  0
 27 32  2  0
 27 28  1  0
 28 29  2  0
 29 30  1  0
 31 30  2  0
 32 31  1  0
 33 22  1  0
 33 34  1  0
 35 33  2  0
M  END
$$$$
