REW.pdb
     RDKit          3D

 35 36  0  0  1  0  0  0  0  0999 V2000
   29.0725  -27.0943  -16.2089 N   0  0  0  0  0  0  0  0  0  0  0  0
   29.0899  -26.6687  -17.5644 C   0  0  0  0  0  0  0  0  0  0  0  0
   28.7318  -27.4946  -18.4834 N   0  0  0  0  0  0  0  0  0  0  0  0
   29.4985  -25.3475  -17.9002 N   0  0  0  0  0  0  0  0  0  0  0  0
   29.3583  -24.2326  -16.9596 C   0  0  0  0  0  0  0  0  0  0  0  0
   28.0310  -24.3421  -16.2752 C   0  0  0  0  0  0  0  0  0  0  0  0
   27.7477  -23.2087  -15.3703 C   0  0  0  0  0  0  0  0  0  0  0  0
   26.9833  -22.1066  -15.9880 C   0  0  2  0  0  0  0  0  0  0  0  0
   27.6783  -21.3577  -16.9908 N   0  0  0  0  0  0  0  0  0  0  0  0
   26.4895  -21.1763  -14.9281 C   0  0  0  0  0  0  0  0  0  0  0  0
   27.0570  -20.0504  -14.7342 O   0  0  0  0  0  0  0  0  0  0  0  0
   28.7545  -27.1929  -19.4666 N   0  0  0  0  0  0  0  0  0  0  0  0
   25.4023  -21.4830  -14.1080 C   0  0  2  0  0  0  0  0  0  0  0  0
   24.9241  -20.5408  -13.0841 C   0  0  0  0  0  0  0  0  0  0  0  0
   23.4814  -20.3058  -13.2268 C   0  0  0  0  0  0  0  0  0  0  0  0
   22.9739  -19.5859  -14.4229 C   0  0  0  0  0  0  0  0  0  0  0  0
   21.5201  -19.3739  -14.4089 O   0  0  0  0  0  0  0  0  0  0  0  0
   20.9531  -18.4438  -15.0154 C   0  0  0  0  0  0  0  0  0  0  0  0
   25.4117  -21.0709  -11.8059 O   0  0  0  0  0  0  0  0  0  0  0  0
   25.4648  -22.3193  -11.5244 O   0  0  0  0  0  0  0  0  0  0  0  0
   20.7306  -20.2654  -13.6792 N   0  0  0  0  0  0  0  0  0  0  0  0
   25.8812  -20.2285  -10.7430 C   0  0  2  0  0  0  0  0  0  0  0  0
   26.1978  -20.7704   -9.4066 C   0  0  0  0  0  0  0  0  0  0  0  0
   27.2010  -19.8675   -8.7465 C   0  0  0  0  0  0  0  0  0  0  0  0
   27.5804  -20.3089   -7.4113 C   0  0  0  0  0  0  0  0  0  0  0  0
   27.6417  -21.6413   -6.9665 N   0  0  0  0  0  0  0  0  0  0  0  0
   27.9797  -21.6729   -5.6734 C   0  0  0  0  0  0  0  0  0  0  0  0
   28.1561  -20.4237   -5.2042 C   0  0  0  0  0  0  0  0  0  0  0  0
   28.5251  -19.9405   -3.9606 C   0  0  0  0  0  0  0  0  0  0  0  0
   28.6426  -18.5738   -3.8271 C   0  0  0  0  0  0  0  0  0  0  0  0
   28.4103  -17.7137   -4.8615 C   0  0  0  0  0  0  0  0  0  0  0  0
   28.0438  -18.2249   -6.0856 C   0  0  0  0  0  0  0  0  0  0  0  0
   27.9090  -19.5795   -6.2809 C   0  0  0  0  0  0  0  0  0  0  0  0
   25.0286  -20.9984   -8.5796 O   0  0  0  0  0  0  0  0  0  0  0  0
   24.8862  -22.0429   -7.6969 O   0  0  0  0  0  0  0  0  0  0  0  0
  2  3  2  0
  2  1  1  0
  4  2  1  0
  5  4  1  0
  6  5  1  0
  7  6  1  0
  8  7  1  0
  8  9  1  6
 10  8  1  0
 10 11  2  0
 12 10  1  0
 13 12  1  0
 13 18  1  0
 13 14  1  6
 15 14  1  0
 16 17  2  0
 16 15  1  0
 18 21  1  0
 18 19  2  0
 20 16  1  0
 21 22  1  0
 22 23  1  6
 23 24  1  0
 24 32  1  0
 25 26  1  0
 25 24  2  0
 26 27  1  0
 27 32  2  0
 27 28  1  0
 28 29  2  0
 29 30  1  0
 31 30  2  0
 32 31  1  0
 33 22  1  0
 33 34  1  0
 35 33  2  0
M  END
$$$$
