REW.pdb
     RDKit          3D

 35 36  0  0  1  0  0  0  0  0999 V2000
   27.9266  -28.6027  -18.2939 N   0  0  0  0  0  0  0  0  0  0  0  0
   27.2329  -28.9184  -17.0948 C   0  0  0  0  0  0  0  0  0  0  0  0
   27.7407  -29.7819  -16.2878 N   0  0  0  0  0  0  0  0  0  0  0  0
   25.9934  -28.2884  -16.7915 N   0  0  0  0  0  0  0  0  0  0  0  0
   25.4978  -27.1458  -17.5639 C   0  0  0  0  0  0  0  0  0  0  0  0
   26.5379  -26.0688  -17.5543 C   0  0  0  0  0  0  0  0  0  0  0  0
   26.0730  -24.8166  -16.9219 C   0  0  0  0  0  0  0  0  0  0  0  0
   27.0603  -23.7188  -16.9363 C   0  0  2  0  0  0  0  0  0  0  0  0
   28.2898  -23.9833  -16.2523 N   0  0  0  0  0  0  0  0  0  0  0  0
   26.4432  -22.4753  -16.3832 C   0  0  0  0  0  0  0  0  0  0  0  0
   26.8273  -22.0007  -15.2631 O   0  0  0  0  0  0  0  0  0  0  0  0
   28.6424  -30.2185  -16.5215 N   0  0  0  0  0  0  0  0  0  0  0  0
   25.4322  -21.7798  -17.0485 C   0  0  1  0  0  0  0  0  0  0  0  0
   24.9301  -20.4908  -16.5471 C   0  0  0  0  0  0  0  0  0  0  0  0
   24.8942  -19.4924  -17.6236 C   0  0  0  0  0  0  0  0  0  0  0  0
   24.2951  -18.1586  -17.3624 C   0  0  0  0  0  0  0  0  0  0  0  0
   24.4039  -17.2323  -18.4977 O   0  0  0  0  0  0  0  0  0  0  0  0
   24.8937  -17.5474  -19.6001 C   0  0  0  0  0  0  0  0  0  0  0  0
   23.6743  -20.8022  -15.8553 O   0  0  0  0  0  0  0  0  0  0  0  0
   22.8314  -21.6755  -16.2643 O   0  0  0  0  0  0  0  0  0  0  0  0
   23.9293  -15.9291  -18.3336 N   0  0  0  0  0  0  0  0  0  0  0  0
   23.2727  -20.1500  -14.6416 C   0  0  2  0  0  0  0  0  0  0  0  0
   21.9631  -20.4176  -14.0145 C   0  0  0  0  0  0  0  0  0  0  0  0
   21.8920  -19.6721  -12.7119 C   0  0  0  0  0  0  0  0  0  0  0  0
   20.6251  -19.8511  -12.0158 C   0  0  0  0  0  0  0  0  0  0  0  0
   20.3200  -20.8764  -11.1034 N   0  0  0  0  0  0  0  0  0  0  0  0
   19.0520  -20.7591  -10.6964 C   0  0  0  0  0  0  0  0  0  0  0  0
   18.4669  -19.6991  -11.2845 C   0  0  0  0  0  0  0  0  0  0  0  0
   17.1974  -19.1581  -11.1756 C   0  0  0  0  0  0  0  0  0  0  0  0
   16.9317  -18.0254  -11.9143 C   0  0  0  0  0  0  0  0  0  0  0  0
   17.8634  -17.4438  -12.7252 C   0  0  0  0  0  0  0  0  0  0  0  0
   19.1164  -18.0062  -12.8130 C   0  0  0  0  0  0  0  0  0  0  0  0
   19.4416  -19.1371  -12.1012 C   0  0  0  0  0  0  0  0  0  0  0  0
   20.8348  -20.1313  -14.8794 O   0  0  0  0  0  0  0  0  0  0  0  0
   20.8101  -19.1385  -15.8303 O   0  0  0  0  0  0  0  0  0  0  0  0
  2  3  2  0
  2  1  1  0
  4  2  1  0
  5  4  1  0
  6  5  1  0
  7  6  1  0
  8  7  1  0
  8  9  1  1
 10  8  1  0
 10 11  2  0
 12 10  1  0
 13 12  1  0
 13 18  1  0
 13 14  1  1
 15 14  1  0
 16 17  2  0
 16 15  1  0
 18 21  1  0
 18 19  2  0
 20 16  1  0
 21 22  1  0
 22 23  1  1
 23 24  1  0
 24 32  1  0
 25 26  1  0
 25 24  2  0
 26 27  1  0
 27 32  2  0
 27 28  1  0
 28 29  2  0
 29 30  1  0
 31 30  2  0
 32 31  1  0
 33 22  1  0
 33 34  1  0
 35 33  2  0
M  END
$$$$
