REW.pdb
     RDKit          3D

 35 36  0  0  1  0  0  0  0  0999 V2000
   16.6418  -19.4621    0.5241 N   0  0  0  0  0  0  0  0  0  0  0  0
   16.3706  -20.7594    1.0360 C   0  0  0  0  0  0  0  0  0  0  0  0
   16.7498  -21.7884    0.3635 N   0  0  0  0  0  0  0  0  0  0  0  0
   15.6886  -20.9178    2.2749 N   0  0  0  0  0  0  0  0  0  0  0  0
   14.9724  -19.8083    2.9103 C   0  0  0  0  0  0  0  0  0  0  0  0
   14.4903  -20.2525    4.2565 C   0  0  0  0  0  0  0  0  0  0  0  0
   13.7614  -19.1972    4.9908 C   0  0  0  0  0  0  0  0  0  0  0  0
   13.2661  -19.6056    6.3205 C   0  0  2  0  0  0  0  0  0  0  0  0
   11.8432  -19.6021    6.4786 N   0  0  0  0  0  0  0  0  0  0  0  0
   13.8840  -18.7478    7.3765 C   0  0  0  0  0  0  0  0  0  0  0  0
   13.1816  -18.2933    8.3395 O   0  0  0  0  0  0  0  0  0  0  0  0
   16.7351  -22.7145    0.8113 N   0  0  0  0  0  0  0  0  0  0  0  0
   15.2366  -18.4032    7.3664 C   0  0  2  0  0  0  0  0  0  0  0  0
   15.8510  -17.6748    8.4875 C   0  0  0  0  0  0  0  0  0  0  0  0
   15.6448  -18.3948    9.7509 C   0  0  0  0  0  0  0  0  0  0  0  0
   16.2245  -19.7518    9.9206 C   0  0  0  0  0  0  0  0  0  0  0  0
   16.3493  -20.1667   11.3246 O   0  0  0  0  0  0  0  0  0  0  0  0
   15.3905  -20.2025   12.1208 C   0  0  0  0  0  0  0  0  0  0  0  0
   17.2302  -17.4018    8.0683 O   0  0  0  0  0  0  0  0  0  0  0  0
   17.8308  -18.0369    7.1321 O   0  0  0  0  0  0  0  0  0  0  0  0
   17.6102  -20.5448   11.7910 N   0  0  0  0  0  0  0  0  0  0  0  0
   18.0406  -16.3846    8.6752 C   0  0  1  0  0  0  0  0  0  0  0  0
   18.7139  -15.3466    7.8695 C   0  0  0  0  0  0  0  0  0  0  0  0
   17.6833  -14.6433    7.0325 C   0  0  0  0  0  0  0  0  0  0  0  0
   18.2628  -13.7636    6.0265 C   0  0  0  0  0  0  0  0  0  0  0  0
   18.7869  -12.4790    6.2537 N   0  0  0  0  0  0  0  0  0  0  0  0
   19.1894  -11.9421    5.0974 C   0  0  0  0  0  0  0  0  0  0  0  0
   18.9686  -12.7970    4.0815 C   0  0  0  0  0  0  0  0  0  0  0  0
   19.2269  -12.7152    2.7240 C   0  0  0  0  0  0  0  0  0  0  0  0
   18.8927  -13.8082    1.9539 C   0  0  0  0  0  0  0  0  0  0  0  0
   18.3303  -14.9337    2.4836 C   0  0  0  0  0  0  0  0  0  0  0  0
   18.0846  -14.9839    3.8369 C   0  0  0  0  0  0  0  0  0  0  0  0
   18.3951  -13.9249    4.6574 C   0  0  0  0  0  0  0  0  0  0  0  0
   19.5113  -14.4258    8.6565 O   0  0  0  0  0  0  0  0  0  0  0  0
   20.7532  -13.9599    8.2948 O   0  0  0  0  0  0  0  0  0  0  0  0
  2  3  2  0
  2  1  1  0
  4  2  1  0
  5  4  1  0
  6  5  1  0
  7  6  1  0
  8  7  1  0
  8  9  1  6
 10  8  1  0
 10 11  2  0
 12 10  1  0
 13 12  1  0
 13 18  1  0
 13 14  1  6
 15 14  1  0
 16 17  2  0
 16 15  1  0
 18 21  1  0
 18 19  2  0
 20 16  1  0
 21 22  1  0
 22 23  1  1
 23 24  1  0
 24 32  1  0
 25 26  1  0
 25 24  2  0
 26 27  1  0
 27 32  2  0
 27 28  1  0
 28 29  2  0
 29 30  1  0
 31 30  2  0
 32 31  1  0
 33 22  1  0
 33 34  1  0
 35 33  2  0
M  END
$$$$
