REW.pdb
     RDKit          3D

 35 36  0  0  1  0  0  0  0  0999 V2000
   23.9006  -12.4682  -16.0324 N   0  0  0  0  0  0  0  0  0  0  0  0
   23.1643  -13.6689  -15.8455 C   0  0  0  0  0  0  0  0  0  0  0  0
   22.0943  -13.6412  -15.1319 N   0  0  0  0  0  0  0  0  0  0  0  0
   23.6050  -14.8850  -16.4389 N   0  0  0  0  0  0  0  0  0  0  0  0
   24.2655  -15.9325  -15.6552 C   0  0  0  0  0  0  0  0  0  0  0  0
   25.4996  -15.3612  -15.0287 C   0  0  0  0  0  0  0  0  0  0  0  0
   26.3555  -16.3837  -14.3916 C   0  0  0  0  0  0  0  0  0  0  0  0
   26.7970  -17.4642  -15.2960 C   0  0  2  0  0  0  0  0  0  0  0  0
   26.5621  -17.2389  -16.6901 N   0  0  0  0  0  0  0  0  0  0  0  0
   26.1644  -18.7554  -14.8892 C   0  0  0  0  0  0  0  0  0  0  0  0
   25.0999  -19.1667  -15.4592 O   0  0  0  0  0  0  0  0  0  0  0  0
   21.6038  -14.5220  -14.9274 N   0  0  0  0  0  0  0  0  0  0  0  0
   26.6930  -19.5652  -13.8826 C   0  0  1  0  0  0  0  0  0  0  0  0
   26.0337  -20.8176  -13.4803 C   0  0  0  0  0  0  0  0  0  0  0  0
   26.2198  -21.8550  -14.5031 C   0  0  0  0  0  0  0  0  0  0  0  0
   25.6133  -23.1959  -14.3015 C   0  0  0  0  0  0  0  0  0  0  0  0
   25.9437  -24.1565  -15.3631 O   0  0  0  0  0  0  0  0  0  0  0  0
   26.6788  -23.8863  -16.3331 C   0  0  0  0  0  0  0  0  0  0  0  0
   26.5159  -21.0954  -12.1228 O   0  0  0  0  0  0  0  0  0  0  0  0
   27.7014  -20.8292  -11.7177 O   0  0  0  0  0  0  0  0  0  0  0  0
   25.4074  -25.4433  -15.2784 N   0  0  0  0  0  0  0  0  0  0  0  0
   25.6920  -21.6959  -11.1127 C   0  0  1  0  0  0  0  0  0  0  0  0
   25.6300  -21.1550   -9.7402 C   0  0  0  0  0  0  0  0  0  0  0  0
   26.6594  -20.0691   -9.6040 C   0  0  0  0  0  0  0  0  0  0  0  0
   27.8338  -20.4822   -8.8479 C   0  0  0  0  0  0  0  0  0  0  0  0
   28.9302  -21.2041   -9.3514 N   0  0  0  0  0  0  0  0  0  0  0  0
   29.8018  -21.4500   -8.3679 C   0  0  0  0  0  0  0  0  0  0  0  0
   29.3588  -20.9303   -7.2081 C   0  0  0  0  0  0  0  0  0  0  0  0
   29.9007  -20.9011   -5.9346 C   0  0  0  0  0  0  0  0  0  0  0  0
   29.1801  -20.2452   -4.9600 C   0  0  0  0  0  0  0  0  0  0  0  0
   27.9816  -19.6431   -5.2148 C   0  0  0  0  0  0  0  0  0  0  0  0
   27.4685  -19.6906   -6.4910 C   0  0  0  0  0  0  0  0  0  0  0  0
   28.1402  -20.3308   -7.5059 C   0  0  0  0  0  0  0  0  0  0  0  0
   24.3049  -20.7153   -9.3478 O   0  0  0  0  0  0  0  0  0  0  0  0
   23.8142  -20.7592   -8.0642 O   0  0  0  0  0  0  0  0  0  0  0  0
  2  3  2  0
  2  1  1  0
  4  2  1  0
  5  4  1  0
  6  5  1  0
  7  6  1  0
  8  7  1  0
  8  9  1  6
 10  8  1  0
 10 11  2  0
 12 10  1  0
 13 12  1  0
 13 18  1  0
 13 14  1  1
 15 14  1  0
 16 17  2  0
 16 15  1  0
 18 21  1  0
 18 19  2  0
 20 16  1  0
 21 22  1  0
 22 23  1  1
 23 24  1  0
 24 32  1  0
 25 26  1  0
 25 24  2  0
 26 27  1  0
 27 32  2  0
 27 28  1  0
 28 29  2  0
 29 30  1  0
 31 30  2  0
 32 31  1  0
 33 22  1  0
 33 34  1  0
 35 33  2  0
M  END
$$$$
