REW.pdb
     RDKit          3D

 35 36  0  0  1  0  0  0  0  0999 V2000
   31.7920  -17.6199  -19.6229 N   0  0  0  0  0  0  0  0  0  0  0  0
   32.0117  -16.4439  -18.8564 C   0  0  0  0  0  0  0  0  0  0  0  0
   32.6084  -15.4440  -19.4031 N   0  0  0  0  0  0  0  0  0  0  0  0
   31.5783  -16.3739  -17.5027 N   0  0  0  0  0  0  0  0  0  0  0  0
   30.8616  -17.4804  -16.8625 C   0  0  0  0  0  0  0  0  0  0  0  0
   29.4367  -17.4629  -17.3220 C   0  0  0  0  0  0  0  0  0  0  0  0
   28.5052  -16.9248  -16.3087 C   0  0  0  0  0  0  0  0  0  0  0  0
   27.0801  -16.9884  -16.6902 C   0  0  2  0  0  0  0  0  0  0  0  0
   26.5563  -15.8163  -17.3236 N   0  0  0  0  0  0  0  0  0  0  0  0
   26.2494  -17.3177  -15.4926 C   0  0  0  0  0  0  0  0  0  0  0  0
   26.0578  -16.4522  -14.5753 O   0  0  0  0  0  0  0  0  0  0  0  0
   32.7927  -14.6012  -18.8427 N   0  0  0  0  0  0  0  0  0  0  0  0
   25.6503  -18.5660  -15.3156 C   0  0  1  0  0  0  0  0  0  0  0  0
   24.9655  -18.9173  -14.0615 C   0  0  0  0  0  0  0  0  0  0  0  0
   23.5141  -19.0040  -14.2681 C   0  0  0  0  0  0  0  0  0  0  0  0
   22.6588  -19.5876  -13.2032 C   0  0  0  0  0  0  0  0  0  0  0  0
   21.2458  -19.7127  -13.5861 O   0  0  0  0  0  0  0  0  0  0  0  0
   20.7102  -20.7933  -13.9022 C   0  0  0  0  0  0  0  0  0  0  0  0
   25.6608  -20.1060  -13.5555 O   0  0  0  0  0  0  0  0  0  0  0  0
   25.9358  -21.1314  -14.2720 O   0  0  0  0  0  0  0  0  0  0  0  0
   20.4596  -18.5584  -13.5929 N   0  0  0  0  0  0  0  0  0  0  0  0
   26.1031  -20.2281  -12.1956 C   0  0  2  0  0  0  0  0  0  0  0  0
   26.6960  -21.4793  -11.6827 C   0  0  0  0  0  0  0  0  0  0  0  0
   27.6869  -21.1364  -10.6066 C   0  0  0  0  0  0  0  0  0  0  0  0
   27.0611  -20.6728   -9.3757 C   0  0  0  0  0  0  0  0  0  0  0  0
   25.6793  -20.5682   -9.1385 N   0  0  0  0  0  0  0  0  0  0  0  0
   25.4652  -20.0620   -7.9198 C   0  0  0  0  0  0  0  0  0  0  0  0
   26.6354  -19.8131   -7.3032 C   0  0  0  0  0  0  0  0  0  0  0  0
   26.9379  -19.3170   -6.0468 C   0  0  0  0  0  0  0  0  0  0  0  0
   28.2720  -19.2130   -5.7168 C   0  0  0  0  0  0  0  0  0  0  0  0
   29.2698  -19.5767   -6.5746 C   0  0  0  0  0  0  0  0  0  0  0  0
   28.9368  -20.0653   -7.8174 C   0  0  0  0  0  0  0  0  0  0  0  0
   27.6234  -20.1917   -8.2051 C   0  0  0  0  0  0  0  0  0  0  0  0
   25.7134  -22.4507  -11.2424 O   0  0  0  0  0  0  0  0  0  0  0  0
   25.9615  -23.7922  -11.0714 O   0  0  0  0  0  0  0  0  0  0  0  0
  2  3  2  0
  2  1  1  0
  4  2  1  0
  5  4  1  0
  6  5  1  0
  7  6  1  0
  8  7  1  0
  8  9  1  1
 10  8  1  0
 10 11  2  0
 12 10  1  0
 13 12  1  0
 13 18  1  0
 13 14  1  1
 15 14  1  0
 16 17  2  0
 16 15  1  0
 18 21  1  0
 18 19  2  0
 20 16  1  0
 21 22  1  0
 22 23  1  6
 23 24  1  0
 24 32  1  0
 25 26  1  0
 25 24  2  0
 26 27  1  0
 27 32  2  0
 27 28  1  0
 28 29  2  0
 29 30  1  0
 31 30  2  0
 32 31  1  0
 33 22  1  0
 33 34  1  0
 35 33  2  0
M  END
$$$$
