REW.pdb
     RDKit          3D

 35 36  0  0  1  0  0  0  0  0999 V2000
   21.4070  -17.1109  -17.2246 N   0  0  0  0  0  0  0  0  0  0  0  0
   21.7104  -18.4920  -17.0860 C   0  0  0  0  0  0  0  0  0  0  0  0
   21.0404  -19.3508  -17.7704 N   0  0  0  0  0  0  0  0  0  0  0  0
   22.7406  -18.9190  -16.2019 N   0  0  0  0  0  0  0  0  0  0  0  0
   23.4875  -17.9711  -15.3706 C   0  0  0  0  0  0  0  0  0  0  0  0
   24.4629  -17.2345  -16.2355 C   0  0  0  0  0  0  0  0  0  0  0  0
   25.8353  -17.2254  -15.6875 C   0  0  0  0  0  0  0  0  0  0  0  0
   26.7077  -18.3008  -16.2001 C   0  0  2  0  0  0  0  0  0  0  0  0
   26.2271  -18.9869  -17.3610 N   0  0  0  0  0  0  0  0  0  0  0  0
   26.9800  -19.2922  -15.1158 C   0  0  0  0  0  0  0  0  0  0  0  0
   26.2945  -20.3643  -15.0268 O   0  0  0  0  0  0  0  0  0  0  0  0
   21.2468  -20.3525  -17.6600 N   0  0  0  0  0  0  0  0  0  0  0  0
   27.9791  -19.1024  -14.1596 C   0  0  1  0  0  0  0  0  0  0  0  0
   28.2237  -20.0925  -13.0989 C   0  0  0  0  0  0  0  0  0  0  0  0
   29.6342  -20.0793  -12.6903 C   0  0  0  0  0  0  0  0  0  0  0  0
   30.6801  -20.4844  -13.6642 C   0  0  0  0  0  0  0  0  0  0  0  0
   30.8767  -21.9382  -13.7454 O   0  0  0  0  0  0  0  0  0  0  0  0
   30.7536  -22.7061  -12.7709 C   0  0  0  0  0  0  0  0  0  0  0  0
   27.2079  -19.8273  -12.0740 O   0  0  0  0  0  0  0  0  0  0  0  0
   26.7566  -18.6601  -11.8012 O   0  0  0  0  0  0  0  0  0  0  0  0
   31.2165  -22.4897  -14.9827 N   0  0  0  0  0  0  0  0  0  0  0  0
   26.6191  -20.8647  -11.2760 C   0  0  2  0  0  0  0  0  0  0  0  0
   25.4158  -20.6228  -10.4552 C   0  0  0  0  0  0  0  0  0  0  0  0
   24.3476  -20.0306  -11.3302 C   0  0  0  0  0  0  0  0  0  0  0  0
   23.0435  -19.9703  -10.6841 C   0  0  0  0  0  0  0  0  0  0  0  0
   22.7935  -19.5645   -9.3614 N   0  0  0  0  0  0  0  0  0  0  0  0
   21.4893  -19.6793   -9.0905 C   0  0  0  0  0  0  0  0  0  0  0  0
   20.8263  -20.1447  -10.1654 C   0  0  0  0  0  0  0  0  0  0  0  0
   19.4860  -20.4086  -10.3893 C   0  0  0  0  0  0  0  0  0  0  0  0
   19.1354  -20.8598  -11.6434 C   0  0  0  0  0  0  0  0  0  0  0  0
   20.0519  -21.0464  -12.6380 C   0  0  0  0  0  0  0  0  0  0  0  0
   21.3773  -20.7762  -12.3839 C   0  0  0  0  0  0  0  0  0  0  0  0
   21.7891  -20.3244  -11.1521 C   0  0  0  0  0  0  0  0  0  0  0  0
   24.9567  -21.7957   -9.7365 O   0  0  0  0  0  0  0  0  0  0  0  0
   25.0181  -23.0821  -10.2181 O   0  0  0  0  0  0  0  0  0  0  0  0
  2  3  2  0
  2  1  1  0
  4  2  1  0
  5  4  1  0
  6  5  1  0
  7  6  1  0
  8  7  1  0
  8  9  1  6
 10  8  1  0
 10 11  2  0
 12 10  1  0
 13 12  1  0
 13 18  1  0
 13 14  1  1
 15 14  1  0
 16 17  2  0
 16 15  1  0
 18 21  1  0
 18 19  2  0
 20 16  1  0
 21 22  1  0
 22 23  1  6
 23 24  1  0
 24 32  1  0
 25 26  1  0
 25 24  2  0
 26 27  1  0
 27 32  2  0
 27 28  1  0
 28 29  2  0
 29 30  1  0
 31 30  2  0
 32 31  1  0
 33 22  1  0
 33 34  1  0
 35 33  2  0
M  END
$$$$
