FCL.pdb
     RDKit          3D

 26 26  0  0  1  0  0  0  0  0999 V2000
    5.6278  -18.0066   23.7431 N   0  0  0  0  0  0  0  0  0  0  0  0
    6.5229  -16.8928   23.9624 C   0  0  1  0  0  0  0  0  0  0  0  0
    6.0288  -16.1198   25.1730 C   0  0  0  0  0  0  0  0  0  0  0  0
    6.2731  -14.6717   24.9942 C   0  0  0  0  0  0  0  0  0  0  0  0
    5.8213  -13.7446   25.9343 C   0  0  0  0  0  0  0  0  0  0  0  0
    6.0643  -12.4186   25.7359 C   0  0  0  0  0  0  0  0  0  0  0  0
    6.7503  -11.9749   24.6201 C   0  0  0  0  0  0  0  0  0  0  0  0
    7.1994  -12.8826   23.6879 C   0  0  0  0  0  0  0  0  0  0  0  0
    6.9520  -14.2129   23.8932 C   0  0  0  0  0  0  0  0  0  0  0  0
    7.8886  -17.3930   24.1090 C   0  0  0  0  0  0  0  0  0  0  0  0
    8.1972  -18.2364   25.0222 O   0  0  0  0  0  0  0  0  0  0  0  0
    8.9034  -16.9380   23.2218 N   0  0  0  0  0  0  0  0  0  0  0  0
   10.2992  -17.2526   23.4521 C   0  0  1  0  0  0  0  0  0  0  0  0
   11.1666  -16.7765   22.2918 C   0  0  0  0  0  0  0  0  0  0  0  0
   12.8893  -17.1903   22.6760 S   0  0  0  0  0  0  0  0  0  0  0  0
   10.8189  -16.5810   24.6691 C   0  0  0  0  0  0  0  0  0  0  0  0
   10.8675  -15.3242   24.7125 O   0  0  0  0  0  0  0  0  0  0  0  0
    9.0869  -14.4053   29.0876 C   0  0  0  0  0  0  0  0  0  0  0  0
   10.4240  -15.1081   28.8229 C   0  0  2  0  0  0  0  0  0  0  0  0
   11.5197  -14.1095   28.9747 C   0  0  0  0  0  0  0  0  0  0  0  0
   10.3562  -15.7582   27.4911 C   0  0  0  0  0  0  0  0  0  0  0  0
   11.5221  -16.5930   27.1007 C   0  0  2  0  0  0  0  0  0  0  0  0
   11.2756  -17.2742   25.8147 N   0  0  0  0  0  0  0  0  0  0  0  0
   11.7736  -17.6442   28.0888 C   0  0  0  0  0  0  0  0  0  0  0  0
   12.6746  -17.5126   28.9386 O   0  0  0  0  0  0  0  0  0  0  0  0
   11.0192  -18.7979   28.0976 O   0  0  0  0  0  0  0  0  0  0  0  0
  2  1  1  1
  2 10  1  0
  3  2  1  0
  3  4  1  0
  4  9  2  0
  5  4  1  0
  5  6  2  0
  6  7  1  0
  7  8  2  0
  9  8  1  0
 10 11  2  0
 12 13  1  0
 12 10  1  0
 13 16  1  0
 13 14  1  6
 15 14  1  0
 16 23  1  0
 16 17  2  0
 19 18  1  6
 19 20  1  0
 21 19  1  0
 22 21  1  1
 22 24  1  0
 23 22  1  0
 24 25  2  0
 24 26  1  0
M  END
$$$$
