FCL.pdb
     RDKit          3D

 26 26  0  0  1  0  0  0  0  0999 V2000
    7.4956  -17.0606   20.9696 N   0  0  0  0  0  0  0  0  0  0  0  0
    8.5125  -16.5313   21.8504 C   0  0  1  0  0  0  0  0  0  0  0  0
    8.0683  -15.1543   22.3126 C   0  0  0  0  0  0  0  0  0  0  0  0
    7.8779  -14.2578   21.1513 C   0  0  0  0  0  0  0  0  0  0  0  0
    7.9092  -14.7535   19.8472 C   0  0  0  0  0  0  0  0  0  0  0  0
    7.7303  -13.8977   18.8021 C   0  0  0  0  0  0  0  0  0  0  0  0
    7.5183  -12.5471   19.0102 C   0  0  0  0  0  0  0  0  0  0  0  0
    7.4860  -12.0498   20.2932 C   0  0  0  0  0  0  0  0  0  0  0  0
    7.6663  -12.9147   21.3383 C   0  0  0  0  0  0  0  0  0  0  0  0
    8.7357  -17.4699   22.9486 C   0  0  0  0  0  0  0  0  0  0  0  0
    7.9953  -18.5031   23.1058 O   0  0  0  0  0  0  0  0  0  0  0  0
    9.7966  -17.2379   23.8676 N   0  0  0  0  0  0  0  0  0  0  0  0
   10.3230  -18.3066   24.6929 C   0  0  1  0  0  0  0  0  0  0  0  0
   10.9339  -19.4102   23.8359 C   0  0  0  0  0  0  0  0  0  0  0  0
   11.5568  -20.6999   24.9473 S   0  0  0  0  0  0  0  0  0  0  0  0
   11.4021  -17.8251   25.5907 C   0  0  0  0  0  0  0  0  0  0  0  0
   12.1576  -18.6575   26.1561 O   0  0  0  0  0  0  0  0  0  0  0  0
    8.1393  -13.6381   27.7402 C   0  0  0  0  0  0  0  0  0  0  0  0
    9.4425  -14.3451   28.1322 C   0  0  2  0  0  0  0  0  0  0  0  0
   10.3824  -13.3291   28.6843 C   0  0  0  0  0  0  0  0  0  0  0  0
    9.9499  -15.0825   26.9490 C   0  0  0  0  0  0  0  0  0  0  0  0
   11.2283  -15.8196   27.1253 C   0  0  2  0  0  0  0  0  0  0  0  0
   11.6468  -16.4584   25.8622 N   0  0  0  0  0  0  0  0  0  0  0  0
   11.0869  -16.8941   28.1101 C   0  0  0  0  0  0  0  0  0  0  0  0
   11.6624  -16.8232   29.2124 O   0  0  0  0  0  0  0  0  0  0  0  0
   10.3152  -18.0033   27.8369 O   0  0  0  0  0  0  0  0  0  0  0  0
  2  1  1  6
  2 10  1  0
  3  2  1  0
  3  4  1  0
  4  9  2  0
  5  4  1  0
  5  6  2  0
  6  7  1  0
  7  8  2  0
  9  8  1  0
 10 11  2  0
 12 13  1  0
 12 10  1  0
 13 16  1  0
 13 14  1  6
 15 14  1  0
 16 23  1  0
 16 17  2  0
 19 18  1  6
 19 20  1  0
 21 19  1  0
 22 21  1  6
 22 24  1  0
 23 22  1  0
 24 25  2  0
 24 26  1  0
M  END
$$$$
