FCL.pdb
     RDKit          3D

 26 26  0  0  1  0  0  0  0  0999 V2000
    8.0286  -15.5937   20.1309 N   0  0  0  0  0  0  0  0  0  0  0  0
    8.0582  -15.0783   21.4812 C   0  0  1  0  0  0  0  0  0  0  0  0
    6.7130  -14.4358   21.7723 C   0  0  0  0  0  0  0  0  0  0  0  0
    6.6778  -13.9198   23.1583 C   0  0  0  0  0  0  0  0  0  0  0  0
    7.1963  -12.6625   23.4712 C   0  0  0  0  0  0  0  0  0  0  0  0
    7.1469  -12.2204   24.7591 C   0  0  0  0  0  0  0  0  0  0  0  0
    6.5924  -12.9949   25.7617 C   0  0  0  0  0  0  0  0  0  0  0  0
    6.0787  -14.2361   25.4618 C   0  0  0  0  0  0  0  0  0  0  0  0
    6.1314  -14.6741   24.1663 C   0  0  0  0  0  0  0  0  0  0  0  0
    8.3979  -16.1605   22.4034 C   0  0  0  0  0  0  0  0  0  0  0  0
    7.5654  -17.0961   22.6717 O   0  0  0  0  0  0  0  0  0  0  0  0
    9.6794  -16.1823   23.0208 N   0  0  0  0  0  0  0  0  0  0  0  0
   10.0251  -17.1944   23.9987 C   0  0  1  0  0  0  0  0  0  0  0  0
   10.8971  -18.2806   23.3780 C   0  0  0  0  0  0  0  0  0  0  0  0
   10.0240  -18.9391   21.9320 S   0  0  0  0  0  0  0  0  0  0  0  0
   10.8030  -16.6238   25.1265 C   0  0  0  0  0  0  0  0  0  0  0  0
   11.9104  -16.0705   24.9004 O   0  0  0  0  0  0  0  0  0  0  0  0
   11.6175  -13.4189   27.2343 C   0  0  0  0  0  0  0  0  0  0  0  0
   10.4363  -14.1999   27.8229 C   0  0  2  0  0  0  0  0  0  0  0  0
    9.6637  -13.2870   28.7120 C   0  0  0  0  0  0  0  0  0  0  0  0
   10.9639  -15.4161   28.4890 C   0  0  0  0  0  0  0  0  0  0  0  0
   11.3189  -16.5557   27.6037 C   0  0  2  0  0  0  0  0  0  0  0  0
   10.3743  -16.6597   26.4742 N   0  0  0  0  0  0  0  0  0  0  0  0
   11.2480  -17.8277   28.3260 C   0  0  0  0  0  0  0  0  0  0  0  0
   12.0704  -18.0938   29.2227 O   0  0  0  0  0  0  0  0  0  0  0  0
   10.2713  -18.7537   28.0280 O   0  0  0  0  0  0  0  0  0  0  0  0
  2  1  1  6
  2 10  1  0
  3  2  1  0
  3  4  1  0
  4  9  2  0
  5  4  1  0
  5  6  2  0
  6  7  1  0
  7  8  2  0
  9  8  1  0
 10 11  2  0
 12 13  1  0
 12 10  1  0
 13 16  1  0
 13 14  1  6
 15 14  1  0
 16 23  1  0
 16 17  2  0
 19 18  1  1
 19 20  1  0
 21 19  1  0
 22 21  1  1
 22 24  1  0
 23 22  1  0
 24 25  2  0
 24 26  1  0
M  END
$$$$
