FCL.pdb
     RDKit          3D

 26 26  0  0  1  0  0  0  0  0999 V2000
    7.7595  -18.0963   19.9477 N   0  0  0  0  0  0  0  0  0  0  0  0
    8.0691  -16.9762   20.8076 C   0  0  1  0  0  0  0  0  0  0  0  0
    6.9011  -16.0062   20.7604 C   0  0  0  0  0  0  0  0  0  0  0  0
    7.3862  -14.6265   20.5372 C   0  0  0  0  0  0  0  0  0  0  0  0
    7.8846  -14.2314   19.2950 C   0  0  0  0  0  0  0  0  0  0  0  0
    8.3231  -12.9524   19.1265 C   0  0  0  0  0  0  0  0  0  0  0  0
    8.2833  -12.0388   20.1640 C   0  0  0  0  0  0  0  0  0  0  0  0
    7.7933  -12.4201   21.3924 C   0  0  0  0  0  0  0  0  0  0  0  0
    7.3545  -13.7062   21.5548 C   0  0  0  0  0  0  0  0  0  0  0  0
    8.3636  -17.4673   22.1525 C   0  0  0  0  0  0  0  0  0  0  0  0
    7.8376  -18.5458   22.6004 O   0  0  0  0  0  0  0  0  0  0  0  0
    9.2532  -16.7372   22.9889 N   0  0  0  0  0  0  0  0  0  0  0  0
    9.4766  -17.1245   24.3674 C   0  0  1  0  0  0  0  0  0  0  0  0
   10.7326  -17.9793   24.4996 C   0  0  0  0  0  0  0  0  0  0  0  0
   12.0700  -17.1492   23.6003 S   0  0  0  0  0  0  0  0  0  0  0  0
    9.6776  -15.9432   25.2430 C   0  0  0  0  0  0  0  0  0  0  0  0
   10.4472  -15.0191   24.8726 O   0  0  0  0  0  0  0  0  0  0  0  0
    7.4274  -12.5765   26.1023 C   0  0  0  0  0  0  0  0  0  0  0  0
    6.9500  -13.7511   26.9649 C   0  0  2  0  0  0  0  0  0  0  0  0
    5.6465  -13.3811   27.5852 C   0  0  0  0  0  0  0  0  0  0  0  0
    8.0237  -14.0899   27.9310 C   0  0  0  0  0  0  0  0  0  0  0  0
    9.2942  -14.6042   27.3566 C   0  0  2  0  0  0  0  0  0  0  0  0
    9.0470  -15.7797   26.4988 N   0  0  0  0  0  0  0  0  0  0  0  0
   10.2114  -15.0420   28.4109 C   0  0  0  0  0  0  0  0  0  0  0  0
   10.7070  -14.2176   29.2022 O   0  0  0  0  0  0  0  0  0  0  0  0
   10.5436  -16.3728   28.5481 O   0  0  0  0  0  0  0  0  0  0  0  0
  2  1  1  6
  2 10  1  0
  3  2  1  0
  3  4  1  0
  4  9  2  0
  5  4  1  0
  5  6  2  0
  6  7  1  0
  7  8  2  0
  9  8  1  0
 10 11  2  0
 12 13  1  0
 12 10  1  0
 13 16  1  0
 13 14  1  6
 15 14  1  0
 16 23  1  0
 16 17  2  0
 19 18  1  1
 19 20  1  0
 21 19  1  0
 22 21  1  1
 22 24  1  0
 23 22  1  0
 24 25  2  0
 24 26  1  0
M  END
$$$$
