FCL.pdb
     RDKit          3D

 26 26  0  0  1  0  0  0  0  0999 V2000
    8.2284  -17.1853   18.6115 N   0  0  0  0  0  0  0  0  0  0  0  0
    9.1011  -17.1358   19.7630 C   0  0  1  0  0  0  0  0  0  0  0  0
    9.9136  -15.8547   19.6864 C   0  0  0  0  0  0  0  0  0  0  0  0
    9.0353  -14.6768   19.8589 C   0  0  0  0  0  0  0  0  0  0  0  0
    8.3658  -14.1134   18.7718 C   0  0  0  0  0  0  0  0  0  0  0  0
    7.5655  -13.0283   18.9686 C   0  0  0  0  0  0  0  0  0  0  0  0
    7.4048  -12.4752   20.2258 C   0  0  0  0  0  0  0  0  0  0  0  0
    8.0615  -13.0246   21.3035 C   0  0  0  0  0  0  0  0  0  0  0  0
    8.8637  -14.1143   21.0989 C   0  0  0  0  0  0  0  0  0  0  0  0
    8.2998  -17.2449   20.9807 C   0  0  0  0  0  0  0  0  0  0  0  0
    7.1695  -17.8473   20.9854 O   0  0  0  0  0  0  0  0  0  0  0  0
    8.7788  -16.6720   22.1916 N   0  0  0  0  0  0  0  0  0  0  0  0
    8.2947  -17.1252   23.4802 C   0  0  1  0  0  0  0  0  0  0  0  0
    8.7017  -18.5716   23.7404 C   0  0  0  0  0  0  0  0  0  0  0  0
    7.9973  -19.0718   25.3342 S   0  0  0  0  0  0  0  0  0  0  0  0
    8.8616  -16.3221   24.5921 C   0  0  0  0  0  0  0  0  0  0  0  0
   10.0358  -16.5465   24.9849 O   0  0  0  0  0  0  0  0  0  0  0  0
    7.2464  -12.2365   25.4670 C   0  0  0  0  0  0  0  0  0  0  0  0
    6.5543  -13.2769   26.3559 C   0  0  2  0  0  0  0  0  0  0  0  0
    5.4643  -12.5995   27.1134 C   0  0  0  0  0  0  0  0  0  0  0  0
    7.5838  -13.9310   27.2005 C   0  0  0  0  0  0  0  0  0  0  0  0
    8.6683  -14.6522   26.4845 C   0  0  2  0  0  0  0  0  0  0  0  0
    8.1544  -15.2941   25.2587 N   0  0  0  0  0  0  0  0  0  0  0  0
    9.2277  -15.7221   27.3133 C   0  0  0  0  0  0  0  0  0  0  0  0
    8.5986  -16.7826   27.4886 O   0  0  0  0  0  0  0  0  0  0  0  0
   10.4597  -15.5766   27.9145 O   0  0  0  0  0  0  0  0  0  0  0  0
  2  1  1  6
  2 10  1  0
  3  2  1  0
  3  4  1  0
  4  9  2  0
  5  4  1  0
  5  6  2  0
  6  7  1  0
  7  8  2  0
  9  8  1  0
 10 11  2  0
 12 13  1  0
 12 10  1  0
 13 16  1  0
 13 14  1  1
 15 14  1  0
 16 23  1  0
 16 17  2  0
 19 18  1  1
 19 20  1  0
 21 19  1  0
 22 21  1  1
 22 24  1  0
 23 22  1  0
 24 25  2  0
 24 26  1  0
M  END
$$$$
