RSN.pdb
     RDKit          3D

 26 25  0  0  1  0  0  0  0  0999 V2000
   28.7962  -18.2012  -19.6998 N   0  0  0  0  0  0  0  0  0  0  0  0
   28.6231  -19.6089  -19.4782 C   0  0  0  0  0  0  0  0  0  0  0  0
   28.3225  -20.3292  -20.4881 N   0  0  0  0  0  0  0  0  0  0  0  0
   28.7769  -20.1917  -18.1991 N   0  0  0  0  0  0  0  0  0  0  0  0
   28.9736  -19.4250  -16.9925 C   0  0  0  0  0  0  0  0  0  0  0  0
   27.6616  -19.1112  -16.3391 C   0  0  0  0  0  0  0  0  0  0  0  0
   27.7891  -19.0524  -14.8178 C   0  0  0  0  0  0  0  0  0  0  0  0
   27.9404  -20.5056  -14.3748 C   0  0  2  0  0  0  0  0  0  0  0  0
   28.3656  -21.3318  -15.4675 N   0  0  0  0  0  0  0  0  0  0  0  0
   26.6287  -20.9430  -13.8439 C   0  0  0  0  0  0  0  0  0  0  0  0
   25.7808  -21.4179  -14.6289 O   0  0  0  0  0  0  0  0  0  0  0  0
   28.0941  -21.3412  -20.4486 O   0  0  0  0  0  0  0  0  0  0  0  0
   25.2881  -19.8674   -9.9056 C   0  0  0  0  0  0  0  0  0  0  0  0
   25.3418  -21.1716  -10.3504 C   0  0  1  0  0  0  0  0  0  0  0  0
   25.1683  -21.3104  -11.8399 N   0  0  0  0  0  0  0  0  0  0  0  0
   26.3918  -20.8012  -12.4538 C   0  0  0  0  0  0  0  0  0  0  0  0
   24.0564  -20.5156  -12.3734 O   0  0  0  0  0  0  0  0  0  0  0  0
   24.3349  -19.4858  -13.0343 N   0  0  0  0  0  0  0  0  0  0  0  0
   20.9901  -20.5949  -16.7709 C   0  0  0  0  0  0  0  0  0  0  0  0
   21.0624  -20.1551  -15.4371 O   0  0  0  0  0  0  0  0  0  0  0  0
   20.2415  -19.3114  -15.0205 C   0  0  0  0  0  0  0  0  0  0  0  0
   22.0958  -20.6801  -14.5301 C   0  0  2  0  0  0  0  0  0  0  0  0
   21.7028  -20.3574  -13.1046 N   0  0  0  0  0  0  0  0  0  0  0  0
   22.7018  -20.8519  -12.1801 C   0  0  0  0  0  0  0  0  0  0  0  0
   20.3736  -20.8885  -12.7279 O   0  0  0  0  0  0  0  0  0  0  0  0
   19.3317  -20.2096  -12.6272 O   0  0  0  0  0  0  0  0  0  0  0  0
  2  1  1  0
  2  4  1  0
  3  2  2  0
  5  4  1  0
  5  6  1  0
  6  7  1  0
  7  8  1  0
  8  9  1  6
 10 11  2  0
 10  8  1  0
 12 13  1  0
 14 13  1  1
 14 15  1  0
 14 16  1  0
 15 10  1  0
 16 23  1  0
 17 16  2  0
 19 18  1  0
 20 19  2  0
 21 19  1  0
 22 21  1  6
 22 24  1  0
 23 22  1  0
 24 25  2  0
 24 26  1  0
M  END
$$$$
