RSN.pdb
     RDKit          3D

 26 25  0  0  1  0  0  0  0  0999 V2000
   23.7064  -25.8796  -14.9565 N   0  0  0  0  0  0  0  0  0  0  0  0
   22.3010  -25.8036  -15.2388 C   0  0  0  0  0  0  0  0  0  0  0  0
   21.6727  -26.9042  -15.3906 N   0  0  0  0  0  0  0  0  0  0  0  0
   21.6230  -24.5675  -15.3465 N   0  0  0  0  0  0  0  0  0  0  0  0
   22.1572  -23.3201  -14.8556 C   0  0  0  0  0  0  0  0  0  0  0  0
   21.2244  -22.1853  -15.1534 C   0  0  0  0  0  0  0  0  0  0  0  0
   21.8121  -20.8435  -14.7194 C   0  0  0  0  0  0  0  0  0  0  0  0
   22.3600  -21.0848  -13.3149 C   0  0  2  0  0  0  0  0  0  0  0  0
   21.3234  -20.9547  -12.3321 N   0  0  0  0  0  0  0  0  0  0  0  0
   23.4451  -20.1021  -13.0907 C   0  0  0  0  0  0  0  0  0  0  0  0
   23.1650  -18.9834  -12.6103 O   0  0  0  0  0  0  0  0  0  0  0  0
   20.6489  -26.9875  -15.5413 O   0  0  0  0  0  0  0  0  0  0  0  0
   27.3919  -21.1933  -14.2063 C   0  0  0  0  0  0  0  0  0  0  0  0
   27.1240  -20.3917  -13.1166 C   0  0  1  0  0  0  0  0  0  0  0  0
   25.8838  -19.5518  -13.2738 N   0  0  0  0  0  0  0  0  0  0  0  0
   24.7671  -20.4791  -13.4352 C   0  0  0  0  0  0  0  0  0  0  0  0
   25.9074  -18.6955  -14.4649 O   0  0  0  0  0  0  0  0  0  0  0  0
   25.3410  -19.1170  -15.5024 N   0  0  0  0  0  0  0  0  0  0  0  0
   25.8371  -13.8864  -17.1745 C   0  0  0  0  0  0  0  0  0  0  0  0
   27.0183  -14.5132  -16.7391 O   0  0  0  0  0  0  0  0  0  0  0  0
   28.0524  -14.4312  -17.4342 C   0  0  0  0  0  0  0  0  0  0  0  0
   27.0455  -15.2636  -15.4732 C   0  0  1  0  0  0  0  0  0  0  0  0
   26.5198  -16.6607  -15.7233 N   0  0  0  0  0  0  0  0  0  0  0  0
   26.5309  -17.4322  -14.4979 C   0  0  0  0  0  0  0  0  0  0  0  0
   27.2661  -17.3890  -16.7738 O   0  0  0  0  0  0  0  0  0  0  0  0
   28.2908  -18.0744  -16.5818 O   0  0  0  0  0  0  0  0  0  0  0  0
  2  1  1  0
  2  4  1  0
  3  2  2  0
  5  4  1  0
  5  6  1  0
  6  7  1  0
  7  8  1  0
  8  9  1  1
 10 11  2  0
 10  8  1  0
 12 13  1  0
 14 13  1  1
 14 15  1  0
 14 16  1  0
 15 10  1  0
 16 23  1  0
 17 16  2  0
 19 18  1  0
 20 19  2  0
 21 19  1  0
 22 21  1  1
 22 24  1  0
 23 22  1  0
 24 25  2  0
 24 26  1  0
M  END
$$$$
