RSN.pdb
     RDKit          3D

 26 25  0  0  1  0  0  0  0  0999 V2000
   13.1503  -13.0697  -17.2667 N   0  0  0  0  0  0  0  0  0  0  0  0
   13.6678  -12.2609  -16.1995 C   0  0  0  0  0  0  0  0  0  0  0  0
   13.1786  -12.4434  -15.0348 N   0  0  0  0  0  0  0  0  0  0  0  0
   14.6801  -11.2968  -16.4116 N   0  0  0  0  0  0  0  0  0  0  0  0
   15.0859  -10.8418  -17.7196 C   0  0  0  0  0  0  0  0  0  0  0  0
   16.5551  -11.0537  -17.9270 C   0  0  0  0  0  0  0  0  0  0  0  0
   17.3428  -10.8454  -16.6345 C   0  0  0  0  0  0  0  0  0  0  0  0
   18.8038  -11.0654  -17.0193 C   0  0  2  0  0  0  0  0  0  0  0  0
   19.0658  -12.4549  -17.2601 N   0  0  0  0  0  0  0  0  0  0  0  0
   19.6348  -10.5419  -15.9107 C   0  0  0  0  0  0  0  0  0  0  0  0
   19.9753  -11.3119  -14.9877 O   0  0  0  0  0  0  0  0  0  0  0  0
   13.5050  -11.9664  -14.1724 O   0  0  0  0  0  0  0  0  0  0  0  0
   22.8330   -9.0445  -16.4327 C   0  0  0  0  0  0  0  0  0  0  0  0
   22.2671   -9.3207  -15.2059 C   0  0  1  0  0  0  0  0  0  0  0  0
   20.9516   -8.6246  -14.9759 N   0  0  0  0  0  0  0  0  0  0  0  0
   20.0102   -9.1758  -15.9470 C   0  0  0  0  0  0  0  0  0  0  0  0
   21.0102   -7.1770  -15.2076 O   0  0  0  0  0  0  0  0  0  0  0  0
   20.8454   -6.7630  -16.3807 N   0  0  0  0  0  0  0  0  0  0  0  0
   21.5638   -2.2130  -15.0559 C   0  0  0  0  0  0  0  0  0  0  0  0
   20.2731   -2.7071  -14.7957 O   0  0  0  0  0  0  0  0  0  0  0  0
   19.2994   -1.9254  -14.8075 C   0  0  0  0  0  0  0  0  0  0  0  0
   20.0612   -4.1352  -14.5100 C   0  0  1  0  0  0  0  0  0  0  0  0
   21.4015   -4.8382  -14.5179 N   0  0  0  0  0  0  0  0  0  0  0  0
   21.2407   -6.2378  -14.1828 C   0  0  0  0  0  0  0  0  0  0  0  0
   22.3926   -4.2218  -13.6075 O   0  0  0  0  0  0  0  0  0  0  0  0
   22.8166   -4.7371  -12.5534 O   0  0  0  0  0  0  0  0  0  0  0  0
  2  1  1  0
  2  4  1  0
  3  2  2  0
  5  4  1  0
  5  6  1  0
  6  7  1  0
  7  8  1  0
  8  9  1  1
 10 11  2  0
 10  8  1  0
 12 13  1  0
 14 13  1  1
 14 15  1  0
 14 16  1  0
 15 10  1  0
 16 23  1  0
 17 16  2  0
 19 18  1  0
 20 19  2  0
 21 19  1  0
 22 21  1  6
 22 24  1  0
 23 22  1  0
 24 25  2  0
 24 26  1  0
M  END
$$$$
