RSN.pdb
     RDKit          3D

 26 25  0  0  1  0  0  0  0  0999 V2000
   10.7206   -9.7061   -9.8649 N   0  0  0  0  0  0  0  0  0  0  0  0
   11.3348  -10.9509  -10.2313 C   0  0  0  0  0  0  0  0  0  0  0  0
   10.7803  -12.0231   -9.8166 N   0  0  0  0  0  0  0  0  0  0  0  0
   12.5065  -11.0058  -11.0208 N   0  0  0  0  0  0  0  0  0  0  0  0
   13.6007  -10.0743  -10.8889 C   0  0  0  0  0  0  0  0  0  0  0  0
   14.5978  -10.2617  -11.9922 C   0  0  0  0  0  0  0  0  0  0  0  0
   15.6967   -9.2013  -11.9453 C   0  0  0  0  0  0  0  0  0  0  0  0
   16.9261   -9.9263  -11.4032 C   0  0  2  0  0  0  0  0  0  0  0  0
   16.6417  -10.5404  -10.1386 N   0  0  0  0  0  0  0  0  0  0  0  0
   18.0119   -8.9257  -11.2872 C   0  0  0  0  0  0  0  0  0  0  0  0
   18.1899   -8.3427  -10.1968 O   0  0  0  0  0  0  0  0  0  0  0  0
   11.1547  -12.9802   -9.9636 O   0  0  0  0  0  0  0  0  0  0  0  0
   21.0744   -9.4470  -13.8127 C   0  0  0  0  0  0  0  0  0  0  0  0
   21.1794   -8.7566  -12.6236 C   0  0  1  0  0  0  0  0  0  0  0  0
   20.0113   -7.8471  -12.3469 N   0  0  0  0  0  0  0  0  0  0  0  0
   18.8088   -8.6716  -12.4314 C   0  0  0  0  0  0  0  0  0  0  0  0
   19.8649   -6.7706  -13.3330 O   0  0  0  0  0  0  0  0  0  0  0  0
   19.2186   -7.0174  -14.3799 N   0  0  0  0  0  0  0  0  0  0  0  0
   20.4373   -0.9451  -14.7459 C   0  0  0  0  0  0  0  0  0  0  0  0
   19.8121   -2.2039  -14.7931 O   0  0  0  0  0  0  0  0  0  0  0  0
   19.1350   -2.5191  -15.7939 C   0  0  0  0  0  0  0  0  0  0  0  0
   19.9489   -3.1508  -13.6747 C   0  0  2  0  0  0  0  0  0  0  0  0
   20.3068   -4.5125  -14.2300 N   0  0  0  0  0  0  0  0  0  0  0  0
   20.4113   -5.4833  -13.1605 C   0  0  0  0  0  0  0  0  0  0  0  0
   21.5567   -4.5128  -15.0228 O   0  0  0  0  0  0  0  0  0  0  0  0
   22.7060   -4.6259  -14.5507 O   0  0  0  0  0  0  0  0  0  0  0  0
  2  1  1  0
  2  4  1  0
  3  2  2  0
  5  4  1  0
  5  6  1  0
  6  7  1  0
  7  8  1  0
  8  9  1  1
 10 11  2  0
 10  8  1  0
 12 13  1  0
 14 13  1  1
 14 15  1  0
 14 16  1  0
 15 10  1  0
 16 23  1  0
 17 16  2  0
 19 18  1  0
 20 19  2  0
 21 19  1  0
 22 21  1  6
 22 24  1  0
 23 22  1  0
 24 25  2  0
 24 26  1  0
M  END
$$$$
