RSN.pdb
     RDKit          3D

 26 25  0  0  1  0  0  0  0  0999 V2000
   28.6146  -22.0269  -15.4764 N   0  0  0  0  0  0  0  0  0  0  0  0
   27.2983  -21.8448  -16.0196 C   0  0  0  0  0  0  0  0  0  0  0  0
   27.1564  -22.0007  -17.2784 N   0  0  0  0  0  0  0  0  0  0  0  0
   26.1913  -21.5075  -15.2072 N   0  0  0  0  0  0  0  0  0  0  0  0
   26.3148  -20.8992  -13.9044 C   0  0  0  0  0  0  0  0  0  0  0  0
   26.1616  -21.9227  -12.8202 C   0  0  0  0  0  0  0  0  0  0  0  0
   24.6973  -22.1145  -12.4287 C   0  0  0  0  0  0  0  0  0  0  0  0
   24.3729  -20.9368  -11.5128 C   0  0  2  0  0  0  0  0  0  0  0  0
   25.0341  -21.0755  -10.2475 N   0  0  0  0  0  0  0  0  0  0  0  0
   22.9011  -20.8957  -11.3529 C   0  0  0  0  0  0  0  0  0  0  0  0
   22.3712  -21.5322  -10.4176 O   0  0  0  0  0  0  0  0  0  0  0  0
   26.2604  -21.8958  -17.7923 O   0  0  0  0  0  0  0  0  0  0  0  0
   21.0973  -17.6082  -12.3099 C   0  0  0  0  0  0  0  0  0  0  0  0
   20.4518  -18.6034  -11.6067 C   0  0  1  0  0  0  0  0  0  0  0  0
   20.7039  -19.9866  -12.1465 N   0  0  0  0  0  0  0  0  0  0  0  0
   22.1516  -20.1277  -12.2787 C   0  0  0  0  0  0  0  0  0  0  0  0
   20.1271  -20.2064  -13.4776 O   0  0  0  0  0  0  0  0  0  0  0  0
   20.7375  -19.7346  -14.4672 N   0  0  0  0  0  0  0  0  0  0  0  0
   18.9734  -24.4826  -14.6212 C   0  0  0  0  0  0  0  0  0  0  0  0
   18.8754  -23.3507  -15.4499 O   0  0  0  0  0  0  0  0  0  0  0  0
   19.7224  -23.1696  -16.3494 C   0  0  0  0  0  0  0  0  0  0  0  0
   17.7848  -22.3796  -15.2659 C   0  0  2  0  0  0  0  0  0  0  0  0
   18.3857  -21.0101  -15.0334 N   0  0  0  0  0  0  0  0  0  0  0  0
   18.9298  -20.9170  -13.6946 C   0  0  0  0  0  0  0  0  0  0  0  0
   17.4280  -19.9037  -15.2566 O   0  0  0  0  0  0  0  0  0  0  0  0
   17.1489  -19.0172  -14.4243 O   0  0  0  0  0  0  0  0  0  0  0  0
  2  1  1  0
  2  4  1  0
  3  2  2  0
  5  4  1  0
  5  6  1  0
  6  7  1  0
  7  8  1  0
  8  9  1  1
 10 11  2  0
 10  8  1  0
 12 13  1  0
 14 13  1  1
 14 15  1  0
 14 16  1  0
 15 10  1  0
 16 23  1  0
 17 16  2  0
 19 18  1  0
 20 19  2  0
 21 19  1  0
 22 21  1  6
 22 24  1  0
 23 22  1  0
 24 25  2  0
 24 26  1  0
M  END
$$$$
