RSN.pdb
     RDKit          3D

 26 25  0  0  1  0  0  0  0  0999 V2000
   12.1048  -11.3319  -10.4109 N   0  0  0  0  0  0  0  0  0  0  0  0
   11.7802  -12.3482  -11.3714 C   0  0  0  0  0  0  0  0  0  0  0  0
   10.8917  -13.2036  -11.0429 N   0  0  0  0  0  0  0  0  0  0  0  0
   12.4087  -12.4134  -12.6364 N   0  0  0  0  0  0  0  0  0  0  0  0
   13.4656  -11.5213  -13.0481 C   0  0  0  0  0  0  0  0  0  0  0  0
   13.8970  -11.8165  -14.4528 C   0  0  0  0  0  0  0  0  0  0  0  0
   14.9447  -10.8182  -14.9426 C   0  0  0  0  0  0  0  0  0  0  0  0
   15.1748  -11.1708  -16.4101 C   0  0  2  0  0  0  0  0  0  0  0  0
   15.0729  -12.5864  -16.6181 N   0  0  0  0  0  0  0  0  0  0  0  0
   16.5167  -10.6645  -16.7795 C   0  0  0  0  0  0  0  0  0  0  0  0
   17.3760  -11.4666  -17.2023 O   0  0  0  0  0  0  0  0  0  0  0  0
   10.5761  -13.9913  -11.6410 O   0  0  0  0  0  0  0  0  0  0  0  0
   16.8757   -6.8299  -18.0924 C   0  0  0  0  0  0  0  0  0  0  0  0
   17.7320   -7.8886  -18.3103 C   0  0  1  0  0  0  0  0  0  0  0  0
   18.0322   -8.6890  -17.0704 N   0  0  0  0  0  0  0  0  0  0  0  0
   16.7683   -9.2773  -16.6348 C   0  0  0  0  0  0  0  0  0  0  0  0
   18.5331   -7.8740  -15.9580 O   0  0  0  0  0  0  0  0  0  0  0  0
   17.6954   -7.4055  -15.1496 N   0  0  0  0  0  0  0  0  0  0  0  0
   21.8315   -6.5764  -11.7968 C   0  0  0  0  0  0  0  0  0  0  0  0
   22.0810   -6.1618  -13.1173 O   0  0  0  0  0  0  0  0  0  0  0  0
   22.6078   -5.0489  -13.3252 C   0  0  0  0  0  0  0  0  0  0  0  0
   21.7267   -7.0271  -14.2539 C   0  0  1  0  0  0  0  0  0  0  0  0
   20.3005   -6.7317  -14.6655 N   0  0  0  0  0  0  0  0  0  0  0  0
   19.8996   -7.5953  -15.7566 C   0  0  0  0  0  0  0  0  0  0  0  0
   20.0806   -5.3183  -15.0462 O   0  0  0  0  0  0  0  0  0  0  0  0
   20.1776   -4.8635  -16.2040 O   0  0  0  0  0  0  0  0  0  0  0  0
  2  1  1  0
  2  4  1  0
  3  2  2  0
  5  4  1  0
  5  6  1  0
  6  7  1  0
  7  8  1  0
  8  9  1  1
 10 11  2  0
 10  8  1  0
 12 13  1  0
 14 13  1  6
 14 15  1  0
 14 16  1  0
 15 10  1  0
 16 23  1  0
 17 16  2  0
 19 18  1  0
 20 19  2  0
 21 19  1  0
 22 21  1  1
 22 24  1  0
 23 22  1  0
 24 25  2  0
 24 26  1  0
M  END
$$$$
