FKG.pdb
     RDKit          3D

 25 25  0  0  1  0  0  0  0  0999 V2000
    8.8459  -17.0152   22.1481 N   0  0  0  0  0  0  0  0  0  0  0  0
    9.9461  -16.2267   21.6161 C   0  0  1  0  0  0  0  0  0  0  0  0
    9.7521  -14.8096   22.1109 C   0  0  0  0  0  0  0  0  0  0  0  0
    8.6660  -14.1462   21.3437 C   0  0  0  0  0  0  0  0  0  0  0  0
    7.3578  -14.0930   21.8139 C   0  0  0  0  0  0  0  0  0  0  0  0
    6.3568  -13.4672   21.0801 C   0  0  0  0  0  0  0  0  0  0  0  0
    6.6621  -12.8869   19.8621 C   0  0  0  0  0  0  0  0  0  0  0  0
    7.9393  -12.9252   19.3775 C   0  0  0  0  0  0  0  0  0  0  0  0
    8.9335  -13.5585   20.1285 C   0  0  0  0  0  0  0  0  0  0  0  0
   11.2424  -16.7928   22.0269 C   0  0  0  0  0  0  0  0  0  0  0  0
   11.3700  -17.3120   23.1556 O   0  0  0  0  0  0  0  0  0  0  0  0
   12.3574  -16.7608   21.1615 N   0  0  0  0  0  0  0  0  0  0  0  0
   13.6889  -17.2315   21.5328 C   0  0  1  0  0  0  0  0  0  0  0  0
   14.5799  -17.3773   20.3620 C   0  0  0  0  0  0  0  0  0  0  0  0
   15.9030  -18.0035   20.7020 C   0  0  0  0  0  0  0  0  0  0  0  0
   16.8298  -18.0640   19.4986 C   0  0  0  0  0  0  0  0  0  0  0  0
   18.1097  -18.7982   19.8384 C   0  0  0  0  0  0  0  0  0  0  0  0
   18.8830  -18.9182   18.6310 N   0  0  0  0  0  0  0  0  0  0  0  0
   14.1459  -16.3596   22.6152 C   0  0  0  0  0  0  0  0  0  0  0  0
   13.8498  -15.1417   22.6192 O   0  0  0  0  0  0  0  0  0  0  0  0
   14.9363  -16.8091   23.7129 N   0  0  0  0  0  0  0  0  0  0  0  0
   15.4289  -15.9556   24.7455 C   0  0  0  0  0  0  0  0  0  0  0  0
   16.3137  -16.7466   25.6387 C   0  0  0  0  0  0  0  0  0  0  0  0
   16.9515  -16.1880   26.5932 O   0  0  0  0  0  0  0  0  0  0  0  0
   16.5087  -18.1126   25.5075 O   0  0  0  0  0  0  0  0  0  0  0  0
  2  1  1  1
  3  2  1  0
  4  9  2  0
  4  3  1  0
  5  4  1  0
  6  5  2  0
  6  7  1  0
  7  8  2  0
  8  9  1  0
 10 11  2  0
 10  2  1  0
 12 10  1  0
 13 12  1  0
 13 14  1  6
 14 15  1  0
 15 16  1  0
 17 16  1  0
 17 18  1  0
 19 13  1  0
 20 19  2  0
 21 19  1  0
 22 21  1  0
 23 22  1  0
 23 25  1  0
 24 23  2  0
M  END
$$$$
