FKG.pdb
     RDKit          3D

 25 25  0  0  1  0  0  0  0  0999 V2000
    5.9966  -17.8493   25.1865 N   0  0  0  0  0  0  0  0  0  0  0  0
    6.3843  -16.4509   25.0893 C   0  0  1  0  0  0  0  0  0  0  0  0
    7.0573  -16.0885   26.3955 C   0  0  0  0  0  0  0  0  0  0  0  0
    7.0050  -14.6182   26.6049 C   0  0  0  0  0  0  0  0  0  0  0  0
    5.8005  -13.9349   26.7373 C   0  0  0  0  0  0  0  0  0  0  0  0
    5.7742  -12.5590   26.9326 C   0  0  0  0  0  0  0  0  0  0  0  0
    6.9625  -11.8539   26.9970 C   0  0  0  0  0  0  0  0  0  0  0  0
    8.1594  -12.5011   26.8700 C   0  0  0  0  0  0  0  0  0  0  0  0
    8.1674  -13.8850   26.6741 C   0  0  0  0  0  0  0  0  0  0  0  0
    7.2600  -16.2302   23.9257 C   0  0  0  0  0  0  0  0  0  0  0  0
    8.1755  -17.0397   23.6679 O   0  0  0  0  0  0  0  0  0  0  0  0
    7.0848  -15.1095   23.0853 N   0  0  0  0  0  0  0  0  0  0  0  0
    7.8939  -14.8488   21.8980 C   0  0  1  0  0  0  0  0  0  0  0  0
    7.4154  -13.6736   21.1390 C   0  0  0  0  0  0  0  0  0  0  0  0
    8.2881  -13.3353   19.9634 C   0  0  0  0  0  0  0  0  0  0  0  0
    7.8008  -13.9963   18.6841 C   0  0  0  0  0  0  0  0  0  0  0  0
    8.7562  -13.7298   17.5401 C   0  0  0  0  0  0  0  0  0  0  0  0
    8.2997  -14.4803   16.4006 N   0  0  0  0  0  0  0  0  0  0  0  0
    9.2867  -14.8327   22.3454 C   0  0  0  0  0  0  0  0  0  0  0  0
    9.6166  -14.2008   23.3764 O   0  0  0  0  0  0  0  0  0  0  0  0
   10.3429  -15.5101   21.6691 N   0  0  0  0  0  0  0  0  0  0  0  0
   11.7236  -15.3739   22.0043 C   0  0  0  0  0  0  0  0  0  0  0  0
   12.5383  -16.0430   20.9579 C   0  0  0  0  0  0  0  0  0  0  0  0
   11.9900  -16.7759   20.0679 O   0  0  0  0  0  0  0  0  0  0  0  0
   13.9166  -15.9258   20.8706 O   0  0  0  0  0  0  0  0  0  0  0  0
  2  1  1  1
  3  2  1  0
  4  9  2  0
  4  3  1  0
  5  4  1  0
  6  5  2  0
  6  7  1  0
  7  8  2  0
  8  9  1  0
 10 11  2  0
 10  2  1  0
 12 10  1  0
 13 12  1  0
 13 14  1  1
 14 15  1  0
 15 16  1  0
 17 16  1  0
 17 18  1  0
 19 13  1  0
 20 19  2  0
 21 19  1  0
 22 21  1  0
 23 22  1  0
 23 25  1  0
 24 23  2  0
M  END
$$$$
