FKG.pdb
     RDKit          3D

 25 25  0  0  1  0  0  0  0  0999 V2000
    5.9256  -18.0103   25.6958 N   0  0  0  0  0  0  0  0  0  0  0  0
    6.3374  -16.6331   25.4743 C   0  0  1  0  0  0  0  0  0  0  0  0
    6.8611  -16.1120   26.7953 C   0  0  0  0  0  0  0  0  0  0  0  0
    6.9182  -14.6273   26.7707 C   0  0  0  0  0  0  0  0  0  0  0  0
    8.1249  -13.9355   26.7981 C   0  0  0  0  0  0  0  0  0  0  0  0
    8.1557  -12.5461   26.7743 C   0  0  0  0  0  0  0  0  0  0  0  0
    6.9697  -11.8359   26.7226 C   0  0  0  0  0  0  0  0  0  0  0  0
    5.7708  -12.4912   26.6948 C   0  0  0  0  0  0  0  0  0  0  0  0
    5.7583  -13.8887   26.7194 C   0  0  0  0  0  0  0  0  0  0  0  0
    7.3427  -16.5536   24.4007 C   0  0  0  0  0  0  0  0  0  0  0  0
    8.2398  -17.4185   24.3169 O   0  0  0  0  0  0  0  0  0  0  0  0
    7.3136  -15.5080   23.4526 N   0  0  0  0  0  0  0  0  0  0  0  0
    8.1978  -15.4370   22.2927 C   0  0  1  0  0  0  0  0  0  0  0  0
    7.7888  -14.3847   21.3380 C   0  0  0  0  0  0  0  0  0  0  0  0
    8.5553  -14.4298   20.0463 C   0  0  0  0  0  0  0  0  0  0  0  0
    7.9978  -13.4572   19.0196 C   0  0  0  0  0  0  0  0  0  0  0  0
    8.7579  -13.5549   17.7137 C   0  0  0  0  0  0  0  0  0  0  0  0
    8.1593  -12.6333   16.7851 N   0  0  0  0  0  0  0  0  0  0  0  0
    9.5611  -15.3677   22.8190 C   0  0  0  0  0  0  0  0  0  0  0  0
    9.8832  -14.4733   23.6358 O   0  0  0  0  0  0  0  0  0  0  0  0
   10.5959  -16.2793   22.4581 N   0  0  0  0  0  0  0  0  0  0  0  0
   11.9304  -16.2130   22.9600 C   0  0  0  0  0  0  0  0  0  0  0  0
   12.8283  -15.7483   21.8719 C   0  0  0  0  0  0  0  0  0  0  0  0
   12.3656  -15.4588   20.7177 O   0  0  0  0  0  0  0  0  0  0  0  0
   14.1978  -15.5977   22.0225 O   0  0  0  0  0  0  0  0  0  0  0  0
  2  1  1  1
  3  2  1  0
  4  9  2  0
  4  3  1  0
  5  4  1  0
  6  5  2  0
  6  7  1  0
  7  8  2  0
  8  9  1  0
 10 11  2  0
 10  2  1  0
 12 10  1  0
 13 12  1  0
 13 14  1  1
 14 15  1  0
 15 16  1  0
 17 16  1  0
 17 18  1  0
 19 13  1  0
 20 19  2  0
 21 19  1  0
 22 21  1  0
 23 22  1  0
 23 25  1  0
 24 23  2  0
M  END
$$$$
