FKG.pdb
     RDKit          3D

 25 25  0  0  1  0  0  0  0  0999 V2000
    6.1173  -17.9872   25.5824 N   0  0  0  0  0  0  0  0  0  0  0  0
    6.4813  -16.5899   25.4078 C   0  0  1  0  0  0  0  0  0  0  0  0
    7.0759  -16.1225   26.7188 C   0  0  0  0  0  0  0  0  0  0  0  0
    7.0604  -14.6380   26.7848 C   0  0  0  0  0  0  0  0  0  0  0  0
    8.2323  -13.8885   26.8004 C   0  0  0  0  0  0  0  0  0  0  0  0
    8.1952  -12.5005   26.8624 C   0  0  0  0  0  0  0  0  0  0  0  0
    6.9753  -11.8498   26.9094 C   0  0  0  0  0  0  0  0  0  0  0  0
    5.8094  -12.5625   26.8953 C   0  0  0  0  0  0  0  0  0  0  0  0
    5.8652  -13.9577   26.8328 C   0  0  0  0  0  0  0  0  0  0  0  0
    7.4135  -16.4290   24.2789 C   0  0  0  0  0  0  0  0  0  0  0  0
    8.3439  -17.2456   24.1131 O   0  0  0  0  0  0  0  0  0  0  0  0
    7.2764  -15.3584   23.3689 N   0  0  0  0  0  0  0  0  0  0  0  0
    8.1212  -15.1784   22.1915 C   0  0  1  0  0  0  0  0  0  0  0  0
    7.6408  -14.0874   21.3169 C   0  0  0  0  0  0  0  0  0  0  0  0
    8.4634  -13.9255   20.0698 C   0  0  0  0  0  0  0  0  0  0  0  0
    7.6278  -13.4415   18.8957 C   0  0  0  0  0  0  0  0  0  0  0  0
    8.4629  -13.3588   17.6355 C   0  0  0  0  0  0  0  0  0  0  0  0
    7.6151  -12.8822   16.5753 N   0  0  0  0  0  0  0  0  0  0  0  0
    9.4960  -15.0841   22.6827 C   0  0  0  0  0  0  0  0  0  0  0  0
    9.7446  -14.5189   23.7734 O   0  0  0  0  0  0  0  0  0  0  0  0
   10.6231  -15.6087   21.9853 N   0  0  0  0  0  0  0  0  0  0  0  0
   11.9764  -15.4237   22.3996 C   0  0  0  0  0  0  0  0  0  0  0  0
   12.8667  -16.1676   21.4722 C   0  0  0  0  0  0  0  0  0  0  0  0
   14.1355  -16.0425   21.5386 O   0  0  0  0  0  0  0  0  0  0  0  0
   12.4010  -17.0299   20.4921 O   0  0  0  0  0  0  0  0  0  0  0  0
  2  1  1  1
  3  2  1  0
  4  9  2  0
  4  3  1  0
  5  4  1  0
  6  5  2  0
  6  7  1  0
  7  8  2  0
  8  9  1  0
 10 11  2  0
 10  2  1  0
 12 10  1  0
 13 12  1  0
 13 14  1  1
 14 15  1  0
 15 16  1  0
 17 16  1  0
 17 18  1  0
 19 13  1  0
 20 19  2  0
 21 19  1  0
 22 21  1  0
 23 22  1  0
 23 25  1  0
 24 23  2  0
M  END
$$$$
