FKG.pdb
     RDKit          3D

 25 25  0  0  1  0  0  0  0  0999 V2000
    6.3509  -17.4542   25.1074 N   0  0  0  0  0  0  0  0  0  0  0  0
    6.7585  -16.1106   24.7283 C   0  0  1  0  0  0  0  0  0  0  0  0
    7.7307  -15.6306   25.7843 C   0  0  0  0  0  0  0  0  0  0  0  0
    7.3200  -14.2930   26.2848 C   0  0  0  0  0  0  0  0  0  0  0  0
    8.0327  -13.6261   27.2760 C   0  0  0  0  0  0  0  0  0  0  0  0
    7.6310  -12.3753   27.7298 C   0  0  0  0  0  0  0  0  0  0  0  0
    6.5050  -11.7804   27.1897 C   0  0  0  0  0  0  0  0  0  0  0  0
    5.7870  -12.4142   26.2148 C   0  0  0  0  0  0  0  0  0  0  0  0
    6.2052  -13.6716   25.7703 C   0  0  0  0  0  0  0  0  0  0  0  0
    7.3469  -16.1036   23.3780 C   0  0  0  0  0  0  0  0  0  0  0  0
    8.0543  -17.0601   22.9977 O   0  0  0  0  0  0  0  0  0  0  0  0
    7.1259  -15.0257   22.4935 N   0  0  0  0  0  0  0  0  0  0  0  0
    7.8698  -14.8258   21.2530 C   0  0  1  0  0  0  0  0  0  0  0  0
    7.4621  -13.5931   20.5457 C   0  0  0  0  0  0  0  0  0  0  0  0
    8.3130  -13.2936   19.3439 C   0  0  0  0  0  0  0  0  0  0  0  0
    7.8802  -14.0943   18.1264 C   0  0  0  0  0  0  0  0  0  0  0  0
    8.7977  -13.8297   16.9513 C   0  0  0  0  0  0  0  0  0  0  0  0
    8.2876  -14.5590   15.8208 N   0  0  0  0  0  0  0  0  0  0  0  0
    9.2855  -14.9612   21.5965 C   0  0  0  0  0  0  0  0  0  0  0  0
    9.7467  -14.4097   22.6231 O   0  0  0  0  0  0  0  0  0  0  0  0
   10.2207  -15.7047   20.8189 N   0  0  0  0  0  0  0  0  0  0  0  0
   11.6204  -15.7624   21.0923 C   0  0  0  0  0  0  0  0  0  0  0  0
   12.2779  -16.5908   20.0495 C   0  0  0  0  0  0  0  0  0  0  0  0
   11.5928  -17.3531   19.2883 O   0  0  0  0  0  0  0  0  0  0  0  0
   13.6464  -16.5991   19.8297 O   0  0  0  0  0  0  0  0  0  0  0  0
  2  1  1  1
  3  2  1  0
  4  9  2  0
  4  3  1  0
  5  4  1  0
  6  5  2  0
  6  7  1  0
  7  8  2  0
  8  9  1  0
 10 11  2  0
 10  2  1  0
 12 10  1  0
 13 12  1  0
 13 14  1  1
 14 15  1  0
 15 16  1  0
 17 16  1  0
 17 18  1  0
 19 13  1  0
 20 19  2  0
 21 19  1  0
 22 21  1  0
 23 22  1  0
 23 25  1  0
 24 23  2  0
M  END
$$$$
