FKG.pdb
     RDKit          3D

 25 25  0  0  1  0  0  0  0  0999 V2000
    5.9323  -17.8438   25.0142 N   0  0  0  0  0  0  0  0  0  0  0  0
    6.4884  -16.5002   24.9850 C   0  0  1  0  0  0  0  0  0  0  0  0
    6.6462  -16.0574   26.4237 C   0  0  0  0  0  0  0  0  0  0  0  0
    6.6790  -14.5736   26.4995 C   0  0  0  0  0  0  0  0  0  0  0  0
    5.5339  -13.8016   26.3328 C   0  0  0  0  0  0  0  0  0  0  0  0
    5.5869  -12.4147   26.4076 C   0  0  0  0  0  0  0  0  0  0  0  0
    6.7957  -11.7880   26.6516 C   0  0  0  0  0  0  0  0  0  0  0  0
    7.9354  -12.5232   26.8191 C   0  0  0  0  0  0  0  0  0  0  0  0
    7.8640  -13.9169   26.7406 C   0  0  0  0  0  0  0  0  0  0  0  0
    7.7628  -16.4771   24.2469 C   0  0  0  0  0  0  0  0  0  0  0  0
    8.5952  -17.3946   24.4049 O   0  0  0  0  0  0  0  0  0  0  0  0
    8.0673  -15.4271   23.3536 N   0  0  0  0  0  0  0  0  0  0  0  0
    9.3078  -15.3451   22.5875 C   0  0  1  0  0  0  0  0  0  0  0  0
    9.2858  -14.2461   21.5988 C   0  0  0  0  0  0  0  0  0  0  0  0
    8.4218  -14.5430   20.4057 C   0  0  0  0  0  0  0  0  0  0  0  0
    8.4923  -13.4389   19.3632 C   0  0  0  0  0  0  0  0  0  0  0  0
    7.6121  -13.7612   18.1741 C   0  0  0  0  0  0  0  0  0  0  0  0
    7.6851  -12.6538   17.2585 N   0  0  0  0  0  0  0  0  0  0  0  0
   10.3955  -15.3414   23.5659 C   0  0  0  0  0  0  0  0  0  0  0  0
   10.4234  -14.4876   24.4830 O   0  0  0  0  0  0  0  0  0  0  0  0
   11.4725  -16.2752   23.5552 N   0  0  0  0  0  0  0  0  0  0  0  0
   11.9652  -16.9134   22.3774 C   0  0  0  0  0  0  0  0  0  0  0  0
   13.4465  -16.8054   22.3588 C   0  0  0  0  0  0  0  0  0  0  0  0
   14.0432  -16.1162   21.4649 O   0  0  0  0  0  0  0  0  0  0  0  0
   14.2703  -17.4270   23.2840 O   0  0  0  0  0  0  0  0  0  0  0  0
  2  1  1  1
  3  2  1  0
  4  9  2  0
  4  3  1  0
  5  4  1  0
  6  5  2  0
  6  7  1  0
  7  8  2  0
  8  9  1  0
 10 11  2  0
 10  2  1  0
 12 10  1  0
 13 12  1  0
 13 14  1  1
 14 15  1  0
 15 16  1  0
 17 16  1  0
 17 18  1  0
 19 13  1  0
 20 19  2  0
 21 19  1  0
 22 21  1  0
 23 22  1  0
 23 25  1  0
 24 23  2  0
M  END
$$$$
