FKG.pdb
     RDKit          3D

 25 25  0  0  1  0  0  0  0  0999 V2000
    6.7554  -16.4628   25.9252 N   0  0  0  0  0  0  0  0  0  0  0  0
    7.7045  -15.6451   25.1863 C   0  0  1  0  0  0  0  0  0  0  0  0
    8.2950  -14.6580   26.1700 C   0  0  0  0  0  0  0  0  0  0  0  0
    7.4056  -13.4746   26.3002 C   0  0  0  0  0  0  0  0  0  0  0  0
    6.6282  -13.2578   27.4333 C   0  0  0  0  0  0  0  0  0  0  0  0
    5.8030  -12.1440   27.5346 C   0  0  0  0  0  0  0  0  0  0  0  0
    5.7509  -11.2339   26.4942 C   0  0  0  0  0  0  0  0  0  0  0  0
    6.5044  -11.4233   25.3700 C   0  0  0  0  0  0  0  0  0  0  0  0
    7.3288  -12.5489   25.2849 C   0  0  0  0  0  0  0  0  0  0  0  0
    8.7323  -16.4846   24.5473 C   0  0  0  0  0  0  0  0  0  0  0  0
    9.1473  -17.5132   25.1215 O   0  0  0  0  0  0  0  0  0  0  0  0
    9.2651  -16.1475   23.2841 N   0  0  0  0  0  0  0  0  0  0  0  0
   10.3306  -16.8971   22.6244 C   0  0  1  0  0  0  0  0  0  0  0  0
    9.8659  -17.5663   21.3907 C   0  0  0  0  0  0  0  0  0  0  0  0
    9.7687  -19.0593   21.5302 C   0  0  0  0  0  0  0  0  0  0  0  0
    9.3492  -19.7262   20.2301 C   0  0  0  0  0  0  0  0  0  0  0  0
    9.1416  -21.2130   20.4276 C   0  0  0  0  0  0  0  0  0  0  0  0
    8.7555  -21.7762   19.1612 N   0  0  0  0  0  0  0  0  0  0  0  0
   11.4627  -15.9787   22.5000 C   0  0  0  0  0  0  0  0  0  0  0  0
   11.4721  -15.0974   21.6089 O   0  0  0  0  0  0  0  0  0  0  0  0
   12.6052  -16.0113   23.3519 N   0  0  0  0  0  0  0  0  0  0  0  0
   13.3203  -17.2009   23.6847 C   0  0  0  0  0  0  0  0  0  0  0  0
   14.6761  -17.1284   23.0823 C   0  0  0  0  0  0  0  0  0  0  0  0
   15.6208  -16.4983   23.6658 O   0  0  0  0  0  0  0  0  0  0  0  0
   15.0092  -17.7226   21.8752 O   0  0  0  0  0  0  0  0  0  0  0  0
  2  1  1  1
  3  2  1  0
  4  9  2  0
  4  3  1  0
  5  4  1  0
  6  5  2  0
  6  7  1  0
  7  8  2  0
  8  9  1  0
 10 11  2  0
 10  2  1  0
 12 10  1  0
 13 12  1  0
 13 14  1  6
 14 15  1  0
 15 16  1  0
 17 16  1  0
 17 18  1  0
 19 13  1  0
 20 19  2  0
 21 19  1  0
 22 21  1  0
 23 22  1  0
 23 25  1  0
 24 23  2  0
M  END
$$$$
