FKG.pdb
     RDKit          3D

 25 25  0  0  1  0  0  0  0  0999 V2000
    6.5352  -16.7985   25.8082 N   0  0  0  0  0  0  0  0  0  0  0  0
    7.4196  -15.9080   25.0731 C   0  0  1  0  0  0  0  0  0  0  0  0
    8.1350  -15.0536   26.0973 C   0  0  0  0  0  0  0  0  0  0  0  0
    7.4668  -13.7313   26.2138 C   0  0  0  0  0  0  0  0  0  0  0  0
    7.5467  -12.7739   25.2077 C   0  0  0  0  0  0  0  0  0  0  0  0
    6.9138  -11.5431   25.3371 C   0  0  0  0  0  0  0  0  0  0  0  0
    6.1920  -11.2617   26.4831 C   0  0  0  0  0  0  0  0  0  0  0  0
    6.0978  -12.1848   27.4863 C   0  0  0  0  0  0  0  0  0  0  0  0
    6.7405  -13.4174   27.3396 C   0  0  0  0  0  0  0  0  0  0  0  0
    8.3530  -16.6754   24.2309 C   0  0  0  0  0  0  0  0  0  0  0  0
    8.6351  -17.8563   24.5236 O   0  0  0  0  0  0  0  0  0  0  0  0
    8.9429  -16.0977   23.0858 N   0  0  0  0  0  0  0  0  0  0  0  0
    9.7840  -16.8330   22.1454 C   0  0  1  0  0  0  0  0  0  0  0  0
    9.7492  -16.2508   20.7868 C   0  0  0  0  0  0  0  0  0  0  0  0
    8.8650  -17.0133   19.8407 C   0  0  0  0  0  0  0  0  0  0  0  0
    8.9860  -16.5041   18.4134 C   0  0  0  0  0  0  0  0  0  0  0  0
    8.1725  -17.3582   17.4640 C   0  0  0  0  0  0  0  0  0  0  0  0
    8.0818  -16.6592   16.2098 N   0  0  0  0  0  0  0  0  0  0  0  0
   11.0946  -16.9641   22.7822 C   0  0  0  0  0  0  0  0  0  0  0  0
   11.7712  -18.0090   22.6362 O   0  0  0  0  0  0  0  0  0  0  0  0
   11.6862  -15.9504   23.5910 N   0  0  0  0  0  0  0  0  0  0  0  0
   12.9416  -16.0897   24.2559 C   0  0  0  0  0  0  0  0  0  0  0  0
   13.9964  -16.3364   23.2397 C   0  0  0  0  0  0  0  0  0  0  0  0
   14.0143  -17.4178   22.5613 O   0  0  0  0  0  0  0  0  0  0  0  0
   15.0127  -15.4368   22.9585 O   0  0  0  0  0  0  0  0  0  0  0  0
  2  1  1  1
  3  2  1  0
  4  9  2  0
  4  3  1  0
  5  4  1  0
  6  5  2  0
  6  7  1  0
  7  8  2  0
  8  9  1  0
 10 11  2  0
 10  2  1  0
 12 10  1  0
 13 12  1  0
 13 14  1  6
 14 15  1  0
 15 16  1  0
 17 16  1  0
 17 18  1  0
 19 13  1  0
 20 19  2  0
 21 19  1  0
 22 21  1  0
 23 22  1  0
 23 25  1  0
 24 23  2  0
M  END
$$$$
