FKG.pdb
     RDKit          3D

 25 25  0  0  1  0  0  0  0  0999 V2000
    6.0407  -16.6811   25.8404 N   0  0  0  0  0  0  0  0  0  0  0  0
    7.0901  -15.9730   25.1244 C   0  0  1  0  0  0  0  0  0  0  0  0
    7.7606  -15.0532   26.1220 C   0  0  0  0  0  0  0  0  0  0  0  0
    7.0536  -13.7468   26.1658 C   0  0  0  0  0  0  0  0  0  0  0  0
    7.1391  -12.8272   25.1254 C   0  0  0  0  0  0  0  0  0  0  0  0
    6.4695  -11.6107   25.1867 C   0  0  0  0  0  0  0  0  0  0  0  0
    5.7047  -11.3056   26.2982 C   0  0  0  0  0  0  0  0  0  0  0  0
    5.6041  -12.1915   27.3339 C   0  0  0  0  0  0  0  0  0  0  0  0
    6.2841  -13.4102   27.2557 C   0  0  0  0  0  0  0  0  0  0  0  0
    8.0357  -16.9205   24.5100 C   0  0  0  0  0  0  0  0  0  0  0  0
    7.8177  -18.1490   24.5667 O   0  0  0  0  0  0  0  0  0  0  0  0
    9.1974  -16.4644   23.8502 N   0  0  0  0  0  0  0  0  0  0  0  0
    9.5200  -16.7781   22.4610 C   0  0  1  0  0  0  0  0  0  0  0  0
    8.3572  -16.6124   21.5630 C   0  0  0  0  0  0  0  0  0  0  0  0
    7.8724  -17.9098   20.9801 C   0  0  0  0  0  0  0  0  0  0  0  0
    7.1984  -17.7113   19.6320 C   0  0  0  0  0  0  0  0  0  0  0  0
    6.8645  -19.0429   18.9933 C   0  0  0  0  0  0  0  0  0  0  0  0
    6.3475  -18.7827   17.6761 N   0  0  0  0  0  0  0  0  0  0  0  0
   10.7271  -16.0174   22.1376 C   0  0  0  0  0  0  0  0  0  0  0  0
   10.6452  -14.9143   21.5482 O   0  0  0  0  0  0  0  0  0  0  0  0
   12.0463  -16.4539   22.4555 N   0  0  0  0  0  0  0  0  0  0  0  0
   12.9826  -15.6849   23.2101 C   0  0  0  0  0  0  0  0  0  0  0  0
   14.2817  -16.4046   23.2368 C   0  0  0  0  0  0  0  0  0  0  0  0
   14.3679  -17.5859   23.7131 O   0  0  0  0  0  0  0  0  0  0  0  0
   15.4654  -15.8636   22.7601 O   0  0  0  0  0  0  0  0  0  0  0  0
  2  1  1  1
  3  2  1  0
  4  9  2  0
  4  3  1  0
  5  4  1  0
  6  5  2  0
  6  7  1  0
  7  8  2  0
  8  9  1  0
 10 11  2  0
 10  2  1  0
 12 10  1  0
 13 12  1  0
 13 14  1  6
 14 15  1  0
 15 16  1  0
 17 16  1  0
 17 18  1  0
 19 13  1  0
 20 19  2  0
 21 19  1  0
 22 21  1  0
 23 22  1  0
 23 25  1  0
 24 23  2  0
M  END
$$$$
