MDI.pdb
     RDKit          3D

 25 24  0  0  1  0  0  0  0  0999 V2000
   10.9263  -13.2601  -10.2902 C   0  0  0  0  0  0  0  0  0  0  0  0
   10.2055  -13.2269  -11.9576 S   0  0  0  0  0  0  0  0  0  0  0  0
   11.5395  -13.1112  -13.2140 C   0  0  0  0  0  0  0  0  0  0  0  0
   12.6928  -12.4368  -12.5567 C   0  0  0  0  0  0  0  0  0  0  0  0
   13.9357  -12.3241  -13.3652 C   0  0  2  0  0  0  0  0  0  0  0  0
   14.4349  -13.6322  -13.7320 N   0  0  0  0  0  0  0  0  0  0  0  0
   14.9885  -11.4584  -12.7970 C   0  0  0  0  0  0  0  0  0  0  0  0
   15.8682  -11.9640  -12.0537 O   0  0  0  0  0  0  0  0  0  0  0  0
   15.0681  -10.0620  -13.0430 N   0  0  0  0  0  0  0  0  0  0  0  0
   16.0774   -9.1972  -12.5072 C   0  0  1  0  0  0  0  0  0  0  0  0
   17.0750   -8.7006  -13.4937 C   0  0  0  0  0  0  0  0  0  0  0  0
   18.0193   -7.7763  -12.8410 C   0  0  0  0  0  0  0  0  0  0  0  0
   18.8594   -8.2298  -12.0338 O   0  0  0  0  0  0  0  0  0  0  0  0
   15.4720   -8.0687  -11.7175 C   0  0  0  0  0  0  0  0  0  0  0  0
   14.6735   -7.3205  -12.3217 O   0  0  0  0  0  0  0  0  0  0  0  0
   18.0191   -6.4102  -13.0836 O   0  0  0  0  0  0  0  0  0  0  0  0
   12.7763   -8.5674   -7.4055 C   0  0  0  0  0  0  0  0  0  0  0  0
   13.4012   -7.9971   -8.6520 C   0  0  0  0  0  0  0  0  0  0  0  0
   14.6102   -7.1375   -8.3563 C   0  0  2  0  0  0  0  0  0  0  0  0
   14.2842   -6.0747   -7.3739 C   0  0  0  0  0  0  0  0  0  0  0  0
   15.2772   -6.6870   -9.6112 C   0  0  2  0  0  0  0  0  0  0  0  0
   15.7583   -7.8277  -10.3694 N   0  0  0  0  0  0  0  0  0  0  0  0
   16.3402   -5.6842   -9.3996 C   0  0  0  0  0  0  0  0  0  0  0  0
   17.5373   -6.1074   -9.3734 O   0  0  0  0  0  0  0  0  0  0  0  0
   16.1557   -4.3468   -9.2299 O   0  0  0  0  0  0  0  0  0  0  0  0
  2  3  1  0
  2  1  1  0
  4  5  1  0
  4  3  1  0
  5  7  1  0
  5  6  1  1
  7  8  2  0
  9 10  1  0
  9  7  1  0
 10 11  1  6
 12 11  1  0
 13 12  2  0
 14 10  1  0
 14 15  2  0
 16 12  1  0
 18 17  1  0
 19 18  1  0
 19 20  1  6
 21 22  1  1
 21 19  1  0
 22 14  1  0
 23 21  1  0
 24 23  2  0
 25 23  1  0
M  END
$$$$
