MDI.pdb
     RDKit          3D

 25 24  0  0  1  0  0  0  0  0999 V2000
   27.1869  -20.3098   -7.0815 C   0  0  0  0  0  0  0  0  0  0  0  0
   28.8224  -20.6479   -7.7968 S   0  0  0  0  0  0  0  0  0  0  0  0
   28.6366  -21.3009   -9.5028 C   0  0  0  0  0  0  0  0  0  0  0  0
   27.2820  -20.8992   -9.9726 C   0  0  0  0  0  0  0  0  0  0  0  0
   26.9113  -21.3235  -11.3487 C   0  0  2  0  0  0  0  0  0  0  0  0
   28.0465  -21.2320  -12.2419 N   0  0  0  0  0  0  0  0  0  0  0  0
   25.7021  -20.6862  -11.9074 C   0  0  0  0  0  0  0  0  0  0  0  0
   25.1612  -19.7369  -11.2843 O   0  0  0  0  0  0  0  0  0  0  0  0
   25.1007  -21.0896  -13.1291 N   0  0  0  0  0  0  0  0  0  0  0  0
   23.9600  -20.4571  -13.7227 C   0  0  1  0  0  0  0  0  0  0  0  0
   24.0128  -20.3162  -15.2034 C   0  0  0  0  0  0  0  0  0  0  0  0
   24.4361  -21.5859  -15.8204 C   0  0  0  0  0  0  0  0  0  0  0  0
   23.5713  -22.3508  -16.3001 O   0  0  0  0  0  0  0  0  0  0  0  0
   22.6774  -21.1034  -13.2744 C   0  0  0  0  0  0  0  0  0  0  0  0
   22.6875  -22.3461  -13.1398 O   0  0  0  0  0  0  0  0  0  0  0  0
   25.7655  -21.9763  -15.8945 O   0  0  0  0  0  0  0  0  0  0  0  0
   19.0360  -21.6425   -9.2159 C   0  0  0  0  0  0  0  0  0  0  0  0
   18.7395  -20.9345  -10.5122 C   0  0  0  0  0  0  0  0  0  0  0  0
   19.9739  -20.3232  -11.1372 C   0  0  2  0  0  0  0  0  0  0  0  0
   19.8958  -18.8417  -11.1387 C   0  0  0  0  0  0  0  0  0  0  0  0
   20.2951  -20.9633  -12.4448 C   0  0  2  0  0  0  0  0  0  0  0  0
   21.5037  -20.3899  -13.0087 N   0  0  0  0  0  0  0  0  0  0  0  0
   19.1794  -20.9459  -13.4120 C   0  0  0  0  0  0  0  0  0  0  0  0
   19.2679  -20.1308  -14.3820 O   0  0  0  0  0  0  0  0  0  0  0  0
   18.0640  -21.7233  -13.3604 O   0  0  0  0  0  0  0  0  0  0  0  0
  2  3  1  0
  2  1  1  0
  4  5  1  0
  4  3  1  0
  5  7  1  0
  5  6  1  6
  7  8  2  0
  9 10  1  0
  9  7  1  0
 10 11  1  6
 12 11  1  0
 13 12  2  0
 14 10  1  0
 14 15  2  0
 16 12  1  0
 18 17  1  0
 19 18  1  0
 19 20  1  6
 21 22  1  6
 21 19  1  0
 22 14  1  0
 23 21  1  0
 24 23  2  0
 25 23  1  0
M  END
$$$$
