MDI.pdb
     RDKit          3D

 25 24  0  0  1  0  0  0  0  0999 V2000
   23.6074  -33.9489   -9.2981 C   0  0  0  0  0  0  0  0  0  0  0  0
   23.6238  -35.7299   -9.6570 S   0  0  0  0  0  0  0  0  0  0  0  0
   25.3200  -36.3974   -9.4358 C   0  0  0  0  0  0  0  0  0  0  0  0
   25.5254  -36.5748   -7.9718 C   0  0  0  0  0  0  0  0  0  0  0  0
   26.5258  -35.6776   -7.3352 C   0  0  2  0  0  0  0  0  0  0  0  0
   27.7907  -35.7326   -8.0368 N   0  0  0  0  0  0  0  0  0  0  0  0
   26.6842  -35.8346   -5.8755 C   0  0  0  0  0  0  0  0  0  0  0  0
   25.6676  -36.0373   -5.1631 O   0  0  0  0  0  0  0  0  0  0  0  0
   27.9394  -35.7675   -5.2147 N   0  0  0  0  0  0  0  0  0  0  0  0
   28.1330  -35.9818   -3.8111 C   0  0  1  0  0  0  0  0  0  0  0  0
   29.4696  -36.5138   -3.4299 C   0  0  0  0  0  0  0  0  0  0  0  0
   29.4885  -36.8638   -1.9984 C   0  0  0  0  0  0  0  0  0  0  0  0
   28.4450  -36.7314   -1.3228 O   0  0  0  0  0  0  0  0  0  0  0  0
   27.7779  -34.7564   -3.0136 C   0  0  0  0  0  0  0  0  0  0  0  0
   28.6095  -33.8232   -3.0108 O   0  0  0  0  0  0  0  0  0  0  0  0
   30.6242  -37.3389   -1.3583 O   0  0  0  0  0  0  0  0  0  0  0  0
   24.5231  -30.4077   -1.7681 C   0  0  0  0  0  0  0  0  0  0  0  0
   24.5089  -31.7365   -1.0585 C   0  0  0  0  0  0  0  0  0  0  0  0
   24.9466  -32.8773   -1.9500 C   0  0  2  0  0  0  0  0  0  0  0  0
   23.8359  -33.8334   -2.1807 C   0  0  0  0  0  0  0  0  0  0  0  0
   26.2334  -33.4687   -1.4839 C   0  0  2  0  0  0  0  0  0  0  0  0
   26.5863  -34.6212   -2.2932 N   0  0  0  0  0  0  0  0  0  0  0  0
   26.2617  -33.7846   -0.0418 C   0  0  0  0  0  0  0  0  0  0  0  0
   25.9183  -34.9587    0.2997 O   0  0  0  0  0  0  0  0  0  0  0  0
   26.6221  -32.9332    0.9565 O   0  0  0  0  0  0  0  0  0  0  0  0
  2  3  1  0
  2  1  1  0
  4  5  1  0
  4  3  1  0
  5  7  1  0
  5  6  1  6
  7  8  2  0
  9 10  1  0
  9  7  1  0
 10 11  1  6
 12 11  1  0
 13 12  2  0
 14 10  1  0
 14 15  2  0
 16 12  1  0
 18 17  1  0
 19 18  1  0
 19 20  1  1
 21 22  1  6
 21 19  1  0
 22 14  1  0
 23 21  1  0
 24 23  2  0
 25 23  1  0
M  END
$$$$
