MDI.pdb
     RDKit          3D

 25 24  0  0  1  0  0  0  0  0999 V2000
   19.4821  -22.7613  -11.6408 C   0  0  0  0  0  0  0  0  0  0  0  0
   19.1054  -21.4300  -12.8183 S   0  0  0  0  0  0  0  0  0  0  0  0
   20.5499  -20.3078  -12.9775 C   0  0  0  0  0  0  0  0  0  0  0  0
   21.5024  -20.6755  -11.8938 C   0  0  0  0  0  0  0  0  0  0  0  0
   22.7071  -19.8145  -11.7579 C   0  0  2  0  0  0  0  0  0  0  0  0
   23.2455  -19.4692  -13.0564 N   0  0  0  0  0  0  0  0  0  0  0  0
   23.7444  -20.3124  -10.8324 C   0  0  0  0  0  0  0  0  0  0  0  0
   23.3978  -20.8632   -9.7561 O   0  0  0  0  0  0  0  0  0  0  0  0
   25.1370  -20.2031  -11.0887 N   0  0  0  0  0  0  0  0  0  0  0  0
   26.1642  -20.7477  -10.2509 C   0  0  1  0  0  0  0  0  0  0  0  0
   27.4504  -21.0455  -10.9379 C   0  0  0  0  0  0  0  0  0  0  0  0
   27.1957  -21.7027  -12.2321 C   0  0  0  0  0  0  0  0  0  0  0  0
   26.5266  -22.7584  -12.2605 O   0  0  0  0  0  0  0  0  0  0  0  0
   26.3759  -19.9054   -9.0224 C   0  0  0  0  0  0  0  0  0  0  0  0
   26.0304  -18.7061   -9.0927 O   0  0  0  0  0  0  0  0  0  0  0  0
   27.6697  -21.1983  -13.4347 O   0  0  0  0  0  0  0  0  0  0  0  0
   28.0724  -19.6458   -3.3153 C   0  0  0  0  0  0  0  0  0  0  0  0
   27.1138  -19.0668   -4.3229 C   0  0  0  0  0  0  0  0  0  0  0  0
   26.8011  -20.0281   -5.4481 C   0  0  2  0  0  0  0  0  0  0  0  0
   27.0965  -21.4277   -5.0545 C   0  0  0  0  0  0  0  0  0  0  0  0
   27.3971  -19.5704   -6.7358 C   0  0  2  0  0  0  0  0  0  0  0  0
   26.9293  -20.3957   -7.8347 N   0  0  0  0  0  0  0  0  0  0  0  0
   28.8703  -19.4728   -6.7145 C   0  0  0  0  0  0  0  0  0  0  0  0
   29.3764  -18.5078   -6.0621 O   0  0  0  0  0  0  0  0  0  0  0  0
   29.7370  -20.3223   -7.3297 O   0  0  0  0  0  0  0  0  0  0  0  0
  2  3  1  0
  2  1  1  0
  4  5  1  0
  4  3  1  0
  5  7  1  0
  5  6  1  6
  7  8  2  0
  9 10  1  0
  9  7  1  0
 10 11  1  6
 12 11  1  0
 13 12  2  0
 14 10  1  0
 14 15  2  0
 16 12  1  0
 18 17  1  0
 19 18  1  0
 19 20  1  1
 21 22  1  6
 21 19  1  0
 22 14  1  0
 23 21  1  0
 24 23  2  0
 25 23  1  0
M  END
$$$$
