MDI.pdb
     RDKit          3D

 25 24  0  0  1  0  0  0  0  0999 V2000
   17.5570  -17.6204  -16.3372 C   0  0  0  0  0  0  0  0  0  0  0  0
   18.0007  -16.0477  -15.5431 S   0  0  0  0  0  0  0  0  0  0  0  0
   17.6811  -14.6533  -16.6941 C   0  0  0  0  0  0  0  0  0  0  0  0
   18.2046  -13.4240  -16.0372 C   0  0  0  0  0  0  0  0  0  0  0  0
   18.1516  -12.1752  -16.8428 C   0  0  2  0  0  0  0  0  0  0  0  0
   18.4881  -12.4370  -18.2260 N   0  0  0  0  0  0  0  0  0  0  0  0
   18.8983  -11.0280  -16.2888 C   0  0  0  0  0  0  0  0  0  0  0  0
   18.6948  -10.6763  -15.0985 O   0  0  0  0  0  0  0  0  0  0  0  0
   19.8497  -10.2824  -17.0343 N   0  0  0  0  0  0  0  0  0  0  0  0
   20.5280   -9.1156  -16.5525 C   0  0  1  0  0  0  0  0  0  0  0  0
   21.9436   -8.9795  -16.9911 C   0  0  0  0  0  0  0  0  0  0  0  0
   22.5545   -7.7877  -16.3757 C   0  0  0  0  0  0  0  0  0  0  0  0
   21.8571   -7.0519  -15.6441 O   0  0  0  0  0  0  0  0  0  0  0  0
   19.7395   -7.8656  -16.8341 C   0  0  0  0  0  0  0  0  0  0  0  0
   19.5978   -7.5448  -18.0340 O   0  0  0  0  0  0  0  0  0  0  0  0
   23.8833   -7.4405  -16.5731 O   0  0  0  0  0  0  0  0  0  0  0  0
   15.3775   -7.5465  -16.7540 C   0  0  0  0  0  0  0  0  0  0  0  0
   16.3750   -6.4690  -17.0907 C   0  0  0  0  0  0  0  0  0  0  0  0
   17.0546   -5.9011  -15.8645 C   0  0  2  0  0  0  0  0  0  0  0  0
   16.3646   -4.6772  -15.3882 C   0  0  0  0  0  0  0  0  0  0  0  0
   18.5278   -5.7869  -16.0632 C   0  0  2  0  0  0  0  0  0  0  0  0
   19.1727   -7.0673  -15.8347 N   0  0  0  0  0  0  0  0  0  0  0  0
   19.1583   -4.7093  -15.2748 C   0  0  0  0  0  0  0  0  0  0  0  0
   19.0207   -3.5221  -15.7046 O   0  0  0  0  0  0  0  0  0  0  0  0
   19.8739   -4.8705  -14.1288 O   0  0  0  0  0  0  0  0  0  0  0  0
  2  3  1  0
  2  1  1  0
  4  5  1  0
  4  3  1  0
  5  7  1  0
  5  6  1  6
  7  8  2  0
  9 10  1  0
  9  7  1  0
 10 11  1  6
 12 11  1  0
 13 12  2  0
 14 10  1  0
 14 15  2  0
 16 12  1  0
 18 17  1  0
 19 18  1  0
 19 20  1  6
 21 22  1  1
 21 19  1  0
 22 14  1  0
 23 21  1  0
 24 23  2  0
 25 23  1  0
M  END
$$$$
