VFD.pdb
     RDKit          3D

 27 27  0  0  1  0  0  0  0  0999 V2000
   22.4389  -13.0404  -17.7738 C   0  0  0  0  0  0  0  0  0  0  0  0
   21.7660  -11.9520  -17.0074 C   0  0  1  0  0  0  0  0  0  0  0  0
   21.2141  -12.4974  -15.7135 C   0  0  0  0  0  0  0  0  0  0  0  0
   22.6700  -10.7621  -16.7635 C   0  0  2  0  0  0  0  0  0  0  0  0
   23.8120  -11.1278  -15.9467 N   0  0  0  0  0  0  0  0  0  0  0  0
   21.9737   -9.6491  -16.1115 C   0  0  0  0  0  0  0  0  0  0  0  0
   22.0852   -9.4811  -14.8474 O   0  0  0  0  0  0  0  0  0  0  0  0
   21.1598   -8.7076  -16.7695 N   0  0  0  0  0  0  0  0  0  0  0  0
   20.5276   -7.5593  -16.0910 C   0  0  1  0  0  0  0  0  0  0  0  0
   20.9869   -6.2876  -16.7015 C   0  0  0  0  0  0  0  0  0  0  0  0
   22.2797   -5.7520  -16.2614 C   0  0  0  0  0  0  0  0  0  0  0  0
   22.4042   -5.0062  -15.0929 C   0  0  0  0  0  0  0  0  0  0  0  0
   23.6163   -4.4952  -14.6681 C   0  0  0  0  0  0  0  0  0  0  0  0
   24.7553   -4.7127  -15.4007 C   0  0  0  0  0  0  0  0  0  0  0  0
   24.6639   -5.4403  -16.5507 C   0  0  0  0  0  0  0  0  0  0  0  0
   23.4531   -5.9405  -16.9584 C   0  0  0  0  0  0  0  0  0  0  0  0
   19.0810   -7.8169  -16.1977 C   0  0  0  0  0  0  0  0  0  0  0  0
   18.5532   -8.2242  -17.2994 O   0  0  0  0  0  0  0  0  0  0  0  0
   18.1273   -7.6625  -15.1437 N   0  0  0  0  0  0  0  0  0  0  0  0
   16.7091   -7.9166  -15.3799 C   0  0  1  0  0  0  0  0  0  0  0  0
   16.0772   -8.5652  -14.1476 C   0  0  0  0  0  0  0  0  0  0  0  0
   14.6566   -8.8701  -14.3363 C   0  0  0  0  0  0  0  0  0  0  0  0
   14.0958   -8.8154  -15.4417 O   0  0  0  0  0  0  0  0  0  0  0  0
   15.9502   -6.7190  -15.7728 C   0  0  0  0  0  0  0  0  0  0  0  0
   15.0105   -6.7511  -16.8181 O   0  0  0  0  0  0  0  0  0  0  0  0
   13.8883   -9.2385  -13.2409 O   0  0  0  0  0  0  0  0  0  0  0  0
   16.0967   -5.6177  -15.2055 O   0  0  0  0  0  0  0  0  0  0  0  0
  2  1  1  1
  2  3  1  0
  4  2  1  0
  4  5  1  1
  6  7  2  0
  6  4  1  0
  8  6  1  0
  9 10  1  6
  9  8  1  0
 11 10  1  0
 11 12  2  0
 13 12  1  0
 14 13  2  0
 15 16  2  0
 15 14  1  0
 16 11  1  0
 17  9  1  0
 18 17  2  0
 19 17  1  0
 20 24  1  0
 20 19  1  0
 20 21  1  1
 22 23  2  0
 22 21  1  0
 24 25  1  0
 26 22  1  0
 27 24  2  0
M  END
$$$$
