VFD.pdb
     RDKit          3D

 27 27  0  0  1  0  0  0  0  0999 V2000
   26.1260  -19.7390  -17.2064 C   0  0  0  0  0  0  0  0  0  0  0  0
   26.9144  -20.9034  -17.7039 C   0  0  1  0  0  0  0  0  0  0  0  0
   27.4586  -20.6078  -19.0796 C   0  0  0  0  0  0  0  0  0  0  0  0
   28.0170  -21.3143  -16.7510 C   0  0  2  0  0  0  0  0  0  0  0  0
   28.6883  -22.5158  -17.2099 N   0  0  0  0  0  0  0  0  0  0  0  0
   27.5269  -21.5505  -15.3898 C   0  0  0  0  0  0  0  0  0  0  0  0
   26.9300  -22.6475  -15.1093 O   0  0  0  0  0  0  0  0  0  0  0  0
   27.6550  -20.6489  -14.3161 N   0  0  0  0  0  0  0  0  0  0  0  0
   27.2011  -20.9448  -12.9432 C   0  0  1  0  0  0  0  0  0  0  0  0
   28.0176  -20.1909  -11.9604 C   0  0  0  0  0  0  0  0  0  0  0  0
   27.6181  -20.2612  -10.5507 C   0  0  0  0  0  0  0  0  0  0  0  0
   26.6230  -19.4394  -10.0294 C   0  0  0  0  0  0  0  0  0  0  0  0
   26.2383  -19.4953   -8.7028 C   0  0  0  0  0  0  0  0  0  0  0  0
   26.8383  -20.3804   -7.8438 C   0  0  0  0  0  0  0  0  0  0  0  0
   27.8168  -21.1987   -8.3265 C   0  0  0  0  0  0  0  0  0  0  0  0
   28.1870  -21.1306   -9.6459 C   0  0  0  0  0  0  0  0  0  0  0  0
   25.7658  -20.6131  -12.9483 C   0  0  0  0  0  0  0  0  0  0  0  0
   25.3345  -19.5146  -13.4637 O   0  0  0  0  0  0  0  0  0  0  0  0
   24.7201  -21.4296  -12.4154 N   0  0  0  0  0  0  0  0  0  0  0  0
   23.3391  -20.9560  -12.4020 C   0  0  1  0  0  0  0  0  0  0  0  0
   22.4519  -21.8938  -13.2218 C   0  0  0  0  0  0  0  0  0  0  0  0
   21.9585  -21.2709  -14.4528 C   0  0  0  0  0  0  0  0  0  0  0  0
   22.1611  -20.0798  -14.7345 O   0  0  0  0  0  0  0  0  0  0  0  0
   22.7859  -20.7813  -11.0500 C   0  0  0  0  0  0  0  0  0  0  0  0
   23.4130  -21.3335   -9.9192 O   0  0  0  0  0  0  0  0  0  0  0  0
   21.2299  -22.0323  -15.3558 O   0  0  0  0  0  0  0  0  0  0  0  0
   21.7386  -20.1393  -10.8330 O   0  0  0  0  0  0  0  0  0  0  0  0
  2  1  1  1
  2  3  1  0
  4  2  1  0
  4  5  1  6
  6  7  2  0
  6  4  1  0
  8  6  1  0
  9 10  1  1
  9  8  1  0
 11 10  1  0
 11 12  2  0
 13 12  1  0
 14 13  2  0
 15 16  2  0
 15 14  1  0
 16 11  1  0
 17  9  1  0
 18 17  2  0
 19 17  1  0
 20 24  1  0
 20 19  1  0
 20 21  1  6
 22 23  2  0
 22 21  1  0
 24 25  1  0
 26 22  1  0
 27 24  2  0
M  END
$$$$
