VFD.pdb
     RDKit          3D

 27 27  0  0  1  0  0  0  0  0999 V2000
   16.2084  -13.4176  -18.1345 C   0  0  0  0  0  0  0  0  0  0  0  0
   17.2855  -12.7759  -17.3263 C   0  0  1  0  0  0  0  0  0  0  0  0
   16.7206  -12.2729  -16.0209 C   0  0  0  0  0  0  0  0  0  0  0  0
   18.4707  -13.6904  -17.0987 C   0  0  2  0  0  0  0  0  0  0  0  0
   18.0861  -14.8743  -16.3534 N   0  0  0  0  0  0  0  0  0  0  0  0
   19.5642  -13.0283  -16.3813 C   0  0  0  0  0  0  0  0  0  0  0  0
   19.7380  -13.2570  -15.1339 O   0  0  0  0  0  0  0  0  0  0  0  0
   20.4801  -12.1272  -16.9565 N   0  0  0  0  0  0  0  0  0  0  0  0
   21.5596  -11.4652  -16.1983 C   0  0  1  0  0  0  0  0  0  0  0  0
   22.8830  -11.8652  -16.7364 C   0  0  0  0  0  0  0  0  0  0  0  0
   24.0662  -11.1787  -16.2069 C   0  0  0  0  0  0  0  0  0  0  0  0
   24.6299  -10.0841  -16.8562 C   0  0  0  0  0  0  0  0  0  0  0  0
   25.7452   -9.4293  -16.3681 C   0  0  0  0  0  0  0  0  0  0  0  0
   26.3413   -9.8477  -15.2058 C   0  0  0  0  0  0  0  0  0  0  0  0
   25.8109  -10.9180  -14.5476 C   0  0  0  0  0  0  0  0  0  0  0  0
   24.7035  -11.5568  -15.0454 C   0  0  0  0  0  0  0  0  0  0  0  0
   21.2536  -10.0275  -16.2972 C   0  0  0  0  0  0  0  0  0  0  0  0
   20.9224   -9.4894  -17.4193 O   0  0  0  0  0  0  0  0  0  0  0  0
   21.2769   -9.0943  -15.2143 N   0  0  0  0  0  0  0  0  0  0  0  0
   20.9325   -7.6923  -15.4320 C   0  0  1  0  0  0  0  0  0  0  0  0
   19.7112   -7.3129  -14.5936 C   0  0  0  0  0  0  0  0  0  0  0  0
   18.5781   -6.8753  -15.4129 C   0  0  0  0  0  0  0  0  0  0  0  0
   18.6249   -6.8135  -16.6512 O   0  0  0  0  0  0  0  0  0  0  0  0
   22.0417   -6.7622  -15.1692 C   0  0  0  0  0  0  0  0  0  0  0  0
   22.2587   -5.6276  -15.9707 O   0  0  0  0  0  0  0  0  0  0  0  0
   17.3914   -6.5097  -14.7933 O   0  0  0  0  0  0  0  0  0  0  0  0
   22.8446   -6.9266  -14.2288 O   0  0  0  0  0  0  0  0  0  0  0  0
  2  1  1  1
  2  3  1  0
  4  2  1  0
  4  5  1  1
  6  7  2  0
  6  4  1  0
  8  6  1  0
  9 10  1  6
  9  8  1  0
 11 10  1  0
 11 12  2  0
 13 12  1  0
 14 13  2  0
 15 16  2  0
 15 14  1  0
 16 11  1  0
 17  9  1  0
 18 17  2  0
 19 17  1  0
 20 24  1  0
 20 19  1  0
 20 21  1  1
 22 23  2  0
 22 21  1  0
 24 25  1  0
 26 22  1  0
 27 24  2  0
M  END
$$$$
