VFD.pdb
     RDKit          3D

 27 27  0  0  1  0  0  0  0  0999 V2000
   26.2010  -23.2371  -18.9436 C   0  0  0  0  0  0  0  0  0  0  0  0
   25.5041  -22.9377  -17.6591 C   0  0  1  0  0  0  0  0  0  0  0  0
   24.0848  -23.4463  -17.7117 C   0  0  0  0  0  0  0  0  0  0  0  0
   26.2406  -23.4810  -16.4528 C   0  0  2  0  0  0  0  0  0  0  0  0
   26.2768  -24.9313  -16.4678 N   0  0  0  0  0  0  0  0  0  0  0  0
   25.6445  -23.0472  -15.1858 C   0  0  0  0  0  0  0  0  0  0  0  0
   24.9424  -23.8676  -14.4984 O   0  0  0  0  0  0  0  0  0  0  0  0
   25.7754  -21.7609  -14.6289 N   0  0  0  0  0  0  0  0  0  0  0  0
   25.0693  -21.3240  -13.4087 C   0  0  1  0  0  0  0  0  0  0  0  0
   25.9619  -20.4829  -12.5739 C   0  0  0  0  0  0  0  0  0  0  0  0
   25.7187  -20.4639  -11.1275 C   0  0  0  0  0  0  0  0  0  0  0  0
   24.5566  -19.9210  -10.5871 C   0  0  0  0  0  0  0  0  0  0  0  0
   24.3161  -19.8961   -9.2260 C   0  0  0  0  0  0  0  0  0  0  0  0
   25.2346  -20.4164   -8.3502 C   0  0  0  0  0  0  0  0  0  0  0  0
   26.3830  -20.9554   -8.8510 C   0  0  0  0  0  0  0  0  0  0  0  0
   26.6064  -20.9722  -10.2045 C   0  0  0  0  0  0  0  0  0  0  0  0
   23.8575  -20.6483  -13.9040 C   0  0  0  0  0  0  0  0  0  0  0  0
   23.7587  -20.2647  -15.1294 O   0  0  0  0  0  0  0  0  0  0  0  0
   22.6926  -20.3531  -13.1295 N   0  0  0  0  0  0  0  0  0  0  0  0
   21.3634  -20.4157  -13.7305 C   0  0  1  0  0  0  0  0  0  0  0  0
   21.2035  -21.7139  -14.5229 C   0  0  0  0  0  0  0  0  0  0  0  0
   20.8874  -21.4783  -15.9340 C   0  0  0  0  0  0  0  0  0  0  0  0
   21.5774  -20.7543  -16.6683 O   0  0  0  0  0  0  0  0  0  0  0  0
   20.2672  -20.2712  -12.7600 C   0  0  0  0  0  0  0  0  0  0  0  0
   19.1195  -19.5128  -13.0509 O   0  0  0  0  0  0  0  0  0  0  0  0
   19.7700  -22.0839  -16.4913 O   0  0  0  0  0  0  0  0  0  0  0  0
   20.2942  -20.8086  -11.6346 O   0  0  0  0  0  0  0  0  0  0  0  0
  2  1  1  6
  2  3  1  0
  4  2  1  0
  4  5  1  6
  6  7  2  0
  6  4  1  0
  8  6  1  0
  9 10  1  6
  9  8  1  0
 11 10  1  0
 11 12  2  0
 13 12  1  0
 14 13  2  0
 15 16  2  0
 15 14  1  0
 16 11  1  0
 17  9  1  0
 18 17  2  0
 19 17  1  0
 20 24  1  0
 20 19  1  0
 20 21  1  1
 22 23  2  0
 22 21  1  0
 24 25  1  0
 26 22  1  0
 27 24  2  0
M  END
$$$$
