VFD.pdb
     RDKit          3D

 27 27  0  0  1  0  0  0  0  0999 V2000
   26.8714  -18.2528  -14.2421 C   0  0  0  0  0  0  0  0  0  0  0  0
   27.9493  -19.2572  -14.4753 C   0  0  1  0  0  0  0  0  0  0  0  0
   29.0786  -18.6302  -15.2549 C   0  0  0  0  0  0  0  0  0  0  0  0
   28.4483  -19.8892  -13.1930 C   0  0  2  0  0  0  0  0  0  0  0  0
   29.4657  -20.8884  -13.4603 N   0  0  0  0  0  0  0  0  0  0  0  0
   27.3742  -20.5194  -12.4198 C   0  0  0  0  0  0  0  0  0  0  0  0
   27.0521  -21.7363  -12.6517 O   0  0  0  0  0  0  0  0  0  0  0  0
   26.6315  -19.8884  -11.4038 N   0  0  0  0  0  0  0  0  0  0  0  0
   25.6434  -20.5885  -10.5601 C   0  0  1  0  0  0  0  0  0  0  0  0
   25.5574  -19.9414   -9.2280 C   0  0  0  0  0  0  0  0  0  0  0  0
   26.7099  -20.0798   -8.3310 C   0  0  0  0  0  0  0  0  0  0  0  0
   27.1078  -19.0487   -7.4851 C   0  0  0  0  0  0  0  0  0  0  0  0
   28.1924  -19.1663   -6.6361 C   0  0  0  0  0  0  0  0  0  0  0  0
   28.9233  -20.3265   -6.6019 C   0  0  0  0  0  0  0  0  0  0  0  0
   28.5567  -21.3544   -7.4200 C   0  0  0  0  0  0  0  0  0  0  0  0
   27.4776  -21.2214   -8.2567 C   0  0  0  0  0  0  0  0  0  0  0  0
   24.3992  -20.5629  -11.3486 C   0  0  0  0  0  0  0  0  0  0  0  0
   24.0035  -19.4896  -11.9399 O   0  0  0  0  0  0  0  0  0  0  0  0
   23.5200  -21.6716  -11.5539 N   0  0  0  0  0  0  0  0  0  0  0  0
   22.3234  -21.5301  -12.3783 C   0  0  1  0  0  0  0  0  0  0  0  0
   22.0744  -22.8138  -13.1713 C   0  0  0  0  0  0  0  0  0  0  0  0
   22.8431  -22.8654  -14.4175 C   0  0  0  0  0  0  0  0  0  0  0  0
   23.5376  -21.9200  -14.8215 O   0  0  0  0  0  0  0  0  0  0  0  0
   21.1204  -21.1581  -11.6174 C   0  0  0  0  0  0  0  0  0  0  0  0
   19.9056  -20.8576  -12.2584 O   0  0  0  0  0  0  0  0  0  0  0  0
   22.8047  -24.0152  -15.1936 O   0  0  0  0  0  0  0  0  0  0  0  0
   21.1109  -21.0890  -10.3720 O   0  0  0  0  0  0  0  0  0  0  0  0
  2  1  1  1
  2  3  1  0
  4  2  1  0
  4  5  1  6
  6  7  2  0
  6  4  1  0
  8  6  1  0
  9 10  1  1
  9  8  1  0
 11 10  1  0
 11 12  2  0
 13 12  1  0
 14 13  2  0
 15 16  2  0
 15 14  1  0
 16 11  1  0
 17  9  1  0
 18 17  2  0
 19 17  1  0
 20 24  1  0
 20 19  1  0
 20 21  1  1
 22 23  2  0
 22 21  1  0
 24 25  1  0
 26 22  1  0
 27 24  2  0
M  END
$$$$
