VFD.pdb
     RDKit          3D

 27 27  0  0  1  0  0  0  0  0999 V2000
   25.8267  -19.4743  -17.6760 C   0  0  0  0  0  0  0  0  0  0  0  0
   26.7531  -20.5374  -18.1623 C   0  0  1  0  0  0  0  0  0  0  0  0
   27.4308  -20.0891  -19.4334 C   0  0  0  0  0  0  0  0  0  0  0  0
   27.7644  -20.9566  -17.1161 C   0  0  2  0  0  0  0  0  0  0  0  0
   28.5470  -22.0922  -17.5663 N   0  0  0  0  0  0  0  0  0  0  0  0
   27.1404  -21.3043  -15.8361 C   0  0  0  0  0  0  0  0  0  0  0  0
   26.6176  -22.4617  -15.6760 O   0  0  0  0  0  0  0  0  0  0  0  0
   27.0571  -20.4518  -14.7188 N   0  0  0  0  0  0  0  0  0  0  0  0
   26.4628  -20.8527  -13.4286 C   0  0  1  0  0  0  0  0  0  0  0  0
   27.1483  -20.1580  -12.3113 C   0  0  0  0  0  0  0  0  0  0  0  0
   26.5745  -20.3022  -10.9691 C   0  0  0  0  0  0  0  0  0  0  0  0
   26.5989  -21.5160  -10.2883 C   0  0  0  0  0  0  0  0  0  0  0  0
   26.0607  -21.6650   -9.0238 C   0  0  0  0  0  0  0  0  0  0  0  0
   25.4748  -20.5991   -8.3898 C   0  0  0  0  0  0  0  0  0  0  0  0
   25.4362  -19.3968   -9.0326 C   0  0  0  0  0  0  0  0  0  0  0  0
   25.9749  -19.2657  -10.2875 C   0  0  0  0  0  0  0  0  0  0  0  0
   25.0291  -20.5449  -13.5699 C   0  0  0  0  0  0  0  0  0  0  0  0
   24.6297  -19.3953  -13.9910 O   0  0  0  0  0  0  0  0  0  0  0  0
   23.9524  -21.4396  -13.2795 N   0  0  0  0  0  0  0  0  0  0  0  0
   22.5668  -20.9851  -13.3514 C   0  0  1  0  0  0  0  0  0  0  0  0
   21.7043  -22.0320  -14.0578 C   0  0  0  0  0  0  0  0  0  0  0  0
   21.3780  -21.6574  -15.4361 C   0  0  0  0  0  0  0  0  0  0  0  0
   21.6985  -20.5666  -15.9328 O   0  0  0  0  0  0  0  0  0  0  0  0
   21.9867  -20.6435  -12.0432 C   0  0  0  0  0  0  0  0  0  0  0  0
   20.8433  -19.8328  -11.9322 O   0  0  0  0  0  0  0  0  0  0  0  0
   20.6796  -22.5503  -16.2367 O   0  0  0  0  0  0  0  0  0  0  0  0
   22.4725  -21.0504  -10.9688 O   0  0  0  0  0  0  0  0  0  0  0  0
  2  1  1  1
  2  3  1  0
  4  2  1  0
  4  5  1  6
  6  7  2  0
  6  4  1  0
  8  6  1  0
  9 10  1  1
  9  8  1  0
 11 10  1  0
 11 12  2  0
 13 12  1  0
 14 13  2  0
 15 16  2  0
 15 14  1  0
 16 11  1  0
 17  9  1  0
 18 17  2  0
 19 17  1  0
 20 24  1  0
 20 19  1  0
 20 21  1  1
 22 23  2  0
 22 21  1  0
 24 25  1  0
 26 22  1  0
 27 24  2  0
M  END
$$$$
