VFD.pdb
     RDKit          3D

 27 27  0  0  1  0  0  0  0  0999 V2000
   25.3995  -21.4561  -18.0364 C   0  0  0  0  0  0  0  0  0  0  0  0
   26.2984  -22.6333  -18.2132 C   0  0  1  0  0  0  0  0  0  0  0  0
   26.9869  -22.5598  -19.5536 C   0  0  0  0  0  0  0  0  0  0  0  0
   27.2989  -22.7807  -17.0864 C   0  0  2  0  0  0  0  0  0  0  0  0
   28.0596  -24.0093  -17.2157 N   0  0  0  0  0  0  0  0  0  0  0  0
   26.6656  -22.7669  -15.7645 C   0  0  0  0  0  0  0  0  0  0  0  0
   25.9947  -23.7828  -15.3691 O   0  0  0  0  0  0  0  0  0  0  0  0
   26.7266  -21.6987  -14.8494 N   0  0  0  0  0  0  0  0  0  0  0  0
   26.0471  -21.7064  -13.5392 C   0  0  1  0  0  0  0  0  0  0  0  0
   26.8141  -20.8979  -12.5599 C   0  0  0  0  0  0  0  0  0  0  0  0
   26.1817  -20.6213  -11.2656 C   0  0  0  0  0  0  0  0  0  0  0  0
   25.2752  -19.5780  -11.1012 C   0  0  0  0  0  0  0  0  0  0  0  0
   24.6734  -19.3064   -9.8867 C   0  0  0  0  0  0  0  0  0  0  0  0
   24.9580  -20.0728   -8.7853 C   0  0  0  0  0  0  0  0  0  0  0  0
   25.8429  -21.1024   -8.9163 C   0  0  0  0  0  0  0  0  0  0  0  0
   26.4314  -21.3587  -10.1288 C   0  0  0  0  0  0  0  0  0  0  0  0
   24.6872  -21.2170  -13.8247 C   0  0  0  0  0  0  0  0  0  0  0  0
   24.4902  -20.1810  -14.5636 O   0  0  0  0  0  0  0  0  0  0  0  0
   23.4735  -21.8036  -13.3482 N   0  0  0  0  0  0  0  0  0  0  0  0
   22.1938  -21.1281  -13.5423 C   0  0  1  0  0  0  0  0  0  0  0  0
   21.1975  -22.0703  -14.2193 C   0  0  0  0  0  0  0  0  0  0  0  0
   19.8924  -21.4439  -14.4450 C   0  0  0  0  0  0  0  0  0  0  0  0
   19.0051  -21.4022  -13.5788 O   0  0  0  0  0  0  0  0  0  0  0  0
   21.6189  -20.5811  -12.3034 C   0  0  0  0  0  0  0  0  0  0  0  0
   21.5933  -21.3250  -11.1106 O   0  0  0  0  0  0  0  0  0  0  0  0
   19.6188  -20.8661  -15.6768 O   0  0  0  0  0  0  0  0  0  0  0  0
   21.1261  -19.4367  -12.2425 O   0  0  0  0  0  0  0  0  0  0  0  0
  2  1  1  1
  2  3  1  0
  4  2  1  0
  4  5  1  6
  6  7  2  0
  6  4  1  0
  8  6  1  0
  9 10  1  1
  9  8  1  0
 11 10  1  0
 11 12  2  0
 13 12  1  0
 14 13  2  0
 15 16  2  0
 15 14  1  0
 16 11  1  0
 17  9  1  0
 18 17  2  0
 19 17  1  0
 20 24  1  0
 20 19  1  0
 20 21  1  1
 22 23  2  0
 22 21  1  0
 24 25  1  0
 26 22  1  0
 27 24  2  0
M  END
$$$$
