VFD.pdb
     RDKit          3D

 27 27  0  0  1  0  0  0  0  0999 V2000
   21.6166  -13.3536  -17.6151 C   0  0  0  0  0  0  0  0  0  0  0  0
   22.3243  -12.4275  -18.5459 C   0  0  1  0  0  0  0  0  0  0  0  0
   22.6145  -13.1291  -19.8497 C   0  0  0  0  0  0  0  0  0  0  0  0
   21.5698  -11.1342  -18.7713 C   0  0  2  0  0  0  0  0  0  0  0  0
   22.1468  -10.3720  -19.8626 N   0  0  0  0  0  0  0  0  0  0  0  0
   21.5409  -10.2830  -17.5783 C   0  0  0  0  0  0  0  0  0  0  0  0
   21.0909  -10.7489  -16.4743 O   0  0  0  0  0  0  0  0  0  0  0  0
   21.9789   -8.9460  -17.5279 N   0  0  0  0  0  0  0  0  0  0  0  0
   21.9066   -8.1086  -16.3146 C   0  0  1  0  0  0  0  0  0  0  0  0
   23.2564   -7.6072  -15.9574 C   0  0  0  0  0  0  0  0  0  0  0  0
   24.2439   -8.5884  -15.4950 C   0  0  0  0  0  0  0  0  0  0  0  0
   23.9948   -9.4226  -14.4090 C   0  0  0  0  0  0  0  0  0  0  0  0
   24.9174  -10.3503  -13.9629 C   0  0  0  0  0  0  0  0  0  0  0  0
   26.1303  -10.4787  -14.5903 C   0  0  0  0  0  0  0  0  0  0  0  0
   26.4025   -9.6744  -15.6577 C   0  0  0  0  0  0  0  0  0  0  0  0
   25.4759   -8.7587  -16.0879 C   0  0  0  0  0  0  0  0  0  0  0  0
   20.9195   -7.0655  -16.6430 C   0  0  0  0  0  0  0  0  0  0  0  0
   20.8957   -6.5082  -17.8036 O   0  0  0  0  0  0  0  0  0  0  0  0
   19.9083   -6.5687  -15.7627 N   0  0  0  0  0  0  0  0  0  0  0  0
   19.0522   -5.4563  -16.1646 C   0  0  1  0  0  0  0  0  0  0  0  0
   17.7706   -5.4490  -15.3304 C   0  0  0  0  0  0  0  0  0  0  0  0
   16.8404   -6.5134  -15.7159 C   0  0  0  0  0  0  0  0  0  0  0  0
   16.9806   -7.1921  -16.7449 O   0  0  0  0  0  0  0  0  0  0  0  0
   19.7143   -4.1443  -16.0955 C   0  0  0  0  0  0  0  0  0  0  0  0
   20.8769   -3.9440  -15.3305 O   0  0  0  0  0  0  0  0  0  0  0  0
   15.7479   -6.7887  -14.9056 O   0  0  0  0  0  0  0  0  0  0  0  0
   19.2852   -3.1449  -16.7064 O   0  0  0  0  0  0  0  0  0  0  0  0
  2  1  1  1
  2  3  1  0
  4  2  1  0
  4  5  1  6
  6  7  2  0
  6  4  1  0
  8  6  1  0
  9 10  1  6
  9  8  1  0
 11 10  1  0
 11 12  2  0
 13 12  1  0
 14 13  2  0
 15 16  2  0
 15 14  1  0
 16 11  1  0
 17  9  1  0
 18 17  2  0
 19 17  1  0
 20 24  1  0
 20 19  1  0
 20 21  1  1
 22 23  2  0
 22 21  1  0
 24 25  1  0
 26 22  1  0
 27 24  2  0
M  END
$$$$
