VFD.pdb
     RDKit          3D

 27 27  0  0  1  0  0  0  0  0999 V2000
   24.6030  -21.5363   -6.5386 C   0  0  0  0  0  0  0  0  0  0  0  0
   24.6994  -21.0862   -7.9574 C   0  0  1  0  0  0  0  0  0  0  0  0
   23.5779  -20.1273   -8.2716 C   0  0  0  0  0  0  0  0  0  0  0  0
   26.0487  -20.4854   -8.2909 C   0  0  2  0  0  0  0  0  0  0  0  0
   26.3869  -19.4115   -7.3759 N   0  0  0  0  0  0  0  0  0  0  0  0
   26.1106  -19.9630   -9.6591 C   0  0  0  0  0  0  0  0  0  0  0  0
   25.7811  -18.7483   -9.8925 O   0  0  0  0  0  0  0  0  0  0  0  0
   26.5146  -20.6996  -10.7887 N   0  0  0  0  0  0  0  0  0  0  0  0
   26.5125  -20.1564  -12.1611 C   0  0  1  0  0  0  0  0  0  0  0  0
   27.8358  -20.3680  -12.7975 C   0  0  0  0  0  0  0  0  0  0  0  0
   27.9661  -20.0316  -14.2193 C   0  0  0  0  0  0  0  0  0  0  0  0
   28.1489  -18.7201  -14.6481 C   0  0  0  0  0  0  0  0  0  0  0  0
   28.2719  -18.3900  -15.9848 C   0  0  0  0  0  0  0  0  0  0  0  0
   28.2165  -19.3654  -16.9476 C   0  0  0  0  0  0  0  0  0  0  0  0
   28.0383  -20.6600  -16.5571 C   0  0  0  0  0  0  0  0  0  0  0  0
   27.9178  -20.9707  -15.2262 C   0  0  0  0  0  0  0  0  0  0  0  0
   25.3846  -20.8326  -12.8251 C   0  0  0  0  0  0  0  0  0  0  0  0
   25.1897  -22.0983  -12.6899 O   0  0  0  0  0  0  0  0  0  0  0  0
   24.4076  -20.2016  -13.6566 N   0  0  0  0  0  0  0  0  0  0  0  0
   23.3643  -20.9883  -14.3080 C   0  0  1  0  0  0  0  0  0  0  0  0
   22.0453  -20.2145  -14.3122 C   0  0  0  0  0  0  0  0  0  0  0  0
   21.2424  -20.4613  -13.1118 C   0  0  0  0  0  0  0  0  0  0  0  0
   21.5719  -21.2753  -12.2352 O   0  0  0  0  0  0  0  0  0  0  0  0
   23.7101  -21.4162  -15.6725 C   0  0  0  0  0  0  0  0  0  0  0  0
   23.7879  -20.4994  -16.7357 O   0  0  0  0  0  0  0  0  0  0  0  0
   20.0572  -19.7626  -12.9303 O   0  0  0  0  0  0  0  0  0  0  0  0
   23.9514  -22.6058  -15.9601 O   0  0  0  0  0  0  0  0  0  0  0  0
  2  1  1  1
  2  3  1  0
  4  2  1  0
  4  5  1  1
  6  7  2  0
  6  4  1  0
  8  6  1  0
  9 10  1  6
  9  8  1  0
 11 10  1  0
 11 12  2  0
 13 12  1  0
 14 13  2  0
 15 16  2  0
 15 14  1  0
 16 11  1  0
 17  9  1  0
 18 17  2  0
 19 17  1  0
 20 24  1  0
 20 19  1  0
 20 21  1  6
 22 23  2  0
 22 21  1  0
 24 25  1  0
 26 22  1  0
 27 24  2  0
M  END
$$$$
