FPA.pdb
     RDKit          3D

 24 25  0  0  1  0  0  0  0  0999 V2000
    5.3406  -17.4436   25.3863 N   0  0  0  0  0  0  0  0  0  0  0  0
    6.2026  -16.3555   25.0856 C   0  0  1  0  0  0  0  0  0  0  0  0
    7.0576  -15.9233   26.2554 C   0  0  0  0  0  0  0  0  0  0  0  0
    7.0594  -14.4572   26.4328 C   0  0  0  0  0  0  0  0  0  0  0  0
    8.2442  -13.7646   26.3350 C   0  0  0  0  0  0  0  0  0  0  0  0
    8.2759  -12.3738   26.5005 C   0  0  0  0  0  0  0  0  0  0  0  0
    7.1312  -11.6764   26.7623 C   0  0  0  0  0  0  0  0  0  0  0  0
    5.9354  -12.3656   26.8622 C   0  0  0  0  0  0  0  0  0  0  0  0
    5.9158  -13.7345   26.6975 C   0  0  0  0  0  0  0  0  0  0  0  0
    7.0076  -16.6509   23.8864 C   0  0  0  0  0  0  0  0  0  0  0  0
    7.1013  -17.8836   23.5134 O   0  0  0  0  0  0  0  0  0  0  0  0
    7.7015  -15.7104   23.0868 N   0  0  0  0  0  0  0  0  0  0  0  0
    7.8967  -14.2936   23.2208 C   0  0  0  0  0  0  0  0  0  0  0  0
    8.0817  -13.7940   21.7920 C   0  0  0  0  0  0  0  0  0  0  0  0
    7.9182  -15.0285   20.9188 C   0  0  0  0  0  0  0  0  0  0  0  0
    8.4177  -16.0855   21.8817 C   0  0  1  0  0  0  0  0  0  0  0  0
    9.8893  -15.9318   22.0635 C   0  0  0  0  0  0  0  0  0  0  0  0
   10.4177  -15.0528   22.7694 O   0  0  0  0  0  0  0  0  0  0  0  0
   12.2629  -18.7292   21.5443 C   0  0  0  0  0  0  0  0  0  0  0  0
   11.9680  -17.3037   21.9770 C   0  0  2  0  0  0  0  0  0  0  0  0
   10.7290  -16.8522   21.3835 N   0  0  0  0  0  0  0  0  0  0  0  0
   13.0633  -16.4175   21.5220 C   0  0  0  0  0  0  0  0  0  0  0  0
   14.2085  -16.4966   22.0340 O   0  0  0  0  0  0  0  0  0  0  0  0
   12.8870  -15.4689   20.5235 O   0  0  0  0  0  0  0  0  0  0  0  0
  2  1  1  1
  2 10  1  0
  3  2  1  0
  4  3  1  0
  5  4  2  0
  6  5  1  0
  7  6  2  0
  7  8  1  0
  8  9  2  0
  9  4  1  0
 10 12  1  0
 11 10  2  0
 12 13  1  0
 12 16  1  0
 13 14  1  0
 15 14  1  0
 16 15  1  0
 17 21  1  0
 16 17  1  1
 18 17  2  0
 20 19  1  6
 20 22  1  0
 20 21  1  0
 22 24  1  0
 23 22  2  0
M  END
$$$$
