FPA.pdb
     RDKit          3D

 24 25  0  0  1  0  0  0  0  0999 V2000
    5.3529  -17.5925   25.3055 N   0  0  0  0  0  0  0  0  0  0  0  0
    6.2089  -16.4642   25.1983 C   0  0  1  0  0  0  0  0  0  0  0  0
    6.8012  -16.0298   26.5199 C   0  0  0  0  0  0  0  0  0  0  0  0
    6.9990  -14.5679   26.5884 C   0  0  0  0  0  0  0  0  0  0  0  0
    8.2749  -14.0545   26.5488 C   0  0  0  0  0  0  0  0  0  0  0  0
    8.4924  -12.6720   26.6138 C   0  0  0  0  0  0  0  0  0  0  0  0
    7.4423  -11.8050   26.7178 C   0  0  0  0  0  0  0  0  0  0  0  0
    6.1559  -12.3133   26.7581 C   0  0  0  0  0  0  0  0  0  0  0  0
    5.9534  -13.6758   26.6935 C   0  0  0  0  0  0  0  0  0  0  0  0
    7.2433  -16.6965   24.1739 C   0  0  0  0  0  0  0  0  0  0  0  0
    7.5690  -17.9187   23.9142 O   0  0  0  0  0  0  0  0  0  0  0  0
    7.9297  -15.7046   23.4320 N   0  0  0  0  0  0  0  0  0  0  0  0
    7.9227  -14.2702   23.5088 C   0  0  0  0  0  0  0  0  0  0  0  0
    8.2635  -13.8076   22.0964 C   0  0  0  0  0  0  0  0  0  0  0  0
    8.3938  -15.0866   21.2837 C   0  0  0  0  0  0  0  0  0  0  0  0
    8.8658  -16.0287   22.3715 C   0  0  1  0  0  0  0  0  0  0  0  0
   10.2603  -15.6737   22.7611 C   0  0  0  0  0  0  0  0  0  0  0  0
   10.5596  -14.6948   23.4698 O   0  0  0  0  0  0  0  0  0  0  0  0
   12.9799  -18.1945   22.7977 C   0  0  0  0  0  0  0  0  0  0  0  0
   12.4519  -16.8063   23.1144 C   0  0  2  0  0  0  0  0  0  0  0  0
   11.3023  -16.5130   22.2875 N   0  0  0  0  0  0  0  0  0  0  0  0
   13.5064  -15.8056   22.8339 C   0  0  0  0  0  0  0  0  0  0  0  0
   14.5203  -15.7166   23.5716 O   0  0  0  0  0  0  0  0  0  0  0  0
   13.4330  -14.9279   21.7605 O   0  0  0  0  0  0  0  0  0  0  0  0
  2  1  1  1
  2 10  1  0
  3  2  1  0
  4  3  1  0
  5  4  2  0
  6  5  1  0
  7  6  2  0
  7  8  1  0
  8  9  2  0
  9  4  1  0
 10 12  1  0
 11 10  2  0
 12 13  1  0
 12 16  1  0
 13 14  1  0
 15 14  1  0
 16 15  1  0
 17 21  1  0
 16 17  1  1
 18 17  2  0
 20 19  1  6
 20 22  1  0
 20 21  1  0
 22 24  1  0
 23 22  2  0
M  END
$$$$
