FPA.pdb
     RDKit          3D

 24 25  0  0  1  0  0  0  0  0999 V2000
    5.5237  -17.5491   25.6059 N   0  0  0  0  0  0  0  0  0  0  0  0
    6.3331  -16.4301   25.2741 C   0  0  1  0  0  0  0  0  0  0  0  0
    7.2229  -15.9730   26.4078 C   0  0  0  0  0  0  0  0  0  0  0  0
    7.1999  -14.5061   26.5779 C   0  0  0  0  0  0  0  0  0  0  0  0
    5.9997  -13.8676   26.7896 C   0  0  0  0  0  0  0  0  0  0  0  0
    5.9477  -12.4771   26.9524 C   0  0  0  0  0  0  0  0  0  0  0  0
    7.0876  -11.7263   26.9046 C   0  0  0  0  0  0  0  0  0  0  0  0
    8.2988  -12.3609   26.6921 C   0  0  0  0  0  0  0  0  0  0  0  0
    8.3382  -13.7301   26.5330 C   0  0  0  0  0  0  0  0  0  0  0  0
    7.0945  -16.6919   24.0392 C   0  0  0  0  0  0  0  0  0  0  0  0
    7.1607  -17.9116   23.6204 O   0  0  0  0  0  0  0  0  0  0  0  0
    7.7732  -15.7315   23.2502 N   0  0  0  0  0  0  0  0  0  0  0  0
    7.9522  -14.3145   23.4041 C   0  0  0  0  0  0  0  0  0  0  0  0
    8.1241  -13.7919   21.9820 C   0  0  0  0  0  0  0  0  0  0  0  0
    7.9710  -15.0153   21.0915 C   0  0  0  0  0  0  0  0  0  0  0  0
    8.4877  -16.0802   22.0362 C   0  0  1  0  0  0  0  0  0  0  0  0
    9.9583  -15.9117   22.2133 C   0  0  0  0  0  0  0  0  0  0  0  0
   10.4842  -14.9582   22.8168 O   0  0  0  0  0  0  0  0  0  0  0  0
   12.5852  -18.5541   21.7297 C   0  0  0  0  0  0  0  0  0  0  0  0
   12.0777  -17.2220   22.2534 C   0  0  2  0  0  0  0  0  0  0  0  0
   10.8000  -16.9081   21.6535 N   0  0  0  0  0  0  0  0  0  0  0  0
   13.0432  -16.1568   21.8992 C   0  0  0  0  0  0  0  0  0  0  0  0
   12.8500  -15.4215   20.8982 O   0  0  0  0  0  0  0  0  0  0  0  0
   14.1926  -15.9176   22.6404 O   0  0  0  0  0  0  0  0  0  0  0  0
  2  1  1  1
  2 10  1  0
  3  2  1  0
  4  3  1  0
  5  4  2  0
  6  5  1  0
  7  6  2  0
  7  8  1  0
  8  9  2  0
  9  4  1  0
 10 12  1  0
 11 10  2  0
 12 13  1  0
 12 16  1  0
 13 14  1  0
 15 14  1  0
 16 15  1  0
 17 21  1  0
 16 17  1  1
 18 17  2  0
 20 19  1  6
 20 22  1  0
 20 21  1  0
 22 24  1  0
 23 22  2  0
M  END
$$$$
