FPA.pdb
     RDKit          3D

 24 25  0  0  1  0  0  0  0  0999 V2000
    5.6316  -17.5236   25.5216 N   0  0  0  0  0  0  0  0  0  0  0  0
    6.3303  -16.3627   25.0954 C   0  0  1  0  0  0  0  0  0  0  0  0
    7.3410  -15.8640   26.1033 C   0  0  0  0  0  0  0  0  0  0  0  0
    7.1355  -14.4412   26.4415 C   0  0  0  0  0  0  0  0  0  0  0  0
    8.2253  -13.6111   26.5691 C   0  0  0  0  0  0  0  0  0  0  0  0
    8.0603  -12.2576   26.8909 C   0  0  0  0  0  0  0  0  0  0  0  0
    6.8139  -11.7338   27.0846 C   0  0  0  0  0  0  0  0  0  0  0  0
    5.7126  -12.5620   26.9579 C   0  0  0  0  0  0  0  0  0  0  0  0
    5.8867  -13.8927   26.6409 C   0  0  0  0  0  0  0  0  0  0  0  0
    6.9297  -16.5800   23.7662 C   0  0  0  0  0  0  0  0  0  0  0  0
    6.7828  -17.7420   23.2227 O   0  0  0  0  0  0  0  0  0  0  0  0
    7.6625  -15.6336   23.0093 N   0  0  0  0  0  0  0  0  0  0  0  0
    8.0565  -14.2800   23.2852 C   0  0  0  0  0  0  0  0  0  0  0  0
    8.1682  -13.6247   21.9130 C   0  0  0  0  0  0  0  0  0  0  0  0
    7.7587  -14.7064   20.9253 C   0  0  0  0  0  0  0  0  0  0  0  0
    8.2032  -15.9319   21.6962 C   0  0  1  0  0  0  0  0  0  0  0  0
    9.6928  -15.9811   21.7289 C   0  0  0  0  0  0  0  0  0  0  0  0
   10.4201  -15.7807   20.7385 O   0  0  0  0  0  0  0  0  0  0  0  0
   12.0028  -15.2159   24.3538 C   0  0  0  0  0  0  0  0  0  0  0  0
   11.7322  -16.1088   23.1555 C   0  0  2  0  0  0  0  0  0  0  0  0
   10.3073  -16.2758   22.9740 N   0  0  0  0  0  0  0  0  0  0  0  0
   12.3405  -17.4384   23.3884 C   0  0  0  0  0  0  0  0  0  0  0  0
   13.5752  -17.5530   23.5940 O   0  0  0  0  0  0  0  0  0  0  0  0
   11.5930  -18.6085   23.3920 O   0  0  0  0  0  0  0  0  0  0  0  0
  2  1  1  1
  2 10  1  0
  3  2  1  0
  4  3  1  0
  5  4  2  0
  6  5  1  0
  7  6  2  0
  7  8  1  0
  8  9  2  0
  9  4  1  0
 10 12  1  0
 11 10  2  0
 12 13  1  0
 12 16  1  0
 13 14  1  0
 15 14  1  0
 16 15  1  0
 17 21  1  0
 16 17  1  1
 18 17  2  0
 20 19  1  1
 20 22  1  0
 20 21  1  0
 22 24  1  0
 23 22  2  0
M  END
$$$$
