FPA.pdb
     RDKit          3D

 24 25  0  0  1  0  0  0  0  0999 V2000
    2.1740  -22.2736   21.6286 N   0  0  0  0  0  0  0  0  0  0  0  0
    2.6074  -20.9707   21.9919 C   0  0  1  0  0  0  0  0  0  0  0  0
    1.9402  -20.4404   23.2408 C   0  0  0  0  0  0  0  0  0  0  0  0
    0.4749  -20.3357   23.0883 C   0  0  0  0  0  0  0  0  0  0  0  0
   -0.3423  -21.1850   23.7981 C   0  0  0  0  0  0  0  0  0  0  0  0
   -1.7355  -21.1094   23.6717 C   0  0  0  0  0  0  0  0  0  0  0  0
   -2.3116  -20.1909   22.8413 C   0  0  0  0  0  0  0  0  0  0  0  0
   -1.4966  -19.3329   22.1239 C   0  0  0  0  0  0  0  0  0  0  0  0
   -0.1266  -19.4162   22.2559 C   0  0  0  0  0  0  0  0  0  0  0  0
    4.0780  -20.9226   22.0828 C   0  0  0  0  0  0  0  0  0  0  0  0
    4.7226  -22.0384   22.0003 O   0  0  0  0  0  0  0  0  0  0  0  0
    4.8724  -19.7629   22.2545 N   0  0  0  0  0  0  0  0  0  0  0  0
    4.5304  -18.3979   22.5433 C   0  0  0  0  0  0  0  0  0  0  0  0
    5.6603  -17.5797   21.9276 C   0  0  0  0  0  0  0  0  0  0  0  0
    6.5704  -18.6019   21.2641 C   0  0  0  0  0  0  0  0  0  0  0  0
    6.3210  -19.7877   22.1725 C   0  0  1  0  0  0  0  0  0  0  0  0
    6.9373  -19.5273   23.5047 C   0  0  0  0  0  0  0  0  0  0  0  0
    6.4623  -18.7508   24.3540 O   0  0  0  0  0  0  0  0  0  0  0  0
    8.7553  -22.0772   25.2443 C   0  0  0  0  0  0  0  0  0  0  0  0
    8.4546  -20.5904   25.1714 C   0  0  2  0  0  0  0  0  0  0  0  0
    8.1409  -20.2146   23.8108 N   0  0  0  0  0  0  0  0  0  0  0  0
    9.6448  -19.8281   25.6124 C   0  0  0  0  0  0  0  0  0  0  0  0
   10.0763  -19.9340   26.7883 O   0  0  0  0  0  0  0  0  0  0  0  0
   10.3352  -18.9710   24.7661 O   0  0  0  0  0  0  0  0  0  0  0  0
  2  1  1  1
  2 10  1  0
  3  2  1  0
  4  3  1  0
  5  4  2  0
  6  5  1  0
  7  6  2  0
  7  8  1  0
  8  9  2  0
  9  4  1  0
 10 12  1  0
 11 10  2  0
 12 13  1  0
 12 16  1  0
 13 14  1  0
 15 14  1  0
 16 15  1  0
 17 21  1  0
 16 17  1  1
 18 17  2  0
 20 19  1  6
 20 22  1  0
 20 21  1  0
 22 24  1  0
 23 22  2  0
M  END
$$$$
