FPA.pdb
     RDKit          3D

 24 25  0  0  1  0  0  0  0  0999 V2000
    6.7822  -17.4802   26.9435 N   0  0  0  0  0  0  0  0  0  0  0  0
    6.5640  -16.4535   25.9866 C   0  0  1  0  0  0  0  0  0  0  0  0
    6.8039  -15.0630   26.5298 C   0  0  0  0  0  0  0  0  0  0  0  0
    8.1153  -14.9445   27.1987 C   0  0  0  0  0  0  0  0  0  0  0  0
    8.6886  -16.0584   27.7674 C   0  0  0  0  0  0  0  0  0  0  0  0
    9.9308  -15.9750   28.4099 C   0  0  0  0  0  0  0  0  0  0  0  0
   10.5986  -14.7860   28.4850 C   0  0  0  0  0  0  0  0  0  0  0  0
   10.0288  -13.6610   27.9154 C   0  0  0  0  0  0  0  0  0  0  0  0
    8.8057  -13.7545   27.2855 C   0  0  0  0  0  0  0  0  0  0  0  0
    7.3423  -16.7152   24.7622 C   0  0  0  0  0  0  0  0  0  0  0  0
    7.5238  -17.9459   24.4164 O   0  0  0  0  0  0  0  0  0  0  0  0
    7.9224  -15.7436   23.9108 N   0  0  0  0  0  0  0  0  0  0  0  0
    8.0630  -14.3193   24.0336 C   0  0  0  0  0  0  0  0  0  0  0  0
    8.1037  -13.8115   22.5964 C   0  0  0  0  0  0  0  0  0  0  0  0
    7.9240  -15.0520   21.7350 C   0  0  0  0  0  0  0  0  0  0  0  0
    8.5508  -16.0851   22.6481 C   0  0  1  0  0  0  0  0  0  0  0  0
   10.0239  -15.8638   22.7059 C   0  0  0  0  0  0  0  0  0  0  0  0
   10.5780  -15.0467   23.4644 O   0  0  0  0  0  0  0  0  0  0  0  0
   12.1437  -18.6709   21.5881 C   0  0  0  0  0  0  0  0  0  0  0  0
   11.9822  -17.3606   22.3387 C   0  0  2  0  0  0  0  0  0  0  0  0
   10.8335  -16.6402   21.8362 N   0  0  0  0  0  0  0  0  0  0  0  0
   13.1902  -16.5287   22.1368 C   0  0  0  0  0  0  0  0  0  0  0  0
   14.2865  -16.8497   22.6615 O   0  0  0  0  0  0  0  0  0  0  0  0
   13.1769  -15.3706   21.3711 O   0  0  0  0  0  0  0  0  0  0  0  0
  2  1  1  1
  2 10  1  0
  3  2  1  0
  4  3  1  0
  5  4  2  0
  6  5  1  0
  7  6  2  0
  7  8  1  0
  8  9  2  0
  9  4  1  0
 10 12  1  0
 11 10  2  0
 12 13  1  0
 12 16  1  0
 13 14  1  0
 15 14  1  0
 16 15  1  0
 17 21  1  0
 16 17  1  1
 18 17  2  0
 20 19  1  6
 20 22  1  0
 20 21  1  0
 22 24  1  0
 23 22  2  0
M  END
$$$$
