FPA.pdb
     RDKit          3D

 24 25  0  0  1  0  0  0  0  0999 V2000
    6.6307  -16.2923   26.0452 N   0  0  0  0  0  0  0  0  0  0  0  0
    6.1920  -15.9688   24.7337 C   0  0  1  0  0  0  0  0  0  0  0  0
    5.8877  -14.4998   24.5455 C   0  0  0  0  0  0  0  0  0  0  0  0
    6.4896  -13.6657   25.6053 C   0  0  0  0  0  0  0  0  0  0  0  0
    7.8471  -13.4419   25.6019 C   0  0  0  0  0  0  0  0  0  0  0  0
    8.4454  -12.6563   26.5958 C   0  0  0  0  0  0  0  0  0  0  0  0
    7.6934  -12.0961   27.5887 C   0  0  0  0  0  0  0  0  0  0  0  0
    6.3273  -12.3163   27.5992 C   0  0  0  0  0  0  0  0  0  0  0  0
    5.7490  -13.0913   26.6161 C   0  0  0  0  0  0  0  0  0  0  0  0
    7.1477  -16.4726   23.7307 C   0  0  0  0  0  0  0  0  0  0  0  0
    7.3317  -17.7489   23.6629 O   0  0  0  0  0  0  0  0  0  0  0  0
    7.8989  -15.6922   22.8185 N   0  0  0  0  0  0  0  0  0  0  0  0
    8.0566  -14.2719   22.6715 C   0  0  0  0  0  0  0  0  0  0  0  0
    8.3686  -14.0705   21.1927 C   0  0  0  0  0  0  0  0  0  0  0  0
    8.3101  -15.4633   20.5845 C   0  0  0  0  0  0  0  0  0  0  0  0
    8.7330  -16.2808   21.7872 C   0  0  1  0  0  0  0  0  0  0  0  0
   10.1777  -16.0398   22.0646 C   0  0  0  0  0  0  0  0  0  0  0  0
   10.6189  -15.0280   22.6406 O   0  0  0  0  0  0  0  0  0  0  0  0
   12.5682  -18.8992   22.1501 C   0  0  0  0  0  0  0  0  0  0  0  0
   12.1605  -17.4818   22.5119 C   0  0  2  0  0  0  0  0  0  0  0  0
   11.0971  -17.0344   21.6400 N   0  0  0  0  0  0  0  0  0  0  0  0
   13.3229  -16.5802   22.3446 C   0  0  0  0  0  0  0  0  0  0  0  0
   13.3874  -15.7891   21.3698 O   0  0  0  0  0  0  0  0  0  0  0  0
   14.3845  -16.5607   23.2391 O   0  0  0  0  0  0  0  0  0  0  0  0
  2  1  1  1
  2 10  1  0
  3  2  1  0
  4  3  1  0
  5  4  2  0
  6  5  1  0
  7  6  2  0
  7  8  1  0
  8  9  2  0
  9  4  1  0
 10 12  1  0
 11 10  2  0
 12 13  1  0
 12 16  1  0
 13 14  1  0
 15 14  1  0
 16 15  1  0
 17 21  1  0
 16 17  1  1
 18 17  2  0
 20 19  1  6
 20 22  1  0
 20 21  1  0
 22 24  1  0
 23 22  2  0
M  END
$$$$
