EAG.pdb
     RDKit          3D

 19 18  0  0  1  0  0  0  0  0999 V2000
   13.8648  -22.1421   26.3160 N   0  0  0  0  0  0  0  0  0  0  0  0
   14.0799  -22.8065   27.6073 C   0  0  1  0  0  0  0  0  0  0  0  0
   15.4913  -22.4806   28.0138 C   0  0  0  0  0  0  0  0  0  0  0  0
   16.5445  -23.0318   27.1170 C   0  0  0  0  0  0  0  0  0  0  0  0
   17.9311  -22.7384   27.5082 C   0  0  0  0  0  0  0  0  0  0  0  0
   18.8477  -23.5212   27.1574 O   0  0  0  0  0  0  0  0  0  0  0  0
   13.0701  -22.3496   28.5810 C   0  0  0  0  0  0  0  0  0  0  0  0
   12.5274  -21.2245   28.5019 O   0  0  0  0  0  0  0  0  0  0  0  0
   18.2443  -21.5902   28.2717 O   0  0  0  0  0  0  0  0  0  0  0  0
   10.6926  -24.0167   30.8907 C   0  0  0  0  0  0  0  0  0  0  0  0
   11.5421  -22.8138   30.5394 C   0  0  2  0  0  0  0  0  0  0  0  0
   12.6454  -23.1651   29.6806 N   0  0  0  0  0  0  0  0  0  0  0  0
   11.9857  -22.1441   31.7809 C   0  0  0  0  0  0  0  0  0  0  0  0
   11.1692  -21.7089   32.6006 O   0  0  0  0  0  0  0  0  0  0  0  0
   13.3779  -22.0046   32.0240 N   0  0  0  0  0  0  0  0  0  0  0  0
   13.9164  -21.3830   33.2012 C   0  0  0  0  0  0  0  0  0  0  0  0
   15.1669  -20.6649   32.9685 C   0  0  0  0  0  0  0  0  0  0  0  0
   15.6937  -20.6598   31.8368 O   0  0  0  0  0  0  0  0  0  0  0  0
   15.7860  -19.9817   33.9923 O   0  0  0  0  0  0  0  0  0  0  0  0
  2  1  1  6
  3  2  1  0
  4  3  1  0
  5  6  2  0
  5  4  1  0
  7  2  1  0
  8  7  2  0
  9  5  1  0
 11 10  1  1
 11 12  1  0
 12  7  1  0
 13 11  1  0
 14 13  2  0
 15 13  1  0
 16 15  1  0
 17 16  1  0
 17 19  1  0
 18 17  2  0
M  END
$$$$
