EAG.pdb
     RDKit          3D

 19 18  0  0  1  0  0  0  0  0999 V2000
   10.3587  -17.6122   18.6279 N   0  0  0  0  0  0  0  0  0  0  0  0
   11.3253  -17.8628   19.7039 C   0  0  1  0  0  0  0  0  0  0  0  0
   12.6863  -17.7919   19.0665 C   0  0  0  0  0  0  0  0  0  0  0  0
   13.1004  -19.0216   18.3358 C   0  0  0  0  0  0  0  0  0  0  0  0
   14.4565  -18.9984   17.7681 C   0  0  0  0  0  0  0  0  0  0  0  0
   15.1596  -17.9666   17.8972 O   0  0  0  0  0  0  0  0  0  0  0  0
   11.1351  -16.8805   20.7881 C   0  0  0  0  0  0  0  0  0  0  0  0
   11.0077  -15.6555   20.5646 O   0  0  0  0  0  0  0  0  0  0  0  0
   14.9769  -20.1194   17.0810 O   0  0  0  0  0  0  0  0  0  0  0  0
    9.8550  -16.7946   24.2344 C   0  0  0  0  0  0  0  0  0  0  0  0
   10.8951  -16.3219   23.2409 C   0  0  2  0  0  0  0  0  0  0  0  0
   11.0840  -17.2659   22.1678 N   0  0  0  0  0  0  0  0  0  0  0  0
   12.1551  -16.0190   23.9530 C   0  0  0  0  0  0  0  0  0  0  0  0
   12.1622  -15.3223   24.9740 O   0  0  0  0  0  0  0  0  0  0  0  0
   13.3726  -16.5439   23.4441 N   0  0  0  0  0  0  0  0  0  0  0  0
   14.6495  -16.3201   24.0621 C   0  0  0  0  0  0  0  0  0  0  0  0
   15.7540  -17.0074   23.3978 C   0  0  0  0  0  0  0  0  0  0  0  0
   15.5470  -17.7101   22.3870 O   0  0  0  0  0  0  0  0  0  0  0  0
   17.0415  -16.8926   23.8743 O   0  0  0  0  0  0  0  0  0  0  0  0
  2  1  1  6
  3  2  1  0
  4  3  1  0
  5  6  2  0
  5  4  1  0
  7  2  1  0
  8  7  2  0
  9  5  1  0
 11 10  1  1
 11 12  1  0
 12  7  1  0
 13 11  1  0
 14 13  2  0
 15 13  1  0
 16 15  1  0
 17 16  1  0
 17 19  1  0
 18 17  2  0
M  END
$$$$
