EAG.pdb
     RDKit          3D

 19 18  0  0  1  0  0  0  0  0999 V2000
   11.8433  -15.1793   16.6232 N   0  0  0  0  0  0  0  0  0  0  0  0
   12.4346  -15.5066   17.9265 C   0  0  1  0  0  0  0  0  0  0  0  0
   13.7473  -14.7739   17.9844 C   0  0  0  0  0  0  0  0  0  0  0  0
   14.7345  -15.1744   16.9440 C   0  0  0  0  0  0  0  0  0  0  0  0
   16.0688  -14.5688   17.0658 C   0  0  0  0  0  0  0  0  0  0  0  0
   16.8445  -14.9665   17.9690 O   0  0  0  0  0  0  0  0  0  0  0  0
   11.5053  -15.1287   19.0082 C   0  0  0  0  0  0  0  0  0  0  0  0
   10.9205  -14.0222   19.0301 O   0  0  0  0  0  0  0  0  0  0  0  0
   16.4877  -13.5477   16.1818 O   0  0  0  0  0  0  0  0  0  0  0  0
    9.1590  -16.7185   21.2350 C   0  0  0  0  0  0  0  0  0  0  0  0
   10.2576  -15.6814   21.1350 C   0  0  2  0  0  0  0  0  0  0  0  0
   11.2121  -16.0048   20.1042 N   0  0  0  0  0  0  0  0  0  0  0  0
   10.8944  -15.5089   22.4584 C   0  0  0  0  0  0  0  0  0  0  0  0
   10.2281  -15.2096   23.4556 O   0  0  0  0  0  0  0  0  0  0  0  0
   12.2979  -15.6930   22.5723 N   0  0  0  0  0  0  0  0  0  0  0  0
   13.0051  -15.6273   23.8205 C   0  0  0  0  0  0  0  0  0  0  0  0
   14.4295  -15.9300   23.7070 C   0  0  0  0  0  0  0  0  0  0  0  0
   14.9236  -16.2511   22.6066 O   0  0  0  0  0  0  0  0  0  0  0  0
   15.2516  -15.8664   24.8108 O   0  0  0  0  0  0  0  0  0  0  0  0
  2  1  1  6
  3  2  1  0
  4  3  1  0
  5  6  2  0
  5  4  1  0
  7  2  1  0
  8  7  2  0
  9  5  1  0
 11 10  1  1
 11 12  1  0
 12  7  1  0
 13 11  1  0
 14 13  2  0
 15 13  1  0
 16 15  1  0
 17 16  1  0
 17 19  1  0
 18 17  2  0
M  END
$$$$
