EAG.pdb
     RDKit          3D

 19 18  0  0  1  0  0  0  0  0999 V2000
    8.1442  -13.3907   17.4318 N   0  0  0  0  0  0  0  0  0  0  0  0
    7.7041  -14.4034   18.3992 C   0  0  1  0  0  0  0  0  0  0  0  0
    8.1993  -15.7238   17.8748 C   0  0  0  0  0  0  0  0  0  0  0  0
    9.3738  -15.6350   16.9636 C   0  0  0  0  0  0  0  0  0  0  0  0
   10.4823  -16.5534   17.2627 C   0  0  0  0  0  0  0  0  0  0  0  0
   11.5785  -16.0862   17.6576 O   0  0  0  0  0  0  0  0  0  0  0  0
    8.2227  -14.0748   19.7406 C   0  0  0  0  0  0  0  0  0  0  0  0
    9.3622  -13.5872   19.9150 O   0  0  0  0  0  0  0  0  0  0  0  0
   10.3301  -17.9511   17.1116 O   0  0  0  0  0  0  0  0  0  0  0  0
    6.7919  -13.8207   23.2421 C   0  0  0  0  0  0  0  0  0  0  0  0
    7.9264  -13.9388   22.2465 C   0  0  2  0  0  0  0  0  0  0  0  0
    7.4547  -14.2930   20.9311 N   0  0  0  0  0  0  0  0  0  0  0  0
    8.9347  -14.8914   22.7589 C   0  0  0  0  0  0  0  0  0  0  0  0
    9.4252  -14.7602   23.8859 O   0  0  0  0  0  0  0  0  0  0  0  0
    9.3384  -15.9725   21.9311 N   0  0  0  0  0  0  0  0  0  0  0  0
   10.2295  -17.0112   22.3661 C   0  0  0  0  0  0  0  0  0  0  0  0
   11.6422  -16.6958   22.1697 C   0  0  0  0  0  0  0  0  0  0  0  0
   11.9839  -15.6111   21.6551 O   0  0  0  0  0  0  0  0  0  0  0  0
   12.6208  -17.5885   22.5484 O   0  0  0  0  0  0  0  0  0  0  0  0
  2  1  1  6
  3  2  1  0
  4  3  1  0
  5  6  2  0
  5  4  1  0
  7  2  1  0
  8  7  2  0
  9  5  1  0
 11 10  1  1
 11 12  1  0
 12  7  1  0
 13 11  1  0
 14 13  2  0
 15 13  1  0
 16 15  1  0
 17 16  1  0
 17 19  1  0
 18 17  2  0
M  END
$$$$
