EAG.pdb
     RDKit          3D

 19 18  0  0  1  0  0  0  0  0999 V2000
    7.4168  -17.7053   18.3448 N   0  0  0  0  0  0  0  0  0  0  0  0
    7.7818  -17.9807   19.7398 C   0  0  1  0  0  0  0  0  0  0  0  0
    8.6252  -19.2262   19.7118 C   0  0  0  0  0  0  0  0  0  0  0  0
    8.6437  -19.9409   18.4055 C   0  0  0  0  0  0  0  0  0  0  0  0
    9.4538  -21.1671   18.3622 C   0  0  0  0  0  0  0  0  0  0  0  0
    8.8847  -22.2832   18.4419 O   0  0  0  0  0  0  0  0  0  0  0  0
    8.4788  -16.8148   20.3156 C   0  0  0  0  0  0  0  0  0  0  0  0
    9.3947  -16.2169   19.7072 O   0  0  0  0  0  0  0  0  0  0  0  0
   10.8605  -21.1056   18.2326 O   0  0  0  0  0  0  0  0  0  0  0  0
    7.9253  -14.3656   23.1067 C   0  0  0  0  0  0  0  0  0  0  0  0
    8.8335  -15.1656   22.1970 C   0  0  2  0  0  0  0  0  0  0  0  0
    8.1517  -16.2918   21.6094 N   0  0  0  0  0  0  0  0  0  0  0  0
   10.0467  -15.5670   22.9409 C   0  0  0  0  0  0  0  0  0  0  0  0
   10.7731  -14.7264   23.4828 O   0  0  0  0  0  0  0  0  0  0  0  0
   10.3723  -16.9467   23.0268 N   0  0  0  0  0  0  0  0  0  0  0  0
   11.5294  -17.4444   23.7165 C   0  0  0  0  0  0  0  0  0  0  0  0
   11.2630  -17.8577   25.0918 C   0  0  0  0  0  0  0  0  0  0  0  0
   10.1167  -17.7518   25.5747 O   0  0  0  0  0  0  0  0  0  0  0  0
   12.2704  -18.3710   25.8792 O   0  0  0  0  0  0  0  0  0  0  0  0
  2  1  1  6
  3  2  1  0
  4  3  1  0
  5  6  2  0
  5  4  1  0
  7  2  1  0
  8  7  2  0
  9  5  1  0
 11 10  1  1
 11 12  1  0
 12  7  1  0
 13 11  1  0
 14 13  2  0
 15 13  1  0
 16 15  1  0
 17 16  1  0
 17 19  1  0
 18 17  2  0
M  END
$$$$
