EAG.pdb
     RDKit          3D

 19 18  0  0  1  0  0  0  0  0999 V2000
    9.0505  -17.5784   18.5671 N   0  0  0  0  0  0  0  0  0  0  0  0
    9.5442  -18.0520   19.8660 C   0  0  1  0  0  0  0  0  0  0  0  0
   10.7358  -18.9205   19.5675 C   0  0  0  0  0  0  0  0  0  0  0  0
   11.4370  -18.6051   18.2922 C   0  0  0  0  0  0  0  0  0  0  0  0
   12.5966  -19.4523   17.9770 C   0  0  0  0  0  0  0  0  0  0  0  0
   13.2979  -19.1851   16.9706 O   0  0  0  0  0  0  0  0  0  0  0  0
    9.8614  -16.9008   20.7323 C   0  0  0  0  0  0  0  0  0  0  0  0
   10.7119  -16.0395   20.4134 O   0  0  0  0  0  0  0  0  0  0  0  0
   12.9308  -20.5601   18.7897 O   0  0  0  0  0  0  0  0  0  0  0  0
    8.2717  -15.1902   23.6832 C   0  0  0  0  0  0  0  0  0  0  0  0
    9.4703  -15.5466   22.8296 C   0  0  2  0  0  0  0  0  0  0  0  0
    9.2159  -16.6944   21.9953 N   0  0  0  0  0  0  0  0  0  0  0  0
   10.6547  -15.7309   23.6955 C   0  0  0  0  0  0  0  0  0  0  0  0
   11.0032  -14.8580   24.4984 O   0  0  0  0  0  0  0  0  0  0  0  0
   11.3968  -16.9374   23.5931 N   0  0  0  0  0  0  0  0  0  0  0  0
   12.5266  -17.2435   24.4252 C   0  0  0  0  0  0  0  0  0  0  0  0
   13.7099  -17.6652   23.6799 C   0  0  0  0  0  0  0  0  0  0  0  0
   14.7555  -17.9883   24.2805 O   0  0  0  0  0  0  0  0  0  0  0  0
   13.6930  -17.7136   22.3031 O   0  0  0  0  0  0  0  0  0  0  0  0
  2  1  1  6
  3  2  1  0
  4  3  1  0
  5  6  2  0
  5  4  1  0
  7  2  1  0
  8  7  2  0
  9  5  1  0
 11 10  1  1
 11 12  1  0
 12  7  1  0
 13 11  1  0
 14 13  2  0
 15 13  1  0
 16 15  1  0
 17 16  1  0
 17 19  1  0
 18 17  2  0
M  END
$$$$
