EAG.pdb
     RDKit          3D

 19 18  0  0  1  0  0  0  0  0999 V2000
    6.2908  -28.3646   23.6018 N   0  0  0  0  0  0  0  0  0  0  0  0
    5.8024  -27.5186   24.6975 C   0  0  1  0  0  0  0  0  0  0  0  0
    6.8432  -27.5976   25.7810 C   0  0  0  0  0  0  0  0  0  0  0  0
    6.5654  -26.7578   26.9789 C   0  0  0  0  0  0  0  0  0  0  0  0
    7.6082  -26.7626   28.0154 C   0  0  0  0  0  0  0  0  0  0  0  0
    8.0415  -27.8590   28.4467 O   0  0  0  0  0  0  0  0  0  0  0  0
    5.5711  -26.1465   24.2073 C   0  0  0  0  0  0  0  0  0  0  0  0
    6.3987  -25.5474   23.4840 O   0  0  0  0  0  0  0  0  0  0  0  0
    8.1273  -25.5525   28.5308 O   0  0  0  0  0  0  0  0  0  0  0  0
    2.6521  -23.7381   24.0717 C   0  0  0  0  0  0  0  0  0  0  0  0
    4.1266  -24.0802   24.0359 C   0  0  2  0  0  0  0  0  0  0  0  0
    4.3834  -25.4108   24.5278 N   0  0  0  0  0  0  0  0  0  0  0  0
    4.8896  -23.0501   24.7730 C   0  0  0  0  0  0  0  0  0  0  0  0
    5.1005  -23.1552   25.9864 O   0  0  0  0  0  0  0  0  0  0  0  0
    5.3835  -21.9242   24.0622 N   0  0  0  0  0  0  0  0  0  0  0  0
    6.2024  -20.9080   24.6614 C   0  0  0  0  0  0  0  0  0  0  0  0
    7.6305  -21.2140   24.6402 C   0  0  0  0  0  0  0  0  0  0  0  0
    8.0441  -22.2739   24.1266 O   0  0  0  0  0  0  0  0  0  0  0  0
    8.5448  -20.3395   25.1857 O   0  0  0  0  0  0  0  0  0  0  0  0
  2  1  1  6
  3  2  1  0
  4  3  1  0
  5  6  2  0
  5  4  1  0
  7  2  1  0
  8  7  2  0
  9  5  1  0
 11 10  1  1
 11 12  1  0
 12  7  1  0
 13 11  1  0
 14 13  2  0
 15 13  1  0
 16 15  1  0
 17 16  1  0
 17 19  1  0
 18 17  2  0
M  END
$$$$
