EAG.pdb
     RDKit          3D

 19 18  0  0  1  0  0  0  0  0999 V2000
    8.1719  -19.6845   20.9382 N   0  0  0  0  0  0  0  0  0  0  0  0
    7.9208  -20.3257   22.2347 C   0  0  1  0  0  0  0  0  0  0  0  0
    8.8199  -21.5309   22.2847 C   0  0  0  0  0  0  0  0  0  0  0  0
    8.5995  -22.5223   21.1957 C   0  0  0  0  0  0  0  0  0  0  0  0
    9.4515  -23.7197   21.2429 C   0  0  0  0  0  0  0  0  0  0  0  0
    9.0014  -24.7751   21.7522 O   0  0  0  0  0  0  0  0  0  0  0  0
    8.1691  -19.3646   23.3262 C   0  0  0  0  0  0  0  0  0  0  0  0
    9.1582  -18.5976   23.3283 O   0  0  0  0  0  0  0  0  0  0  0  0
   10.7667  -23.6977   20.7240 O   0  0  0  0  0  0  0  0  0  0  0  0
    6.4251  -17.3594   25.7527 C   0  0  0  0  0  0  0  0  0  0  0  0
    7.5485  -18.3556   25.5583 C   0  0  2  0  0  0  0  0  0  0  0  0
    7.2933  -19.2475   24.4548 N   0  0  0  0  0  0  0  0  0  0  0  0
    7.7891  -19.0805   26.8244 C   0  0  0  0  0  0  0  0  0  0  0  0
    6.9548  -19.8719   27.2778 O   0  0  0  0  0  0  0  0  0  0  0  0
    9.0048  -18.8543   27.5228 N   0  0  0  0  0  0  0  0  0  0  0  0
    9.3667  -19.5501   28.7258 C   0  0  0  0  0  0  0  0  0  0  0  0
   10.6886  -19.1958   29.2362 C   0  0  0  0  0  0  0  0  0  0  0  0
   11.3955  -18.3587   28.6381 O   0  0  0  0  0  0  0  0  0  0  0  0
   11.1778  -19.7783   30.3849 O   0  0  0  0  0  0  0  0  0  0  0  0
  2  1  1  6
  3  2  1  0
  4  3  1  0
  5  6  2  0
  5  4  1  0
  7  2  1  0
  8  7  2  0
  9  5  1  0
 11 10  1  1
 11 12  1  0
 12  7  1  0
 13 11  1  0
 14 13  2  0
 15 13  1  0
 16 15  1  0
 17 16  1  0
 17 19  1  0
 18 17  2  0
M  END
$$$$
