EAG.pdb
     RDKit          3D

 19 18  0  0  1  0  0  0  0  0999 V2000
    8.0237  -14.4130   21.3406 N   0  0  0  0  0  0  0  0  0  0  0  0
    7.2627  -14.6850   22.5662 C   0  0  1  0  0  0  0  0  0  0  0  0
    7.4308  -16.1540   22.8439 C   0  0  0  0  0  0  0  0  0  0  0  0
    8.6775  -16.7563   22.2957 C   0  0  0  0  0  0  0  0  0  0  0  0
    8.8507  -18.1955   22.5416 C   0  0  0  0  0  0  0  0  0  0  0  0
   10.0098  -18.6687   22.6326 O   0  0  0  0  0  0  0  0  0  0  0  0
    7.7489  -13.8232   23.6604 C   0  0  0  0  0  0  0  0  0  0  0  0
    8.9352  -13.4289   23.7230 O   0  0  0  0  0  0  0  0  0  0  0  0
    7.7324  -19.0504   22.6763 O   0  0  0  0  0  0  0  0  0  0  0  0
    6.2042  -11.7653   26.4299 C   0  0  0  0  0  0  0  0  0  0  0  0
    7.3462  -12.5281   25.7926 C   0  0  2  0  0  0  0  0  0  0  0  0
    6.8937  -13.3818   24.7227 N   0  0  0  0  0  0  0  0  0  0  0  0
    8.0832  -13.2741   26.8352 C   0  0  0  0  0  0  0  0  0  0  0  0
    8.5454  -12.7001   27.8275 O   0  0  0  0  0  0  0  0  0  0  0  0
    8.2562  -14.6753   26.6816 N   0  0  0  0  0  0  0  0  0  0  0  0
    8.7872  -15.5238   27.7114 C   0  0  0  0  0  0  0  0  0  0  0  0
   10.1942  -15.8680   27.5237 C   0  0  0  0  0  0  0  0  0  0  0  0
   10.8270  -15.4340   26.5391 O   0  0  0  0  0  0  0  0  0  0  0  0
   10.8467  -16.6766   28.4285 O   0  0  0  0  0  0  0  0  0  0  0  0
  2  1  1  6
  3  2  1  0
  4  3  1  0
  5  6  2  0
  5  4  1  0
  7  2  1  0
  8  7  2  0
  9  5  1  0
 11 10  1  1
 11 12  1  0
 12  7  1  0
 13 11  1  0
 14 13  2  0
 15 13  1  0
 16 15  1  0
 17 16  1  0
 17 19  1  0
 18 17  2  0
M  END
$$$$
