EAG.pdb
     RDKit          3D

 19 18  0  0  1  0  0  0  0  0999 V2000
    4.9270  -18.2517   21.4429 N   0  0  0  0  0  0  0  0  0  0  0  0
    5.6897  -18.1346   22.6917 C   0  0  1  0  0  0  0  0  0  0  0  0
    6.4700  -19.4140   22.8250 C   0  0  0  0  0  0  0  0  0  0  0  0
    5.7696  -20.5006   23.5641 C   0  0  0  0  0  0  0  0  0  0  0  0
    6.4547  -20.9964   24.7670 C   0  0  0  0  0  0  0  0  0  0  0  0
    7.5560  -20.4934   25.0986 O   0  0  0  0  0  0  0  0  0  0  0  0
    6.5420  -16.9312   22.6482 C   0  0  0  0  0  0  0  0  0  0  0  0
    7.2051  -16.6189   21.6335 O   0  0  0  0  0  0  0  0  0  0  0  0
    5.8911  -22.0287   25.5519 O   0  0  0  0  0  0  0  0  0  0  0  0
    6.9681  -13.6943   24.3981 C   0  0  0  0  0  0  0  0  0  0  0  0
    7.5883  -14.9345   23.7901 C   0  0  2  0  0  0  0  0  0  0  0  0
    6.6657  -16.0420   23.7656 N   0  0  0  0  0  0  0  0  0  0  0  0
    8.8409  -15.2604   24.5052 C   0  0  0  0  0  0  0  0  0  0  0  0
    8.8803  -15.3057   25.7399 O   0  0  0  0  0  0  0  0  0  0  0  0
   10.0131  -15.5239   23.7480 N   0  0  0  0  0  0  0  0  0  0  0  0
   11.2681  -15.8970   24.3381 C   0  0  0  0  0  0  0  0  0  0  0  0
   12.3226  -16.1602   23.3623 C   0  0  0  0  0  0  0  0  0  0  0  0
   12.0843  -16.0959   22.1386 O   0  0  0  0  0  0  0  0  0  0  0  0
   13.5968  -16.4835   23.7745 O   0  0  0  0  0  0  0  0  0  0  0  0
  2  1  1  6
  3  2  1  0
  4  3  1  0
  5  6  2  0
  5  4  1  0
  7  2  1  0
  8  7  2  0
  9  5  1  0
 11 10  1  1
 11 12  1  0
 12  7  1  0
 13 11  1  0
 14 13  2  0
 15 13  1  0
 16 15  1  0
 17 16  1  0
 17 19  1  0
 18 17  2  0
M  END
$$$$
