IAF.pdb
     RDKit          3D

 25 25  0  0  1  0  0  0  0  0999 V2000
    7.6809  -11.8431   19.5278 C   0  0  0  0  0  0  0  0  0  0  0  0
    7.6912  -13.3217   19.2911 C   0  0  0  0  0  0  0  0  0  0  0  0
    7.7681  -13.9992   20.6600 C   0  0  2  0  0  0  0  0  0  0  0  0
    9.0864  -13.6823   21.2784 C   0  0  0  0  0  0  0  0  0  0  0  0
    7.6305  -15.5038   20.4989 C   0  0  2  0  0  0  0  0  0  0  0  0
    6.2848  -15.7876   19.9474 N   0  0  0  0  0  0  0  0  0  0  0  0
    7.6520  -16.1130   21.8405 C   0  0  0  0  0  0  0  0  0  0  0  0
    6.6058  -16.0816   22.5486 O   0  0  0  0  0  0  0  0  0  0  0  0
    9.2201  -18.8353   23.4566 C   0  0  0  0  0  0  0  0  0  0  0  0
    8.7641  -17.3982   23.6959 C   0  0  2  0  0  0  0  0  0  0  0  0
    8.7793  -16.7424   22.3984 N   0  0  0  0  0  0  0  0  0  0  0  0
    9.7241  -16.7898   24.6343 C   0  0  0  0  0  0  0  0  0  0  0  0
   10.8940  -17.2792   24.8007 O   0  0  0  0  0  0  0  0  0  0  0  0
    9.4392  -15.6389   25.4128 N   0  0  0  0  0  0  0  0  0  0  0  0
    9.7806  -15.5152   26.8165 C   0  0  1  0  0  0  0  0  0  0  0  0
    8.5053  -15.1813   27.5606 C   0  0  0  0  0  0  0  0  0  0  0  0
    7.8605  -13.9479   27.0733 C   0  0  0  0  0  0  0  0  0  0  0  0
    6.4919  -13.8893   26.9252 C   0  0  0  0  0  0  0  0  0  0  0  0
    5.8524  -12.7445   26.4690 C   0  0  0  0  0  0  0  0  0  0  0  0
    6.5913  -11.6345   26.1537 C   0  0  0  0  0  0  0  0  0  0  0  0
    7.9803  -11.6616   26.2928 C   0  0  0  0  0  0  0  0  0  0  0  0
    8.5852  -12.8209   26.7507 C   0  0  0  0  0  0  0  0  0  0  0  0
   10.4563  -16.6987   27.3478 C   0  0  0  0  0  0  0  0  0  0  0  0
    9.8789  -17.9598   27.4142 O   0  0  0  0  0  0  0  0  0  0  0  0
   11.6339  -16.5871   27.7759 O   0  0  0  0  0  0  0  0  0  0  0  0
  1  2  1  0
  2  3  1  0
  3  4  1  6
  3  5  1  0
  5  6  1  1
  5  7  1  0
  7  8  2  0
 10  9  1  6
 11  7  1  0
 11 10  1  0
 12 10  1  0
 12 13  2  0
 14 12  1  0
 15 14  1  0
 15 16  1  1
 17 18  2  0
 17 16  1  0
 19 18  1  0
 20 19  2  0
 21 20  1  0
 21 22  2  0
 22 17  1  0
 23 15  1  0
 24 23  1  0
 25 23  2  0
M  END
$$$$
