IAF.pdb
     RDKit          3D

 25 25  0  0  1  0  0  0  0  0999 V2000
    6.2496  -20.9086   25.3173 C   0  0  0  0  0  0  0  0  0  0  0  0
    5.8523  -20.6168   23.9033 C   0  0  0  0  0  0  0  0  0  0  0  0
    6.4747  -19.2716   23.5262 C   0  0  2  0  0  0  0  0  0  0  0  0
    5.9540  -18.2262   24.4517 C   0  0  0  0  0  0  0  0  0  0  0  0
    6.1044  -18.9152   22.0964 C   0  0  2  0  0  0  0  0  0  0  0  0
    6.4309  -20.0741   21.2327 N   0  0  0  0  0  0  0  0  0  0  0  0
    6.9869  -17.8216   21.6527 C   0  0  0  0  0  0  0  0  0  0  0  0
    8.1988  -18.0726   21.3972 O   0  0  0  0  0  0  0  0  0  0  0  0
    6.5799  -14.1960   20.8319 C   0  0  0  0  0  0  0  0  0  0  0  0
    7.4614  -15.4122   21.1042 C   0  0  2  0  0  0  0  0  0  0  0  0
    6.5644  -16.4903   21.4880 N   0  0  0  0  0  0  0  0  0  0  0  0
    8.3822  -15.0443   22.1947 C   0  0  0  0  0  0  0  0  0  0  0  0
    9.4258  -14.3383   21.9753 O   0  0  0  0  0  0  0  0  0  0  0  0
    8.1936  -15.4322   23.5459 N   0  0  0  0  0  0  0  0  0  0  0  0
    9.1421  -15.1424   24.6035 C   0  0  1  0  0  0  0  0  0  0  0  0
    8.3451  -14.9080   25.8691 C   0  0  0  0  0  0  0  0  0  0  0  0
    9.1950  -14.6265   27.0408 C   0  0  0  0  0  0  0  0  0  0  0  0
    9.6296  -15.6544   27.8489 C   0  0  0  0  0  0  0  0  0  0  0  0
   10.4305  -15.4249   28.9596 C   0  0  0  0  0  0  0  0  0  0  0  0
   10.8067  -14.1450   29.2721 C   0  0  0  0  0  0  0  0  0  0  0  0
   10.3829  -13.0813   28.4732 C   0  0  0  0  0  0  0  0  0  0  0  0
    9.5844  -13.3468   27.3726 C   0  0  0  0  0  0  0  0  0  0  0  0
   10.1624  -16.1792   24.7575 C   0  0  0  0  0  0  0  0  0  0  0  0
    9.9048  -17.5415   24.6803 O   0  0  0  0  0  0  0  0  0  0  0  0
   11.3528  -15.8351   24.9739 O   0  0  0  0  0  0  0  0  0  0  0  0
  1  2  1  0
  2  3  1  0
  3  4  1  1
  3  5  1  0
  5  6  1  6
  5  7  1  0
  7  8  2  0
 10  9  1  1
 11  7  1  0
 11 10  1  0
 12 10  1  0
 12 13  2  0
 14 12  1  0
 15 14  1  0
 15 16  1  1
 17 18  2  0
 17 16  1  0
 19 18  1  0
 20 19  2  0
 21 20  1  0
 21 22  2  0
 22 17  1  0
 23 15  1  0
 24 23  1  0
 25 23  2  0
M  END
$$$$
