IAF.pdb
     RDKit          3D

 25 25  0  0  1  0  0  0  0  0999 V2000
    8.0338  -12.3387   20.7414 C   0  0  0  0  0  0  0  0  0  0  0  0
    8.0688  -13.5756   21.5847 C   0  0  0  0  0  0  0  0  0  0  0  0
    7.6977  -14.7515   20.6800 C   0  0  2  0  0  0  0  0  0  0  0  0
    6.3136  -14.5443   20.1679 C   0  0  0  0  0  0  0  0  0  0  0  0
    7.7590  -16.0484   21.4692 C   0  0  2  0  0  0  0  0  0  0  0  0
    6.9538  -15.8772   22.7013 N   0  0  0  0  0  0  0  0  0  0  0  0
    9.1478  -16.2458   21.9206 C   0  0  0  0  0  0  0  0  0  0  0  0
   10.0503  -16.4604   21.0625 O   0  0  0  0  0  0  0  0  0  0  0  0
   11.7207  -15.2458   23.0585 C   0  0  0  0  0  0  0  0  0  0  0  0
   10.9264  -16.3834   23.6951 C   0  0  2  0  0  0  0  0  0  0  0  0
    9.5475  -16.2087   23.2686 N   0  0  0  0  0  0  0  0  0  0  0  0
   11.0745  -16.2508   25.1556 C   0  0  0  0  0  0  0  0  0  0  0  0
   12.2261  -16.1395   25.7007 O   0  0  0  0  0  0  0  0  0  0  0  0
    9.9800  -16.2356   26.0575 N   0  0  0  0  0  0  0  0  0  0  0  0
   10.1273  -16.1307   27.4961 C   0  0  1  0  0  0  0  0  0  0  0  0
    8.8153  -15.6118   28.0448 C   0  0  0  0  0  0  0  0  0  0  0  0
    8.2759  -14.4782   27.2712 C   0  0  0  0  0  0  0  0  0  0  0  0
    7.2146  -14.6635   26.4121 C   0  0  0  0  0  0  0  0  0  0  0  0
    6.6823  -13.6186   25.6689 C   0  0  0  0  0  0  0  0  0  0  0  0
    7.2179  -12.3626   25.7835 C   0  0  0  0  0  0  0  0  0  0  0  0
    8.2938  -12.1418   26.6454 C   0  0  0  0  0  0  0  0  0  0  0  0
    8.7999  -13.2075   27.3718 C   0  0  0  0  0  0  0  0  0  0  0  0
   10.5498  -17.3838   28.1213 C   0  0  0  0  0  0  0  0  0  0  0  0
   10.5934  -18.6055   27.4628 O   0  0  0  0  0  0  0  0  0  0  0  0
   10.8989  -17.3743   29.3298 O   0  0  0  0  0  0  0  0  0  0  0  0
  1  2  1  0
  2  3  1  0
  3  4  1  1
  3  5  1  0
  5  6  1  1
  5  7  1  0
  7  8  2  0
 10  9  1  6
 11  7  1  0
 11 10  1  0
 12 10  1  0
 12 13  2  0
 14 12  1  0
 15 14  1  0
 15 16  1  1
 17 18  2  0
 17 16  1  0
 19 18  1  0
 20 19  2  0
 21 20  1  0
 21 22  2  0
 22 17  1  0
 23 15  1  0
 24 23  1  0
 25 23  2  0
M  END
$$$$
