IAF.pdb
     RDKit          3D

 25 25  0  0  1  0  0  0  0  0999 V2000
    8.1925  -11.6517   20.5293 C   0  0  0  0  0  0  0  0  0  0  0  0
    7.7311  -13.0092   20.0974 C   0  0  0  0  0  0  0  0  0  0  0  0
    7.7395  -13.9059   21.3363 C   0  0  2  0  0  0  0  0  0  0  0  0
    9.1224  -13.9450   21.8904 C   0  0  0  0  0  0  0  0  0  0  0  0
    7.3033  -15.3114   20.9581 C   0  0  2  0  0  0  0  0  0  0  0  0
    5.9076  -15.2442   20.4650 N   0  0  0  0  0  0  0  0  0  0  0  0
    7.2571  -16.1238   22.1867 C   0  0  0  0  0  0  0  0  0  0  0  0
    6.2644  -16.0145   22.9610 O   0  0  0  0  0  0  0  0  0  0  0  0
    8.9164  -19.2510   23.1538 C   0  0  0  0  0  0  0  0  0  0  0  0
    8.0686  -18.0553   23.5803 C   0  0  2  0  0  0  0  0  0  0  0  0
    8.2612  -17.0335   22.5640 N   0  0  0  0  0  0  0  0  0  0  0  0
    8.5626  -17.6227   24.8999 C   0  0  0  0  0  0  0  0  0  0  0  0
    8.4808  -18.3845   25.9240 O   0  0  0  0  0  0  0  0  0  0  0  0
    9.1558  -16.3569   25.1398 N   0  0  0  0  0  0  0  0  0  0  0  0
    9.6916  -15.9527   26.4249 C   0  0  1  0  0  0  0  0  0  0  0  0
    8.5239  -15.5002   27.2756 C   0  0  0  0  0  0  0  0  0  0  0  0
    7.8986  -14.2594   26.7817 C   0  0  0  0  0  0  0  0  0  0  0  0
    6.5637  -14.2403   26.4407 C   0  0  0  0  0  0  0  0  0  0  0  0
    5.9433  -13.0898   25.9725 C   0  0  0  0  0  0  0  0  0  0  0  0
    6.6674  -11.9340   25.8411 C   0  0  0  0  0  0  0  0  0  0  0  0
    8.0222  -11.9204   26.1783 C   0  0  0  0  0  0  0  0  0  0  0  0
    8.6088  -13.0866   26.6422 C   0  0  0  0  0  0  0  0  0  0  0  0
   10.4916  -16.9963   27.0656 C   0  0  0  0  0  0  0  0  0  0  0  0
   11.2977  -16.7865   28.1766 O   0  0  0  0  0  0  0  0  0  0  0  0
   10.4606  -18.1626   26.5954 O   0  0  0  0  0  0  0  0  0  0  0  0
  1  2  1  0
  2  3  1  0
  3  4  1  6
  3  5  1  0
  5  6  1  1
  5  7  1  0
  7  8  2  0
 10  9  1  6
 11  7  1  0
 11 10  1  0
 12 10  1  0
 12 13  2  0
 14 12  1  0
 15 14  1  0
 15 16  1  1
 17 18  2  0
 17 16  1  0
 19 18  1  0
 20 19  2  0
 21 20  1  0
 21 22  2  0
 22 17  1  0
 23 15  1  0
 24 23  1  0
 25 23  2  0
M  END
$$$$
