IAF.pdb
     RDKit          3D

 25 25  0  0  1  0  0  0  0  0999 V2000
    7.7659  -18.9710   28.6599 C   0  0  0  0  0  0  0  0  0  0  0  0
    6.8941  -19.5401   27.5837 C   0  0  0  0  0  0  0  0  0  0  0  0
    7.2540  -18.8223   26.2821 C   0  0  2  0  0  0  0  0  0  0  0  0
    6.9963  -17.3644   26.4514 C   0  0  0  0  0  0  0  0  0  0  0  0
    6.4028  -19.3605   25.1443 C   0  0  2  0  0  0  0  0  0  0  0  0
    6.6707  -20.8120   25.0144 N   0  0  0  0  0  0  0  0  0  0  0  0
    6.8755  -18.7503   23.8891 C   0  0  0  0  0  0  0  0  0  0  0  0
    7.9865  -19.1122   23.4078 O   0  0  0  0  0  0  0  0  0  0  0  0
    5.5237  -16.2900   21.4159 C   0  0  0  0  0  0  0  0  0  0  0  0
    6.6641  -17.1446   21.9634 C   0  0  2  0  0  0  0  0  0  0  0  0
    6.1596  -17.7741   23.1730 N   0  0  0  0  0  0  0  0  0  0  0  0
    7.7911  -16.2363   22.2414 C   0  0  0  0  0  0  0  0  0  0  0  0
    8.5023  -15.7492   21.2967 O   0  0  0  0  0  0  0  0  0  0  0  0
    8.1727  -15.8356   23.5474 N   0  0  0  0  0  0  0  0  0  0  0  0
    9.3620  -15.0568   23.8322 C   0  0  1  0  0  0  0  0  0  0  0  0
    8.9130  -13.6387   24.1131 C   0  0  0  0  0  0  0  0  0  0  0  0
    8.0326  -13.5364   25.2916 C   0  0  0  0  0  0  0  0  0  0  0  0
    8.5629  -13.2777   26.5367 C   0  0  0  0  0  0  0  0  0  0  0  0
    7.7632  -13.1750   27.6671 C   0  0  0  0  0  0  0  0  0  0  0  0
    6.4068  -13.3332   27.5552 C   0  0  0  0  0  0  0  0  0  0  0  0
    5.8382  -13.5962   26.3075 C   0  0  0  0  0  0  0  0  0  0  0  0
    6.6662  -13.6922   25.2008 C   0  0  0  0  0  0  0  0  0  0  0  0
   10.1715  -15.6218   24.9116 C   0  0  0  0  0  0  0  0  0  0  0  0
    9.7937  -16.7185   25.6749 O   0  0  0  0  0  0  0  0  0  0  0  0
   11.2820  -15.0952   25.1800 O   0  0  0  0  0  0  0  0  0  0  0  0
  1  2  1  0
  2  3  1  0
  3  4  1  1
  3  5  1  0
  5  6  1  6
  5  7  1  0
  7  8  2  0
 10  9  1  1
 11  7  1  0
 11 10  1  0
 12 10  1  0
 12 13  2  0
 14 12  1  0
 15 14  1  0
 15 16  1  1
 17 18  2  0
 17 16  1  0
 19 18  1  0
 20 19  2  0
 21 20  1  0
 21 22  2  0
 22 17  1  0
 23 15  1  0
 24 23  1  0
 25 23  2  0
M  END
$$$$
