EQV.pdb
     RDKit          3D

 26 25  0  0  1  0  0  0  0  0999 V2000
    9.5760  -17.7465   19.9665 N   0  0  0  0  0  0  0  0  0  0  0  0
   10.4024  -17.8353   21.1622 C   0  0  1  0  0  0  0  0  0  0  0  0
   11.7502  -17.2763   20.8321 C   0  0  0  0  0  0  0  0  0  0  0  0
   12.5095  -18.0071   19.7761 C   0  0  0  0  0  0  0  0  0  0  0  0
   13.8708  -17.3890   19.6745 C   0  0  0  0  0  0  0  0  0  0  0  0
   14.3234  -17.0210   18.5651 O   0  0  0  0  0  0  0  0  0  0  0  0
    9.7302  -17.1445   22.3059 C   0  0  0  0  0  0  0  0  0  0  0  0
    9.2776  -15.9969   22.1443 O   0  0  0  0  0  0  0  0  0  0  0  0
   14.6697  -17.2048   20.7973 O   0  0  0  0  0  0  0  0  0  0  0  0
    6.7853  -20.8114   25.1068 N   0  0  0  0  0  0  0  0  0  0  0  0
    6.2659  -19.8636   24.1899 C   0  0  0  0  0  0  0  0  0  0  0  0
    5.3615  -20.2345   23.4075 O   0  0  0  0  0  0  0  0  0  0  0  0
    6.7404  -18.4589   24.1133 C   0  0  0  0  0  0  0  0  0  0  0  0
    7.7406  -18.1849   25.1930 C   0  0  0  0  0  0  0  0  0  0  0  0
    8.8822  -17.3322   24.7134 C   0  0  2  0  0  0  0  0  0  0  0  0
    9.5860  -17.7386   23.5643 N   0  0  0  0  0  0  0  0  0  0  0  0
    9.7850  -16.9052   25.7892 C   0  0  0  0  0  0  0  0  0  0  0  0
   10.8550  -17.5878   25.9891 O   0  0  0  0  0  0  0  0  0  0  0  0
   10.3100  -13.1443   27.1557 C   0  0  0  0  0  0  0  0  0  0  0  0
   10.1420  -14.0919   28.3189 C   0  0  1  0  0  0  0  0  0  0  0  0
    8.7384  -13.8312   28.8773 C   0  0  0  0  0  0  0  0  0  0  0  0
   10.2996  -15.4882   27.8465 C   0  0  2  0  0  0  0  0  0  0  0  0
    9.5861  -15.7954   26.6396 N   0  0  0  0  0  0  0  0  0  0  0  0
   10.1092  -16.4536   28.9466 C   0  0  0  0  0  0  0  0  0  0  0  0
   10.9937  -16.4903   30.0010 O   0  0  0  0  0  0  0  0  0  0  0  0
    9.1538  -17.2475   28.9435 O   0  0  0  0  0  0  0  0  0  0  0  0
  2  1  1  6
  2  3  1  0
  3  4  1  0
  4  5  1  0
  5  9  1  0
  5  6  2  0
  7  8  2  0
  7  2  1  0
 10 11  1  0
 11 12  2  0
 13 11  1  0
 13 14  1  0
 15 14  1  1
 15 16  1  0
 15 17  1  0
 16  7  1  0
 17 23  1  0
 17 18  2  0
 20 19  1  6
 20 22  1  0
 21 20  1  0
 22 24  1  0
 22 23  1  6
 24 26  2  0
 24 25  1  0
M  END
$$$$
