EQV.pdb
     RDKit          3D

 26 25  0  0  1  0  0  0  0  0999 V2000
    8.7376  -17.4367   20.0093 N   0  0  0  0  0  0  0  0  0  0  0  0
    7.8361  -16.2937   20.0412 C   0  0  1  0  0  0  0  0  0  0  0  0
    6.7830  -16.5095   19.0008 C   0  0  0  0  0  0  0  0  0  0  0  0
    7.0531  -17.6091   18.0293 C   0  0  0  0  0  0  0  0  0  0  0  0
    8.0298  -17.0988   17.0139 C   0  0  0  0  0  0  0  0  0  0  0  0
    7.6277  -16.5493   15.9616 O   0  0  0  0  0  0  0  0  0  0  0  0
    7.2878  -16.1078   21.4203 C   0  0  0  0  0  0  0  0  0  0  0  0
    6.3822  -15.2759   21.6094 O   0  0  0  0  0  0  0  0  0  0  0  0
    9.4020  -17.2169   17.2036 O   0  0  0  0  0  0  0  0  0  0  0  0
    7.4230  -20.4104   26.2123 N   0  0  0  0  0  0  0  0  0  0  0  0
    7.0271  -19.1888   26.8123 C   0  0  0  0  0  0  0  0  0  0  0  0
    6.6644  -19.2108   28.0105 O   0  0  0  0  0  0  0  0  0  0  0  0
    7.0221  -17.8909   26.0916 C   0  0  0  0  0  0  0  0  0  0  0  0
    7.3673  -18.0921   24.6488 C   0  0  0  0  0  0  0  0  0  0  0  0
    7.4001  -16.7994   23.8819 C   0  0  2  0  0  0  0  0  0  0  0  0
    7.7534  -16.8366   22.5200 N   0  0  0  0  0  0  0  0  0  0  0  0
    8.0796  -15.7125   24.5971 C   0  0  0  0  0  0  0  0  0  0  0  0
    9.3533  -15.6048   24.4669 O   0  0  0  0  0  0  0  0  0  0  0  0
    6.7007  -12.0339   24.8749 C   0  0  0  0  0  0  0  0  0  0  0  0
    7.2129  -12.4492   26.2331 C   0  0  1  0  0  0  0  0  0  0  0  0
    5.9705  -12.7369   27.0836 C   0  0  0  0  0  0  0  0  0  0  0  0
    8.0766  -13.6457   26.0916 C   0  0  2  0  0  0  0  0  0  0  0  0
    7.4554  -14.7567   25.4285 N   0  0  0  0  0  0  0  0  0  0  0  0
    8.7517  -13.9757   27.3620 C   0  0  0  0  0  0  0  0  0  0  0  0
    8.6586  -15.2434   27.8905 O   0  0  0  0  0  0  0  0  0  0  0  0
    9.4130  -13.1220   27.9762 O   0  0  0  0  0  0  0  0  0  0  0  0
  2  1  1  1
  2  3  1  0
  3  4  1  0
  4  5  1  0
  5  9  1  0
  5  6  2  0
  7  8  2  0
  7  2  1  0
 10 11  1  0
 11 12  2  0
 13 11  1  0
 13 14  1  0
 15 14  1  1
 15 16  1  0
 15 17  1  0
 16  7  1  0
 17 23  1  0
 17 18  2  0
 20 19  1  6
 20 22  1  0
 21 20  1  0
 22 24  1  0
 22 23  1  1
 24 26  2  0
 24 25  1  0
M  END
$$$$
