EQV.pdb
     RDKit          3D

 26 25  0  0  1  0  0  0  0  0999 V2000
   10.6967  -18.6570   21.3358 N   0  0  0  0  0  0  0  0  0  0  0  0
   11.7569  -17.6959   21.6053 C   0  0  1  0  0  0  0  0  0  0  0  0
   12.5848  -17.5650   20.3662 C   0  0  0  0  0  0  0  0  0  0  0  0
   13.5643  -18.6646   20.1268 C   0  0  0  0  0  0  0  0  0  0  0  0
   14.9208  -18.0483   19.9677 C   0  0  0  0  0  0  0  0  0  0  0  0
   15.8007  -18.2068   20.8461 O   0  0  0  0  0  0  0  0  0  0  0  0
   11.1724  -16.4020   22.0758 C   0  0  0  0  0  0  0  0  0  0  0  0
   11.9274  -15.4411   22.3094 O   0  0  0  0  0  0  0  0  0  0  0  0
   15.2455  -17.2871   18.8505 O   0  0  0  0  0  0  0  0  0  0  0  0
    6.3521  -13.3000   19.8148 N   0  0  0  0  0  0  0  0  0  0  0  0
    7.5121  -13.9690   19.3504 C   0  0  0  0  0  0  0  0  0  0  0  0
    7.6983  -14.0367   18.1141 O   0  0  0  0  0  0  0  0  0  0  0  0
    8.5119  -14.5902   20.2552 C   0  0  0  0  0  0  0  0  0  0  0  0
    8.0263  -14.5601   21.6710 C   0  0  0  0  0  0  0  0  0  0  0  0
    9.0475  -15.0910   22.6383 C   0  0  2  0  0  0  0  0  0  0  0  0
    9.7982  -16.2221   22.2671 N   0  0  0  0  0  0  0  0  0  0  0  0
    8.5522  -15.1876   24.0167 C   0  0  0  0  0  0  0  0  0  0  0  0
    8.4211  -16.3568   24.5330 O   0  0  0  0  0  0  0  0  0  0  0  0
    7.9338  -11.7486   26.3631 C   0  0  0  0  0  0  0  0  0  0  0  0
    6.9612  -12.8826   26.5808 C   0  0  1  0  0  0  0  0  0  0  0  0
    5.7136  -12.5329   25.7616 C   0  0  0  0  0  0  0  0  0  0  0  0
    7.5774  -14.1553   26.1356 C   0  0  2  0  0  0  0  0  0  0  0  0
    8.2009  -14.0983   24.8440 N   0  0  0  0  0  0  0  0  0  0  0  0
    6.6624  -15.2959   26.3366 C   0  0  0  0  0  0  0  0  0  0  0  0
    6.5960  -15.9276   27.5581 O   0  0  0  0  0  0  0  0  0  0  0  0
    5.9387  -15.7065   25.4142 O   0  0  0  0  0  0  0  0  0  0  0  0
  2  1  1  6
  2  3  1  0
  3  4  1  0
  4  5  1  0
  5  9  1  0
  5  6  2  0
  7  8  2  0
  7  2  1  0
 10 11  1  0
 11 12  2  0
 13 11  1  0
 13 14  1  0
 15 14  1  6
 15 16  1  0
 15 17  1  0
 16  7  1  0
 17 23  1  0
 17 18  2  0
 20 19  1  6
 20 22  1  0
 21 20  1  0
 22 24  1  0
 22 23  1  6
 24 26  2  0
 24 25  1  0
M  END
$$$$
