EQV.pdb
     RDKit          3D

 26 25  0  0  1  0  0  0  0  0999 V2000
    8.4852  -17.6666   19.8367 N   0  0  0  0  0  0  0  0  0  0  0  0
    8.9299  -18.0351   21.1734 C   0  0  1  0  0  0  0  0  0  0  0  0
   10.4071  -17.8095   21.2451 C   0  0  0  0  0  0  0  0  0  0  0  0
   10.9015  -16.5662   20.5852 C   0  0  0  0  0  0  0  0  0  0  0  0
   12.3883  -16.5091   20.7625 C   0  0  0  0  0  0  0  0  0  0  0  0
   12.9247  -16.9593   21.8020 O   0  0  0  0  0  0  0  0  0  0  0  0
    8.1561  -17.2737   22.2024 C   0  0  0  0  0  0  0  0  0  0  0  0
    7.4563  -16.3080   21.8479 O   0  0  0  0  0  0  0  0  0  0  0  0
   13.2146  -15.9596   19.7888 O   0  0  0  0  0  0  0  0  0  0  0  0
    6.3034  -19.9421   27.6913 N   0  0  0  0  0  0  0  0  0  0  0  0
    7.2891  -20.2986   26.7373 C   0  0  0  0  0  0  0  0  0  0  0  0
    7.8234  -21.4268   26.8352 O   0  0  0  0  0  0  0  0  0  0  0  0
    7.7163  -19.4030   25.6331 C   0  0  0  0  0  0  0  0  0  0  0  0
    6.9488  -18.1182   25.6747 C   0  0  0  0  0  0  0  0  0  0  0  0
    7.4345  -17.1274   24.6535 C   0  0  2  0  0  0  0  0  0  0  0  0
    8.1847  -17.6030   23.5618 N   0  0  0  0  0  0  0  0  0  0  0  0
    8.0271  -15.9217   25.2448 C   0  0  0  0  0  0  0  0  0  0  0  0
    9.3077  -15.8518   25.3232 O   0  0  0  0  0  0  0  0  0  0  0  0
    6.7656  -12.0751   24.9201 C   0  0  0  0  0  0  0  0  0  0  0  0
    6.9957  -12.4559   26.3627 C   0  0  1  0  0  0  0  0  0  0  0  0
    5.6063  -12.7011   26.9621 C   0  0  0  0  0  0  0  0  0  0  0  0
    7.8474  -13.6677   26.4248 C   0  0  2  0  0  0  0  0  0  0  0  0
    7.3109  -14.8114   25.7434 N   0  0  0  0  0  0  0  0  0  0  0  0
    8.3183  -13.9250   27.7998 C   0  0  0  0  0  0  0  0  0  0  0  0
    9.0184  -12.9595   28.4876 O   0  0  0  0  0  0  0  0  0  0  0  0
    8.0944  -15.0106   28.3607 O   0  0  0  0  0  0  0  0  0  0  0  0
  2  1  1  6
  2  3  1  0
  3  4  1  0
  4  5  1  0
  5  9  1  0
  5  6  2  0
  7  8  2  0
  7  2  1  0
 10 11  1  0
 11 12  2  0
 13 11  1  0
 13 14  1  0
 15 14  1  1
 15 16  1  0
 15 17  1  0
 16  7  1  0
 17 23  1  0
 17 18  2  0
 20 19  1  6
 20 22  1  0
 21 20  1  0
 22 24  1  0
 22 23  1  1
 24 26  2  0
 24 25  1  0
M  END
$$$$
