NSC.pdb
     RDKit          3D

 21 20  0  0  1  0  0  0  0  0999 V2000
   15.1049  -15.5011   20.5033 N   0  0  0  0  0  0  0  0  0  0  0  0
   14.2429  -14.7723   19.6366 C   0  0  0  0  0  0  0  0  0  0  0  0
   14.5552  -14.5174   18.4616 O   0  0  0  0  0  0  0  0  0  0  0  0
   12.9480  -14.3272   20.1985 C   0  0  0  0  0  0  0  0  0  0  0  0
   11.9042  -15.3908   19.9815 C   0  0  2  0  0  0  0  0  0  0  0  0
   11.2103  -15.1596   18.7487 N   0  0  0  0  0  0  0  0  0  0  0  0
   10.9042  -15.3314   21.0897 C   0  0  0  0  0  0  0  0  0  0  0  0
   10.1001  -14.3382   21.0428 O   0  0  0  0  0  0  0  0  0  0  0  0
    9.9669  -18.5640   23.5826 O   0  0  0  0  0  0  0  0  0  0  0  0
    9.1476  -17.4981   23.3014 C   0  0  0  0  0  0  0  0  0  0  0  0
    9.8720  -16.1751   23.1681 C   0  0  2  0  0  0  0  0  0  0  0  0
   10.8481  -16.3060   22.1225 N   0  0  0  0  0  0  0  0  0  0  0  0
   10.5213  -15.8167   24.4759 C   0  0  0  0  0  0  0  0  0  0  0  0
   11.7550  -15.9974   24.6386 O   0  0  0  0  0  0  0  0  0  0  0  0
    9.8099  -15.2723   25.5673 N   0  0  0  0  0  0  0  0  0  0  0  0
   10.4031  -14.9927   26.8512 C   0  0  1  0  0  0  0  0  0  0  0  0
    9.7515  -13.8492   27.5742 C   0  0  0  0  0  0  0  0  0  0  0  0
   10.5255  -13.5357   29.1857 S   0  0  0  0  0  0  0  0  0  0  0  0
   10.4667  -16.1652   27.7370 C   0  0  0  0  0  0  0  0  0  0  0  0
   11.3947  -16.3314   28.5681 O   0  0  0  0  0  0  0  0  0  0  0  0
    9.4776  -17.1143   27.6550 O   0  0  0  0  0  0  0  0  0  0  0  0
  2  4  1  0
  2  1  1  0
  3  2  2  0
  5  6  1  6
  5  4  1  0
  7  5  1  0
  8  7  2  0
  9 10  1  0
 11 10  1  1
 11 12  1  0
 11 13  1  0
 12  7  1  0
 13 14  2  0
 13 15  1  0
 15 16  1  0
 16 17  1  1
 16 19  1  0
 17 18  1  0
 19 21  1  0
 20 19  2  0
M  END
$$$$
