NSC.pdb
     RDKit          3D

 21 20  0  0  1  0  0  0  0  0999 V2000
   12.8566  -31.6134   28.9803 N   0  0  0  0  0  0  0  0  0  0  0  0
   12.1014  -30.4668   29.3549 C   0  0  0  0  0  0  0  0  0  0  0  0
   10.8810  -30.5284   29.5785 O   0  0  0  0  0  0  0  0  0  0  0  0
   12.8369  -29.1875   29.4679 C   0  0  0  0  0  0  0  0  0  0  0  0
   12.1349  -28.2788   30.4423 C   0  0  2  0  0  0  0  0  0  0  0  0
   10.7613  -28.1158   30.0661 N   0  0  0  0  0  0  0  0  0  0  0  0
   12.7821  -26.9328   30.4130 C   0  0  0  0  0  0  0  0  0  0  0  0
   13.9659  -26.8888   30.8944 O   0  0  0  0  0  0  0  0  0  0  0  0
   10.6794  -23.4849   29.3430 O   0  0  0  0  0  0  0  0  0  0  0  0
   12.0224  -23.5455   29.0611 C   0  0  0  0  0  0  0  0  0  0  0  0
   12.7978  -24.5108   29.9328 C   0  0  2  0  0  0  0  0  0  0  0  0
   12.1321  -25.7828   29.8889 N   0  0  0  0  0  0  0  0  0  0  0  0
   12.8683  -23.9825   31.3386 C   0  0  0  0  0  0  0  0  0  0  0  0
   11.9281  -24.2032   32.1438 O   0  0  0  0  0  0  0  0  0  0  0  0
   13.9591  -23.2304   31.8268 N   0  0  0  0  0  0  0  0  0  0  0  0
   14.0126  -22.6634   33.1512 C   0  0  1  0  0  0  0  0  0  0  0  0
   15.1610  -23.1732   33.9735 C   0  0  0  0  0  0  0  0  0  0  0  0
   15.4195  -24.9553   33.7476 S   0  0  0  0  0  0  0  0  0  0  0  0
   14.0125  -21.1926   33.1612 C   0  0  0  0  0  0  0  0  0  0  0  0
   14.0471  -20.5122   32.1052 O   0  0  0  0  0  0  0  0  0  0  0  0
   13.9732  -20.5364   34.3670 O   0  0  0  0  0  0  0  0  0  0  0  0
  2  4  1  0
  2  1  1  0
  3  2  2  0
  5  6  1  6
  5  4  1  0
  7  5  1  0
  8  7  2  0
  9 10  1  0
 11 10  1  6
 11 12  1  0
 11 13  1  0
 12  7  1  0
 13 14  2  0
 13 15  1  0
 15 16  1  0
 16 17  1  6
 16 19  1  0
 17 18  1  0
 19 21  1  0
 20 19  2  0
M  END
$$$$
