NSC.pdb
     RDKit          3D

 21 20  0  0  1  0  0  0  0  0999 V2000
    9.7571  -12.9361   18.3194 N   0  0  0  0  0  0  0  0  0  0  0  0
    8.4383  -13.4585   18.4347 C   0  0  0  0  0  0  0  0  0  0  0  0
    7.6212  -13.3913   17.5014 O   0  0  0  0  0  0  0  0  0  0  0  0
    8.0781  -14.0906   19.7236 C   0  0  0  0  0  0  0  0  0  0  0  0
    9.2814  -14.1281   20.6282 C   0  0  2  0  0  0  0  0  0  0  0  0
   10.3701  -14.7955   19.9769 N   0  0  0  0  0  0  0  0  0  0  0  0
    8.9439  -14.8975   21.8634 C   0  0  0  0  0  0  0  0  0  0  0  0
    7.9618  -14.4355   22.5396 O   0  0  0  0  0  0  0  0  0  0  0  0
   11.2658  -18.1899   23.4813 O   0  0  0  0  0  0  0  0  0  0  0  0
    9.8964  -18.0858   23.5009 C   0  0  0  0  0  0  0  0  0  0  0  0
    9.3812  -16.6623   23.5341 C   0  0  2  0  0  0  0  0  0  0  0  0
    9.6603  -16.0588   22.2609 N   0  0  0  0  0  0  0  0  0  0  0  0
   10.0459  -15.9068   24.6511 C   0  0  0  0  0  0  0  0  0  0  0  0
   10.7586  -14.9024   24.3973 O   0  0  0  0  0  0  0  0  0  0  0  0
    9.9156  -16.2658   26.0105 N   0  0  0  0  0  0  0  0  0  0  0  0
   10.3303  -15.4240   27.1049 C   0  0  1  0  0  0  0  0  0  0  0  0
    9.5323  -14.1571   27.2201 C   0  0  0  0  0  0  0  0  0  0  0  0
   10.1279  -13.1000   28.5698 S   0  0  0  0  0  0  0  0  0  0  0  0
   10.3500  -16.1151   28.4031 C   0  0  0  0  0  0  0  0  0  0  0  0
    9.5797  -17.0721   28.6681 O   0  0  0  0  0  0  0  0  0  0  0  0
   11.2415  -15.7016   29.3624 O   0  0  0  0  0  0  0  0  0  0  0  0
  2  4  1  0
  2  1  1  0
  3  2  2  0
  5  6  1  6
  5  4  1  0
  7  5  1  0
  8  7  2  0
  9 10  1  0
 11 10  1  6
 11 12  1  0
 11 13  1  0
 12  7  1  0
 13 14  2  0
 13 15  1  0
 15 16  1  0
 16 17  1  1
 16 19  1  0
 17 18  1  0
 19 21  1  0
 20 19  2  0
M  END
$$$$
