NSC.pdb
     RDKit          3D

 21 20  0  0  1  0  0  0  0  0999 V2000
   12.9131  -16.9234   18.5429 N   0  0  0  0  0  0  0  0  0  0  0  0
   13.1077  -15.5250   18.7218 C   0  0  0  0  0  0  0  0  0  0  0  0
   14.0295  -14.9126   18.1574 O   0  0  0  0  0  0  0  0  0  0  0  0
   12.1580  -14.8250   19.6155 C   0  0  0  0  0  0  0  0  0  0  0  0
   10.7463  -15.0649   19.1494 C   0  0  2  0  0  0  0  0  0  0  0  0
   10.4861  -14.3189   17.9533 N   0  0  0  0  0  0  0  0  0  0  0  0
    9.7950  -14.5941   20.2005 C   0  0  0  0  0  0  0  0  0  0  0  0
    9.9594  -13.3837   20.5789 O   0  0  0  0  0  0  0  0  0  0  0  0
    6.7323  -17.0015   22.1046 O   0  0  0  0  0  0  0  0  0  0  0  0
    6.5910  -15.7119   21.6536 C   0  0  0  0  0  0  0  0  0  0  0  0
    7.8623  -14.8911   21.7083 C   0  0  2  0  0  0  0  0  0  0  0  0
    8.7801  -15.4281   20.7427 N   0  0  0  0  0  0  0  0  0  0  0  0
    8.4410  -14.9415   23.0949 C   0  0  0  0  0  0  0  0  0  0  0  0
    9.4778  -15.6158   23.3221 O   0  0  0  0  0  0  0  0  0  0  0  0
    7.8754  -14.2571   24.1928 N   0  0  0  0  0  0  0  0  0  0  0  0
    8.3932  -14.3310   25.5362 C   0  0  1  0  0  0  0  0  0  0  0  0
    7.9760  -13.1771   26.4019 C   0  0  0  0  0  0  0  0  0  0  0  0
    8.6422  -13.3150   28.0845 S   0  0  0  0  0  0  0  0  0  0  0  0
    8.0820  -15.5971   26.2171 C   0  0  0  0  0  0  0  0  0  0  0  0
    6.9747  -16.1770   26.0869 O   0  0  0  0  0  0  0  0  0  0  0  0
    9.0341  -16.1684   27.0252 O   0  0  0  0  0  0  0  0  0  0  0  0
  2  4  1  0
  2  1  1  0
  3  2  2  0
  5  6  1  6
  5  4  1  0
  7  5  1  0
  8  7  2  0
  9 10  1  0
 11 10  1  1
 11 12  1  0
 11 13  1  0
 12  7  1  0
 13 14  2  0
 13 15  1  0
 15 16  1  0
 16 17  1  1
 16 19  1  0
 17 18  1  0
 19 21  1  0
 20 19  2  0
M  END
$$$$
