NSC.pdb
     RDKit          3D

 21 20  0  0  1  0  0  0  0  0999 V2000
   15.1769  -15.1949   19.7995 N   0  0  0  0  0  0  0  0  0  0  0  0
   14.1667  -14.4199   19.1637 C   0  0  0  0  0  0  0  0  0  0  0  0
   14.3653  -13.8421   18.0821 O   0  0  0  0  0  0  0  0  0  0  0  0
   12.8587  -14.3306   19.8505 C   0  0  0  0  0  0  0  0  0  0  0  0
   12.2979  -15.7119   20.0632 C   0  0  2  0  0  0  0  0  0  0  0  0
   11.6831  -16.1878   18.8589 N   0  0  0  0  0  0  0  0  0  0  0  0
   11.2482  -15.6581   21.1247 C   0  0  0  0  0  0  0  0  0  0  0  0
   10.3429  -14.7723   20.9487 O   0  0  0  0  0  0  0  0  0  0  0  0
   10.4762  -18.7748   23.7624 O   0  0  0  0  0  0  0  0  0  0  0  0
    9.5863  -17.7937   23.3988 C   0  0  0  0  0  0  0  0  0  0  0  0
   10.2069  -16.4231   23.2288 C   0  0  2  0  0  0  0  0  0  0  0  0
   11.2524  -16.5267   22.2495 N   0  0  0  0  0  0  0  0  0  0  0  0
   10.7435  -15.9405   24.5478 C   0  0  0  0  0  0  0  0  0  0  0  0
   11.9508  -16.1287   24.8450 O   0  0  0  0  0  0  0  0  0  0  0  0
    9.9516  -15.2678   25.5038 N   0  0  0  0  0  0  0  0  0  0  0  0
   10.3834  -14.9928   26.8514 C   0  0  1  0  0  0  0  0  0  0  0  0
    9.5381  -13.9687   27.5526 C   0  0  0  0  0  0  0  0  0  0  0  0
   10.1151  -13.6554   29.2446 S   0  0  0  0  0  0  0  0  0  0  0  0
   10.4976  -16.1964   27.6891 C   0  0  0  0  0  0  0  0  0  0  0  0
    9.6162  -17.0921   27.7042 O   0  0  0  0  0  0  0  0  0  0  0  0
   11.6064  -16.3494   28.4847 O   0  0  0  0  0  0  0  0  0  0  0  0
  2  4  1  0
  2  1  1  0
  3  2  2  0
  5  6  1  6
  5  4  1  0
  7  5  1  0
  8  7  2  0
  9 10  1  0
 11 10  1  1
 11 12  1  0
 11 13  1  0
 12  7  1  0
 13 14  2  0
 13 15  1  0
 15 16  1  0
 16 17  1  1
 16 19  1  0
 17 18  1  0
 19 21  1  0
 20 19  2  0
M  END
$$$$
