NSC.pdb
     RDKit          3D

 21 20  0  0  1  0  0  0  0  0999 V2000
    9.8123  -19.1851   11.9638 N   0  0  0  0  0  0  0  0  0  0  0  0
   10.3910  -18.0707   12.6335 C   0  0  0  0  0  0  0  0  0  0  0  0
   11.2777  -17.3768   12.1086 O   0  0  0  0  0  0  0  0  0  0  0  0
    9.8881  -17.7704   13.9927 C   0  0  0  0  0  0  0  0  0  0  0  0
    8.3831  -17.8229   14.0038 C   0  0  2  0  0  0  0  0  0  0  0  0
    7.8418  -16.6408   13.4001 N   0  0  0  0  0  0  0  0  0  0  0  0
    7.9037  -17.8775   15.4175 C   0  0  0  0  0  0  0  0  0  0  0  0
    8.3854  -16.9791   16.1895 O   0  0  0  0  0  0  0  0  0  0  0  0
    4.7301  -19.7283   18.5940 O   0  0  0  0  0  0  0  0  0  0  0  0
    5.2483  -19.6300   17.3257 C   0  0  0  0  0  0  0  0  0  0  0  0
    6.5233  -18.8181   17.2360 C   0  0  2  0  0  0  0  0  0  0  0  0
    6.9795  -18.8556   15.8746 N   0  0  0  0  0  0  0  0  0  0  0  0
    7.5549  -19.3861   18.1707 C   0  0  0  0  0  0  0  0  0  0  0  0
    8.2897  -20.3359   17.7978 O   0  0  0  0  0  0  0  0  0  0  0  0
    7.7567  -18.9042   19.4825 N   0  0  0  0  0  0  0  0  0  0  0  0
    8.7836  -19.3950   20.3673 C   0  0  1  0  0  0  0  0  0  0  0  0
    9.3883  -18.3265   21.2319 C   0  0  0  0  0  0  0  0  0  0  0  0
    8.1210  -17.3056   22.0356 S   0  0  0  0  0  0  0  0  0  0  0  0
    8.3472  -20.5213   21.2066 C   0  0  0  0  0  0  0  0  0  0  0  0
    9.1581  -21.2412   21.8419 O   0  0  0  0  0  0  0  0  0  0  0  0
    7.0055  -20.7987   21.3011 O   0  0  0  0  0  0  0  0  0  0  0  0
  2  4  1  0
  2  1  1  0
  3  2  2  0
  5  6  1  1
  5  4  1  0
  7  5  1  0
  8  7  2  0
  9 10  1  0
 11 10  1  6
 11 12  1  0
 11 13  1  0
 12  7  1  0
 13 14  2  0
 13 15  1  0
 15 16  1  0
 16 17  1  1
 16 19  1  0
 17 18  1  0
 19 21  1  0
 20 19  2  0
M  END
$$$$
