NSC.pdb
     RDKit          3D

 21 20  0  0  1  0  0  0  0  0999 V2000
   13.3233  -18.4037   18.2258 N   0  0  0  0  0  0  0  0  0  0  0  0
   13.5737  -17.5437   19.3317 C   0  0  0  0  0  0  0  0  0  0  0  0
   14.7238  -17.1935   19.6443 O   0  0  0  0  0  0  0  0  0  0  0  0
   12.3967  -17.0802   20.1002 C   0  0  0  0  0  0  0  0  0  0  0  0
   12.4561  -17.6240   21.5032 C   0  0  2  0  0  0  0  0  0  0  0  0
   12.0425  -18.9964   21.5203 N   0  0  0  0  0  0  0  0  0  0  0  0
   11.5173  -16.8505   22.3702 C   0  0  0  0  0  0  0  0  0  0  0  0
   11.7190  -15.5880   22.3979 O   0  0  0  0  0  0  0  0  0  0  0  0
    8.5128  -18.6553   24.7766 O   0  0  0  0  0  0  0  0  0  0  0  0
    8.3361  -17.4341   24.1733 C   0  0  0  0  0  0  0  0  0  0  0  0
    9.6191  -16.6650   23.9385 C   0  0  2  0  0  0  0  0  0  0  0  0
   10.4749  -17.4695   23.1118 N   0  0  0  0  0  0  0  0  0  0  0  0
   10.2731  -16.3525   25.2558 C   0  0  0  0  0  0  0  0  0  0  0  0
   11.2170  -17.0684   25.6774 O   0  0  0  0  0  0  0  0  0  0  0  0
    9.8814  -15.2711   26.0748 N   0  0  0  0  0  0  0  0  0  0  0  0
   10.3732  -15.0606   27.4135 C   0  0  1  0  0  0  0  0  0  0  0  0
    9.7770  -13.8582   28.0870 C   0  0  0  0  0  0  0  0  0  0  0  0
   10.5518  -13.5265   29.6944 S   0  0  0  0  0  0  0  0  0  0  0  0
   10.2288  -16.2370   28.2844 C   0  0  0  0  0  0  0  0  0  0  0  0
    9.1986  -16.9568   28.2781 O   0  0  0  0  0  0  0  0  0  0  0  0
   11.2553  -16.5629   29.1365 O   0  0  0  0  0  0  0  0  0  0  0  0
  2  4  1  0
  2  1  1  0
  3  2  2  0
  5  6  1  6
  5  4  1  0
  7  5  1  0
  8  7  2  0
  9 10  1  0
 11 10  1  1
 11 12  1  0
 11 13  1  0
 12  7  1  0
 13 14  2  0
 13 15  1  0
 15 16  1  0
 16 17  1  1
 16 19  1  0
 17 18  1  0
 19 21  1  0
 20 19  2  0
M  END
$$$$
