NSC.pdb
     RDKit          3D

 21 20  0  0  1  0  0  0  0  0999 V2000
   14.9470  -15.4875   19.9633 N   0  0  0  0  0  0  0  0  0  0  0  0
   14.0392  -14.5179   19.4523 C   0  0  0  0  0  0  0  0  0  0  0  0
   14.2752  -13.8809   18.4123 O   0  0  0  0  0  0  0  0  0  0  0  0
   12.7919  -14.2984   20.2182 C   0  0  0  0  0  0  0  0  0  0  0  0
   12.0049  -15.5803   20.2912 C   0  0  2  0  0  0  0  0  0  0  0  0
   11.3485  -15.8303   19.0416 N   0  0  0  0  0  0  0  0  0  0  0  0
   10.9537  -15.4523   21.3448 C   0  0  0  0  0  0  0  0  0  0  0  0
   10.1202  -14.4989   21.1673 O   0  0  0  0  0  0  0  0  0  0  0  0
    9.7936  -18.4785   23.9011 O   0  0  0  0  0  0  0  0  0  0  0  0
    9.0651  -17.3463   23.6289 C   0  0  0  0  0  0  0  0  0  0  0  0
    9.8985  -16.0904   23.4840 C   0  0  2  0  0  0  0  0  0  0  0  0
   10.8824  -16.3249   22.4643 N   0  0  0  0  0  0  0  0  0  0  0  0
   10.5471  -15.7559   24.7985 C   0  0  0  0  0  0  0  0  0  0  0  0
   11.7323  -16.1092   25.0255 O   0  0  0  0  0  0  0  0  0  0  0  0
    9.8878  -15.0471   25.8264 N   0  0  0  0  0  0  0  0  0  0  0  0
   10.4211  -14.8823   27.1555 C   0  0  1  0  0  0  0  0  0  0  0  0
    9.8386  -13.7105   27.8922 C   0  0  0  0  0  0  0  0  0  0  0  0
    8.7902  -12.6878   26.8203 S   0  0  0  0  0  0  0  0  0  0  0  0
   10.3130  -16.0912   27.9863 C   0  0  0  0  0  0  0  0  0  0  0  0
    9.6731  -17.1075   27.6160 O   0  0  0  0  0  0  0  0  0  0  0  0
   10.9328  -16.1130   29.2116 O   0  0  0  0  0  0  0  0  0  0  0  0
  2  4  1  0
  2  1  1  0
  3  2  2  0
  5  6  1  6
  5  4  1  0
  7  5  1  0
  8  7  2  0
  9 10  1  0
 11 10  1  1
 11 12  1  0
 11 13  1  0
 12  7  1  0
 13 14  2  0
 13 15  1  0
 15 16  1  0
 16 17  1  1
 16 19  1  0
 17 18  1  0
 19 21  1  0
 20 19  2  0
M  END
$$$$
