CTP.pdb
     RDKit          3D

 21 21  0  0  1  0  0  0  0  0999 V2000
   16.4018  -12.9497  -17.0646 N   0  0  0  0  0  0  0  0  0  0  0  0
   16.7951  -11.6109  -16.7181 C   0  0  1  0  0  0  0  0  0  0  0  0
   15.9941  -11.2032  -15.4969 C   0  0  0  0  0  0  0  0  0  0  0  0
   14.2373  -11.1254  -16.0007 S   0  0  0  0  0  0  0  0  0  0  0  0
   18.2599  -11.5077  -16.4676 C   0  0  0  0  0  0  0  0  0  0  0  0
   18.8925  -12.4430  -15.9549 O   0  0  0  0  0  0  0  0  0  0  0  0
   20.9468  -10.9003  -18.8907 C   0  0  0  0  0  0  0  0  0  0  0  0
   20.8664   -9.6981  -17.9799 C   0  0  1  0  0  0  0  0  0  0  0  0
   20.1587   -8.7053  -18.5672 O   0  0  0  0  0  0  0  0  0  0  0  0
   20.3713  -10.1144  -16.5863 C   0  0  2  0  0  0  0  0  0  0  0  0
   18.9180  -10.3135  -16.8291 N   0  0  0  0  0  0  0  0  0  0  0  0
   20.4957   -9.0142  -15.6172 C   0  0  0  0  0  0  0  0  0  0  0  0
   19.4510   -8.2566  -15.5058 O   0  0  0  0  0  0  0  0  0  0  0  0
   21.5972   -8.7002  -14.8137 N   0  0  0  0  0  0  0  0  0  0  0  0
   22.8918   -9.3108  -14.8843 C   0  0  0  0  0  0  0  0  0  0  0  0
   23.3290   -9.3294  -13.4341 C   0  0  0  0  0  0  0  0  0  0  0  0
   22.2801   -8.5235  -12.6579 C   0  0  0  0  0  0  0  0  0  0  0  0
   21.6786   -7.6968  -13.8084 C   0  0  1  0  0  0  0  0  0  0  0  0
   22.5690   -6.5730  -14.1619 C   0  0  0  0  0  0  0  0  0  0  0  0
   22.7239   -5.5157  -13.2944 O   0  0  0  0  0  0  0  0  0  0  0  0
   23.1786   -6.5826  -15.2433 O   0  0  0  0  0  0  0  0  0  0  0  0
  2  1  1  1
  3  2  1  0
  4  3  1  0
  5 11  1  0
  5  2  1  0
  6  5  2  0
  8  7  1  6
  8 10  1  0
  9  8  1  0
 10 12  1  0
 10 11  1  6
 12 14  1  0
 13 12  2  0
 14 15  1  0
 14 18  1  0
 15 16  1  0
 16 17  1  0
 18 19  1  6
 18 17  1  0
 19 20  1  0
 21 19  2  0
M  END
$$$$
