CTP.pdb
     RDKit          3D

 21 21  0  0  1  0  0  0  0  0999 V2000
   23.2201  -20.9079   -9.0501 N   0  0  0  0  0  0  0  0  0  0  0  0
   23.1714  -20.8557  -10.4861 C   0  0  1  0  0  0  0  0  0  0  0  0
   21.8773  -20.1666  -10.8726 C   0  0  0  0  0  0  0  0  0  0  0  0
   20.5080  -21.2994  -10.4385 S   0  0  0  0  0  0  0  0  0  0  0  0
   24.3539  -20.1537  -11.0585 C   0  0  0  0  0  0  0  0  0  0  0  0
   24.8831  -19.1994  -10.4693 O   0  0  0  0  0  0  0  0  0  0  0  0
   27.5972  -21.4208  -11.5909 C   0  0  0  0  0  0  0  0  0  0  0  0
   27.0419  -21.1494  -12.9691 C   0  0  1  0  0  0  0  0  0  0  0  0
   26.5551  -22.2874  -13.5162 O   0  0  0  0  0  0  0  0  0  0  0  0
   26.0544  -19.9730  -12.9264 C   0  0  2  0  0  0  0  0  0  0  0  0
   24.8636  -20.6010  -12.2955 N   0  0  0  0  0  0  0  0  0  0  0  0
   25.6515  -19.5559  -14.2787 C   0  0  0  0  0  0  0  0  0  0  0  0
   24.4551  -19.9065  -14.6303 O   0  0  0  0  0  0  0  0  0  0  0  0
   26.4022  -18.8330  -15.2120 N   0  0  0  0  0  0  0  0  0  0  0  0
   27.7891  -18.4921  -15.0940 C   0  0  0  0  0  0  0  0  0  0  0  0
   27.8510  -17.1250  -15.7435 C   0  0  0  0  0  0  0  0  0  0  0  0
   26.4708  -16.8817  -16.3666 C   0  0  0  0  0  0  0  0  0  0  0  0
   25.9696  -18.3331  -16.4719 C   0  0  1  0  0  0  0  0  0  0  0  0
   26.5897  -19.0149  -17.6258 C   0  0  0  0  0  0  0  0  0  0  0  0
   26.2718  -18.6289  -18.9081 O   0  0  0  0  0  0  0  0  0  0  0  0
   27.3990  -19.9374  -17.4381 O   0  0  0  0  0  0  0  0  0  0  0  0
  2  1  1  1
  3  2  1  0
  4  3  1  0
  5 11  1  0
  5  2  1  0
  6  5  2  0
  8  7  1  1
  8 10  1  0
  9  8  1  0
 10 12  1  0
 10 11  1  1
 12 14  1  0
 13 12  2  0
 14 15  1  0
 14 18  1  0
 15 16  1  0
 16 17  1  0
 18 19  1  6
 18 17  1  0
 19 20  1  0
 21 19  2  0
M  END
$$$$
