CTP.pdb
     RDKit          3D

 21 21  0  0  1  0  0  0  0  0999 V2000
   17.4016  -11.6084  -17.5048 N   0  0  0  0  0  0  0  0  0  0  0  0
   18.2303  -11.1312  -16.4312 C   0  0  1  0  0  0  0  0  0  0  0  0
   19.0873  -12.2928  -15.9673 C   0  0  0  0  0  0  0  0  0  0  0  0
   18.0253  -13.3777  -14.9467 S   0  0  0  0  0  0  0  0  0  0  0  0
   19.0659   -9.9700  -16.8462 C   0  0  0  0  0  0  0  0  0  0  0  0
   19.8496  -10.0508  -17.8039 O   0  0  0  0  0  0  0  0  0  0  0  0
   17.9935   -7.0807  -18.4091 C   0  0  0  0  0  0  0  0  0  0  0  0
   18.4289   -6.6646  -17.0239 C   0  0  1  0  0  0  0  0  0  0  0  0
   17.3714   -6.6485  -16.1797 O   0  0  0  0  0  0  0  0  0  0  0  0
   19.6206   -7.5157  -16.5590 C   0  0  2  0  0  0  0  0  0  0  0  0
   18.9459   -8.7660  -16.1208 N   0  0  0  0  0  0  0  0  0  0  0  0
   20.2657   -6.9387  -15.3691 C   0  0  0  0  0  0  0  0  0  0  0  0
   19.7351   -7.2752  -14.2364 O   0  0  0  0  0  0  0  0  0  0  0  0
   21.3714   -6.0827  -15.3237 N   0  0  0  0  0  0  0  0  0  0  0  0
   22.0933   -5.5796  -16.4549 C   0  0  0  0  0  0  0  0  0  0  0  0
   23.5183   -5.5305  -15.9438 C   0  0  0  0  0  0  0  0  0  0  0  0
   23.4488   -5.8457  -14.4444 C   0  0  0  0  0  0  0  0  0  0  0  0
   21.9731   -5.5045  -14.1714 C   0  0  1  0  0  0  0  0  0  0  0  0
   21.7868   -4.0427  -14.0746 C   0  0  0  0  0  0  0  0  0  0  0  0
   21.1495   -3.3596  -15.0853 O   0  0  0  0  0  0  0  0  0  0  0  0
   22.2060   -3.4298  -13.0797 O   0  0  0  0  0  0  0  0  0  0  0  0
  2  1  1  6
  3  2  1  0
  4  3  1  0
  5 11  1  0
  5  2  1  0
  6  5  2  0
  8  7  1  6
  8 10  1  0
  9  8  1  0
 10 12  1  0
 10 11  1  1
 12 14  1  0
 13 12  2  0
 14 15  1  0
 14 18  1  0
 15 16  1  0
 16 17  1  0
 18 19  1  6
 18 17  1  0
 19 20  1  0
 21 19  2  0
M  END
$$$$
