CTP.pdb
     RDKit          3D

 21 21  0  0  1  0  0  0  0  0999 V2000
   24.0915  -20.9720   -8.7379 N   0  0  0  0  0  0  0  0  0  0  0  0
   23.8875  -20.9174  -10.1601 C   0  0  1  0  0  0  0  0  0  0  0  0
   22.5054  -20.3419  -10.3996 C   0  0  0  0  0  0  0  0  0  0  0  0
   21.2928  -21.6360   -9.9507 S   0  0  0  0  0  0  0  0  0  0  0  0
   24.9383  -20.1123  -10.8431 C   0  0  0  0  0  0  0  0  0  0  0  0
   25.4282  -19.1068  -10.3075 O   0  0  0  0  0  0  0  0  0  0  0  0
   28.1545  -21.1887  -11.6595 C   0  0  0  0  0  0  0  0  0  0  0  0
   27.5107  -20.9040  -12.9959 C   0  0  1  0  0  0  0  0  0  0  0  0
   27.0775  -22.0517  -13.5671 O   0  0  0  0  0  0  0  0  0  0  0  0
   26.4465  -19.8048  -12.8542 C   0  0  2  0  0  0  0  0  0  0  0  0
   25.3681  -20.5211  -12.1231 N   0  0  0  0  0  0  0  0  0  0  0  0
   25.8922  -19.4171  -14.1609 C   0  0  0  0  0  0  0  0  0  0  0  0
   24.7813  -19.9999  -14.4834 O   0  0  0  0  0  0  0  0  0  0  0  0
   26.4204  -18.5030  -15.0788 N   0  0  0  0  0  0  0  0  0  0  0  0
   27.7172  -17.8968  -15.0117 C   0  0  0  0  0  0  0  0  0  0  0  0
   27.4634  -16.5090  -15.5632 C   0  0  0  0  0  0  0  0  0  0  0  0
   26.0236  -16.5125  -16.0915 C   0  0  0  0  0  0  0  0  0  0  0  0
   25.8135  -18.0262  -16.2740 C   0  0  1  0  0  0  0  0  0  0  0  0
   26.4769  -18.4984  -17.5060 C   0  0  0  0  0  0  0  0  0  0  0  0
   26.0128  -18.0959  -18.7377 O   0  0  0  0  0  0  0  0  0  0  0  0
   27.4547  -19.2595  -17.4298 O   0  0  0  0  0  0  0  0  0  0  0  0
  2  1  1  1
  3  2  1  0
  4  3  1  0
  5 11  1  0
  5  2  1  0
  6  5  2  0
  8  7  1  1
  8 10  1  0
  9  8  1  0
 10 12  1  0
 10 11  1  1
 12 14  1  0
 13 12  2  0
 14 15  1  0
 14 18  1  0
 15 16  1  0
 16 17  1  0
 18 19  1  6
 18 17  1  0
 19 20  1  0
 21 19  2  0
M  END
$$$$
