CTP.pdb
     RDKit          3D

 21 21  0  0  1  0  0  0  0  0999 V2000
   29.7330  -22.7214  -18.4229 N   0  0  0  0  0  0  0  0  0  0  0  0
   28.4327  -22.2001  -18.0996 C   0  0  1  0  0  0  0  0  0  0  0  0
   27.4220  -23.2966  -18.3738 C   0  0  0  0  0  0  0  0  0  0  0  0
   27.2889  -23.4708  -20.1900 S   0  0  0  0  0  0  0  0  0  0  0  0
   28.3561  -21.7297  -16.6883 C   0  0  0  0  0  0  0  0  0  0  0  0
   29.1468  -22.1450  -15.8279 O   0  0  0  0  0  0  0  0  0  0  0  0
   28.1995  -18.0817  -15.5546 C   0  0  0  0  0  0  0  0  0  0  0  0
   26.9199  -18.7993  -15.1951 C   0  0  1  0  0  0  0  0  0  0  0  0
   25.9540  -18.5292  -16.1035 O   0  0  0  0  0  0  0  0  0  0  0  0
   27.1920  -20.2928  -14.9581 C   0  0  2  0  0  0  0  0  0  0  0  0
   27.3568  -20.7940  -16.3481 N   0  0  0  0  0  0  0  0  0  0  0  0
   26.0157  -20.9741  -14.3949 C   0  0  0  0  0  0  0  0  0  0  0  0
   25.3819  -21.7495  -15.2163 O   0  0  0  0  0  0  0  0  0  0  0  0
   25.5138  -20.8816  -13.0923 N   0  0  0  0  0  0  0  0  0  0  0  0
   26.0282  -20.0439  -12.0495 C   0  0  0  0  0  0  0  0  0  0  0  0
   25.8184  -20.8899  -10.8107 C   0  0  0  0  0  0  0  0  0  0  0  0
   24.9975  -22.1070  -11.2546 C   0  0  0  0  0  0  0  0  0  0  0  0
   24.3811  -21.5507  -12.5505 C   0  0  1  0  0  0  0  0  0  0  0  0
   23.2506  -20.6513  -12.2441 C   0  0  0  0  0  0  0  0  0  0  0  0
   22.0351  -21.1745  -11.8657 O   0  0  0  0  0  0  0  0  0  0  0  0
   23.3976  -19.4214  -12.3281 O   0  0  0  0  0  0  0  0  0  0  0  0
  2  1  1  1
  3  2  1  0
  4  3  1  0
  5 11  1  0
  5  2  1  0
  6  5  2  0
  8  7  1  6
  8 10  1  0
  9  8  1  0
 10 12  1  0
 10 11  1  6
 12 14  1  0
 13 12  2  0
 14 15  1  0
 14 18  1  0
 15 16  1  0
 16 17  1  0
 18 19  1  1
 18 17  1  0
 19 20  1  0
 21 19  2  0
M  END
$$$$
