CTP.pdb
     RDKit          3D

 21 21  0  0  1  0  0  0  0  0999 V2000
   16.3325  -11.0483  -16.4258 N   0  0  0  0  0  0  0  0  0  0  0  0
   16.8182   -9.7418  -16.7785 C   0  0  1  0  0  0  0  0  0  0  0  0
   15.7274   -8.7445  -16.4401 C   0  0  0  0  0  0  0  0  0  0  0  0
   15.5077   -8.7751  -14.6242 S   0  0  0  0  0  0  0  0  0  0  0  0
   18.0919   -9.4135  -16.0794 C   0  0  0  0  0  0  0  0  0  0  0  0
   18.3864   -9.9418  -14.9968 O   0  0  0  0  0  0  0  0  0  0  0  0
   21.4701   -9.9465  -17.2935 C   0  0  0  0  0  0  0  0  0  0  0  0
   21.2484   -8.4549  -17.2076 C   0  0  1  0  0  0  0  0  0  0  0  0
   20.9086   -7.9559  -18.4187 O   0  0  0  0  0  0  0  0  0  0  0  0
   20.2712   -8.1236  -16.0692 C   0  0  2  0  0  0  0  0  0  0  0  0
   18.9637   -8.4811  -16.6799 N   0  0  0  0  0  0  0  0  0  0  0  0
   20.2328   -6.6789  -15.7927 C   0  0  0  0  0  0  0  0  0  0  0  0
   19.2689   -6.0328  -16.3681 O   0  0  0  0  0  0  0  0  0  0  0  0
   21.1052   -5.9365  -14.9895 N   0  0  0  0  0  0  0  0  0  0  0  0
   22.2635   -6.4423  -14.3140 C   0  0  0  0  0  0  0  0  0  0  0  0
   22.2778   -5.6363  -13.0316 C   0  0  0  0  0  0  0  0  0  0  0  0
   21.1881   -4.5677  -13.1827 C   0  0  0  0  0  0  0  0  0  0  0  0
   21.0557   -4.5412  -14.7159 C   0  0  1  0  0  0  0  0  0  0  0  0
   22.1660   -3.7778  -15.3204 C   0  0  0  0  0  0  0  0  0  0  0  0
   22.1559   -2.4019  -15.2879 O   0  0  0  0  0  0  0  0  0  0  0  0
   23.1096   -4.3788  -15.8587 O   0  0  0  0  0  0  0  0  0  0  0  0
  2  1  1  1
  3  2  1  0
  4  3  1  0
  5 11  1  0
  5  2  1  0
  6  5  2  0
  8  7  1  6
  8 10  1  0
  9  8  1  0
 10 12  1  0
 10 11  1  6
 12 14  1  0
 13 12  2  0
 14 15  1  0
 14 18  1  0
 15 16  1  0
 16 17  1  0
 18 19  1  6
 18 17  1  0
 19 20  1  0
 21 19  2  0
M  END
$$$$
