CTP.pdb
     RDKit          3D

 21 21  0  0  1  0  0  0  0  0999 V2000
   16.3586  -12.4303  -16.5877 N   0  0  0  0  0  0  0  0  0  0  0  0
   17.0941  -11.7410  -15.5625 C   0  0  1  0  0  0  0  0  0  0  0  0
   17.8085  -12.7895  -14.7322 C   0  0  0  0  0  0  0  0  0  0  0  0
   16.5470  -13.6120  -13.6936 S   0  0  0  0  0  0  0  0  0  0  0  0
   18.0518  -10.7528  -16.1327 C   0  0  0  0  0  0  0  0  0  0  0  0
   18.8438  -11.0699  -17.0329 O   0  0  0  0  0  0  0  0  0  0  0  0
   17.3536   -7.6810  -18.0368 C   0  0  0  0  0  0  0  0  0  0  0  0
   17.8542   -7.3391  -16.6533 C   0  0  1  0  0  0  0  0  0  0  0  0
   16.8155   -7.1576  -15.8051 O   0  0  0  0  0  0  0  0  0  0  0  0
   18.8992   -8.3671  -16.1928 C   0  0  2  0  0  0  0  0  0  0  0  0
   18.0390   -9.4375  -15.6230 N   0  0  0  0  0  0  0  0  0  0  0  0
   19.7205   -7.8459  -15.0888 C   0  0  0  0  0  0  0  0  0  0  0  0
   19.2339   -8.0340  -13.9032 O   0  0  0  0  0  0  0  0  0  0  0  0
   20.9493   -7.1824  -15.1738 N   0  0  0  0  0  0  0  0  0  0  0  0
   21.6051   -6.7772  -16.3818 C   0  0  0  0  0  0  0  0  0  0  0  0
   23.0692   -6.9724  -16.0458 C   0  0  0  0  0  0  0  0  0  0  0  0
   23.1265   -7.3071  -14.5501 C   0  0  0  0  0  0  0  0  0  0  0  0
   21.7696   -6.7368  -14.1002 C   0  0  1  0  0  0  0  0  0  0  0  0
   21.8388   -5.2669  -13.9764 C   0  0  0  0  0  0  0  0  0  0  0  0
   22.5111   -4.6939  -12.9209 O   0  0  0  0  0  0  0  0  0  0  0  0
   21.2894   -4.5475  -14.8260 O   0  0  0  0  0  0  0  0  0  0  0  0
  2  1  1  6
  3  2  1  0
  4  3  1  0
  5 11  1  0
  5  2  1  0
  6  5  2  0
  8  7  1  6
  8 10  1  0
  9  8  1  0
 10 12  1  0
 10 11  1  1
 12 14  1  0
 13 12  2  0
 14 15  1  0
 14 18  1  0
 15 16  1  0
 16 17  1  0
 18 19  1  6
 18 17  1  0
 19 20  1  0
 21 19  2  0
M  END
$$$$
