CTP.pdb
     RDKit          3D

 21 21  0  0  1  0  0  0  0  0999 V2000
   13.8478   -8.8373   -9.2157 N   0  0  0  0  0  0  0  0  0  0  0  0
   14.7993   -7.7768   -9.4083 C   0  0  1  0  0  0  0  0  0  0  0  0
   15.2696   -7.3330   -8.0369 C   0  0  0  0  0  0  0  0  0  0  0  0
   16.4974   -6.0005   -8.2885 S   0  0  0  0  0  0  0  0  0  0  0  0
   15.9418   -8.2021  -10.2643 C   0  0  0  0  0  0  0  0  0  0  0  0
   16.5351   -9.2719  -10.0607 O   0  0  0  0  0  0  0  0  0  0  0  0
   15.9469   -9.0793  -13.7712 C   0  0  0  0  0  0  0  0  0  0  0  0
   16.6725   -7.7650  -13.6050 C   0  0  1  0  0  0  0  0  0  0  0  0
   15.8285   -6.7282  -13.8146 O   0  0  0  0  0  0  0  0  0  0  0  0
   17.4227   -7.7334  -12.2645 C   0  0  2  0  0  0  0  0  0  0  0  0
   16.3383   -7.3550  -11.3204 N   0  0  0  0  0  0  0  0  0  0  0  0
   18.4185   -6.6508  -12.2275 C   0  0  0  0  0  0  0  0  0  0  0  0
   18.0227   -5.5568  -11.6581 O   0  0  0  0  0  0  0  0  0  0  0  0
   19.7247   -6.6702  -12.7283 N   0  0  0  0  0  0  0  0  0  0  0  0
   20.3203   -7.7317  -13.4849 C   0  0  0  0  0  0  0  0  0  0  0  0
   21.7587   -7.7102  -13.0105 C   0  0  0  0  0  0  0  0  0  0  0  0
   21.9023   -6.4642  -12.1279 C   0  0  0  0  0  0  0  0  0  0  0  0
   20.7039   -5.6424  -12.6352 C   0  0  1  0  0  0  0  0  0  0  0  0
   21.0209   -5.0052  -13.9292 C   0  0  0  0  0  0  0  0  0  0  0  0
   21.7786   -3.8568  -13.9659 O   0  0  0  0  0  0  0  0  0  0  0  0
   20.6030   -5.5069  -14.9851 O   0  0  0  0  0  0  0  0  0  0  0  0
  2  1  1  1
  3  2  1  0
  4  3  1  0
  5 11  1  0
  5  2  1  0
  6  5  2  0
  8  7  1  1
  8 10  1  0
  9  8  1  0
 10 12  1  0
 10 11  1  1
 12 14  1  0
 13 12  2  0
 14 15  1  0
 14 18  1  0
 15 16  1  0
 16 17  1  0
 18 19  1  6
 18 17  1  0
 19 20  1  0
 21 19  2  0
M  END
$$$$
