CTP.pdb
     RDKit          3D

 21 21  0  0  1  0  0  0  0  0999 V2000
   18.1215  -12.7481    5.4066 N   0  0  0  0  0  0  0  0  0  0  0  0
   17.3764  -13.9423    5.1136 C   0  0  1  0  0  0  0  0  0  0  0  0
   17.0447  -13.9198    3.6342 C   0  0  0  0  0  0  0  0  0  0  0  0
   15.9089  -15.3170    3.3110 S   0  0  0  0  0  0  0  0  0  0  0  0
   18.1287  -15.1734    5.4841 C   0  0  0  0  0  0  0  0  0  0  0  0
   19.3365  -15.2909    5.2283 O   0  0  0  0  0  0  0  0  0  0  0  0
   18.5906  -16.8630    8.8766 C   0  0  0  0  0  0  0  0  0  0  0  0
   17.6714  -17.6511    7.9736 C   0  0  1  0  0  0  0  0  0  0  0  0
   16.3783  -17.3482    8.2332 O   0  0  0  0  0  0  0  0  0  0  0  0
   18.0960  -17.4904    6.5057 C   0  0  2  0  0  0  0  0  0  0  0  0
   17.4326  -16.2118    6.1377 N   0  0  0  0  0  0  0  0  0  0  0  0
   17.5079  -18.5372    5.6550 C   0  0  0  0  0  0  0  0  0  0  0  0
   16.3651  -18.2383    5.1235 O   0  0  0  0  0  0  0  0  0  0  0  0
   18.0365  -19.7981    5.3586 N   0  0  0  0  0  0  0  0  0  0  0  0
   19.2477  -20.3493    5.8907 C   0  0  0  0  0  0  0  0  0  0  0  0
   19.7884  -21.1496    4.7239 C   0  0  0  0  0  0  0  0  0  0  0  0
   18.6956  -21.1338    3.6479 C   0  0  0  0  0  0  0  0  0  0  0  0
   17.4722  -20.7990    4.5197 C   0  0  1  0  0  0  0  0  0  0  0  0
   17.0117  -21.9965    5.2512 C   0  0  0  0  0  0  0  0  0  0  0  0
   16.2754  -22.9612    4.6020 O   0  0  0  0  0  0  0  0  0  0  0  0
   17.2897  -22.1324    6.4535 O   0  0  0  0  0  0  0  0  0  0  0  0
  2  1  1  6
  3  2  1  0
  4  3  1  0
  5 11  1  0
  5  2  1  0
  6  5  2  0
  8  7  1  1
  8 10  1  0
  9  8  1  0
 10 12  1  0
 10 11  1  6
 12 14  1  0
 13 12  2  0
 14 15  1  0
 14 18  1  0
 15 16  1  0
 16 17  1  0
 18 19  1  1
 18 17  1  0
 19 20  1  0
 21 19  2  0
M  END
$$$$
