LDS.pdb
     RDKit          3D

 23 22  0  0  1  0  0  0  0  0999 V2000
   18.0236  -11.2142  -16.8870 C   0  0  0  0  0  0  0  0  0  0  0  0
   18.6335  -10.9872  -15.5266 C   0  0  2  0  0  0  0  0  0  0  0  0
   17.9296  -11.8067  -14.4631 C   0  0  0  0  0  0  0  0  0  0  0  0
   18.8431   -9.5778  -15.1455 C   0  0  0  0  0  0  0  0  0  0  0  0
   19.4773   -8.6612  -16.1181 C   0  0  2  0  0  0  0  0  0  0  0  0
   20.8487   -8.9241  -16.4379 N   0  0  0  0  0  0  0  0  0  0  0  0
   19.4219   -7.2695  -15.5311 C   0  0  0  0  0  0  0  0  0  0  0  0
   18.3716   -6.8053  -15.0187 O   0  0  0  0  0  0  0  0  0  0  0  0
   20.5560   -6.4068  -15.5259 N   0  0  0  0  0  0  0  0  0  0  0  0
   20.5204   -5.0460  -15.0851 C   0  0  1  0  0  0  0  0  0  0  0  0
   21.8164   -4.6920  -14.3971 C   0  0  0  0  0  0  0  0  0  0  0  0
   21.9785   -5.2604  -13.0614 C   0  0  0  0  0  0  0  0  0  0  0  0
   21.1853   -5.0031  -12.1287 O   0  0  0  0  0  0  0  0  0  0  0  0
   20.2109   -4.0864  -16.1717 C   0  0  0  0  0  0  0  0  0  0  0  0
   20.8800   -4.1293  -17.2360 O   0  0  0  0  0  0  0  0  0  0  0  0
   23.0354   -6.1131  -12.7960 O   0  0  0  0  0  0  0  0  0  0  0  0
   16.5358   -3.1191  -16.9767 O   0  0  0  0  0  0  0  0  0  0  0  0
   17.2871   -1.9737  -17.1620 C   0  0  0  0  0  0  0  0  0  0  0  0
   18.7715   -2.2547  -17.1517 C   0  0  2  0  0  0  0  0  0  0  0  0
   19.1881   -3.1016  -16.0895 N   0  0  0  0  0  0  0  0  0  0  0  0
   19.4743   -0.9688  -17.2165 C   0  0  0  0  0  0  0  0  0  0  0  0
   19.1742   -0.1656  -18.1338 O   0  0  0  0  0  0  0  0  0  0  0  0
   20.4570   -0.5789  -16.3231 O   0  0  0  0  0  0  0  0  0  0  0  0
  2  1  1  6
  2  3  1  0
  4  2  1  0
  4  5  1  0
  5  6  1  1
  5  7  1  0
  7  9  1  0
  8  7  2  0
  9 10  1  0
 10 14  1  0
 10 11  1  6
 12 13  2  0
 12 11  1  0
 14 15  2  0
 16 12  1  0
 17 18  1  0
 19 18  1  1
 19 21  1  0
 20 19  1  0
 20 14  1  0
 21 23  1  0
 22 21  2  0
M  END
$$$$
