LDS.pdb
     RDKit          3D

 23 22  0  0  1  0  0  0  0  0999 V2000
   26.2451  -17.3533  -14.8455 C   0  0  0  0  0  0  0  0  0  0  0  0
   26.5642  -16.6484  -16.1398 C   0  0  2  0  0  0  0  0  0  0  0  0
   27.9482  -17.0131  -16.6395 C   0  0  0  0  0  0  0  0  0  0  0  0
   26.2886  -15.1996  -16.1653 C   0  0  0  0  0  0  0  0  0  0  0  0
   24.9565  -14.7180  -15.7388 C   0  0  2  0  0  0  0  0  0  0  0  0
   23.8280  -15.4446  -16.2391 N   0  0  0  0  0  0  0  0  0  0  0  0
   24.8130  -13.2940  -16.2248 C   0  0  0  0  0  0  0  0  0  0  0  0
   25.6690  -12.4117  -15.9604 O   0  0  0  0  0  0  0  0  0  0  0  0
   23.7005  -12.8727  -17.0092 N   0  0  0  0  0  0  0  0  0  0  0  0
   23.4789  -11.5188  -17.4160 C   0  0  1  0  0  0  0  0  0  0  0  0
   23.3308  -11.4482  -18.9165 C   0  0  0  0  0  0  0  0  0  0  0  0
   23.3515  -10.0981  -19.4734 C   0  0  0  0  0  0  0  0  0  0  0  0
   23.5950   -9.8810  -20.6813 O   0  0  0  0  0  0  0  0  0  0  0  0
   22.3270  -10.8833  -16.7331 C   0  0  0  0  0  0  0  0  0  0  0  0
   21.2078  -11.4570  -16.7570 O   0  0  0  0  0  0  0  0  0  0  0  0
   23.0967   -9.0096  -18.6582 O   0  0  0  0  0  0  0  0  0  0  0  0
   22.3223   -6.8399  -15.1237 O   0  0  0  0  0  0  0  0  0  0  0  0
   21.7694   -7.9000  -14.4298 C   0  0  0  0  0  0  0  0  0  0  0  0
   21.3330   -9.0188  -15.3463 C   0  0  2  0  0  0  0  0  0  0  0  0
   22.4043   -9.6442  -16.0394 N   0  0  0  0  0  0  0  0  0  0  0  0
   20.2669   -8.5029  -16.2117 C   0  0  0  0  0  0  0  0  0  0  0  0
   20.4481   -8.5040  -17.4543 O   0  0  0  0  0  0  0  0  0  0  0  0
   19.0614   -8.0097  -15.7432 O   0  0  0  0  0  0  0  0  0  0  0  0
  2  1  1  1
  2  3  1  0
  4  2  1  0
  4  5  1  0
  5  6  1  6
  5  7  1  0
  7  9  1  0
  8  7  2  0
  9 10  1  0
 10 14  1  0
 10 11  1  6
 12 13  2  0
 12 11  1  0
 14 15  2  0
 16 12  1  0
 17 18  1  0
 19 18  1  6
 19 21  1  0
 20 19  1  0
 20 14  1  0
 21 23  1  0
 22 21  2  0
M  END
$$$$
