LDS.pdb
     RDKit          3D

 23 22  0  0  1  0  0  0  0  0999 V2000
   31.5628  -33.9865   -7.6171 C   0  0  0  0  0  0  0  0  0  0  0  0
   32.4272  -33.2854   -6.5996 C   0  0  2  0  0  0  0  0  0  0  0  0
   33.5748  -32.5506   -7.2638 C   0  0  0  0  0  0  0  0  0  0  0  0
   32.8374  -34.0976   -5.4388 C   0  0  0  0  0  0  0  0  0  0  0  0
   31.7962  -34.7838   -4.6429 C   0  0  2  0  0  0  0  0  0  0  0  0
   30.7728  -33.9519   -4.0836 N   0  0  0  0  0  0  0  0  0  0  0  0
   32.4879  -35.4675   -3.4859 C   0  0  0  0  0  0  0  0  0  0  0  0
   33.3293  -36.3850   -3.6625 O   0  0  0  0  0  0  0  0  0  0  0  0
   32.2251  -35.1103   -2.1317 N   0  0  0  0  0  0  0  0  0  0  0  0
   32.7906  -35.7868   -1.0047 C   0  0  1  0  0  0  0  0  0  0  0  0
   33.8020  -34.8977   -0.3229 C   0  0  0  0  0  0  0  0  0  0  0  0
   34.5329  -35.5267    0.7741 C   0  0  0  0  0  0  0  0  0  0  0  0
   35.3575  -36.4478    0.5816 O   0  0  0  0  0  0  0  0  0  0  0  0
   31.7731  -36.2760   -0.0442 C   0  0  0  0  0  0  0  0  0  0  0  0
   30.7650  -35.5630    0.1966 O   0  0  0  0  0  0  0  0  0  0  0  0
   34.3231  -35.1068    2.0757 O   0  0  0  0  0  0  0  0  0  0  0  0
   30.5380  -38.4841    3.9135 O   0  0  0  0  0  0  0  0  0  0  0  0
   31.3732  -37.8352    3.0234 C   0  0  0  0  0  0  0  0  0  0  0  0
   30.9284  -38.0089    1.5901 C   0  0  2  0  0  0  0  0  0  0  0  0
   31.8621  -37.5216    0.6362 N   0  0  0  0  0  0  0  0  0  0  0  0
   29.5800  -37.4453    1.4649 C   0  0  0  0  0  0  0  0  0  0  0  0
   29.3710  -36.5774    0.5818 O   0  0  0  0  0  0  0  0  0  0  0  0
   28.5116  -37.8113    2.2652 O   0  0  0  0  0  0  0  0  0  0  0  0
  2  1  1  6
  2  3  1  0
  4  2  1  0
  4  5  1  0
  5  6  1  1
  5  7  1  0
  7  9  1  0
  8  7  2  0
  9 10  1  0
 10 14  1  0
 10 11  1  1
 12 13  2  0
 12 11  1  0
 14 15  2  0
 16 12  1  0
 17 18  1  0
 19 18  1  1
 19 21  1  0
 20 19  1  0
 20 14  1  0
 21 23  1  0
 22 21  2  0
M  END
$$$$
