LDS.pdb
     RDKit          3D

 23 22  0  0  1  0  0  0  0  0999 V2000
   17.6764  -12.4170  -16.5795 C   0  0  0  0  0  0  0  0  0  0  0  0
   18.9871  -12.2996  -15.8431 C   0  0  2  0  0  0  0  0  0  0  0  0
   19.1909  -13.4618  -14.8914 C   0  0  0  0  0  0  0  0  0  0  0  0
   19.2667  -10.9836  -15.2386 C   0  0  0  0  0  0  0  0  0  0  0  0
   19.0715   -9.7658  -16.0555 C   0  0  2  0  0  0  0  0  0  0  0  0
   19.9173   -9.6285  -17.2035 N   0  0  0  0  0  0  0  0  0  0  0  0
   19.3426   -8.5750  -15.1649 C   0  0  0  0  0  0  0  0  0  0  0  0
   18.7312   -8.4035  -14.0796 O   0  0  0  0  0  0  0  0  0  0  0  0
   20.3055   -7.5814  -15.5056 N   0  0  0  0  0  0  0  0  0  0  0  0
   20.5433   -6.4027  -14.7300 C   0  0  1  0  0  0  0  0  0  0  0  0
   22.0211   -6.2497  -14.4632 C   0  0  0  0  0  0  0  0  0  0  0  0
   22.3794   -5.1087  -13.6246 C   0  0  0  0  0  0  0  0  0  0  0  0
   22.7942   -4.0322  -14.1088 O   0  0  0  0  0  0  0  0  0  0  0  0
   19.9790   -5.1758  -15.3412 C   0  0  0  0  0  0  0  0  0  0  0  0
   20.3193   -4.8616  -16.5107 O   0  0  0  0  0  0  0  0  0  0  0  0
   22.2646   -5.1984  -12.2487 O   0  0  0  0  0  0  0  0  0  0  0  0
   16.5112   -3.3421  -13.8108 O   0  0  0  0  0  0  0  0  0  0  0  0
   16.9138   -3.2054  -15.1261 C   0  0  0  0  0  0  0  0  0  0  0  0
   18.4180   -3.1896  -15.2659 C   0  0  2  0  0  0  0  0  0  0  0  0
   19.0607   -4.3138  -14.6808 N   0  0  0  0  0  0  0  0  0  0  0  0
   18.9021   -1.8919  -14.7830 C   0  0  0  0  0  0  0  0  0  0  0  0
   18.4257   -0.8464  -15.2896 O   0  0  0  0  0  0  0  0  0  0  0  0
   19.8600   -1.7430  -13.7950 O   0  0  0  0  0  0  0  0  0  0  0  0
  2  1  1  1
  2  3  1  0
  4  2  1  0
  4  5  1  0
  5  6  1  6
  5  7  1  0
  7  9  1  0
  8  7  2  0
  9 10  1  0
 10 14  1  0
 10 11  1  6
 12 13  2  0
 12 11  1  0
 14 15  2  0
 16 12  1  0
 17 18  1  0
 19 18  1  1
 19 21  1  0
 20 19  1  0
 20 14  1  0
 21 23  1  0
 22 21  2  0
M  END
$$$$
