LDS.pdb
     RDKit          3D

 23 22  0  0  1  0  0  0  0  0999 V2000
   18.5967  -11.4854  -19.0268 C   0  0  0  0  0  0  0  0  0  0  0  0
   18.2982  -11.8500  -17.5943 C   0  0  2  0  0  0  0  0  0  0  0  0
   16.8464  -12.2492  -17.4180 C   0  0  0  0  0  0  0  0  0  0  0  0
   18.7773  -10.8955  -16.5770 C   0  0  0  0  0  0  0  0  0  0  0  0
   20.1665  -10.3948  -16.6648 C   0  0  2  0  0  0  0  0  0  0  0  0
   21.2009  -11.3304  -16.3383 N   0  0  0  0  0  0  0  0  0  0  0  0
   20.2944   -9.2422  -15.6954 C   0  0  0  0  0  0  0  0  0  0  0  0
   20.7553   -9.3966  -14.5357 O   0  0  0  0  0  0  0  0  0  0  0  0
   19.9000   -7.9174  -16.0418 N   0  0  0  0  0  0  0  0  0  0  0  0
   20.0514   -6.7885  -15.1757 C   0  0  1  0  0  0  0  0  0  0  0  0
   21.4339   -6.7842  -14.5700 C   0  0  0  0  0  0  0  0  0  0  0  0
   21.6937   -5.6892  -13.6389 C   0  0  0  0  0  0  0  0  0  0  0  0
   20.8117   -5.2478  -12.8691 O   0  0  0  0  0  0  0  0  0  0  0  0
   19.7528   -5.4971  -15.8393 C   0  0  0  0  0  0  0  0  0  0  0  0
   20.4599   -5.1307  -16.8131 O   0  0  0  0  0  0  0  0  0  0  0  0
   22.9476   -5.1063  -13.5890 O   0  0  0  0  0  0  0  0  0  0  0  0
   16.0419   -4.0251  -15.6300 O   0  0  0  0  0  0  0  0  0  0  0  0
   16.9205   -2.9688  -15.7823 C   0  0  0  0  0  0  0  0  0  0  0  0
   18.3214   -3.4315  -16.1074 C   0  0  2  0  0  0  0  0  0  0  0  0
   18.6999   -4.6281  -15.4409 N   0  0  0  0  0  0  0  0  0  0  0  0
   19.2310   -2.3010  -15.8922 C   0  0  0  0  0  0  0  0  0  0  0  0
   20.2465   -2.4750  -15.1743 O   0  0  0  0  0  0  0  0  0  0  0  0
   19.0411   -1.0418  -16.4345 O   0  0  0  0  0  0  0  0  0  0  0  0
  2  1  1  6
  2  3  1  0
  4  2  1  0
  4  5  1  0
  5  6  1  1
  5  7  1  0
  7  9  1  0
  8  7  2  0
  9 10  1  0
 10 14  1  0
 10 11  1  6
 12 13  2  0
 12 11  1  0
 14 15  2  0
 16 12  1  0
 17 18  1  0
 19 18  1  1
 19 21  1  0
 20 19  1  0
 20 14  1  0
 21 23  1  0
 22 21  2  0
M  END
$$$$
