LDS.pdb
     RDKit          3D

 23 22  0  0  1  0  0  0  0  0999 V2000
   18.8115  -14.0493  -16.1334 C   0  0  0  0  0  0  0  0  0  0  0  0
   19.7890  -13.0454  -16.6908 C   0  0  2  0  0  0  0  0  0  0  0  0
   21.1609  -13.6607  -16.8846 C   0  0  0  0  0  0  0  0  0  0  0  0
   19.8182  -11.7354  -16.0138 C   0  0  0  0  0  0  0  0  0  0  0  0
   20.2054  -10.5377  -16.7909 C   0  0  2  0  0  0  0  0  0  0  0  0
   21.5623  -10.4878  -17.2473 N   0  0  0  0  0  0  0  0  0  0  0  0
   19.9963   -9.3338  -15.9014 C   0  0  0  0  0  0  0  0  0  0  0  0
   18.9335   -9.1639  -15.2513 O   0  0  0  0  0  0  0  0  0  0  0  0
   20.9914   -8.3251  -15.7502 N   0  0  0  0  0  0  0  0  0  0  0  0
   20.7781   -7.0927  -15.0551 C   0  0  1  0  0  0  0  0  0  0  0  0
   22.0310   -6.6947  -14.3133 C   0  0  0  0  0  0  0  0  0  0  0  0
   21.8815   -5.5425  -13.4281 C   0  0  0  0  0  0  0  0  0  0  0  0
   22.8634   -4.9923  -12.8818 O   0  0  0  0  0  0  0  0  0  0  0  0
   20.3059   -5.9978  -15.9358 C   0  0  0  0  0  0  0  0  0  0  0  0
   20.9843   -5.6912  -16.9498 O   0  0  0  0  0  0  0  0  0  0  0  0
   20.6239   -5.0261  -13.1712 O   0  0  0  0  0  0  0  0  0  0  0  0
   16.7493   -5.6109  -17.1256 O   0  0  0  0  0  0  0  0  0  0  0  0
   17.1366   -4.3189  -16.8231 C   0  0  0  0  0  0  0  0  0  0  0  0
   18.6166   -4.2169  -16.5374 C   0  0  2  0  0  0  0  0  0  0  0  0
   19.1139   -5.2568  -15.7065 N   0  0  0  0  0  0  0  0  0  0  0  0
   18.8885   -2.8620  -16.0456 C   0  0  0  0  0  0  0  0  0  0  0  0
   19.3893   -2.7270  -14.9020 O   0  0  0  0  0  0  0  0  0  0  0  0
   18.6264   -1.7103  -16.7673 O   0  0  0  0  0  0  0  0  0  0  0  0
  2  1  1  1
  2  3  1  0
  4  2  1  0
  4  5  1  0
  5  6  1  1
  5  7  1  0
  7  9  1  0
  8  7  2  0
  9 10  1  0
 10 14  1  0
 10 11  1  6
 12 13  2  0
 12 11  1  0
 14 15  2  0
 16 12  1  0
 17 18  1  0
 19 18  1  1
 19 21  1  0
 20 19  1  0
 20 14  1  0
 21 23  1  0
 22 21  2  0
M  END
$$$$
