LDS.pdb
     RDKit          3D

 23 22  0  0  1  0  0  0  0  0999 V2000
   15.8067  -14.0428  -14.5952 C   0  0  0  0  0  0  0  0  0  0  0  0
   17.0869  -13.3524  -14.9933 C   0  0  2  0  0  0  0  0  0  0  0  0
   18.2377  -14.3350  -15.0849 C   0  0  0  0  0  0  0  0  0  0  0  0
   17.4140  -12.1262  -14.2417 C   0  0  0  0  0  0  0  0  0  0  0  0
   16.3504  -11.1244  -14.0107 C   0  0  2  0  0  0  0  0  0  0  0  0
   15.8215  -10.4792  -15.1751 N   0  0  0  0  0  0  0  0  0  0  0  0
   16.9327  -10.0399  -13.1336 C   0  0  0  0  0  0  0  0  0  0  0  0
   17.4393  -10.2931  -12.0109 O   0  0  0  0  0  0  0  0  0  0  0  0
   16.9400   -8.6712  -13.5301 N   0  0  0  0  0  0  0  0  0  0  0  0
   17.3916   -7.6015  -12.6939 C   0  0  1  0  0  0  0  0  0  0  0  0
   17.9690   -6.4931  -13.5402 C   0  0  0  0  0  0  0  0  0  0  0  0
   19.1757   -6.8505  -14.2815 C   0  0  0  0  0  0  0  0  0  0  0  0
   20.2215   -7.2271  -13.7072 O   0  0  0  0  0  0  0  0  0  0  0  0
   16.3421   -7.0882  -11.7816 C   0  0  0  0  0  0  0  0  0  0  0  0
   15.2044   -6.8192  -12.2462 O   0  0  0  0  0  0  0  0  0  0  0  0
   19.1858   -6.7780  -15.6632 O   0  0  0  0  0  0  0  0  0  0  0  0
   15.9225   -8.1520   -7.8948 O   0  0  0  0  0  0  0  0  0  0  0  0
   15.8053   -6.7830   -8.0465 C   0  0  0  0  0  0  0  0  0  0  0  0
   15.5608   -6.3849   -9.4832 C   0  0  2  0  0  0  0  0  0  0  0  0
   16.5393   -6.8755  -10.3893 N   0  0  0  0  0  0  0  0  0  0  0  0
   15.3697   -4.9311   -9.5221 C   0  0  0  0  0  0  0  0  0  0  0  0
   16.1826   -4.2355  -10.1794 O   0  0  0  0  0  0  0  0  0  0  0  0
   14.3410   -4.2689   -8.8746 O   0  0  0  0  0  0  0  0  0  0  0  0
  2  1  1  1
  2  3  1  0
  4  2  1  0
  4  5  1  0
  5  6  1  6
  5  7  1  0
  7  9  1  0
  8  7  2  0
  9 10  1  0
 10 14  1  0
 10 11  1  6
 12 13  2  0
 12 11  1  0
 14 15  2  0
 16 12  1  0
 17 18  1  0
 19 18  1  1
 19 21  1  0
 20 19  1  0
 20 14  1  0
 21 23  1  0
 22 21  2  0
M  END
$$$$
