LDS.pdb
     RDKit          3D

 23 22  0  0  1  0  0  0  0  0999 V2000
   22.4067  -13.0007  -16.2789 C   0  0  0  0  0  0  0  0  0  0  0  0
   23.3619  -12.0836  -15.5575 C   0  0  2  0  0  0  0  0  0  0  0  0
   24.2577  -12.8560  -14.6093 C   0  0  0  0  0  0  0  0  0  0  0  0
   22.7615  -10.8786  -14.9550 C   0  0  0  0  0  0  0  0  0  0  0  0
   21.8137  -10.0748  -15.7575 C   0  0  2  0  0  0  0  0  0  0  0  0
   22.2970   -9.5931  -17.0170 N   0  0  0  0  0  0  0  0  0  0  0  0
   21.4410   -8.8617  -14.9366 C   0  0  0  0  0  0  0  0  0  0  0  0
   20.8634   -8.9633  -13.8243 O   0  0  0  0  0  0  0  0  0  0  0  0
   21.7234   -7.5363  -15.3774 N   0  0  0  0  0  0  0  0  0  0  0  0
   21.3735   -6.3600  -14.6416 C   0  0  1  0  0  0  0  0  0  0  0  0
   22.5531   -5.4204  -14.5789 C   0  0  0  0  0  0  0  0  0  0  0  0
   22.3602   -4.2473  -13.7302 C   0  0  0  0  0  0  0  0  0  0  0  0
   22.2006   -3.1014  -14.2065 O   0  0  0  0  0  0  0  0  0  0  0  0
   20.1700   -5.6750  -15.1703 C   0  0  0  0  0  0  0  0  0  0  0  0
   19.7345   -4.6555  -14.5759 O   0  0  0  0  0  0  0  0  0  0  0  0
   22.3500   -4.3837  -12.3534 O   0  0  0  0  0  0  0  0  0  0  0  0
   16.5881   -5.5735  -18.5436 O   0  0  0  0  0  0  0  0  0  0  0  0
   17.6553   -6.2525  -17.9860 C   0  0  0  0  0  0  0  0  0  0  0  0
   18.2981   -5.4810  -16.8573 C   0  0  2  0  0  0  0  0  0  0  0  0
   19.4612   -6.1017  -16.3271 N   0  0  0  0  0  0  0  0  0  0  0  0
   17.2596   -5.1853  -15.8645 C   0  0  0  0  0  0  0  0  0  0  0  0
   16.8625   -6.1119  -15.1159 O   0  0  0  0  0  0  0  0  0  0  0  0
   16.6826   -3.9383  -15.6972 O   0  0  0  0  0  0  0  0  0  0  0  0
  2  1  1  1
  2  3  1  0
  4  2  1  0
  4  5  1  0
  5  6  1  6
  5  7  1  0
  7  9  1  0
  8  7  2  0
  9 10  1  0
 10 14  1  0
 10 11  1  6
 12 13  2  0
 12 11  1  0
 14 15  2  0
 16 12  1  0
 17 18  1  0
 19 18  1  6
 19 21  1  0
 20 19  1  0
 20 14  1  0
 21 23  1  0
 22 21  2  0
M  END
$$$$
