MMK.pdb
     RDKit          3D

 26 25  0  0  1  0  0  0  0  0999 V2000
   29.2355  -18.1131  -18.6337 C   0  0  0  0  0  0  0  0  0  0  0  0
   29.5874  -17.0625  -17.1996 S   0  0  0  0  0  0  0  0  0  0  0  0
   28.0934  -16.6873  -16.2642 C   0  0  0  0  0  0  0  0  0  0  0  0
   27.2622  -17.9472  -16.1740 C   0  0  0  0  0  0  0  0  0  0  0  0
   25.9086  -17.6552  -15.5255 C   0  0  2  0  0  0  0  0  0  0  0  0
   26.2342  -16.7793  -14.3903 N   0  0  0  0  0  0  0  0  0  0  0  0
   25.3211  -18.8913  -14.9647 C   0  0  0  0  0  0  0  0  0  0  0  0
   24.9407  -19.8128  -15.7077 O   0  0  0  0  0  0  0  0  0  0  0  0
   25.5036  -20.5374   -8.4520 C   0  0  0  0  0  0  0  0  0  0  0  0
   26.7262  -21.2765   -9.5735 S   0  0  0  0  0  0  0  0  0  0  0  0
   26.2545  -21.1376  -11.2945 C   0  0  0  0  0  0  0  0  0  0  0  0
   24.9271  -20.5361  -11.5533 C   0  0  0  0  0  0  0  0  0  0  0  0
   24.5807  -20.2465  -12.9753 C   0  0  2  0  0  0  0  0  0  0  0  0
   25.1665  -19.0787  -13.5413 N   0  0  0  0  0  0  0  0  0  0  0  0
   23.0992  -20.3116  -13.2096 C   0  0  0  0  0  0  0  0  0  0  0  0
   22.3798  -19.2820  -13.1280 O   0  0  0  0  0  0  0  0  0  0  0  0
   22.4331  -21.5211  -13.5325 N   0  0  0  0  0  0  0  0  0  0  0  0
   20.9967  -21.5892  -13.7989 C   0  0  1  0  0  0  0  0  0  0  0  0
   20.6059  -22.9126  -14.3470 C   0  0  0  0  0  0  0  0  0  0  0  0
   19.1492  -22.9349  -14.7142 C   0  0  0  0  0  0  0  0  0  0  0  0
   18.7600  -24.3662  -15.1429 C   0  0  0  0  0  0  0  0  0  0  0  0
   17.3041  -24.3304  -15.5519 C   0  0  0  0  0  0  0  0  0  0  0  0
   16.8057  -25.6487  -15.8319 N   0  0  0  0  0  0  0  0  0  0  0  0
   20.3023  -21.3358  -12.5205 C   0  0  0  0  0  0  0  0  0  0  0  0
   19.0903  -20.6135  -12.5480 O   0  0  0  0  0  0  0  0  0  0  0  0
   20.6718  -21.6952  -11.3896 O   0  0  0  0  0  0  0  0  0  0  0  0
  2  1  1  0
  3  2  1  0
  4  3  1  0
  4  5  1  0
  5  7  1  0
  5  6  1  1
  7 14  1  0
  8  7  2  0
 10  9  1  0
 11 10  1  0
 13 12  1  1
 12 11  1  0
 14 13  1  0
 15 17  1  0
 15 13  1  0
 16 15  2  0
 18 17  1  0
 18 24  1  0
 18 19  1  1
 20 19  1  0
 21 20  1  0
 22 21  1  0
 23 22  1  0
 24 25  1  0
 26 24  2  0
M  END
$$$$
