MMK.pdb
     RDKit          3D

 26 25  0  0  1  0  0  0  0  0999 V2000
   28.6153  -23.9398  -16.6552 C   0  0  0  0  0  0  0  0  0  0  0  0
   28.5495  -22.3371  -17.4985 S   0  0  0  0  0  0  0  0  0  0  0  0
   28.9106  -20.9757  -16.3741 C   0  0  0  0  0  0  0  0  0  0  0  0
   28.4630  -21.3762  -14.9864 C   0  0  0  0  0  0  0  0  0  0  0  0
   27.0915  -20.7794  -14.6688 C   0  0  2  0  0  0  0  0  0  0  0  0
   27.3628  -19.3517  -14.4448 N   0  0  0  0  0  0  0  0  0  0  0  0
   26.5664  -21.3253  -13.3984 C   0  0  0  0  0  0  0  0  0  0  0  0
   26.3025  -22.5348  -13.2827 O   0  0  0  0  0  0  0  0  0  0  0  0
   26.6145  -19.3583   -7.0780 C   0  0  0  0  0  0  0  0  0  0  0  0
   27.6671  -20.6154   -7.8593 S   0  0  0  0  0  0  0  0  0  0  0  0
   27.0148  -21.1825   -9.4265 C   0  0  0  0  0  0  0  0  0  0  0  0
   25.7319  -20.5769   -9.8488 C   0  0  0  0  0  0  0  0  0  0  0  0
   25.3361  -20.7559  -11.2760 C   0  0  2  0  0  0  0  0  0  0  0  0
   26.3404  -20.4830  -12.2476 N   0  0  0  0  0  0  0  0  0  0  0  0
   24.0414  -20.0607  -11.5839 C   0  0  0  0  0  0  0  0  0  0  0  0
   24.0229  -18.8844  -12.0312 O   0  0  0  0  0  0  0  0  0  0  0  0
   22.7809  -20.6812  -11.3915 N   0  0  0  0  0  0  0  0  0  0  0  0
   21.6764  -20.5449  -12.3403 C   0  0  1  0  0  0  0  0  0  0  0  0
   22.0311  -21.0958  -13.6727 C   0  0  0  0  0  0  0  0  0  0  0  0
   20.8873  -20.9536  -14.6364 C   0  0  0  0  0  0  0  0  0  0  0  0
   21.3117  -21.5202  -16.0085 C   0  0  0  0  0  0  0  0  0  0  0  0
   20.1612  -21.2895  -16.9631 C   0  0  0  0  0  0  0  0  0  0  0  0
   20.4927  -21.7128  -18.2957 N   0  0  0  0  0  0  0  0  0  0  0  0
   20.5214  -21.2702  -11.7741 C   0  0  0  0  0  0  0  0  0  0  0  0
   20.7689  -22.4209  -10.9955 O   0  0  0  0  0  0  0  0  0  0  0  0
   19.3211  -20.9767  -11.9073 O   0  0  0  0  0  0  0  0  0  0  0  0
  2  1  1  0
  3  2  1  0
  4  3  1  0
  4  5  1  0
  5  7  1  0
  5  6  1  1
  7 14  1  0
  8  7  2  0
 10  9  1  0
 11 10  1  0
 13 12  1  1
 12 11  1  0
 14 13  1  0
 15 17  1  0
 15 13  1  0
 16 15  2  0
 18 17  1  0
 18 24  1  0
 18 19  1  6
 20 19  1  0
 21 20  1  0
 22 21  1  0
 23 22  1  0
 24 25  1  0
 26 24  2  0
M  END
$$$$
