MMK.pdb
     RDKit          3D

 26 25  0  0  1  0  0  0  0  0999 V2000
   26.5788  -16.9949  -15.8960 C   0  0  0  0  0  0  0  0  0  0  0  0
   28.0458  -17.6442  -16.7388 S   0  0  0  0  0  0  0  0  0  0  0  0
   28.7426  -19.0612  -15.8700 C   0  0  0  0  0  0  0  0  0  0  0  0
   27.7002  -19.5867  -14.9090 C   0  0  0  0  0  0  0  0  0  0  0  0
   28.2571  -20.7555  -14.0954 C   0  0  2  0  0  0  0  0  0  0  0  0
   28.2974  -21.8727  -15.0504 N   0  0  0  0  0  0  0  0  0  0  0  0
   27.3162  -21.1380  -13.0202 C   0  0  0  0  0  0  0  0  0  0  0  0
   26.3195  -21.8407  -13.2626 O   0  0  0  0  0  0  0  0  0  0  0  0
   28.1263  -20.2452   -6.2586 C   0  0  0  0  0  0  0  0  0  0  0  0
   26.3487  -20.0538   -6.5782 S   0  0  0  0  0  0  0  0  0  0  0  0
   25.8791  -20.6103   -8.2132 C   0  0  0  0  0  0  0  0  0  0  0  0
   26.8830  -20.3987   -9.2801 C   0  0  0  0  0  0  0  0  0  0  0  0
   26.4939  -20.7965  -10.6643 C   0  0  2  0  0  0  0  0  0  0  0  0
   27.5145  -20.7152  -11.6538 N   0  0  0  0  0  0  0  0  0  0  0  0
   25.2242  -20.1232  -11.0987 C   0  0  0  0  0  0  0  0  0  0  0  0
   25.2058  -18.9039  -11.4101 O   0  0  0  0  0  0  0  0  0  0  0  0
   23.9881  -20.8132  -11.1824 N   0  0  0  0  0  0  0  0  0  0  0  0
   22.8076  -20.2497  -11.8363 C   0  0  1  0  0  0  0  0  0  0  0  0
   22.8231  -20.5004  -13.2997 C   0  0  0  0  0  0  0  0  0  0  0  0
   21.5725  -19.9789  -13.9490 C   0  0  0  0  0  0  0  0  0  0  0  0
   21.6381  -20.2598  -15.4658 C   0  0  0  0  0  0  0  0  0  0  0  0
   20.3837  -19.6816  -16.0825 C   0  0  0  0  0  0  0  0  0  0  0  0
   20.3481  -19.9015  -17.5020 N   0  0  0  0  0  0  0  0  0  0  0  0
   21.6231  -20.8790  -11.2185 C   0  0  0  0  0  0  0  0  0  0  0  0
   20.4021  -20.1717  -11.2375 O   0  0  0  0  0  0  0  0  0  0  0  0
   21.5748  -21.9918  -10.6674 O   0  0  0  0  0  0  0  0  0  0  0  0
  2  1  1  0
  3  2  1  0
  4  3  1  0
  4  5  1  0
  5  7  1  0
  5  6  1  6
  7 14  1  0
  8  7  2  0
 10  9  1  0
 11 10  1  0
 13 12  1  1
 12 11  1  0
 14 13  1  0
 15 17  1  0
 15 13  1  0
 16 15  2  0
 18 17  1  0
 18 24  1  0
 18 19  1  6
 20 19  1  0
 21 20  1  0
 22 21  1  0
 23 22  1  0
 24 25  1  0
 26 24  2  0
M  END
$$$$
