MMK.pdb
     RDKit          3D

 26 25  0  0  1  0  0  0  0  0999 V2000
   25.5322  -21.0991  -19.1523 C   0  0  0  0  0  0  0  0  0  0  0  0
   27.2780  -20.6130  -19.1633 S   0  0  0  0  0  0  0  0  0  0  0  0
   28.2706  -21.6650  -18.0880 C   0  0  0  0  0  0  0  0  0  0  0  0
   27.3969  -22.1340  -16.9466 C   0  0  0  0  0  0  0  0  0  0  0  0
   27.1194  -20.9877  -15.9734 C   0  0  2  0  0  0  0  0  0  0  0  0
   28.4358  -20.6780  -15.3964 N   0  0  0  0  0  0  0  0  0  0  0  0
   26.2557  -21.4436  -14.8627 C   0  0  0  0  0  0  0  0  0  0  0  0
   25.3016  -22.2137  -15.0691 O   0  0  0  0  0  0  0  0  0  0  0  0
   27.3476  -20.4817   -8.2352 C   0  0  0  0  0  0  0  0  0  0  0  0
   25.5388  -20.5945   -8.3549 S   0  0  0  0  0  0  0  0  0  0  0  0
   24.9841  -21.0463   -9.9956 C   0  0  0  0  0  0  0  0  0  0  0  0
   25.9642  -20.8452  -11.0864 C   0  0  0  0  0  0  0  0  0  0  0  0
   25.5173  -21.1836  -12.4690 C   0  0  2  0  0  0  0  0  0  0  0  0
   26.4829  -21.0172  -13.5019 N   0  0  0  0  0  0  0  0  0  0  0  0
   24.2069  -20.5316  -12.8035 C   0  0  0  0  0  0  0  0  0  0  0  0
   24.1123  -19.2826  -12.9267 O   0  0  0  0  0  0  0  0  0  0  0  0
   23.0154  -21.2756  -12.9979 N   0  0  0  0  0  0  0  0  0  0  0  0
   21.8004  -20.6934  -13.5668 C   0  0  1  0  0  0  0  0  0  0  0  0
   21.6253  -21.0797  -14.9897 C   0  0  0  0  0  0  0  0  0  0  0  0
   20.3219  -20.5648  -15.5313 C   0  0  0  0  0  0  0  0  0  0  0  0
   20.5528  -19.1742  -16.1614 C   0  0  0  0  0  0  0  0  0  0  0  0
   19.2183  -18.6946  -16.6880 C   0  0  0  0  0  0  0  0  0  0  0  0
   19.3307  -17.3984  -17.2980 N   0  0  0  0  0  0  0  0  0  0  0  0
   20.6634  -21.1773  -12.7582 C   0  0  0  0  0  0  0  0  0  0  0  0
   19.4693  -20.4252  -12.7635 O   0  0  0  0  0  0  0  0  0  0  0  0
   20.6347  -22.1999  -12.0526 O   0  0  0  0  0  0  0  0  0  0  0  0
  2  1  1  0
  3  2  1  0
  4  3  1  0
  4  5  1  0
  5  7  1  0
  5  6  1  1
  7 14  1  0
  8  7  2  0
 10  9  1  0
 11 10  1  0
 13 12  1  1
 12 11  1  0
 14 13  1  0
 15 17  1  0
 15 13  1  0
 16 15  2  0
 18 17  1  0
 18 24  1  0
 18 19  1  6
 20 19  1  0
 21 20  1  0
 22 21  1  0
 23 22  1  0
 24 25  1  0
 26 24  2  0
M  END
$$$$
