MMK.pdb
     RDKit          3D

 26 25  0  0  1  0  0  0  0  0999 V2000
   17.0980  -11.3851  -21.5680 C   0  0  0  0  0  0  0  0  0  0  0  0
   17.1687  -13.0928  -20.9655 S   0  0  0  0  0  0  0  0  0  0  0  0
   18.8404  -13.5613  -20.4816 C   0  0  0  0  0  0  0  0  0  0  0  0
   19.2512  -12.7031  -19.3064 C   0  0  0  0  0  0  0  0  0  0  0  0
   20.7132  -12.9573  -18.9377 C   0  0  2  0  0  0  0  0  0  0  0  0
   20.7269  -14.3457  -18.4541 N   0  0  0  0  0  0  0  0  0  0  0  0
   21.1224  -12.0995  -17.8044 C   0  0  0  0  0  0  0  0  0  0  0  0
   20.5807  -12.2098  -16.6907 O   0  0  0  0  0  0  0  0  0  0  0  0
   26.9142  -11.2586  -15.2152 C   0  0  0  0  0  0  0  0  0  0  0  0
   26.2409   -9.5840  -15.0121 S   0  0  0  0  0  0  0  0  0  0  0  0
   24.4948   -9.4928  -15.3946 C   0  0  0  0  0  0  0  0  0  0  0  0
   24.0261  -10.3761  -16.4859 C   0  0  0  0  0  0  0  0  0  0  0  0
   22.5864  -10.2784  -16.8648 C   0  0  2  0  0  0  0  0  0  0  0  0
   22.1609  -11.1058  -17.9426 N   0  0  0  0  0  0  0  0  0  0  0  0
   22.1538   -8.8510  -17.0370 C   0  0  0  0  0  0  0  0  0  0  0  0
   22.5771   -8.1519  -17.9943 O   0  0  0  0  0  0  0  0  0  0  0  0
   21.2548   -8.2161  -16.1429 N   0  0  0  0  0  0  0  0  0  0  0  0
   20.8843   -6.8061  -16.2584 C   0  0  1  0  0  0  0  0  0  0  0  0
   19.4260   -6.6076  -16.0620 C   0  0  0  0  0  0  0  0  0  0  0  0
   19.0691   -5.1490  -16.1124 C   0  0  0  0  0  0  0  0  0  0  0  0
   17.5624   -4.9889  -15.8157 C   0  0  0  0  0  0  0  0  0  0  0  0
   17.2683   -3.5056  -15.7813 C   0  0  0  0  0  0  0  0  0  0  0  0
   15.9014   -3.2503  -15.4190 N   0  0  0  0  0  0  0  0  0  0  0  0
   21.6473   -6.0679  -15.2319 C   0  0  0  0  0  0  0  0  0  0  0  0
   21.9570   -6.7279  -14.0236 O   0  0  0  0  0  0  0  0  0  0  0  0
   22.0606   -4.8985  -15.3103 O   0  0  0  0  0  0  0  0  0  0  0  0
  2  1  1  0
  3  2  1  0
  4  3  1  0
  4  5  1  0
  5  7  1  0
  5  6  1  1
  7 14  1  0
  8  7  2  0
 10  9  1  0
 11 10  1  0
 13 12  1  6
 12 11  1  0
 14 13  1  0
 15 17  1  0
 15 13  1  0
 16 15  2  0
 18 17  1  0
 18 24  1  0
 18 19  1  1
 20 19  1  0
 21 20  1  0
 22 21  1  0
 23 22  1  0
 24 25  1  0
 26 24  2  0
M  END
$$$$
