MMK.pdb
     RDKit          3D

 26 25  0  0  1  0  0  0  0  0999 V2000
   15.5676  -24.0556    4.0364 C   0  0  0  0  0  0  0  0  0  0  0  0
   16.3155  -22.5535    3.3521 S   0  0  0  0  0  0  0  0  0  0  0  0
   15.8055  -21.0814    4.2582 C   0  0  0  0  0  0  0  0  0  0  0  0
   16.6683  -19.9247    3.8065 C   0  0  0  0  0  0  0  0  0  0  0  0
   16.2205  -18.6245    4.4750 C   0  0  2  0  0  0  0  0  0  0  0  0
   15.2314  -18.0623    3.5436 N   0  0  0  0  0  0  0  0  0  0  0  0
   17.3418  -17.6627    4.5491 C   0  0  0  0  0  0  0  0  0  0  0  0
   17.6232  -16.9328    3.5826 O   0  0  0  0  0  0  0  0  0  0  0  0
   20.1252  -11.0456    5.5535 C   0  0  0  0  0  0  0  0  0  0  0  0
   18.8474  -12.3345    5.4842 S   0  0  0  0  0  0  0  0  0  0  0  0
   19.4921  -13.9637    5.8498 C   0  0  0  0  0  0  0  0  0  0  0  0
   18.5498  -15.0888    5.6575 C   0  0  0  0  0  0  0  0  0  0  0  0
   19.0675  -16.4604    5.9343 C   0  0  2  0  0  0  0  0  0  0  0  0
   18.1503  -17.5316    5.7382 N   0  0  0  0  0  0  0  0  0  0  0  0
   19.7547  -16.5352    7.2671 C   0  0  0  0  0  0  0  0  0  0  0  0
   20.7190  -15.7765    7.5475 O   0  0  0  0  0  0  0  0  0  0  0  0
   19.3620  -17.4529    8.2743 N   0  0  0  0  0  0  0  0  0  0  0  0
   20.0896  -17.6083    9.5334 C   0  0  1  0  0  0  0  0  0  0  0  0
   19.1628  -17.7497   10.6848 C   0  0  0  0  0  0  0  0  0  0  0  0
   18.4243  -16.4669   10.9426 C   0  0  0  0  0  0  0  0  0  0  0  0
   17.4996  -16.6553   12.1646 C   0  0  0  0  0  0  0  0  0  0  0  0
   16.7207  -15.3703   12.3387 C   0  0  0  0  0  0  0  0  0  0  0  0
   15.8660  -15.4275   13.4924 N   0  0  0  0  0  0  0  0  0  0  0  0
   20.9366  -18.8110    9.4035 C   0  0  0  0  0  0  0  0  0  0  0  0
   20.8238  -19.5864    8.2298 O   0  0  0  0  0  0  0  0  0  0  0  0
   21.7615  -19.2325   10.2319 O   0  0  0  0  0  0  0  0  0  0  0  0
  2  1  1  0
  3  2  1  0
  4  3  1  0
  4  5  1  0
  5  7  1  0
  5  6  1  6
  7 14  1  0
  8  7  2  0
 10  9  1  0
 11 10  1  0
 13 12  1  1
 12 11  1  0
 14 13  1  0
 15 17  1  0
 15 13  1  0
 16 15  2  0
 18 17  1  0
 18 24  1  0
 18 19  1  1
 20 19  1  0
 21 20  1  0
 22 21  1  0
 23 22  1  0
 24 25  1  0
 26 24  2  0
M  END
$$$$
