SMC.pdb
     RDKit          3D

 21 20  0  0  1  0  0  0  0  0999 V2000
    9.8616  -18.2524   20.8643 O   0  0  0  0  0  0  0  0  0  0  0  0
    8.6421  -17.6009   20.6655 C   0  0  0  0  0  0  0  0  0  0  0  0
    8.8550  -16.0933   20.6200 C   0  0  2  0  0  0  0  0  0  0  0  0
    9.9421  -15.7828   19.7424 N   0  0  0  0  0  0  0  0  0  0  0  0
    9.1004  -15.6388   22.0170 C   0  0  0  0  0  0  0  0  0  0  0  0
   10.2591  -15.2477   22.3703 O   0  0  0  0  0  0  0  0  0  0  0  0
    6.8298  -11.1075   26.8908 C   0  0  0  0  0  0  0  0  0  0  0  0
    7.1017  -12.8873   26.6817 S   0  0  0  0  0  0  0  0  0  0  0  0
    6.6488  -13.4002   24.9867 C   0  0  0  0  0  0  0  0  0  0  0  0
    6.9313  -14.8714   24.8868 C   0  0  0  0  0  0  0  0  0  0  0  0
    8.3063  -15.1686   24.3889 C   0  0  2  0  0  0  0  0  0  0  0  0
    8.0950  -15.6185   22.9889 N   0  0  0  0  0  0  0  0  0  0  0  0
    9.1054  -16.1321   25.1205 C   0  0  0  0  0  0  0  0  0  0  0  0
    8.6928  -17.3458   25.1113 O   0  0  0  0  0  0  0  0  0  0  0  0
   10.2926  -15.9260   25.8499 N   0  0  0  0  0  0  0  0  0  0  0  0
   11.0882  -17.0006   26.4150 C   0  0  1  0  0  0  0  0  0  0  0  0
   12.5578  -16.6654   26.3021 C   0  0  0  0  0  0  0  0  0  0  0  0
   12.9018  -14.9797   26.8312 S   0  0  0  0  0  0  0  0  0  0  0  0
   10.7865  -17.2081   27.8547 C   0  0  0  0  0  0  0  0  0  0  0  0
   11.4959  -18.1949   28.5218 O   0  0  0  0  0  0  0  0  0  0  0  0
    9.9216  -16.5013   28.4052 O   0  0  0  0  0  0  0  0  0  0  0  0
  2  3  1  0
  2  1  1  0
  3  4  1  6
  3  5  1  0
  5 12  1  0
  5  6  2  0
  7  8  1  0
  8  9  1  0
  9 10  1  0
 11 10  1  1
 11 13  1  0
 12 11  1  0
 13 15  1  0
 13 14  2  0
 15 16  1  0
 16 19  1  0
 16 17  1  1
 18 17  1  0
 19 20  1  0
 21 19  2  0
M  END
$$$$
