SMC.pdb
     RDKit          3D

 21 20  0  0  1  0  0  0  0  0999 V2000
    8.5975  -18.1604   20.5074 O   0  0  0  0  0  0  0  0  0  0  0  0
    7.6602  -17.1250   20.4867 C   0  0  0  0  0  0  0  0  0  0  0  0
    8.3690  -15.7781   20.4257 C   0  0  2  0  0  0  0  0  0  0  0  0
    9.4482  -15.8394   19.4877 N   0  0  0  0  0  0  0  0  0  0  0  0
    8.8287  -15.4571   21.8056 C   0  0  0  0  0  0  0  0  0  0  0  0
   10.0580  -15.5715   22.1153 O   0  0  0  0  0  0  0  0  0  0  0  0
    6.7575  -10.7876   26.0919 C   0  0  0  0  0  0  0  0  0  0  0  0
    6.2974  -12.4165   26.7402 S   0  0  0  0  0  0  0  0  0  0  0  0
    7.5442  -13.6630   26.2580 C   0  0  0  0  0  0  0  0  0  0  0  0
    7.3159  -13.9683   24.8058 C   0  0  0  0  0  0  0  0  0  0  0  0
    8.3323  -14.9027   24.2395 C   0  0  2  0  0  0  0  0  0  0  0  0
    7.9547  -15.0240   22.8078 N   0  0  0  0  0  0  0  0  0  0  0  0
    8.4695  -16.2129   24.8449 C   0  0  0  0  0  0  0  0  0  0  0  0
    8.0093  -17.2055   24.1768 O   0  0  0  0  0  0  0  0  0  0  0  0
    9.0486  -16.5611   26.0807 N   0  0  0  0  0  0  0  0  0  0  0  0
   10.1001  -17.5510   26.2278 C   0  0  1  0  0  0  0  0  0  0  0  0
   11.3012  -17.1506   25.4021 C   0  0  0  0  0  0  0  0  0  0  0  0
   12.2027  -18.5847   24.7936 S   0  0  0  0  0  0  0  0  0  0  0  0
   10.5477  -17.6705   27.6392 C   0  0  0  0  0  0  0  0  0  0  0  0
   10.6048  -18.9426   28.1873 O   0  0  0  0  0  0  0  0  0  0  0  0
   10.8516  -16.6422   28.2724 O   0  0  0  0  0  0  0  0  0  0  0  0
  2  3  1  0
  2  1  1  0
  3  4  1  6
  3  5  1  0
  5 12  1  0
  5  6  2  0
  7  8  1  0
  8  9  1  0
  9 10  1  0
 11 10  1  1
 11 13  1  0
 12 11  1  0
 13 15  1  0
 13 14  2  0
 15 16  1  0
 16 19  1  0
 16 17  1  6
 18 17  1  0
 19 20  1  0
 21 19  2  0
M  END
$$$$
