SMC.pdb
     RDKit          3D

 21 20  0  0  1  0  0  0  0  0999 V2000
    8.1792  -14.5693   18.5572 O   0  0  0  0  0  0  0  0  0  0  0  0
    8.5128  -14.3401   19.8941 C   0  0  0  0  0  0  0  0  0  0  0  0
    8.3349  -15.6174   20.7047 C   0  0  2  0  0  0  0  0  0  0  0  0
    6.9895  -16.0887   20.5791 N   0  0  0  0  0  0  0  0  0  0  0  0
    8.7007  -15.3017   22.1136 C   0  0  0  0  0  0  0  0  0  0  0  0
    9.8651  -14.8701   22.3929 O   0  0  0  0  0  0  0  0  0  0  0  0
    7.9683  -11.4834   26.7085 C   0  0  0  0  0  0  0  0  0  0  0  0
    6.4076  -12.3421   26.3736 S   0  0  0  0  0  0  0  0  0  0  0  0
    6.5303  -13.2896   24.8152 C   0  0  0  0  0  0  0  0  0  0  0  0
    6.8640  -14.7044   25.1908 C   0  0  0  0  0  0  0  0  0  0  0  0
    8.1472  -15.1787   24.5948 C   0  0  2  0  0  0  0  0  0  0  0  0
    7.8056  -15.4595   23.1765 N   0  0  0  0  0  0  0  0  0  0  0  0
    8.8007  -16.3230   25.1994 C   0  0  0  0  0  0  0  0  0  0  0  0
    8.1279  -17.4133   25.2409 O   0  0  0  0  0  0  0  0  0  0  0  0
   10.0920  -16.4139   25.7547 N   0  0  0  0  0  0  0  0  0  0  0  0
   10.6597  -17.6434   26.2776 C   0  0  1  0  0  0  0  0  0  0  0  0
   12.1222  -17.7322   25.9061 C   0  0  0  0  0  0  0  0  0  0  0  0
   12.3805  -17.4840   24.1422 S   0  0  0  0  0  0  0  0  0  0  0  0
   10.5706  -17.7021   27.7593 C   0  0  0  0  0  0  0  0  0  0  0  0
   11.0878  -18.8244   28.3879 O   0  0  0  0  0  0  0  0  0  0  0  0
   10.0436  -16.7580   28.3771 O   0  0  0  0  0  0  0  0  0  0  0  0
  2  3  1  0
  2  1  1  0
  3  4  1  1
  3  5  1  0
  5 12  1  0
  5  6  2  0
  7  8  1  0
  8  9  1  0
  9 10  1  0
 11 10  1  1
 11 13  1  0
 12 11  1  0
 13 15  1  0
 13 14  2  0
 15 16  1  0
 16 19  1  0
 16 17  1  1
 18 17  1  0
 19 20  1  0
 21 19  2  0
M  END
$$$$
