SMC.pdb
     RDKit          3D

 21 20  0  0  1  0  0  0  0  0999 V2000
    8.0853  -18.4178   20.3833 O   0  0  0  0  0  0  0  0  0  0  0  0
    6.9267  -17.6399   20.3236 C   0  0  0  0  0  0  0  0  0  0  0  0
    7.2786  -16.2031   19.9602 C   0  0  2  0  0  0  0  0  0  0  0  0
    7.9984  -16.1774   18.7235 N   0  0  0  0  0  0  0  0  0  0  0  0
    8.0670  -15.6409   21.0921 C   0  0  0  0  0  0  0  0  0  0  0  0
    9.3101  -15.4053   20.9536 O   0  0  0  0  0  0  0  0  0  0  0  0
    6.9438  -11.9070   27.9470 C   0  0  0  0  0  0  0  0  0  0  0  0
    6.3912  -12.6167   26.3734 S   0  0  0  0  0  0  0  0  0  0  0  0
    7.7790  -13.4689   25.5433 C   0  0  0  0  0  0  0  0  0  0  0  0
    7.2430  -14.0193   24.2533 C   0  0  0  0  0  0  0  0  0  0  0  0
    8.2567  -14.8021   23.4875 C   0  0  2  0  0  0  0  0  0  0  0  0
    7.4959  -15.3500   22.3352 N   0  0  0  0  0  0  0  0  0  0  0  0
    8.9697  -15.8587   24.1783 C   0  0  0  0  0  0  0  0  0  0  0  0
    8.2873  -16.8934   24.5058 O   0  0  0  0  0  0  0  0  0  0  0  0
   10.3283  -15.9169   24.5455 N   0  0  0  0  0  0  0  0  0  0  0  0
   10.9555  -17.0877   25.1311 C   0  0  1  0  0  0  0  0  0  0  0  0
   12.4392  -17.0738   24.8423 C   0  0  0  0  0  0  0  0  0  0  0  0
   13.1209  -15.4100   24.9240 S   0  0  0  0  0  0  0  0  0  0  0  0
   10.7878  -17.1195   26.6069 C   0  0  0  0  0  0  0  0  0  0  0  0
   11.2698  -18.2303   27.2821 O   0  0  0  0  0  0  0  0  0  0  0  0
   10.2297  -16.1644   27.1786 O   0  0  0  0  0  0  0  0  0  0  0  0
  2  3  1  0
  2  1  1  0
  3  4  1  6
  3  5  1  0
  5 12  1  0
  5  6  2  0
  7  8  1  0
  8  9  1  0
  9 10  1  0
 11 10  1  1
 11 13  1  0
 12 11  1  0
 13 15  1  0
 13 14  2  0
 15 16  1  0
 16 19  1  0
 16 17  1  1
 18 17  1  0
 19 20  1  0
 21 19  2  0
M  END
$$$$
