SMC.pdb
     RDKit          3D

 21 20  0  0  1  0  0  0  0  0999 V2000
   10.4070  -18.4110   21.9891 O   0  0  0  0  0  0  0  0  0  0  0  0
    9.2300  -17.9412   21.4019 C   0  0  0  0  0  0  0  0  0  0  0  0
    9.3464  -16.4496   21.1161 C   0  0  2  0  0  0  0  0  0  0  0  0
   10.4661  -16.2054   20.2589 N   0  0  0  0  0  0  0  0  0  0  0  0
    9.4692  -15.7559   22.4284 C   0  0  0  0  0  0  0  0  0  0  0  0
   10.5908  -15.2846   22.8026 O   0  0  0  0  0  0  0  0  0  0  0  0
    6.5343  -11.0369   25.7078 C   0  0  0  0  0  0  0  0  0  0  0  0
    5.6830  -12.5892   26.0966 S   0  0  0  0  0  0  0  0  0  0  0  0
    6.8962  -13.9421   26.2938 C   0  0  0  0  0  0  0  0  0  0  0  0
    7.0492  -14.5895   24.9477 C   0  0  0  0  0  0  0  0  0  0  0  0
    8.4700  -14.8876   24.6022 C   0  0  2  0  0  0  0  0  0  0  0  0
    8.3850  -15.5907   23.2963 N   0  0  0  0  0  0  0  0  0  0  0  0
    9.2569  -15.6563   25.5465 C   0  0  0  0  0  0  0  0  0  0  0  0
    9.3408  -16.9174   25.3321 O   0  0  0  0  0  0  0  0  0  0  0  0
    9.9586  -15.2109   26.6837 N   0  0  0  0  0  0  0  0  0  0  0  0
   10.8415  -16.0552   27.4679 C   0  0  1  0  0  0  0  0  0  0  0  0
   11.4185  -15.2645   28.6198 C   0  0  0  0  0  0  0  0  0  0  0  0
   10.4522  -13.7861   28.9667 S   0  0  0  0  0  0  0  0  0  0  0  0
   10.1197  -17.2197   28.0424 C   0  0  0  0  0  0  0  0  0  0  0  0
   10.8623  -18.1392   28.7670 O   0  0  0  0  0  0  0  0  0  0  0  0
    8.8932  -17.3295   27.8574 O   0  0  0  0  0  0  0  0  0  0  0  0
  2  3  1  0
  2  1  1  0
  3  4  1  6
  3  5  1  0
  5 12  1  0
  5  6  2  0
  7  8  1  0
  8  9  1  0
  9 10  1  0
 11 10  1  1
 11 13  1  0
 12 11  1  0
 13 15  1  0
 13 14  2  0
 15 16  1  0
 16 19  1  0
 16 17  1  1
 18 17  1  0
 19 20  1  0
 21 19  2  0
M  END
$$$$
