SMC.pdb
     RDKit          3D

 21 20  0  0  1  0  0  0  0  0999 V2000
    7.8450  -17.7660   20.9138 O   0  0  0  0  0  0  0  0  0  0  0  0
    6.9504  -16.7312   20.6310 C   0  0  0  0  0  0  0  0  0  0  0  0
    7.7058  -15.4213   20.4478 C   0  0  2  0  0  0  0  0  0  0  0  0
    8.5602  -15.5094   19.3032 N   0  0  0  0  0  0  0  0  0  0  0  0
    8.4606  -15.1662   21.7062 C   0  0  0  0  0  0  0  0  0  0  0  0
    9.7012  -15.4418   21.7774 O   0  0  0  0  0  0  0  0  0  0  0  0
    5.4159  -12.3872   26.9223 C   0  0  0  0  0  0  0  0  0  0  0  0
    7.1364  -11.8173   26.9259 S   0  0  0  0  0  0  0  0  0  0  0  0
    8.2306  -13.1087   26.2359 C   0  0  0  0  0  0  0  0  0  0  0  0
    7.7344  -13.4051   24.8502 C   0  0  0  0  0  0  0  0  0  0  0  0
    8.5688  -14.4151   24.1356 C   0  0  2  0  0  0  0  0  0  0  0  0
    7.8599  -14.6238   22.8469 N   0  0  0  0  0  0  0  0  0  0  0  0
    8.8199  -15.6831   24.7923 C   0  0  0  0  0  0  0  0  0  0  0  0
    7.8476  -16.5180   24.8202 O   0  0  0  0  0  0  0  0  0  0  0  0
    9.9989  -16.1411   25.4120 N   0  0  0  0  0  0  0  0  0  0  0  0
   10.1082  -17.4193   26.0912 C   0  0  1  0  0  0  0  0  0  0  0  0
   11.3092  -18.1758   25.5714 C   0  0  0  0  0  0  0  0  0  0  0  0
   11.2243  -18.4234   23.7906 S   0  0  0  0  0  0  0  0  0  0  0  0
   10.2872  -17.2487   27.5561 C   0  0  0  0  0  0  0  0  0  0  0  0
   10.4244  -18.3960   28.3222 O   0  0  0  0  0  0  0  0  0  0  0  0
   10.3078  -16.1011   28.0390 O   0  0  0  0  0  0  0  0  0  0  0  0
  2  3  1  0
  2  1  1  0
  3  4  1  6
  3  5  1  0
  5 12  1  0
  5  6  2  0
  7  8  1  0
  8  9  1  0
  9 10  1  0
 11 10  1  1
 11 13  1  0
 12 11  1  0
 13 15  1  0
 13 14  2  0
 15 16  1  0
 16 19  1  0
 16 17  1  6
 18 17  1  0
 19 20  1  0
 21 19  2  0
M  END
$$$$
