SMC.pdb
     RDKit          3D

 21 20  0  0  1  0  0  0  0  0999 V2000
    8.5785  -18.4782   22.4043 O   0  0  0  0  0  0  0  0  0  0  0  0
    8.1150  -18.0553   21.1564 C   0  0  0  0  0  0  0  0  0  0  0  0
    8.8327  -16.7793   20.7359 C   0  0  2  0  0  0  0  0  0  0  0  0
   10.0267  -17.1078   20.0185 N   0  0  0  0  0  0  0  0  0  0  0  0
    9.1065  -15.9974   21.9737 C   0  0  0  0  0  0  0  0  0  0  0  0
   10.2634  -16.0197   22.5041 O   0  0  0  0  0  0  0  0  0  0  0  0
    6.3131  -11.7400   27.6404 C   0  0  0  0  0  0  0  0  0  0  0  0
    6.3102  -12.9853   26.3234 S   0  0  0  0  0  0  0  0  0  0  0  0
    7.2916  -12.3983   24.8975 C   0  0  0  0  0  0  0  0  0  0  0  0
    7.1896  -13.4538   23.8345 C   0  0  0  0  0  0  0  0  0  0  0  0
    8.4040  -14.3171   23.7516 C   0  0  2  0  0  0  0  0  0  0  0  0
    8.1304  -15.2172   22.6019 N   0  0  0  0  0  0  0  0  0  0  0  0
    8.7795  -15.0840   24.9233 C   0  0  0  0  0  0  0  0  0  0  0  0
    9.2248  -14.4206   25.9258 O   0  0  0  0  0  0  0  0  0  0  0  0
    8.7220  -16.4767   25.1257 N   0  0  0  0  0  0  0  0  0  0  0  0
    9.1214  -17.1291   26.3594 C   0  0  1  0  0  0  0  0  0  0  0  0
    8.3317  -18.4045   26.5447 C   0  0  0  0  0  0  0  0  0  0  0  0
    6.5626  -18.1285   26.3607 S   0  0  0  0  0  0  0  0  0  0  0  0
   10.5616  -17.4931   26.3462 C   0  0  0  0  0  0  0  0  0  0  0  0
   11.0824  -18.0870   27.4856 O   0  0  0  0  0  0  0  0  0  0  0  0
   11.2417  -17.2570   25.3301 O   0  0  0  0  0  0  0  0  0  0  0  0
  2  3  1  0
  2  1  1  0
  3  4  1  1
  3  5  1  0
  5 12  1  0
  5  6  2  0
  7  8  1  0
  8  9  1  0
  9 10  1  0
 11 10  1  1
 11 13  1  0
 12 11  1  0
 13 15  1  0
 13 14  2  0
 15 16  1  0
 16 19  1  0
 16 17  1  6
 18 17  1  0
 19 20  1  0
 21 19  2  0
M  END
$$$$
