AQA.pdb
     RDKit          3D

 20 19  0  0  1  0  0  0  0  0999 V2000
    8.2251  -12.1172   19.2141 C   0  0  0  0  0  0  0  0  0  0  0  0
    8.4655  -13.4651   18.5608 C   0  0  2  0  0  0  0  0  0  0  0  0
    7.5840  -13.7245   17.4676 N   0  0  0  0  0  0  0  0  0  0  0  0
    8.3923  -14.4929   19.6260 C   0  0  0  0  0  0  0  0  0  0  0  0
    7.2478  -15.0115   19.8234 O   0  0  0  0  0  0  0  0  0  0  0  0
   11.6110  -20.3844   21.9930 N   0  0  0  0  0  0  0  0  0  0  0  0
   11.8094  -18.9723   21.9964 C   0  0  0  0  0  0  0  0  0  0  0  0
   12.9845  -18.5446   21.8928 O   0  0  0  0  0  0  0  0  0  0  0  0
   10.6252  -18.0918   22.1209 C   0  0  0  0  0  0  0  0  0  0  0  0
   10.6511  -16.9096   21.2291 C   0  0  0  0  0  0  0  0  0  0  0  0
    9.4385  -15.9967   21.3471 C   0  0  2  0  0  0  0  0  0  0  0  0
    9.5153  -14.8990   20.4002 N   0  0  0  0  0  0  0  0  0  0  0  0
    9.4896  -15.4475   22.7223 C   0  0  0  0  0  0  0  0  0  0  0  0
   10.3807  -14.6114   22.9913 O   0  0  0  0  0  0  0  0  0  0  0  0
    7.4237  -14.7113   25.5240 C   0  0  0  0  0  0  0  0  0  0  0  0
    8.7544  -15.2573   25.0708 C   0  0  2  0  0  0  0  0  0  0  0  0
    8.5862  -15.8169   23.7472 N   0  0  0  0  0  0  0  0  0  0  0  0
    9.2830  -16.2821   26.0057 C   0  0  0  0  0  0  0  0  0  0  0  0
    9.6690  -15.9804   27.2900 O   0  0  0  0  0  0  0  0  0  0  0  0
    9.3811  -17.4712   25.6071 O   0  0  0  0  0  0  0  0  0  0  0  0
  2  1  1  1
  2  3  1  0
  4  5  2  0
  4  2  1  0
  6  7  1  0
  7  9  1  0
  7  8  2  0
  9 10  1  0
 11 10  1  6
 11 12  1  0
 12  4  1  0
 13 11  1  0
 14 13  2  0
 16 15  1  1
 16 18  1  0
 16 17  1  0
 17 13  1  0
 18 19  1  0
 20 18  2  0
M  END
$$$$
