AQA.pdb
     RDKit          3D

 20 19  0  0  1  0  0  0  0  0999 V2000
    8.1479  -12.2226   19.5701 C   0  0  0  0  0  0  0  0  0  0  0  0
    8.2549  -13.7256   19.3944 C   0  0  2  0  0  0  0  0  0  0  0  0
    7.4494  -14.2248   18.3261 N   0  0  0  0  0  0  0  0  0  0  0  0
    7.9406  -14.3480   20.7021 C   0  0  0  0  0  0  0  0  0  0  0  0
    6.7196  -14.6436   20.9005 O   0  0  0  0  0  0  0  0  0  0  0  0
   10.3664  -18.9193   25.9666 N   0  0  0  0  0  0  0  0  0  0  0  0
   10.4832  -18.1453   24.7747 C   0  0  0  0  0  0  0  0  0  0  0  0
   11.4656  -18.3657   24.0259 O   0  0  0  0  0  0  0  0  0  0  0  0
    9.4448  -17.1296   24.4861 C   0  0  0  0  0  0  0  0  0  0  0  0
    9.6315  -16.4187   23.2003 C   0  0  0  0  0  0  0  0  0  0  0  0
    8.6022  -15.3332   22.9179 C   0  0  2  0  0  0  0  0  0  0  0  0
    8.9215  -14.6130   21.6986 N   0  0  0  0  0  0  0  0  0  0  0  0
    8.6898  -14.3977   24.0637 C   0  0  0  0  0  0  0  0  0  0  0  0
    9.7379  -13.7280   24.2000 O   0  0  0  0  0  0  0  0  0  0  0  0
    6.4326  -12.6209   26.3074 C   0  0  0  0  0  0  0  0  0  0  0  0
    7.7958  -13.2028   26.0296 C   0  0  2  0  0  0  0  0  0  0  0  0
    7.6537  -14.2208   25.0113 N   0  0  0  0  0  0  0  0  0  0  0  0
    8.4174  -13.7722   27.2516 C   0  0  0  0  0  0  0  0  0  0  0  0
    8.8897  -12.9850   28.2747 O   0  0  0  0  0  0  0  0  0  0  0  0
    8.5153  -15.0222   27.3540 O   0  0  0  0  0  0  0  0  0  0  0  0
  2  1  1  1
  2  3  1  0
  4  5  2  0
  4  2  1  0
  6  7  1  0
  7  9  1  0
  7  8  2  0
  9 10  1  0
 11 10  1  1
 11 12  1  0
 12  4  1  0
 13 11  1  0
 14 13  2  0
 16 15  1  1
 16 18  1  0
 16 17  1  0
 17 13  1  0
 18 19  1  0
 20 18  2  0
M  END
$$$$
