AQA.pdb
     RDKit          3D

 20 19  0  0  1  0  0  0  0  0999 V2000
    8.0812  -12.2991   19.7529 C   0  0  0  0  0  0  0  0  0  0  0  0
    8.1860  -13.8085   19.6426 C   0  0  2  0  0  0  0  0  0  0  0  0
    7.4286  -14.3461   18.5579 N   0  0  0  0  0  0  0  0  0  0  0  0
    7.8057  -14.3762   20.9577 C   0  0  0  0  0  0  0  0  0  0  0  0
    6.5755  -14.6624   21.1073 O   0  0  0  0  0  0  0  0  0  0  0  0
   11.0379  -18.4626   24.2528 N   0  0  0  0  0  0  0  0  0  0  0  0
   10.0037  -18.1650   25.1885 C   0  0  0  0  0  0  0  0  0  0  0  0
    9.9419  -18.8559   26.2341 O   0  0  0  0  0  0  0  0  0  0  0  0
    9.0642  -17.0631   24.8780 C   0  0  0  0  0  0  0  0  0  0  0  0
    9.3546  -16.3571   23.6087 C   0  0  0  0  0  0  0  0  0  0  0  0
    8.3542  -15.2697   23.2422 C   0  0  2  0  0  0  0  0  0  0  0  0
    8.7355  -14.6006   22.0115 N   0  0  0  0  0  0  0  0  0  0  0  0
    8.4071  -14.2926   24.3548 C   0  0  0  0  0  0  0  0  0  0  0  0
    9.4688  -13.6541   24.5297 O   0  0  0  0  0  0  0  0  0  0  0  0
    6.0567  -12.4539   26.4958 C   0  0  0  0  0  0  0  0  0  0  0  0
    7.4388  -12.9862   26.2116 C   0  0  2  0  0  0  0  0  0  0  0  0
    7.3231  -14.0426   25.2297 N   0  0  0  0  0  0  0  0  0  0  0  0
    8.1054  -13.4877   27.4395 C   0  0  0  0  0  0  0  0  0  0  0  0
    8.5758  -12.6468   28.4198 O   0  0  0  0  0  0  0  0  0  0  0  0
    8.2446  -14.7291   27.5880 O   0  0  0  0  0  0  0  0  0  0  0  0
  2  1  1  1
  2  3  1  0
  4  5  2  0
  4  2  1  0
  6  7  1  0
  7  9  1  0
  7  8  2  0
  9 10  1  0
 11 10  1  1
 11 12  1  0
 12  4  1  0
 13 11  1  0
 14 13  2  0
 16 15  1  1
 16 18  1  0
 16 17  1  0
 17 13  1  0
 18 19  1  0
 20 18  2  0
M  END
$$$$
