AQA.pdb
     RDKit          3D

 20 19  0  0  1  0  0  0  0  0999 V2000
    7.8855  -12.3340   20.0080 C   0  0  0  0  0  0  0  0  0  0  0  0
    8.1999  -13.5003   19.0902 C   0  0  2  0  0  0  0  0  0  0  0  0
    7.2056  -13.7090   18.0867 N   0  0  0  0  0  0  0  0  0  0  0  0
    8.4239  -14.6894   19.9459 C   0  0  0  0  0  0  0  0  0  0  0  0
    7.4452  -15.4952   20.0490 O   0  0  0  0  0  0  0  0  0  0  0  0
   11.5021  -18.7476   18.9970 N   0  0  0  0  0  0  0  0  0  0  0  0
   11.6717  -19.1424   20.3567 C   0  0  0  0  0  0  0  0  0  0  0  0
   11.8835  -20.3564   20.5932 O   0  0  0  0  0  0  0  0  0  0  0  0
   11.5897  -18.1047   21.4102 C   0  0  0  0  0  0  0  0  0  0  0  0
   11.2910  -16.7460   20.9022 C   0  0  0  0  0  0  0  0  0  0  0  0
    9.9139  -16.2153   21.2761 C   0  0  2  0  0  0  0  0  0  0  0  0
    9.6478  -14.9451   20.6256 N   0  0  0  0  0  0  0  0  0  0  0  0
    9.9568  -16.0031   22.7419 C   0  0  0  0  0  0  0  0  0  0  0  0
   10.8310  -15.2352   23.2018 O   0  0  0  0  0  0  0  0  0  0  0  0
    7.7652  -16.4817   25.6555 C   0  0  0  0  0  0  0  0  0  0  0  0
    9.1317  -16.2745   25.0522 C   0  0  2  0  0  0  0  0  0  0  0  0
    9.0636  -16.6212   23.6491 N   0  0  0  0  0  0  0  0  0  0  0  0
   10.1711  -17.0826   25.7380 C   0  0  0  0  0  0  0  0  0  0  0  0
   10.6315  -16.7779   26.9969 O   0  0  0  0  0  0  0  0  0  0  0  0
   10.6482  -18.0838   25.1443 O   0  0  0  0  0  0  0  0  0  0  0  0
  2  1  1  1
  2  3  1  0
  4  5  2  0
  4  2  1  0
  6  7  1  0
  7  9  1  0
  7  8  2  0
  9 10  1  0
 11 10  1  6
 11 12  1  0
 12  4  1  0
 13 11  1  0
 14 13  2  0
 16 15  1  1
 16 18  1  0
 16 17  1  0
 17 13  1  0
 18 19  1  0
 20 18  2  0
M  END
$$$$
