AQA.pdb
     RDKit          3D

 20 19  0  0  1  0  0  0  0  0999 V2000
    7.4034  -12.7402   19.4013 C   0  0  0  0  0  0  0  0  0  0  0  0
    8.7531  -13.3965   19.1799 C   0  0  2  0  0  0  0  0  0  0  0  0
    8.9689  -13.7937   17.8253 N   0  0  0  0  0  0  0  0  0  0  0  0
    8.8631  -14.5186   20.1417 C   0  0  0  0  0  0  0  0  0  0  0  0
    7.8440  -14.7286   20.8732 O   0  0  0  0  0  0  0  0  0  0  0  0
   13.2533  -19.6001   20.3773 N   0  0  0  0  0  0  0  0  0  0  0  0
   11.9376  -19.7346   20.9104 C   0  0  0  0  0  0  0  0  0  0  0  0
   11.3341  -20.8177   20.7173 O   0  0  0  0  0  0  0  0  0  0  0  0
   11.3577  -18.5960   21.6591 C   0  0  0  0  0  0  0  0  0  0  0  0
   11.3032  -17.3299   20.8925 C   0  0  0  0  0  0  0  0  0  0  0  0
   10.0643  -16.4833   21.1493 C   0  0  2  0  0  0  0  0  0  0  0  0
   10.0241  -15.3323   20.2655 N   0  0  0  0  0  0  0  0  0  0  0  0
   10.1923  -16.0094   22.5474 C   0  0  0  0  0  0  0  0  0  0  0  0
   10.9897  -15.0745   22.7831 O   0  0  0  0  0  0  0  0  0  0  0  0
    8.3853  -15.3305   25.3812 C   0  0  0  0  0  0  0  0  0  0  0  0
    9.6596  -16.0166   24.9574 C   0  0  2  0  0  0  0  0  0  0  0  0
    9.4623  -16.5563   23.6295 N   0  0  0  0  0  0  0  0  0  0  0  0
   10.0540  -17.0912   25.9026 C   0  0  0  0  0  0  0  0  0  0  0  0
   10.4459  -16.8308   27.1942 O   0  0  0  0  0  0  0  0  0  0  0  0
   10.0283  -18.2848   25.5061 O   0  0  0  0  0  0  0  0  0  0  0  0
  2  1  1  6
  2  3  1  0
  4  5  2  0
  4  2  1  0
  6  7  1  0
  7  9  1  0
  7  8  2  0
  9 10  1  0
 11 10  1  6
 11 12  1  0
 12  4  1  0
 13 11  1  0
 14 13  2  0
 16 15  1  1
 16 18  1  0
 16 17  1  0
 17 13  1  0
 18 19  1  0
 20 18  2  0
M  END
$$$$
