AQA.pdb
     RDKit          3D

 20 19  0  0  1  0  0  0  0  0999 V2000
    7.7679  -18.1336   20.8195 C   0  0  0  0  0  0  0  0  0  0  0  0
    8.0025  -16.6718   20.4887 C   0  0  2  0  0  0  0  0  0  0  0  0
    8.8079  -16.4816   19.3250 N   0  0  0  0  0  0  0  0  0  0  0  0
    8.5653  -16.0285   21.6994 C   0  0  0  0  0  0  0  0  0  0  0  0
    9.8318  -16.0616   21.8114 O   0  0  0  0  0  0  0  0  0  0  0  0
    5.4945  -12.4155   26.0401 N   0  0  0  0  0  0  0  0  0  0  0  0
    6.7929  -12.5548   26.6129 C   0  0  0  0  0  0  0  0  0  0  0  0
    7.0302  -11.9456   27.6840 O   0  0  0  0  0  0  0  0  0  0  0  0
    7.7855  -13.4060   25.9175 C   0  0  0  0  0  0  0  0  0  0  0  0
    7.3194  -13.9452   24.6192 C   0  0  0  0  0  0  0  0  0  0  0  0
    8.3509  -14.7752   23.8677 C   0  0  2  0  0  0  0  0  0  0  0  0
    7.7658  -15.4025   22.6965 N   0  0  0  0  0  0  0  0  0  0  0  0
    8.7745  -15.8321   24.8159 C   0  0  0  0  0  0  0  0  0  0  0  0
    7.9434  -16.7146   25.1259 O   0  0  0  0  0  0  0  0  0  0  0  0
   11.7802  -17.5141   25.8153 C   0  0  0  0  0  0  0  0  0  0  0  0
   10.4117  -17.0290   26.2226 C   0  0  2  0  0  0  0  0  0  0  0  0
   10.0667  -15.8976   25.3893 N   0  0  0  0  0  0  0  0  0  0  0  0
   10.3588  -16.6536   27.6579 C   0  0  0  0  0  0  0  0  0  0  0  0
   10.5775  -17.5612   28.6667 O   0  0  0  0  0  0  0  0  0  0  0  0
   10.1041  -15.4597   27.9617 O   0  0  0  0  0  0  0  0  0  0  0  0
  2  1  1  1
  2  3  1  0
  4  5  2  0
  4  2  1  0
  6  7  1  0
  7  9  1  0
  7  8  2  0
  9 10  1  0
 11 10  1  1
 11 12  1  0
 12  4  1  0
 13 11  1  0
 14 13  2  0
 16 15  1  6
 16 18  1  0
 16 17  1  0
 17 13  1  0
 18 19  1  0
 20 18  2  0
M  END
$$$$
