AQA.pdb
     RDKit          3D

 20 19  0  0  1  0  0  0  0  0999 V2000
    7.5373  -12.4969   19.4261 C   0  0  0  0  0  0  0  0  0  0  0  0
    8.1564  -13.2455   18.2609 C   0  0  2  0  0  0  0  0  0  0  0  0
    7.1869  -13.8070   17.3754 N   0  0  0  0  0  0  0  0  0  0  0  0
    9.0844  -14.2539   18.8252 C   0  0  0  0  0  0  0  0  0  0  0  0
    8.6377  -15.4423   18.9019 O   0  0  0  0  0  0  0  0  0  0  0  0
   15.4022  -13.8797   18.7798 N   0  0  0  0  0  0  0  0  0  0  0  0
   15.1887  -15.1640   19.3616 C   0  0  0  0  0  0  0  0  0  0  0  0
   16.1949  -15.8751   19.5992 O   0  0  0  0  0  0  0  0  0  0  0  0
   13.7995  -15.5868   19.6527 C   0  0  0  0  0  0  0  0  0  0  0  0
   12.7764  -14.5592   19.3512 C   0  0  0  0  0  0  0  0  0  0  0  0
   11.3444  -14.9797   19.6520 C   0  0  2  0  0  0  0  0  0  0  0  0
   10.4025  -13.9453   19.2643 N   0  0  0  0  0  0  0  0  0  0  0  0
   11.2847  -15.1554   21.1221 C   0  0  0  0  0  0  0  0  0  0  0  0
   11.4242  -14.1427   21.8437 O   0  0  0  0  0  0  0  0  0  0  0  0
    9.7207  -17.0493   23.6170 C   0  0  0  0  0  0  0  0  0  0  0  0
   11.0479  -16.4679   23.1989 C   0  0  2  0  0  0  0  0  0  0  0  0
   11.0785  -16.4050   21.7537 N   0  0  0  0  0  0  0  0  0  0  0  0
   12.1907  -17.2661   23.7094 C   0  0  0  0  0  0  0  0  0  0  0  0
   13.0782  -17.9022   22.8744 O   0  0  0  0  0  0  0  0  0  0  0  0
   12.3525  -17.3636   24.9531 O   0  0  0  0  0  0  0  0  0  0  0  0
  2  1  1  1
  2  3  1  0
  4  5  2  0
  4  2  1  0
  6  7  1  0
  7  9  1  0
  7  8  2  0
  9 10  1  0
 11 10  1  1
 11 12  1  0
 12  4  1  0
 13 11  1  0
 14 13  2  0
 16 15  1  6
 16 18  1  0
 16 17  1  0
 17 13  1  0
 18 19  1  0
 20 18  2  0
M  END
$$$$
