AQA.pdb
     RDKit          3D

 20 19  0  0  1  0  0  0  0  0999 V2000
    7.7087  -19.3912   16.6869 C   0  0  0  0  0  0  0  0  0  0  0  0
    7.8108  -19.4560   18.1992 C   0  0  2  0  0  0  0  0  0  0  0  0
    6.5593  -19.7165   18.8357 N   0  0  0  0  0  0  0  0  0  0  0  0
    8.4461  -18.1969   18.6546 C   0  0  0  0  0  0  0  0  0  0  0  0
    9.6052  -17.9566   18.1893 O   0  0  0  0  0  0  0  0  0  0  0  0
    9.3640  -11.6641   19.8137 N   0  0  0  0  0  0  0  0  0  0  0  0
    8.7593  -12.9239   19.5295 C   0  0  0  0  0  0  0  0  0  0  0  0
    8.8058  -13.3438   18.3480 O   0  0  0  0  0  0  0  0  0  0  0  0
    8.1132  -13.6645   20.6373 C   0  0  0  0  0  0  0  0  0  0  0  0
    7.5033  -14.9521   20.2325 C   0  0  0  0  0  0  0  0  0  0  0  0
    8.4953  -16.0872   20.0202 C   0  0  2  0  0  0  0  0  0  0  0  0
    7.8250  -17.2888   19.5574 N   0  0  0  0  0  0  0  0  0  0  0  0
    9.0851  -16.3512   21.3536 C   0  0  0  0  0  0  0  0  0  0  0  0
    8.3429  -16.8202   22.2450 O   0  0  0  0  0  0  0  0  0  0  0  0
   12.4400  -16.2986   22.9758 C   0  0  0  0  0  0  0  0  0  0  0  0
   10.9467  -16.5088   22.9666 C   0  0  2  0  0  0  0  0  0  0  0  0
   10.4411  -16.1019   21.6735 N   0  0  0  0  0  0  0  0  0  0  0  0
   10.2716  -15.7523   24.0509 C   0  0  0  0  0  0  0  0  0  0  0  0
   10.3951  -16.0940   25.3766 O   0  0  0  0  0  0  0  0  0  0  0  0
    9.5599  -14.7614   23.7443 O   0  0  0  0  0  0  0  0  0  0  0  0
  2  1  1  6
  2  3  1  0
  4  5  2  0
  4  2  1  0
  6  7  1  0
  7  9  1  0
  7  8  2  0
  9 10  1  0
 11 10  1  1
 11 12  1  0
 12  4  1  0
 13 11  1  0
 14 13  2  0
 16 15  1  6
 16 18  1  0
 16 17  1  0
 17 13  1  0
 18 19  1  0
 20 18  2  0
M  END
$$$$
