AQA.pdb
     RDKit          3D

 20 19  0  0  1  0  0  0  0  0999 V2000
    7.8909  -12.7382   19.6020 C   0  0  0  0  0  0  0  0  0  0  0  0
    7.9584  -14.1560   20.1376 C   0  0  2  0  0  0  0  0  0  0  0  0
    6.6996  -14.8295   20.1035 N   0  0  0  0  0  0  0  0  0  0  0  0
    8.5478  -14.0889   21.4957 C   0  0  0  0  0  0  0  0  0  0  0  0
    9.7659  -13.7284   21.5582 O   0  0  0  0  0  0  0  0  0  0  0  0
    5.6831  -13.1423   27.0587 N   0  0  0  0  0  0  0  0  0  0  0  0
    6.5399  -12.1348   26.5254 C   0  0  0  0  0  0  0  0  0  0  0  0
    6.4452  -10.9751   26.9952 O   0  0  0  0  0  0  0  0  0  0  0  0
    7.4899  -12.5090   25.4527 C   0  0  0  0  0  0  0  0  0  0  0  0
    7.4262  -13.9343   25.0553 C   0  0  0  0  0  0  0  0  0  0  0  0
    8.4373  -14.3448   23.9937 C   0  0  2  0  0  0  0  0  0  0  0  0
    7.8230  -14.4022   22.6797 N   0  0  0  0  0  0  0  0  0  0  0  0
    8.8803  -15.7062   24.3753 C   0  0  0  0  0  0  0  0  0  0  0  0
    8.0405  -16.6329   24.3357 O   0  0  0  0  0  0  0  0  0  0  0  0
   11.8590  -17.6796   24.3247 C   0  0  0  0  0  0  0  0  0  0  0  0
   10.5567  -17.3953   25.0300 C   0  0  2  0  0  0  0  0  0  0  0  0
   10.2003  -16.0152   24.7818 N   0  0  0  0  0  0  0  0  0  0  0  0
   10.6456  -17.6556   26.4888 C   0  0  0  0  0  0  0  0  0  0  0  0
   10.8491  -18.9140   27.0029 O   0  0  0  0  0  0  0  0  0  0  0  0
   10.5301  -16.6876   27.2839 O   0  0  0  0  0  0  0  0  0  0  0  0
  2  1  1  1
  2  3  1  0
  4  5  2  0
  4  2  1  0
  6  7  1  0
  7  9  1  0
  7  8  2  0
  9 10  1  0
 11 10  1  1
 11 12  1  0
 12  4  1  0
 13 11  1  0
 14 13  2  0
 16 15  1  6
 16 18  1  0
 16 17  1  0
 17 13  1  0
 18 19  1  0
 20 18  2  0
M  END
$$$$
