YHF.pdb
     RDKit          3D

 34 36  0  0  1  0  0  0  0  0999 V2000
   16.1583  -17.0129  -21.7579 O   0  0  0  0  0  0  0  0  0  0  0  0
   17.3079  -17.5004  -21.1483 C   0  0  0  0  0  0  0  0  0  0  0  0
   17.8340  -16.9202  -20.0156 C   0  0  0  0  0  0  0  0  0  0  0  0
   18.9704  -17.3779  -19.3872 C   0  0  0  0  0  0  0  0  0  0  0  0
   19.6458  -18.4802  -19.8959 C   0  0  0  0  0  0  0  0  0  0  0  0
   20.8654  -19.0188  -19.2940 C   0  0  0  0  0  0  0  0  0  0  0  0
   22.0686  -18.1397  -19.3957 C   0  0  2  0  0  0  0  0  0  0  0  0
   22.4552  -18.1019  -20.8004 N   0  0  0  0  0  0  0  0  0  0  0  0
   23.1466  -18.6680  -18.5468 C   0  0  0  0  0  0  0  0  0  0  0  0
   23.9360  -19.5247  -19.0408 O   0  0  0  0  0  0  0  0  0  0  0  0
   19.1250  -19.0660  -21.0294 C   0  0  0  0  0  0  0  0  0  0  0  0
   17.9866  -18.5938  -21.6444 C   0  0  0  0  0  0  0  0  0  0  0  0
   23.3738  -18.2957  -17.2197 N   0  0  0  0  0  0  0  0  0  0  0  0
   24.4810  -18.8275  -16.3876 C   0  0  1  0  0  0  0  0  0  0  0  0
   25.3383  -17.6547  -16.1062 C   0  0  0  0  0  0  0  0  0  0  0  0
   26.4012  -17.3412  -17.0559 C   0  0  0  0  0  0  0  0  0  0  0  0
   26.8638  -17.9172  -18.1907 C   0  0  0  0  0  0  0  0  0  0  0  0
   27.8620  -17.1296  -18.6735 N   0  0  0  0  0  0  0  0  0  0  0  0
   28.0198  -16.0783  -17.8545 C   0  0  0  0  0  0  0  0  0  0  0  0
   27.1400  -16.2033  -16.8783 N   0  0  0  0  0  0  0  0  0  0  0  0
   23.8000  -19.2292  -15.1333 C   0  0  0  0  0  0  0  0  0  0  0  0
   22.9802  -18.4730  -14.5971 O   0  0  0  0  0  0  0  0  0  0  0  0
   24.0642  -20.4668  -14.5241 N   0  0  0  0  0  0  0  0  0  0  0  0
   23.4224  -20.7926  -13.2509 C   0  0  1  0  0  0  0  0  0  0  0  0
   23.8331  -19.7609  -12.2188 C   0  0  0  0  0  0  0  0  0  0  0  0
   23.3132  -20.0577  -10.8817 C   0  0  0  0  0  0  0  0  0  0  0  0
   22.0821  -19.5397  -10.4801 C   0  0  0  0  0  0  0  0  0  0  0  0
   21.5706  -19.8145   -9.2369 C   0  0  0  0  0  0  0  0  0  0  0  0
   22.2710  -20.6091   -8.3671 C   0  0  0  0  0  0  0  0  0  0  0  0
   23.4789  -21.1282   -8.7373 C   0  0  0  0  0  0  0  0  0  0  0  0
   23.9826  -20.8484   -9.9820 C   0  0  0  0  0  0  0  0  0  0  0  0
   21.9727  -20.9352  -13.3943 C   0  0  0  0  0  0  0  0  0  0  0  0
   21.3506  -20.1747  -14.1747 O   0  0  0  0  0  0  0  0  0  0  0  0
   21.2199  -21.8836  -12.7036 O   0  0  0  0  0  0  0  0  0  0  0  0
  2  1  1  0
  3  2  2  0
  4  3  1  0
  5 11  1  0
  5  4  2  0
  6  5  1  0
  7  6  1  0
  7  8  1  6
  9  7  1  0
  9 13  1  0
 10  9  2  0
 11 12  2  0
 12  2  1  0
 14 15  1  1
 14 13  1  0
 14 21  1  0
 16 15  1  0
 17 16  2  0
 18 17  1  0
 19 18  1  0
 19 20  2  0
 20 16  1  0
 21 22  2  0
 23 21  1  0
 23 24  1  0
 24 32  1  0
 24 25  1  1
 26 31  1  0
 26 25  1  0
 27 26  2  0
 28 29  2  0
 28 27  1  0
 29 30  1  0
 30 31  2  0
 32 34  1  0
 33 32  2  0
M  END
$$$$
