YHF.pdb
     RDKit          3D

 34 36  0  0  1  0  0  0  0  0999 V2000
   18.1190  -22.3791  -17.2029 O   0  0  0  0  0  0  0  0  0  0  0  0
   19.3679  -22.4726  -16.6010 C   0  0  0  0  0  0  0  0  0  0  0  0
   20.2024  -23.5465  -16.8173 C   0  0  0  0  0  0  0  0  0  0  0  0
   21.4450  -23.6700  -16.2372 C   0  0  0  0  0  0  0  0  0  0  0  0
   21.9117  -22.6778  -15.3842 C   0  0  0  0  0  0  0  0  0  0  0  0
   23.2135  -22.7414  -14.7198 C   0  0  0  0  0  0  0  0  0  0  0  0
   24.2702  -21.8610  -15.3021 C   0  0  2  0  0  0  0  0  0  0  0  0
   24.7267  -22.4945  -16.5328 N   0  0  0  0  0  0  0  0  0  0  0  0
   25.3661  -21.6903  -14.3368 C   0  0  0  0  0  0  0  0  0  0  0  0
   26.3788  -22.4423  -14.4376 O   0  0  0  0  0  0  0  0  0  0  0  0
   21.0819  -21.6001  -15.1630 C   0  0  0  0  0  0  0  0  0  0  0  0
   19.8416  -21.4938  -15.7525 C   0  0  0  0  0  0  0  0  0  0  0  0
   25.3808  -20.7519  -13.3023 N   0  0  0  0  0  0  0  0  0  0  0  0
   26.5386  -20.5288  -12.4018 C   0  0  1  0  0  0  0  0  0  0  0  0
   26.9313  -19.1212  -12.6338 C   0  0  0  0  0  0  0  0  0  0  0  0
   27.5905  -18.7942  -13.8941 C   0  0  0  0  0  0  0  0  0  0  0  0
   27.9284  -19.4963  -15.0016 C   0  0  0  0  0  0  0  0  0  0  0  0
   28.4910  -18.6268  -15.8832 N   0  0  0  0  0  0  0  0  0  0  0  0
   28.5035  -17.4015  -15.3362 C   0  0  0  0  0  0  0  0  0  0  0  0
   27.9609  -17.4995  -14.1367 N   0  0  0  0  0  0  0  0  0  0  0  0
   25.9421  -20.6382  -11.0488 C   0  0  0  0  0  0  0  0  0  0  0  0
   24.7550  -20.3419  -10.8631 O   0  0  0  0  0  0  0  0  0  0  0  0
   26.7003  -21.0761   -9.9506 N   0  0  0  0  0  0  0  0  0  0  0  0
   26.0621  -21.2004   -8.6406 C   0  0  1  0  0  0  0  0  0  0  0  0
   27.0203  -21.8969   -7.6945 C   0  0  0  0  0  0  0  0  0  0  0  0
   27.8868  -20.9609   -6.9738 C   0  0  0  0  0  0  0  0  0  0  0  0
   29.2343  -20.8510   -7.3166 C   0  0  0  0  0  0  0  0  0  0  0  0
   30.0611  -19.9726   -6.6629 C   0  0  0  0  0  0  0  0  0  0  0  0
   29.5671  -19.1853   -5.6556 C   0  0  0  0  0  0  0  0  0  0  0  0
   28.2509  -19.2747   -5.3016 C   0  0  0  0  0  0  0  0  0  0  0  0
   27.4314  -20.1555   -5.9605 C   0  0  0  0  0  0  0  0  0  0  0  0
   25.5824  -19.9092   -8.1454 C   0  0  0  0  0  0  0  0  0  0  0  0
   24.6241  -19.8744   -7.3362 O   0  0  0  0  0  0  0  0  0  0  0  0
   26.1340  -18.6861   -8.5235 O   0  0  0  0  0  0  0  0  0  0  0  0
  2  1  1  0
  3  2  2  0
  4  3  1  0
  5 11  1  0
  5  4  2  0
  6  5  1  0
  7  6  1  0
  7  8  1  6
  9  7  1  0
  9 13  1  0
 10  9  2  0
 11 12  2  0
 12  2  1  0
 14 15  1  6
 14 13  1  0
 14 21  1  0
 16 15  1  0
 17 16  2  0
 18 17  1  0
 19 18  1  0
 19 20  2  0
 20 16  1  0
 21 22  2  0
 23 21  1  0
 23 24  1  0
 24 32  1  0
 24 25  1  1
 26 31  1  0
 26 25  1  0
 27 26  2  0
 28 29  2  0
 28 27  1  0
 29 30  1  0
 30 31  2  0
 32 34  1  0
 33 32  2  0
M  END
$$$$
