YHF.pdb
     RDKit          3D

 34 36  0  0  1  0  0  0  0  0999 V2000
   34.7598  -36.0459  -18.3451 O   0  0  0  0  0  0  0  0  0  0  0  0
   33.9117  -34.9655  -18.5559 C   0  0  0  0  0  0  0  0  0  0  0  0
   34.0388  -33.7907  -17.8489 C   0  0  0  0  0  0  0  0  0  0  0  0
   33.2160  -32.7021  -18.0330 C   0  0  0  0  0  0  0  0  0  0  0  0
   32.1945  -32.7585  -18.9729 C   0  0  0  0  0  0  0  0  0  0  0  0
   31.2716  -31.6504  -19.2185 C   0  0  0  0  0  0  0  0  0  0  0  0
   30.2383  -31.4351  -18.1617 C   0  0  2  0  0  0  0  0  0  0  0  0
   29.3809  -32.6137  -18.1532 N   0  0  0  0  0  0  0  0  0  0  0  0
   29.4784  -30.2093  -18.4482 C   0  0  0  0  0  0  0  0  0  0  0  0
   28.2157  -30.2548  -18.3800 O   0  0  0  0  0  0  0  0  0  0  0  0
   32.0613  -33.9312  -19.6842 C   0  0  0  0  0  0  0  0  0  0  0  0
   32.8943  -35.0101  -19.4862 C   0  0  0  0  0  0  0  0  0  0  0  0
   30.0452  -28.9805  -18.7946 N   0  0  0  0  0  0  0  0  0  0  0  0
   29.2634  -27.7379  -19.0083 C   0  0  1  0  0  0  0  0  0  0  0  0
   28.7047  -27.4101  -17.6780 C   0  0  0  0  0  0  0  0  0  0  0  0
   27.9416  -26.1735  -17.5427 C   0  0  0  0  0  0  0  0  0  0  0  0
   27.5522  -25.1973  -18.3964 C   0  0  0  0  0  0  0  0  0  0  0  0
   26.8087  -24.3052  -17.6884 N   0  0  0  0  0  0  0  0  0  0  0  0
   26.7339  -24.7176  -16.4137 C   0  0  0  0  0  0  0  0  0  0  0  0
   27.4160  -25.8442  -16.3229 N   0  0  0  0  0  0  0  0  0  0  0  0
   30.3033  -26.7365  -19.3462 C   0  0  0  0  0  0  0  0  0  0  0  0
   31.2756  -26.5686  -18.5991 O   0  0  0  0  0  0  0  0  0  0  0  0
   30.2148  -25.9578  -20.5116 N   0  0  0  0  0  0  0  0  0  0  0  0
   31.2507  -24.9642  -20.7923 C   0  0  1  0  0  0  0  0  0  0  0  0
   31.8713  -25.2732  -22.1406 C   0  0  0  0  0  0  0  0  0  0  0  0
   32.8577  -24.2721  -22.5540 C   0  0  0  0  0  0  0  0  0  0  0  0
   34.1455  -24.2979  -22.0189 C   0  0  0  0  0  0  0  0  0  0  0  0
   35.0887  -23.3774  -22.4005 C   0  0  0  0  0  0  0  0  0  0  0  0
   34.7727  -22.4126  -23.3213 C   0  0  0  0  0  0  0  0  0  0  0  0
   33.5183  -22.3667  -23.8598 C   0  0  0  0  0  0  0  0  0  0  0  0
   32.5816  -23.2908  -23.4725 C   0  0  0  0  0  0  0  0  0  0  0  0
   30.7372  -23.5980  -20.6812 C   0  0  0  0  0  0  0  0  0  0  0  0
   31.5381  -22.6490  -20.5014 O   0  0  0  0  0  0  0  0  0  0  0  0
   29.3838  -23.2746  -20.7642 O   0  0  0  0  0  0  0  0  0  0  0  0
  2  1  1  0
  3  2  2  0
  4  3  1  0
  5 11  1  0
  5  4  2  0
  6  5  1  0
  7  6  1  0
  7  8  1  6
  9  7  1  0
  9 13  1  0
 10  9  2  0
 11 12  2  0
 12  2  1  0
 14 15  1  1
 14 13  1  0
 14 21  1  0
 16 15  1  0
 17 16  2  0
 18 17  1  0
 19 18  1  0
 19 20  2  0
 20 16  1  0
 21 22  2  0
 23 21  1  0
 23 24  1  0
 24 32  1  0
 24 25  1  6
 26 31  1  0
 26 25  1  0
 27 26  2  0
 28 29  2  0
 28 27  1  0
 29 30  1  0
 30 31  2  0
 32 34  1  0
 33 32  2  0
M  END
$$$$
