YHF.pdb
     RDKit          3D

 34 36  0  0  1  0  0  0  0  0999 V2000
   13.2042  -26.4068  -19.0786 O   0  0  0  0  0  0  0  0  0  0  0  0
   14.4343  -26.9410  -18.7150 C   0  0  0  0  0  0  0  0  0  0  0  0
   14.8523  -26.9811  -17.4035 C   0  0  0  0  0  0  0  0  0  0  0  0
   16.0640  -27.5030  -17.0095 C   0  0  0  0  0  0  0  0  0  0  0  0
   16.9340  -28.0245  -17.9589 C   0  0  0  0  0  0  0  0  0  0  0  0
   18.2427  -28.5848  -17.6223 C   0  0  0  0  0  0  0  0  0  0  0  0
   19.2204  -27.6166  -17.0413 C   0  0  2  0  0  0  0  0  0  0  0  0
   19.6089  -26.7051  -18.1101 N   0  0  0  0  0  0  0  0  0  0  0  0
   20.3770  -28.3418  -16.4949 C   0  0  0  0  0  0  0  0  0  0  0  0
   21.3775  -28.5313  -17.2460 O   0  0  0  0  0  0  0  0  0  0  0  0
   16.5223  -27.9877  -19.2735 C   0  0  0  0  0  0  0  0  0  0  0  0
   15.3060  -27.4614  -19.6487 C   0  0  0  0  0  0  0  0  0  0  0  0
   20.4626  -28.8459  -15.1950 N   0  0  0  0  0  0  0  0  0  0  0  0
   21.6596  -29.5317  -14.6490 C   0  0  1  0  0  0  0  0  0  0  0  0
   22.3978  -28.4778  -13.9184 C   0  0  0  0  0  0  0  0  0  0  0  0
   23.0833  -27.4550  -14.7019 C   0  0  0  0  0  0  0  0  0  0  0  0
   23.1236  -27.1306  -16.0159 C   0  0  0  0  0  0  0  0  0  0  0  0
   23.9155  -26.0323  -16.1436 N   0  0  0  0  0  0  0  0  0  0  0  0
   24.3618  -25.6756  -14.9293 C   0  0  0  0  0  0  0  0  0  0  0  0
   23.8613  -26.5317  -14.0580 N   0  0  0  0  0  0  0  0  0  0  0  0
   21.0872  -30.4802  -13.6636 C   0  0  0  0  0  0  0  0  0  0  0  0
   20.0253  -30.2161  -13.0856 O   0  0  0  0  0  0  0  0  0  0  0  0
   21.7282  -31.6926  -13.3608 N   0  0  0  0  0  0  0  0  0  0  0  0
   21.1414  -32.5860  -12.3625 C   0  0  1  0  0  0  0  0  0  0  0  0
   20.8256  -31.7845  -11.1151 C   0  0  0  0  0  0  0  0  0  0  0  0
   22.0216  -31.2181  -10.4867 C   0  0  0  0  0  0  0  0  0  0  0  0
   22.1215  -29.8409  -10.2896 C   0  0  0  0  0  0  0  0  0  0  0  0
   23.2272  -29.2901   -9.6925 C   0  0  0  0  0  0  0  0  0  0  0  0
   24.2563  -30.0953   -9.2787 C   0  0  0  0  0  0  0  0  0  0  0  0
   24.1819  -31.4470   -9.4606 C   0  0  0  0  0  0  0  0  0  0  0  0
   23.0728  -31.9891  -10.0585 C   0  0  0  0  0  0  0  0  0  0  0  0
   19.9918  -33.3176  -12.8973 C   0  0  0  0  0  0  0  0  0  0  0  0
   19.4107  -34.1667  -12.1793 O   0  0  0  0  0  0  0  0  0  0  0  0
   19.4885  -33.1278  -14.1834 O   0  0  0  0  0  0  0  0  0  0  0  0
  2  1  1  0
  3  2  2  0
  4  3  1  0
  5 11  1  0
  5  4  2  0
  6  5  1  0
  7  6  1  0
  7  8  1  6
  9  7  1  0
  9 13  1  0
 10  9  2  0
 11 12  2  0
 12  2  1  0
 14 15  1  1
 14 13  1  0
 14 21  1  0
 16 15  1  0
 17 16  2  0
 18 17  1  0
 19 18  1  0
 19 20  2  0
 20 16  1  0
 21 22  2  0
 23 21  1  0
 23 24  1  0
 24 32  1  0
 24 25  1  1
 26 31  1  0
 26 25  1  0
 27 26  2  0
 28 29  2  0
 28 27  1  0
 29 30  1  0
 30 31  2  0
 32 34  1  0
 33 32  2  0
M  END
$$$$
