YHF.pdb
     RDKit          3D

 34 36  0  0  1  0  0  0  0  0999 V2000
   12.4404   -6.9165  -21.0578 O   0  0  0  0  0  0  0  0  0  0  0  0
   12.9716   -7.5317  -19.9308 C   0  0  0  0  0  0  0  0  0  0  0  0
   12.1946   -7.8472  -18.8385 C   0  0  0  0  0  0  0  0  0  0  0  0
   12.6889   -8.4563  -17.7069 C   0  0  0  0  0  0  0  0  0  0  0  0
   14.0369   -8.7834  -17.6303 C   0  0  0  0  0  0  0  0  0  0  0  0
   14.6403   -9.4196  -16.4593 C   0  0  0  0  0  0  0  0  0  0  0  0
   15.0574  -10.8410  -16.6500 C   0  0  2  0  0  0  0  0  0  0  0  0
   14.0886  -11.6711  -15.9453 N   0  0  0  0  0  0  0  0  0  0  0  0
   16.4205  -11.0353  -16.1340 C   0  0  0  0  0  0  0  0  0  0  0  0
   16.5642  -11.6155  -15.0187 O   0  0  0  0  0  0  0  0  0  0  0  0
   14.8206   -8.4706  -18.7198 C   0  0  0  0  0  0  0  0  0  0  0  0
   14.3081   -7.8609  -19.8436 C   0  0  0  0  0  0  0  0  0  0  0  0
   17.5869  -10.6255  -16.7841 N   0  0  0  0  0  0  0  0  0  0  0  0
   18.9520  -10.8128  -16.2340 C   0  0  1  0  0  0  0  0  0  0  0  0
   19.6243  -11.7172  -17.1929 C   0  0  0  0  0  0  0  0  0  0  0  0
   19.3779  -13.1503  -17.0689 C   0  0  0  0  0  0  0  0  0  0  0  0
   18.6504  -13.9215  -16.2267 C   0  0  0  0  0  0  0  0  0  0  0  0
   18.7716  -15.2109  -16.6424 N   0  0  0  0  0  0  0  0  0  0  0  0
   19.5610  -15.2446  -17.7271 C   0  0  0  0  0  0  0  0  0  0  0  0
   19.9279  -14.0034  -17.9867 N   0  0  0  0  0  0  0  0  0  0  0  0
   19.5539   -9.4630  -16.3529 C   0  0  0  0  0  0  0  0  0  0  0  0
   19.0509   -8.6182  -17.1043 O   0  0  0  0  0  0  0  0  0  0  0  0
   20.7009   -9.1091  -15.6237 N   0  0  0  0  0  0  0  0  0  0  0  0
   21.3184   -7.8019  -15.8454 C   0  0  1  0  0  0  0  0  0  0  0  0
   22.2630   -7.5069  -14.6970 C   0  0  0  0  0  0  0  0  0  0  0  0
   23.0355   -6.2786  -14.8989 C   0  0  0  0  0  0  0  0  0  0  0  0
   22.5222   -5.0529  -14.4753 C   0  0  0  0  0  0  0  0  0  0  0  0
   23.2335   -3.8918  -14.6436 C   0  0  0  0  0  0  0  0  0  0  0  0
   24.4691   -3.9239  -15.2360 C   0  0  0  0  0  0  0  0  0  0  0  0
   24.9933   -5.1120  -15.6593 C   0  0  0  0  0  0  0  0  0  0  0  0
   24.2753   -6.2679  -15.4869 C   0  0  0  0  0  0  0  0  0  0  0  0
   21.9505   -7.7164  -17.1628 C   0  0  0  0  0  0  0  0  0  0  0  0
   21.8396   -6.6625  -17.8348 O   0  0  0  0  0  0  0  0  0  0  0  0
   22.6855   -8.7544  -17.7334 O   0  0  0  0  0  0  0  0  0  0  0  0
  2  1  1  0
  3  2  2  0
  4  3  1  0
  5 11  1  0
  5  4  2  0
  6  5  1  0
  7  6  1  0
  7  8  1  1
  9  7  1  0
  9 13  1  0
 10  9  2  0
 11 12  2  0
 12  2  1  0
 14 15  1  6
 14 13  1  0
 14 21  1  0
 16 15  1  0
 17 16  2  0
 18 17  1  0
 19 18  1  0
 19 20  2  0
 20 16  1  0
 21 22  2  0
 23 21  1  0
 23 24  1  0
 24 32  1  0
 24 25  1  1
 26 31  1  0
 26 25  1  0
 27 26  2  0
 28 29  2  0
 28 27  1  0
 29 30  1  0
 30 31  2  0
 32 34  1  0
 33 32  2  0
M  END
$$$$
