YHF.pdb
     RDKit          3D

 34 36  0  0  1  0  0  0  0  0999 V2000
   19.0131  -14.8511    2.9938 O   0  0  0  0  0  0  0  0  0  0  0  0
   17.7878  -15.4924    2.8581 C   0  0  0  0  0  0  0  0  0  0  0  0
   16.6199  -14.9408    3.3358 C   0  0  0  0  0  0  0  0  0  0  0  0
   15.3904  -15.5492    3.2179 C   0  0  0  0  0  0  0  0  0  0  0  0
   15.2872  -16.7841    2.5898 C   0  0  0  0  0  0  0  0  0  0  0  0
   14.0207  -17.5000    2.4363 C   0  0  0  0  0  0  0  0  0  0  0  0
   13.9017  -18.7620    3.2262 C   0  0  2  0  0  0  0  0  0  0  0  0
   12.5379  -19.2474    3.0570 N   0  0  0  0  0  0  0  0  0  0  0  0
   14.2166  -18.4992    4.6381 C   0  0  0  0  0  0  0  0  0  0  0  0
   13.3279  -17.9643    5.3630 O   0  0  0  0  0  0  0  0  0  0  0  0
   16.4519  -17.3422    2.1094 C   0  0  0  0  0  0  0  0  0  0  0  0
   17.6734  -16.7183    2.2366 C   0  0  0  0  0  0  0  0  0  0  0  0
   15.4347  -18.7963    5.2538 N   0  0  0  0  0  0  0  0  0  0  0  0
   15.7593  -18.4498    6.6595 C   0  0  1  0  0  0  0  0  0  0  0  0
   16.2655  -19.7082    7.2509 C   0  0  0  0  0  0  0  0  0  0  0  0
   16.7020  -19.6821    8.6432 C   0  0  0  0  0  0  0  0  0  0  0  0
   16.7677  -18.7285    9.6023 C   0  0  0  0  0  0  0  0  0  0  0  0
   17.2252  -19.3197   10.7385 N   0  0  0  0  0  0  0  0  0  0  0  0
   17.4408  -20.6214   10.4938 C   0  0  0  0  0  0  0  0  0  0  0  0
   17.1258  -20.8428    9.2311 N   0  0  0  0  0  0  0  0  0  0  0  0
   16.8904  -17.5011    6.5226 C   0  0  0  0  0  0  0  0  0  0  0  0
   17.7545  -17.6795    5.6548 O   0  0  0  0  0  0  0  0  0  0  0  0
   17.0122  -16.3848    7.3661 N   0  0  0  0  0  0  0  0  0  0  0  0
   18.1839  -15.5177    7.2459 C   0  0  1  0  0  0  0  0  0  0  0  0
   17.7163  -14.0905    7.0390 C   0  0  0  0  0  0  0  0  0  0  0  0
   18.8246  -13.1534    6.8400 C   0  0  0  0  0  0  0  0  0  0  0  0
   19.5725  -12.7140    7.9322 C   0  0  0  0  0  0  0  0  0  0  0  0
   20.6221  -11.8458    7.7677 C   0  0  0  0  0  0  0  0  0  0  0  0
   20.9507  -11.3961    6.5153 C   0  0  0  0  0  0  0  0  0  0  0  0
   20.2334  -11.8121    5.4299 C   0  0  0  0  0  0  0  0  0  0  0  0
   19.1857  -12.6802    5.6037 C   0  0  0  0  0  0  0  0  0  0  0  0
   19.0969  -15.6783    8.3786 C   0  0  0  0  0  0  0  0  0  0  0  0
   18.6323  -15.7520    9.5419 O   0  0  0  0  0  0  0  0  0  0  0  0
   20.4824  -15.7567    8.2462 O   0  0  0  0  0  0  0  0  0  0  0  0
  2  1  1  0
  3  2  2  0
  4  3  1  0
  5 11  1  0
  5  4  2  0
  6  5  1  0
  7  6  1  0
  7  8  1  1
  9  7  1  0
  9 13  1  0
 10  9  2  0
 11 12  2  0
 12  2  1  0
 14 15  1  1
 14 13  1  0
 14 21  1  0
 16 15  1  0
 17 16  2  0
 18 17  1  0
 19 18  1  0
 19 20  2  0
 20 16  1  0
 21 22  2  0
 23 21  1  0
 23 24  1  0
 24 32  1  0
 24 25  1  1
 26 31  1  0
 26 25  1  0
 27 26  2  0
 28 29  2  0
 28 27  1  0
 29 30  1  0
 30 31  2  0
 32 34  1  0
 33 32  2  0
M  END
$$$$
