YHF.pdb
     RDKit          3D

 34 36  0  0  1  0  0  0  0  0999 V2000
   17.9327  -16.0805  -14.9613 O   0  0  0  0  0  0  0  0  0  0  0  0
   18.9581  -16.9284  -14.5607 C   0  0  0  0  0  0  0  0  0  0  0  0
   20.2088  -16.4548  -14.2322 C   0  0  0  0  0  0  0  0  0  0  0  0
   21.2460  -17.2670  -13.8318 C   0  0  0  0  0  0  0  0  0  0  0  0
   21.0548  -18.6402  -13.7439 C   0  0  0  0  0  0  0  0  0  0  0  0
   22.1090  -19.5702  -13.3392 C   0  0  0  0  0  0  0  0  0  0  0  0
   23.3296  -19.5642  -14.1999 C   0  0  2  0  0  0  0  0  0  0  0  0
   22.9083  -19.9355  -15.5449 N   0  0  0  0  0  0  0  0  0  0  0  0
   24.3255  -20.5023  -13.6613 C   0  0  0  0  0  0  0  0  0  0  0  0
   24.1927  -21.7340  -13.9192 O   0  0  0  0  0  0  0  0  0  0  0  0
   19.8057  -19.1213  -14.0713 C   0  0  0  0  0  0  0  0  0  0  0  0
   18.7799  -18.2931  -14.4699 C   0  0  0  0  0  0  0  0  0  0  0  0
   25.4225  -20.1393  -12.8763 N   0  0  0  0  0  0  0  0  0  0  0  0
   26.4447  -21.0969  -12.3871 C   0  0  1  0  0  0  0  0  0  0  0  0
   27.6958  -20.6926  -13.0659 C   0  0  0  0  0  0  0  0  0  0  0  0
   27.8133  -20.9562  -14.4965 C   0  0  0  0  0  0  0  0  0  0  0  0
   27.0038  -21.5056  -15.4326 C   0  0  0  0  0  0  0  0  0  0  0  0
   27.6516  -21.4379  -16.6266 N   0  0  0  0  0  0  0  0  0  0  0  0
   28.8457  -20.8548  -16.4398 C   0  0  0  0  0  0  0  0  0  0  0  0
   28.9458  -20.5631  -15.1563 N   0  0  0  0  0  0  0  0  0  0  0  0
   26.5581  -20.7654  -10.9464 C   0  0  0  0  0  0  0  0  0  0  0  0
   26.5314  -19.5861  -10.5722 O   0  0  0  0  0  0  0  0  0  0  0  0
   26.6983  -21.7705   -9.9755 N   0  0  0  0  0  0  0  0  0  0  0  0
   26.8589  -21.3955   -8.5710 C   0  0  1  0  0  0  0  0  0  0  0  0
   28.1594  -20.6323   -8.4147 C   0  0  0  0  0  0  0  0  0  0  0  0
   28.4285  -20.2478   -7.0270 C   0  0  0  0  0  0  0  0  0  0  0  0
   28.9446  -21.1834   -6.1305 C   0  0  0  0  0  0  0  0  0  0  0  0
   29.2153  -20.8420   -4.8294 C   0  0  0  0  0  0  0  0  0  0  0  0
   28.9790  -19.5647   -4.3918 C   0  0  0  0  0  0  0  0  0  0  0  0
   28.4740  -18.6306   -5.2509 C   0  0  0  0  0  0  0  0  0  0  0  0
   28.2064  -18.9806   -6.5498 C   0  0  0  0  0  0  0  0  0  0  0  0
   25.6902  -20.6745   -8.0643 C   0  0  0  0  0  0  0  0  0  0  0  0
   25.0943  -19.8605   -8.8104 O   0  0  0  0  0  0  0  0  0  0  0  0
   25.1837  -20.8371   -6.7758 O   0  0  0  0  0  0  0  0  0  0  0  0
  2  1  1  0
  3  2  2  0
  4  3  1  0
  5 11  1  0
  5  4  2  0
  6  5  1  0
  7  6  1  0
  7  8  1  6
  9  7  1  0
  9 13  1  0
 10  9  2  0
 11 12  2  0
 12  2  1  0
 14 15  1  6
 14 13  1  0
 14 21  1  0
 16 15  1  0
 17 16  2  0
 18 17  1  0
 19 18  1  0
 19 20  2  0
 20 16  1  0
 21 22  2  0
 23 21  1  0
 23 24  1  0
 24 32  1  0
 24 25  1  6
 26 31  1  0
 26 25  1  0
 27 26  2  0
 28 29  2  0
 28 27  1  0
 29 30  1  0
 30 31  2  0
 32 34  1  0
 33 32  2  0
M  END
$$$$
