IMG.pdb
     RDKit          3D

 21 20  0  0  1  0  0  0  0  0999 V2000
    8.1513  -15.4298   17.0251 C   0  0  0  0  0  0  0  0  0  0  0  0
    7.6602  -14.5132   18.0973 C   0  0  0  0  0  0  0  0  0  0  0  0
    8.2214  -14.8628   19.4680 C   0  0  2  0  0  0  0  0  0  0  0  0
    7.9221  -16.2740   19.8459 C   0  0  0  0  0  0  0  0  0  0  0  0
    7.5883  -13.8973   20.4391 C   0  0  2  0  0  0  0  0  0  0  0  0
    7.8830  -12.5119   19.9880 N   0  0  0  0  0  0  0  0  0  0  0  0
    8.1811  -14.0203   21.7852 C   0  0  0  0  0  0  0  0  0  0  0  0
    9.3575  -13.5697   22.0070 O   0  0  0  0  0  0  0  0  0  0  0  0
    6.1980  -10.3844   26.7318 C   0  0  0  0  0  0  0  0  0  0  0  0
    6.2099  -12.1796   26.5958 S   0  0  0  0  0  0  0  0  0  0  0  0
    7.3128  -12.6705   25.2215 C   0  0  0  0  0  0  0  0  0  0  0  0
    7.3262  -14.1679   25.2119 C   0  0  0  0  0  0  0  0  0  0  0  0
    8.2490  -14.7582   24.1886 C   0  0  2  0  0  0  0  0  0  0  0  0
    7.5456  -14.6058   22.8889 N   0  0  0  0  0  0  0  0  0  0  0  0
    8.6491  -16.1288   24.3401 C   0  0  0  0  0  0  0  0  0  0  0  0
    8.0682  -17.0234   23.6291 O   0  0  0  0  0  0  0  0  0  0  0  0
    9.6580  -16.6313   25.2198 N   0  0  0  0  0  0  0  0  0  0  0  0
   11.0637  -16.5456   24.8997 C   0  0  0  0  0  0  0  0  0  0  0  0
   11.4451  -17.6601   24.0256 C   0  0  0  0  0  0  0  0  0  0  0  0
   11.3453  -18.8403   24.4400 O   0  0  0  0  0  0  0  0  0  0  0  0
   11.9235  -17.4191   22.7225 O   0  0  0  0  0  0  0  0  0  0  0  0
  2  1  1  0
  3  2  1  0
  3  5  1  0
  3  4  1  1
  5  7  1  0
  5  6  1  6
  7  8  2  0
  9 10  1  0
 10 11  1  0
 11 12  1  0
 13 12  1  1
 14 13  1  0
 14  7  1  0
 15 17  1  0
 15 13  1  0
 16 15  2  0
 18 17  1  0
 19 18  1  0
 19 21  1  0
 20 19  2  0
M  END
$$$$
