IMG.pdb
     RDKit          3D

 21 20  0  0  1  0  0  0  0  0999 V2000
    2.7541  -18.3866   21.1915 C   0  0  0  0  0  0  0  0  0  0  0  0
    3.9479  -18.6900   22.0364 C   0  0  0  0  0  0  0  0  0  0  0  0
    4.9109  -17.5155   22.1315 C   0  0  2  0  0  0  0  0  0  0  0  0
    5.2902  -16.9995   20.7847 C   0  0  0  0  0  0  0  0  0  0  0  0
    6.1205  -18.0243   22.8759 C   0  0  2  0  0  0  0  0  0  0  0  0
    5.6748  -18.5717   24.1839 N   0  0  0  0  0  0  0  0  0  0  0  0
    7.0582  -16.9294   23.1927 C   0  0  0  0  0  0  0  0  0  0  0  0
    7.7892  -16.4293   22.2696 O   0  0  0  0  0  0  0  0  0  0  0  0
    7.1815  -11.6121   27.1682 C   0  0  0  0  0  0  0  0  0  0  0  0
    5.7919  -12.6972   26.8033 S   0  0  0  0  0  0  0  0  0  0  0  0
    6.2407  -13.8020   25.4162 C   0  0  0  0  0  0  0  0  0  0  0  0
    7.5583  -14.4138   25.7796 C   0  0  0  0  0  0  0  0  0  0  0  0
    8.1676  -15.2341   24.6828 C   0  0  2  0  0  0  0  0  0  0  0  0
    7.2251  -16.3611   24.4632 N   0  0  0  0  0  0  0  0  0  0  0  0
    9.4866  -15.7659   24.8804 C   0  0  0  0  0  0  0  0  0  0  0  0
   10.4354  -14.9626   25.1932 O   0  0  0  0  0  0  0  0  0  0  0  0
    9.8802  -17.1359   24.7690 N   0  0  0  0  0  0  0  0  0  0  0  0
   11.2062  -17.5824   25.1269 C   0  0  0  0  0  0  0  0  0  0  0  0
   12.1094  -17.4321   23.9810 C   0  0  0  0  0  0  0  0  0  0  0  0
   12.2337  -16.3130   23.4272 O   0  0  0  0  0  0  0  0  0  0  0  0
   12.8409  -18.5334   23.4941 O   0  0  0  0  0  0  0  0  0  0  0  0
  2  1  1  0
  3  2  1  0
  3  5  1  0
  3  4  1  6
  5  7  1  0
  5  6  1  1
  7  8  2  0
  9 10  1  0
 10 11  1  0
 11 12  1  0
 13 12  1  1
 14 13  1  0
 14  7  1  0
 15 17  1  0
 15 13  1  0
 16 15  2  0
 18 17  1  0
 19 18  1  0
 19 21  1  0
 20 19  2  0
M  END
$$$$
