IMG.pdb
     RDKit          3D

 21 20  0  0  1  0  0  0  0  0999 V2000
    6.3136  -11.9597   27.9754 C   0  0  0  0  0  0  0  0  0  0  0  0
    5.9203  -13.1883   27.2225 C   0  0  0  0  0  0  0  0  0  0  0  0
    7.0164  -13.6767   26.2866 C   0  0  2  0  0  0  0  0  0  0  0  0
    7.4882  -12.5958   25.3739 C   0  0  0  0  0  0  0  0  0  0  0  0
    6.4214  -14.8222   25.5056 C   0  0  2  0  0  0  0  0  0  0  0  0
    6.2090  -15.9655   26.4315 N   0  0  0  0  0  0  0  0  0  0  0  0
    7.3519  -15.3079   24.4680 C   0  0  0  0  0  0  0  0  0  0  0  0
    8.1533  -16.2697   24.7305 O   0  0  0  0  0  0  0  0  0  0  0  0
    8.5734  -13.7304   17.9226 C   0  0  0  0  0  0  0  0  0  0  0  0
    7.8060  -12.6812   19.1683 S   0  0  0  0  0  0  0  0  0  0  0  0
    8.3077  -13.2568   20.8304 C   0  0  0  0  0  0  0  0  0  0  0  0
    8.0227  -14.7264   20.8667 C   0  0  0  0  0  0  0  0  0  0  0  0
    8.3723  -15.3787   22.1704 C   0  0  2  0  0  0  0  0  0  0  0  0
    7.4386  -14.7937   23.1668 N   0  0  0  0  0  0  0  0  0  0  0  0
    9.7151  -15.2464   22.6613 C   0  0  0  0  0  0  0  0  0  0  0  0
    9.9925  -14.2695   23.4437 O   0  0  0  0  0  0  0  0  0  0  0  0
   10.8183  -16.1089   22.3730 N   0  0  0  0  0  0  0  0  0  0  0  0
   12.1748  -15.7593   22.7243 C   0  0  0  0  0  0  0  0  0  0  0  0
   13.0978  -16.7899   22.2371 C   0  0  0  0  0  0  0  0  0  0  0  0
   12.6533  -17.7728   21.5962 O   0  0  0  0  0  0  0  0  0  0  0  0
   14.4815  -16.6879   22.4815 O   0  0  0  0  0  0  0  0  0  0  0  0
  2  1  1  0
  3  2  1  0
  3  5  1  0
  3  4  1  6
  5  7  1  0
  5  6  1  1
  7  8  2  0
  9 10  1  0
 10 11  1  0
 11 12  1  0
 13 12  1  6
 14 13  1  0
 14  7  1  0
 15 17  1  0
 15 13  1  0
 16 15  2  0
 18 17  1  0
 19 18  1  0
 19 21  1  0
 20 19  2  0
M  END
$$$$
