IMG.pdb
     RDKit          3D

 21 20  0  0  1  0  0  0  0  0999 V2000
    7.2055  -22.4051   24.0691 C   0  0  0  0  0  0  0  0  0  0  0  0
    6.3082  -21.2207   24.2208 C   0  0  0  0  0  0  0  0  0  0  0  0
    7.0455  -19.9016   24.0418 C   0  0  2  0  0  0  0  0  0  0  0  0
    8.1506  -19.7457   25.0310 C   0  0  0  0  0  0  0  0  0  0  0  0
    6.0111  -18.8166   24.2116 C   0  0  2  0  0  0  0  0  0  0  0  0
    5.0046  -18.9491   23.1258 N   0  0  0  0  0  0  0  0  0  0  0  0
    6.6058  -17.4752   24.0519 C   0  0  0  0  0  0  0  0  0  0  0  0
    6.9625  -17.0703   22.8921 O   0  0  0  0  0  0  0  0  0  0  0  0
    5.1866  -10.9002   26.1634 C   0  0  0  0  0  0  0  0  0  0  0  0
    6.3222  -11.9825   27.0470 S   0  0  0  0  0  0  0  0  0  0  0  0
    7.3163  -12.9270   25.8364 C   0  0  0  0  0  0  0  0  0  0  0  0
    6.7020  -14.2907   25.7655 C   0  0  0  0  0  0  0  0  0  0  0  0
    7.4173  -15.2293   24.8411 C   0  0  2  0  0  0  0  0  0  0  0  0
    6.8205  -16.5655   25.0966 N   0  0  0  0  0  0  0  0  0  0  0  0
    8.8456  -15.3332   24.9449 C   0  0  0  0  0  0  0  0  0  0  0  0
    9.5515  -14.2690   24.8326 O   0  0  0  0  0  0  0  0  0  0  0  0
    9.6006  -16.5263   25.1707 N   0  0  0  0  0  0  0  0  0  0  0  0
   11.0283  -16.4986   25.3866 C   0  0  0  0  0  0  0  0  0  0  0  0
   11.7181  -17.0981   24.2393 C   0  0  0  0  0  0  0  0  0  0  0  0
   11.0733  -17.3764   23.1995 O   0  0  0  0  0  0  0  0  0  0  0  0
   13.1003  -17.3655   24.2923 O   0  0  0  0  0  0  0  0  0  0  0  0
  2  1  1  0
  3  2  1  0
  3  5  1  0
  3  4  1  1
  5  7  1  0
  5  6  1  6
  7  8  2  0
  9 10  1  0
 10 11  1  0
 11 12  1  0
 13 12  1  1
 14 13  1  0
 14  7  1  0
 15 17  1  0
 15 13  1  0
 16 15  2  0
 18 17  1  0
 19 18  1  0
 19 21  1  0
 20 19  2  0
M  END
$$$$
