IMG.pdb
     RDKit          3D

 21 20  0  0  1  0  0  0  0  0999 V2000
    7.0031  -12.9940   18.4009 C   0  0  0  0  0  0  0  0  0  0  0  0
    7.4687  -14.1445   19.2319 C   0  0  0  0  0  0  0  0  0  0  0  0
    8.0493  -13.7040   20.5678 C   0  0  2  0  0  0  0  0  0  0  0  0
    9.1799  -12.7474   20.3923 C   0  0  0  0  0  0  0  0  0  0  0  0
    8.5089  -14.9628   21.2609 C   0  0  2  0  0  0  0  0  0  0  0  0
    7.3622  -15.9054   21.3379 N   0  0  0  0  0  0  0  0  0  0  0  0
    8.9080  -14.6946   22.6563 C   0  0  0  0  0  0  0  0  0  0  0  0
    9.9826  -14.0441   22.8980 O   0  0  0  0  0  0  0  0  0  0  0  0
    6.2724  -11.7991   27.9657 C   0  0  0  0  0  0  0  0  0  0  0  0
    7.2848  -11.8712   26.4787 S   0  0  0  0  0  0  0  0  0  0  0  0
    6.7476  -13.2883   25.4544 C   0  0  0  0  0  0  0  0  0  0  0  0
    7.4900  -14.4817   25.9711 C   0  0  0  0  0  0  0  0  0  0  0  0
    8.6968  -14.8423   25.1581 C   0  0  2  0  0  0  0  0  0  0  0  0
    8.1859  -15.1003   23.7872 N   0  0  0  0  0  0  0  0  0  0  0  0
    9.4902  -15.9640   25.5749 C   0  0  0  0  0  0  0  0  0  0  0  0
   10.1221  -15.8933   26.6880 O   0  0  0  0  0  0  0  0  0  0  0  0
    9.6621  -17.1966   24.8709 N   0  0  0  0  0  0  0  0  0  0  0  0
   10.5666  -18.2225   25.3347 C   0  0  0  0  0  0  0  0  0  0  0  0
   10.0064  -18.8836   26.5182 C   0  0  0  0  0  0  0  0  0  0  0  0
   10.6411  -19.8134   27.0724 O   0  0  0  0  0  0  0  0  0  0  0  0
    8.7602  -18.4850   27.0407 O   0  0  0  0  0  0  0  0  0  0  0  0
  2  1  1  0
  3  2  1  0
  3  5  1  0
  3  4  1  6
  5  7  1  0
  5  6  1  1
  7  8  2  0
  9 10  1  0
 10 11  1  0
 11 12  1  0
 13 12  1  1
 14 13  1  0
 14  7  1  0
 15 17  1  0
 15 13  1  0
 16 15  2  0
 18 17  1  0
 19 18  1  0
 19 21  1  0
 20 19  2  0
M  END
$$$$
