IMG.pdb
     RDKit          3D

 21 20  0  0  1  0  0  0  0  0999 V2000
    8.0170  -15.9552   16.6488 C   0  0  0  0  0  0  0  0  0  0  0  0
    7.5158  -14.8775   17.5534 C   0  0  0  0  0  0  0  0  0  0  0  0
    8.0790  -14.9879   18.9628 C   0  0  2  0  0  0  0  0  0  0  0  0
    7.7804  -16.3139   19.5765 C   0  0  0  0  0  0  0  0  0  0  0  0
    7.4472  -13.8707   19.7557 C   0  0  2  0  0  0  0  0  0  0  0  0
    7.8359  -12.5752   19.1392 N   0  0  0  0  0  0  0  0  0  0  0  0
    7.9624  -13.8328   21.1383 C   0  0  0  0  0  0  0  0  0  0  0  0
    9.1318  -13.3691   21.3700 O   0  0  0  0  0  0  0  0  0  0  0  0
    6.7548  -11.1865   27.9589 C   0  0  0  0  0  0  0  0  0  0  0  0
    6.0449  -11.8852   26.4592 S   0  0  0  0  0  0  0  0  0  0  0  0
    7.1011  -13.2615   25.8792 C   0  0  0  0  0  0  0  0  0  0  0  0
    6.7276  -13.4998   24.4489 C   0  0  0  0  0  0  0  0  0  0  0  0
    7.8219  -14.1196   23.6329 C   0  0  2  0  0  0  0  0  0  0  0  0
    7.2574  -14.2723   22.2673 N   0  0  0  0  0  0  0  0  0  0  0  0
    8.3570  -15.3830   24.0562 C   0  0  0  0  0  0  0  0  0  0  0  0
    7.5444  -16.3156   24.3927 O   0  0  0  0  0  0  0  0  0  0  0  0
    9.7392  -15.7376   24.1463 N   0  0  0  0  0  0  0  0  0  0  0  0
   10.1919  -16.8545   24.9421 C   0  0  0  0  0  0  0  0  0  0  0  0
   11.6517  -16.9695   24.8555 C   0  0  0  0  0  0  0  0  0  0  0  0
   12.1733  -18.0656   24.5377 O   0  0  0  0  0  0  0  0  0  0  0  0
   12.4765  -15.8598   25.1259 O   0  0  0  0  0  0  0  0  0  0  0  0
  2  1  1  0
  3  2  1  0
  3  5  1  0
  3  4  1  1
  5  7  1  0
  5  6  1  6
  7  8  2  0
  9 10  1  0
 10 11  1  0
 11 12  1  0
 13 12  1  1
 14 13  1  0
 14  7  1  0
 15 17  1  0
 15 13  1  0
 16 15  2  0
 18 17  1  0
 19 18  1  0
 19 21  1  0
 20 19  2  0
M  END
$$$$
