IMG.pdb
     RDKit          3D

 21 20  0  0  1  0  0  0  0  0999 V2000
    8.1308  -16.0926   17.6196 C   0  0  0  0  0  0  0  0  0  0  0  0
    7.5812  -15.0257   18.5088 C   0  0  0  0  0  0  0  0  0  0  0  0
    8.1128  -15.1189   19.9317 C   0  0  2  0  0  0  0  0  0  0  0  0
    7.8537  -16.4586   20.5334 C   0  0  0  0  0  0  0  0  0  0  0  0
    7.4157  -14.0319   20.7119 C   0  0  2  0  0  0  0  0  0  0  0  0
    7.6262  -12.7380   20.0111 N   0  0  0  0  0  0  0  0  0  0  0  0
    8.0077  -13.8674   22.0538 C   0  0  0  0  0  0  0  0  0  0  0  0
    9.1063  -13.2268   22.1915 O   0  0  0  0  0  0  0  0  0  0  0  0
    7.6773  -11.2100   27.6215 C   0  0  0  0  0  0  0  0  0  0  0  0
    6.1291  -11.6813   26.8326 S   0  0  0  0  0  0  0  0  0  0  0  0
    6.4904  -12.4539   25.2144 C   0  0  0  0  0  0  0  0  0  0  0  0
    7.0935  -13.7910   25.5158 C   0  0  0  0  0  0  0  0  0  0  0  0
    8.1524  -14.2108   24.5411 C   0  0  2  0  0  0  0  0  0  0  0  0
    7.4517  -14.3656   23.2403 N   0  0  0  0  0  0  0  0  0  0  0  0
    8.8934  -15.4102   24.8130 C   0  0  0  0  0  0  0  0  0  0  0  0
    9.5081  -15.5152   25.9330 O   0  0  0  0  0  0  0  0  0  0  0  0
    9.0285  -16.5437   23.9521 N   0  0  0  0  0  0  0  0  0  0  0  0
    9.7298  -17.7373   24.3635 C   0  0  0  0  0  0  0  0  0  0  0  0
   11.1776  -17.5252   24.2623 C   0  0  0  0  0  0  0  0  0  0  0  0
   11.6207  -16.4090   23.8987 O   0  0  0  0  0  0  0  0  0  0  0  0
   12.0786  -18.5638   24.5696 O   0  0  0  0  0  0  0  0  0  0  0  0
  2  1  1  0
  3  2  1  0
  3  5  1  0
  3  4  1  1
  5  7  1  0
  5  6  1  6
  7  8  2  0
  9 10  1  0
 10 11  1  0
 11 12  1  0
 13 12  1  1
 14 13  1  0
 14  7  1  0
 15 17  1  0
 15 13  1  0
 16 15  2  0
 18 17  1  0
 19 18  1  0
 19 21  1  0
 20 19  2  0
M  END
$$$$
