IMG.pdb
     RDKit          3D

 21 20  0  0  1  0  0  0  0  0999 V2000
    7.7990  -12.1459   18.9146 C   0  0  0  0  0  0  0  0  0  0  0  0
    7.3196  -13.0229   20.0246 C   0  0  0  0  0  0  0  0  0  0  0  0
    7.6174  -14.4947   19.7774 C   0  0  2  0  0  0  0  0  0  0  0  0
    6.9820  -14.9852   18.5205 C   0  0  0  0  0  0  0  0  0  0  0  0
    7.0852  -15.2377   20.9777 C   0  0  2  0  0  0  0  0  0  0  0  0
    5.6558  -14.8741   21.1630 N   0  0  0  0  0  0  0  0  0  0  0  0
    7.7729  -14.8236   22.2163 C   0  0  0  0  0  0  0  0  0  0  0  0
    7.7965  -13.5889   22.5497 O   0  0  0  0  0  0  0  0  0  0  0  0
    6.7252  -11.5891   27.0330 C   0  0  0  0  0  0  0  0  0  0  0  0
    7.7518  -13.0675   26.9888 S   0  0  0  0  0  0  0  0  0  0  0  0
    7.5045  -13.9229   25.3909 C   0  0  0  0  0  0  0  0  0  0  0  0
    8.4386  -15.0933   25.3954 C   0  0  0  0  0  0  0  0  0  0  0  0
    9.3076  -15.1786   24.1769 C   0  0  2  0  0  0  0  0  0  0  0  0
    8.4256  -15.6953   23.0989 N   0  0  0  0  0  0  0  0  0  0  0  0
   10.4895  -15.9917   24.2370 C   0  0  0  0  0  0  0  0  0  0  0  0
   10.3683  -17.2369   24.5164 O   0  0  0  0  0  0  0  0  0  0  0  0
   11.8341  -15.5615   24.0102 N   0  0  0  0  0  0  0  0  0  0  0  0
   12.9438  -16.4857   24.0141 C   0  0  0  0  0  0  0  0  0  0  0  0
   13.4572  -16.6431   25.3791 C   0  0  0  0  0  0  0  0  0  0  0  0
   13.9058  -15.6466   25.9957 O   0  0  0  0  0  0  0  0  0  0  0  0
   13.4520  -17.9043   26.0070 O   0  0  0  0  0  0  0  0  0  0  0  0
  2  1  1  0
  3  2  1  0
  3  5  1  0
  3  4  1  6
  5  7  1  0
  5  6  1  1
  7  8  2  0
  9 10  1  0
 10 11  1  0
 11 12  1  0
 13 12  1  1
 14 13  1  0
 14  7  1  0
 15 17  1  0
 15 13  1  0
 16 15  2  0
 18 17  1  0
 19 18  1  0
 19 21  1  0
 20 19  2  0
M  END
$$$$
