IMG.pdb
     RDKit          3D

 21 20  0  0  1  0  0  0  0  0999 V2000
   10.3408  -19.2172   29.7382 C   0  0  0  0  0  0  0  0  0  0  0  0
    9.0721  -18.6963   29.1465 C   0  0  0  0  0  0  0  0  0  0  0  0
    9.2701  -18.1221   27.7511 C   0  0  2  0  0  0  0  0  0  0  0  0
   10.2901  -17.0342   27.7391 C   0  0  0  0  0  0  0  0  0  0  0  0
    7.9218  -17.6036   27.3159 C   0  0  2  0  0  0  0  0  0  0  0  0
    6.9891  -18.7548   27.1958 N   0  0  0  0  0  0  0  0  0  0  0  0
    7.9869  -16.9927   25.9739 C   0  0  0  0  0  0  0  0  0  0  0  0
    7.8971  -17.7305   24.9328 O   0  0  0  0  0  0  0  0  0  0  0  0
    5.1228  -11.5922   27.2067 C   0  0  0  0  0  0  0  0  0  0  0  0
    6.5638  -11.8564   26.1602 S   0  0  0  0  0  0  0  0  0  0  0  0
    6.3924  -13.4591   25.2954 C   0  0  0  0  0  0  0  0  0  0  0  0
    7.6515  -13.6440   24.5062 C   0  0  0  0  0  0  0  0  0  0  0  0
    8.0599  -15.0775   24.3454 C   0  0  2  0  0  0  0  0  0  0  0  0
    8.1402  -15.6216   25.7254 N   0  0  0  0  0  0  0  0  0  0  0  0
    9.2901  -15.3642   23.6628 C   0  0  0  0  0  0  0  0  0  0  0  0
   10.3960  -15.2050   24.2911 O   0  0  0  0  0  0  0  0  0  0  0  0
    9.4320  -15.8266   22.3173 N   0  0  0  0  0  0  0  0  0  0  0  0
   10.6421  -15.6127   21.5586 C   0  0  0  0  0  0  0  0  0  0  0  0
   11.5945  -16.6966   21.8224 C   0  0  0  0  0  0  0  0  0  0  0  0
   12.2037  -16.7388   22.9186 O   0  0  0  0  0  0  0  0  0  0  0  0
   11.8332  -17.6935   20.8559 O   0  0  0  0  0  0  0  0  0  0  0  0
  2  1  1  0
  3  2  1  0
  3  5  1  0
  3  4  1  1
  5  7  1  0
  5  6  1  6
  7  8  2  0
  9 10  1  0
 10 11  1  0
 11 12  1  0
 13 12  1  1
 14 13  1  0
 14  7  1  0
 15 17  1  0
 15 13  1  0
 16 15  2  0
 18 17  1  0
 19 18  1  0
 19 21  1  0
 20 19  2  0
M  END
$$$$
