QHE.pdb
     RDKit          3D

 29 29  0  0  1  0  0  0  0  0999 V2000
   14.1928  -19.6854   16.6679 N   0  0  0  0  0  0  0  0  0  0  0  0
   15.1288  -18.8630   15.9824 C   0  0  0  0  0  0  0  0  0  0  0  0
   16.1481  -19.4006   15.5148 O   0  0  0  0  0  0  0  0  0  0  0  0
   14.8248  -17.4071   15.8697 C   0  0  0  0  0  0  0  0  0  0  0  0
   13.8726  -17.2518   14.7052 C   0  0  0  0  0  0  0  0  0  0  0  0
   13.4770  -15.8236   14.4698 C   0  0  2  0  0  0  0  0  0  0  0  0
   14.5823  -15.0429   13.9738 N   0  0  0  0  0  0  0  0  0  0  0  0
   12.9688  -15.1639   15.6935 C   0  0  0  0  0  0  0  0  0  0  0  0
   13.7885  -14.5929   16.4528 O   0  0  0  0  0  0  0  0  0  0  0  0
   11.6027  -15.1484   16.0448 N   0  0  0  0  0  0  0  0  0  0  0  0
   11.1468  -14.5434   17.3357 C   0  0  1  0  0  0  0  0  0  0  0  0
    9.6755  -14.3659   17.2613 C   0  0  0  0  0  0  0  0  0  0  0  0
    8.9736  -13.8509   18.4349 C   0  0  0  0  0  0  0  0  0  0  0  0
    9.4670  -13.5212   19.6713 C   0  0  0  0  0  0  0  0  0  0  0  0
    8.4710  -13.1207   20.4989 N   0  0  0  0  0  0  0  0  0  0  0  0
    7.3412  -13.1990   19.7776 C   0  0  0  0  0  0  0  0  0  0  0  0
    7.6289  -13.6346   18.5412 N   0  0  0  0  0  0  0  0  0  0  0  0
   11.7411  -15.2558   18.4275 C   0  0  0  0  0  0  0  0  0  0  0  0
   11.9446  -16.5207   18.3080 O   0  0  0  0  0  0  0  0  0  0  0  0
   12.1534  -14.7108   19.6640 N   0  0  0  0  0  0  0  0  0  0  0  0
   12.8498  -15.5265   20.6542 C   0  0  1  0  0  0  0  0  0  0  0  0
   14.1540  -14.8283   21.0046 C   0  0  0  0  0  0  0  0  0  0  0  0
   14.9830  -15.5518   22.0023 C   0  0  0  0  0  0  0  0  0  0  0  0
   16.2758  -14.9065   22.3133 C   0  0  0  0  0  0  0  0  0  0  0  0
   16.8294  -14.1438   21.4925 O   0  0  0  0  0  0  0  0  0  0  0  0
   12.0625  -15.5795   21.8918 C   0  0  0  0  0  0  0  0  0  0  0  0
   11.0738  -14.8120   22.1017 O   0  0  0  0  0  0  0  0  0  0  0  0
   16.9171  -15.1248   23.5235 O   0  0  0  0  0  0  0  0  0  0  0  0
   12.3730  -16.4773   22.8832 O   0  0  0  0  0  0  0  0  0  0  0  0
  2  1  1  0
  2  3  2  0
  4  2  1  0
  5  4  1  0
  6  7  1  1
  6  5  1  0
  8  6  1  0
  9  8  2  0
 10  8  1  0
 11 18  1  0
 11 10  1  0
 11 12  1  1
 13 12  1  0
 13 14  2  0
 15 14  1  0
 16 15  1  0
 17 16  2  0
 17 13  1  0
 18 19  2  0
 20 18  1  0
 21 20  1  0
 21 22  1  1
 23 22  1  0
 24 25  2  0
 24 23  1  0
 26 29  1  0
 26 21  1  0
 27 26  2  0
 28 24  1  0
M  END
$$$$
