QHE.pdb
     RDKit          3D

 29 29  0  0  1  0  0  0  0  0999 V2000
   13.9779  -20.1530   14.0906 N   0  0  0  0  0  0  0  0  0  0  0  0
   15.1505  -19.3661   13.9229 C   0  0  0  0  0  0  0  0  0  0  0  0
   16.1414  -19.8980   13.3921 O   0  0  0  0  0  0  0  0  0  0  0  0
   15.1135  -17.9520   14.3959 C   0  0  0  0  0  0  0  0  0  0  0  0
   13.7279  -17.7177   14.9546 C   0  0  0  0  0  0  0  0  0  0  0  0
   13.1620  -16.3867   14.5546 C   0  0  2  0  0  0  0  0  0  0  0  0
   14.1276  -15.5959   13.8339 N   0  0  0  0  0  0  0  0  0  0  0  0
   12.7000  -15.5920   15.7146 C   0  0  0  0  0  0  0  0  0  0  0  0
   13.5585  -15.0459   16.4491 O   0  0  0  0  0  0  0  0  0  0  0  0
   11.3362  -15.4208   16.0320 N   0  0  0  0  0  0  0  0  0  0  0  0
   10.9196  -14.6661   17.2556 C   0  0  1  0  0  0  0  0  0  0  0  0
    9.4550  -14.4413   17.1758 C   0  0  0  0  0  0  0  0  0  0  0  0
    8.7855  -13.7920   18.3006 C   0  0  0  0  0  0  0  0  0  0  0  0
    9.2810  -13.4553   19.5343 C   0  0  0  0  0  0  0  0  0  0  0  0
    8.3153  -12.9052   20.3101 N   0  0  0  0  0  0  0  0  0  0  0  0
    7.2026  -12.8955   19.5588 C   0  0  0  0  0  0  0  0  0  0  0  0
    7.4711  -13.4235   18.3546 N   0  0  0  0  0  0  0  0  0  0  0  0
   11.5011  -15.2814   18.4114 C   0  0  0  0  0  0  0  0  0  0  0  0
   11.4944  -16.5649   18.5027 O   0  0  0  0  0  0  0  0  0  0  0  0
   12.1117  -14.6202   19.5003 N   0  0  0  0  0  0  0  0  0  0  0  0
   12.7839  -15.3691   20.5579 C   0  0  1  0  0  0  0  0  0  0  0  0
   14.0512  -14.6178   20.9328 C   0  0  0  0  0  0  0  0  0  0  0  0
   14.8904  -15.3069   21.9462 C   0  0  0  0  0  0  0  0  0  0  0  0
   16.1576  -14.6179   22.2683 C   0  0  0  0  0  0  0  0  0  0  0  0
   16.5636  -13.6589   21.5775 O   0  0  0  0  0  0  0  0  0  0  0  0
   11.9424  -15.3882   21.7603 C   0  0  0  0  0  0  0  0  0  0  0  0
   10.9408  -14.6217   21.9011 O   0  0  0  0  0  0  0  0  0  0  0  0
   16.9376  -15.0111   23.3457 O   0  0  0  0  0  0  0  0  0  0  0  0
   12.2135  -16.2516   22.7929 O   0  0  0  0  0  0  0  0  0  0  0  0
  2  1  1  0
  2  3  2  0
  4  2  1  0
  5  4  1  0
  6  7  1  1
  6  5  1  0
  8  6  1  0
  9  8  2  0
 10  8  1  0
 11 18  1  0
 11 10  1  0
 11 12  1  1
 13 12  1  0
 13 14  2  0
 15 14  1  0
 16 15  1  0
 17 16  2  0
 17 13  1  0
 18 19  2  0
 20 18  1  0
 21 20  1  0
 21 22  1  1
 23 22  1  0
 24 25  2  0
 24 23  1  0
 26 29  1  0
 26 21  1  0
 27 26  2  0
 28 24  1  0
M  END
$$$$
