QHE.pdb
     RDKit          3D

 29 29  0  0  1  0  0  0  0  0999 V2000
   13.1125  -20.4000   15.1583 N   0  0  0  0  0  0  0  0  0  0  0  0
   13.7899  -19.5392   14.2515 C   0  0  0  0  0  0  0  0  0  0  0  0
   14.6535  -20.0360   13.5072 O   0  0  0  0  0  0  0  0  0  0  0  0
   13.4186  -18.0946   14.2534 C   0  0  0  0  0  0  0  0  0  0  0  0
   12.0193  -18.0058   13.6867 C   0  0  0  0  0  0  0  0  0  0  0  0
   11.5573  -16.5891   13.5100 C   0  0  2  0  0  0  0  0  0  0  0  0
   12.4395  -15.8486   12.6438 N   0  0  0  0  0  0  0  0  0  0  0  0
   11.4611  -15.8569   14.7927 C   0  0  0  0  0  0  0  0  0  0  0  0
   12.4794  -15.2633   15.2235 O   0  0  0  0  0  0  0  0  0  0  0  0
   10.2748  -15.7963   15.5536 N   0  0  0  0  0  0  0  0  0  0  0  0
   10.1904  -14.9440   16.7811 C   0  0  1  0  0  0  0  0  0  0  0  0
    8.7591  -14.8192   17.1518 C   0  0  0  0  0  0  0  0  0  0  0  0
    8.4058  -13.9999   18.3090 C   0  0  0  0  0  0  0  0  0  0  0  0
    9.2172  -13.2811   19.1492 C   0  0  0  0  0  0  0  0  0  0  0  0
    8.4946  -12.6915   20.1327 N   0  0  0  0  0  0  0  0  0  0  0  0
    7.2178  -13.0419   19.9099 C   0  0  0  0  0  0  0  0  0  0  0  0
    7.1518  -13.8246   18.8218 N   0  0  0  0  0  0  0  0  0  0  0  0
   11.1549  -15.3974   17.7386 C   0  0  0  0  0  0  0  0  0  0  0  0
   11.4329  -16.6525   17.7953 O   0  0  0  0  0  0  0  0  0  0  0  0
   11.8701  -14.5972   18.6574 N   0  0  0  0  0  0  0  0  0  0  0  0
   12.9268  -15.1643   19.4898 C   0  0  1  0  0  0  0  0  0  0  0  0
   14.1210  -14.2249   19.4375 C   0  0  0  0  0  0  0  0  0  0  0  0
   15.2825  -14.6709   20.2486 C   0  0  0  0  0  0  0  0  0  0  0  0
   16.4724  -13.7996   20.1519 C   0  0  0  0  0  0  0  0  0  0  0  0
   17.1002  -13.4499   21.1744 O   0  0  0  0  0  0  0  0  0  0  0  0
   12.4874  -15.1984   20.8898 C   0  0  0  0  0  0  0  0  0  0  0  0
   11.4733  -14.5549   21.2997 O   0  0  0  0  0  0  0  0  0  0  0  0
   16.9319  -13.3414   18.9261 O   0  0  0  0  0  0  0  0  0  0  0  0
   13.1696  -15.9413   21.8216 O   0  0  0  0  0  0  0  0  0  0  0  0
  2  1  1  0
  2  3  2  0
  4  2  1  0
  5  4  1  0
  6  7  1  6
  6  5  1  0
  8  6  1  0
  9  8  2  0
 10  8  1  0
 11 18  1  0
 11 10  1  0
 11 12  1  1
 13 12  1  0
 13 14  2  0
 15 14  1  0
 16 15  1  0
 17 16  2  0
 17 13  1  0
 18 19  2  0
 20 18  1  0
 21 20  1  0
 21 22  1  1
 23 22  1  0
 24 25  2  0
 24 23  1  0
 26 29  1  0
 26 21  1  0
 27 26  2  0
 28 24  1  0
M  END
$$$$
