QHE.pdb
     RDKit          3D

 29 29  0  0  1  0  0  0  0  0999 V2000
   17.8560  -12.5674   16.5110 N   0  0  0  0  0  0  0  0  0  0  0  0
   17.6652  -13.3372   15.3306 C   0  0  0  0  0  0  0  0  0  0  0  0
   18.4255  -13.1312   14.3682 O   0  0  0  0  0  0  0  0  0  0  0  0
   16.5636  -14.3428   15.3256 C   0  0  0  0  0  0  0  0  0  0  0  0
   15.7875  -14.1422   16.6080 C   0  0  0  0  0  0  0  0  0  0  0  0
   14.6478  -15.1079   16.7497 C   0  0  2  0  0  0  0  0  0  0  0  0
   13.9370  -15.2740   15.5070 N   0  0  0  0  0  0  0  0  0  0  0  0
   13.6702  -14.6886   17.7788 C   0  0  0  0  0  0  0  0  0  0  0  0
   14.0966  -14.1465   18.8272 O   0  0  0  0  0  0  0  0  0  0  0  0
   12.2789  -14.8713   17.6339 N   0  0  0  0  0  0  0  0  0  0  0  0
   11.3308  -14.4497   18.7127 C   0  0  1  0  0  0  0  0  0  0  0  0
    9.9957  -14.2545   18.0954 C   0  0  0  0  0  0  0  0  0  0  0  0
    8.8949  -13.7983   18.9409 C   0  0  0  0  0  0  0  0  0  0  0  0
    8.8552  -13.6195   20.3001 C   0  0  0  0  0  0  0  0  0  0  0  0
    7.6221  -13.2241   20.7006 N   0  0  0  0  0  0  0  0  0  0  0  0
    6.8793  -13.1534   19.5844 C   0  0  0  0  0  0  0  0  0  0  0  0
    7.6294  -13.4947   18.5252 N   0  0  0  0  0  0  0  0  0  0  0  0
   11.4913  -15.3111   19.8462 C   0  0  0  0  0  0  0  0  0  0  0  0
   11.5818  -16.5804   19.6553 O   0  0  0  0  0  0  0  0  0  0  0  0
   11.5733  -14.9154   21.2000 N   0  0  0  0  0  0  0  0  0  0  0  0
   11.7298  -15.8999   22.2664 C   0  0  1  0  0  0  0  0  0  0  0  0
   13.0893  -15.6819   22.9110 C   0  0  0  0  0  0  0  0  0  0  0  0
   14.2356  -16.1373   22.0837 C   0  0  0  0  0  0  0  0  0  0  0  0
   15.5642  -15.8878   22.6811 C   0  0  0  0  0  0  0  0  0  0  0  0
   15.6752  -15.3634   23.8100 O   0  0  0  0  0  0  0  0  0  0  0  0
   10.7308  -15.6562   23.3135 C   0  0  0  0  0  0  0  0  0  0  0  0
    9.9512  -14.6551   23.2893 O   0  0  0  0  0  0  0  0  0  0  0  0
   16.7304  -16.2264   22.0109 O   0  0  0  0  0  0  0  0  0  0  0  0
   10.6016  -16.5182   24.3745 O   0  0  0  0  0  0  0  0  0  0  0  0
  2  1  1  0
  2  3  2  0
  4  2  1  0
  5  4  1  0
  6  7  1  6
  6  5  1  0
  8  6  1  0
  9  8  2  0
 10  8  1  0
 11 18  1  0
 11 10  1  0
 11 12  1  6
 13 12  1  0
 13 14  2  0
 15 14  1  0
 16 15  1  0
 17 16  2  0
 17 13  1  0
 18 19  2  0
 20 18  1  0
 21 20  1  0
 21 22  1  1
 23 22  1  0
 24 25  2  0
 24 23  1  0
 26 29  1  0
 26 21  1  0
 27 26  2  0
 28 24  1  0
M  END
$$$$
