QHE.pdb
     RDKit          3D

 29 29  0  0  1  0  0  0  0  0999 V2000
    7.0577  -20.4923   19.8539 N   0  0  0  0  0  0  0  0  0  0  0  0
    8.4384  -20.3136   20.1441 C   0  0  0  0  0  0  0  0  0  0  0  0
    9.1386  -21.3285   20.3060 O   0  0  0  0  0  0  0  0  0  0  0  0
    8.9557  -18.9175   20.2351 C   0  0  0  0  0  0  0  0  0  0  0  0
    7.7979  -18.0035   19.9020 C   0  0  0  0  0  0  0  0  0  0  0  0
    8.1968  -16.5574   19.8645 C   0  0  2  0  0  0  0  0  0  0  0  0
    9.3324  -16.3436   19.0032 N   0  0  0  0  0  0  0  0  0  0  0  0
    8.5362  -16.0249   21.2032 C   0  0  0  0  0  0  0  0  0  0  0  0
    9.7422  -15.9919   21.5486 O   0  0  0  0  0  0  0  0  0  0  0  0
    7.5637  -15.5524   22.1092 N   0  0  0  0  0  0  0  0  0  0  0  0
    7.9583  -15.0021   23.4441 C   0  0  1  0  0  0  0  0  0  0  0  0
    6.7889  -14.2796   24.0029 C   0  0  0  0  0  0  0  0  0  0  0  0
    6.9455  -13.5731   25.2723 C   0  0  0  0  0  0  0  0  0  0  0  0
    8.0183  -13.5408   26.1262 C   0  0  0  0  0  0  0  0  0  0  0  0
    7.7401  -12.7978   27.2251 N   0  0  0  0  0  0  0  0  0  0  0  0
    6.4818  -12.3587   27.0619 C   0  0  0  0  0  0  0  0  0  0  0  0
    5.9958  -12.8158   25.8975 N   0  0  0  0  0  0  0  0  0  0  0  0
    8.6136  -16.0258   24.2024 C   0  0  0  0  0  0  0  0  0  0  0  0
    8.1581  -17.2280   24.1487 O   0  0  0  0  0  0  0  0  0  0  0  0
    9.7495  -15.8665   25.0273 N   0  0  0  0  0  0  0  0  0  0  0  0
   10.3426  -17.0041   25.7238 C   0  0  1  0  0  0  0  0  0  0  0  0
   11.8120  -17.0755   25.3404 C   0  0  0  0  0  0  0  0  0  0  0  0
   12.5912  -18.0861   26.1004 C   0  0  0  0  0  0  0  0  0  0  0  0
   13.3466  -19.0399   25.2615 C   0  0  0  0  0  0  0  0  0  0  0  0
   13.4469  -20.2431   25.5841 O   0  0  0  0  0  0  0  0  0  0  0  0
   10.3030  -16.7712   27.1723 C   0  0  0  0  0  0  0  0  0  0  0  0
   10.0008  -15.6442   27.6715 O   0  0  0  0  0  0  0  0  0  0  0  0
   13.9685  -18.6334   24.0903 O   0  0  0  0  0  0  0  0  0  0  0  0
   10.5960  -17.7822   28.0540 O   0  0  0  0  0  0  0  0  0  0  0  0
  2  1  1  0
  2  3  2  0
  4  2  1  0
  5  4  1  0
  6  7  1  6
  6  5  1  0
  8  6  1  0
  9  8  2  0
 10  8  1  0
 11 18  1  0
 11 10  1  0
 11 12  1  1
 13 12  1  0
 13 14  2  0
 15 14  1  0
 16 15  1  0
 17 16  2  0
 17 13  1  0
 18 19  2  0
 20 18  1  0
 21 20  1  0
 21 22  1  6
 23 22  1  0
 24 25  2  0
 24 23  1  0
 26 29  1  0
 26 21  1  0
 27 26  2  0
 28 24  1  0
M  END
$$$$
