QHE.pdb
     RDKit          3D

 29 29  0  0  1  0  0  0  0  0999 V2000
    9.7675  -15.2073   15.2589 N   0  0  0  0  0  0  0  0  0  0  0  0
    8.6701  -16.0581   15.5654 C   0  0  0  0  0  0  0  0  0  0  0  0
    7.5209  -15.6251   15.3690 O   0  0  0  0  0  0  0  0  0  0  0  0
    8.9711  -17.4165   16.1031 C   0  0  0  0  0  0  0  0  0  0  0  0
   10.4775  -17.5468   16.1332 C   0  0  0  0  0  0  0  0  0  0  0  0
   10.9772  -18.1720   17.4025 C   0  0  2  0  0  0  0  0  0  0  0  0
   10.1520  -19.2825   17.8063 N   0  0  0  0  0  0  0  0  0  0  0  0
   11.0294  -17.2126   18.5283 C   0  0  0  0  0  0  0  0  0  0  0  0
   11.8583  -16.2718   18.4780 O   0  0  0  0  0  0  0  0  0  0  0  0
   10.1880  -17.3084   19.6565 N   0  0  0  0  0  0  0  0  0  0  0  0
   10.2489  -16.2889   20.7508 C   0  0  1  0  0  0  0  0  0  0  0  0
    8.8873  -15.7252   20.9247 C   0  0  0  0  0  0  0  0  0  0  0  0
    8.4673  -14.6313   20.0518 C   0  0  0  0  0  0  0  0  0  0  0  0
    9.1906  -13.9323   19.1196 C   0  0  0  0  0  0  0  0  0  0  0  0
    8.4368  -12.9590   18.5523 N   0  0  0  0  0  0  0  0  0  0  0  0
    7.2290  -13.0460   19.1321 C   0  0  0  0  0  0  0  0  0  0  0  0
    7.2347  -14.0425   20.0310 N   0  0  0  0  0  0  0  0  0  0  0  0
   10.9597  -16.8363   21.8678 C   0  0  0  0  0  0  0  0  0  0  0  0
   10.5416  -17.9335   22.3943 O   0  0  0  0  0  0  0  0  0  0  0  0
   12.1145  -16.2971   22.4775 N   0  0  0  0  0  0  0  0  0  0  0  0
   12.8398  -17.0357   23.5068 C   0  0  1  0  0  0  0  0  0  0  0  0
   14.2231  -16.4194   23.6405 C   0  0  0  0  0  0  0  0  0  0  0  0
   15.0586  -17.0244   24.7091 C   0  0  0  0  0  0  0  0  0  0  0  0
   16.4061  -16.4331   24.8466 C   0  0  0  0  0  0  0  0  0  0  0  0
   17.1748  -16.7874   25.7661 O   0  0  0  0  0  0  0  0  0  0  0  0
   12.1777  -16.8535   24.8040 C   0  0  0  0  0  0  0  0  0  0  0  0
   11.3463  -15.9187   25.0173 O   0  0  0  0  0  0  0  0  0  0  0  0
   16.8625  -15.4673   23.9621 O   0  0  0  0  0  0  0  0  0  0  0  0
   12.4385  -17.7033   25.8505 O   0  0  0  0  0  0  0  0  0  0  0  0
  2  1  1  0
  2  3  2  0
  4  2  1  0
  5  4  1  0
  6  7  1  1
  6  5  1  0
  8  6  1  0
  9  8  2  0
 10  8  1  0
 11 18  1  0
 11 10  1  0
 11 12  1  1
 13 12  1  0
 13 14  2  0
 15 14  1  0
 16 15  1  0
 17 16  2  0
 17 13  1  0
 18 19  2  0
 20 18  1  0
 21 20  1  0
 21 22  1  1
 23 22  1  0
 24 25  2  0
 24 23  1  0
 26 29  1  0
 26 21  1  0
 27 26  2  0
 28 24  1  0
M  END
$$$$
