QHE.pdb
     RDKit          3D

 29 29  0  0  1  0  0  0  0  0999 V2000
   16.7454  -13.5119   18.1748 N   0  0  0  0  0  0  0  0  0  0  0  0
   15.8366  -13.5564   17.0819 C   0  0  0  0  0  0  0  0  0  0  0  0
   16.0868  -12.8579   16.0838 O   0  0  0  0  0  0  0  0  0  0  0  0
   14.6413  -14.4399   17.2058 C   0  0  0  0  0  0  0  0  0  0  0  0
   14.5856  -14.8945   18.6470 C   0  0  0  0  0  0  0  0  0  0  0  0
   13.5158  -15.9188   18.8880 C   0  0  2  0  0  0  0  0  0  0  0  0
   12.6789  -16.0932   17.7277 N   0  0  0  0  0  0  0  0  0  0  0  0
   12.6410  -15.5713   20.0302 C   0  0  0  0  0  0  0  0  0  0  0  0
   13.1513  -15.0063   21.0277 O   0  0  0  0  0  0  0  0  0  0  0  0
   11.2577  -15.8473   20.0478 N   0  0  0  0  0  0  0  0  0  0  0  0
   10.4283  -15.5469   21.2571 C   0  0  1  0  0  0  0  0  0  0  0  0
    9.0291  -15.3376   20.8095 C   0  0  0  0  0  0  0  0  0  0  0  0
    8.7455  -14.2332   19.8959 C   0  0  0  0  0  0  0  0  0  0  0  0
    9.5901  -13.2740   19.3982 C   0  0  0  0  0  0  0  0  0  0  0  0
    8.9181  -12.3983   18.6116 N   0  0  0  0  0  0  0  0  0  0  0  0
    7.6400  -12.8093   18.6142 C   0  0  0  0  0  0  0  0  0  0  0  0
    7.5241  -13.9061   19.3789 N   0  0  0  0  0  0  0  0  0  0  0  0
   10.7305  -16.4974   22.2856 C   0  0  0  0  0  0  0  0  0  0  0  0
   10.6413  -17.7529   22.0182 O   0  0  0  0  0  0  0  0  0  0  0  0
   11.1386  -16.2077   23.6067 N   0  0  0  0  0  0  0  0  0  0  0  0
   11.3803  -17.2744   24.5735 C   0  0  1  0  0  0  0  0  0  0  0  0
   12.8015  -17.1248   25.0924 C   0  0  0  0  0  0  0  0  0  0  0  0
   13.8518  -17.3853   24.0750 C   0  0  0  0  0  0  0  0  0  0  0  0
   15.2373  -17.2610   24.5741 C   0  0  0  0  0  0  0  0  0  0  0  0
   15.7280  -18.1221   25.3354 O   0  0  0  0  0  0  0  0  0  0  0  0
   10.4958  -17.1005   25.7317 C   0  0  0  0  0  0  0  0  0  0  0  0
    9.7283  -16.0976   25.8562 O   0  0  0  0  0  0  0  0  0  0  0  0
   16.0384  -16.1871   24.2155 O   0  0  0  0  0  0  0  0  0  0  0  0
   10.4665  -18.0335   26.7387 O   0  0  0  0  0  0  0  0  0  0  0  0
  2  1  1  0
  2  3  2  0
  4  2  1  0
  5  4  1  0
  6  7  1  6
  6  5  1  0
  8  6  1  0
  9  8  2  0
 10  8  1  0
 11 18  1  0
 11 10  1  0
 11 12  1  6
 13 12  1  0
 13 14  2  0
 15 14  1  0
 16 15  1  0
 17 16  2  0
 17 13  1  0
 18 19  2  0
 20 18  1  0
 21 20  1  0
 21 22  1  1
 23 22  1  0
 24 25  2  0
 24 23  1  0
 26 29  1  0
 26 21  1  0
 27 26  2  0
 28 24  1  0
M  END
$$$$
