QHE.pdb
     RDKit          3D

 29 29  0  0  1  0  0  0  0  0999 V2000
   18.5623  -16.2638   11.3130 N   0  0  0  0  0  0  0  0  0  0  0  0
   18.5969  -16.9960   12.5316 C   0  0  0  0  0  0  0  0  0  0  0  0
   19.4476  -16.6785   13.3813 O   0  0  0  0  0  0  0  0  0  0  0  0
   17.6081  -18.0984   12.7098 C   0  0  0  0  0  0  0  0  0  0  0  0
   16.9809  -17.9025   14.0718 C   0  0  0  0  0  0  0  0  0  0  0  0
   15.4835  -17.8264   14.0119 C   0  0  2  0  0  0  0  0  0  0  0  0
   15.0416  -16.7543   13.1562 N   0  0  0  0  0  0  0  0  0  0  0  0
   14.8692  -17.6264   15.3436 C   0  0  0  0  0  0  0  0  0  0  0  0
   14.5967  -16.4576   15.7101 O   0  0  0  0  0  0  0  0  0  0  0  0
   14.5762  -18.6920   16.2203 N   0  0  0  0  0  0  0  0  0  0  0  0
   13.8739  -18.4487   17.5196 C   0  0  1  0  0  0  0  0  0  0  0  0
   12.4580  -18.8618   17.3566 C   0  0  0  0  0  0  0  0  0  0  0  0
   11.6020  -18.9044   18.5399 C   0  0  0  0  0  0  0  0  0  0  0  0
   11.3111  -19.9578   19.3686 C   0  0  0  0  0  0  0  0  0  0  0  0
   10.4329  -19.5875   20.3323 N   0  0  0  0  0  0  0  0  0  0  0  0
   10.1685  -18.2903   20.1086 C   0  0  0  0  0  0  0  0  0  0  0  0
   10.8619  -17.8703   19.0391 N   0  0  0  0  0  0  0  0  0  0  0  0
   14.6676  -18.9724   18.5912 C   0  0  0  0  0  0  0  0  0  0  0  0
   15.2307  -20.1201   18.4452 O   0  0  0  0  0  0  0  0  0  0  0  0
   14.9213  -18.3496   19.8337 N   0  0  0  0  0  0  0  0  0  0  0  0
   15.6696  -19.0350   20.8831 C   0  0  1  0  0  0  0  0  0  0  0  0
   16.3666  -17.9807   21.7280 C   0  0  0  0  0  0  0  0  0  0  0  0
   17.4095  -17.2110   21.0028 C   0  0  0  0  0  0  0  0  0  0  0  0
   18.1229  -16.2125   21.8265 C   0  0  0  0  0  0  0  0  0  0  0  0
   17.5114  -15.5065   22.6568 O   0  0  0  0  0  0  0  0  0  0  0  0
   14.7386  -19.7336   21.7772 C   0  0  0  0  0  0  0  0  0  0  0  0
   13.4809  -19.5817   21.7020 O   0  0  0  0  0  0  0  0  0  0  0  0
   19.4919  -16.0254   21.7065 O   0  0  0  0  0  0  0  0  0  0  0  0
   15.2036  -20.5916   22.7431 O   0  0  0  0  0  0  0  0  0  0  0  0
  2  1  1  0
  2  3  2  0
  4  2  1  0
  5  4  1  0
  6  7  1  6
  6  5  1  0
  8  6  1  0
  9  8  2  0
 10  8  1  0
 11 18  1  0
 11 10  1  0
 11 12  1  6
 13 12  1  0
 13 14  2  0
 15 14  1  0
 16 15  1  0
 17 16  2  0
 17 13  1  0
 18 19  2  0
 20 18  1  0
 21 20  1  0
 21 22  1  1
 23 22  1  0
 24 25  2  0
 24 23  1  0
 26 29  1  0
 26 21  1  0
 27 26  2  0
 28 24  1  0
M  END
$$$$
