QHE.pdb
     RDKit          3D

 29 29  0  0  1  0  0  0  0  0999 V2000
   12.0905  -18.4998   14.4477 N   0  0  0  0  0  0  0  0  0  0  0  0
   11.2047  -17.8890   13.5179 C   0  0  0  0  0  0  0  0  0  0  0  0
   11.1698  -18.3401   12.3595 O   0  0  0  0  0  0  0  0  0  0  0  0
   10.3746  -16.7453   13.9951 C   0  0  0  0  0  0  0  0  0  0  0  0
    9.1014  -17.3379   14.5560 C   0  0  0  0  0  0  0  0  0  0  0  0
    8.1167  -16.2895   14.9838 C   0  0  2  0  0  0  0  0  0  0  0  0
    7.6433  -15.5185   13.8620 N   0  0  0  0  0  0  0  0  0  0  0  0
    8.6822  -15.3474   15.9755 C   0  0  0  0  0  0  0  0  0  0  0  0
    8.5788  -14.1153   15.7606 O   0  0  0  0  0  0  0  0  0  0  0  0
    9.3328  -15.7728   17.1526 N   0  0  0  0  0  0  0  0  0  0  0  0
    9.3507  -14.9112   18.3764 C   0  0  1  0  0  0  0  0  0  0  0  0
    7.9561  -14.4890   18.6570 C   0  0  0  0  0  0  0  0  0  0  0  0
    7.6859  -13.7398   19.8820 C   0  0  0  0  0  0  0  0  0  0  0  0
    7.7452  -12.3886   20.1091 C   0  0  0  0  0  0  0  0  0  0  0  0
    7.4621  -12.1024   21.4034 N   0  0  0  0  0  0  0  0  0  0  0  0
    7.2227  -13.2831   21.9961 C   0  0  0  0  0  0  0  0  0  0  0  0
    7.3535  -14.2702   21.0963 N   0  0  0  0  0  0  0  0  0  0  0  0
   10.1383  -15.5467   19.3905 C   0  0  0  0  0  0  0  0  0  0  0  0
   10.0757  -16.8257   19.5166 O   0  0  0  0  0  0  0  0  0  0  0  0
   11.0153  -14.9112   20.2976 N   0  0  0  0  0  0  0  0  0  0  0  0
   11.8253  -15.6857   21.2332 C   0  0  1  0  0  0  0  0  0  0  0  0
   13.1887  -15.0210   21.3358 C   0  0  0  0  0  0  0  0  0  0  0  0
   14.3038  -15.8300   20.7806 C   0  0  0  0  0  0  0  0  0  0  0  0
   15.6409  -15.2172   20.9249 C   0  0  0  0  0  0  0  0  0  0  0  0
   16.6681  -15.8113   20.5329 O   0  0  0  0  0  0  0  0  0  0  0  0
   11.2301  -15.6196   22.5731 C   0  0  0  0  0  0  0  0  0  0  0  0
   11.7262  -16.2316   23.5681 O   0  0  0  0  0  0  0  0  0  0  0  0
   15.8011  -13.9648   21.4989 O   0  0  0  0  0  0  0  0  0  0  0  0
   10.0962  -14.8798   22.8017 O   0  0  0  0  0  0  0  0  0  0  0  0
  2  1  1  0
  2  3  2  0
  4  2  1  0
  5  4  1  0
  6  7  1  6
  6  5  1  0
  8  6  1  0
  9  8  2  0
 10  8  1  0
 11 18  1  0
 11 10  1  0
 11 12  1  1
 13 12  1  0
 13 14  2  0
 15 14  1  0
 16 15  1  0
 17 16  2  0
 17 13  1  0
 18 19  2  0
 20 18  1  0
 21 20  1  0
 21 22  1  1
 23 22  1  0
 24 25  2  0
 24 23  1  0
 26 29  1  0
 26 21  1  0
 27 26  2  0
 28 24  1  0
M  END
$$$$
