QHE.pdb
     RDKit          3D

 29 29  0  0  1  0  0  0  0  0999 V2000
    8.5903  -12.6437   16.9808 N   0  0  0  0  0  0  0  0  0  0  0  0
    8.2637  -13.9300   16.4698 C   0  0  0  0  0  0  0  0  0  0  0  0
    8.2545  -14.0846   15.2359 O   0  0  0  0  0  0  0  0  0  0  0  0
    7.9532  -15.0104   17.4502 C   0  0  0  0  0  0  0  0  0  0  0  0
    8.1525  -14.4171   18.8268 C   0  0  0  0  0  0  0  0  0  0  0  0
    8.6650  -15.4198   19.8186 C   0  0  2  0  0  0  0  0  0  0  0  0
    7.8463  -16.6056   19.8439 N   0  0  0  0  0  0  0  0  0  0  0  0
    8.7247  -14.8803   21.1956 C   0  0  0  0  0  0  0  0  0  0  0  0
    9.6144  -14.0401   21.4736 O   0  0  0  0  0  0  0  0  0  0  0  0
    7.8254  -15.2687   22.2105 N   0  0  0  0  0  0  0  0  0  0  0  0
    8.0280  -14.8306   23.6273 C   0  0  1  0  0  0  0  0  0  0  0  0
    6.7203  -14.3648   24.1517 C   0  0  0  0  0  0  0  0  0  0  0  0
    6.6715  -13.7849   25.4920 C   0  0  0  0  0  0  0  0  0  0  0  0
    7.6622  -13.6827   26.4349 C   0  0  0  0  0  0  0  0  0  0  0  0
    7.1916  -13.1146   27.5719 N   0  0  0  0  0  0  0  0  0  0  0  0
    5.8939  -12.8571   27.3432 C   0  0  0  0  0  0  0  0  0  0  0  0
    5.5708  -13.2536   26.1024 N   0  0  0  0  0  0  0  0  0  0  0  0
    8.7809  -15.8283   24.3276 C   0  0  0  0  0  0  0  0  0  0  0  0
    8.3774  -17.0497   24.2944 O   0  0  0  0  0  0  0  0  0  0  0  0
    9.9640  -15.6226   25.0718 N   0  0  0  0  0  0  0  0  0  0  0  0
   10.6686  -16.7395   25.6940 C   0  0  1  0  0  0  0  0  0  0  0  0
   12.1406  -16.6269   25.3310 C   0  0  0  0  0  0  0  0  0  0  0  0
   12.4098  -16.6322   23.8703 C   0  0  0  0  0  0  0  0  0  0  0  0
   13.8398  -16.5461   23.5070 C   0  0  0  0  0  0  0  0  0  0  0  0
   14.7223  -16.4340   24.3848 O   0  0  0  0  0  0  0  0  0  0  0  0
   10.5916  -16.6195   27.1547 C   0  0  0  0  0  0  0  0  0  0  0  0
   10.0622  -15.6184   27.7274 O   0  0  0  0  0  0  0  0  0  0  0  0
   14.2502  -16.5867   22.1828 O   0  0  0  0  0  0  0  0  0  0  0  0
   11.0977  -17.6038   27.9674 O   0  0  0  0  0  0  0  0  0  0  0  0
  2  1  1  0
  2  3  2  0
  4  2  1  0
  5  4  1  0
  6  7  1  1
  6  5  1  0
  8  6  1  0
  9  8  2  0
 10  8  1  0
 11 18  1  0
 11 10  1  0
 11 12  1  1
 13 12  1  0
 13 14  2  0
 15 14  1  0
 16 15  1  0
 17 16  2  0
 17 13  1  0
 18 19  2  0
 20 18  1  0
 21 20  1  0
 21 22  1  1
 23 22  1  0
 24 25  2  0
 24 23  1  0
 26 29  1  0
 26 21  1  0
 27 26  2  0
 28 24  1  0
M  END
$$$$
