QHE.pdb
     RDKit          3D

 29 29  0  0  1  0  0  0  0  0999 V2000
   13.4323  -19.4494   15.3561 N   0  0  0  0  0  0  0  0  0  0  0  0
   12.9171  -19.1511   14.0646 C   0  0  0  0  0  0  0  0  0  0  0  0
   12.9053  -20.0592   13.2150 O   0  0  0  0  0  0  0  0  0  0  0  0
   12.4239  -17.7658   13.8146 C   0  0  0  0  0  0  0  0  0  0  0  0
   12.6353  -16.9923   15.0968 C   0  0  0  0  0  0  0  0  0  0  0  0
   11.3879  -16.3036   15.5674 C   0  0  2  0  0  0  0  0  0  0  0  0
   10.9140  -15.3469   14.5992 N   0  0  0  0  0  0  0  0  0  0  0  0
   11.5791  -15.5927   16.8515 C   0  0  0  0  0  0  0  0  0  0  0  0
   12.3438  -14.5981   16.8795 O   0  0  0  0  0  0  0  0  0  0  0  0
   10.9397  -15.9837   18.0465 N   0  0  0  0  0  0  0  0  0  0  0  0
   11.0876  -15.1763   19.2982 C   0  0  1  0  0  0  0  0  0  0  0  0
    9.7412  -15.0214   19.9023 C   0  0  0  0  0  0  0  0  0  0  0  0
    8.7353  -14.2474   19.1783 C   0  0  0  0  0  0  0  0  0  0  0  0
    8.5409  -12.8903   19.1388 C   0  0  0  0  0  0  0  0  0  0  0  0
    7.4631  -12.5777   18.3787 N   0  0  0  0  0  0  0  0  0  0  0  0
    6.9748  -13.7474   17.9361 C   0  0  0  0  0  0  0  0  0  0  0  0
    7.7273  -14.7536   18.4076 N   0  0  0  0  0  0  0  0  0  0  0  0
   12.1776  -15.6955   20.0696 C   0  0  0  0  0  0  0  0  0  0  0  0
   12.3344  -16.9703   20.1457 O   0  0  0  0  0  0  0  0  0  0  0  0
   13.1424  -14.9436   20.7767 N   0  0  0  0  0  0  0  0  0  0  0  0
   14.2861  -15.5905   21.4127 C   0  0  1  0  0  0  0  0  0  0  0  0
   15.4397  -14.6003   21.4234 C   0  0  0  0  0  0  0  0  0  0  0  0
   16.6658  -15.1011   22.0954 C   0  0  0  0  0  0  0  0  0  0  0  0
   17.7993  -14.1527   22.0957 C   0  0  0  0  0  0  0  0  0  0  0  0
   18.3588  -13.8172   23.1616 O   0  0  0  0  0  0  0  0  0  0  0  0
   13.9727  -15.8768   22.8177 C   0  0  0  0  0  0  0  0  0  0  0  0
   12.9649  -15.3765   23.4048 O   0  0  0  0  0  0  0  0  0  0  0  0
   18.2796  -13.6039   20.9160 O   0  0  0  0  0  0  0  0  0  0  0  0
   14.7723  -16.7111   23.5592 O   0  0  0  0  0  0  0  0  0  0  0  0
  2  1  1  0
  2  3  2  0
  4  2  1  0
  5  4  1  0
  6  7  1  6
  6  5  1  0
  8  6  1  0
  9  8  2  0
 10  8  1  0
 11 18  1  0
 11 10  1  0
 11 12  1  1
 13 12  1  0
 13 14  2  0
 15 14  1  0
 16 15  1  0
 17 16  2  0
 17 13  1  0
 18 19  2  0
 20 18  1  0
 21 20  1  0
 21 22  1  1
 23 22  1  0
 24 25  2  0
 24 23  1  0
 26 29  1  0
 26 21  1  0
 27 26  2  0
 28 24  1  0
M  END
$$$$
