AMK.pdb
     RDKit          3D

 23 22  0  0  1  0  0  0  0  0999 V2000
    7.1336  -15.1981   19.0459 C   0  0  0  0  0  0  0  0  0  0  0  0
    7.2510  -13.8232   19.6764 C   0  0  2  0  0  0  0  0  0  0  0  0
    7.9808  -12.9915   18.7460 N   0  0  0  0  0  0  0  0  0  0  0  0
    7.9946  -13.8693   20.9716 C   0  0  0  0  0  0  0  0  0  0  0  0
    9.2291  -13.9818   20.9390 O   0  0  0  0  0  0  0  0  0  0  0  0
    7.1484  -11.9165   28.5390 C   0  0  0  0  0  0  0  0  0  0  0  0
    6.3039  -12.1768   26.9519 S   0  0  0  0  0  0  0  0  0  0  0  0
    7.4663  -13.0652   25.8316 C   0  0  0  0  0  0  0  0  0  0  0  0
    6.8436  -13.1956   24.4833 C   0  0  0  0  0  0  0  0  0  0  0  0
    7.8498  -13.7932   23.5113 C   0  0  2  0  0  0  0  0  0  0  0  0
    7.2971  -13.7857   22.1997 N   0  0  0  0  0  0  0  0  0  0  0  0
    8.2551  -15.1203   23.9691 C   0  0  0  0  0  0  0  0  0  0  0  0
    7.3998  -16.0648   23.9141 O   0  0  0  0  0  0  0  0  0  0  0  0
    9.5306  -15.4490   24.4740 N   0  0  0  0  0  0  0  0  0  0  0  0
    9.9111  -16.8013   24.8858 C   0  0  1  0  0  0  0  0  0  0  0  0
   11.1000  -17.3081   24.1674 C   0  0  0  0  0  0  0  0  0  0  0  0
   10.9557  -17.6984   22.7494 C   0  0  0  0  0  0  0  0  0  0  0  0
   12.2059  -18.2280   22.0950 C   0  0  0  0  0  0  0  0  0  0  0  0
   11.8685  -18.4604   20.6331 C   0  0  0  0  0  0  0  0  0  0  0  0
   13.1069  -18.8259   19.9701 N   0  0  0  0  0  0  0  0  0  0  0  0
    9.9414  -16.8956   26.3591 C   0  0  0  0  0  0  0  0  0  0  0  0
    9.9382  -18.1055   27.0329 O   0  0  0  0  0  0  0  0  0  0  0  0
    9.9720  -15.8581   27.0692 O   0  0  0  0  0  0  0  0  0  0  0  0
  2  1  1  6
  2  3  1  0
  4  2  1  0
  4  5  2  0
  7  8  1  0
  7  6  1  0
  8  9  1  0
 10  9  1  1
 10 12  1  0
 10 11  1  0
 11  4  1  0
 12 14  1  0
 13 12  2  0
 14 15  1  0
 15 21  1  0
 15 16  1  6
 17 16  1  0
 18 17  1  0
 19 18  1  0
 20 19  1  0
 21 23  2  0
 21 22  1  0
M  END
$$$$
