AMK.pdb
     RDKit          3D

 23 22  0  0  1  0  0  0  0  0999 V2000
    7.4409  -13.0969   18.9477 C   0  0  0  0  0  0  0  0  0  0  0  0
    7.6677  -14.4170   19.6601 C   0  0  2  0  0  0  0  0  0  0  0  0
    6.3658  -14.9975   19.9012 N   0  0  0  0  0  0  0  0  0  0  0  0
    8.3639  -14.2280   20.9687 C   0  0  0  0  0  0  0  0  0  0  0  0
    9.5982  -14.1100   20.9682 O   0  0  0  0  0  0  0  0  0  0  0  0
    7.3585  -11.6722   28.2742 C   0  0  0  0  0  0  0  0  0  0  0  0
    6.5602  -12.0558   26.6882 S   0  0  0  0  0  0  0  0  0  0  0  0
    7.7106  -13.1198   25.7187 C   0  0  0  0  0  0  0  0  0  0  0  0
    7.1080  -13.4043   24.3850 C   0  0  0  0  0  0  0  0  0  0  0  0
    8.1312  -14.0998   23.4998 C   0  0  2  0  0  0  0  0  0  0  0  0
    7.6227  -14.1863   22.1732 N   0  0  0  0  0  0  0  0  0  0  0  0
    8.4889  -15.3940   24.0761 C   0  0  0  0  0  0  0  0  0  0  0  0
    7.5620  -16.2516   24.2552 O   0  0  0  0  0  0  0  0  0  0  0  0
    9.7913  -15.7798   24.4564 N   0  0  0  0  0  0  0  0  0  0  0  0
   10.1427  -17.1416   24.8631 C   0  0  1  0  0  0  0  0  0  0  0  0
   11.2466  -17.7139   24.0629 C   0  0  0  0  0  0  0  0  0  0  0  0
   11.0904  -17.7889   22.5954 C   0  0  0  0  0  0  0  0  0  0  0  0
   12.2913  -18.3031   21.8436 C   0  0  0  0  0  0  0  0  0  0  0  0
   11.9566  -18.2040   20.3660 C   0  0  0  0  0  0  0  0  0  0  0  0
   13.1162  -18.6891   19.6401 N   0  0  0  0  0  0  0  0  0  0  0  0
   10.2865  -17.2137   26.3310 C   0  0  0  0  0  0  0  0  0  0  0  0
   10.1654  -16.1044   27.1512 O   0  0  0  0  0  0  0  0  0  0  0  0
   10.5293  -18.3084   26.9002 O   0  0  0  0  0  0  0  0  0  0  0  0
  2  1  1  1
  2  3  1  0
  4  2  1  0
  4  5  2  0
  7  8  1  0
  7  6  1  0
  8  9  1  0
 10  9  1  1
 10 12  1  0
 10 11  1  0
 11  4  1  0
 12 14  1  0
 13 12  2  0
 14 15  1  0
 15 21  1  0
 15 16  1  6
 17 16  1  0
 18 17  1  0
 19 18  1  0
 20 19  1  0
 21 23  2  0
 21 22  1  0
M  END
$$$$
