AMK.pdb
     RDKit          3D

 23 22  0  0  1  0  0  0  0  0999 V2000
    7.8715  -13.3795   19.2494 C   0  0  0  0  0  0  0  0  0  0  0  0
    7.7836  -14.6607   20.0572 C   0  0  2  0  0  0  0  0  0  0  0  0
    6.3801  -14.9780   20.1970 N   0  0  0  0  0  0  0  0  0  0  0  0
    8.3821  -14.5006   21.4169 C   0  0  0  0  0  0  0  0  0  0  0  0
    9.6171  -14.5267   21.5243 O   0  0  0  0  0  0  0  0  0  0  0  0
    6.6354  -10.4677   26.6878 C   0  0  0  0  0  0  0  0  0  0  0  0
    6.0841  -12.1778   26.9551 S   0  0  0  0  0  0  0  0  0  0  0  0
    7.2740  -13.2959   26.1009 C   0  0  0  0  0  0  0  0  0  0  0  0
    6.8574  -13.4602   24.6789 C   0  0  0  0  0  0  0  0  0  0  0  0
    7.9540  -14.1757   23.9045 C   0  0  2  0  0  0  0  0  0  0  0  0
    7.5503  -14.3243   22.5477 N   0  0  0  0  0  0  0  0  0  0  0  0
    8.2819  -15.4396   24.5604 C   0  0  0  0  0  0  0  0  0  0  0  0
    7.3596  -16.3118   24.6849 O   0  0  0  0  0  0  0  0  0  0  0  0
    9.5503  -15.7807   25.0747 N   0  0  0  0  0  0  0  0  0  0  0  0
    9.9190  -17.1394   25.4763 C   0  0  1  0  0  0  0  0  0  0  0  0
   10.8174  -17.8018   24.5065 C   0  0  0  0  0  0  0  0  0  0  0  0
   11.3297  -19.1508   24.8252 C   0  0  0  0  0  0  0  0  0  0  0  0
   12.3048  -19.7233   23.8286 C   0  0  0  0  0  0  0  0  0  0  0  0
   12.7871  -21.0449   24.3994 C   0  0  0  0  0  0  0  0  0  0  0  0
   13.6544  -21.6415   23.4002 N   0  0  0  0  0  0  0  0  0  0  0  0
   10.3482  -17.1542   26.8891 C   0  0  0  0  0  0  0  0  0  0  0  0
   10.4112  -16.0090   27.6652 O   0  0  0  0  0  0  0  0  0  0  0  0
   10.6789  -18.2304   27.4494 O   0  0  0  0  0  0  0  0  0  0  0  0
  2  1  1  6
  2  3  1  0
  4  2  1  0
  4  5  2  0
  7  8  1  0
  7  6  1  0
  8  9  1  0
 10  9  1  1
 10 12  1  0
 10 11  1  0
 11  4  1  0
 12 14  1  0
 13 12  2  0
 14 15  1  0
 15 21  1  0
 15 16  1  6
 17 16  1  0
 18 17  1  0
 19 18  1  0
 20 19  1  0
 21 23  2  0
 21 22  1  0
M  END
$$$$
