AMK.pdb
     RDKit          3D

 23 22  0  0  1  0  0  0  0  0999 V2000
    6.6874  -17.1520   20.0749 C   0  0  0  0  0  0  0  0  0  0  0  0
    7.1676  -15.7147   20.0026 C   0  0  2  0  0  0  0  0  0  0  0  0
    8.0201  -15.6108   18.8396 N   0  0  0  0  0  0  0  0  0  0  0  0
    7.9526  -15.3310   21.2147 C   0  0  0  0  0  0  0  0  0  0  0  0
    9.1683  -15.5746   21.2312 O   0  0  0  0  0  0  0  0  0  0  0  0
    7.2027  -11.4122   28.0444 C   0  0  0  0  0  0  0  0  0  0  0  0
    6.3299  -12.0769   26.5965 S   0  0  0  0  0  0  0  0  0  0  0  0
    7.5015  -13.1645   25.6799 C   0  0  0  0  0  0  0  0  0  0  0  0
    6.8945  -13.5468   24.3729 C   0  0  0  0  0  0  0  0  0  0  0  0
    7.8824  -14.3860   23.5766 C   0  0  2  0  0  0  0  0  0  0  0  0
    7.3142  -14.7053   22.3113 N   0  0  0  0  0  0  0  0  0  0  0  0
    8.2787  -15.5580   24.3540 C   0  0  0  0  0  0  0  0  0  0  0  0
    7.4461  -16.5178   24.4655 O   0  0  0  0  0  0  0  0  0  0  0  0
    9.5219  -15.7193   25.0007 N   0  0  0  0  0  0  0  0  0  0  0  0
   10.0137  -17.0071   25.4934 C   0  0  1  0  0  0  0  0  0  0  0  0
   11.1104  -17.5576   24.6683 C   0  0  0  0  0  0  0  0  0  0  0  0
   11.7295  -18.8355   25.0775 C   0  0  0  0  0  0  0  0  0  0  0  0
   12.9081  -19.2768   24.2481 C   0  0  0  0  0  0  0  0  0  0  0  0
   13.3721  -20.6042   24.8205 C   0  0  0  0  0  0  0  0  0  0  0  0
   14.4854  -21.0477   24.0015 N   0  0  0  0  0  0  0  0  0  0  0  0
   10.2547  -16.9374   26.9485 C   0  0  0  0  0  0  0  0  0  0  0  0
   10.1784  -18.0462   27.7748 O   0  0  0  0  0  0  0  0  0  0  0  0
   10.5439  -15.8452   27.5007 O   0  0  0  0  0  0  0  0  0  0  0  0
  2  1  1  1
  2  3  1  0
  4  2  1  0
  4  5  2  0
  7  8  1  0
  7  6  1  0
  8  9  1  0
 10  9  1  1
 10 12  1  0
 10 11  1  0
 11  4  1  0
 12 14  1  0
 13 12  2  0
 14 15  1  0
 15 21  1  0
 15 16  1  6
 17 16  1  0
 18 17  1  0
 19 18  1  0
 20 19  1  0
 21 23  2  0
 21 22  1  0
M  END
$$$$
