AMK.pdb
     RDKit          3D

 23 22  0  0  1  0  0  0  0  0999 V2000
    6.4881  -16.8692   20.2681 C   0  0  0  0  0  0  0  0  0  0  0  0
    7.1483  -15.5043   20.2141 C   0  0  2  0  0  0  0  0  0  0  0  0
    7.9327  -15.4609   19.0005 N   0  0  0  0  0  0  0  0  0  0  0  0
    8.0512  -15.2788   21.3831 C   0  0  0  0  0  0  0  0  0  0  0  0
    9.2303  -15.6531   21.2982 O   0  0  0  0  0  0  0  0  0  0  0  0
    5.5194  -12.1458   26.6595 C   0  0  0  0  0  0  0  0  0  0  0  0
    7.3050  -11.8669   26.8427 S   0  0  0  0  0  0  0  0  0  0  0  0
    8.1831  -13.1875   25.9043 C   0  0  0  0  0  0  0  0  0  0  0  0
    7.4562  -13.4480   24.6290 C   0  0  0  0  0  0  0  0  0  0  0  0
    8.2768  -14.3845   23.7551 C   0  0  2  0  0  0  0  0  0  0  0  0
    7.5622  -14.6524   22.5537 N   0  0  0  0  0  0  0  0  0  0  0  0
    8.6288  -15.5861   24.5083 C   0  0  0  0  0  0  0  0  0  0  0  0
    7.6918  -16.3834   24.8447 O   0  0  0  0  0  0  0  0  0  0  0  0
    9.9360  -15.9432   24.9001 N   0  0  0  0  0  0  0  0  0  0  0  0
   10.2627  -17.2081   25.5608 C   0  0  1  0  0  0  0  0  0  0  0  0
   11.3763  -17.9279   24.9064 C   0  0  0  0  0  0  0  0  0  0  0  0
   11.0698  -18.8188   23.7680 C   0  0  0  0  0  0  0  0  0  0  0  0
   12.0536  -18.7708   22.6272 C   0  0  0  0  0  0  0  0  0  0  0  0
   11.4520  -19.5870   21.4972 C   0  0  0  0  0  0  0  0  0  0  0  0
   12.3014  -19.3868   20.3372 N   0  0  0  0  0  0  0  0  0  0  0  0
   10.3747  -17.0069   27.0194 C   0  0  0  0  0  0  0  0  0  0  0  0
   10.3014  -15.7571   27.6113 O   0  0  0  0  0  0  0  0  0  0  0  0
   10.5444  -17.9844   27.7921 O   0  0  0  0  0  0  0  0  0  0  0  0
  2  1  1  1
  2  3  1  0
  4  2  1  0
  4  5  2  0
  7  8  1  0
  7  6  1  0
  8  9  1  0
 10  9  1  1
 10 12  1  0
 10 11  1  0
 11  4  1  0
 12 14  1  0
 13 12  2  0
 14 15  1  0
 15 21  1  0
 15 16  1  6
 17 16  1  0
 18 17  1  0
 19 18  1  0
 20 19  1  0
 21 23  2  0
 21 22  1  0
M  END
$$$$
