AMK.pdb
     RDKit          3D

 23 22  0  0  1  0  0  0  0  0999 V2000
    6.9758  -17.1187   20.0134 C   0  0  0  0  0  0  0  0  0  0  0  0
    7.4666  -15.6835   20.0410 C   0  0  2  0  0  0  0  0  0  0  0  0
    8.4233  -15.5422   18.9663 N   0  0  0  0  0  0  0  0  0  0  0  0
    8.1381  -15.3522   21.3341 C   0  0  0  0  0  0  0  0  0  0  0  0
    9.3473  -15.6007   21.4512 O   0  0  0  0  0  0  0  0  0  0  0  0
    7.3046  -11.0126   27.7061 C   0  0  0  0  0  0  0  0  0  0  0  0
    6.6839  -12.5203   26.9052 S   0  0  0  0  0  0  0  0  0  0  0  0
    7.3890  -12.5886   25.2041 C   0  0  0  0  0  0  0  0  0  0  0  0
    6.7766  -13.7297   24.4654 C   0  0  0  0  0  0  0  0  0  0  0  0
    7.8576  -14.4898   23.7121 C   0  0  2  0  0  0  0  0  0  0  0  0
    7.4024  -14.7693   22.3928 N   0  0  0  0  0  0  0  0  0  0  0  0
    8.2428  -15.6819   24.4642 C   0  0  0  0  0  0  0  0  0  0  0  0
    7.3786  -16.6084   24.6106 O   0  0  0  0  0  0  0  0  0  0  0  0
    9.5078  -15.8969   25.0502 N   0  0  0  0  0  0  0  0  0  0  0  0
    9.8706  -17.1263   25.7574 C   0  0  1  0  0  0  0  0  0  0  0  0
   10.9097  -17.9089   25.0544 C   0  0  0  0  0  0  0  0  0  0  0  0
   11.4125  -19.1456   25.6880 C   0  0  0  0  0  0  0  0  0  0  0  0
   12.4976  -19.8650   24.9286 C   0  0  0  0  0  0  0  0  0  0  0  0
   12.8732  -21.0833   25.7531 C   0  0  0  0  0  0  0  0  0  0  0  0
   13.9401  -21.7603   25.0386 N   0  0  0  0  0  0  0  0  0  0  0  0
   10.1146  -16.8395   27.1853 C   0  0  0  0  0  0  0  0  0  0  0  0
   10.1561  -15.5524   27.6946 O   0  0  0  0  0  0  0  0  0  0  0  0
   10.2974  -17.7740   28.0067 O   0  0  0  0  0  0  0  0  0  0  0  0
  2  1  1  1
  2  3  1  0
  4  2  1  0
  4  5  2  0
  7  8  1  0
  7  6  1  0
  8  9  1  0
 10  9  1  1
 10 12  1  0
 10 11  1  0
 11  4  1  0
 12 14  1  0
 13 12  2  0
 14 15  1  0
 15 21  1  0
 15 16  1  6
 17 16  1  0
 18 17  1  0
 19 18  1  0
 20 19  1  0
 21 23  2  0
 21 22  1  0
M  END
$$$$
