AMK.pdb
     RDKit          3D

 23 22  0  0  1  0  0  0  0  0999 V2000
    7.6699  -12.9049   19.3194 C   0  0  0  0  0  0  0  0  0  0  0  0
    7.7662  -14.2900   19.9309 C   0  0  2  0  0  0  0  0  0  0  0  0
    6.4202  -14.8110   20.0138 N   0  0  0  0  0  0  0  0  0  0  0  0
    8.3558  -14.2501   21.3033 C   0  0  0  0  0  0  0  0  0  0  0  0
    9.5903  -14.2151   21.4138 O   0  0  0  0  0  0  0  0  0  0  0  0
    7.6586  -11.6353   28.2815 C   0  0  0  0  0  0  0  0  0  0  0  0
    7.1102  -11.7586   26.5541 S   0  0  0  0  0  0  0  0  0  0  0  0
    7.1765  -13.5339   26.0648 C   0  0  0  0  0  0  0  0  0  0  0  0
    6.7511  -13.6661   24.6420 C   0  0  0  0  0  0  0  0  0  0  0  0
    7.9109  -14.1896   23.8084 C   0  0  2  0  0  0  0  0  0  0  0  0
    7.5164  -14.2524   22.4422 N   0  0  0  0  0  0  0  0  0  0  0  0
    8.3712  -15.4683   24.3450 C   0  0  0  0  0  0  0  0  0  0  0  0
    7.5399  -16.4341   24.3997 O   0  0  0  0  0  0  0  0  0  0  0  0
    9.6758  -15.7278   24.8145 N   0  0  0  0  0  0  0  0  0  0  0  0
   10.1233  -17.0468   25.2654 C   0  0  1  0  0  0  0  0  0  0  0  0
   11.3146  -17.5306   24.5353 C   0  0  0  0  0  0  0  0  0  0  0  0
   11.2058  -17.7621   23.0799 C   0  0  0  0  0  0  0  0  0  0  0  0
   12.4519  -18.2875   22.4145 C   0  0  0  0  0  0  0  0  0  0  0  0
   12.1668  -18.3284   20.9239 C   0  0  0  0  0  0  0  0  0  0  0  0
   13.3748  -18.8100   20.2791 N   0  0  0  0  0  0  0  0  0  0  0  0
   10.1937  -17.0842   26.7399 C   0  0  0  0  0  0  0  0  0  0  0  0
   10.3189  -18.2638   27.4545 O   0  0  0  0  0  0  0  0  0  0  0  0
   10.1413  -16.0233   27.4132 O   0  0  0  0  0  0  0  0  0  0  0  0
  2  1  1  1
  2  3  1  0
  4  2  1  0
  4  5  2  0
  7  8  1  0
  7  6  1  0
  8  9  1  0
 10  9  1  1
 10 12  1  0
 10 11  1  0
 11  4  1  0
 12 14  1  0
 13 12  2  0
 14 15  1  0
 15 21  1  0
 15 16  1  6
 17 16  1  0
 18 17  1  0
 19 18  1  0
 20 19  1  0
 21 23  2  0
 21 22  1  0
M  END
$$$$
