AMK.pdb
     RDKit          3D

 23 22  0  0  1  0  0  0  0  0999 V2000
    7.3095  -14.7956   19.5233 C   0  0  0  0  0  0  0  0  0  0  0  0
    7.4673  -13.4794   20.2611 C   0  0  2  0  0  0  0  0  0  0  0  0
    8.3543  -12.6549   19.4715 N   0  0  0  0  0  0  0  0  0  0  0  0
    8.0641  -13.6724   21.6173 C   0  0  0  0  0  0  0  0  0  0  0  0
    9.2977  -13.7547   21.7122 O   0  0  0  0  0  0  0  0  0  0  0  0
    6.4199  -11.1778   27.4088 C   0  0  0  0  0  0  0  0  0  0  0  0
    7.7010  -12.4011   27.0061 S   0  0  0  0  0  0  0  0  0  0  0  0
    6.8572  -13.9398   26.4440 C   0  0  0  0  0  0  0  0  0  0  0  0
    6.4343  -13.7758   25.0238 C   0  0  0  0  0  0  0  0  0  0  0  0
    7.6334  -13.9687   24.1080 C   0  0  2  0  0  0  0  0  0  0  0  0
    7.2325  -13.7578   22.7586 N   0  0  0  0  0  0  0  0  0  0  0  0
    8.2326  -15.2804   24.3433 C   0  0  0  0  0  0  0  0  0  0  0  0
    7.4966  -16.3131   24.2070 O   0  0  0  0  0  0  0  0  0  0  0  0
    9.5752  -15.5036   24.7140 N   0  0  0  0  0  0  0  0  0  0  0  0
   10.1019  -16.8185   25.0837 C   0  0  1  0  0  0  0  0  0  0  0  0
   11.2138  -17.2580   24.2135 C   0  0  0  0  0  0  0  0  0  0  0  0
   10.9454  -17.4674   22.7756 C   0  0  0  0  0  0  0  0  0  0  0  0
   12.1051  -17.9991   21.9730 C   0  0  0  0  0  0  0  0  0  0  0  0
   11.6029  -18.1882   20.5528 C   0  0  0  0  0  0  0  0  0  0  0  0
   12.7072  -18.7372   19.7872 N   0  0  0  0  0  0  0  0  0  0  0  0
   10.3402  -16.8808   26.5397 C   0  0  0  0  0  0  0  0  0  0  0  0
   10.6651  -18.0561   27.1962 O   0  0  0  0  0  0  0  0  0  0  0  0
   10.2546  -15.8467   27.2500 O   0  0  0  0  0  0  0  0  0  0  0  0
  2  1  1  6
  2  3  1  0
  4  2  1  0
  4  5  2  0
  7  8  1  0
  7  6  1  0
  8  9  1  0
 10  9  1  1
 10 12  1  0
 10 11  1  0
 11  4  1  0
 12 14  1  0
 13 12  2  0
 14 15  1  0
 15 21  1  0
 15 16  1  6
 17 16  1  0
 18 17  1  0
 19 18  1  0
 20 19  1  0
 21 23  2  0
 21 22  1  0
M  END
$$$$
