QGK.pdb
     RDKit          3D

 23 22  0  0  1  0  0  0  0  0999 V2000
   27.3227  -22.8448  -16.2003 N   0  0  0  0  0  0  0  0  0  0  0  0
   26.9074  -21.5947  -15.6323 C   0  0  0  0  0  0  0  0  0  0  0  0
   27.3129  -21.2361  -14.5007 O   0  0  0  0  0  0  0  0  0  0  0  0
   25.9896  -20.6998  -16.3715 C   0  0  0  0  0  0  0  0  0  0  0  0
   24.9585  -20.1693  -15.4349 C   0  0  0  0  0  0  0  0  0  0  0  0
   23.8339  -21.1334  -15.1745 C   0  0  2  0  0  0  0  0  0  0  0  0
   23.0940  -21.4204  -16.3950 N   0  0  0  0  0  0  0  0  0  0  0  0
   22.8674  -20.6298  -14.1726 C   0  0  0  0  0  0  0  0  0  0  0  0
   22.7837  -19.3925  -13.8771 O   0  0  0  0  0  0  0  0  0  0  0  0
   21.9687  -21.4922  -13.4735 N   0  0  0  0  0  0  0  0  0  0  0  0
   20.9469  -21.0116  -12.5891 C   0  0  0  0  0  0  0  0  0  0  0  0
   20.1092  -22.1093  -12.0435 C   0  0  0  0  0  0  0  0  0  0  0  0
   19.6561  -22.9937  -12.8088 O   0  0  0  0  0  0  0  0  0  0  0  0
   19.7840  -22.2153  -10.6634 N   0  0  0  0  0  0  0  0  0  0  0  0
   18.9657  -23.3077  -10.1922 C   0  0  1  0  0  0  0  0  0  0  0  0
   18.9782  -23.4257   -8.6581 C   0  0  0  0  0  0  0  0  0  0  0  0
   18.2383  -24.6563   -8.3026 C   0  0  0  0  0  0  0  0  0  0  0  0
   18.0881  -24.9429   -6.8497 C   0  0  0  0  0  0  0  0  0  0  0  0
   17.3054  -26.1828   -6.5647 C   0  0  0  0  0  0  0  0  0  0  0  0
   17.1619  -26.4027   -5.1680 N   0  0  0  0  0  0  0  0  0  0  0  0
   17.5584  -23.0427  -10.5835 C   0  0  0  0  0  0  0  0  0  0  0  0
   17.1032  -21.8823  -10.5601 O   0  0  0  0  0  0  0  0  0  0  0  0
   16.6916  -24.0553  -10.9885 O   0  0  0  0  0  0  0  0  0  0  0  0
  1  2  1  0
  2  3  2  0
  4  2  1  0
  4  5  1  0
  6  5  1  0
  6  8  1  0
  6  7  1  6
  8  9  2  0
 10  8  1  0
 10 11  1  0
 11 12  1  0
 12 14  1  0
 13 12  2  0
 14 15  1  0
 15 16  1  1
 16 17  1  0
 17 18  1  0
 19 18  1  0
 20 19  1  0
 21 15  1  0
 21 23  1  0
 22 21  2  0
M  END
$$$$
