QGK.pdb
     RDKit          3D

 23 22  0  0  1  0  0  0  0  0999 V2000
   16.7033  -11.9369  -16.8375 N   0  0  0  0  0  0  0  0  0  0  0  0
   16.9607  -12.2188  -15.4548 C   0  0  0  0  0  0  0  0  0  0  0  0
   16.0888  -12.7637  -14.7363 O   0  0  0  0  0  0  0  0  0  0  0  0
   18.2639  -11.8718  -14.8456 C   0  0  0  0  0  0  0  0  0  0  0  0
   18.0470  -11.4235  -13.4406 C   0  0  0  0  0  0  0  0  0  0  0  0
   17.5998   -9.9917  -13.3316 C   0  0  2  0  0  0  0  0  0  0  0  0
   18.7197   -9.0767  -13.4996 N   0  0  0  0  0  0  0  0  0  0  0  0
   16.9638   -9.6872  -12.0300 C   0  0  0  0  0  0  0  0  0  0  0  0
   15.9684  -10.3528  -11.5924 O   0  0  0  0  0  0  0  0  0  0  0  0
   17.4205   -8.6326  -11.1818 N   0  0  0  0  0  0  0  0  0  0  0  0
   16.8195   -8.3265   -9.9160 C   0  0  0  0  0  0  0  0  0  0  0  0
   16.0949   -7.0306   -9.9328 C   0  0  0  0  0  0  0  0  0  0  0  0
   16.1279   -6.3055  -10.9556 O   0  0  0  0  0  0  0  0  0  0  0  0
   15.3453   -6.5542   -8.8224 N   0  0  0  0  0  0  0  0  0  0  0  0
   14.6282   -5.3042   -8.9132 C   0  0  1  0  0  0  0  0  0  0  0  0
   13.5756   -5.1540   -7.8010 C   0  0  0  0  0  0  0  0  0  0  0  0
   12.5888   -6.2420   -7.9754 C   0  0  0  0  0  0  0  0  0  0  0  0
   11.5173   -6.3362   -6.9465 C   0  0  0  0  0  0  0  0  0  0  0  0
   10.6304   -7.5259   -7.1169 C   0  0  0  0  0  0  0  0  0  0  0  0
    9.6026   -7.5585   -6.1360 N   0  0  0  0  0  0  0  0  0  0  0  0
   15.5961   -4.1935   -8.7307 C   0  0  0  0  0  0  0  0  0  0  0  0
   16.7208   -4.4093   -8.2378 O   0  0  0  0  0  0  0  0  0  0  0  0
   15.3044   -2.8803   -9.0930 O   0  0  0  0  0  0  0  0  0  0  0  0
  1  2  1  0
  2  3  2  0
  4  2  1  0
  4  5  1  0
  6  5  1  0
  6  8  1  0
  6  7  1  1
  8  9  2  0
 10  8  1  0
 10 11  1  0
 11 12  1  0
 12 14  1  0
 13 12  2  0
 14 15  1  0
 15 16  1  1
 16 17  1  0
 17 18  1  0
 19 18  1  0
 20 19  1  0
 21 15  1  0
 21 23  1  0
 22 21  2  0
M  END
$$$$
