QGK.pdb
     RDKit          3D

 23 22  0  0  1  0  0  0  0  0999 V2000
   24.5262  -21.8908  -11.3263 N   0  0  0  0  0  0  0  0  0  0  0  0
   25.0756  -20.8217  -10.5434 C   0  0  0  0  0  0  0  0  0  0  0  0
   24.3671  -20.2014   -9.7148 O   0  0  0  0  0  0  0  0  0  0  0  0
   26.4936  -20.4274  -10.6976 C   0  0  0  0  0  0  0  0  0  0  0  0
   27.1361  -21.2924  -11.7276 C   0  0  0  0  0  0  0  0  0  0  0  0
   27.5136  -20.5512  -12.9806 C   0  0  2  0  0  0  0  0  0  0  0  0
   26.9716  -19.2000  -12.9758 N   0  0  0  0  0  0  0  0  0  0  0  0
   27.0340  -21.2219  -14.2101 C   0  0  0  0  0  0  0  0  0  0  0  0
   27.5321  -22.3226  -14.6172 O   0  0  0  0  0  0  0  0  0  0  0  0
   25.9866  -20.6834  -15.0182 N   0  0  0  0  0  0  0  0  0  0  0  0
   24.6873  -21.2820  -15.1213 C   0  0  0  0  0  0  0  0  0  0  0  0
   23.5943  -20.2831  -15.0105 C   0  0  0  0  0  0  0  0  0  0  0  0
   23.5709  -19.4817  -14.0460 O   0  0  0  0  0  0  0  0  0  0  0  0
   22.5444  -20.1831  -15.9641 N   0  0  0  0  0  0  0  0  0  0  0  0
   21.4745  -19.2333  -15.7689 C   0  0  1  0  0  0  0  0  0  0  0  0
   20.9973  -18.6125  -17.0935 C   0  0  0  0  0  0  0  0  0  0  0  0
   20.0099  -17.5627  -16.7602 C   0  0  0  0  0  0  0  0  0  0  0  0
   19.3965  -16.8413  -17.9087 C   0  0  0  0  0  0  0  0  0  0  0  0
   18.5360  -15.6912  -17.4989 C   0  0  0  0  0  0  0  0  0  0  0  0
   18.0652  -14.9617  -18.6240 N   0  0  0  0  0  0  0  0  0  0  0  0
   20.3084  -19.9510  -15.1953 C   0  0  0  0  0  0  0  0  0  0  0  0
   20.1014  -21.1478  -15.4768 O   0  0  0  0  0  0  0  0  0  0  0  0
   19.4041  -19.3378  -14.3310 O   0  0  0  0  0  0  0  0  0  0  0  0
  1  2  1  0
  2  3  2  0
  4  2  1  0
  4  5  1  0
  6  5  1  0
  6  8  1  0
  6  7  1  1
  8  9  2  0
 10  8  1  0
 10 11  1  0
 11 12  1  0
 12 14  1  0
 13 12  2  0
 14 15  1  0
 15 16  1  6
 16 17  1  0
 17 18  1  0
 19 18  1  0
 20 19  1  0
 21 15  1  0
 21 23  1  0
 22 21  2  0
M  END
$$$$
