QGK.pdb
     RDKit          3D

 23 22  0  0  1  0  0  0  0  0999 V2000
   23.8307  -20.7225  -12.6525 N   0  0  0  0  0  0  0  0  0  0  0  0
   24.5077  -21.1268  -11.4541 C   0  0  0  0  0  0  0  0  0  0  0  0
   24.0426  -20.8405  -10.3249 O   0  0  0  0  0  0  0  0  0  0  0  0
   25.7722  -21.8920  -11.5254 C   0  0  0  0  0  0  0  0  0  0  0  0
   26.3336  -21.7883  -12.9024 C   0  0  0  0  0  0  0  0  0  0  0  0
   27.4614  -20.7998  -13.0161 C   0  0  2  0  0  0  0  0  0  0  0  0
   27.8354  -20.2763  -11.7101 N   0  0  0  0  0  0  0  0  0  0  0  0
   27.1279  -19.6467  -13.8824 C   0  0  0  0  0  0  0  0  0  0  0  0
   27.0070  -19.7638  -15.1461 O   0  0  0  0  0  0  0  0  0  0  0  0
   26.9204  -18.3324  -13.3629 N   0  0  0  0  0  0  0  0  0  0  0  0
   26.6130  -17.2008  -14.1887 C   0  0  0  0  0  0  0  0  0  0  0  0
   25.2403  -17.2673  -14.7508 C   0  0  0  0  0  0  0  0  0  0  0  0
   24.4262  -18.1193  -14.3214 O   0  0  0  0  0  0  0  0  0  0  0  0
   24.7865  -16.3941  -15.7771 N   0  0  0  0  0  0  0  0  0  0  0  0
   23.4200  -16.4644  -16.2383 C   0  0  1  0  0  0  0  0  0  0  0  0
   22.9544  -15.1478  -16.8844 C   0  0  0  0  0  0  0  0  0  0  0  0
   21.7614  -14.6873  -16.1410 C   0  0  0  0  0  0  0  0  0  0  0  0
   21.0843  -13.4690  -16.6636 C   0  0  0  0  0  0  0  0  0  0  0  0
   19.8560  -13.0961  -15.8999 C   0  0  0  0  0  0  0  0  0  0  0  0
   19.2888  -11.8842  -16.3786 N   0  0  0  0  0  0  0  0  0  0  0  0
   23.3335  -17.5056  -17.2930 C   0  0  0  0  0  0  0  0  0  0  0  0
   24.3034  -17.7265  -18.0446 O   0  0  0  0  0  0  0  0  0  0  0  0
   22.1886  -18.2735  -17.4937 O   0  0  0  0  0  0  0  0  0  0  0  0
  1  2  1  0
  2  3  2  0
  4  2  1  0
  4  5  1  0
  6  5  1  0
  6  8  1  0
  6  7  1  1
  8  9  2  0
 10  8  1  0
 10 11  1  0
 11 12  1  0
 12 14  1  0
 13 12  2  0
 14 15  1  0
 15 16  1  6
 16 17  1  0
 17 18  1  0
 19 18  1  0
 20 19  1  0
 21 15  1  0
 21 23  1  0
 22 21  2  0
M  END
$$$$
