QGK.pdb
     RDKit          3D

 23 22  0  0  1  0  0  0  0  0999 V2000
   27.3284  -20.9467  -15.3350 N   0  0  0  0  0  0  0  0  0  0  0  0
   26.6374  -21.7002  -16.3412 C   0  0  0  0  0  0  0  0  0  0  0  0
   27.2527  -22.5125  -17.0725 O   0  0  0  0  0  0  0  0  0  0  0  0
   25.1801  -21.5343  -16.5379 C   0  0  0  0  0  0  0  0  0  0  0  0
   24.6670  -20.5132  -15.5806 C   0  0  0  0  0  0  0  0  0  0  0  0
   24.2275  -21.0940  -14.2648 C   0  0  2  0  0  0  0  0  0  0  0  0
   24.2329  -22.5493  -14.3043 N   0  0  0  0  0  0  0  0  0  0  0  0
   22.8671  -20.6614  -13.8730 C   0  0  0  0  0  0  0  0  0  0  0  0
   22.4841  -19.4508  -13.9871 O   0  0  0  0  0  0  0  0  0  0  0  0
   21.8976  -21.5669  -13.3435 N   0  0  0  0  0  0  0  0  0  0  0  0
   20.5545  -21.1799  -13.0219 C   0  0  0  0  0  0  0  0  0  0  0  0
   19.7472  -22.3146  -12.5067 C   0  0  0  0  0  0  0  0  0  0  0  0
   19.6816  -23.3852  -13.1567 O   0  0  0  0  0  0  0  0  0  0  0  0
   19.0249  -22.2516  -11.2835 N   0  0  0  0  0  0  0  0  0  0  0  0
   18.2624  -23.3913  -10.8313 C   0  0  1  0  0  0  0  0  0  0  0  0
   17.8139  -23.2483   -9.3663 C   0  0  0  0  0  0  0  0  0  0  0  0
   18.0505  -24.5486   -8.7019 C   0  0  0  0  0  0  0  0  0  0  0  0
   17.5873  -24.6664   -7.2922 C   0  0  0  0  0  0  0  0  0  0  0  0
   17.5958  -26.0686   -6.7774 C   0  0  0  0  0  0  0  0  0  0  0  0
   17.1900  -26.1300   -5.4168 N   0  0  0  0  0  0  0  0  0  0  0  0
   17.0238  -23.4802  -11.6449 C   0  0  0  0  0  0  0  0  0  0  0  0
   16.4287  -24.5680  -11.7740 O   0  0  0  0  0  0  0  0  0  0  0  0
   16.4738  -22.3762  -12.2925 O   0  0  0  0  0  0  0  0  0  0  0  0
  1  2  1  0
  2  3  2  0
  4  2  1  0
  4  5  1  0
  6  5  1  0
  6  8  1  0
  6  7  1  6
  8  9  2  0
 10  8  1  0
 10 11  1  0
 11 12  1  0
 12 14  1  0
 13 12  2  0
 14 15  1  0
 15 16  1  1
 16 17  1  0
 17 18  1  0
 19 18  1  0
 20 19  1  0
 21 15  1  0
 21 23  1  0
 22 21  2  0
M  END
$$$$
