QGK.pdb
     RDKit          3D

 23 22  0  0  1  0  0  0  0  0999 V2000
   21.1007  -19.0087  -13.2109 N   0  0  0  0  0  0  0  0  0  0  0  0
   21.5132  -19.4996  -14.4941 C   0  0  0  0  0  0  0  0  0  0  0  0
   22.1311  -20.5861  -14.5988 O   0  0  0  0  0  0  0  0  0  0  0  0
   21.2173  -18.7323  -15.7244 C   0  0  0  0  0  0  0  0  0  0  0  0
   20.4544  -17.5027  -15.3664 C   0  0  0  0  0  0  0  0  0  0  0  0
   20.0375  -16.6884  -16.5600 C   0  0  2  0  0  0  0  0  0  0  0  0
   21.1635  -15.9478  -17.1106 N   0  0  0  0  0  0  0  0  0  0  0  0
   18.9707  -15.7120  -16.2437 C   0  0  0  0  0  0  0  0  0  0  0  0
   17.8734  -16.0634  -15.6980 O   0  0  0  0  0  0  0  0  0  0  0  0
   19.0989  -14.3179  -16.5272 N   0  0  0  0  0  0  0  0  0  0  0  0
   18.1032  -13.3490  -16.1709 C   0  0  0  0  0  0  0  0  0  0  0  0
   18.5298  -11.9606  -16.4787 C   0  0  0  0  0  0  0  0  0  0  0  0
   19.6759  -11.7429  -16.9393 O   0  0  0  0  0  0  0  0  0  0  0  0
   17.6868  -10.8340  -16.2743 N   0  0  0  0  0  0  0  0  0  0  0  0
   18.0973   -9.5275  -16.7322 C   0  0  1  0  0  0  0  0  0  0  0  0
   16.9096   -8.6838  -17.2274 C   0  0  0  0  0  0  0  0  0  0  0  0
   16.3448   -9.3665  -18.4118 C   0  0  0  0  0  0  0  0  0  0  0  0
   15.2099   -8.6840  -19.0917 C   0  0  0  0  0  0  0  0  0  0  0  0
   14.6440   -9.4629  -20.2336 C   0  0  0  0  0  0  0  0  0  0  0  0
   13.5734   -8.7703  -20.8612 N   0  0  0  0  0  0  0  0  0  0  0  0
   18.6881   -8.7924  -15.5858 C   0  0  0  0  0  0  0  0  0  0  0  0
   18.3236   -9.0410  -14.4197 O   0  0  0  0  0  0  0  0  0  0  0  0
   19.6597   -7.8076  -15.7496 O   0  0  0  0  0  0  0  0  0  0  0  0
  1  2  1  0
  2  3  2  0
  4  2  1  0
  4  5  1  0
  6  5  1  0
  6  8  1  0
  6  7  1  1
  8  9  2  0
 10  8  1  0
 10 11  1  0
 11 12  1  0
 12 14  1  0
 13 12  2  0
 14 15  1  0
 15 16  1  1
 16 17  1  0
 17 18  1  0
 19 18  1  0
 20 19  1  0
 21 15  1  0
 21 23  1  0
 22 21  2  0
M  END
$$$$
