QGK.pdb
     RDKit          3D

 23 22  0  0  1  0  0  0  0  0999 V2000
   26.0341  -20.0614  -15.6823 N   0  0  0  0  0  0  0  0  0  0  0  0
   27.3148  -20.6289  -15.3735 C   0  0  0  0  0  0  0  0  0  0  0  0
   28.1481  -20.8673  -16.2802 O   0  0  0  0  0  0  0  0  0  0  0  0
   27.6804  -20.9459  -13.9751 C   0  0  0  0  0  0  0  0  0  0  0  0
   26.5692  -20.5350  -13.0703 C   0  0  0  0  0  0  0  0  0  0  0  0
   25.6050  -21.6476  -12.7632 C   0  0  2  0  0  0  0  0  0  0  0  0
   25.5610  -22.6193  -13.8464 N   0  0  0  0  0  0  0  0  0  0  0  0
   24.2241  -21.1639  -12.5387 C   0  0  0  0  0  0  0  0  0  0  0  0
   23.9350  -20.3619  -11.5908 O   0  0  0  0  0  0  0  0  0  0  0  0
   23.1288  -21.5615  -13.3648 N   0  0  0  0  0  0  0  0  0  0  0  0
   21.7834  -21.1107  -13.1561 C   0  0  0  0  0  0  0  0  0  0  0  0
   20.9059  -22.1802  -12.6170 C   0  0  0  0  0  0  0  0  0  0  0  0
   21.1774  -23.3851  -12.8350 O   0  0  0  0  0  0  0  0  0  0  0  0
   19.7432  -21.9053  -11.8461 N   0  0  0  0  0  0  0  0  0  0  0  0
   18.9403  -22.9895  -11.3315 C   0  0  1  0  0  0  0  0  0  0  0  0
   17.8465  -22.4980  -10.3673 C   0  0  0  0  0  0  0  0  0  0  0  0
   17.2747  -23.6891   -9.7022 C   0  0  0  0  0  0  0  0  0  0  0  0
   17.9639  -24.1534   -8.4672 C   0  0  0  0  0  0  0  0  0  0  0  0
   17.3762  -25.3990   -7.8892 C   0  0  0  0  0  0  0  0  0  0  0  0
   18.1307  -25.8693   -6.7806 N   0  0  0  0  0  0  0  0  0  0  0  0
   18.2399  -23.6361  -12.4695 C   0  0  0  0  0  0  0  0  0  0  0  0
   17.9230  -22.9728  -13.4764 O   0  0  0  0  0  0  0  0  0  0  0  0
   17.9074  -24.9890  -12.4716 O   0  0  0  0  0  0  0  0  0  0  0  0
  1  2  1  0
  2  3  2  0
  4  2  1  0
  4  5  1  0
  6  5  1  0
  6  8  1  0
  6  7  1  6
  8  9  2  0
 10  8  1  0
 10 11  1  0
 11 12  1  0
 12 14  1  0
 13 12  2  0
 14 15  1  0
 15 16  1  1
 16 17  1  0
 17 18  1  0
 19 18  1  0
 20 19  1  0
 21 15  1  0
 21 23  1  0
 22 21  2  0
M  END
$$$$
