QGK.pdb
     RDKit          3D

 23 22  0  0  1  0  0  0  0  0999 V2000
   24.0356  -17.4750  -19.1457 N   0  0  0  0  0  0  0  0  0  0  0  0
   22.6110  -17.5175  -18.9832 C   0  0  0  0  0  0  0  0  0  0  0  0
   21.8462  -17.2755  -19.9475 O   0  0  0  0  0  0  0  0  0  0  0  0
   22.0125  -17.8485  -17.6710 C   0  0  0  0  0  0  0  0  0  0  0  0
   23.0997  -18.0646  -16.6743 C   0  0  0  0  0  0  0  0  0  0  0  0
   23.0967  -19.4440  -16.0750 C   0  0  2  0  0  0  0  0  0  0  0  0
   22.0790  -20.2829  -16.6915 N   0  0  0  0  0  0  0  0  0  0  0  0
   22.8463  -19.4348  -14.6160 C   0  0  0  0  0  0  0  0  0  0  0  0
   23.4834  -18.6631  -13.8262 O   0  0  0  0  0  0  0  0  0  0  0  0
   21.8789  -20.2854  -13.9989 N   0  0  0  0  0  0  0  0  0  0  0  0
   21.5768  -20.2441  -12.5975 C   0  0  0  0  0  0  0  0  0  0  0  0
   20.4906  -21.1856  -12.2253 C   0  0  0  0  0  0  0  0  0  0  0  0
   19.6725  -21.5753  -13.0923 O   0  0  0  0  0  0  0  0  0  0  0  0
   20.3232  -21.6827  -10.9037 N   0  0  0  0  0  0  0  0  0  0  0  0
   19.2276  -22.5715  -10.5959 C   0  0  1  0  0  0  0  0  0  0  0  0
   19.3434  -23.1722   -9.1840 C   0  0  0  0  0  0  0  0  0  0  0  0
   18.2271  -24.1281   -9.0165 C   0  0  0  0  0  0  0  0  0  0  0  0
   18.1777  -24.8699   -7.7269 C   0  0  0  0  0  0  0  0  0  0  0  0
   17.1297  -25.9336   -7.6912 C   0  0  0  0  0  0  0  0  0  0  0  0
   17.1263  -26.6247   -6.4494 N   0  0  0  0  0  0  0  0  0  0  0  0
   17.9669  -21.7881  -10.6189 C   0  0  0  0  0  0  0  0  0  0  0  0
   16.8885  -22.3339  -10.9247 O   0  0  0  0  0  0  0  0  0  0  0  0
   17.9239  -20.4311  -10.3065 O   0  0  0  0  0  0  0  0  0  0  0  0
  1  2  1  0
  2  3  2  0
  4  2  1  0
  4  5  1  0
  6  5  1  0
  6  8  1  0
  6  7  1  6
  8  9  2  0
 10  8  1  0
 10 11  1  0
 11 12  1  0
 12 14  1  0
 13 12  2  0
 14 15  1  0
 15 16  1  1
 16 17  1  0
 17 18  1  0
 19 18  1  0
 20 19  1  0
 21 15  1  0
 21 23  1  0
 22 21  2  0
M  END
$$$$
