QGK.pdb
     RDKit          3D

 23 22  0  0  1  0  0  0  0  0999 V2000
   26.2072  -20.2385  -10.5053 N   0  0  0  0  0  0  0  0  0  0  0  0
   25.6271  -21.5472  -10.5979 C   0  0  0  0  0  0  0  0  0  0  0  0
   26.0110  -22.4755   -9.8467 O   0  0  0  0  0  0  0  0  0  0  0  0
   24.5608  -21.8300  -11.5842 C   0  0  0  0  0  0  0  0  0  0  0  0
   24.2288  -20.5786  -12.3230 C   0  0  0  0  0  0  0  0  0  0  0  0
   24.5559  -20.6447  -13.7895 C   0  0  2  0  0  0  0  0  0  0  0  0
   25.6647  -21.5541  -14.0405 N   0  0  0  0  0  0  0  0  0  0  0  0
   24.9205  -19.3264  -14.3556 C   0  0  0  0  0  0  0  0  0  0  0  0
   24.1301  -18.3274  -14.3047 O   0  0  0  0  0  0  0  0  0  0  0  0
   26.1758  -19.0869  -14.9935 N   0  0  0  0  0  0  0  0  0  0  0  0
   26.5614  -17.8067  -15.5129 C   0  0  0  0  0  0  0  0  0  0  0  0
   25.9202  -17.5099  -16.8187 C   0  0  0  0  0  0  0  0  0  0  0  0
   25.9998  -18.3353  -17.7597 O   0  0  0  0  0  0  0  0  0  0  0  0
   25.2014  -16.3085  -17.0671 N   0  0  0  0  0  0  0  0  0  0  0  0
   24.5056  -16.1245  -18.3189 C   0  0  1  0  0  0  0  0  0  0  0  0
   22.9885  -15.9575  -18.1233 C   0  0  0  0  0  0  0  0  0  0  0  0
   22.4504  -17.2672  -17.6956 C   0  0  0  0  0  0  0  0  0  0  0  0
   20.9804  -17.3388  -17.4724 C   0  0  0  0  0  0  0  0  0  0  0  0
   20.5132  -18.6782  -17.0047 C   0  0  0  0  0  0  0  0  0  0  0  0
   19.1031  -18.7103  -16.8306 N   0  0  0  0  0  0  0  0  0  0  0  0
   24.9909  -14.8692  -18.9455 C   0  0  0  0  0  0  0  0  0  0  0  0
   25.0855  -13.8228  -18.2744 O   0  0  0  0  0  0  0  0  0  0  0  0
   25.3579  -14.7967  -20.2875 O   0  0  0  0  0  0  0  0  0  0  0  0
  1  2  1  0
  2  3  2  0
  4  2  1  0
  4  5  1  0
  6  5  1  0
  6  8  1  0
  6  7  1  1
  8  9  2  0
 10  8  1  0
 10 11  1  0
 11 12  1  0
 12 14  1  0
 13 12  2  0
 14 15  1  0
 15 16  1  1
 16 17  1  0
 17 18  1  0
 19 18  1  0
 20 19  1  0
 21 15  1  0
 21 23  1  0
 22 21  2  0
M  END
$$$$
