QGK.pdb
     RDKit          3D

 23 22  0  0  1  0  0  0  0  0999 V2000
   25.0263  -17.0842  -18.9107 N   0  0  0  0  0  0  0  0  0  0  0  0
   23.8234  -17.8391  -18.7086 C   0  0  0  0  0  0  0  0  0  0  0  0
   22.8311  -17.6810  -19.4594 O   0  0  0  0  0  0  0  0  0  0  0  0
   23.7279  -18.8227  -17.6071 C   0  0  0  0  0  0  0  0  0  0  0  0
   25.0089  -18.8344  -16.8450 C   0  0  0  0  0  0  0  0  0  0  0  0
   25.0230  -19.8251  -15.7135 C   0  0  2  0  0  0  0  0  0  0  0  0
   24.7804  -21.1772  -16.1954 N   0  0  0  0  0  0  0  0  0  0  0  0
   24.0062  -19.5287  -14.6792 C   0  0  0  0  0  0  0  0  0  0  0  0
   23.9843  -18.4192  -14.0517 O   0  0  0  0  0  0  0  0  0  0  0  0
   22.9868  -20.4614  -14.3172 N   0  0  0  0  0  0  0  0  0  0  0  0
   21.9234  -20.1487  -13.4069 C   0  0  0  0  0  0  0  0  0  0  0  0
   20.9382  -21.2532  -13.2877 C   0  0  0  0  0  0  0  0  0  0  0  0
   20.6193  -21.9225  -14.2993 O   0  0  0  0  0  0  0  0  0  0  0  0
   20.3200  -21.6025  -12.0558 N   0  0  0  0  0  0  0  0  0  0  0  0
   19.4084  -22.7206  -11.9925 C   0  0  1  0  0  0  0  0  0  0  0  0
   19.3330  -23.3320  -10.5825 C   0  0  0  0  0  0  0  0  0  0  0  0
   18.5581  -24.5877  -10.6852 C   0  0  0  0  0  0  0  0  0  0  0  0
   18.4181  -25.3842   -9.4355 C   0  0  0  0  0  0  0  0  0  0  0  0
   17.7582  -26.7080   -9.6434 C   0  0  0  0  0  0  0  0  0  0  0  0
   17.6896  -27.4549   -8.4363 N   0  0  0  0  0  0  0  0  0  0  0  0
   18.0438  -22.2324  -12.3142 C   0  0  0  0  0  0  0  0  0  0  0  0
   17.6904  -21.0822  -11.9881 O   0  0  0  0  0  0  0  0  0  0  0  0
   17.1071  -23.0175  -12.9827 O   0  0  0  0  0  0  0  0  0  0  0  0
  1  2  1  0
  2  3  2  0
  4  2  1  0
  4  5  1  0
  6  5  1  0
  6  8  1  0
  6  7  1  6
  8  9  2  0
 10  8  1  0
 10 11  1  0
 11 12  1  0
 12 14  1  0
 13 12  2  0
 14 15  1  0
 15 16  1  1
 16 17  1  0
 17 18  1  0
 19 18  1  0
 20 19  1  0
 21 15  1  0
 21 23  1  0
 22 21  2  0
M  END
$$$$
