LHL.pdb
     RDKit          3D

 27 27  0  0  1  0  0  0  0  0999 V2000
   34.1423  -22.5952  -10.4149 C   0  0  0  0  0  0  0  0  0  0  0  0
   33.0264  -22.8000  -11.4306 C   0  0  1  0  0  0  0  0  0  0  0  0
   32.3427  -24.1232  -11.1333 C   0  0  0  0  0  0  0  0  0  0  0  0
   32.0846  -21.6407  -11.4769 C   0  0  0  0  0  0  0  0  0  0  0  0
   30.9585  -21.8323  -12.4695 C   0  0  2  0  0  0  0  0  0  0  0  0
   31.3584  -21.3148  -13.7845 N   0  0  0  0  0  0  0  0  0  0  0  0
   29.7281  -21.1449  -12.0641 C   0  0  0  0  0  0  0  0  0  0  0  0
   29.6744  -19.8958  -12.1893 O   0  0  0  0  0  0  0  0  0  0  0  0
   28.5847  -21.7818  -11.5409 N   0  0  0  0  0  0  0  0  0  0  0  0
   27.4134  -21.0048  -11.0753 C   0  0  1  0  0  0  0  0  0  0  0  0
   26.2461  -21.3900  -11.9337 C   0  0  0  0  0  0  0  0  0  0  0  0
   25.0028  -20.7378  -11.4889 C   0  0  0  0  0  0  0  0  0  0  0  0
   24.7803  -19.3490  -11.4406 C   0  0  0  0  0  0  0  0  0  0  0  0
   23.5466  -19.1433  -10.9805 N   0  0  0  0  0  0  0  0  0  0  0  0
   22.9638  -20.3307  -10.7307 C   0  0  0  0  0  0  0  0  0  0  0  0
   23.8656  -21.2718  -11.0455 N   0  0  0  0  0  0  0  0  0  0  0  0
   27.2063  -21.3320   -9.6278 C   0  0  0  0  0  0  0  0  0  0  0  0
   27.3586  -22.4858   -9.1435 O   0  0  0  0  0  0  0  0  0  0  0  0
   29.1499  -18.4683   -5.4467 C   0  0  0  0  0  0  0  0  0  0  0  0
   28.6162  -19.6573   -6.2483 C   0  0  1  0  0  0  0  0  0  0  0  0
   28.7299  -20.9140   -5.3860 C   0  0  0  0  0  0  0  0  0  0  0  0
   27.1668  -19.4050   -6.5166 C   0  0  0  0  0  0  0  0  0  0  0  0
   26.5588  -20.5087   -7.3200 C   0  0  2  0  0  0  0  0  0  0  0  0
   26.8227  -20.2949   -8.7505 N   0  0  0  0  0  0  0  0  0  0  0  0
   25.1291  -20.6549   -7.0578 C   0  0  0  0  0  0  0  0  0  0  0  0
   24.1256  -20.4373   -7.9553 O   0  0  0  0  0  0  0  0  0  0  0  0
   24.7797  -21.0188   -5.8666 O   0  0  0  0  0  0  0  0  0  0  0  0
  2  3  1  1
  2  1  1  0
  4  2  1  0
  4  5  1  0
  5  7  1  0
  5  6  1  6
  7  8  2  0
  9 10  1  0
  9  7  1  0
 10 11  1  6
 11 12  1  0
 12 16  1  0
 13 12  2  0
 13 14  1  0
 14 15  1  0
 16 15  2  0
 17 18  2  0
 17 10  1  0
 20 22  1  0
 20 19  1  1
 21 20  1  0
 23 22  1  1
 23 25  1  0
 23 24  1  0
 24 17  1  0
 25 26  1  0
 27 25  2  0
M  END
$$$$
