LHL.pdb
     RDKit          3D

 27 27  0  0  1  0  0  0  0  0999 V2000
   30.2840  -16.5212  -16.4399 C   0  0  0  0  0  0  0  0  0  0  0  0
   29.0609  -17.3791  -16.7344 C   0  0  1  0  0  0  0  0  0  0  0  0
   29.5325  -18.7299  -17.2438 C   0  0  0  0  0  0  0  0  0  0  0  0
   28.1412  -17.4740  -15.5603 C   0  0  0  0  0  0  0  0  0  0  0  0
   26.9307  -18.3426  -15.8253 C   0  0  2  0  0  0  0  0  0  0  0  0
   26.1225  -17.7576  -16.9029 N   0  0  0  0  0  0  0  0  0  0  0  0
   26.0755  -18.4917  -14.6433 C   0  0  0  0  0  0  0  0  0  0  0  0
   25.4256  -17.4915  -14.2481 O   0  0  0  0  0  0  0  0  0  0  0  0
   25.9197  -19.6833  -13.9069 N   0  0  0  0  0  0  0  0  0  0  0  0
   25.0257  -19.7513  -12.7286 C   0  0  1  0  0  0  0  0  0  0  0  0
   23.8206  -20.5519  -13.1219 C   0  0  0  0  0  0  0  0  0  0  0  0
   22.8261  -20.6100  -12.0372 C   0  0  0  0  0  0  0  0  0  0  0  0
   22.5719  -21.7275  -11.2204 C   0  0  0  0  0  0  0  0  0  0  0  0
   21.6045  -21.4021  -10.3634 N   0  0  0  0  0  0  0  0  0  0  0  0
   21.2239  -20.1306  -10.5877 C   0  0  0  0  0  0  0  0  0  0  0  0
   21.9765  -19.6806  -11.6020 N   0  0  0  0  0  0  0  0  0  0  0  0
   25.8039  -20.3785  -11.6122 C   0  0  0  0  0  0  0  0  0  0  0  0
   26.5008  -21.4203  -11.7456 O   0  0  0  0  0  0  0  0  0  0  0  0
   28.9715  -20.6899   -7.5030 C   0  0  0  0  0  0  0  0  0  0  0  0
   27.6645  -20.0053   -7.0982 C   0  0  1  0  0  0  0  0  0  0  0  0
   27.9900  -18.8796   -6.1171 C   0  0  0  0  0  0  0  0  0  0  0  0
   27.0758  -19.3950   -8.3300 C   0  0  0  0  0  0  0  0  0  0  0  0
   26.3155  -20.4024   -9.1301 C   0  0  2  0  0  0  0  0  0  0  0  0
   25.7621  -19.7727  -10.3380 N   0  0  0  0  0  0  0  0  0  0  0  0
   25.2716  -21.0540   -8.3428 C   0  0  0  0  0  0  0  0  0  0  0  0
   25.4207  -22.1886   -7.6011 O   0  0  0  0  0  0  0  0  0  0  0  0
   24.0974  -20.5110   -8.3515 O   0  0  0  0  0  0  0  0  0  0  0  0
  2  3  1  1
  2  1  1  0
  4  2  1  0
  4  5  1  0
  5  7  1  0
  5  6  1  6
  7  8  2  0
  9 10  1  0
  9  7  1  0
 10 11  1  6
 11 12  1  0
 12 16  1  0
 13 12  2  0
 13 14  1  0
 14 15  1  0
 16 15  2  0
 17 18  2  0
 17 10  1  0
 20 22  1  0
 20 19  1  6
 21 20  1  0
 23 22  1  1
 23 25  1  0
 23 24  1  0
 24 17  1  0
 25 26  1  0
 27 25  2  0
M  END
$$$$
