LHL.pdb
     RDKit          3D

 27 27  0  0  1  0  0  0  0  0999 V2000
   25.5894  -15.2207  -17.2115 C   0  0  0  0  0  0  0  0  0  0  0  0
   26.4951  -16.1043  -16.3642 C   0  0  1  0  0  0  0  0  0  0  0  0
   27.2498  -15.2211  -15.3859 C   0  0  0  0  0  0  0  0  0  0  0  0
   25.7445  -17.2159  -15.7054 C   0  0  0  0  0  0  0  0  0  0  0  0
   26.3839  -17.6780  -14.4141 C   0  0  2  0  0  0  0  0  0  0  0  0
   27.7908  -18.0271  -14.6503 N   0  0  0  0  0  0  0  0  0  0  0  0
   25.7133  -18.8500  -13.8421 C   0  0  0  0  0  0  0  0  0  0  0  0
   24.4667  -18.8082  -13.6901 O   0  0  0  0  0  0  0  0  0  0  0  0
   26.3630  -20.0366  -13.4464 N   0  0  0  0  0  0  0  0  0  0  0  0
   25.6078  -21.1803  -12.8861 C   0  0  1  0  0  0  0  0  0  0  0  0
   25.7716  -22.3347  -13.8287 C   0  0  0  0  0  0  0  0  0  0  0  0
   25.0316  -22.1232  -15.0843 C   0  0  0  0  0  0  0  0  0  0  0  0
   23.6639  -22.3896  -15.2818 C   0  0  0  0  0  0  0  0  0  0  0  0
   23.3598  -22.0803  -16.5419 N   0  0  0  0  0  0  0  0  0  0  0  0
   24.4637  -21.6276  -17.1652 C   0  0  0  0  0  0  0  0  0  0  0  0
   25.4542  -21.6662  -16.2623 N   0  0  0  0  0  0  0  0  0  0  0  0
   26.1626  -21.4576  -11.5221 C   0  0  0  0  0  0  0  0  0  0  0  0
   26.9076  -22.4394  -11.2572 O   0  0  0  0  0  0  0  0  0  0  0  0
   28.1222  -18.7185   -7.4453 C   0  0  0  0  0  0  0  0  0  0  0  0
   27.6265  -19.7700   -8.4401 C   0  0  1  0  0  0  0  0  0  0  0  0
   28.4190  -21.0581   -8.2196 C   0  0  0  0  0  0  0  0  0  0  0  0
   26.1908  -20.0458   -8.1254 C   0  0  0  0  0  0  0  0  0  0  0  0
   25.5960  -21.0187   -9.0911 C   0  0  2  0  0  0  0  0  0  0  0  0
   25.8405  -20.5728  -10.4707 N   0  0  0  0  0  0  0  0  0  0  0  0
   24.1723  -21.2351   -8.8454 C   0  0  0  0  0  0  0  0  0  0  0  0
   23.6380  -21.9247   -7.7972 O   0  0  0  0  0  0  0  0  0  0  0  0
   23.3408  -20.7326   -9.6997 O   0  0  0  0  0  0  0  0  0  0  0  0
  2  3  1  1
  2  1  1  0
  4  2  1  0
  4  5  1  0
  5  7  1  0
  5  6  1  6
  7  8  2  0
  9 10  1  0
  9  7  1  0
 10 11  1  6
 11 12  1  0
 12 16  1  0
 13 12  2  0
 13 14  1  0
 14 15  1  0
 16 15  2  0
 17 18  2  0
 17 10  1  0
 20 22  1  0
 20 19  1  1
 21 20  1  0
 23 22  1  1
 23 25  1  0
 23 24  1  0
 24 17  1  0
 25 26  1  0
 27 25  2  0
M  END
$$$$
