LHL.pdb
     RDKit          3D

 27 27  0  0  1  0  0  0  0  0999 V2000
   19.9797  -12.0024    6.5521 C   0  0  0  0  0  0  0  0  0  0  0  0
   18.7881  -12.5893    5.8074 C   0  0  1  0  0  0  0  0  0  0  0  0
   19.1106  -12.6083    4.3234 C   0  0  0  0  0  0  0  0  0  0  0  0
   18.3866  -13.9241    6.3462 C   0  0  0  0  0  0  0  0  0  0  0  0
   17.2653  -14.5671    5.5594 C   0  0  2  0  0  0  0  0  0  0  0  0
   16.0093  -13.8443    5.7982 N   0  0  0  0  0  0  0  0  0  0  0  0
   17.0581  -15.9730    5.9214 C   0  0  0  0  0  0  0  0  0  0  0  0
   16.1481  -16.2490    6.7427 O   0  0  0  0  0  0  0  0  0  0  0  0
   17.8059  -17.0543    5.4131 N   0  0  0  0  0  0  0  0  0  0  0  0
   17.5264  -18.4483    5.8266 C   0  0  1  0  0  0  0  0  0  0  0  0
   17.6580  -19.3149    4.6103 C   0  0  0  0  0  0  0  0  0  0  0  0
   16.3777  -19.4494    3.8949 C   0  0  0  0  0  0  0  0  0  0  0  0
   15.1487  -18.9027    4.3088 C   0  0  0  0  0  0  0  0  0  0  0  0
   14.2224  -19.2414    3.4125 N   0  0  0  0  0  0  0  0  0  0  0  0
   14.7942  -19.9784    2.4421 C   0  0  0  0  0  0  0  0  0  0  0  0
   16.0921  -20.0875    2.7608 N   0  0  0  0  0  0  0  0  0  0  0  0
   18.5073  -18.8008    6.9031 C   0  0  0  0  0  0  0  0  0  0  0  0
   18.7843  -19.9847    7.2355 O   0  0  0  0  0  0  0  0  0  0  0  0
   22.6354  -15.2762    8.1723 C   0  0  0  0  0  0  0  0  0  0  0  0
   21.8458  -16.5491    7.8603 C   0  0  1  0  0  0  0  0  0  0  0  0
   22.8193  -17.7266    7.8215 C   0  0  0  0  0  0  0  0  0  0  0  0
   20.8882  -16.7723    8.9871 C   0  0  0  0  0  0  0  0  0  0  0  0
   20.0346  -17.9756    8.7496 C   0  0  2  0  0  0  0  0  0  0  0  0
   19.1646  -17.7544    7.5852 N   0  0  0  0  0  0  0  0  0  0  0  0
   19.2591  -18.3404    9.9327 C   0  0  0  0  0  0  0  0  0  0  0  0
   17.9002  -18.3013   10.0408 O   0  0  0  0  0  0  0  0  0  0  0  0
   19.9179  -18.7317   10.9751 O   0  0  0  0  0  0  0  0  0  0  0  0
  2  3  1  6
  2  1  1  0
  4  2  1  0
  4  5  1  0
  5  7  1  0
  5  6  1  1
  7  8  2  0
  9 10  1  0
  9  7  1  0
 10 11  1  6
 11 12  1  0
 12 16  1  0
 13 12  2  0
 13 14  1  0
 14 15  1  0
 16 15  2  0
 17 18  2  0
 17 10  1  0
 20 22  1  0
 20 19  1  1
 21 20  1  0
 23 22  1  1
 23 25  1  0
 23 24  1  0
 24 17  1  0
 25 26  1  0
 27 25  2  0
M  END
$$$$
