LHL.pdb
     RDKit          3D

 27 27  0  0  1  0  0  0  0  0999 V2000
   22.3373  -15.4401  -21.1370 C   0  0  0  0  0  0  0  0  0  0  0  0
   21.4620  -15.4434  -19.8910 C   0  0  1  0  0  0  0  0  0  0  0  0
   21.3226  -16.8756  -19.4052 C   0  0  0  0  0  0  0  0  0  0  0  0
   21.9676  -14.5060  -18.8427 C   0  0  0  0  0  0  0  0  0  0  0  0
   21.6960  -13.0531  -19.1671 C   0  0  2  0  0  0  0  0  0  0  0  0
   22.5273  -12.6310  -20.3018 N   0  0  0  0  0  0  0  0  0  0  0  0
   21.9796  -12.1619  -18.0376 C   0  0  0  0  0  0  0  0  0  0  0  0
   21.3727  -12.3598  -16.9553 O   0  0  0  0  0  0  0  0  0  0  0  0
   22.8927  -11.0885  -18.0680 N   0  0  0  0  0  0  0  0  0  0  0  0
   23.1041  -10.2212  -16.8867 C   0  0  1  0  0  0  0  0  0  0  0  0
   24.5799   -9.9939  -16.7520 C   0  0  0  0  0  0  0  0  0  0  0  0
   25.2730  -11.1923  -16.2495 C   0  0  0  0  0  0  0  0  0  0  0  0
   24.6503  -12.3893  -15.8496 C   0  0  0  0  0  0  0  0  0  0  0  0
   25.5990  -13.2362  -15.4511 N   0  0  0  0  0  0  0  0  0  0  0  0
   26.8014  -12.6439  -15.5751 C   0  0  0  0  0  0  0  0  0  0  0  0
   26.5726  -11.4138  -16.0571 N   0  0  0  0  0  0  0  0  0  0  0  0
   22.3376   -8.9548  -17.1186 C   0  0  0  0  0  0  0  0  0  0  0  0
   22.4837   -8.2261  -18.1368 O   0  0  0  0  0  0  0  0  0  0  0  0
   17.2864   -8.5472  -17.2966 C   0  0  0  0  0  0  0  0  0  0  0  0
   18.7732   -8.2210  -17.4515 C   0  0  1  0  0  0  0  0  0  0  0  0
   18.9413   -7.2760  -18.6409 C   0  0  0  0  0  0  0  0  0  0  0  0
   19.2065   -7.4980  -16.2163 C   0  0  0  0  0  0  0  0  0  0  0  0
   20.6826   -7.2654  -16.2076 C   0  0  2  0  0  0  0  0  0  0  0  0
   21.3948   -8.5503  -16.1492 N   0  0  0  0  0  0  0  0  0  0  0  0
   21.0920   -6.3792  -15.1208 C   0  0  0  0  0  0  0  0  0  0  0  0
   21.8105   -6.7432  -14.0203 O   0  0  0  0  0  0  0  0  0  0  0  0
   20.7389   -5.1374  -15.2043 O   0  0  0  0  0  0  0  0  0  0  0  0
  2  3  1  1
  2  1  1  0
  4  2  1  0
  4  5  1  0
  5  7  1  0
  5  6  1  6
  7  8  2  0
  9 10  1  0
  9  7  1  0
 10 11  1  6
 11 12  1  0
 12 16  1  0
 13 12  2  0
 13 14  1  0
 14 15  1  0
 16 15  2  0
 17 18  2  0
 17 10  1  0
 20 22  1  0
 20 19  1  1
 21 20  1  0
 23 22  1  1
 23 25  1  0
 23 24  1  0
 24 17  1  0
 25 26  1  0
 27 25  2  0
M  END
$$$$
