LHL.pdb
     RDKit          3D

 27 27  0  0  1  0  0  0  0  0999 V2000
   31.6841  -21.3081  -12.0867 C   0  0  0  0  0  0  0  0  0  0  0  0
   30.2635  -21.5127  -11.5780 C   0  0  1  0  0  0  0  0  0  0  0  0
   30.3088  -21.6451  -10.0657 C   0  0  0  0  0  0  0  0  0  0  0  0
   29.3333  -20.4443  -12.0542 C   0  0  0  0  0  0  0  0  0  0  0  0
   29.1836  -20.4178  -13.5598 C   0  0  2  0  0  0  0  0  0  0  0  0
   30.1740  -19.5043  -14.1441 N   0  0  0  0  0  0  0  0  0  0  0  0
   27.8508  -19.9778  -13.9849 C   0  0  0  0  0  0  0  0  0  0  0  0
   27.4988  -18.8012  -13.7191 O   0  0  0  0  0  0  0  0  0  0  0  0
   26.9218  -20.7784  -14.6797 N   0  0  0  0  0  0  0  0  0  0  0  0
   25.5722  -20.2745  -15.0218 C   0  0  1  0  0  0  0  0  0  0  0  0
   25.3170  -20.6089  -16.4609 C   0  0  0  0  0  0  0  0  0  0  0  0
   24.0045  -20.1156  -16.9113 C   0  0  0  0  0  0  0  0  0  0  0  0
   23.0876  -19.3952  -16.1234 C   0  0  0  0  0  0  0  0  0  0  0  0
   22.0168  -19.1313  -16.8716 N   0  0  0  0  0  0  0  0  0  0  0  0
   22.1992  -19.6455  -18.1021 C   0  0  0  0  0  0  0  0  0  0  0  0
   23.4045  -20.2330  -18.0950 N   0  0  0  0  0  0  0  0  0  0  0  0
   24.6001  -20.9305  -14.0891 C   0  0  0  0  0  0  0  0  0  0  0  0
   24.3963  -22.1740  -14.0536 O   0  0  0  0  0  0  0  0  0  0  0  0
   24.8846  -20.0760   -9.0882 C   0  0  0  0  0  0  0  0  0  0  0  0
   24.6341  -20.5525  -10.5204 C   0  0  1  0  0  0  0  0  0  0  0  0
   24.8041  -22.0707  -10.5633 C   0  0  0  0  0  0  0  0  0  0  0  0
   23.2132  -20.2323  -10.8592 C   0  0  0  0  0  0  0  0  0  0  0  0
   22.8753  -20.6512  -12.2533 C   0  0  2  0  0  0  0  0  0  0  0  0
   23.8706  -20.1178  -13.1949 N   0  0  0  0  0  0  0  0  0  0  0  0
   21.5199  -20.2582  -12.6311 C   0  0  0  0  0  0  0  0  0  0  0  0
   20.3866  -20.9839  -12.4104 O   0  0  0  0  0  0  0  0  0  0  0  0
   21.3790  -19.1221  -13.2336 O   0  0  0  0  0  0  0  0  0  0  0  0
  2  3  1  1
  2  1  1  0
  4  2  1  0
  4  5  1  0
  5  7  1  0
  5  6  1  6
  7  8  2  0
  9 10  1  0
  9  7  1  0
 10 11  1  6
 11 12  1  0
 12 16  1  0
 13 12  2  0
 13 14  1  0
 14 15  1  0
 16 15  2  0
 17 18  2  0
 17 10  1  0
 20 22  1  0
 20 19  1  1
 21 20  1  0
 23 22  1  1
 23 25  1  0
 23 24  1  0
 24 17  1  0
 25 26  1  0
 27 25  2  0
M  END
$$$$
