LHL.pdb
     RDKit          3D

 27 27  0  0  1  0  0  0  0  0999 V2000
   27.4711  -15.7684  -16.7402 C   0  0  0  0  0  0  0  0  0  0  0  0
   26.0966  -15.2455  -16.3448 C   0  0  1  0  0  0  0  0  0  0  0  0
   25.7410  -15.8114  -14.9811 C   0  0  0  0  0  0  0  0  0  0  0  0
   26.0194  -13.7544  -16.4090 C   0  0  0  0  0  0  0  0  0  0  0  0
   24.6411  -13.2188  -16.0874 C   0  0  2  0  0  0  0  0  0  0  0  0
   23.6203  -14.0259  -16.7682 N   0  0  0  0  0  0  0  0  0  0  0  0
   24.4693  -11.8226  -16.5017 C   0  0  0  0  0  0  0  0  0  0  0  0
   25.2486  -10.9596  -16.0255 O   0  0  0  0  0  0  0  0  0  0  0  0
   23.4890  -11.3653  -17.4054 N   0  0  0  0  0  0  0  0  0  0  0  0
   23.4325   -9.9483  -17.8311 C   0  0  1  0  0  0  0  0  0  0  0  0
   23.5055   -9.9236  -19.3284 C   0  0  0  0  0  0  0  0  0  0  0  0
   24.8231  -10.3633  -19.8180 C   0  0  0  0  0  0  0  0  0  0  0  0
   25.9656   -9.5496  -19.9328 C   0  0  0  0  0  0  0  0  0  0  0  0
   26.9580  -10.2957  -20.4169 N   0  0  0  0  0  0  0  0  0  0  0  0
   26.5111  -11.5493  -20.6191 C   0  0  0  0  0  0  0  0  0  0  0  0
   25.2220  -11.5586  -20.2503 N   0  0  0  0  0  0  0  0  0  0  0  0
   22.1556   -9.3720  -17.2996 C   0  0  0  0  0  0  0  0  0  0  0  0
   21.2494   -8.8890  -18.0307 O   0  0  0  0  0  0  0  0  0  0  0  0
   19.2870  -12.1042  -13.9744 C   0  0  0  0  0  0  0  0  0  0  0  0
   19.8090  -11.1263  -15.0290 C   0  0  1  0  0  0  0  0  0  0  0  0
   18.6800  -10.8280  -16.0150 C   0  0  0  0  0  0  0  0  0  0  0  0
   20.1636   -9.8544  -14.3270 C   0  0  0  0  0  0  0  0  0  0  0  0
   20.7259   -8.8448  -15.2745 C   0  0  2  0  0  0  0  0  0  0  0  0
   21.9468   -9.3694  -15.9037 N   0  0  0  0  0  0  0  0  0  0  0  0
   20.9711   -7.5595  -14.6249 C   0  0  0  0  0  0  0  0  0  0  0  0
   20.0183   -6.7243  -14.1204 O   0  0  0  0  0  0  0  0  0  0  0  0
   22.2015   -7.1735  -14.5214 O   0  0  0  0  0  0  0  0  0  0  0  0
  2  3  1  1
  2  1  1  0
  4  2  1  0
  4  5  1  0
  5  7  1  0
  5  6  1  6
  7  8  2  0
  9 10  1  0
  9  7  1  0
 10 11  1  6
 11 12  1  0
 12 16  1  0
 13 12  2  0
 13 14  1  0
 14 15  1  0
 16 15  2  0
 17 18  2  0
 17 10  1  0
 20 22  1  0
 20 19  1  1
 21 20  1  0
 23 22  1  1
 23 25  1  0
 23 24  1  0
 24 17  1  0
 25 26  1  0
 27 25  2  0
M  END
$$$$
