LHL.pdb
     RDKit          3D

 27 27  0  0  1  0  0  0  0  0999 V2000
   22.6331  -17.3565  -18.0090 C   0  0  0  0  0  0  0  0  0  0  0  0
   23.4516  -18.4741  -17.3767 C   0  0  1  0  0  0  0  0  0  0  0  0
   23.8155  -19.4752  -18.4593 C   0  0  0  0  0  0  0  0  0  0  0  0
   24.6342  -17.9533  -16.6260 C   0  0  0  0  0  0  0  0  0  0  0  0
   25.2697  -18.9924  -15.7280 C   0  0  2  0  0  0  0  0  0  0  0  0
   25.0888  -20.3302  -16.3063 N   0  0  0  0  0  0  0  0  0  0  0  0
   24.6950  -18.9973  -14.3789 C   0  0  0  0  0  0  0  0  0  0  0  0
   24.7157  -17.9286  -13.7184 O   0  0  0  0  0  0  0  0  0  0  0  0
   24.1108  -20.1189  -13.7563 N   0  0  0  0  0  0  0  0  0  0  0  0
   23.5085  -20.0262  -12.4068 C   0  0  1  0  0  0  0  0  0  0  0  0
   22.2074  -20.7704  -12.4412 C   0  0  0  0  0  0  0  0  0  0  0  0
   21.4896  -20.6742  -11.1588 C   0  0  0  0  0  0  0  0  0  0  0  0
   21.9166  -19.9410  -10.0361 C   0  0  0  0  0  0  0  0  0  0  0  0
   21.0131  -20.1006   -9.0695 N   0  0  0  0  0  0  0  0  0  0  0  0
   20.0256  -20.8998   -9.5145 C   0  0  0  0  0  0  0  0  0  0  0  0
   20.3411  -21.2299  -10.7752 N   0  0  0  0  0  0  0  0  0  0  0  0
   24.4901  -20.6116  -11.4377 C   0  0  0  0  0  0  0  0  0  0  0  0
   25.1157  -21.6869  -11.6407 O   0  0  0  0  0  0  0  0  0  0  0  0
   28.4924  -20.3226   -8.1170 C   0  0  0  0  0  0  0  0  0  0  0  0
   27.2493  -19.7504   -7.4327 C   0  0  1  0  0  0  0  0  0  0  0  0
   27.6684  -18.5401   -6.5987 C   0  0  0  0  0  0  0  0  0  0  0  0
   26.3215  -19.2784   -8.5063 C   0  0  0  0  0  0  0  0  0  0  0  0
   25.6509  -20.4240   -9.1927 C   0  0  2  0  0  0  0  0  0  0  0  0
   24.7360  -19.9245  -10.2296 N   0  0  0  0  0  0  0  0  0  0  0  0
   24.9603  -21.3005   -8.2498 C   0  0  0  0  0  0  0  0  0  0  0  0
   25.5188  -22.3444   -7.5728 O   0  0  0  0  0  0  0  0  0  0  0  0
   23.7046  -21.0715   -8.0393 O   0  0  0  0  0  0  0  0  0  0  0  0
  2  3  1  6
  2  1  1  0
  4  2  1  0
  4  5  1  0
  5  7  1  0
  5  6  1  6
  7  8  2  0
  9 10  1  0
  9  7  1  0
 10 11  1  6
 11 12  1  0
 12 16  1  0
 13 12  2  0
 13 14  1  0
 14 15  1  0
 16 15  2  0
 17 18  2  0
 17 10  1  0
 20 22  1  0
 20 19  1  6
 21 20  1  0
 23 22  1  1
 23 25  1  0
 23 24  1  0
 24 17  1  0
 25 26  1  0
 27 25  2  0
M  END
$$$$
