LHL.pdb
     RDKit          3D

 27 27  0  0  1  0  0  0  0  0999 V2000
   33.8970  -22.0101   -9.8281 C   0  0  0  0  0  0  0  0  0  0  0  0
   32.7761  -22.4370  -10.7663 C   0  0  1  0  0  0  0  0  0  0  0  0
   32.4047  -23.8749  -10.4486 C   0  0  0  0  0  0  0  0  0  0  0  0
   31.6140  -21.4985  -10.7221 C   0  0  0  0  0  0  0  0  0  0  0  0
   30.4601  -21.9438  -11.5940 C   0  0  2  0  0  0  0  0  0  0  0  0
   30.7981  -21.7455  -13.0093 N   0  0  0  0  0  0  0  0  0  0  0  0
   29.2246  -21.2055  -11.3125 C   0  0  0  0  0  0  0  0  0  0  0  0
   29.3009  -20.1561  -10.6257 O   0  0  0  0  0  0  0  0  0  0  0  0
   27.9418  -21.5821  -11.7590 N   0  0  0  0  0  0  0  0  0  0  0  0
   26.7440  -20.7737  -11.4361 C   0  0  1  0  0  0  0  0  0  0  0  0
   25.7162  -21.0480  -12.4926 C   0  0  0  0  0  0  0  0  0  0  0  0
   24.4371  -20.3810  -12.1959 C   0  0  0  0  0  0  0  0  0  0  0  0
   24.1823  -19.5607  -11.0812 C   0  0  0  0  0  0  0  0  0  0  0  0
   22.9172  -19.1475  -11.1520 N   0  0  0  0  0  0  0  0  0  0  0  0
   22.3453  -19.6608  -12.2571 C   0  0  0  0  0  0  0  0  0  0  0  0
   23.2849  -20.4000  -12.8645 N   0  0  0  0  0  0  0  0  0  0  0  0
   26.2916  -21.1725  -10.0644 C   0  0  0  0  0  0  0  0  0  0  0  0
   25.9429  -22.3443   -9.7569 O   0  0  0  0  0  0  0  0  0  0  0  0
   28.2922  -18.4321   -5.6726 C   0  0  0  0  0  0  0  0  0  0  0  0
   27.8305  -19.5267   -6.6368 C   0  0  1  0  0  0  0  0  0  0  0  0
   28.1766  -20.8859   -6.0295 C   0  0  0  0  0  0  0  0  0  0  0  0
   26.3423  -19.4306   -6.7475 C   0  0  0  0  0  0  0  0  0  0  0  0
   25.7955  -20.4590   -7.6837 C   0  0  2  0  0  0  0  0  0  0  0  0
   26.2544  -20.1878   -9.0540 N   0  0  0  0  0  0  0  0  0  0  0  0
   24.3386  -20.5431   -7.6164 C   0  0  0  0  0  0  0  0  0  0  0  0
   23.6199  -21.2248   -6.6791 O   0  0  0  0  0  0  0  0  0  0  0  0
   23.6667  -19.9198   -8.5294 O   0  0  0  0  0  0  0  0  0  0  0  0
  2  3  1  1
  2  1  1  0
  4  2  1  0
  4  5  1  0
  5  7  1  0
  5  6  1  6
  7  8  2  0
  9 10  1  0
  9  7  1  0
 10 11  1  6
 11 12  1  0
 12 16  1  0
 13 12  2  0
 13 14  1  0
 14 15  1  0
 16 15  2  0
 17 18  2  0
 17 10  1  0
 20 22  1  0
 20 19  1  1
 21 20  1  0
 23 22  1  1
 23 25  1  0
 23 24  1  0
 24 17  1  0
 25 26  1  0
 27 25  2  0
M  END
$$$$
