LHL.pdb
     RDKit          3D

 27 27  0  0  1  0  0  0  0  0999 V2000
   25.3096  -31.7474   -8.5137 C   0  0  0  0  0  0  0  0  0  0  0  0
   25.8288  -33.1194   -8.1055 C   0  0  1  0  0  0  0  0  0  0  0  0
   27.3134  -33.1846   -8.4194 C   0  0  0  0  0  0  0  0  0  0  0  0
   25.5065  -33.4454   -6.6831 C   0  0  0  0  0  0  0  0  0  0  0  0
   26.1008  -34.7606   -6.2281 C   0  0  2  0  0  0  0  0  0  0  0  0
   25.5309  -35.8640   -7.0119 N   0  0  0  0  0  0  0  0  0  0  0  0
   25.8479  -35.0313   -4.8091 C   0  0  0  0  0  0  0  0  0  0  0  0
   24.6749  -35.3102   -4.4555 O   0  0  0  0  0  0  0  0  0  0  0  0
   26.8287  -35.0061   -3.7970 N   0  0  0  0  0  0  0  0  0  0  0  0
   26.5292  -35.4616   -2.4204 C   0  0  1  0  0  0  0  0  0  0  0  0
   27.5489  -36.4985   -2.0561 C   0  0  0  0  0  0  0  0  0  0  0  0
   27.2373  -37.8058   -2.6586 C   0  0  0  0  0  0  0  0  0  0  0  0
   25.9846  -38.4459   -2.6198 C   0  0  0  0  0  0  0  0  0  0  0  0
   26.0935  -39.6077   -3.2637 N   0  0  0  0  0  0  0  0  0  0  0  0
   27.3538  -39.7468   -3.7154 C   0  0  0  0  0  0  0  0  0  0  0  0
   28.0190  -38.6466   -3.3346 N   0  0  0  0  0  0  0  0  0  0  0  0
   26.5780  -34.2572   -1.5302 C   0  0  0  0  0  0  0  0  0  0  0  0
   27.6119  -33.5570   -1.3582 O   0  0  0  0  0  0  0  0  0  0  0  0
   24.3247  -29.9448    0.7685 C   0  0  0  0  0  0  0  0  0  0  0  0
   23.8209  -31.2671    1.3505 C   0  0  1  0  0  0  0  0  0  0  0  0
   22.3432  -31.1087    1.7069 C   0  0  0  0  0  0  0  0  0  0  0  0
   23.9337  -32.3030    0.2778 C   0  0  0  0  0  0  0  0  0  0  0  0
   25.3493  -32.7426    0.0882 C   0  0  2  0  0  0  0  0  0  0  0  0
   25.4038  -33.8771   -0.8454 N   0  0  0  0  0  0  0  0  0  0  0  0
   25.9985  -33.0645    1.3567 C   0  0  0  0  0  0  0  0  0  0  0  0
   25.8565  -34.2274    2.0547 O   0  0  0  0  0  0  0  0  0  0  0  0
   26.7751  -32.1657    1.8692 O   0  0  0  0  0  0  0  0  0  0  0  0
  2  3  1  1
  2  1  1  0
  4  2  1  0
  4  5  1  0
  5  7  1  0
  5  6  1  6
  7  8  2  0
  9 10  1  0
  9  7  1  0
 10 11  1  1
 11 12  1  0
 12 16  1  0
 13 12  2  0
 13 14  1  0
 14 15  1  0
 16 15  2  0
 17 18  2  0
 17 10  1  0
 20 22  1  0
 20 19  1  6
 21 20  1  0
 23 22  1  1
 23 25  1  0
 23 24  1  0
 24 17  1  0
 25 26  1  0
 27 25  2  0
M  END
$$$$
