LHL.pdb
     RDKit          3D

 27 27  0  0  1  0  0  0  0  0999 V2000
   28.9735  -16.6954  -16.0445 C   0  0  0  0  0  0  0  0  0  0  0  0
   28.1423  -17.9685  -15.9609 C   0  0  1  0  0  0  0  0  0  0  0  0
   29.0857  -19.1586  -15.9469 C   0  0  0  0  0  0  0  0  0  0  0  0
   27.1924  -17.9486  -14.8074 C   0  0  0  0  0  0  0  0  0  0  0  0
   26.5671  -19.2988  -14.5322 C   0  0  2  0  0  0  0  0  0  0  0  0
   25.5737  -19.6096  -15.5683 N   0  0  0  0  0  0  0  0  0  0  0  0
   25.8983  -19.3538  -13.2282 C   0  0  0  0  0  0  0  0  0  0  0  0
   25.3100  -18.3227  -12.8163 O   0  0  0  0  0  0  0  0  0  0  0  0
   25.8594  -20.4864  -12.3901 N   0  0  0  0  0  0  0  0  0  0  0  0
   25.1164  -20.4738  -11.1094 C   0  0  1  0  0  0  0  0  0  0  0  0
   23.9454  -21.3982  -11.2579 C   0  0  0  0  0  0  0  0  0  0  0  0
   22.8792  -20.8009  -12.0798 C   0  0  0  0  0  0  0  0  0  0  0  0
   22.8861  -19.4950  -12.6043 C   0  0  0  0  0  0  0  0  0  0  0  0
   21.7539  -19.3161  -13.2841 N   0  0  0  0  0  0  0  0  0  0  0  0
   21.0188  -20.4421  -13.2235 C   0  0  0  0  0  0  0  0  0  0  0  0
   21.7220  -21.3175  -12.4907 N   0  0  0  0  0  0  0  0  0  0  0  0
   26.0681  -20.9056  -10.0357 C   0  0  0  0  0  0  0  0  0  0  0  0
   26.8204  -21.9125  -10.1325 O   0  0  0  0  0  0  0  0  0  0  0  0
   28.3709  -18.0697   -5.7767 C   0  0  0  0  0  0  0  0  0  0  0  0
   28.0705  -19.1394   -6.8285 C   0  0  1  0  0  0  0  0  0  0  0  0
   29.0892  -20.2686   -6.6768 C   0  0  0  0  0  0  0  0  0  0  0  0
   26.7131  -19.6927   -6.5328 C   0  0  0  0  0  0  0  0  0  0  0  0
   26.3245  -20.7457   -7.5194 C   0  0  2  0  0  0  0  0  0  0  0  0
   26.1346  -20.1456   -8.8482 N   0  0  0  0  0  0  0  0  0  0  0  0
   25.1385  -21.4852   -7.0942 C   0  0  0  0  0  0  0  0  0  0  0  0
   25.1268  -22.5699   -6.2677 O   0  0  0  0  0  0  0  0  0  0  0  0
   23.9952  -21.0801   -7.5441 O   0  0  0  0  0  0  0  0  0  0  0  0
  2  3  1  1
  2  1  1  0
  4  2  1  0
  4  5  1  0
  5  7  1  0
  5  6  1  6
  7  8  2  0
  9 10  1  0
  9  7  1  0
 10 11  1  6
 11 12  1  0
 12 16  1  0
 13 12  2  0
 13 14  1  0
 14 15  1  0
 16 15  2  0
 17 18  2  0
 17 10  1  0
 20 22  1  0
 20 19  1  1
 21 20  1  0
 23 22  1  1
 23 25  1  0
 23 24  1  0
 24 17  1  0
 25 26  1  0
 27 25  2  0
M  END
$$$$
