DFD.pdb
     RDKit          3D

 28 28  0  0  1  0  0  0  0  0999 V2000
   27.9773  -21.8773  -14.1135 N   0  0  0  0  0  0  0  0  0  0  0  0
   27.9134  -20.7530  -13.2430 C   0  0  1  0  0  0  0  0  0  0  0  0
   27.0955  -19.5927  -13.7310 C   0  0  0  0  0  0  0  0  0  0  0  0
   27.5250  -19.0763  -15.0456 C   0  0  0  0  0  0  0  0  0  0  0  0
   28.7179  -18.8764  -15.3106 O   0  0  0  0  0  0  0  0  0  0  0  0
   27.5816  -21.0763  -11.8292 C   0  0  0  0  0  0  0  0  0  0  0  0
   26.6737  -21.9157  -11.6234 O   0  0  0  0  0  0  0  0  0  0  0  0
   26.5671  -18.8054  -16.0170 O   0  0  0  0  0  0  0  0  0  0  0  0
   28.2070  -20.5126  -10.7094 N   0  0  0  0  0  0  0  0  0  0  0  0
   27.7056  -20.7482   -9.3607 C   0  0  1  0  0  0  0  0  0  0  0  0
   28.7352  -20.2560   -8.4132 C   0  0  0  0  0  0  0  0  0  0  0  0
   28.2889  -20.1659   -7.0022 C   0  0  0  0  0  0  0  0  0  0  0  0
   28.3042  -21.2919   -6.1831 C   0  0  0  0  0  0  0  0  0  0  0  0
   27.8992  -21.2187   -4.8670 C   0  0  0  0  0  0  0  0  0  0  0  0
   27.4774  -19.9962   -4.3831 C   0  0  0  0  0  0  0  0  0  0  0  0
   27.4548  -18.8573   -5.1862 C   0  0  0  0  0  0  0  0  0  0  0  0
   27.8676  -18.9581   -6.5076 C   0  0  0  0  0  0  0  0  0  0  0  0
   26.3452  -20.2168   -9.1790 C   0  0  0  0  0  0  0  0  0  0  0  0
   26.1868  -18.9729   -9.4265 O   0  0  0  0  0  0  0  0  0  0  0  0
   25.2468  -20.9851   -8.7589 N   0  0  0  0  0  0  0  0  0  0  0  0
   23.8915  -20.5261   -9.0838 C   0  0  1  0  0  0  0  0  0  0  0  0
   23.4355  -21.1133  -10.3859 C   0  0  0  0  0  0  0  0  0  0  0  0
   22.1570  -20.5297  -10.8037 C   0  0  0  0  0  0  0  0  0  0  0  0
   21.5146  -19.6958  -10.1336 O   0  0  0  0  0  0  0  0  0  0  0  0
   22.9827  -21.0474   -8.0121 C   0  0  0  0  0  0  0  0  0  0  0  0
   21.8282  -20.6680   -7.8920 O   0  0  0  0  0  0  0  0  0  0  0  0
   21.6081  -20.9200  -12.0230 O   0  0  0  0  0  0  0  0  0  0  0  0
   23.4865  -21.9923   -7.1372 O   0  0  0  0  0  0  0  0  0  0  0  0
  2  1  1  6
  2  6  1  0
  3  2  1  0
  4  3  1  0
  5  4  2  0
  6  7  2  0
  6  9  1  0
  8  4  1  0
  9 10  1  0
 10 11  1  1
 11 12  1  0
 12 13  2  0
 12 17  1  0
 13 14  1  0
 14 15  2  0
 16 15  1  0
 17 16  2  0
 18 20  1  0
 18 10  1  0
 19 18  2  0
 21 20  1  0
 21 25  1  0
 22 23  1  0
 21 22  1  6
 23 24  2  0
 25 28  1  0
 26 25  2  0
 27 23  1  0
M  END
$$$$
