DFD.pdb
     RDKit          3D

 28 28  0  0  1  0  0  0  0  0999 V2000
   23.9748  -10.9131  -20.1131 N   0  0  0  0  0  0  0  0  0  0  0  0
   23.3475  -11.3442  -18.9104 C   0  0  1  0  0  0  0  0  0  0  0  0
   23.8794  -12.6147  -18.3136 C   0  0  0  0  0  0  0  0  0  0  0  0
   23.6924  -13.7982  -19.1760 C   0  0  0  0  0  0  0  0  0  0  0  0
   23.0314  -13.7462  -20.2218 O   0  0  0  0  0  0  0  0  0  0  0  0
   23.2030  -10.2910  -17.8695 C   0  0  0  0  0  0  0  0  0  0  0  0
   22.5726  -10.5876  -16.8274 O   0  0  0  0  0  0  0  0  0  0  0  0
   24.2730  -15.0075  -18.8083 O   0  0  0  0  0  0  0  0  0  0  0  0
   23.7178   -8.9917  -17.9662 N   0  0  0  0  0  0  0  0  0  0  0  0
   23.5835   -8.0383  -16.8712 C   0  0  1  0  0  0  0  0  0  0  0  0
   24.9484   -7.5839  -16.5099 C   0  0  0  0  0  0  0  0  0  0  0  0
   25.8741   -8.6655  -16.0955 C   0  0  0  0  0  0  0  0  0  0  0  0
   27.0168   -8.9418  -16.8415 C   0  0  0  0  0  0  0  0  0  0  0  0
   27.8893   -9.9398  -16.4615 C   0  0  0  0  0  0  0  0  0  0  0  0
   27.5980  -10.6585  -15.3191 C   0  0  0  0  0  0  0  0  0  0  0  0
   26.4598  -10.3976  -14.5583 C   0  0  0  0  0  0  0  0  0  0  0  0
   25.5977   -9.3876  -14.9627 C   0  0  0  0  0  0  0  0  0  0  0  0
   22.6049   -6.9827  -17.1778 C   0  0  0  0  0  0  0  0  0  0  0  0
   22.7772   -6.3545  -18.2774 O   0  0  0  0  0  0  0  0  0  0  0  0
   21.5250   -6.6414  -16.3467 N   0  0  0  0  0  0  0  0  0  0  0  0
   20.6363   -5.5453  -16.7490 C   0  0  1  0  0  0  0  0  0  0  0  0
   19.3141   -5.6570  -16.0507 C   0  0  0  0  0  0  0  0  0  0  0  0
   18.4444   -4.5275  -16.3936 C   0  0  0  0  0  0  0  0  0  0  0  0
   17.3589   -4.6370  -16.9990 O   0  0  0  0  0  0  0  0  0  0  0  0
   21.2789   -4.2699  -16.2946 C   0  0  0  0  0  0  0  0  0  0  0  0
   21.9587   -4.2047  -15.2822 O   0  0  0  0  0  0  0  0  0  0  0  0
   18.8394   -3.2423  -16.0296 O   0  0  0  0  0  0  0  0  0  0  0  0
   21.0850   -3.1362  -17.0622 O   0  0  0  0  0  0  0  0  0  0  0  0
  2  1  1  6
  2  6  1  0
  3  2  1  0
  4  3  1  0
  5  4  2  0
  6  7  2  0
  6  9  1  0
  8  4  1  0
  9 10  1  0
 10 11  1  6
 11 12  1  0
 12 13  2  0
 12 17  1  0
 13 14  1  0
 14 15  2  0
 16 15  1  0
 17 16  2  0
 18 20  1  0
 18 10  1  0
 19 18  2  0
 21 20  1  0
 21 25  1  0
 22 23  1  0
 21 22  1  1
 23 24  2  0
 25 28  1  0
 26 25  2  0
 27 23  1  0
M  END
$$$$
