DFD.pdb
     RDKit          3D

 28 28  0  0  1  0  0  0  0  0999 V2000
   16.3997  -25.6596   -3.3128 N   0  0  0  0  0  0  0  0  0  0  0  0
   15.4726  -25.4997   -2.2447 C   0  0  1  0  0  0  0  0  0  0  0  0
   14.9329  -26.7682   -1.6506 C   0  0  0  0  0  0  0  0  0  0  0  0
   14.4026  -27.7132   -2.6531 C   0  0  0  0  0  0  0  0  0  0  0  0
   13.3588  -27.4839   -3.2787 O   0  0  0  0  0  0  0  0  0  0  0  0
   15.9065  -24.5586   -1.1771 C   0  0  0  0  0  0  0  0  0  0  0  0
   17.0590  -24.7060   -0.7068 O   0  0  0  0  0  0  0  0  0  0  0  0
   15.0908  -28.8952   -2.9059 O   0  0  0  0  0  0  0  0  0  0  0  0
   15.1236  -23.5198   -0.6568 N   0  0  0  0  0  0  0  0  0  0  0  0
   15.6554  -22.5911    0.3336 C   0  0  1  0  0  0  0  0  0  0  0  0
   15.4000  -21.2178   -0.1653 C   0  0  0  0  0  0  0  0  0  0  0  0
   15.8011  -20.1344    0.7642 C   0  0  0  0  0  0  0  0  0  0  0  0
   14.8435  -19.4564    1.5140 C   0  0  0  0  0  0  0  0  0  0  0  0
   15.2052  -18.4527    2.3877 C   0  0  0  0  0  0  0  0  0  0  0  0
   16.5451  -18.1382    2.4985 C   0  0  0  0  0  0  0  0  0  0  0  0
   17.5191  -18.8048    1.7574 C   0  0  0  0  0  0  0  0  0  0  0  0
   17.1284  -19.8113    0.8850 C   0  0  0  0  0  0  0  0  0  0  0  0
   15.1678  -22.8936    1.6888 C   0  0  0  0  0  0  0  0  0  0  0  0
   13.9693  -23.3293    1.7740 O   0  0  0  0  0  0  0  0  0  0  0  0
   15.9306  -22.7308    2.8572 N   0  0  0  0  0  0  0  0  0  0  0  0
   15.2872  -22.9314    4.1607 C   0  0  1  0  0  0  0  0  0  0  0  0
   16.1035  -23.8560    5.0132 C   0  0  0  0  0  0  0  0  0  0  0  0
   15.9501  -25.2460    4.5725 C   0  0  0  0  0  0  0  0  0  0  0  0
   14.8523  -25.7885    4.3328 O   0  0  0  0  0  0  0  0  0  0  0  0
   15.2562  -21.5982    4.8446 C   0  0  0  0  0  0  0  0  0  0  0  0
   15.8105  -20.6130    4.3825 O   0  0  0  0  0  0  0  0  0  0  0  0
   17.0917  -26.0268    4.4065 O   0  0  0  0  0  0  0  0  0  0  0  0
   14.5697  -21.4984    6.0408 O   0  0  0  0  0  0  0  0  0  0  0  0
  2  1  1  6
  2  6  1  0
  3  2  1  0
  4  3  1  0
  5  4  2  0
  6  7  2  0
  6  9  1  0
  8  4  1  0
  9 10  1  0
 10 11  1  6
 11 12  1  0
 12 13  2  0
 12 17  1  0
 13 14  1  0
 14 15  2  0
 16 15  1  0
 17 16  2  0
 18 20  1  0
 18 10  1  0
 19 18  2  0
 21 20  1  0
 21 25  1  0
 22 23  1  0
 21 22  1  1
 23 24  2  0
 25 28  1  0
 26 25  2  0
 27 23  1  0
M  END
$$$$
