DFD.pdb
     RDKit          3D

 28 28  0  0  1  0  0  0  0  0999 V2000
   20.5287   -9.7196  -17.5407 N   0  0  0  0  0  0  0  0  0  0  0  0
   20.7535   -8.3476  -17.8451 C   0  0  1  0  0  0  0  0  0  0  0  0
   19.9801   -7.7999  -19.0092 C   0  0  0  0  0  0  0  0  0  0  0  0
   20.2186   -8.5249  -20.2729 C   0  0  0  0  0  0  0  0  0  0  0  0
   19.3987   -9.3350  -20.7256 O   0  0  0  0  0  0  0  0  0  0  0  0
   20.6743   -7.4281  -16.6781 C   0  0  0  0  0  0  0  0  0  0  0  0
   19.6827   -7.5375  -15.9193 O   0  0  0  0  0  0  0  0  0  0  0  0
   21.3950   -8.2951  -20.9785 O   0  0  0  0  0  0  0  0  0  0  0  0
   21.6246   -6.4480  -16.3632 N   0  0  0  0  0  0  0  0  0  0  0  0
   21.5049   -5.6332  -15.1600 C   0  0  1  0  0  0  0  0  0  0  0  0
   22.7036   -5.8955  -14.3266 C   0  0  0  0  0  0  0  0  0  0  0  0
   22.8073   -7.2797  -13.8054 C   0  0  0  0  0  0  0  0  0  0  0  0
   22.0421   -7.6829  -12.7142 C   0  0  0  0  0  0  0  0  0  0  0  0
   22.1240   -8.9698  -12.2256 C   0  0  0  0  0  0  0  0  0  0  0  0
   22.9868   -9.8489  -12.8495 C   0  0  0  0  0  0  0  0  0  0  0  0
   23.7611   -9.4654  -13.9431 C   0  0  0  0  0  0  0  0  0  0  0  0
   23.6599   -8.1640  -14.4153 C   0  0  0  0  0  0  0  0  0  0  0  0
   21.2266   -4.2230  -15.4761 C   0  0  0  0  0  0  0  0  0  0  0  0
   21.9406   -3.6989  -16.3975 O   0  0  0  0  0  0  0  0  0  0  0  0
   20.2462   -3.4483  -14.8341 N   0  0  0  0  0  0  0  0  0  0  0  0
   19.7731   -2.2198  -15.4821 C   0  0  1  0  0  0  0  0  0  0  0  0
   19.1185   -2.5357  -16.7935 C   0  0  0  0  0  0  0  0  0  0  0  0
   18.5843   -1.3211  -17.4174 C   0  0  0  0  0  0  0  0  0  0  0  0
   17.3697   -1.0427  -17.4831 O   0  0  0  0  0  0  0  0  0  0  0  0
   18.7266   -1.6270  -14.5879 C   0  0  0  0  0  0  0  0  0  0  0  0
   18.6291   -0.4236  -14.4037 O   0  0  0  0  0  0  0  0  0  0  0  0
   19.4743   -0.4087  -17.9793 O   0  0  0  0  0  0  0  0  0  0  0  0
   17.8477   -2.4886  -13.9577 O   0  0  0  0  0  0  0  0  0  0  0  0
  2  1  1  1
  2  6  1  0
  3  2  1  0
  4  3  1  0
  5  4  2  0
  6  7  2  0
  6  9  1  0
  8  4  1  0
  9 10  1  0
 10 11  1  6
 11 12  1  0
 12 13  2  0
 12 17  1  0
 13 14  1  0
 14 15  2  0
 16 15  1  0
 17 16  2  0
 18 20  1  0
 18 10  1  0
 19 18  2  0
 21 20  1  0
 21 25  1  0
 22 23  1  0
 21 22  1  6
 23 24  2  0
 25 28  1  0
 26 25  2  0
 27 23  1  0
M  END
$$$$
