DFD.pdb
     RDKit          3D

 28 28  0  0  1  0  0  0  0  0999 V2000
   37.0105  -29.1861  -18.9618 N   0  0  0  0  0  0  0  0  0  0  0  0
   36.0359  -29.3817  -19.9804 C   0  0  1  0  0  0  0  0  0  0  0  0
   36.5521  -29.9075  -21.2882 C   0  0  0  0  0  0  0  0  0  0  0  0
   37.0889  -28.8590  -22.1780 C   0  0  0  0  0  0  0  0  0  0  0  0
   37.2379  -27.6909  -21.7950 O   0  0  0  0  0  0  0  0  0  0  0  0
   34.8250  -30.1314  -19.5500 C   0  0  0  0  0  0  0  0  0  0  0  0
   34.6820  -31.2997  -19.9812 O   0  0  0  0  0  0  0  0  0  0  0  0
   37.4388  -29.1871  -23.4836 O   0  0  0  0  0  0  0  0  0  0  0  0
   33.8313  -29.6299  -18.6993 N   0  0  0  0  0  0  0  0  0  0  0  0
   32.6705  -30.4321  -18.3318 C   0  0  1  0  0  0  0  0  0  0  0  0
   32.4464  -30.2463  -16.8774 C   0  0  0  0  0  0  0  0  0  0  0  0
   31.2615  -30.9543  -16.3358 C   0  0  0  0  0  0  0  0  0  0  0  0
   31.3734  -32.2590  -15.8625 C   0  0  0  0  0  0  0  0  0  0  0  0
   30.2803  -32.9247  -15.3491 C   0  0  0  0  0  0  0  0  0  0  0  0
   29.0701  -32.2607  -15.3172 C   0  0  0  0  0  0  0  0  0  0  0  0
   28.9371  -30.9548  -15.7855 C   0  0  0  0  0  0  0  0  0  0  0  0
   30.0530  -30.3071  -16.2975 C   0  0  0  0  0  0  0  0  0  0  0  0
   31.5184  -30.1662  -19.2081 C   0  0  0  0  0  0  0  0  0  0  0  0
   31.4536  -28.9954  -19.7166 O   0  0  0  0  0  0  0  0  0  0  0  0
   30.5170  -31.1061  -19.5031 N   0  0  0  0  0  0  0  0  0  0  0  0
   29.4531  -30.7404  -20.4451 C   0  0  1  0  0  0  0  0  0  0  0  0
   30.0299  -30.4225  -21.7921 C   0  0  0  0  0  0  0  0  0  0  0  0
   28.9673  -30.1505  -22.7651 C   0  0  0  0  0  0  0  0  0  0  0  0
   28.5018  -31.0006  -23.5510 O   0  0  0  0  0  0  0  0  0  0  0  0
   28.5747  -31.9442  -20.6042 C   0  0  0  0  0  0  0  0  0  0  0  0
   27.3559  -31.8678  -20.6144 O   0  0  0  0  0  0  0  0  0  0  0  0
   28.4319  -28.8662  -22.8320 O   0  0  0  0  0  0  0  0  0  0  0  0
   29.1837  -33.1778  -20.7442 O   0  0  0  0  0  0  0  0  0  0  0  0
  2  1  1  1
  2  6  1  0
  3  2  1  0
  4  3  1  0
  5  4  2  0
  6  7  2  0
  6  9  1  0
  8  4  1  0
  9 10  1  0
 10 11  1  1
 11 12  1  0
 12 13  2  0
 12 17  1  0
 13 14  1  0
 14 15  2  0
 16 15  1  0
 17 16  2  0
 18 20  1  0
 18 10  1  0
 19 18  2  0
 21 20  1  0
 21 25  1  0
 22 23  1  0
 21 22  1  6
 23 24  2  0
 25 28  1  0
 26 25  2  0
 27 23  1  0
M  END
$$$$
