DFD.pdb
     RDKit          3D

 28 28  0  0  1  0  0  0  0  0999 V2000
   15.9914  -18.5500    3.8265 N   0  0  0  0  0  0  0  0  0  0  0  0
   15.8163  -17.7165    4.9669 C   0  0  1  0  0  0  0  0  0  0  0  0
   15.2607  -18.3876    6.1893 C   0  0  0  0  0  0  0  0  0  0  0  0
   14.0294  -19.1605    5.9329 C   0  0  0  0  0  0  0  0  0  0  0  0
   14.0288  -20.3986    5.9085 O   0  0  0  0  0  0  0  0  0  0  0  0
   16.9952  -16.8777    5.3139 C   0  0  0  0  0  0  0  0  0  0  0  0
   18.1282  -17.4081    5.2353 O   0  0  0  0  0  0  0  0  0  0  0  0
   12.8341  -18.4842    5.7124 O   0  0  0  0  0  0  0  0  0  0  0  0
   16.9346  -15.5391    5.7229 N   0  0  0  0  0  0  0  0  0  0  0  0
   18.1253  -14.8283    6.1734 C   0  0  1  0  0  0  0  0  0  0  0  0
   17.8832  -13.3803    5.9615 C   0  0  0  0  0  0  0  0  0  0  0  0
   18.9999  -12.4966    6.3744 C   0  0  0  0  0  0  0  0  0  0  0  0
   19.0551  -11.9859    7.6686 C   0  0  0  0  0  0  0  0  0  0  0  0
   20.0928  -11.1696    8.0667 C   0  0  0  0  0  0  0  0  0  0  0  0
   21.0770  -10.8723    7.1450 C   0  0  0  0  0  0  0  0  0  0  0  0
   21.0405  -11.3735    5.8450 C   0  0  0  0  0  0  0  0  0  0  0  0
   19.9848  -12.1929    5.4697 C   0  0  0  0  0  0  0  0  0  0  0  0
   18.5251  -15.2304    7.5315 C   0  0  0  0  0  0  0  0  0  0  0  0
   17.5762  -15.5175    8.3382 O   0  0  0  0  0  0  0  0  0  0  0  0
   19.8568  -15.3105    7.9716 N   0  0  0  0  0  0  0  0  0  0  0  0
   20.1262  -15.7340    9.3504 C   0  0  1  0  0  0  0  0  0  0  0  0
   21.0556  -16.9105    9.3671 C   0  0  0  0  0  0  0  0  0  0  0  0
   21.3126  -17.3547   10.7405 C   0  0  0  0  0  0  0  0  0  0  0  0
   21.8311  -16.6408   11.6229 O   0  0  0  0  0  0  0  0  0  0  0  0
   20.8274  -14.5969   10.0298 C   0  0  0  0  0  0  0  0  0  0  0  0
   20.9800  -14.5524   11.2406 O   0  0  0  0  0  0  0  0  0  0  0  0
   20.9635  -18.6540   11.1016 O   0  0  0  0  0  0  0  0  0  0  0  0
   21.3132  -13.5701    9.2412 O   0  0  0  0  0  0  0  0  0  0  0  0
  2  1  1  6
  2  6  1  0
  3  2  1  0
  4  3  1  0
  5  4  2  0
  6  7  2  0
  6  9  1  0
  8  4  1  0
  9 10  1  0
 10 11  1  1
 11 12  1  0
 12 13  2  0
 12 17  1  0
 13 14  1  0
 14 15  2  0
 16 15  1  0
 17 16  2  0
 18 20  1  0
 18 10  1  0
 19 18  2  0
 21 20  1  0
 21 25  1  0
 22 23  1  0
 21 22  1  6
 23 24  2  0
 25 28  1  0
 26 25  2  0
 27 23  1  0
M  END
$$$$
