DFD.pdb
     RDKit          3D

 28 28  0  0  1  0  0  0  0  0999 V2000
   25.9633  -10.0968  -20.1977 N   0  0  0  0  0  0  0  0  0  0  0  0
   25.6544   -8.9989  -19.3462 C   0  0  1  0  0  0  0  0  0  0  0  0
   25.0968   -7.7812  -20.0241 C   0  0  0  0  0  0  0  0  0  0  0  0
   26.0419   -7.1381  -20.9583 C   0  0  0  0  0  0  0  0  0  0  0  0
   25.7353   -6.1273  -21.6046 O   0  0  0  0  0  0  0  0  0  0  0  0
   24.8517   -9.3484  -18.1432 C   0  0  0  0  0  0  0  0  0  0  0  0
   23.9352  -10.1921  -18.2821 O   0  0  0  0  0  0  0  0  0  0  0  0
   27.3133   -7.6784  -21.1203 O   0  0  0  0  0  0  0  0  0  0  0  0
   25.0424   -8.8050  -16.8661 N   0  0  0  0  0  0  0  0  0  0  0  0
   24.2788   -9.2784  -15.7177 C   0  0  1  0  0  0  0  0  0  0  0  0
   25.2518   -9.6509  -14.6620 C   0  0  0  0  0  0  0  0  0  0  0  0
   26.0333  -10.8793  -14.9426 C   0  0  0  0  0  0  0  0  0  0  0  0
   25.4877  -12.1359  -14.6933 C   0  0  0  0  0  0  0  0  0  0  0  0
   26.2017  -13.2857  -14.9578 C   0  0  0  0  0  0  0  0  0  0  0  0
   27.4743  -13.1561  -15.4775 C   0  0  0  0  0  0  0  0  0  0  0  0
   28.0385  -11.9078  -15.7345 C   0  0  0  0  0  0  0  0  0  0  0  0
   27.2986  -10.7661  -15.4592 C   0  0  0  0  0  0  0  0  0  0  0  0
   23.2258   -8.3271  -15.3274 C   0  0  0  0  0  0  0  0  0  0  0  0
   23.5779   -7.1022  -15.2321 O   0  0  0  0  0  0  0  0  0  0  0  0
   21.8944   -8.6881  -15.0615 N   0  0  0  0  0  0  0  0  0  0  0  0
   20.8812   -7.6333  -14.9441 C   0  0  1  0  0  0  0  0  0  0  0  0
   20.6862   -6.9426  -16.2605 C   0  0  0  0  0  0  0  0  0  0  0  0
   19.5954   -5.9660  -16.1823 C   0  0  0  0  0  0  0  0  0  0  0  0
   18.5357   -6.0446  -16.8364 O   0  0  0  0  0  0  0  0  0  0  0  0
   19.5881   -8.3042  -14.5920 C   0  0  0  0  0  0  0  0  0  0  0  0
   18.6968   -7.7294  -13.9864 O   0  0  0  0  0  0  0  0  0  0  0  0
   19.7336   -4.8730  -15.3298 O   0  0  0  0  0  0  0  0  0  0  0  0
   19.4150   -9.6215  -14.9752 O   0  0  0  0  0  0  0  0  0  0  0  0
  2  1  1  6
  2  6  1  0
  3  2  1  0
  4  3  1  0
  5  4  2  0
  6  7  2  0
  6  9  1  0
  8  4  1  0
  9 10  1  0
 10 11  1  1
 11 12  1  0
 12 13  2  0
 12 17  1  0
 13 14  1  0
 14 15  2  0
 16 15  1  0
 17 16  2  0
 18 20  1  0
 18 10  1  0
 19 18  2  0
 21 20  1  0
 21 25  1  0
 22 23  1  0
 21 22  1  6
 23 24  2  0
 25 28  1  0
 26 25  2  0
 27 23  1  0
M  END
$$$$
