AMI.pdb
     RDKit          3D

 22 21  0  0  1  0  0  0  0  0999 V2000
   34.6167  -24.6503  -17.0243 C   0  0  0  0  0  0  0  0  0  0  0  0
   34.1624  -25.8888  -17.7204 C   0  0  2  0  0  0  0  0  0  0  0  0
   34.9885  -26.0908  -18.8907 N   0  0  0  0  0  0  0  0  0  0  0  0
   32.7137  -25.8857  -18.0568 C   0  0  0  0  0  0  0  0  0  0  0  0
   32.3034  -25.0111  -18.8579 O   0  0  0  0  0  0  0  0  0  0  0  0
   28.1272  -30.6246  -16.3753 C   0  0  0  0  0  0  0  0  0  0  0  0
   27.9164  -30.1512  -18.1169 S   0  0  0  0  0  0  0  0  0  0  0  0
   28.4874  -28.4171  -18.2751 C   0  0  0  0  0  0  0  0  0  0  0  0
   29.8809  -28.3744  -17.7232 C   0  0  0  0  0  0  0  0  0  0  0  0
   30.4009  -26.9479  -17.8441 C   0  0  2  0  0  0  0  0  0  0  0  0
   31.7930  -26.8103  -17.5217 N   0  0  0  0  0  0  0  0  0  0  0  0
   29.5365  -26.0885  -17.0405 C   0  0  0  0  0  0  0  0  0  0  0  0
   29.7182  -26.0766  -15.7860 O   0  0  0  0  0  0  0  0  0  0  0  0
   29.0448  -21.0439  -17.8464 C   0  0  0  0  0  0  0  0  0  0  0  0
   29.0784  -22.3986  -17.1805 C   0  0  0  0  0  0  0  0  0  0  0  0
   27.6666  -22.9824  -17.1862 C   0  0  2  0  0  0  0  0  0  0  0  0
   26.7125  -22.1341  -16.3764 C   0  0  0  0  0  0  0  0  0  0  0  0
   27.6808  -24.4176  -16.6923 C   0  0  2  0  0  0  0  0  0  0  0  0
   28.5042  -25.2592  -17.5365 N   0  0  0  0  0  0  0  0  0  0  0  0
   26.3170  -24.9972  -16.6672 C   0  0  0  0  0  0  0  0  0  0  0  0
   25.7660  -25.4225  -17.7119 O   0  0  0  0  0  0  0  0  0  0  0  0
   25.5899  -25.0951  -15.4893 O   0  0  0  0  0  0  0  0  0  0  0  0
  2  4  1  0
  2  3  1  0
  2  1  1  6
  4  5  2  0
  7  6  1  0
  7  8  1  0
  8  9  1  0
 10  9  1  1
 10 12  1  0
 11 10  1  0
 11  4  1  0
 12 13  2  0
 12 19  1  0
 15 14  1  0
 16 17  1  1
 16 15  1  0
 18 16  1  0
 18 19  1  6
 20 18  1  0
 20 22  1  0
 21 20  2  0
M  END
$$$$
