AMI.pdb
     RDKit          3D

 22 21  0  0  1  0  0  0  0  0999 V2000
   17.6156  -13.4636  -12.8635 C   0  0  0  0  0  0  0  0  0  0  0  0
   16.2719  -13.1813  -12.2806 C   0  0  2  0  0  0  0  0  0  0  0  0
   15.2737  -13.8804  -13.0602 N   0  0  0  0  0  0  0  0  0  0  0  0
   15.9674  -11.7306  -12.1608 C   0  0  0  0  0  0  0  0  0  0  0  0
   15.7104  -11.1001  -13.2152 O   0  0  0  0  0  0  0  0  0  0  0  0
   11.7214  -11.0754   -8.3604 C   0  0  0  0  0  0  0  0  0  0  0  0
   11.7592   -9.5168   -9.2937 S   0  0  0  0  0  0  0  0  0  0  0  0
   13.1267   -9.6498  -10.5063 C   0  0  0  0  0  0  0  0  0  0  0  0
   14.4019   -9.5315   -9.7263 C   0  0  0  0  0  0  0  0  0  0  0  0
   15.5702   -9.6791  -10.6925 C   0  0  2  0  0  0  0  0  0  0  0  0
   15.9554  -11.0414  -10.9305 N   0  0  0  0  0  0  0  0  0  0  0  0
   16.6651   -8.8494  -10.1983 C   0  0  0  0  0  0  0  0  0  0  0  0
   17.3091   -9.2632   -9.1879 O   0  0  0  0  0  0  0  0  0  0  0  0
   20.9429   -8.0657  -12.6246 C   0  0  0  0  0  0  0  0  0  0  0  0
   19.8700   -8.1798  -11.5683 C   0  0  0  0  0  0  0  0  0  0  0  0
   19.3248   -6.7840  -11.2710 C   0  0  2  0  0  0  0  0  0  0  0  0
   20.4208   -5.8448  -10.8207 C   0  0  0  0  0  0  0  0  0  0  0  0
   18.2066   -6.8549  -10.2471 C   0  0  2  0  0  0  0  0  0  0  0  0
   17.0786   -7.6139  -10.7476 N   0  0  0  0  0  0  0  0  0  0  0  0
   17.7177   -5.5043   -9.8818 C   0  0  0  0  0  0  0  0  0  0  0  0
   16.8741   -4.8994  -10.5877 O   0  0  0  0  0  0  0  0  0  0  0  0
   18.1702   -4.8498   -8.7450 O   0  0  0  0  0  0  0  0  0  0  0  0
  2  4  1  0
  2  3  1  0
  2  1  1  6
  4  5  2  0
  7  6  1  0
  7  8  1  0
  8  9  1  0
 10  9  1  1
 10 12  1  0
 11 10  1  0
 11  4  1  0
 12 13  2  0
 12 19  1  0
 15 14  1  0
 16 17  1  1
 16 15  1  0
 18 16  1  0
 18 19  1  6
 20 18  1  0
 20 22  1  0
 21 20  2  0
M  END
$$$$
