AMI.pdb
     RDKit          3D

 22 21  0  0  1  0  0  0  0  0999 V2000
   18.5403  -15.5632  -18.1574 C   0  0  0  0  0  0  0  0  0  0  0  0
   19.7783  -14.9028  -18.6638 C   0  0  2  0  0  0  0  0  0  0  0  0
   20.6909  -15.9251  -19.1275 N   0  0  0  0  0  0  0  0  0  0  0  0
   20.4170  -13.9956  -17.6735 C   0  0  0  0  0  0  0  0  0  0  0  0
   19.6967  -13.5375  -16.7535 O   0  0  0  0  0  0  0  0  0  0  0  0
   27.2387  -11.6101  -14.5089 C   0  0  0  0  0  0  0  0  0  0  0  0
   26.4614  -12.4119  -15.9422 S   0  0  0  0  0  0  0  0  0  0  0  0
   24.6479  -12.2784  -15.7144 C   0  0  0  0  0  0  0  0  0  0  0  0
   24.0188  -13.0477  -16.8371 C   0  0  0  0  0  0  0  0  0  0  0  0
   22.5107  -12.8441  -16.7716 C   0  0  2  0  0  0  0  0  0  0  0  0
   21.7787  -13.6321  -17.7225 N   0  0  0  0  0  0  0  0  0  0  0  0
   22.2485  -11.4126  -16.8873 C   0  0  0  0  0  0  0  0  0  0  0  0
   22.4912  -10.8565  -18.0003 O   0  0  0  0  0  0  0  0  0  0  0  0
   17.8424   -9.4157  -17.4166 C   0  0  0  0  0  0  0  0  0  0  0  0
   19.3498   -9.4921  -17.4573 C   0  0  0  0  0  0  0  0  0  0  0  0
   19.9021   -8.9835  -16.1268 C   0  0  2  0  0  0  0  0  0  0  0  0
   19.5326   -7.5367  -15.8897 C   0  0  0  0  0  0  0  0  0  0  0  0
   21.4051   -9.1849  -16.0611 C   0  0  2  0  0  0  0  0  0  0  0  0
   21.7436  -10.5795  -15.8625 N   0  0  0  0  0  0  0  0  0  0  0  0
   22.0094   -8.4096  -14.9518 C   0  0  0  0  0  0  0  0  0  0  0  0
   22.3746   -7.2187  -15.1072 O   0  0  0  0  0  0  0  0  0  0  0  0
   22.1978   -8.9653  -13.6944 O   0  0  0  0  0  0  0  0  0  0  0  0
  2  4  1  0
  2  3  1  0
  2  1  1  1
  4  5  2  0
  7  6  1  0
  7  8  1  0
  8  9  1  0
 10  9  1  6
 10 12  1  0
 11 10  1  0
 11  4  1  0
 12 13  2  0
 12 19  1  0
 15 14  1  0
 16 17  1  6
 16 15  1  0
 18 16  1  0
 18 19  1  1
 20 18  1  0
 20 22  1  0
 21 20  2  0
M  END
$$$$
