AMI.pdb
     RDKit          3D

 22 21  0  0  1  0  0  0  0  0999 V2000
   18.2912  -12.2494  -18.7049 C   0  0  0  0  0  0  0  0  0  0  0  0
   18.1721  -11.6203  -17.3577 C   0  0  2  0  0  0  0  0  0  0  0  0
   16.7821  -11.2971  -17.1197 N   0  0  0  0  0  0  0  0  0  0  0  0
   19.0568  -10.4396  -17.1712 C   0  0  0  0  0  0  0  0  0  0  0  0
   20.2914  -10.6456  -17.0777 O   0  0  0  0  0  0  0  0  0  0  0  0
   18.5523   -5.1302  -21.4793 C   0  0  0  0  0  0  0  0  0  0  0  0
   18.1306   -5.2040  -19.7134 S   0  0  0  0  0  0  0  0  0  0  0  0
   18.9623   -6.6842  -19.0240 C   0  0  0  0  0  0  0  0  0  0  0  0
   18.6852   -6.6822  -17.5504 C   0  0  0  0  0  0  0  0  0  0  0  0
   19.3417   -7.9124  -16.9375 C   0  0  2  0  0  0  0  0  0  0  0  0
   18.5756   -9.1162  -17.0957 N   0  0  0  0  0  0  0  0  0  0  0  0
   19.6504   -7.6056  -15.5440 C   0  0  0  0  0  0  0  0  0  0  0  0
   18.7414   -7.7996  -14.6819 O   0  0  0  0  0  0  0  0  0  0  0  0
   22.3706   -9.6201  -11.1063 C   0  0  0  0  0  0  0  0  0  0  0  0
   21.9636   -8.2566  -11.6114 C   0  0  0  0  0  0  0  0  0  0  0  0
   21.7073   -8.3476  -13.1147 C   0  0  2  0  0  0  0  0  0  0  0  0
   22.9373   -8.8145  -13.8597 C   0  0  0  0  0  0  0  0  0  0  0  0
   21.2106   -7.0180  -13.6527 C   0  0  2  0  0  0  0  0  0  0  0  0
   20.8821   -7.1068  -15.0609 N   0  0  0  0  0  0  0  0  0  0  0  0
   22.2278   -5.9522  -13.4911 C   0  0  0  0  0  0  0  0  0  0  0  0
   22.8862   -5.5207  -14.4690 O   0  0  0  0  0  0  0  0  0  0  0  0
   22.4968   -5.3851  -12.2536 O   0  0  0  0  0  0  0  0  0  0  0  0
  2  4  1  0
  2  3  1  0
  2  1  1  6
  4  5  2  0
  7  6  1  0
  7  8  1  0
  8  9  1  0
 10  9  1  1
 10 12  1  0
 11 10  1  0
 11  4  1  0
 12 13  2  0
 12 19  1  0
 15 14  1  0
 16 17  1  6
 16 15  1  0
 18 16  1  0
 18 19  1  6
 20 18  1  0
 20 22  1  0
 21 20  2  0
M  END
$$$$
