AMI.pdb
     RDKit          3D

 22 21  0  0  1  0  0  0  0  0999 V2000
   22.6964  -20.3454  -11.3212 C   0  0  0  0  0  0  0  0  0  0  0  0
   23.9183  -20.7310  -12.0849 C   0  0  2  0  0  0  0  0  0  0  0  0
   23.5504  -21.7150  -13.0795 N   0  0  0  0  0  0  0  0  0  0  0  0
   25.0350  -21.2025  -11.2234 C   0  0  0  0  0  0  0  0  0  0  0  0
   24.9054  -22.3161  -10.6589 O   0  0  0  0  0  0  0  0  0  0  0  0
   31.0833  -22.6579   -9.2180 C   0  0  0  0  0  0  0  0  0  0  0  0
   31.0462  -21.6531  -10.7314 S   0  0  0  0  0  0  0  0  0  0  0  0
   29.3096  -21.6262  -11.3158 C   0  0  0  0  0  0  0  0  0  0  0  0
   28.6778  -20.4033  -10.7210 C   0  0  0  0  0  0  0  0  0  0  0  0
   27.3184  -20.7931  -10.1552 C   0  0  2  0  0  0  0  0  0  0  0  0
   26.2175  -20.4629  -11.0154 N   0  0  0  0  0  0  0  0  0  0  0  0
   27.2045  -20.2057   -8.8235 C   0  0  0  0  0  0  0  0  0  0  0  0
   26.4489  -19.1971   -8.6863 O   0  0  0  0  0  0  0  0  0  0  0  0
   29.0933  -20.8749   -2.9015 C   0  0  0  0  0  0  0  0  0  0  0  0
   28.1280  -20.2794   -3.8980 C   0  0  0  0  0  0  0  0  0  0  0  0
   28.4711  -20.8092   -5.2893 C   0  0  2  0  0  0  0  0  0  0  0  0
   29.9575  -20.7414   -5.5574 C   0  0  0  0  0  0  0  0  0  0  0  0
   27.6862  -20.0632   -6.3528 C   0  0  2  0  0  0  0  0  0  0  0  0
   27.8657  -20.6618   -7.6599 N   0  0  0  0  0  0  0  0  0  0  0  0
   28.1054  -18.6445   -6.4428 C   0  0  0  0  0  0  0  0  0  0  0  0
   28.9330  -18.2589   -7.3044 O   0  0  0  0  0  0  0  0  0  0  0  0
   27.6025  -17.6813   -5.5799 O   0  0  0  0  0  0  0  0  0  0  0  0
  2  4  1  0
  2  3  1  0
  2  1  1  1
  4  5  2  0
  7  6  1  0
  7  8  1  0
  8  9  1  0
 10  9  1  6
 10 12  1  0
 11 10  1  0
 11  4  1  0
 12 13  2  0
 12 19  1  0
 15 14  1  0
 16 17  1  6
 16 15  1  0
 18 16  1  0
 18 19  1  6
 20 18  1  0
 20 22  1  0
 21 20  2  0
M  END
$$$$
