AMI.pdb
     RDKit          3D

 22 21  0  0  1  0  0  0  0  0999 V2000
   28.6260  -18.6123  -15.6819 C   0  0  0  0  0  0  0  0  0  0  0  0
   27.2490  -18.1606  -15.3284 C   0  0  2  0  0  0  0  0  0  0  0  0
   27.3484  -16.9744  -14.5063 N   0  0  0  0  0  0  0  0  0  0  0  0
   26.4232  -19.2159  -14.6835 C   0  0  0  0  0  0  0  0  0  0  0  0
   25.9703  -20.1297  -15.4150 O   0  0  0  0  0  0  0  0  0  0  0  0
   24.9427  -20.2091   -8.1271 C   0  0  0  0  0  0  0  0  0  0  0  0
   26.4067  -21.0830   -8.7552 S   0  0  0  0  0  0  0  0  0  0  0  0
   26.1504  -21.3378  -10.5518 C   0  0  0  0  0  0  0  0  0  0  0  0
   25.4906  -20.0949  -11.0694 C   0  0  0  0  0  0  0  0  0  0  0  0
   25.3665  -20.2129  -12.5830 C   0  0  2  0  0  0  0  0  0  0  0  0
   26.1304  -19.2344  -13.3041 N   0  0  0  0  0  0  0  0  0  0  0  0
   23.9454  -20.1938  -12.9168 C   0  0  0  0  0  0  0  0  0  0  0  0
   23.3580  -19.0705  -12.9316 O   0  0  0  0  0  0  0  0  0  0  0  0
   22.0955  -21.5494  -17.3752 C   0  0  0  0  0  0  0  0  0  0  0  0
   22.1936  -20.8824  -16.0242 C   0  0  0  0  0  0  0  0  0  0  0  0
   21.5079  -21.7713  -14.9881 C   0  0  2  0  0  0  0  0  0  0  0  0
   20.0291  -21.9118  -15.2696 C   0  0  0  0  0  0  0  0  0  0  0  0
   21.7529  -21.2432  -13.5863 C   0  0  2  0  0  0  0  0  0  0  0  0
   23.1545  -21.3236  -13.2284 N   0  0  0  0  0  0  0  0  0  0  0  0
   20.9828  -22.0063  -12.5757 C   0  0  0  0  0  0  0  0  0  0  0  0
   19.8296  -21.6536  -12.2267 O   0  0  0  0  0  0  0  0  0  0  0  0
   21.5017  -23.1426  -11.9716 O   0  0  0  0  0  0  0  0  0  0  0  0
  2  4  1  0
  2  3  1  0
  2  1  1  1
  4  5  2  0
  7  6  1  0
  7  8  1  0
  8  9  1  0
 10  9  1  1
 10 12  1  0
 11 10  1  0
 11  4  1  0
 12 13  2  0
 12 19  1  0
 15 14  1  0
 16 17  1  6
 16 15  1  0
 18 16  1  0
 18 19  1  1
 20 18  1  0
 20 22  1  0
 21 20  2  0
M  END
$$$$
