AMI.pdb
     RDKit          3D

 22 21  0  0  1  0  0  0  0  0999 V2000
   16.0628  -12.5478  -18.1284 C   0  0  0  0  0  0  0  0  0  0  0  0
   17.4744  -12.0757  -18.2257 C   0  0  2  0  0  0  0  0  0  0  0  0
   18.3461  -13.2296  -18.2648 N   0  0  0  0  0  0  0  0  0  0  0  0
   17.8599  -11.1245  -17.1495 C   0  0  0  0  0  0  0  0  0  0  0  0
   17.0429  -10.9400  -16.2147 O   0  0  0  0  0  0  0  0  0  0  0  0
   23.3147  -10.9861  -14.0961 C   0  0  0  0  0  0  0  0  0  0  0  0
   23.1057   -9.1821  -14.1560 S   0  0  0  0  0  0  0  0  0  0  0  0
   21.3540   -8.8584  -14.5863 C   0  0  0  0  0  0  0  0  0  0  0  0
   21.0188   -9.7718  -15.7271 C   0  0  0  0  0  0  0  0  0  0  0  0
   19.5700   -9.5262  -16.1280 C   0  0  2  0  0  0  0  0  0  0  0  0
   19.0869  -10.4297  -17.1337 N   0  0  0  0  0  0  0  0  0  0  0  0
   19.4442   -8.1221  -16.5075 C   0  0  0  0  0  0  0  0  0  0  0  0
   19.8636   -7.7811  -17.6542 O   0  0  0  0  0  0  0  0  0  0  0  0
   14.9920   -5.7934  -16.2794 C   0  0  0  0  0  0  0  0  0  0  0  0
   16.3735   -5.8373  -16.8872 C   0  0  0  0  0  0  0  0  0  0  0  0
   17.3584   -5.1949  -15.9118 C   0  0  2  0  0  0  0  0  0  0  0  0
   17.3184   -3.6859  -15.9967 C   0  0  0  0  0  0  0  0  0  0  0  0
   18.7623   -5.7217  -16.1469 C   0  0  2  0  0  0  0  0  0  0  0  0
   18.8921   -7.0959  -15.7067 N   0  0  0  0  0  0  0  0  0  0  0  0
   19.7735   -4.9163  -15.4221 C   0  0  0  0  0  0  0  0  0  0  0  0
   20.0616   -5.1509  -14.2229 O   0  0  0  0  0  0  0  0  0  0  0  0
   20.4454   -3.8689  -16.0360 O   0  0  0  0  0  0  0  0  0  0  0  0
  2  4  1  0
  2  3  1  0
  2  1  1  1
  4  5  2  0
  7  6  1  0
  7  8  1  0
  8  9  1  0
 10  9  1  6
 10 12  1  0
 11 10  1  0
 11  4  1  0
 12 13  2  0
 12 19  1  0
 15 14  1  0
 16 17  1  6
 16 15  1  0
 18 16  1  0
 18 19  1  1
 20 18  1  0
 20 22  1  0
 21 20  2  0
M  END
$$$$
