AMI.pdb
     RDKit          3D

 22 21  0  0  1  0  0  0  0  0999 V2000
   17.4549  -15.0084  -15.9606 C   0  0  0  0  0  0  0  0  0  0  0  0
   17.6632  -14.0534  -17.0873 C   0  0  2  0  0  0  0  0  0  0  0  0
   17.7419  -14.8044  -18.3213 N   0  0  0  0  0  0  0  0  0  0  0  0
   18.8396  -13.1624  -16.9032 C   0  0  0  0  0  0  0  0  0  0  0  0
   19.5640  -13.3543  -15.8964 O   0  0  0  0  0  0  0  0  0  0  0  0
   18.7682  -10.9670  -21.9694 C   0  0  0  0  0  0  0  0  0  0  0  0
   20.5044  -10.5357  -21.6508 S   0  0  0  0  0  0  0  0  0  0  0  0
   20.9687  -11.3175  -20.0597 C   0  0  0  0  0  0  0  0  0  0  0  0
   20.4981  -10.3935  -18.9766 C   0  0  0  0  0  0  0  0  0  0  0  0
   20.2767  -11.2119  -17.7112 C   0  0  2  0  0  0  0  0  0  0  0  0
   19.1722  -12.1248  -17.7984 N   0  0  0  0  0  0  0  0  0  0  0  0
   20.1671  -10.2812  -16.5917 C   0  0  0  0  0  0  0  0  0  0  0  0
   19.0042   -9.9814  -16.1856 O   0  0  0  0  0  0  0  0  0  0  0  0
   21.7726   -9.6622  -11.0207 C   0  0  0  0  0  0  0  0  0  0  0  0
   21.3944   -8.8217  -12.2167 C   0  0  0  0  0  0  0  0  0  0  0  0
   21.5692   -9.6616  -13.4808 C   0  0  2  0  0  0  0  0  0  0  0  0
   22.9994  -10.1229  -13.6467 C   0  0  0  0  0  0  0  0  0  0  0  0
   21.0940   -8.8944  -14.7011 C   0  0  2  0  0  0  0  0  0  0  0  0
   21.2487   -9.6765  -15.9108 N   0  0  0  0  0  0  0  0  0  0  0  0
   21.8502   -7.6321  -14.8780 C   0  0  0  0  0  0  0  0  0  0  0  0
   22.7741   -7.5341  -15.7223 O   0  0  0  0  0  0  0  0  0  0  0  0
   21.5709   -6.5044  -14.1191 O   0  0  0  0  0  0  0  0  0  0  0  0
  2  4  1  0
  2  3  1  0
  2  1  1  1
  4  5  2  0
  7  6  1  0
  7  8  1  0
  8  9  1  0
 10  9  1  6
 10 12  1  0
 11 10  1  0
 11  4  1  0
 12 13  2  0
 12 19  1  0
 15 14  1  0
 16 17  1  6
 16 15  1  0
 18 16  1  0
 18 19  1  6
 20 18  1  0
 20 22  1  0
 21 20  2  0
M  END
$$$$
