AMI.pdb
     RDKit          3D

 22 21  0  0  1  0  0  0  0  0999 V2000
   27.9665  -20.2599  -16.8395 C   0  0  0  0  0  0  0  0  0  0  0  0
   28.1384  -21.3292  -15.8138 C   0  0  2  0  0  0  0  0  0  0  0  0
   28.5087  -22.5569  -16.4835 N   0  0  0  0  0  0  0  0  0  0  0  0
   26.9504  -21.5107  -14.9377 C   0  0  0  0  0  0  0  0  0  0  0  0
   25.9367  -22.0574  -15.4365 O   0  0  0  0  0  0  0  0  0  0  0  0
   26.2908  -19.3832   -8.4765 C   0  0  0  0  0  0  0  0  0  0  0  0
   25.6233  -21.0688   -8.5983 S   0  0  0  0  0  0  0  0  0  0  0  0
   25.0610  -21.3002  -10.3271 C   0  0  0  0  0  0  0  0  0  0  0  0
   26.2501  -21.0367  -11.2017 C   0  0  0  0  0  0  0  0  0  0  0  0
   25.8406  -21.2694  -12.6502 C   0  0  2  0  0  0  0  0  0  0  0  0
   26.9136  -21.1007  -13.5890 N   0  0  0  0  0  0  0  0  0  0  0  0
   24.6904  -20.4153  -12.9313 C   0  0  0  0  0  0  0  0  0  0  0  0
   24.8675  -19.1603  -12.9064 O   0  0  0  0  0  0  0  0  0  0  0  0
   21.1837  -21.2571  -16.9824 C   0  0  0  0  0  0  0  0  0  0  0  0
   21.5670  -21.3434  -15.5245 C   0  0  0  0  0  0  0  0  0  0  0  0
   22.0112  -19.9602  -15.0520 C   0  0  2  0  0  0  0  0  0  0  0  0
   23.2106  -19.4673  -15.8295 C   0  0  0  0  0  0  0  0  0  0  0  0
   22.2897  -19.9701  -13.5600 C   0  0  2  0  0  0  0  0  0  0  0  0
   23.3831  -20.8623  -13.2320 N   0  0  0  0  0  0  0  0  0  0  0  0
   21.1020  -20.4064  -12.7883 C   0  0  0  0  0  0  0  0  0  0  0  0
   20.0512  -19.7200  -12.7584 O   0  0  0  0  0  0  0  0  0  0  0  0
   21.0990  -21.5910  -12.0657 O   0  0  0  0  0  0  0  0  0  0  0  0
  2  4  1  0
  2  3  1  0
  2  1  1  6
  4  5  2  0
  7  6  1  0
  7  8  1  0
  8  9  1  0
 10  9  1  1
 10 12  1  0
 11 10  1  0
 11  4  1  0
 12 13  2  0
 12 19  1  0
 15 14  1  0
 16 17  1  6
 16 15  1  0
 18 16  1  0
 18 19  1  6
 20 18  1  0
 20 22  1  0
 21 20  2  0
M  END
$$$$
