AMI.pdb
     RDKit          3D

 22 21  0  0  1  0  0  0  0  0999 V2000
   27.8963  -19.9260  -16.1670 C   0  0  0  0  0  0  0  0  0  0  0  0
   28.2724  -20.8756  -15.0798 C   0  0  2  0  0  0  0  0  0  0  0  0
   28.9410  -22.0141  -15.6713 N   0  0  0  0  0  0  0  0  0  0  0  0
   27.1269  -21.2864  -14.2251 C   0  0  0  0  0  0  0  0  0  0  0  0
   26.2650  -22.0455  -14.7312 O   0  0  0  0  0  0  0  0  0  0  0  0
   26.8604  -19.6663   -8.0568 C   0  0  0  0  0  0  0  0  0  0  0  0
   25.3163  -20.6230   -8.0109 S   0  0  0  0  0  0  0  0  0  0  0  0
   24.9476  -21.1307   -9.7327 C   0  0  0  0  0  0  0  0  0  0  0  0
   26.1322  -20.7286  -10.5593 C   0  0  0  0  0  0  0  0  0  0  0  0
   25.8847  -21.1673  -11.9968 C   0  0  2  0  0  0  0  0  0  0  0  0
   26.9686  -20.8656  -12.8885 N   0  0  0  0  0  0  0  0  0  0  0  0
   24.6113  -20.5955  -12.4247 C   0  0  0  0  0  0  0  0  0  0  0  0
   24.5717  -19.3495  -12.6543 O   0  0  0  0  0  0  0  0  0  0  0  0
   22.3507  -21.7203  -16.7539 C   0  0  0  0  0  0  0  0  0  0  0  0
   22.7901  -21.0397  -15.4797 C   0  0  0  0  0  0  0  0  0  0  0  0
   21.7351  -21.2877  -14.4029 C   0  0  2  0  0  0  0  0  0  0  0  0
   20.3835  -20.7512  -14.8168 C   0  0  0  0  0  0  0  0  0  0  0  0
   22.1779  -20.6978  -13.0764 C   0  0  2  0  0  0  0  0  0  0  0  0
   23.4050  -21.3098  -12.6088 N   0  0  0  0  0  0  0  0  0  0  0  0
   21.1487  -20.8870  -12.0268 C   0  0  0  0  0  0  0  0  0  0  0  0
   21.0527  -21.9643  -11.3894 O   0  0  0  0  0  0  0  0  0  0  0  0
   20.2470  -19.8833  -11.7030 O   0  0  0  0  0  0  0  0  0  0  0  0
  2  4  1  0
  2  3  1  0
  2  1  1  6
  4  5  2  0
  7  6  1  0
  7  8  1  0
  8  9  1  0
 10  9  1  1
 10 12  1  0
 11 10  1  0
 11  4  1  0
 12 13  2  0
 12 19  1  0
 15 14  1  0
 16 17  1  6
 16 15  1  0
 18 16  1  0
 18 19  1  1
 20 18  1  0
 20 22  1  0
 21 20  2  0
M  END
$$$$
