MQP.pdb
     RDKit          3D

 25 25  0  0  1  0  0  0  0  0999 V2000
   28.4267  -18.4885   -4.0617 C   0  0  0  0  0  0  0  0  0  0  0  0
   27.9559  -18.3356   -5.8215 S   0  0  0  0  0  0  0  0  0  0  0  0
   27.6378  -19.9827   -6.5271 C   0  0  0  0  0  0  0  0  0  0  0  0
   27.3853  -19.8790   -7.9934 C   0  0  0  0  0  0  0  0  0  0  0  0
   27.2087  -21.1878   -8.6860 C   0  0  2  0  0  0  0  0  0  0  0  0
   28.4682  -21.8935   -8.6819 N   0  0  0  0  0  0  0  0  0  0  0  0
   26.6317  -21.0873  -10.0519 C   0  0  0  0  0  0  0  0  0  0  0  0
   27.3872  -21.1557  -11.0812 O   0  0  0  0  0  0  0  0  0  0  0  0
   20.4877  -20.8626  -11.7389 N   0  0  0  0  0  0  0  0  0  0  0  0
   21.1392  -20.9575  -12.9772 C   0  0  0  0  0  0  0  0  0  0  0  0
   20.5133  -21.0021  -14.0450 O   0  0  0  0  0  0  0  0  0  0  0  0
   22.6322  -21.0062  -13.0100 C   0  0  0  0  0  0  0  0  0  0  0  0
   23.2160  -20.9143  -11.6364 C   0  0  0  0  0  0  0  0  0  0  0  0
   24.7036  -20.9642  -11.6752 C   0  0  2  0  0  0  0  0  0  0  0  0
   25.2545  -20.9142  -10.3252 N   0  0  0  0  0  0  0  0  0  0  0  0
   25.3077  -20.0501  -12.6249 C   0  0  0  0  0  0  0  0  0  0  0  0
   25.3050  -18.7853  -12.3606 O   0  0  0  0  0  0  0  0  0  0  0  0
   25.9279  -20.3678  -13.8591 N   0  0  0  0  0  0  0  0  0  0  0  0
   26.0930  -21.6749  -14.4213 C   0  0  0  0  0  0  0  0  0  0  0  0
   26.6515  -21.4483  -15.8402 C   0  0  0  0  0  0  0  0  0  0  0  0
   27.4638  -20.1668  -15.6075 C   0  0  0  0  0  0  0  0  0  0  0  0
   26.5012  -19.3935  -14.7545 C   0  0  1  0  0  0  0  0  0  0  0  0
   25.4659  -18.8228  -15.6693 C   0  0  0  0  0  0  0  0  0  0  0  0
   24.3150  -19.3224  -15.6414 O   0  0  0  0  0  0  0  0  0  0  0  0
   25.7078  -17.7804  -16.5387 O   0  0  0  0  0  0  0  0  0  0  0  0
  1  2  1  0
  3  2  1  0
  4  3  1  0
  5  4  1  0
  5  6  1  6
  7  5  1  0
  7  8  2  0
 10  9  1  0
 11 10  2  0
 12 10  1  0
 13 12  1  0
 14 13  1  1
 14 15  1  0
 15  7  1  0
 16 18  1  0
 16 14  1  0
 17 16  2  0
 18 22  1  0
 19 18  1  0
 19 20  1  0
 20 21  1  0
 22 21  1  0
 23 25  1  0
 22 23  1  6
 24 23  2  0
M  END
$$$$
