MQP.pdb
     RDKit          3D

 25 25  0  0  1  0  0  0  0  0999 V2000
   22.4201  -27.1535  -12.2144 C   0  0  0  0  0  0  0  0  0  0  0  0
   20.8226  -27.1902  -13.1023 S   0  0  0  0  0  0  0  0  0  0  0  0
   19.4864  -27.6666  -11.9623 C   0  0  0  0  0  0  0  0  0  0  0  0
   19.8044  -28.9672  -11.3049 C   0  0  0  0  0  0  0  0  0  0  0  0
   19.7761  -30.1462  -12.2176 C   0  0  2  0  0  0  0  0  0  0  0  0
   18.4094  -30.4079  -12.6022 N   0  0  0  0  0  0  0  0  0  0  0  0
   20.4436  -31.3586  -11.6761 C   0  0  0  0  0  0  0  0  0  0  0  0
   19.7823  -32.2103  -10.9890 O   0  0  0  0  0  0  0  0  0  0  0  0
   24.6845  -34.7593  -13.6765 N   0  0  0  0  0  0  0  0  0  0  0  0
   24.8574  -35.1780  -12.3492 C   0  0  0  0  0  0  0  0  0  0  0  0
   25.3470  -36.2805  -12.0686 O   0  0  0  0  0  0  0  0  0  0  0  0
   24.4389  -34.2678  -11.2407 C   0  0  0  0  0  0  0  0  0  0  0  0
   23.8285  -33.0072  -11.7646 C   0  0  0  0  0  0  0  0  0  0  0  0
   22.4673  -32.7896  -11.2018 C   0  0  2  0  0  0  0  0  0  0  0  0
   21.8116  -31.6668  -11.8635 N   0  0  0  0  0  0  0  0  0  0  0  0
   22.4155  -32.7707   -9.7529 C   0  0  0  0  0  0  0  0  0  0  0  0
   22.5152  -31.6372   -9.1405 O   0  0  0  0  0  0  0  0  0  0  0  0
   22.2647  -33.8745   -8.8767 N   0  0  0  0  0  0  0  0  0  0  0  0
   22.1279  -35.2504   -9.2510 C   0  0  0  0  0  0  0  0  0  0  0  0
   22.1850  -36.0463   -7.9320 C   0  0  0  0  0  0  0  0  0  0  0  0
   21.5483  -35.0280   -6.9761 C   0  0  0  0  0  0  0  0  0  0  0  0
   22.2242  -33.7705   -7.4390 C   0  0  1  0  0  0  0  0  0  0  0  0
   23.6008  -33.7733   -6.8564 C   0  0  0  0  0  0  0  0  0  0  0  0
   24.5625  -34.0381   -7.6181 O   0  0  0  0  0  0  0  0  0  0  0  0
   23.8687  -33.5013   -5.5316 O   0  0  0  0  0  0  0  0  0  0  0  0
  1  2  1  0
  3  2  1  0
  4  3  1  0
  5  4  1  0
  5  6  1  1
  7  5  1  0
  7  8  2  0
 10  9  1  0
 11 10  2  0
 12 10  1  0
 13 12  1  0
 14 13  1  1
 14 15  1  0
 15  7  1  0
 16 18  1  0
 16 14  1  0
 17 16  2  0
 18 22  1  0
 19 18  1  0
 19 20  1  0
 20 21  1  0
 22 21  1  0
 23 25  1  0
 22 23  1  1
 24 23  2  0
M  END
$$$$
