MQP.pdb
     RDKit          3D

 25 25  0  0  1  0  0  0  0  0999 V2000
   29.4480  -14.7104  -18.4466 C   0  0  0  0  0  0  0  0  0  0  0  0
   29.2523  -16.4409  -19.0024 S   0  0  0  0  0  0  0  0  0  0  0  0
   28.8642  -17.5116  -17.5828 C   0  0  0  0  0  0  0  0  0  0  0  0
   27.8773  -16.8451  -16.6848 C   0  0  0  0  0  0  0  0  0  0  0  0
   26.4503  -17.1143  -17.0239 C   0  0  2  0  0  0  0  0  0  0  0  0
   25.8475  -15.8969  -17.5130 N   0  0  0  0  0  0  0  0  0  0  0  0
   25.6607  -17.7221  -15.9213 C   0  0  0  0  0  0  0  0  0  0  0  0
   25.4071  -17.0540  -14.8610 O   0  0  0  0  0  0  0  0  0  0  0  0
   20.5470  -20.9238  -15.8069 N   0  0  0  0  0  0  0  0  0  0  0  0
   20.9787  -21.1626  -14.4941 C   0  0  0  0  0  0  0  0  0  0  0  0
   20.2568  -21.7244  -13.6591 O   0  0  0  0  0  0  0  0  0  0  0  0
   22.3496  -20.7268  -14.0903 C   0  0  0  0  0  0  0  0  0  0  0  0
   23.0498  -20.0129  -15.2022 C   0  0  0  0  0  0  0  0  0  0  0  0
   24.4343  -19.6284  -14.8123 C   0  0  2  0  0  0  0  0  0  0  0  0
   25.1411  -19.0378  -15.9437 N   0  0  0  0  0  0  0  0  0  0  0  0
   25.1619  -20.6588  -14.0971 C   0  0  0  0  0  0  0  0  0  0  0  0
   25.7764  -21.5718  -14.7742 O   0  0  0  0  0  0  0  0  0  0  0  0
   25.2970  -20.8091  -12.6943 N   0  0  0  0  0  0  0  0  0  0  0  0
   24.7464  -19.9534  -11.6860 C   0  0  0  0  0  0  0  0  0  0  0  0
   25.0263  -20.6599  -10.3447 C   0  0  0  0  0  0  0  0  0  0  0  0
   26.3471  -21.3650  -10.6832 C   0  0  0  0  0  0  0  0  0  0  0  0
   26.0308  -21.8754  -12.0586 C   0  0  1  0  0  0  0  0  0  0  0  0
   25.1802  -23.0928  -11.8892 C   0  0  0  0  0  0  0  0  0  0  0  0
   23.9449  -22.9797  -12.0795 O   0  0  0  0  0  0  0  0  0  0  0  0
   25.6793  -24.3287  -11.5363 O   0  0  0  0  0  0  0  0  0  0  0  0
  1  2  1  0
  3  2  1  0
  4  3  1  0
  5  4  1  0
  5  6  1  1
  7  5  1  0
  7  8  2  0
 10  9  1  0
 11 10  2  0
 12 10  1  0
 13 12  1  0
 14 13  1  6
 14 15  1  0
 15  7  1  0
 16 18  1  0
 16 14  1  0
 17 16  2  0
 18 22  1  0
 19 18  1  0
 19 20  1  0
 20 21  1  0
 22 21  1  0
 23 25  1  0
 22 23  1  1
 24 23  2  0
M  END
$$$$
