MQP.pdb
     RDKit          3D

 25 25  0  0  1  0  0  0  0  0999 V2000
   16.5758  -16.0711  -14.2192 C   0  0  0  0  0  0  0  0  0  0  0  0
   16.8349  -17.7219  -14.9604 S   0  0  0  0  0  0  0  0  0  0  0  0
   18.3176  -17.7058  -16.0157 C   0  0  0  0  0  0  0  0  0  0  0  0
   19.2100  -16.5716  -15.6391 C   0  0  0  0  0  0  0  0  0  0  0  0
   20.6295  -16.7314  -16.0671 C   0  0  2  0  0  0  0  0  0  0  0  0
   21.1826  -17.9015  -15.4273 N   0  0  0  0  0  0  0  0  0  0  0  0
   21.4751  -15.5281  -15.8531 C   0  0  0  0  0  0  0  0  0  0  0  0
   22.0949  -15.3599  -14.7474 O   0  0  0  0  0  0  0  0  0  0  0  0
   22.1126  -14.3776  -19.8677 N   0  0  0  0  0  0  0  0  0  0  0  0
   23.4408  -14.6648  -19.5209 C   0  0  0  0  0  0  0  0  0  0  0  0
   24.1119  -15.5040  -20.1369 O   0  0  0  0  0  0  0  0  0  0  0  0
   24.0654  -13.9373  -18.3750 C   0  0  0  0  0  0  0  0  0  0  0  0
   23.1533  -12.8861  -17.8279 C   0  0  0  0  0  0  0  0  0  0  0  0
   22.5021  -13.3364  -16.5670 C   0  0  2  0  0  0  0  0  0  0  0  0
   21.6626  -14.5043  -16.8113 N   0  0  0  0  0  0  0  0  0  0  0  0
   21.8773  -12.2733  -15.8041 C   0  0  0  0  0  0  0  0  0  0  0  0
   20.6107  -12.0632  -15.9497 O   0  0  0  0  0  0  0  0  0  0  0  0
   22.4931  -11.3929  -14.8797 N   0  0  0  0  0  0  0  0  0  0  0  0
   23.8706  -11.3931  -14.4865 C   0  0  0  0  0  0  0  0  0  0  0  0
   24.0535  -10.1336  -13.6168 C   0  0  0  0  0  0  0  0  0  0  0  0
   22.6588  -10.0404  -12.9825 C   0  0  0  0  0  0  0  0  0  0  0  0
   21.8027  -10.3388  -14.1784 C   0  0  1  0  0  0  0  0  0  0  0  0
   21.7445   -9.0902  -14.9981 C   0  0  0  0  0  0  0  0  0  0  0  0
   22.3793   -9.0657  -16.0805 O   0  0  0  0  0  0  0  0  0  0  0  0
   21.0330   -7.9683  -14.6292 O   0  0  0  0  0  0  0  0  0  0  0  0
  1  2  1  0
  3  2  1  0
  4  3  1  0
  5  4  1  0
  5  6  1  1
  7  5  1  0
  7  8  2  0
 10  9  1  0
 11 10  2  0
 12 10  1  0
 13 12  1  0
 14 13  1  6
 14 15  1  0
 15  7  1  0
 16 18  1  0
 16 14  1  0
 17 16  2  0
 18 22  1  0
 19 18  1  0
 19 20  1  0
 20 21  1  0
 22 21  1  0
 23 25  1  0
 22 23  1  6
 24 23  2  0
M  END
$$$$
