MQP.pdb
     RDKit          3D

 25 25  0  0  1  0  0  0  0  0999 V2000
   28.2697  -19.1907   -6.7501 C   0  0  0  0  0  0  0  0  0  0  0  0
   26.6266  -19.5671   -7.4572 S   0  0  0  0  0  0  0  0  0  0  0  0
   26.4432  -18.7546   -9.0753 C   0  0  0  0  0  0  0  0  0  0  0  0
   26.8896  -19.6669  -10.1676 C   0  0  0  0  0  0  0  0  0  0  0  0
   26.1948  -20.9861  -10.1959 C   0  0  2  0  0  0  0  0  0  0  0  0
   27.1838  -22.0346  -10.2778 N   0  0  0  0  0  0  0  0  0  0  0  0
   25.1603  -21.1131  -11.2554 C   0  0  0  0  0  0  0  0  0  0  0  0
   25.4603  -21.5994  -12.3992 O   0  0  0  0  0  0  0  0  0  0  0  0
   19.6189  -22.3980  -11.1344 N   0  0  0  0  0  0  0  0  0  0  0  0
   19.4862  -21.7653  -12.3789 C   0  0  0  0  0  0  0  0  0  0  0  0
   18.6074  -22.0907  -13.1888 O   0  0  0  0  0  0  0  0  0  0  0  0
   20.4322  -20.6664  -12.7391 C   0  0  0  0  0  0  0  0  0  0  0  0
   21.4699  -20.4649  -11.6813 C   0  0  0  0  0  0  0  0  0  0  0  0
   22.8231  -20.8487  -12.1696 C   0  0  2  0  0  0  0  0  0  0  0  0
   23.8088  -20.7242  -11.1012 N   0  0  0  0  0  0  0  0  0  0  0  0
   23.1977  -20.2413  -13.4317 C   0  0  0  0  0  0  0  0  0  0  0  0
   23.6180  -19.0194  -13.4348 O   0  0  0  0  0  0  0  0  0  0  0  0
   23.1639  -20.8301  -14.7205 N   0  0  0  0  0  0  0  0  0  0  0  0
   22.7446  -22.1617  -15.0412 C   0  0  0  0  0  0  0  0  0  0  0  0
   22.7231  -22.2300  -16.5811 C   0  0  0  0  0  0  0  0  0  0  0  0
   23.8617  -21.2541  -16.9090 C   0  0  0  0  0  0  0  0  0  0  0  0
   23.5595  -20.1556  -15.9322 C   0  0  1  0  0  0  0  0  0  0  0  0
   22.4300  -19.3601  -16.5032 C   0  0  0  0  0  0  0  0  0  0  0  0
   21.3117  -19.4353  -15.9385 O   0  0  0  0  0  0  0  0  0  0  0  0
   22.5516  -18.5513  -17.6132 O   0  0  0  0  0  0  0  0  0  0  0  0
  1  2  1  0
  3  2  1  0
  4  3  1  0
  5  4  1  0
  5  6  1  6
  7  5  1  0
  7  8  2  0
 10  9  1  0
 11 10  2  0
 12 10  1  0
 13 12  1  0
 14 13  1  1
 14 15  1  0
 15  7  1  0
 16 18  1  0
 16 14  1  0
 17 16  2  0
 18 22  1  0
 19 18  1  0
 19 20  1  0
 20 21  1  0
 22 21  1  0
 23 25  1  0
 22 23  1  6
 24 23  2  0
M  END
$$$$
