MQP.pdb
     RDKit          3D

 25 25  0  0  1  0  0  0  0  0999 V2000
   18.5945  -20.0586  -12.3044 C   0  0  0  0  0  0  0  0  0  0  0  0
   17.7063  -20.1472  -13.8997 S   0  0  0  0  0  0  0  0  0  0  0  0
   18.8911  -20.3838  -15.2607 C   0  0  0  0  0  0  0  0  0  0  0  0
   20.2903  -20.2934  -14.7520 C   0  0  0  0  0  0  0  0  0  0  0  0
   21.0719  -21.5589  -14.8599 C   0  0  2  0  0  0  0  0  0  0  0  0
   20.5243  -22.5273  -13.9398 N   0  0  0  0  0  0  0  0  0  0  0  0
   22.5383  -21.3923  -14.6848 C   0  0  0  0  0  0  0  0  0  0  0  0
   23.0000  -20.6785  -13.7296 O   0  0  0  0  0  0  0  0  0  0  0  0
   27.3591  -24.9261  -16.5979 N   0  0  0  0  0  0  0  0  0  0  0  0
   28.0189  -23.7486  -16.2173 C   0  0  0  0  0  0  0  0  0  0  0  0
   29.2528  -23.6479  -16.2542 O   0  0  0  0  0  0  0  0  0  0  0  0
   27.2103  -22.5808  -15.7537 C   0  0  0  0  0  0  0  0  0  0  0  0
   25.7485  -22.8956  -15.7375 C   0  0  0  0  0  0  0  0  0  0  0  0
   24.9385  -21.6916  -15.4042 C   0  0  2  0  0  0  0  0  0  0  0  0
   23.5137  -21.9823  -15.5225 N   0  0  0  0  0  0  0  0  0  0  0  0
   25.3788  -20.4750  -16.0587 C   0  0  0  0  0  0  0  0  0  0  0  0
   24.7983  -20.1118  -17.1545 O   0  0  0  0  0  0  0  0  0  0  0  0
   26.4051  -19.5902  -15.6432 N   0  0  0  0  0  0  0  0  0  0  0  0
   27.1570  -19.6645  -14.4261 C   0  0  0  0  0  0  0  0  0  0  0  0
   28.2570  -18.5919  -14.5523 C   0  0  0  0  0  0  0  0  0  0  0  0
   27.5206  -17.5515  -15.4076 C   0  0  0  0  0  0  0  0  0  0  0  0
   26.8544  -18.4520  -16.4063 C   0  0  1  0  0  0  0  0  0  0  0  0
   27.8955  -18.8454  -17.4042 C   0  0  0  0  0  0  0  0  0  0  0  0
   28.3416  -20.0177  -17.3595 O   0  0  0  0  0  0  0  0  0  0  0  0
   28.3896  -17.9917  -18.3676 O   0  0  0  0  0  0  0  0  0  0  0  0
  1  2  1  0
  3  2  1  0
  4  3  1  0
  5  4  1  0
  5  6  1  1
  7  5  1  0
  7  8  2  0
 10  9  1  0
 11 10  2  0
 12 10  1  0
 13 12  1  0
 14 13  1  6
 14 15  1  0
 15  7  1  0
 16 18  1  0
 16 14  1  0
 17 16  2  0
 18 22  1  0
 19 18  1  0
 19 20  1  0
 20 21  1  0
 22 21  1  0
 23 25  1  0
 22 23  1  6
 24 23  2  0
M  END
$$$$
