MQP.pdb
     RDKit          3D

 25 25  0  0  1  0  0  0  0  0999 V2000
    8.6061  -27.0372   -0.6997 C   0  0  0  0  0  0  0  0  0  0  0  0
    9.9357  -26.3622    0.3578 S   0  0  0  0  0  0  0  0  0  0  0  0
   11.1205  -25.4220   -0.6543 C   0  0  0  0  0  0  0  0  0  0  0  0
   12.2416  -24.9199    0.1918 C   0  0  0  0  0  0  0  0  0  0  0  0
   13.3838  -24.3411   -0.5726 C   0  0  2  0  0  0  0  0  0  0  0  0
   13.9354  -25.3603   -1.4336 N   0  0  0  0  0  0  0  0  0  0  0  0
   14.4266  -23.7013    0.2712 C   0  0  0  0  0  0  0  0  0  0  0  0
   15.6619  -23.9838    0.1003 O   0  0  0  0  0  0  0  0  0  0  0  0
   14.2509  -18.1464    3.1360 N   0  0  0  0  0  0  0  0  0  0  0  0
   15.5565  -18.5770    3.4132 C   0  0  0  0  0  0  0  0  0  0  0  0
   16.3879  -17.8386    3.9588 O   0  0  0  0  0  0  0  0  0  0  0  0
   15.9570  -19.9672    3.0398 C   0  0  0  0  0  0  0  0  0  0  0  0
   14.8674  -20.6729    2.2975 C   0  0  0  0  0  0  0  0  0  0  0  0
   15.2125  -22.1012    2.0573 C   0  0  2  0  0  0  0  0  0  0  0  0
   14.1588  -22.7629    1.2955 N   0  0  0  0  0  0  0  0  0  0  0  0
   15.6646  -22.8135    3.2366 C   0  0  0  0  0  0  0  0  0  0  0  0
   14.7884  -23.3954    3.9872 O   0  0  0  0  0  0  0  0  0  0  0  0
   16.9953  -22.9651    3.7002 N   0  0  0  0  0  0  0  0  0  0  0  0
   18.1824  -22.4735    3.0669 C   0  0  0  0  0  0  0  0  0  0  0  0
   19.3262  -22.7422    4.0648 C   0  0  0  0  0  0  0  0  0  0  0  0
   18.8044  -24.0217    4.7332 C   0  0  0  0  0  0  0  0  0  0  0  0
   17.3594  -23.6579    4.9115 C   0  0  1  0  0  0  0  0  0  0  0  0
   17.2787  -22.7530    6.0985 C   0  0  0  0  0  0  0  0  0  0  0  0
   17.1668  -21.5199    5.8930 O   0  0  0  0  0  0  0  0  0  0  0  0
   17.3206  -23.1997    7.4022 O   0  0  0  0  0  0  0  0  0  0  0  0
  1  2  1  0
  3  2  1  0
  4  3  1  0
  5  4  1  0
  5  6  1  1
  7  5  1  0
  7  8  2  0
 10  9  1  0
 11 10  2  0
 12 10  1  0
 13 12  1  0
 14 13  1  1
 14 15  1  0
 15  7  1  0
 16 18  1  0
 16 14  1  0
 17 16  2  0
 18 22  1  0
 19 18  1  0
 19 20  1  0
 20 21  1  0
 22 21  1  0
 23 25  1  0
 22 23  1  1
 24 23  2  0
M  END
$$$$
