MQP.pdb
     RDKit          3D

 25 25  0  0  1  0  0  0  0  0999 V2000
   31.8101  -21.4137   -8.3768 C   0  0  0  0  0  0  0  0  0  0  0  0
   30.9744  -21.3277  -10.0004 S   0  0  0  0  0  0  0  0  0  0  0  0
   29.1901  -21.0542   -9.7695 C   0  0  0  0  0  0  0  0  0  0  0  0
   28.4950  -21.0230  -11.0888 C   0  0  0  0  0  0  0  0  0  0  0  0
   27.0693  -20.5897  -11.0280 C   0  0  2  0  0  0  0  0  0  0  0  0
   26.4017  -21.3222   -9.9782 N   0  0  0  0  0  0  0  0  0  0  0  0
   26.3428  -20.6841  -12.3211 C   0  0  0  0  0  0  0  0  0  0  0  0
   26.8235  -20.1438  -13.3755 O   0  0  0  0  0  0  0  0  0  0  0  0
   22.2601  -24.9818  -14.3484 N   0  0  0  0  0  0  0  0  0  0  0  0
   22.2002  -24.0336  -15.3800 C   0  0  0  0  0  0  0  0  0  0  0  0
   21.5393  -24.2266  -16.4096 O   0  0  0  0  0  0  0  0  0  0  0  0
   22.9555  -22.7528  -15.2333 C   0  0  0  0  0  0  0  0  0  0  0  0
   23.6745  -22.6850  -13.9239 C   0  0  0  0  0  0  0  0  0  0  0  0
   24.4062  -21.3970  -13.7735 C   0  0  2  0  0  0  0  0  0  0  0  0
   25.1072  -21.3510  -12.4949 N   0  0  0  0  0  0  0  0  0  0  0  0
   23.6188  -20.2216  -14.0907 C   0  0  0  0  0  0  0  0  0  0  0  0
   22.7649  -19.7904  -13.2220 O   0  0  0  0  0  0  0  0  0  0  0  0
   23.6584  -19.4462  -15.2765 N   0  0  0  0  0  0  0  0  0  0  0  0
   24.4808  -19.6825  -16.4253 C   0  0  0  0  0  0  0  0  0  0  0  0
   24.0056  -18.6739  -17.4898 C   0  0  0  0  0  0  0  0  0  0  0  0
   23.5709  -17.5129  -16.5846 C   0  0  0  0  0  0  0  0  0  0  0  0
   22.8543  -18.2713  -15.5058 C   0  0  1  0  0  0  0  0  0  0  0  0
   21.5078  -18.6329  -16.0450 C   0  0  0  0  0  0  0  0  0  0  0  0
   20.6476  -17.7239  -16.1401 O   0  0  0  0  0  0  0  0  0  0  0  0
   21.1624  -19.9073  -16.4418 O   0  0  0  0  0  0  0  0  0  0  0  0
  1  2  1  0
  3  2  1  0
  4  3  1  0
  5  4  1  0
  5  6  1  1
  7  5  1  0
  7  8  2  0
 10  9  1  0
 11 10  2  0
 12 10  1  0
 13 12  1  0
 14 13  1  1
 14 15  1  0
 15  7  1  0
 16 18  1  0
 16 14  1  0
 17 16  2  0
 18 22  1  0
 19 18  1  0
 19 20  1  0
 20 21  1  0
 22 21  1  0
 23 25  1  0
 22 23  1  6
 24 23  2  0
M  END
$$$$
