GEY.pdb
     RDKit          3D

 26 26  0  0  1  0  0  0  0  0999 V2000
   18.4811  -11.7448  -15.6622 N   0  0  0  0  0  0  0  0  0  0  0  0
   18.0913  -10.3617  -15.6279 C   0  0  0  0  0  0  0  0  0  0  0  0
   18.4338   -9.7314  -14.3096 C   0  0  0  0  0  0  0  0  0  0  0  0
   18.7407  -10.4300  -13.3117 O   0  0  0  0  0  0  0  0  0  0  0  0
   18.4259   -8.3209  -14.1332 N   0  0  0  0  0  0  0  0  0  0  0  0
   18.6865   -7.7022  -12.8225 C   0  0  1  0  0  0  0  0  0  0  0  0
   19.4805   -6.4771  -13.0777 C   0  0  0  0  0  0  0  0  0  0  0  0
   20.9507   -6.5946  -12.8946 C   0  0  0  0  0  0  0  0  0  0  0  0
   21.7203   -5.4003  -13.2589 C   0  0  0  0  0  0  0  0  0  0  0  0
   21.1652   -4.3763  -13.7244 O   0  0  0  0  0  0  0  0  0  0  0  0
   17.3738   -7.4641  -12.2077 C   0  0  0  0  0  0  0  0  0  0  0  0
   16.4176   -7.1298  -12.9536 O   0  0  0  0  0  0  0  0  0  0  0  0
   23.0951   -5.3746  -13.0954 O   0  0  0  0  0  0  0  0  0  0  0  0
   10.7177   -6.9445   -6.4522 O   0  0  0  0  0  0  0  0  0  0  0  0
   11.9315   -7.1908   -7.0850 C   0  0  0  0  0  0  0  0  0  0  0  0
   12.0399   -8.2347   -7.9747 C   0  0  0  0  0  0  0  0  0  0  0  0
   13.2284   -8.4765   -8.5950 C   0  0  0  0  0  0  0  0  0  0  0  0
   14.3214   -7.6749   -8.3307 C   0  0  0  0  0  0  0  0  0  0  0  0
   15.6214   -7.9150   -8.9729 C   0  0  0  0  0  0  0  0  0  0  0  0
   15.7825   -7.2127  -10.2907 C   0  0  2  0  0  0  0  0  0  0  0  0
   17.1043   -7.5855  -10.8170 N   0  0  0  0  0  0  0  0  0  0  0  0
   15.6926   -5.7510  -10.1103 C   0  0  0  0  0  0  0  0  0  0  0  0
   16.7299   -5.1098   -9.7572 O   0  0  0  0  0  0  0  0  0  0  0  0
   14.2108   -6.6362   -7.4442 C   0  0  0  0  0  0  0  0  0  0  0  0
   13.0137   -6.3943   -6.8209 C   0  0  0  0  0  0  0  0  0  0  0  0
   14.5564   -5.0136  -10.2981 O   0  0  0  0  0  0  0  0  0  0  0  0
  2  1  1  0
  3  2  1  0
  4  3  2  0
  5  3  1  0
  6  5  1  0
  6  7  1  6
  8  7  1  0
  9  8  1  0
 10  9  2  0
 11  6  1  0
 11 21  1  0
 12 11  2  0
 13  9  1  0
 15 14  1  0
 16 15  2  0
 17 16  1  0
 18 17  2  0
 18 24  1  0
 19 18  1  0
 20 21  1  0
 20 22  1  0
 20 19  1  1
 22 26  1  0
 23 22  2  0
 24 25  2  0
 25 15  1  0
M  END
$$$$
