GEY.pdb
     RDKit          3D

 26 26  0  0  1  0  0  0  0  0999 V2000
   26.5840  -27.6328  -17.0258 N   0  0  0  0  0  0  0  0  0  0  0  0
   27.9430  -27.2031  -17.2109 C   0  0  0  0  0  0  0  0  0  0  0  0
   28.0903  -25.7326  -16.9487 C   0  0  0  0  0  0  0  0  0  0  0  0
   28.8516  -25.3031  -16.0464 O   0  0  0  0  0  0  0  0  0  0  0  0
   27.3772  -24.7650  -17.7073 N   0  0  0  0  0  0  0  0  0  0  0  0
   27.6424  -23.3230  -17.5697 C   0  0  1  0  0  0  0  0  0  0  0  0
   27.2458  -22.6905  -18.8500 C   0  0  0  0  0  0  0  0  0  0  0  0
   27.4179  -21.2170  -18.9381 C   0  0  0  0  0  0  0  0  0  0  0  0
   27.0109  -20.6184  -20.2138 C   0  0  0  0  0  0  0  0  0  0  0  0
   25.8936  -20.8631  -20.7289 O   0  0  0  0  0  0  0  0  0  0  0  0
   26.8773  -22.8702  -16.4003 C   0  0  0  0  0  0  0  0  0  0  0  0
   25.7619  -23.4057  -16.1735 O   0  0  0  0  0  0  0  0  0  0  0  0
   27.8610  -19.7582  -20.8883 O   0  0  0  0  0  0  0  0  0  0  0  0
   25.0050  -19.4747   -8.4744 O   0  0  0  0  0  0  0  0  0  0  0  0
   25.6034  -19.8378   -9.6761 C   0  0  0  0  0  0  0  0  0  0  0  0
   25.6351  -21.1609  -10.0526 C   0  0  0  0  0  0  0  0  0  0  0  0
   26.2210  -21.5173  -11.2296 C   0  0  0  0  0  0  0  0  0  0  0  0
   26.7817  -20.5519  -12.0424 C   0  0  0  0  0  0  0  0  0  0  0  0
   27.4324  -20.9027  -13.3127 C   0  0  0  0  0  0  0  0  0  0  0  0
   26.5088  -21.5476  -14.3061 C   0  0  2  0  0  0  0  0  0  0  0  0
   27.3115  -21.8607  -15.4981 N   0  0  0  0  0  0  0  0  0  0  0  0
   25.4049  -20.6321  -14.6534 C   0  0  0  0  0  0  0  0  0  0  0  0
   24.3481  -20.6482  -13.9501 O   0  0  0  0  0  0  0  0  0  0  0  0
   26.7491  -19.2352  -11.6652 C   0  0  0  0  0  0  0  0  0  0  0  0
   26.1588  -18.8784  -10.4802 C   0  0  0  0  0  0  0  0  0  0  0  0
   25.4290  -19.7463  -15.6949 O   0  0  0  0  0  0  0  0  0  0  0  0
  2  1  1  0
  3  2  1  0
  4  3  2  0
  5  3  1  0
  6  5  1  0
  6  7  1  6
  8  7  1  0
  9  8  1  0
 10  9  2  0
 11  6  1  0
 11 21  1  0
 12 11  2  0
 13  9  1  0
 15 14  1  0
 16 15  2  0
 17 16  1  0
 18 17  2  0
 18 24  1  0
 19 18  1  0
 20 21  1  0
 20 22  1  0
 20 19  1  1
 22 26  1  0
 23 22  2  0
 24 25  2  0
 25 15  1  0
M  END
$$$$
