GEY.pdb
     RDKit          3D

 26 26  0  0  1  0  0  0  0  0999 V2000
   27.0344  -25.2432  -16.3721 N   0  0  0  0  0  0  0  0  0  0  0  0
   25.7838  -25.5487  -17.0113 C   0  0  0  0  0  0  0  0  0  0  0  0
   24.7155  -24.5725  -16.6134 C   0  0  0  0  0  0  0  0  0  0  0  0
   24.8960  -23.7512  -15.6802 O   0  0  0  0  0  0  0  0  0  0  0  0
   23.4569  -24.5348  -17.2730 N   0  0  0  0  0  0  0  0  0  0  0  0
   22.4203  -23.5542  -16.9094 C   0  0  1  0  0  0  0  0  0  0  0  0
   21.7369  -23.1674  -18.1663 C   0  0  0  0  0  0  0  0  0  0  0  0
   20.5744  -22.2517  -18.0294 C   0  0  0  0  0  0  0  0  0  0  0  0
   20.9064  -20.8231  -18.0127 C   0  0  0  0  0  0  0  0  0  0  0  0
   20.7472  -20.0986  -19.0242 O   0  0  0  0  0  0  0  0  0  0  0  0
   21.5561  -24.2117  -15.9199 C   0  0  0  0  0  0  0  0  0  0  0  0
   21.2612  -25.4218  -16.0961 O   0  0  0  0  0  0  0  0  0  0  0  0
   21.4098  -20.2332  -16.8655 O   0  0  0  0  0  0  0  0  0  0  0  0
   19.7565  -18.4056  -11.5955 O   0  0  0  0  0  0  0  0  0  0  0  0
   19.9834  -19.7627  -11.7980 C   0  0  0  0  0  0  0  0  0  0  0  0
   19.0581  -20.6836  -11.3632 C   0  0  0  0  0  0  0  0  0  0  0  0
   19.2796  -22.0131  -11.5614 C   0  0  0  0  0  0  0  0  0  0  0  0
   20.4307  -22.4344  -12.1973 C   0  0  0  0  0  0  0  0  0  0  0  0
   20.7071  -23.8612  -12.4165 C   0  0  0  0  0  0  0  0  0  0  0  0
   20.2822  -24.3574  -13.7690 C   0  0  2  0  0  0  0  0  0  0  0  0
   21.0243  -23.5721  -14.7669 N   0  0  0  0  0  0  0  0  0  0  0  0
   18.8286  -24.1800  -13.9499 C   0  0  0  0  0  0  0  0  0  0  0  0
   18.0324  -24.9309  -13.3065 O   0  0  0  0  0  0  0  0  0  0  0  0
   21.3506  -21.5155  -12.6291 C   0  0  0  0  0  0  0  0  0  0  0  0
   21.1258  -20.1778  -12.4289 C   0  0  0  0  0  0  0  0  0  0  0  0
   18.2562  -23.2498  -14.7727 O   0  0  0  0  0  0  0  0  0  0  0  0
  2  1  1  0
  3  2  1  0
  4  3  2  0
  5  3  1  0
  6  5  1  0
  6  7  1  6
  8  7  1  0
  9  8  1  0
 10  9  2  0
 11  6  1  0
 11 21  1  0
 12 11  2  0
 13  9  1  0
 15 14  1  0
 16 15  2  0
 17 16  1  0
 18 17  2  0
 18 24  1  0
 19 18  1  0
 20 21  1  0
 20 22  1  0
 20 19  1  1
 22 26  1  0
 23 22  2  0
 24 25  2  0
 25 15  1  0
M  END
$$$$
