GEY.pdb
     RDKit          3D

 26 26  0  0  1  0  0  0  0  0999 V2000
   14.6171  -14.0210  -14.5041 N   0  0  0  0  0  0  0  0  0  0  0  0
   14.6887  -12.6906  -15.0432 C   0  0  0  0  0  0  0  0  0  0  0  0
   15.7574  -11.8842  -14.3647 C   0  0  0  0  0  0  0  0  0  0  0  0
   16.3011  -12.2815  -13.3042 O   0  0  0  0  0  0  0  0  0  0  0  0
   16.1995  -10.6399  -14.8906 N   0  0  0  0  0  0  0  0  0  0  0  0
   17.1747   -9.7990  -14.1763 C   0  0  1  0  0  0  0  0  0  0  0  0
   17.9013   -9.0178  -15.2050 C   0  0  0  0  0  0  0  0  0  0  0  0
   18.8845   -8.0223  -14.7039 C   0  0  0  0  0  0  0  0  0  0  0  0
   19.5862   -7.2631  -15.7444 C   0  0  0  0  0  0  0  0  0  0  0  0
   18.9836   -6.4493  -16.4847 O   0  0  0  0  0  0  0  0  0  0  0  0
   16.4045   -8.9889  -13.2231 C   0  0  0  0  0  0  0  0  0  0  0  0
   15.2907   -8.5339  -13.5905 O   0  0  0  0  0  0  0  0  0  0  0  0
   20.9475   -7.4288  -15.9364 O   0  0  0  0  0  0  0  0  0  0  0  0
   11.7141   -6.8081   -6.4842 O   0  0  0  0  0  0  0  0  0  0  0  0
   12.7875   -7.1893   -7.2821 C   0  0  0  0  0  0  0  0  0  0  0  0
   12.5909   -8.0756   -8.3161 C   0  0  0  0  0  0  0  0  0  0  0  0
   13.6418   -8.4494   -9.0982 C   0  0  0  0  0  0  0  0  0  0  0  0
   14.9014   -7.9393   -8.8528 C   0  0  0  0  0  0  0  0  0  0  0  0
   16.0594   -8.3305   -9.6690 C   0  0  0  0  0  0  0  0  0  0  0  0
   16.0288   -7.7763  -11.0646 C   0  0  2  0  0  0  0  0  0  0  0  0
   16.8317   -8.6796  -11.9028 N   0  0  0  0  0  0  0  0  0  0  0  0
   16.5915   -6.4125  -11.0902 C   0  0  0  0  0  0  0  0  0  0  0  0
   15.9536   -5.4731  -10.5222 O   0  0  0  0  0  0  0  0  0  0  0  0
   15.0947   -7.0572   -7.8224 C   0  0  0  0  0  0  0  0  0  0  0  0
   14.0356   -6.6820   -7.0364 C   0  0  0  0  0  0  0  0  0  0  0  0
   17.7725   -6.0705  -11.6887 O   0  0  0  0  0  0  0  0  0  0  0  0
  2  1  1  0
  3  2  1  0
  4  3  2  0
  5  3  1  0
  6  5  1  0
  6  7  1  6
  8  7  1  0
  9  8  1  0
 10  9  2  0
 11  6  1  0
 11 21  1  0
 12 11  2  0
 13  9  1  0
 15 14  1  0
 16 15  2  0
 17 16  1  0
 18 17  2  0
 18 24  1  0
 19 18  1  0
 20 21  1  0
 20 22  1  0
 20 19  1  1
 22 26  1  0
 23 22  2  0
 24 25  2  0
 25 15  1  0
M  END
$$$$
