GEY.pdb
     RDKit          3D

 26 26  0  0  1  0  0  0  0  0999 V2000
   20.8961   -9.5262  -23.0678 N   0  0  0  0  0  0  0  0  0  0  0  0
   21.3043   -8.4737  -22.1781 C   0  0  0  0  0  0  0  0  0  0  0  0
   21.2211   -8.9091  -20.7441 C   0  0  0  0  0  0  0  0  0  0  0  0
   20.1168   -9.1636  -20.2019 O   0  0  0  0  0  0  0  0  0  0  0  0
   22.3842   -9.0520  -19.9397 N   0  0  0  0  0  0  0  0  0  0  0  0
   22.3155   -9.5696  -18.5628 C   0  0  1  0  0  0  0  0  0  0  0  0
   23.6303  -10.1887  -18.2720 C   0  0  0  0  0  0  0  0  0  0  0  0
   23.8229  -10.7097  -16.8935 C   0  0  0  0  0  0  0  0  0  0  0  0
   25.1475  -11.2784  -16.6229 C   0  0  0  0  0  0  0  0  0  0  0  0
   26.0046  -10.6584  -15.9487 O   0  0  0  0  0  0  0  0  0  0  0  0
   21.9744   -8.4261  -17.7061 C   0  0  0  0  0  0  0  0  0  0  0  0
   22.4556   -7.3002  -17.9947 O   0  0  0  0  0  0  0  0  0  0  0  0
   25.4876  -12.5287  -17.1113 O   0  0  0  0  0  0  0  0  0  0  0  0
   16.1837  -11.2337  -14.1917 O   0  0  0  0  0  0  0  0  0  0  0  0
   16.9932  -10.1776  -14.5965 C   0  0  0  0  0  0  0  0  0  0  0  0
   17.1423   -9.9044  -15.9368 C   0  0  0  0  0  0  0  0  0  0  0  0
   17.9349   -8.8701  -16.3340 C   0  0  0  0  0  0  0  0  0  0  0  0
   18.5868   -8.0981  -15.3926 C   0  0  0  0  0  0  0  0  0  0  0  0
   19.4589   -6.9826  -15.7866 C   0  0  0  0  0  0  0  0  0  0  0  0
   20.9233   -7.3108  -15.7257 C   0  0  2  0  0  0  0  0  0  0  0  0
   21.1315   -8.5015  -16.5637 N   0  0  0  0  0  0  0  0  0  0  0  0
   21.3336   -7.5810  -14.3344 C   0  0  0  0  0  0  0  0  0  0  0  0
   21.2192   -6.6588  -13.4693 O   0  0  0  0  0  0  0  0  0  0  0  0
   18.4368   -8.3724  -14.0587 C   0  0  0  0  0  0  0  0  0  0  0  0
   17.6385   -9.4138  -13.6608 C   0  0  0  0  0  0  0  0  0  0  0  0
   21.8376   -8.7722  -13.8906 O   0  0  0  0  0  0  0  0  0  0  0  0
  2  1  1  0
  3  2  1  0
  4  3  2  0
  5  3  1  0
  6  5  1  0
  6  7  1  1
  8  7  1  0
  9  8  1  0
 10  9  2  0
 11  6  1  0
 11 21  1  0
 12 11  2  0
 13  9  1  0
 15 14  1  0
 16 15  2  0
 17 16  1  0
 18 17  2  0
 18 24  1  0
 19 18  1  0
 20 21  1  0
 20 22  1  0
 20 19  1  1
 22 26  1  0
 23 22  2  0
 24 25  2  0
 25 15  1  0
M  END
$$$$
