GEY.pdb
     RDKit          3D

 26 26  0  0  1  0  0  0  0  0999 V2000
   17.5503  -15.2569  -15.9900 N   0  0  0  0  0  0  0  0  0  0  0  0
   17.5443  -13.8904  -16.4355 C   0  0  0  0  0  0  0  0  0  0  0  0
   18.8832  -13.2441  -16.2299 C   0  0  0  0  0  0  0  0  0  0  0  0
   19.3558  -13.0724  -15.0787 O   0  0  0  0  0  0  0  0  0  0  0  0
   19.6725  -12.7996  -17.3253 N   0  0  0  0  0  0  0  0  0  0  0  0
   21.0443  -12.2977  -17.1391 C   0  0  1  0  0  0  0  0  0  0  0  0
   21.8058  -12.6716  -18.3543 C   0  0  0  0  0  0  0  0  0  0  0  0
   22.5902  -13.9316  -18.2789 C   0  0  0  0  0  0  0  0  0  0  0  0
   22.4883  -14.7993  -19.4570 C   0  0  0  0  0  0  0  0  0  0  0  0
   22.5627  -14.3392  -20.6216 O   0  0  0  0  0  0  0  0  0  0  0  0
   20.9294  -10.8514  -16.9094 C   0  0  0  0  0  0  0  0  0  0  0  0
   19.9206  -10.2534  -17.3645 O   0  0  0  0  0  0  0  0  0  0  0  0
   22.3053  -16.1639  -19.3097 O   0  0  0  0  0  0  0  0  0  0  0  0
   22.4899   -2.6515  -14.0166 O   0  0  0  0  0  0  0  0  0  0  0  0
   22.5000   -4.0247  -14.2363 C   0  0  0  0  0  0  0  0  0  0  0  0
   21.6266   -4.8345  -13.5472 C   0  0  0  0  0  0  0  0  0  0  0  0
   21.6359   -6.1797  -13.7620 C   0  0  0  0  0  0  0  0  0  0  0  0
   22.5203   -6.7283  -14.6697 C   0  0  0  0  0  0  0  0  0  0  0  0
   22.5655   -8.1765  -14.9168 C   0  0  0  0  0  0  0  0  0  0  0  0
   21.6784   -8.6245  -16.0429 C   0  0  2  0  0  0  0  0  0  0  0  0
   21.8857  -10.0718  -16.2028 N   0  0  0  0  0  0  0  0  0  0  0  0
   22.0265   -7.9128  -17.2877 C   0  0  0  0  0  0  0  0  0  0  0  0
   22.9805   -8.3519  -18.0012 O   0  0  0  0  0  0  0  0  0  0  0  0
   23.3891   -5.9199  -15.3543 C   0  0  0  0  0  0  0  0  0  0  0  0
   23.3782   -4.5661  -15.1369 C   0  0  0  0  0  0  0  0  0  0  0  0
   21.3891   -6.7934  -17.7466 O   0  0  0  0  0  0  0  0  0  0  0  0
  2  1  1  0
  3  2  1  0
  4  3  2  0
  5  3  1  0
  6  5  1  0
  6  7  1  6
  8  7  1  0
  9  8  1  0
 10  9  2  0
 11  6  1  0
 11 21  1  0
 12 11  2  0
 13  9  1  0
 15 14  1  0
 16 15  2  0
 17 16  1  0
 18 17  2  0
 18 24  1  0
 19 18  1  0
 20 21  1  0
 20 22  1  0
 20 19  1  1
 22 26  1  0
 23 22  2  0
 24 25  2  0
 25 15  1  0
M  END
$$$$
