GEY.pdb
     RDKit          3D

 26 26  0  0  1  0  0  0  0  0999 V2000
   20.3340  -13.4143  -17.8551 N   0  0  0  0  0  0  0  0  0  0  0  0
   19.7623  -12.9978  -16.6039 C   0  0  0  0  0  0  0  0  0  0  0  0
   19.5089  -11.5186  -16.5858 C   0  0  0  0  0  0  0  0  0  0  0  0
   19.3643  -10.8676  -17.6505 O   0  0  0  0  0  0  0  0  0  0  0  0
   19.4218  -10.7920  -15.3673 N   0  0  0  0  0  0  0  0  0  0  0  0
   19.0350   -9.3714  -15.3378 C   0  0  1  0  0  0  0  0  0  0  0  0
   18.1149   -9.2019  -14.1884 C   0  0  0  0  0  0  0  0  0  0  0  0
   17.6921   -7.8103  -13.8825 C   0  0  0  0  0  0  0  0  0  0  0  0
   16.6727   -7.2582  -14.7811 C   0  0  0  0  0  0  0  0  0  0  0  0
   15.6772   -7.9318  -15.1398 O   0  0  0  0  0  0  0  0  0  0  0  0
   20.2834   -8.6034  -15.2412 C   0  0  0  0  0  0  0  0  0  0  0  0
   21.1744   -9.0102  -14.4519 O   0  0  0  0  0  0  0  0  0  0  0  0
   16.7867   -5.9642  -15.2607 O   0  0  0  0  0  0  0  0  0  0  0  0
   26.8531   -3.0391  -17.1495 O   0  0  0  0  0  0  0  0  0  0  0  0
   25.7202   -3.8458  -17.1522 C   0  0  0  0  0  0  0  0  0  0  0  0
   25.8548   -5.2149  -17.1252 C   0  0  0  0  0  0  0  0  0  0  0  0
   24.7456   -6.0057  -17.1278 C   0  0  0  0  0  0  0  0  0  0  0  0
   23.4892   -5.4333  -17.1575 C   0  0  0  0  0  0  0  0  0  0  0  0
   22.2718   -6.2568  -17.1735 C   0  0  0  0  0  0  0  0  0  0  0  0
   21.8481   -6.7340  -15.8138 C   0  0  2  0  0  0  0  0  0  0  0  0
   20.5593   -7.4222  -15.9829 N   0  0  0  0  0  0  0  0  0  0  0  0
   21.7066   -5.5937  -14.8882 C   0  0  0  0  0  0  0  0  0  0  0  0
   20.6226   -4.9327  -14.8876 O   0  0  0  0  0  0  0  0  0  0  0  0
   23.3578   -4.0699  -17.1846 C   0  0  0  0  0  0  0  0  0  0  0  0
   24.4754   -3.2756  -17.1818 C   0  0  0  0  0  0  0  0  0  0  0  0
   22.6702   -5.1822  -14.0096 O   0  0  0  0  0  0  0  0  0  0  0  0
  2  1  1  0
  3  2  1  0
  4  3  2  0
  5  3  1  0
  6  5  1  0
  6  7  1  1
  8  7  1  0
  9  8  1  0
 10  9  2  0
 11  6  1  0
 11 21  1  0
 12 11  2  0
 13  9  1  0
 15 14  1  0
 16 15  2  0
 17 16  1  0
 18 17  2  0
 18 24  1  0
 19 18  1  0
 20 21  1  0
 20 22  1  0
 20 19  1  6
 22 26  1  0
 23 22  2  0
 24 25  2  0
 25 15  1  0
M  END
$$$$
