GEY.pdb
     RDKit          3D

 26 26  0  0  1  0  0  0  0  0999 V2000
   26.0858  -15.9425  -19.8591 N   0  0  0  0  0  0  0  0  0  0  0  0
   25.8113  -14.9500  -18.8564 C   0  0  0  0  0  0  0  0  0  0  0  0
   25.2546  -13.6973  -19.4675 C   0  0  0  0  0  0  0  0  0  0  0  0
   25.1277  -13.5780  -20.7116 O   0  0  0  0  0  0  0  0  0  0  0  0
   24.8478  -12.5947  -18.6679 N   0  0  0  0  0  0  0  0  0  0  0  0
   24.2782  -11.3740  -19.2628 C   0  0  1  0  0  0  0  0  0  0  0  0
   22.8682  -11.2962  -18.8132 C   0  0  0  0  0  0  0  0  0  0  0  0
   21.8527  -11.8867  -19.7237 C   0  0  0  0  0  0  0  0  0  0  0  0
   21.1440  -10.9237  -20.5732 C   0  0  0  0  0  0  0  0  0  0  0  0
   21.3275  -10.8802  -21.8133 O   0  0  0  0  0  0  0  0  0  0  0  0
   25.1256  -10.2604  -18.8159 C   0  0  0  0  0  0  0  0  0  0  0  0
   25.3412  -10.1322  -17.5833 O   0  0  0  0  0  0  0  0  0  0  0  0
   20.2443  -10.0285  -20.0194 O   0  0  0  0  0  0  0  0  0  0  0  0
   30.6783  -12.8772  -17.8436 O   0  0  0  0  0  0  0  0  0  0  0  0
   29.9883  -11.7636  -18.3104 C   0  0  0  0  0  0  0  0  0  0  0  0
   29.2264  -11.8596  -19.4522 C   0  0  0  0  0  0  0  0  0  0  0  0
   28.5501  -10.7693  -19.9099 C   0  0  0  0  0  0  0  0  0  0  0  0
   28.6298   -9.5707  -19.2287 C   0  0  0  0  0  0  0  0  0  0  0  0
   27.9230   -8.3718  -19.7013 C   0  0  0  0  0  0  0  0  0  0  0  0
   26.5429   -8.2198  -19.1287 C   0  0  2  0  0  0  0  0  0  0  0  0
   25.7251   -9.3082  -19.6851 N   0  0  0  0  0  0  0  0  0  0  0  0
   25.9744   -6.9083  -19.4949 C   0  0  0  0  0  0  0  0  0  0  0  0
   24.9863   -6.8668  -20.2910 O   0  0  0  0  0  0  0  0  0  0  0  0
   29.3893   -9.4776  -18.0922 C   0  0  0  0  0  0  0  0  0  0  0  0
   30.0692  -10.5762  -17.6329 C   0  0  0  0  0  0  0  0  0  0  0  0
   26.4355   -5.7060  -19.0346 O   0  0  0  0  0  0  0  0  0  0  0  0
  2  1  1  0
  3  2  1  0
  4  3  2  0
  5  3  1  0
  6  5  1  0
  6  7  1  1
  8  7  1  0
  9  8  1  0
 10  9  2  0
 11  6  1  0
 11 21  1  0
 12 11  2  0
 13  9  1  0
 15 14  1  0
 16 15  2  0
 17 16  1  0
 18 17  2  0
 18 24  1  0
 19 18  1  0
 20 21  1  0
 20 22  1  0
 20 19  1  6
 22 26  1  0
 23 22  2  0
 24 25  2  0
 25 15  1  0
M  END
$$$$
