CHD.pdb
     RDKit          3D

 25 25  0  0  1  0  0  0  0  0999 V2000
   26.0453  -22.6886  -16.3581 N   0  0  0  0  0  0  0  0  0  0  0  0
   25.1297  -21.5638  -16.5550 C   0  0  1  0  0  0  0  0  0  0  0  0
   24.4726  -21.6988  -17.9323 C   0  0  0  0  0  0  0  0  0  0  0  0
   25.7019  -21.3488  -19.2084 S   0  0  0  0  0  0  0  0  0  0  0  0
   24.1002  -21.6351  -15.4865 C   0  0  0  0  0  0  0  0  0  0  0  0
   23.8179  -22.8112  -15.0739 O   0  0  0  0  0  0  0  0  0  0  0  0
   23.4788  -20.4894  -14.9645 N   0  0  0  0  0  0  0  0  0  0  0  0
   22.4660  -20.5972  -13.9412 C   0  0  1  0  0  0  0  0  0  0  0  0
   22.8805  -19.8429  -12.7002 C   0  0  0  0  0  0  0  0  0  0  0  0
   23.9205  -20.5619  -11.9270 C   0  0  0  0  0  0  0  0  0  0  0  0
   24.4076  -21.8433  -12.1391 C   0  0  0  0  0  0  0  0  0  0  0  0
   25.3506  -22.1420  -11.2233 N   0  0  0  0  0  0  0  0  0  0  0  0
   25.4529  -21.0563  -10.4442 C   0  0  0  0  0  0  0  0  0  0  0  0
   24.6030  -20.1105  -10.8583 N   0  0  0  0  0  0  0  0  0  0  0  0
   21.1306  -20.1652  -14.4552 C   0  0  0  0  0  0  0  0  0  0  0  0
   20.9789  -19.1073  -15.1148 O   0  0  0  0  0  0  0  0  0  0  0  0
   19.9884  -20.9711  -14.1946 N   0  0  0  0  0  0  0  0  0  0  0  0
   18.6483  -20.5802  -14.6169 C   0  0  1  0  0  0  0  0  0  0  0  0
   17.8030  -21.7910  -14.9184 C   0  0  0  0  0  0  0  0  0  0  0  0
   16.4893  -21.3943  -15.4619 C   0  0  0  0  0  0  0  0  0  0  0  0
   16.1469  -20.1876  -15.6613 O   0  0  0  0  0  0  0  0  0  0  0  0
   18.0402  -19.6180  -13.6947 C   0  0  0  0  0  0  0  0  0  0  0  0
   17.2112  -18.7333  -14.0489 O   0  0  0  0  0  0  0  0  0  0  0  0
   15.5198  -22.3387  -15.7984 O   0  0  0  0  0  0  0  0  0  0  0  0
   18.3537  -19.6327  -12.3477 O   0  0  0  0  0  0  0  0  0  0  0  0
  2  1  1  1
  3  2  1  0
  4  3  1  0
  5  2  1  0
  6  5  2  0
  7  5  1  0
  8  9  1  1
  8  7  1  0
  9 10  1  0
 10 14  1  0
 10 11  2  0
 11 12  1  0
 13 12  1  0
 14 13  2  0
 15  8  1  0
 16 15  2  0
 17 15  1  0
 18 17  1  0
 18 19  1  1
 19 20  1  0
 20 24  1  0
 20 21  2  0
 22 25  1  0
 22 18  1  0
 23 22  2  0
M  END
$$$$
