CHD.pdb
     RDKit          3D

 25 25  0  0  1  0  0  0  0  0999 V2000
   20.7534  -12.7220  -17.6777 N   0  0  0  0  0  0  0  0  0  0  0  0
   19.9323  -11.8524  -16.8339 C   0  0  1  0  0  0  0  0  0  0  0  0
   19.0868  -12.7260  -15.9020 C   0  0  0  0  0  0  0  0  0  0  0  0
   17.6288  -13.3037  -16.7980 S   0  0  0  0  0  0  0  0  0  0  0  0
   20.8554  -11.0006  -16.0408 C   0  0  0  0  0  0  0  0  0  0  0  0
   22.0211  -11.4872  -15.8470 O   0  0  0  0  0  0  0  0  0  0  0  0
   20.4746   -9.7464  -15.5378 N   0  0  0  0  0  0  0  0  0  0  0  0
   21.4109   -8.9265  -14.8057 C   0  0  1  0  0  0  0  0  0  0  0  0
   22.6412   -8.6514  -15.6371 C   0  0  0  0  0  0  0  0  0  0  0  0
   22.3103   -8.0309  -16.9416 C   0  0  0  0  0  0  0  0  0  0  0  0
   21.0535   -7.7827  -17.4736 C   0  0  0  0  0  0  0  0  0  0  0  0
   21.1656   -7.2043  -18.6861 N   0  0  0  0  0  0  0  0  0  0  0  0
   22.4819   -7.0915  -18.9113 C   0  0  0  0  0  0  0  0  0  0  0  0
   23.1701   -7.5824  -17.8751 N   0  0  0  0  0  0  0  0  0  0  0  0
   20.7611   -7.6743  -14.3116 C   0  0  0  0  0  0  0  0  0  0  0  0
   19.8145   -7.1250  -14.9276 O   0  0  0  0  0  0  0  0  0  0  0  0
   21.2221   -7.0776  -13.1061 N   0  0  0  0  0  0  0  0  0  0  0  0
   20.4738   -6.0294  -12.4217 C   0  0  1  0  0  0  0  0  0  0  0  0
   19.9550   -6.5165  -11.0932 C   0  0  0  0  0  0  0  0  0  0  0  0
   19.1304   -5.4822  -10.4383 C   0  0  0  0  0  0  0  0  0  0  0  0
   18.6444   -4.4804  -11.0493 O   0  0  0  0  0  0  0  0  0  0  0  0
   21.2178   -4.7685  -12.3683 C   0  0  0  0  0  0  0  0  0  0  0  0
   20.6862   -3.6493  -12.1233 O   0  0  0  0  0  0  0  0  0  0  0  0
   18.8257   -5.5400   -9.0786 O   0  0  0  0  0  0  0  0  0  0  0  0
   22.5829   -4.7418  -12.5894 O   0  0  0  0  0  0  0  0  0  0  0  0
  2  1  1  6
  3  2  1  0
  4  3  1  0
  5  2  1  0
  6  5  2  0
  7  5  1  0
  8  9  1  6
  8  7  1  0
  9 10  1  0
 10 14  1  0
 10 11  2  0
 11 12  1  0
 13 12  1  0
 14 13  2  0
 15  8  1  0
 16 15  2  0
 17 15  1  0
 18 17  1  0
 18 19  1  1
 19 20  1  0
 20 24  1  0
 20 21  2  0
 22 25  1  0
 22 18  1  0
 23 22  2  0
M  END
$$$$
