CHD.pdb
     RDKit          3D

 25 25  0  0  1  0  0  0  0  0999 V2000
   27.5140  -23.8333  -16.7330 N   0  0  0  0  0  0  0  0  0  0  0  0
   27.4286  -22.4740  -16.1968 C   0  0  1  0  0  0  0  0  0  0  0  0
   27.3728  -21.4859  -17.3661 C   0  0  0  0  0  0  0  0  0  0  0  0
   29.0526  -21.1651  -17.9471 S   0  0  0  0  0  0  0  0  0  0  0  0
   26.1817  -22.3894  -15.3939 C   0  0  0  0  0  0  0  0  0  0  0  0
   25.2025  -23.0880  -15.8255 O   0  0  0  0  0  0  0  0  0  0  0  0
   26.0840  -21.5964  -14.2395 N   0  0  0  0  0  0  0  0  0  0  0  0
   24.8373  -21.4866  -13.5195 C   0  0  1  0  0  0  0  0  0  0  0  0
   25.0577  -20.8524  -12.1667 C   0  0  0  0  0  0  0  0  0  0  0  0
   23.7934  -20.6868  -11.4113 C   0  0  0  0  0  0  0  0  0  0  0  0
   22.5073  -21.0078  -11.8203 C   0  0  0  0  0  0  0  0  0  0  0  0
   21.6205  -20.7086  -10.8502 N   0  0  0  0  0  0  0  0  0  0  0  0
   22.3456  -20.2044   -9.8421 C   0  0  0  0  0  0  0  0  0  0  0  0
   23.6419  -20.1886  -10.1702 N   0  0  0  0  0  0  0  0  0  0  0  0
   23.8075  -20.7668  -14.3291 C   0  0  0  0  0  0  0  0  0  0  0  0
   24.0502  -19.6752  -14.9007 O   0  0  0  0  0  0  0  0  0  0  0  0
   22.5076  -21.3275  -14.4628 N   0  0  0  0  0  0  0  0  0  0  0  0
   21.4499  -20.6669  -15.2191 C   0  0  1  0  0  0  0  0  0  0  0  0
   21.3903  -21.1884  -16.6318 C   0  0  0  0  0  0  0  0  0  0  0  0
   20.3690  -20.4677  -17.4168 C   0  0  0  0  0  0  0  0  0  0  0  0
   20.3544  -19.2059  -17.5602 O   0  0  0  0  0  0  0  0  0  0  0  0
   20.1720  -20.6797  -14.5027 C   0  0  0  0  0  0  0  0  0  0  0  0
   19.9349  -21.4141  -13.5029 O   0  0  0  0  0  0  0  0  0  0  0  0
   19.3332  -21.1403  -18.0648 O   0  0  0  0  0  0  0  0  0  0  0  0
   19.1301  -19.8609  -14.8986 O   0  0  0  0  0  0  0  0  0  0  0  0
  2  1  1  6
  3  2  1  0
  4  3  1  0
  5  2  1  0
  6  5  2  0
  7  5  1  0
  8  9  1  1
  8  7  1  0
  9 10  1  0
 10 14  1  0
 10 11  2  0
 11 12  1  0
 13 12  1  0
 14 13  2  0
 15  8  1  0
 16 15  2  0
 17 15  1  0
 18 17  1  0
 18 19  1  6
 19 20  1  0
 20 24  1  0
 20 21  2  0
 22 25  1  0
 22 18  1  0
 23 22  2  0
M  END
$$$$
