CHD.pdb
     RDKit          3D

 25 25  0  0  1  0  0  0  0  0999 V2000
   18.2293  -11.2595    5.3243 N   0  0  0  0  0  0  0  0  0  0  0  0
   19.1984  -12.2979    5.6780 C   0  0  1  0  0  0  0  0  0  0  0  0
   20.3893  -11.6406    6.3826 C   0  0  0  0  0  0  0  0  0  0  0  0
   21.5365  -12.9264    6.9239 S   0  0  0  0  0  0  0  0  0  0  0  0
   18.5189  -13.2469    6.5968 C   0  0  0  0  0  0  0  0  0  0  0  0
   17.8463  -12.7099    7.5415 O   0  0  0  0  0  0  0  0  0  0  0  0
   18.6087  -14.6392    6.4395 N   0  0  0  0  0  0  0  0  0  0  0  0
   17.9275  -15.5325    7.3464 C   0  0  1  0  0  0  0  0  0  0  0  0
   16.6629  -16.0675    6.7175 C   0  0  0  0  0  0  0  0  0  0  0  0
   16.9328  -16.8332    5.4776 C   0  0  0  0  0  0  0  0  0  0  0  0
   17.8806  -17.8262    5.2778 C   0  0  0  0  0  0  0  0  0  0  0  0
   17.8182  -18.2832    4.0111 N   0  0  0  0  0  0  0  0  0  0  0  0
   16.8393  -17.5820    3.4229 C   0  0  0  0  0  0  0  0  0  0  0  0
   16.3072  -16.7157    4.2917 N   0  0  0  0  0  0  0  0  0  0  0  0
   18.8375  -16.6204    7.8183 C   0  0  0  0  0  0  0  0  0  0  0  0
   19.9493  -16.8426    7.2782 O   0  0  0  0  0  0  0  0  0  0  0  0
   18.4411  -17.4359    8.9136 N   0  0  0  0  0  0  0  0  0  0  0  0
   19.3101  -18.4664    9.4703 C   0  0  1  0  0  0  0  0  0  0  0  0
   20.6180  -17.8772    9.9326 C   0  0  0  0  0  0  0  0  0  0  0  0
   21.2620  -18.7468   10.9365 C   0  0  0  0  0  0  0  0  0  0  0  0
   21.4304  -19.9958   10.7794 O   0  0  0  0  0  0  0  0  0  0  0  0
   18.6187  -19.2895   10.4657 C   0  0  0  0  0  0  0  0  0  0  0  0
   17.5414  -18.9505   11.0311 O   0  0  0  0  0  0  0  0  0  0  0  0
   21.7365  -18.2420   12.1469 O   0  0  0  0  0  0  0  0  0  0  0  0
   19.1280  -20.5179   10.8458 O   0  0  0  0  0  0  0  0  0  0  0  0
  2  1  1  1
  3  2  1  0
  4  3  1  0
  5  2  1  0
  6  5  2  0
  7  5  1  0
  8  9  1  6
  8  7  1  0
  9 10  1  0
 10 14  1  0
 10 11  2  0
 11 12  1  0
 13 12  1  0
 14 13  2  0
 15  8  1  0
 16 15  2  0
 17 15  1  0
 18 17  1  0
 18 19  1  1
 19 20  1  0
 20 24  1  0
 20 21  2  0
 22 25  1  0
 22 18  1  0
 23 22  2  0
M  END
$$$$
