CHD.pdb
     RDKit          3D

 25 25  0  0  1  0  0  0  0  0999 V2000
   16.3494  -14.0790  -14.8035 N   0  0  0  0  0  0  0  0  0  0  0  0
   16.4307  -13.1315  -15.9162 C   0  0  1  0  0  0  0  0  0  0  0  0
   15.0654  -12.4594  -16.0916 C   0  0  0  0  0  0  0  0  0  0  0  0
   13.8931  -13.6684  -16.7444 S   0  0  0  0  0  0  0  0  0  0  0  0
   17.4593  -12.1191  -15.5648 C   0  0  0  0  0  0  0  0  0  0  0  0
   17.3743  -11.6371  -14.3843 O   0  0  0  0  0  0  0  0  0  0  0  0
   18.4575  -11.7180  -16.4670 N   0  0  0  0  0  0  0  0  0  0  0  0
   19.4265  -10.7122  -16.1006 C   0  0  1  0  0  0  0  0  0  0  0  0
   20.7441  -10.9646  -16.7941 C   0  0  0  0  0  0  0  0  0  0  0  0
   21.7744   -9.9660  -16.4230 C   0  0  0  0  0  0  0  0  0  0  0  0
   21.6626   -8.9219  -15.5166 C   0  0  0  0  0  0  0  0  0  0  0  0
   22.8191   -8.2319  -15.4542 N   0  0  0  0  0  0  0  0  0  0  0  0
   23.6479   -8.8391  -16.3147 C   0  0  0  0  0  0  0  0  0  0  0  0
   23.0313   -9.8738  -16.8957 N   0  0  0  0  0  0  0  0  0  0  0  0
   18.8995   -9.3366  -16.3543 C   0  0  0  0  0  0  0  0  0  0  0  0
   18.3330   -9.0263  -17.4312 O   0  0  0  0  0  0  0  0  0  0  0  0
   19.0390   -8.3396  -15.3501 N   0  0  0  0  0  0  0  0  0  0  0  0
   18.5877   -6.9671  -15.5491 C   0  0  1  0  0  0  0  0  0  0  0  0
   17.4322   -6.6417  -14.6378 C   0  0  0  0  0  0  0  0  0  0  0  0
   16.9822   -5.2497  -14.8342 C   0  0  0  0  0  0  0  0  0  0  0  0
   16.5723   -4.7943  -15.9467 O   0  0  0  0  0  0  0  0  0  0  0  0
   19.6972   -6.0116  -15.5031 C   0  0  0  0  0  0  0  0  0  0  0  0
   19.5737   -4.7796  -15.7524 O   0  0  0  0  0  0  0  0  0  0  0  0
   16.9783   -4.3263  -13.7891 O   0  0  0  0  0  0  0  0  0  0  0  0
   20.9749   -6.4254  -15.1726 O   0  0  0  0  0  0  0  0  0  0  0  0
  2  1  1  1
  3  2  1  0
  4  3  1  0
  5  2  1  0
  6  5  2  0
  7  5  1  0
  8  9  1  6
  8  7  1  0
  9 10  1  0
 10 14  1  0
 10 11  2  0
 11 12  1  0
 13 12  1  0
 14 13  2  0
 15  8  1  0
 16 15  2  0
 17 15  1  0
 18 17  1  0
 18 19  1  1
 19 20  1  0
 20 24  1  0
 20 21  2  0
 22 25  1  0
 22 18  1  0
 23 22  2  0
M  END
$$$$
