CHD.pdb
     RDKit          3D

 25 25  0  0  1  0  0  0  0  0999 V2000
   18.0542  -11.8961  -17.0776 N   0  0  0  0  0  0  0  0  0  0  0  0
   19.0892  -12.3480  -16.1465 C   0  0  1  0  0  0  0  0  0  0  0  0
   19.4597  -13.7951  -16.4864 C   0  0  0  0  0  0  0  0  0  0  0  0
   18.0383  -14.8598  -16.1578 S   0  0  0  0  0  0  0  0  0  0  0  0
   20.2675  -11.4614  -16.3258 C   0  0  0  0  0  0  0  0  0  0  0  0
   21.2673  -11.7181  -15.5724 O   0  0  0  0  0  0  0  0  0  0  0  0
   20.2832  -10.4125  -17.2589 N   0  0  0  0  0  0  0  0  0  0  0  0
   21.3990   -9.4988  -17.3276 C   0  0  1  0  0  0  0  0  0  0  0  0
   22.0749   -9.5840  -18.6755 C   0  0  0  0  0  0  0  0  0  0  0  0
   22.7864  -10.8699  -18.8667 C   0  0  0  0  0  0  0  0  0  0  0  0
   24.0736  -11.1998  -18.4683 C   0  0  0  0  0  0  0  0  0  0  0  0
   24.3621  -12.4675  -18.8243 N   0  0  0  0  0  0  0  0  0  0  0  0
   23.2645  -12.9274  -19.4406 C   0  0  0  0  0  0  0  0  0  0  0  0
   22.3213  -11.9799  -19.4693 N   0  0  0  0  0  0  0  0  0  0  0  0
   20.9787   -8.1060  -16.9842 C   0  0  0  0  0  0  0  0  0  0  0  0
   19.8817   -7.6266  -17.3635 O   0  0  0  0  0  0  0  0  0  0  0  0
   21.8416   -7.2892  -16.2032 N   0  0  0  0  0  0  0  0  0  0  0  0
   21.4635   -5.9481  -15.7726 C   0  0  1  0  0  0  0  0  0  0  0  0
   21.9296   -5.6821  -14.3642 C   0  0  0  0  0  0  0  0  0  0  0  0
   21.5038   -4.3430  -13.9124 C   0  0  0  0  0  0  0  0  0  0  0  0
   22.2051   -3.2949  -14.0631 O   0  0  0  0  0  0  0  0  0  0  0  0
   21.8468   -4.9280  -16.7517 C   0  0  0  0  0  0  0  0  0  0  0  0
   22.9212   -4.9599  -17.4151 O   0  0  0  0  0  0  0  0  0  0  0  0
   20.2788   -4.1387  -13.2779 O   0  0  0  0  0  0  0  0  0  0  0  0
   21.0236   -3.8461  -17.0064 O   0  0  0  0  0  0  0  0  0  0  0  0
  2  1  1  6
  3  2  1  0
  4  3  1  0
  5  2  1  0
  6  5  2  0
  7  5  1  0
  8  9  1  6
  8  7  1  0
  9 10  1  0
 10 14  1  0
 10 11  2  0
 11 12  1  0
 13 12  1  0
 14 13  2  0
 15  8  1  0
 16 15  2  0
 17 15  1  0
 18 17  1  0
 18 19  1  1
 19 20  1  0
 20 24  1  0
 20 21  2  0
 22 25  1  0
 22 18  1  0
 23 22  2  0
M  END
$$$$
