CHD.pdb
     RDKit          3D

 25 25  0  0  1  0  0  0  0  0999 V2000
   25.6358  -11.6049  -17.0417 N   0  0  0  0  0  0  0  0  0  0  0  0
   25.2219  -10.6988  -15.9694 C   0  0  1  0  0  0  0  0  0  0  0  0
   26.3383   -9.6776  -15.7292 C   0  0  0  0  0  0  0  0  0  0  0  0
   27.7042  -10.4890  -14.8703 S   0  0  0  0  0  0  0  0  0  0  0  0
   23.9854  -10.0102  -16.4205 C   0  0  0  0  0  0  0  0  0  0  0  0
   23.9289   -9.7459  -17.6695 O   0  0  0  0  0  0  0  0  0  0  0  0
   22.9487   -9.6721  -15.5361 N   0  0  0  0  0  0  0  0  0  0  0  0
   21.7352   -9.0558  -16.0182 C   0  0  1  0  0  0  0  0  0  0  0  0
   20.5353   -9.9103  -15.6852 C   0  0  0  0  0  0  0  0  0  0  0  0
   20.4894  -11.1528  -16.4917 C   0  0  0  0  0  0  0  0  0  0  0  0
   19.9859  -11.3193  -17.7735 C   0  0  0  0  0  0  0  0  0  0  0  0
   20.1244  -12.6013  -18.1667 N   0  0  0  0  0  0  0  0  0  0  0  0
   20.7097  -13.2321  -17.1393 C   0  0  0  0  0  0  0  0  0  0  0  0
   20.9301  -12.3742  -16.1374 N   0  0  0  0  0  0  0  0  0  0  0  0
   21.6012   -7.6565  -15.5100 C   0  0  0  0  0  0  0  0  0  0  0  0
   21.7896   -7.3630  -14.3036 O   0  0  0  0  0  0  0  0  0  0  0  0
   21.2493   -6.6165  -16.4136 N   0  0  0  0  0  0  0  0  0  0  0  0
   21.0726   -5.2356  -15.9789 C   0  0  1  0  0  0  0  0  0  0  0  0
   21.3404   -4.2757  -17.1095 C   0  0  0  0  0  0  0  0  0  0  0  0
   21.1832   -2.8779  -16.6622 C   0  0  0  0  0  0  0  0  0  0  0  0
   20.0587   -2.3419  -16.4144 O   0  0  0  0  0  0  0  0  0  0  0  0
   19.7954   -5.0356  -15.2898 C   0  0  0  0  0  0  0  0  0  0  0  0
   18.7046   -5.5459  -15.6707 O   0  0  0  0  0  0  0  0  0  0  0  0
   22.2821   -2.0389  -16.4791 O   0  0  0  0  0  0  0  0  0  0  0  0
   19.7198   -4.2540  -14.1513 O   0  0  0  0  0  0  0  0  0  0  0  0
  2  1  1  6
  3  2  1  0
  4  3  1  0
  5  2  1  0
  6  5  2  0
  7  5  1  0
  8  9  1  1
  8  7  1  0
  9 10  1  0
 10 14  1  0
 10 11  2  0
 11 12  1  0
 13 12  1  0
 14 13  2  0
 15  8  1  0
 16 15  2  0
 17 15  1  0
 18 17  1  0
 18 19  1  6
 19 20  1  0
 20 24  1  0
 20 21  2  0
 22 25  1  0
 22 18  1  0
 23 22  2  0
M  END
$$$$
