MTV.pdb
     RDKit          3D

 23 22  0  0  1  0  0  0  0  0999 V2000
   32.4935  -24.2254  -15.6478 C   0  0  0  0  0  0  0  0  0  0  0  0
   31.7973  -24.9091  -17.1416 S   0  0  0  0  0  0  0  0  0  0  0  0
   30.2293  -24.2448  -17.6524 C   0  0  0  0  0  0  0  0  0  0  0  0
   29.8878  -22.9560  -16.9992 C   0  0  0  0  0  0  0  0  0  0  0  0
   28.6901  -22.2455  -17.5272 C   0  0  2  0  0  0  0  0  0  0  0  0
   29.0446  -21.5553  -18.7552 N   0  0  0  0  0  0  0  0  0  0  0  0
   28.2986  -21.2177  -16.4951 C   0  0  0  0  0  0  0  0  0  0  0  0
   28.7184  -20.0284  -16.5968 O   0  0  0  0  0  0  0  0  0  0  0  0
   27.1715  -18.8266  -16.5293 C   0  0  0  0  0  0  0  0  0  0  0  0
   26.2630  -19.4794  -15.5594 C   0  0  1  0  0  0  0  0  0  0  0  0
   25.3700  -20.2768  -16.3210 O   0  0  0  0  0  0  0  0  0  0  0  0
   26.9065  -20.4329  -14.5851 C   0  0  2  0  0  0  0  0  0  0  0  0
   27.4651  -21.5338  -15.3942 N   0  0  0  0  0  0  0  0  0  0  0  0
   25.9868  -21.0489  -13.6242 C   0  0  0  0  0  0  0  0  0  0  0  0
   25.3549  -22.0904  -13.9158 O   0  0  0  0  0  0  0  0  0  0  0  0
   25.0760  -19.3628   -9.6015 C   0  0  0  0  0  0  0  0  0  0  0  0
   25.3231  -20.7876   -9.9663 C   0  0  2  0  0  0  0  0  0  0  0  0
   26.8037  -21.1247   -9.7633 C   0  0  0  0  0  0  0  0  0  0  0  0
   24.9569  -21.1209  -11.3915 C   0  0  2  0  0  0  0  0  0  0  0  0
   25.8069  -20.4652  -12.3490 N   0  0  0  0  0  0  0  0  0  0  0  0
   23.5471  -20.7581  -11.6569 C   0  0  0  0  0  0  0  0  0  0  0  0
   22.4979  -21.5687  -11.2389 O   0  0  0  0  0  0  0  0  0  0  0  0
   23.2570  -19.6982  -12.2726 O   0  0  0  0  0  0  0  0  0  0  0  0
  2  1  1  0
  3  4  1  0
  3  2  1  0
  5  4  1  0
  5  6  1  6
  7  8  2  0
  7  5  1  0
 10 12  1  0
 10  9  1  6
 11 10  1  0
 12 13  1  6
 13  7  1  0
 14 12  1  0
 15 14  2  0
 17 16  1  6
 17 19  1  0
 18 17  1  0
 19 21  1  0
 19 20  1  6
 20 14  1  0
 21 22  1  0
 23 21  2  0
M  END
$$$$
