MTV.pdb
     RDKit          3D

 23 22  0  0  1  0  0  0  0  0999 V2000
   28.0256  -18.5185   -6.5897 C   0  0  0  0  0  0  0  0  0  0  0  0
   26.5282  -19.4881   -6.6216 S   0  0  0  0  0  0  0  0  0  0  0  0
   26.4466  -20.7660   -7.8551 C   0  0  0  0  0  0  0  0  0  0  0  0
   26.1648  -20.2573   -9.2212 C   0  0  0  0  0  0  0  0  0  0  0  0
   26.1142  -21.2753  -10.3071 C   0  0  2  0  0  0  0  0  0  0  0  0
   27.4492  -21.8012  -10.5338 N   0  0  0  0  0  0  0  0  0  0  0  0
   25.6608  -20.5625  -11.5565 C   0  0  0  0  0  0  0  0  0  0  0  0
   26.5163  -20.0982  -12.3649 O   0  0  0  0  0  0  0  0  0  0  0  0
   25.8011  -21.6310  -13.9934 C   0  0  0  0  0  0  0  0  0  0  0  0
   24.3608  -21.2971  -14.0735 C   0  0  1  0  0  0  0  0  0  0  0  0
   23.6621  -22.4020  -13.5218 O   0  0  0  0  0  0  0  0  0  0  0  0
   23.9098  -20.1057  -13.2675 C   0  0  2  0  0  0  0  0  0  0  0  0
   24.2905  -20.3866  -11.8692 N   0  0  0  0  0  0  0  0  0  0  0  0
   22.4625  -19.8732  -13.2652 C   0  0  0  0  0  0  0  0  0  0  0  0
   21.7508  -20.2587  -12.3093 O   0  0  0  0  0  0  0  0  0  0  0  0
   20.2413  -18.2677  -16.6909 C   0  0  0  0  0  0  0  0  0  0  0  0
   20.0936  -17.7786  -15.2898 C   0  0  2  0  0  0  0  0  0  0  0  0
   20.9612  -16.5332  -15.0821 C   0  0  0  0  0  0  0  0  0  0  0  0
   20.4796  -18.7989  -14.2476 C   0  0  2  0  0  0  0  0  0  0  0  0
   21.8558  -19.2042  -14.3531 N   0  0  0  0  0  0  0  0  0  0  0  0
   19.6077  -19.9901  -14.3484 C   0  0  0  0  0  0  0  0  0  0  0  0
   18.3903  -20.0573  -13.6807 O   0  0  0  0  0  0  0  0  0  0  0  0
   19.9465  -20.9823  -15.0466 O   0  0  0  0  0  0  0  0  0  0  0  0
  2  1  1  0
  3  4  1  0
  3  2  1  0
  5  4  1  0
  5  6  1  6
  7  8  2  0
  7  5  1  0
 10 12  1  0
 10  9  1  1
 11 10  1  0
 12 13  1  1
 13  7  1  0
 14 12  1  0
 15 14  2  0
 17 16  1  6
 17 19  1  0
 18 17  1  0
 19 21  1  0
 19 20  1  6
 20 14  1  0
 21 22  1  0
 23 21  2  0
M  END
$$$$
