MTV.pdb
     RDKit          3D

 23 22  0  0  1  0  0  0  0  0999 V2000
   29.1349  -20.6135   -4.7019 C   0  0  0  0  0  0  0  0  0  0  0  0
   28.0571  -19.1997   -4.8538 S   0  0  0  0  0  0  0  0  0  0  0  0
   26.6133  -19.4186   -5.8679 C   0  0  0  0  0  0  0  0  0  0  0  0
   26.9237  -19.7495   -7.2817 C   0  0  0  0  0  0  0  0  0  0  0  0
   25.7570  -19.9125   -8.1928 C   0  0  2  0  0  0  0  0  0  0  0  0
   25.0044  -21.0919   -7.8018 N   0  0  0  0  0  0  0  0  0  0  0  0
   26.3096  -20.1337   -9.5787 C   0  0  0  0  0  0  0  0  0  0  0  0
   27.2530  -20.9575   -9.7588 O   0  0  0  0  0  0  0  0  0  0  0  0
   26.5596  -22.2213  -11.2795 C   0  0  0  0  0  0  0  0  0  0  0  0
   25.9475  -21.2720  -12.2367 C   0  0  1  0  0  0  0  0  0  0  0  0
   24.5457  -21.3399  -12.0275 O   0  0  0  0  0  0  0  0  0  0  0  0
   26.3021  -19.8188  -12.0490 C   0  0  2  0  0  0  0  0  0  0  0  0
   25.8078  -19.4440  -10.7096 N   0  0  0  0  0  0  0  0  0  0  0  0
   25.6668  -18.9001  -12.9983 C   0  0  0  0  0  0  0  0  0  0  0  0
   24.5404  -18.4067  -12.7599 O   0  0  0  0  0  0  0  0  0  0  0  0
   27.5568  -17.7876  -16.7956 C   0  0  0  0  0  0  0  0  0  0  0  0
   26.7833  -16.8664  -15.9140 C   0  0  2  0  0  0  0  0  0  0  0  0
   27.7406  -16.1155  -14.9830 C   0  0  0  0  0  0  0  0  0  0  0  0
   25.7523  -17.5652  -15.0627 C   0  0  2  0  0  0  0  0  0  0  0  0
   26.3297  -18.5613  -14.2004 N   0  0  0  0  0  0  0  0  0  0  0  0
   24.7218  -18.1942  -15.9183 C   0  0  0  0  0  0  0  0  0  0  0  0
   23.6890  -17.4500  -16.4769 O   0  0  0  0  0  0  0  0  0  0  0  0
   24.7522  -19.4288  -16.1657 O   0  0  0  0  0  0  0  0  0  0  0  0
  2  1  1  0
  3  4  1  0
  3  2  1  0
  5  4  1  0
  5  6  1  1
  7  8  2  0
  7  5  1  0
 10 12  1  0
 10  9  1  1
 11 10  1  0
 12 13  1  1
 13  7  1  0
 14 12  1  0
 15 14  2  0
 17 16  1  1
 17 19  1  0
 18 17  1  0
 19 21  1  0
 19 20  1  6
 20 14  1  0
 21 22  1  0
 23 21  2  0
M  END
$$$$
