MTV.pdb
     RDKit          3D

 23 22  0  0  1  0  0  0  0  0999 V2000
   32.8321  -23.2332  -11.2414 C   0  0  0  0  0  0  0  0  0  0  0  0
   33.3185  -23.4815  -12.9400 S   0  0  0  0  0  0  0  0  0  0  0  0
   32.0778  -23.1467  -14.1688 C   0  0  0  0  0  0  0  0  0  0  0  0
   31.0494  -22.1717  -13.7257 C   0  0  0  0  0  0  0  0  0  0  0  0
   29.8743  -21.9981  -14.6240 C   0  0  2  0  0  0  0  0  0  0  0  0
   30.3157  -21.4321  -15.8870 N   0  0  0  0  0  0  0  0  0  0  0  0
   28.9506  -21.0123  -13.9533 C   0  0  0  0  0  0  0  0  0  0  0  0
   28.8962  -19.8168  -14.3643 O   0  0  0  0  0  0  0  0  0  0  0  0
   26.7334  -19.5599  -14.6615 C   0  0  0  0  0  0  0  0  0  0  0  0
   26.1903  -20.0825  -13.3872 C   0  0  1  0  0  0  0  0  0  0  0  0
   25.6027  -21.3387  -13.6873 O   0  0  0  0  0  0  0  0  0  0  0  0
   27.1986  -20.3700  -12.3041 C   0  0  2  0  0  0  0  0  0  0  0  0
   28.1255  -21.3751  -12.8606 N   0  0  0  0  0  0  0  0  0  0  0  0
   26.6413  -20.9519  -11.0795 C   0  0  0  0  0  0  0  0  0  0  0  0
   26.4231  -22.1823  -10.9938 O   0  0  0  0  0  0  0  0  0  0  0  0
   25.8903  -18.4883   -7.5837 C   0  0  0  0  0  0  0  0  0  0  0  0
   26.3279  -19.9131   -7.5324 C   0  0  2  0  0  0  0  0  0  0  0  0
   27.8535  -19.9819   -7.4106 C   0  0  0  0  0  0  0  0  0  0  0  0
   25.9165  -20.7175   -8.7406 C   0  0  2  0  0  0  0  0  0  0  0  0
   26.3452  -20.1187   -9.9762 N   0  0  0  0  0  0  0  0  0  0  0  0
   24.4474  -20.8932   -8.7638 C   0  0  0  0  0  0  0  0  0  0  0  0
   23.8148  -21.8247   -7.9485 O   0  0  0  0  0  0  0  0  0  0  0  0
   23.7251  -20.1993   -9.5275 O   0  0  0  0  0  0  0  0  0  0  0  0
  2  1  1  0
  3  4  1  0
  3  2  1  0
  5  4  1  0
  5  6  1  6
  7  8  2  0
  7  5  1  0
 10 12  1  0
 10  9  1  6
 11 10  1  0
 12 13  1  6
 13  7  1  0
 14 12  1  0
 15 14  2  0
 17 16  1  6
 17 19  1  0
 18 17  1  0
 19 21  1  0
 19 20  1  6
 20 14  1  0
 21 22  1  0
 23 21  2  0
M  END
$$$$
