MTV.pdb
     RDKit          3D

 23 22  0  0  1  0  0  0  0  0999 V2000
   12.6137  -13.4560  -15.5111 C   0  0  0  0  0  0  0  0  0  0  0  0
   13.6085  -12.6655  -14.2586 S   0  0  0  0  0  0  0  0  0  0  0  0
   15.0392  -11.7811  -14.8349 C   0  0  0  0  0  0  0  0  0  0  0  0
   15.7688  -11.0639  -13.7588 C   0  0  0  0  0  0  0  0  0  0  0  0
   16.9590  -10.2746  -14.1813 C   0  0  2  0  0  0  0  0  0  0  0  0
   18.0502  -11.1817  -14.4920 N   0  0  0  0  0  0  0  0  0  0  0  0
   17.3628   -9.4241  -13.0029 C   0  0  0  0  0  0  0  0  0  0  0  0
   18.5173   -9.5481  -12.5002 O   0  0  0  0  0  0  0  0  0  0  0  0
   17.4575   -5.9255  -13.4036 C   0  0  0  0  0  0  0  0  0  0  0  0
   18.0067   -6.6449  -12.2318 C   0  0  1  0  0  0  0  0  0  0  0  0
   18.4335   -5.6499  -11.3147 O   0  0  0  0  0  0  0  0  0  0  0  0
   17.0322   -7.4976  -11.4599 C   0  0  2  0  0  0  0  0  0  0  0  0
   16.4866   -8.4741  -12.4230 N   0  0  0  0  0  0  0  0  0  0  0  0
   15.8836   -6.7752  -10.9052 C   0  0  0  0  0  0  0  0  0  0  0  0
   14.9810   -6.3320  -11.6520 O   0  0  0  0  0  0  0  0  0  0  0  0
   12.8720   -6.0882   -7.1430 C   0  0  0  0  0  0  0  0  0  0  0  0
   14.0560   -6.7348   -7.7787 C   0  0  2  0  0  0  0  0  0  0  0  0
   15.1838   -6.8739   -6.7513 C   0  0  0  0  0  0  0  0  0  0  0  0
   14.5946   -5.9781   -8.9676 C   0  0  2  0  0  0  0  0  0  0  0  0
   15.7867   -6.5740   -9.5090 N   0  0  0  0  0  0  0  0  0  0  0  0
   14.8724   -4.5725   -8.5979 C   0  0  0  0  0  0  0  0  0  0  0  0
   16.1685   -4.1245   -8.3698 O   0  0  0  0  0  0  0  0  0  0  0  0
   13.9365   -3.7380   -8.4790 O   0  0  0  0  0  0  0  0  0  0  0  0
  2  1  1  0
  3  4  1  0
  3  2  1  0
  5  4  1  0
  5  6  1  1
  7  8  2  0
  7  5  1  0
 10 12  1  0
 10  9  1  6
 11 10  1  0
 12 13  1  6
 13  7  1  0
 14 12  1  0
 15 14  2  0
 17 16  1  1
 17 19  1  0
 18 17  1  0
 19 21  1  0
 19 20  1  1
 20 14  1  0
 21 22  1  0
 23 21  2  0
M  END
$$$$
