MTV.pdb
     RDKit          3D

 23 22  0  0  1  0  0  0  0  0999 V2000
   27.3983  -19.6278   -4.3283 C   0  0  0  0  0  0  0  0  0  0  0  0
   28.6475  -19.6108   -5.6023 S   0  0  0  0  0  0  0  0  0  0  0  0
   28.4536  -20.8021   -6.9077 C   0  0  0  0  0  0  0  0  0  0  0  0
   27.5688  -20.3412   -8.0074 C   0  0  0  0  0  0  0  0  0  0  0  0
   27.3499  -21.3012   -9.1247 C   0  0  2  0  0  0  0  0  0  0  0  0
   28.6296  -21.6424   -9.7214 N   0  0  0  0  0  0  0  0  0  0  0  0
   26.5133  -20.5891  -10.1581 C   0  0  0  0  0  0  0  0  0  0  0  0
   27.0179  -19.6532  -10.8440 O   0  0  0  0  0  0  0  0  0  0  0  0
   26.4228  -21.4228  -13.0021 C   0  0  0  0  0  0  0  0  0  0  0  0
   24.9677  -21.3933  -12.7301 C   0  0  1  0  0  0  0  0  0  0  0  0
   24.6194  -22.6902  -12.2719 O   0  0  0  0  0  0  0  0  0  0  0  0
   24.5152  -20.4571  -11.6386 C   0  0  2  0  0  0  0  0  0  0  0  0
   25.1593  -20.9297  -10.3975 N   0  0  0  0  0  0  0  0  0  0  0  0
   23.0717  -20.4571  -11.3835 C   0  0  0  0  0  0  0  0  0  0  0  0
   22.6051  -20.9468  -10.3293 O   0  0  0  0  0  0  0  0  0  0  0  0
   20.2544  -18.7277  -14.2284 C   0  0  0  0  0  0  0  0  0  0  0  0
   20.0904  -18.6964  -12.7465 C   0  0  2  0  0  0  0  0  0  0  0  0
   20.6425  -17.3793  -12.1922 C   0  0  0  0  0  0  0  0  0  0  0  0
   20.7837  -19.8324  -12.0357 C   0  0  2  0  0  0  0  0  0  0  0  0
   22.1890  -19.8972  -12.3356 N   0  0  0  0  0  0  0  0  0  0  0  0
   20.1468  -21.1213  -12.3858 C   0  0  0  0  0  0  0  0  0  0  0  0
   20.7815  -22.0449  -13.2083 O   0  0  0  0  0  0  0  0  0  0  0  0
   19.0048  -21.4190  -11.9454 O   0  0  0  0  0  0  0  0  0  0  0  0
  2  1  1  0
  3  4  1  0
  3  2  1  0
  5  4  1  0
  5  6  1  6
  7  8  2  0
  7  5  1  0
 10 12  1  0
 10  9  1  1
 11 10  1  0
 12 13  1  1
 13  7  1  0
 14 12  1  0
 15 14  2  0
 17 16  1  6
 17 19  1  0
 18 17  1  0
 19 21  1  0
 19 20  1  6
 20 14  1  0
 21 22  1  0
 23 21  2  0
M  END
$$$$
