DMF.pdb
     RDKit          3D

 28 28  0  0  1  0  0  0  0  0999 V2000
   11.0979  -15.9249   19.8693 N   0  0  0  0  0  0  0  0  0  0  0  0
    9.9865  -16.5962   20.5082 C   0  0  1  0  0  0  0  0  0  0  0  0
   10.1554  -18.0931   20.3967 C   0  0  0  0  0  0  0  0  0  0  0  0
    9.8665  -18.5533   19.0140 C   0  0  0  0  0  0  0  0  0  0  0  0
   10.7948  -19.0382   18.3249 O   0  0  0  0  0  0  0  0  0  0  0  0
    9.8953  -16.1438   21.9087 C   0  0  0  0  0  0  0  0  0  0  0  0
   10.9596  -15.9484   22.5910 O   0  0  0  0  0  0  0  0  0  0  0  0
    8.6172  -18.4745   18.4418 O   0  0  0  0  0  0  0  0  0  0  0  0
    6.4753  -11.3688   25.9867 C   0  0  0  0  0  0  0  0  0  0  0  0
    5.9010  -13.0639   25.8866 S   0  0  0  0  0  0  0  0  0  0  0  0
    7.2695  -14.2455   25.6505 C   0  0  0  0  0  0  0  0  0  0  0  0
    7.4786  -14.5626   24.2057 C   0  0  0  0  0  0  0  0  0  0  0  0
    8.6417  -15.4943   24.0198 C   0  0  2  0  0  0  0  0  0  0  0  0
    8.6760  -15.9000   22.5822 N   0  0  0  0  0  0  0  0  0  0  0  0
    8.6625  -16.6826   24.8582 C   0  0  0  0  0  0  0  0  0  0  0  0
    8.2481  -17.7845   24.3451 O   0  0  0  0  0  0  0  0  0  0  0  0
    9.1052  -16.7308   26.1903 N   0  0  0  0  0  0  0  0  0  0  0  0
    9.2516  -17.9831   26.9320 C   0  0  1  0  0  0  0  0  0  0  0  0
    9.8217  -17.7169   28.3003 C   0  0  0  0  0  0  0  0  0  0  0  0
   10.1902  -16.2975   28.4743 C   0  0  0  0  0  0  0  0  0  0  0  0
   11.4856  -15.8285   28.2613 C   0  0  0  0  0  0  0  0  0  0  0  0
   11.7942  -14.5018   28.4326 C   0  0  0  0  0  0  0  0  0  0  0  0
   10.8338  -13.5791   28.8226 C   0  0  0  0  0  0  0  0  0  0  0  0
    9.5415  -14.0130   29.0413 C   0  0  0  0  0  0  0  0  0  0  0  0
    9.2512  -15.3409   28.8656 C   0  0  0  0  0  0  0  0  0  0  0  0
    8.0058  -18.7473   26.9580 C   0  0  0  0  0  0  0  0  0  0  0  0
    7.9183  -20.0566   27.4268 O   0  0  0  0  0  0  0  0  0  0  0  0
    6.9490  -18.2133   26.5402 O   0  0  0  0  0  0  0  0  0  0  0  0
  2  1  1  1
  2  3  1  0
  3  4  1  0
  4  5  2  0
  4  8  1  0
  6 14  1  0
  6  2  1  0
  7  6  2  0
  9 10  1  0
 10 11  1  0
 12 11  1  0
 13 12  1  6
 13 14  1  0
 15 17  1  0
 15 13  1  0
 16 15  2  0
 18 17  1  0
 18 26  1  0
 19 20  1  0
 18 19  1  1
 20 25  2  0
 21 20  1  0
 21 22  2  0
 22 23  1  0
 23 24  2  0
 25 24  1  0
 26 27  1  0
 28 26  2  0
M  END
$$$$
