DMF.pdb
     RDKit          3D

 28 28  0  0  1  0  0  0  0  0999 V2000
    8.7525  -18.9202   20.7934 N   0  0  0  0  0  0  0  0  0  0  0  0
    9.9900  -18.2165   20.5340 C   0  0  1  0  0  0  0  0  0  0  0  0
   10.2113  -18.0945   19.0447 C   0  0  0  0  0  0  0  0  0  0  0  0
   10.2884  -19.4368   18.4129 C   0  0  0  0  0  0  0  0  0  0  0  0
   10.7359  -20.4006   19.0783 O   0  0  0  0  0  0  0  0  0  0  0  0
    9.9436  -16.9039   21.2045 C   0  0  0  0  0  0  0  0  0  0  0  0
   11.0188  -16.2329   21.3777 O   0  0  0  0  0  0  0  0  0  0  0  0
    9.8892  -19.6818   17.1187 O   0  0  0  0  0  0  0  0  0  0  0  0
    8.1438  -11.6897   20.0145 C   0  0  0  0  0  0  0  0  0  0  0  0
    8.1160  -13.3701   19.3912 S   0  0  0  0  0  0  0  0  0  0  0  0
    7.1494  -14.4885   20.4588 C   0  0  0  0  0  0  0  0  0  0  0  0
    7.4609  -14.2739   21.9040 C   0  0  0  0  0  0  0  0  0  0  0  0
    8.7555  -14.9347   22.2817 C   0  0  2  0  0  0  0  0  0  0  0  0
    8.7573  -16.3066   21.6898 N   0  0  0  0  0  0  0  0  0  0  0  0
    9.0502  -15.0210   23.7034 C   0  0  0  0  0  0  0  0  0  0  0  0
    9.4910  -13.9661   24.2883 O   0  0  0  0  0  0  0  0  0  0  0  0
    8.8881  -16.1664   24.4999 N   0  0  0  0  0  0  0  0  0  0  0  0
    9.1979  -16.1881   25.9293 C   0  0  1  0  0  0  0  0  0  0  0  0
    7.9531  -15.9341   26.7381 C   0  0  0  0  0  0  0  0  0  0  0  0
    7.5588  -14.5114   26.7056 C   0  0  0  0  0  0  0  0  0  0  0  0
    6.2725  -14.0984   26.3620 C   0  0  0  0  0  0  0  0  0  0  0  0
    5.9394  -12.7666   26.3415 C   0  0  0  0  0  0  0  0  0  0  0  0
    6.8653  -11.7833   26.6604 C   0  0  0  0  0  0  0  0  0  0  0  0
    8.1479  -12.1609   27.0049 C   0  0  0  0  0  0  0  0  0  0  0  0
    8.4629  -13.4946   27.0202 C   0  0  0  0  0  0  0  0  0  0  0  0
    9.9037  -17.4093   26.3133 C   0  0  0  0  0  0  0  0  0  0  0  0
   10.4595  -17.6099   27.5752 O   0  0  0  0  0  0  0  0  0  0  0  0
   10.0255  -18.3371   25.4760 O   0  0  0  0  0  0  0  0  0  0  0  0
  2  1  1  6
  2  3  1  0
  3  4  1  0
  4  5  2  0
  4  8  1  0
  6 14  1  0
  6  2  1  0
  7  6  2  0
  9 10  1  0
 10 11  1  0
 12 11  1  0
 13 12  1  1
 13 14  1  0
 15 17  1  0
 15 13  1  0
 16 15  2  0
 18 17  1  0
 18 26  1  0
 19 20  1  0
 18 19  1  1
 20 25  2  0
 21 20  1  0
 21 22  2  0
 22 23  1  0
 23 24  2  0
 25 24  1  0
 26 27  1  0
 28 26  2  0
M  END
$$$$
