DMF.pdb
     RDKit          3D

 28 28  0  0  1  0  0  0  0  0999 V2000
    9.8418  -18.5134   19.3187 N   0  0  0  0  0  0  0  0  0  0  0  0
   11.0813  -18.1157   19.9509 C   0  0  1  0  0  0  0  0  0  0  0  0
   12.0922  -17.7207   18.9004 C   0  0  0  0  0  0  0  0  0  0  0  0
   12.3510  -18.8490   17.9692 C   0  0  0  0  0  0  0  0  0  0  0  0
   12.2743  -20.0248   18.3977 O   0  0  0  0  0  0  0  0  0  0  0  0
   10.8040  -17.0238   20.9025 C   0  0  0  0  0  0  0  0  0  0  0  0
   11.7654  -16.4580   21.5285 O   0  0  0  0  0  0  0  0  0  0  0  0
   12.6748  -18.6697   16.6436 O   0  0  0  0  0  0  0  0  0  0  0  0
    5.9698  -13.2592   19.5499 C   0  0  0  0  0  0  0  0  0  0  0  0
    7.6309  -12.5856   19.5588 S   0  0  0  0  0  0  0  0  0  0  0  0
    8.8412  -13.7379   20.2883 C   0  0  0  0  0  0  0  0  0  0  0  0
    8.2651  -14.4752   21.4529 C   0  0  0  0  0  0  0  0  0  0  0  0
    9.2930  -15.3646   22.0915 C   0  0  2  0  0  0  0  0  0  0  0  0
    9.5082  -16.5350   21.1880 N   0  0  0  0  0  0  0  0  0  0  0  0
    8.9976  -15.8384   23.4345 C   0  0  0  0  0  0  0  0  0  0  0  0
    8.1591  -16.8033   23.5579 O   0  0  0  0  0  0  0  0  0  0  0  0
    9.5586  -15.3311   24.6180 N   0  0  0  0  0  0  0  0  0  0  0  0
    9.0619  -15.6876   25.9469 C   0  0  1  0  0  0  0  0  0  0  0  0
    7.5967  -15.3589   26.0630 C   0  0  0  0  0  0  0  0  0  0  0  0
    7.3641  -13.9015   26.1151 C   0  0  0  0  0  0  0  0  0  0  0  0
    8.3408  -13.0019   26.5394 C   0  0  0  0  0  0  0  0  0  0  0  0
    8.0910  -11.6524   26.5759 C   0  0  0  0  0  0  0  0  0  0  0  0
    6.8623  -11.1325   26.1938 C   0  0  0  0  0  0  0  0  0  0  0  0
    5.8744  -11.9983   25.7687 C   0  0  0  0  0  0  0  0  0  0  0  0
    6.1412  -13.3423   25.7386 C   0  0  0  0  0  0  0  0  0  0  0  0
    9.3777  -17.0728   26.2908 C   0  0  0  0  0  0  0  0  0  0  0  0
   10.0624  -17.9379   25.4396 O   0  0  0  0  0  0  0  0  0  0  0  0
    9.0217  -17.5248   27.4069 O   0  0  0  0  0  0  0  0  0  0  0  0
  2  1  1  6
  2  3  1  0
  3  4  1  0
  4  5  2  0
  4  8  1  0
  6 14  1  0
  6  2  1  0
  7  6  2  0
  9 10  1  0
 10 11  1  0
 12 11  1  0
 13 12  1  6
 13 14  1  0
 15 17  1  0
 15 13  1  0
 16 15  2  0
 18 17  1  0
 18 26  1  0
 19 20  1  0
 18 19  1  6
 20 25  2  0
 21 20  1  0
 21 22  2  0
 22 23  1  0
 23 24  2  0
 25 24  1  0
 26 27  1  0
 28 26  2  0
M  END
$$$$
