DMF.pdb
     RDKit          3D

 28 28  0  0  1  0  0  0  0  0999 V2000
   10.1078  -16.1194   18.8959 N   0  0  0  0  0  0  0  0  0  0  0  0
   10.1447  -17.1700   19.8903 C   0  0  1  0  0  0  0  0  0  0  0  0
   11.3209  -18.0822   19.6330 C   0  0  0  0  0  0  0  0  0  0  0  0
   11.1227  -18.8547   18.3795 C   0  0  0  0  0  0  0  0  0  0  0  0
   10.1941  -18.5303   17.6021 O   0  0  0  0  0  0  0  0  0  0  0  0
   10.1911  -16.5581   21.2312 C   0  0  0  0  0  0  0  0  0  0  0  0
   11.3128  -16.3939   21.8237 O   0  0  0  0  0  0  0  0  0  0  0  0
   11.9151  -19.9217   18.0216 O   0  0  0  0  0  0  0  0  0  0  0  0
    6.7835  -11.5719   26.3055 C   0  0  0  0  0  0  0  0  0  0  0  0
    6.5967  -12.6912   24.9179 S   0  0  0  0  0  0  0  0  0  0  0  0
    8.0465  -13.7759   24.7035 C   0  0  0  0  0  0  0  0  0  0  0  0
    7.9478  -14.5839   23.4508 C   0  0  0  0  0  0  0  0  0  0  0  0
    9.1589  -15.4538   23.2720 C   0  0  2  0  0  0  0  0  0  0  0  0
    9.0479  -16.1222   21.9403 N   0  0  0  0  0  0  0  0  0  0  0  0
    9.3954  -16.4568   24.2984 C   0  0  0  0  0  0  0  0  0  0  0  0
    8.7603  -17.5692   24.2057 O   0  0  0  0  0  0  0  0  0  0  0  0
   10.2695  -16.3150   25.3886 N   0  0  0  0  0  0  0  0  0  0  0  0
   10.5383  -17.3976   26.3349 C   0  0  1  0  0  0  0  0  0  0  0  0
    9.7044  -17.2255   27.5771 C   0  0  0  0  0  0  0  0  0  0  0  0
    9.7631  -15.8418   28.0897 C   0  0  0  0  0  0  0  0  0  0  0  0
    8.7486  -14.9140   27.8589 C   0  0  0  0  0  0  0  0  0  0  0  0
    8.8353  -13.6348   28.3501 C   0  0  0  0  0  0  0  0  0  0  0  0
    9.9308  -13.2165   29.0921 C   0  0  0  0  0  0  0  0  0  0  0  0
   10.9520  -14.1125   29.3377 C   0  0  0  0  0  0  0  0  0  0  0  0
   10.8489  -15.3853   28.8398 C   0  0  0  0  0  0  0  0  0  0  0  0
   10.3922  -18.7119   25.7120 C   0  0  0  0  0  0  0  0  0  0  0  0
   11.3520  -19.7175   25.8076 O   0  0  0  0  0  0  0  0  0  0  0  0
    9.3547  -18.9667   25.0523 O   0  0  0  0  0  0  0  0  0  0  0  0
  2  1  1  6
  2  3  1  0
  3  4  1  0
  4  5  2  0
  4  8  1  0
  6 14  1  0
  6  2  1  0
  7  6  2  0
  9 10  1  0
 10 11  1  0
 12 11  1  0
 13 12  1  1
 13 14  1  0
 15 17  1  0
 15 13  1  0
 16 15  2  0
 18 17  1  0
 18 26  1  0
 19 20  1  0
 18 19  1  1
 20 25  2  0
 21 20  1  0
 21 22  2  0
 22 23  1  0
 23 24  2  0
 25 24  1  0
 26 27  1  0
 28 26  2  0
M  END
$$$$
