DMF.pdb
     RDKit          3D

 28 28  0  0  1  0  0  0  0  0999 V2000
    4.8926  -19.7007   19.0941 N   0  0  0  0  0  0  0  0  0  0  0  0
    6.1812  -19.1340   19.4298 C   0  0  1  0  0  0  0  0  0  0  0  0
    6.5135  -18.0092   18.4779 C   0  0  0  0  0  0  0  0  0  0  0  0
    7.0118  -18.5447   17.1848 C   0  0  0  0  0  0  0  0  0  0  0  0
    7.0855  -19.7861   17.0251 O   0  0  0  0  0  0  0  0  0  0  0  0
    6.1574  -18.6913   20.8362 C   0  0  0  0  0  0  0  0  0  0  0  0
    5.3307  -17.7904   21.2119 O   0  0  0  0  0  0  0  0  0  0  0  0
    7.4020  -17.7396   16.1389 O   0  0  0  0  0  0  0  0  0  0  0  0
    9.0458  -21.6871   25.9542 C   0  0  0  0  0  0  0  0  0  0  0  0
    8.3592  -20.1790   26.6380 S   0  0  0  0  0  0  0  0  0  0  0  0
    7.0392  -19.4824   25.5906 C   0  0  0  0  0  0  0  0  0  0  0  0
    7.2112  -19.8713   24.1585 C   0  0  0  0  0  0  0  0  0  0  0  0
    6.9548  -18.7053   23.2474 C   0  0  2  0  0  0  0  0  0  0  0  0
    7.0104  -19.2049   21.8403 N   0  0  0  0  0  0  0  0  0  0  0  0
    7.8426  -17.5621   23.3900 C   0  0  0  0  0  0  0  0  0  0  0  0
    8.1400  -16.8994   22.3309 O   0  0  0  0  0  0  0  0  0  0  0  0
    8.4035  -17.1131   24.5969 N   0  0  0  0  0  0  0  0  0  0  0  0
    8.4002  -15.7062   24.9974 C   0  0  1  0  0  0  0  0  0  0  0  0
    7.0283  -15.1130   24.8122 C   0  0  0  0  0  0  0  0  0  0  0  0
    6.9500  -13.7365   25.3412 C   0  0  0  0  0  0  0  0  0  0  0  0
    7.8588  -12.7428   24.9807 C   0  0  0  0  0  0  0  0  0  0  0  0
    7.7572  -11.4726   25.4919 C   0  0  0  0  0  0  0  0  0  0  0  0
    6.7508  -11.1290   26.3835 C   0  0  0  0  0  0  0  0  0  0  0  0
    5.8353  -12.0915   26.7599 C   0  0  0  0  0  0  0  0  0  0  0  0
    5.9518  -13.3542   26.2398 C   0  0  0  0  0  0  0  0  0  0  0  0
    8.9372  -15.5241   26.3448 C   0  0  0  0  0  0  0  0  0  0  0  0
    8.3380  -16.0507   27.4873 O   0  0  0  0  0  0  0  0  0  0  0  0
    9.9924  -14.8617   26.5008 O   0  0  0  0  0  0  0  0  0  0  0  0
  2  1  1  6
  2  3  1  0
  3  4  1  0
  4  5  2  0
  4  8  1  0
  6 14  1  0
  6  2  1  0
  7  6  2  0
  9 10  1  0
 10 11  1  0
 12 11  1  0
 13 12  1  1
 13 14  1  0
 15 17  1  0
 15 13  1  0
 16 15  2  0
 18 17  1  0
 18 26  1  0
 19 20  1  0
 18 19  1  1
 20 25  2  0
 21 20  1  0
 21 22  2  0
 22 23  1  0
 23 24  2  0
 25 24  1  0
 26 27  1  0
 28 26  2  0
M  END
$$$$
