DMF.pdb
     RDKit          3D

 28 28  0  0  1  0  0  0  0  0999 V2000
    9.3467  -17.6685   19.5682 N   0  0  0  0  0  0  0  0  0  0  0  0
   10.5313  -17.3200   20.3228 C   0  0  1  0  0  0  0  0  0  0  0  0
   11.5500  -16.6737   19.4137 C   0  0  0  0  0  0  0  0  0  0  0  0
   12.7388  -17.5495   19.2496 C   0  0  0  0  0  0  0  0  0  0  0  0
   12.6037  -18.7907   19.3631 O   0  0  0  0  0  0  0  0  0  0  0  0
   10.1438  -16.4447   21.4444 C   0  0  0  0  0  0  0  0  0  0  0  0
    9.8107  -15.2293   21.2251 O   0  0  0  0  0  0  0  0  0  0  0  0
   13.9972  -17.0639   18.9758 O   0  0  0  0  0  0  0  0  0  0  0  0
    6.1052  -12.6213   24.5879 C   0  0  0  0  0  0  0  0  0  0  0  0
    7.4946  -13.7325   24.8076 S   0  0  0  0  0  0  0  0  0  0  0  0
    7.0502  -15.4699   24.4779 C   0  0  0  0  0  0  0  0  0  0  0  0
    7.9092  -16.0636   23.4095 C   0  0  0  0  0  0  0  0  0  0  0  0
    9.3499  -16.0989   23.8319 C   0  0  2  0  0  0  0  0  0  0  0  0
   10.1106  -16.8604   22.7957 N   0  0  0  0  0  0  0  0  0  0  0  0
    9.6281  -16.6590   25.1450 C   0  0  0  0  0  0  0  0  0  0  0  0
    8.6505  -17.1848   25.7908 O   0  0  0  0  0  0  0  0  0  0  0  0
   10.8852  -16.6793   25.7712 N   0  0  0  0  0  0  0  0  0  0  0  0
   11.1224  -17.3465   27.0512 C   0  0  1  0  0  0  0  0  0  0  0  0
   10.1854  -16.8108   28.1017 C   0  0  0  0  0  0  0  0  0  0  0  0
   10.3263  -15.3504   28.2687 C   0  0  0  0  0  0  0  0  0  0  0  0
   11.5222  -14.7537   28.6651 C   0  0  0  0  0  0  0  0  0  0  0  0
   11.6185  -13.3920   28.8112 C   0  0  0  0  0  0  0  0  0  0  0  0
   10.5346  -12.5593   28.5713 C   0  0  0  0  0  0  0  0  0  0  0  0
    9.3362  -13.1203   28.1773 C   0  0  0  0  0  0  0  0  0  0  0  0
    9.2580  -14.4814   28.0365 C   0  0  0  0  0  0  0  0  0  0  0  0
   11.0811  -18.8019   26.9206 C   0  0  0  0  0  0  0  0  0  0  0  0
   11.3481  -19.6747   27.9735 O   0  0  0  0  0  0  0  0  0  0  0  0
   10.7919  -19.3107   25.8098 O   0  0  0  0  0  0  0  0  0  0  0  0
  2  1  1  6
  2  3  1  0
  3  4  1  0
  4  5  2  0
  4  8  1  0
  6 14  1  0
  6  2  1  0
  7  6  2  0
  9 10  1  0
 10 11  1  0
 12 11  1  0
 13 12  1  6
 13 14  1  0
 15 17  1  0
 15 13  1  0
 16 15  2  0
 18 17  1  0
 18 26  1  0
 19 20  1  0
 18 19  1  1
 20 25  2  0
 21 20  1  0
 21 22  2  0
 22 23  1  0
 23 24  2  0
 25 24  1  0
 26 27  1  0
 28 26  2  0
M  END
$$$$
