DMF.pdb
     RDKit          3D

 28 28  0  0  1  0  0  0  0  0999 V2000
   11.2545  -18.1250   19.3093 N   0  0  0  0  0  0  0  0  0  0  0  0
   12.1921  -17.3667   20.1093 C   0  0  1  0  0  0  0  0  0  0  0  0
   13.1002  -16.5592   19.2121 C   0  0  0  0  0  0  0  0  0  0  0  0
   14.1236  -17.4302   18.5788 C   0  0  0  0  0  0  0  0  0  0  0  0
   14.2009  -18.6329   18.9243 O   0  0  0  0  0  0  0  0  0  0  0  0
   11.4399  -16.5213   21.0548 C   0  0  0  0  0  0  0  0  0  0  0  0
   12.0635  -15.7509   21.8636 O   0  0  0  0  0  0  0  0  0  0  0  0
   15.0029  -16.9809   17.6200 O   0  0  0  0  0  0  0  0  0  0  0  0
    7.0785  -12.3210   18.3227 C   0  0  0  0  0  0  0  0  0  0  0  0
    6.7902  -13.6247   19.5187 S   0  0  0  0  0  0  0  0  0  0  0  0
    8.3197  -14.1320   20.3719 C   0  0  0  0  0  0  0  0  0  0  0  0
    8.0450  -15.1408   21.4390 C   0  0  0  0  0  0  0  0  0  0  0  0
    9.3176  -15.5928   22.0959 C   0  0  2  0  0  0  0  0  0  0  0  0
   10.0286  -16.4951   21.1405 N   0  0  0  0  0  0  0  0  0  0  0  0
    9.1837  -16.2591   23.3818 C   0  0  0  0  0  0  0  0  0  0  0  0
    9.5495  -17.4877   23.4602 O   0  0  0  0  0  0  0  0  0  0  0  0
    8.6895  -15.6687   24.5565 N   0  0  0  0  0  0  0  0  0  0  0  0
    8.9511  -16.2142   25.8883 C   0  0  1  0  0  0  0  0  0  0  0  0
    9.3384  -15.1116   26.8382 C   0  0  0  0  0  0  0  0  0  0  0  0
    8.3153  -14.0481   26.8905 C   0  0  0  0  0  0  0  0  0  0  0  0
    7.9130  -13.4538   28.0856 C   0  0  0  0  0  0  0  0  0  0  0  0
    6.9583  -12.4673   28.0984 C   0  0  0  0  0  0  0  0  0  0  0  0
    6.3584  -12.0246   26.9279 C   0  0  0  0  0  0  0  0  0  0  0  0
    6.7357  -12.5938   25.7279 C   0  0  0  0  0  0  0  0  0  0  0  0
    7.6903  -13.5773   25.7338 C   0  0  0  0  0  0  0  0  0  0  0  0
    7.8390  -17.0329   26.3676 C   0  0  0  0  0  0  0  0  0  0  0  0
    6.6472  -17.1960   25.6643 O   0  0  0  0  0  0  0  0  0  0  0  0
    7.9444  -17.6279   27.4683 O   0  0  0  0  0  0  0  0  0  0  0  0
  2  1  1  6
  2  3  1  0
  3  4  1  0
  4  5  2  0
  4  8  1  0
  6 14  1  0
  6  2  1  0
  7  6  2  0
  9 10  1  0
 10 11  1  0
 12 11  1  0
 13 12  1  6
 13 14  1  0
 15 17  1  0
 15 13  1  0
 16 15  2  0
 18 17  1  0
 18 26  1  0
 19 20  1  0
 18 19  1  1
 20 25  2  0
 21 20  1  0
 21 22  2  0
 22 23  1  0
 23 24  2  0
 25 24  1  0
 26 27  1  0
 28 26  2  0
M  END
$$$$
