DMF.pdb
     RDKit          3D

 28 28  0  0  1  0  0  0  0  0999 V2000
    8.1778  -19.0666   20.8662 N   0  0  0  0  0  0  0  0  0  0  0  0
    9.5369  -18.7761   20.4631 C   0  0  1  0  0  0  0  0  0  0  0  0
    9.6420  -18.7910   18.9563 C   0  0  0  0  0  0  0  0  0  0  0  0
    9.3664  -20.1501   18.4234 C   0  0  0  0  0  0  0  0  0  0  0  0
   10.0609  -21.1150   18.8217 O   0  0  0  0  0  0  0  0  0  0  0  0
    9.9412  -17.4813   21.0417 C   0  0  0  0  0  0  0  0  0  0  0  0
   11.1439  -17.0663   20.9092 O   0  0  0  0  0  0  0  0  0  0  0  0
    8.3760  -20.4097   17.5036 O   0  0  0  0  0  0  0  0  0  0  0  0
    7.5104  -12.0500   19.7381 C   0  0  0  0  0  0  0  0  0  0  0  0
    6.5374  -13.4824   20.2012 S   0  0  0  0  0  0  0  0  0  0  0  0
    7.5553  -14.7991   20.9464 C   0  0  0  0  0  0  0  0  0  0  0  0
    8.7179  -14.2364   21.6971 C   0  0  0  0  0  0  0  0  0  0  0  0
    9.5345  -15.3286   22.3262 C   0  0  2  0  0  0  0  0  0  0  0  0
    9.0692  -16.6304   21.7595 N   0  0  0  0  0  0  0  0  0  0  0  0
    9.5156  -15.3991   23.7789 C   0  0  0  0  0  0  0  0  0  0  0  0
   10.1210  -14.4731   24.4310 O   0  0  0  0  0  0  0  0  0  0  0  0
    8.8827  -16.3981   24.5368 N   0  0  0  0  0  0  0  0  0  0  0  0
    9.0156  -16.4938   25.9904 C   0  0  1  0  0  0  0  0  0  0  0  0
    7.7427  -16.0503   26.6622 C   0  0  0  0  0  0  0  0  0  0  0  0
    7.6470  -14.5788   26.7389 C   0  0  0  0  0  0  0  0  0  0  0  0
    8.7323  -13.7745   27.0833 C   0  0  0  0  0  0  0  0  0  0  0  0
    8.6084  -12.4086   27.1455 C   0  0  0  0  0  0  0  0  0  0  0  0
    7.4039  -11.7771   26.8695 C   0  0  0  0  0  0  0  0  0  0  0  0
    6.3104  -12.5466   26.5254 C   0  0  0  0  0  0  0  0  0  0  0  0
    6.4521  -13.9086   26.4681 C   0  0  0  0  0  0  0  0  0  0  0  0
    9.4638  -17.8209   26.4082 C   0  0  0  0  0  0  0  0  0  0  0  0
    9.7870  -18.8388   25.5132 O   0  0  0  0  0  0  0  0  0  0  0  0
    9.5692  -18.0759   27.6332 O   0  0  0  0  0  0  0  0  0  0  0  0
  2  1  1  6
  2  3  1  0
  3  4  1  0
  4  5  2  0
  4  8  1  0
  6 14  1  0
  6  2  1  0
  7  6  2  0
  9 10  1  0
 10 11  1  0
 12 11  1  0
 13 12  1  1
 13 14  1  0
 15 17  1  0
 15 13  1  0
 16 15  2  0
 18 17  1  0
 18 26  1  0
 19 20  1  0
 18 19  1  1
 20 25  2  0
 21 20  1  0
 21 22  2  0
 22 23  1  0
 23 24  2  0
 25 24  1  0
 26 27  1  0
 28 26  2  0
M  END
$$$$
