DMF.pdb
     RDKit          3D

 28 28  0  0  1  0  0  0  0  0999 V2000
   10.1490  -18.6019   19.6231 N   0  0  0  0  0  0  0  0  0  0  0  0
   11.3083  -17.7950   19.9375 C   0  0  1  0  0  0  0  0  0  0  0  0
   11.9038  -17.2317   18.6688 C   0  0  0  0  0  0  0  0  0  0  0  0
   12.6099  -18.2914   17.9037 C   0  0  0  0  0  0  0  0  0  0  0  0
   12.7683  -19.4199   18.4264 O   0  0  0  0  0  0  0  0  0  0  0  0
   10.9132  -16.7403   20.8894 C   0  0  0  0  0  0  0  0  0  0  0  0
   11.7997  -15.9756   21.4048 O   0  0  0  0  0  0  0  0  0  0  0  0
   13.1059  -18.0975   16.6345 O   0  0  0  0  0  0  0  0  0  0  0  0
    7.3839  -11.5447   20.0913 C   0  0  0  0  0  0  0  0  0  0  0  0
    6.8595  -13.2374   19.8211 S   0  0  0  0  0  0  0  0  0  0  0  0
    8.1168  -14.4452   20.3553 C   0  0  0  0  0  0  0  0  0  0  0  0
    8.0290  -14.7178   21.8214 C   0  0  0  0  0  0  0  0  0  0  0  0
    9.2431  -15.4560   22.3075 C   0  0  2  0  0  0  0  0  0  0  0  0
    9.5793  -16.4996   21.2925 N   0  0  0  0  0  0  0  0  0  0  0  0
    9.1456  -16.0727   23.6212 C   0  0  0  0  0  0  0  0  0  0  0  0
    8.5021  -17.1800   23.7162 O   0  0  0  0  0  0  0  0  0  0  0  0
    9.7035  -15.5604   24.8040 N   0  0  0  0  0  0  0  0  0  0  0  0
    9.1174  -15.7956   26.1234 C   0  0  1  0  0  0  0  0  0  0  0  0
    7.6299  -15.5631   26.0838 C   0  0  0  0  0  0  0  0  0  0  0  0
    7.2883  -14.1511   26.3485 C   0  0  0  0  0  0  0  0  0  0  0  0
    5.9919  -13.6565   26.2146 C   0  0  0  0  0  0  0  0  0  0  0  0
    5.7088  -12.3372   26.4684 C   0  0  0  0  0  0  0  0  0  0  0  0
    6.6970  -11.4479   26.8664 C   0  0  0  0  0  0  0  0  0  0  0  0
    7.9911  -11.9077   27.0079 C   0  0  0  0  0  0  0  0  0  0  0  0
    8.2556  -13.2276   26.7504 C   0  0  0  0  0  0  0  0  0  0  0  0
    9.4890  -17.1049   26.6568 C   0  0  0  0  0  0  0  0  0  0  0  0
   10.2712  -18.0236   25.9599 O   0  0  0  0  0  0  0  0  0  0  0  0
    9.0921  -17.4369   27.8009 O   0  0  0  0  0  0  0  0  0  0  0  0
  2  1  1  6
  2  3  1  0
  3  4  1  0
  4  5  2  0
  4  8  1  0
  6 14  1  0
  6  2  1  0
  7  6  2  0
  9 10  1  0
 10 11  1  0
 12 11  1  0
 13 12  1  6
 13 14  1  0
 15 17  1  0
 15 13  1  0
 16 15  2  0
 18 17  1  0
 18 26  1  0
 19 20  1  0
 18 19  1  6
 20 25  2  0
 21 20  1  0
 21 22  2  0
 22 23  1  0
 23 24  2  0
 25 24  1  0
 26 27  1  0
 28 26  2  0
M  END
$$$$
