DMF.pdb
     RDKit          3D

 28 28  0  0  1  0  0  0  0  0999 V2000
    8.3730  -19.9918   20.9993 N   0  0  0  0  0  0  0  0  0  0  0  0
    9.6222  -19.6098   20.3768 C   0  0  1  0  0  0  0  0  0  0  0  0
    9.5696  -19.8993   18.8952 C   0  0  0  0  0  0  0  0  0  0  0  0
    9.3300  -21.3449   18.6501 C   0  0  0  0  0  0  0  0  0  0  0  0
    8.5156  -21.6871   17.7605 O   0  0  0  0  0  0  0  0  0  0  0  0
    9.8836  -18.1869   20.6623 C   0  0  0  0  0  0  0  0  0  0  0  0
   11.0289  -17.6797   20.4028 O   0  0  0  0  0  0  0  0  0  0  0  0
    9.9631  -22.3416   19.3573 O   0  0  0  0  0  0  0  0  0  0  0  0
    7.6734  -10.7964   20.1823 C   0  0  0  0  0  0  0  0  0  0  0  0
    7.3213  -12.5471   20.0266 S   0  0  0  0  0  0  0  0  0  0  0  0
    8.5773  -13.5816   20.8496 C   0  0  0  0  0  0  0  0  0  0  0  0
    8.2311  -15.0327   20.7714 C   0  0  0  0  0  0  0  0  0  0  0  0
    9.2499  -15.8708   21.4892 C   0  0  2  0  0  0  0  0  0  0  0  0
    8.9300  -17.3057   21.2224 N   0  0  0  0  0  0  0  0  0  0  0  0
    9.3697  -15.6605   22.9233 C   0  0  0  0  0  0  0  0  0  0  0  0
    9.9202  -14.5719   23.3247 O   0  0  0  0  0  0  0  0  0  0  0  0
    8.9272  -16.5503   23.9159 N   0  0  0  0  0  0  0  0  0  0  0  0
    8.8892  -16.1990   25.3354 C   0  0  1  0  0  0  0  0  0  0  0  0
    7.4909  -15.8146   25.7417 C   0  0  0  0  0  0  0  0  0  0  0  0
    7.3928  -14.3806   26.0805 C   0  0  0  0  0  0  0  0  0  0  0  0
    8.5102  -13.5504   26.1541 C   0  0  0  0  0  0  0  0  0  0  0  0
    8.3834  -12.2209   26.4724 C   0  0  0  0  0  0  0  0  0  0  0  0
    7.1440  -11.6533   26.7323 C   0  0  0  0  0  0  0  0  0  0  0  0
    6.0183  -12.4499   26.6673 C   0  0  0  0  0  0  0  0  0  0  0  0
    6.1634  -13.7749   26.3482 C   0  0  0  0  0  0  0  0  0  0  0  0
    9.4712  -17.2484   26.1701 C   0  0  0  0  0  0  0  0  0  0  0  0
    9.8263  -17.0593   27.5042 O   0  0  0  0  0  0  0  0  0  0  0  0
    9.6691  -18.3861   25.6770 O   0  0  0  0  0  0  0  0  0  0  0  0
  2  1  1  6
  2  3  1  0
  3  4  1  0
  4  5  2  0
  4  8  1  0
  6 14  1  0
  6  2  1  0
  7  6  2  0
  9 10  1  0
 10 11  1  0
 12 11  1  0
 13 12  1  1
 13 14  1  0
 15 17  1  0
 15 13  1  0
 16 15  2  0
 18 17  1  0
 18 26  1  0
 19 20  1  0
 18 19  1  1
 20 25  2  0
 21 20  1  0
 21 22  2  0
 22 23  1  0
 23 24  2  0
 25 24  1  0
 26 27  1  0
 28 26  2  0
M  END
$$$$
