TGQ.pdb
     RDKit          3D

 21 20  0  0  1  0  0  0  0  0999 V2000
   27.6740  -10.8707  -15.3430 C   0  0  0  0  0  0  0  0  0  0  0  0
   26.9294  -10.5213  -16.5934 C   0  0  1  0  0  0  0  0  0  0  0  0
   27.7515  -10.5086  -17.7040 O   0  0  0  0  0  0  0  0  0  0  0  0
   25.7665  -11.4785  -16.7363 C   0  0  2  0  0  0  0  0  0  0  0  0
   26.1694  -12.8500  -16.7467 N   0  0  0  0  0  0  0  0  0  0  0  0
   24.9509  -11.1633  -17.9151 C   0  0  0  0  0  0  0  0  0  0  0  0
   25.0508  -11.8305  -18.9958 O   0  0  0  0  0  0  0  0  0  0  0  0
   24.0272  -10.0871  -17.8480 N   0  0  0  0  0  0  0  0  0  0  0  0
   23.2262   -9.8107  -19.0217 C   0  0  0  0  0  0  0  0  0  0  0  0
   22.3227   -8.6683  -18.8186 C   0  0  0  0  0  0  0  0  0  0  0  0
   21.6081   -8.2390  -19.7565 O   0  0  0  0  0  0  0  0  0  0  0  0
   17.4433   -8.3981  -16.1141 N   0  0  0  0  0  0  0  0  0  0  0  0
   17.7318   -7.0210  -16.0654 C   0  0  0  0  0  0  0  0  0  0  0  0
   16.8198   -6.2371  -15.7026 O   0  0  0  0  0  0  0  0  0  0  0  0
   19.0467   -6.4621  -16.4186 C   0  0  0  0  0  0  0  0  0  0  0  0
   20.0058   -7.5287  -16.8744 C   0  0  0  0  0  0  0  0  0  0  0  0
   21.3192   -6.9665  -17.2967 C   0  0  2  0  0  0  0  0  0  0  0  0
   22.2493   -8.0406  -17.5630 N   0  0  0  0  0  0  0  0  0  0  0  0
   21.9280   -6.0470  -16.3305 C   0  0  0  0  0  0  0  0  0  0  0  0
   21.5666   -4.7106  -16.3608 O   0  0  0  0  0  0  0  0  0  0  0  0
   22.7665   -6.3875  -15.4636 O   0  0  0  0  0  0  0  0  0  0  0  0
  2  1  1  1
  2  3  1  0
  2  4  1  0
  4  5  1  6
  6  4  1  0
  6  7  2  0
  8  6  1  0
  9  8  1  0
  9 10  1  0
 10 11  2  0
 10 18  1  0
 12 13  1  0
 13 14  2  0
 15 16  1  0
 15 13  1  0
 17 16  1  1
 17 19  1  0
 18 17  1  0
 19 21  2  0
 19 20  1  0
M  END
$$$$
