TGQ.pdb
     RDKit          3D

 21 20  0  0  1  0  0  0  0  0999 V2000
   27.0305  -16.8055  -19.4458 C   0  0  0  0  0  0  0  0  0  0  0  0
   27.7663  -18.0056  -18.9376 C   0  0  1  0  0  0  0  0  0  0  0  0
   28.8792  -18.2981  -19.7027 O   0  0  0  0  0  0  0  0  0  0  0  0
   28.1014  -17.7749  -17.4805 C   0  0  2  0  0  0  0  0  0  0  0  0
   29.0483  -18.7158  -16.9688 N   0  0  0  0  0  0  0  0  0  0  0  0
   26.8931  -17.7426  -16.6482 C   0  0  0  0  0  0  0  0  0  0  0  0
   26.6058  -18.6916  -15.8482 O   0  0  0  0  0  0  0  0  0  0  0  0
   26.0226  -16.6244  -16.7377 N   0  0  0  0  0  0  0  0  0  0  0  0
   24.9538  -16.5215  -15.7669 C   0  0  0  0  0  0  0  0  0  0  0  0
   23.8473  -17.4440  -16.0623 C   0  0  0  0  0  0  0  0  0  0  0  0
   23.8354  -18.1154  -17.1224 O   0  0  0  0  0  0  0  0  0  0  0  0
   20.3695  -20.2786  -11.6637 N   0  0  0  0  0  0  0  0  0  0  0  0
   19.7811  -20.6673  -12.8822 C   0  0  0  0  0  0  0  0  0  0  0  0
   18.8362  -21.4942  -12.8465 O   0  0  0  0  0  0  0  0  0  0  0  0
   20.2211  -20.1510  -14.1883 C   0  0  0  0  0  0  0  0  0  0  0  0
   21.3468  -19.1615  -14.0503 C   0  0  0  0  0  0  0  0  0  0  0  0
   21.7276  -18.5513  -15.3549 C   0  0  2  0  0  0  0  0  0  0  0  0
   22.7836  -17.5847  -15.1541 N   0  0  0  0  0  0  0  0  0  0  0  0
   20.6247  -17.9003  -16.0686 C   0  0  0  0  0  0  0  0  0  0  0  0
   20.5289  -16.5193  -16.0334 O   0  0  0  0  0  0  0  0  0  0  0  0
   19.7465  -18.5125  -16.7201 O   0  0  0  0  0  0  0  0  0  0  0  0
  2  1  1  6
  2  3  1  0
  2  4  1  0
  4  5  1  1
  6  4  1  0
  6  7  2  0
  8  6  1  0
  9  8  1  0
  9 10  1  0
 10 11  2  0
 10 18  1  0
 12 13  1  0
 13 14  2  0
 15 16  1  0
 15 13  1  0
 17 16  1  1
 17 19  1  0
 18 17  1  0
 19 21  2  0
 19 20  1  0
M  END
$$$$
