TGQ.pdb
     RDKit          3D

 21 20  0  0  1  0  0  0  0  0999 V2000
   27.3872  -26.0916  -19.5255 C   0  0  0  0  0  0  0  0  0  0  0  0
   26.5384  -25.8789  -18.3113 C   0  0  1  0  0  0  0  0  0  0  0  0
   25.3063  -26.4947  -18.4215 O   0  0  0  0  0  0  0  0  0  0  0  0
   27.3183  -26.3415  -17.1002 C   0  0  2  0  0  0  0  0  0  0  0  0
   27.6060  -27.7416  -17.1220 N   0  0  0  0  0  0  0  0  0  0  0  0
   26.6472  -25.9641  -15.8507 C   0  0  0  0  0  0  0  0  0  0  0  0
   27.3045  -25.6043  -14.8204 O   0  0  0  0  0  0  0  0  0  0  0  0
   25.2292  -26.0014  -15.7900 N   0  0  0  0  0  0  0  0  0  0  0  0
   24.5942  -25.5645  -14.5647 C   0  0  0  0  0  0  0  0  0  0  0  0
   23.1285  -25.6605  -14.6362 C   0  0  0  0  0  0  0  0  0  0  0  0
   22.5569  -25.9876  -15.7044 O   0  0  0  0  0  0  0  0  0  0  0  0
   17.2871  -25.7800  -10.1670 N   0  0  0  0  0  0  0  0  0  0  0  0
   18.5439  -26.2532  -10.5893 C   0  0  0  0  0  0  0  0  0  0  0  0
   19.3007  -26.7713   -9.7310 O   0  0  0  0  0  0  0  0  0  0  0  0
   19.0080  -26.1685  -11.9834 C   0  0  0  0  0  0  0  0  0  0  0  0
   20.4564  -25.7686  -12.0694 C   0  0  0  0  0  0  0  0  0  0  0  0
   20.9206  -25.6211  -13.4773 C   0  0  2  0  0  0  0  0  0  0  0  0
   22.3466  -25.3851  -13.5010 N   0  0  0  0  0  0  0  0  0  0  0  0
   20.2554  -24.5532  -14.2301 C   0  0  0  0  0  0  0  0  0  0  0  0
   19.0759  -24.8403  -14.8964 O   0  0  0  0  0  0  0  0  0  0  0  0
   20.6832  -23.3785  -14.3165 O   0  0  0  0  0  0  0  0  0  0  0  0
  2  1  1  6
  2  3  1  0
  2  4  1  0
  4  5  1  6
  6  4  1  0
  6  7  2  0
  8  6  1  0
  9  8  1  0
  9 10  1  0
 10 11  2  0
 10 18  1  0
 12 13  1  0
 13 14  2  0
 15 16  1  0
 15 13  1  0
 17 16  1  1
 17 19  1  0
 18 17  1  0
 19 21  2  0
 19 20  1  0
M  END
$$$$
