TGQ.pdb
     RDKit          3D

 21 20  0  0  1  0  0  0  0  0999 V2000
   25.6891  -22.9767  -17.7805 C   0  0  0  0  0  0  0  0  0  0  0  0
   26.7938  -23.1097  -16.7795 C   0  0  1  0  0  0  0  0  0  0  0  0
   27.9297  -23.6741  -17.3278 O   0  0  0  0  0  0  0  0  0  0  0  0
   27.0507  -21.7478  -16.1728 C   0  0  2  0  0  0  0  0  0  0  0  0
   28.2269  -21.7103  -15.3611 N   0  0  0  0  0  0  0  0  0  0  0  0
   25.8840  -21.2613  -15.4270 C   0  0  0  0  0  0  0  0  0  0  0  0
   25.4389  -21.8774  -14.4045 O   0  0  0  0  0  0  0  0  0  0  0  0
   25.2358  -20.0735  -15.8569 N   0  0  0  0  0  0  0  0  0  0  0  0
   24.1613  -19.5560  -15.0366 C   0  0  0  0  0  0  0  0  0  0  0  0
   22.8559  -20.1169  -15.4161 C   0  0  0  0  0  0  0  0  0  0  0  0
   22.7584  -20.9361  -16.3616 O   0  0  0  0  0  0  0  0  0  0  0  0
   20.0253  -24.2335  -13.2648 N   0  0  0  0  0  0  0  0  0  0  0  0
   19.6966  -23.0910  -12.5108 C   0  0  0  0  0  0  0  0  0  0  0  0
   19.3073  -23.2539  -11.3277 O   0  0  0  0  0  0  0  0  0  0  0  0
   19.7881  -21.7222  -13.0438 C   0  0  0  0  0  0  0  0  0  0  0  0
   20.3377  -21.7011  -14.4448 C   0  0  0  0  0  0  0  0  0  0  0  0
   20.4045  -20.3229  -15.0063 C   0  0  2  0  0  0  0  0  0  0  0  0
   21.6953  -19.7388  -14.7190 N   0  0  0  0  0  0  0  0  0  0  0  0
   19.3601  -19.4154  -14.5212 C   0  0  0  0  0  0  0  0  0  0  0  0
   18.0544  -19.6170  -14.9360 O   0  0  0  0  0  0  0  0  0  0  0  0
   19.5656  -18.4534  -13.7448 O   0  0  0  0  0  0  0  0  0  0  0  0
  2  1  1  6
  2  3  1  0
  2  4  1  0
  4  5  1  1
  6  4  1  0
  6  7  2  0
  8  6  1  0
  9  8  1  0
  9 10  1  0
 10 11  2  0
 10 18  1  0
 12 13  1  0
 13 14  2  0
 15 16  1  0
 15 13  1  0
 17 16  1  1
 17 19  1  0
 18 17  1  0
 19 21  2  0
 19 20  1  0
M  END
$$$$
