TGQ.pdb
     RDKit          3D

 21 20  0  0  1  0  0  0  0  0999 V2000
   20.4266  -17.7153  -16.5767 C   0  0  0  0  0  0  0  0  0  0  0  0
   20.8284  -16.2858  -16.7643 C   0  0  1  0  0  0  0  0  0  0  0  0
   19.7487  -15.4265  -16.6917 O   0  0  0  0  0  0  0  0  0  0  0  0
   21.9059  -15.9593  -15.7537 C   0  0  2  0  0  0  0  0  0  0  0  0
   21.4471  -16.0380  -14.4021 N   0  0  0  0  0  0  0  0  0  0  0  0
   22.5196  -14.6536  -16.0232 C   0  0  0  0  0  0  0  0  0  0  0  0
   23.0990  -14.4020  -17.1296 O   0  0  0  0  0  0  0  0  0  0  0  0
   22.4655  -13.6459  -15.0244 N   0  0  0  0  0  0  0  0  0  0  0  0
   23.0264  -12.3498  -15.3421 C   0  0  0  0  0  0  0  0  0  0  0  0
   22.0948  -11.2537  -15.0367 C   0  0  0  0  0  0  0  0  0  0  0  0
   20.9181  -11.4927  -14.6719 O   0  0  0  0  0  0  0  0  0  0  0  0
   23.7291   -5.0551  -14.7542 N   0  0  0  0  0  0  0  0  0  0  0  0
   22.3539   -5.1034  -14.4570 C   0  0  0  0  0  0  0  0  0  0  0  0
   21.7702   -4.0270  -14.1771 O   0  0  0  0  0  0  0  0  0  0  0  0
   21.5741   -6.3517  -14.4595 C   0  0  0  0  0  0  0  0  0  0  0  0
   22.4081   -7.5335  -14.8756 C   0  0  0  0  0  0  0  0  0  0  0  0
   21.6402   -8.8095  -14.8388 C   0  0  2  0  0  0  0  0  0  0  0  0
   22.5152   -9.9172  -15.1507 N   0  0  0  0  0  0  0  0  0  0  0  0
   20.4867   -8.8535  -15.7428 C   0  0  0  0  0  0  0  0  0  0  0  0
   19.2318   -8.5543  -15.2396 O   0  0  0  0  0  0  0  0  0  0  0  0
   20.5539   -9.1471  -16.9592 O   0  0  0  0  0  0  0  0  0  0  0  0
  2  1  1  1
  2  3  1  0
  2  4  1  0
  4  5  1  1
  6  4  1  0
  6  7  2  0
  8  6  1  0
  9  8  1  0
  9 10  1  0
 10 11  2  0
 10 18  1  0
 12 13  1  0
 13 14  2  0
 15 16  1  0
 15 13  1  0
 17 16  1  6
 17 19  1  0
 18 17  1  0
 19 21  2  0
 19 20  1  0
M  END
$$$$
