DPC.pdb
     RDKit          3D

 22 22  0  0  1  0  0  0  0  0999 V2000
   19.4981   -9.9929  -15.3373 N   0  0  0  0  0  0  0  0  0  0  0  0
   19.5875   -8.5476  -15.4069 C   0  0  1  0  0  0  0  0  0  0  0  0
   18.6893   -8.0044  -16.5139 C   0  0  0  0  0  0  0  0  0  0  0  0
   19.2178   -8.4867  -17.8043 C   0  0  0  0  0  0  0  0  0  0  0  0
   18.7451   -9.5448  -18.3045 O   0  0  0  0  0  0  0  0  0  0  0  0
   19.4292   -7.8366  -14.1487 C   0  0  0  0  0  0  0  0  0  0  0  0
   18.3146   -8.0391  -13.5315 O   0  0  0  0  0  0  0  0  0  0  0  0
   20.2201   -7.7688  -18.4440 O   0  0  0  0  0  0  0  0  0  0  0  0
   20.3588   -6.9534  -13.5394 N   0  0  0  0  0  0  0  0  0  0  0  0
   21.7850   -7.1135  -13.7509 C   0  0  0  0  0  0  0  0  0  0  0  0
   22.3171   -5.7078  -13.6854 C   0  0  0  0  0  0  0  0  0  0  0  0
   21.2232   -4.8442  -13.1694 C   0  0  0  0  0  0  0  0  0  0  0  0
   20.2430   -5.9024  -12.5855 C   0  0  1  0  0  0  0  0  0  0  0  0
   18.9564   -5.2664  -12.3774 C   0  0  0  0  0  0  0  0  0  0  0  0
   18.2720   -4.8042  -13.2871 O   0  0  0  0  0  0  0  0  0  0  0  0
   18.4271   -5.1516  -11.0637 N   0  0  0  0  0  0  0  0  0  0  0  0
   17.1632   -4.5029  -10.7907 C   0  0  1  0  0  0  0  0  0  0  0  0
   16.3121   -5.3892   -9.9237 C   0  0  0  0  0  0  0  0  0  0  0  0
   17.3508   -6.0116   -8.5679 S   0  0  0  0  0  0  0  0  0  0  0  0
   17.3435   -3.2095  -10.0623 C   0  0  0  0  0  0  0  0  0  0  0  0
   18.4566   -2.9064   -9.6395 O   0  0  0  0  0  0  0  0  0  0  0  0
   16.2306   -2.3932   -9.8898 O   0  0  0  0  0  0  0  0  0  0  0  0
  2  3  1  0
  2  1  1  1
  3  4  1  0
  4  8  1  0
  5  4  2  0
  6  2  1  0
  7  6  2  0
  9  6  1  0
  9 13  1  0
 10  9  1  0
 11 10  1  0
 11 12  1  0
 12 13  1  0
 13 14  1  6
 14 16  1  0
 14 15  2  0
 16 17  1  0
 17 20  1  0
 17 18  1  1
 19 18  1  0
 20 22  1  0
 21 20  2  0
M  END
$$$$
