DPC.pdb
     RDKit          3D

 22 22  0  0  1  0  0  0  0  0999 V2000
   21.7372  -13.4454  -16.8673 N   0  0  0  0  0  0  0  0  0  0  0  0
   22.5696  -12.4076  -17.4434 C   0  0  1  0  0  0  0  0  0  0  0  0
   22.1240  -12.0867  -18.8666 C   0  0  0  0  0  0  0  0  0  0  0  0
   22.1434  -13.3420  -19.6418 C   0  0  0  0  0  0  0  0  0  0  0  0
   21.0705  -13.9911  -19.7861 O   0  0  0  0  0  0  0  0  0  0  0  0
   22.7638  -11.2190  -16.6289 C   0  0  0  0  0  0  0  0  0  0  0  0
   21.7003  -10.5300  -16.3875 O   0  0  0  0  0  0  0  0  0  0  0  0
   23.3368  -13.7834  -20.1987 O   0  0  0  0  0  0  0  0  0  0  0  0
   23.9847  -10.7436  -16.0821 N   0  0  0  0  0  0  0  0  0  0  0  0
   25.0330  -11.6664  -15.6899 C   0  0  0  0  0  0  0  0  0  0  0  0
   26.3008  -10.8967  -15.9419 C   0  0  0  0  0  0  0  0  0  0  0  0
   25.9170   -9.4848  -16.2025 C   0  0  0  0  0  0  0  0  0  0  0  0
   24.4522   -9.4607  -15.6778 C   0  0  1  0  0  0  0  0  0  0  0  0
   23.8031   -8.2702  -16.1921 C   0  0  0  0  0  0  0  0  0  0  0  0
   23.6379   -8.0499  -17.3895 O   0  0  0  0  0  0  0  0  0  0  0  0
   23.3208   -7.2815  -15.2926 N   0  0  0  0  0  0  0  0  0  0  0  0
   22.6339   -6.0911  -15.7440 C   0  0  1  0  0  0  0  0  0  0  0  0
   21.1492   -6.2666  -15.5814 C   0  0  0  0  0  0  0  0  0  0  0  0
   20.8318   -6.8020  -13.8733 S   0  0  0  0  0  0  0  0  0  0  0  0
   23.0278   -4.8839  -14.9545 C   0  0  0  0  0  0  0  0  0  0  0  0
   23.7526   -5.0173  -13.9714 O   0  0  0  0  0  0  0  0  0  0  0  0
   22.5510   -3.6448  -15.3690 O   0  0  0  0  0  0  0  0  0  0  0  0
  2  3  1  0
  2  1  1  1
  3  4  1  0
  4  8  1  0
  5  4  2  0
  6  2  1  0
  7  6  2  0
  9  6  1  0
  9 13  1  0
 10  9  1  0
 11 10  1  0
 11 12  1  0
 12 13  1  0
 13 14  1  6
 14 16  1  0
 14 15  2  0
 16 17  1  0
 17 20  1  0
 17 18  1  1
 19 18  1  0
 20 22  1  0
 21 20  2  0
M  END
$$$$
