DPC.pdb
     RDKit          3D

 22 22  0  0  1  0  0  0  0  0999 V2000
   18.9810  -12.5094  -16.0207 N   0  0  0  0  0  0  0  0  0  0  0  0
   19.4699  -11.3513  -16.7430 C   0  0  1  0  0  0  0  0  0  0  0  0
   18.9162  -11.3288  -18.1643 C   0  0  0  0  0  0  0  0  0  0  0  0
   19.2831  -12.6017  -18.8141 C   0  0  0  0  0  0  0  0  0  0  0  0
   18.6884  -12.9439  -19.8737 O   0  0  0  0  0  0  0  0  0  0  0  0
   19.3388  -10.0727  -16.0636 C   0  0  0  0  0  0  0  0  0  0  0  0
   18.1466   -9.5814  -16.0273 O   0  0  0  0  0  0  0  0  0  0  0  0
   20.2743  -13.3958  -18.2518 O   0  0  0  0  0  0  0  0  0  0  0  0
   20.3719   -9.3186  -15.4474 N   0  0  0  0  0  0  0  0  0  0  0  0
   21.5295   -9.9757  -14.8708 C   0  0  0  0  0  0  0  0  0  0  0  0
   22.6415   -8.9820  -15.0691 C   0  0  0  0  0  0  0  0  0  0  0  0
   22.0198   -7.7015  -15.4964 C   0  0  0  0  0  0  0  0  0  0  0  0
   20.5287   -7.9413  -15.1211 C   0  0  1  0  0  0  0  0  0  0  0  0
   19.7213   -6.9497  -15.8049 C   0  0  0  0  0  0  0  0  0  0  0  0
   19.5692   -6.9203  -17.0238 O   0  0  0  0  0  0  0  0  0  0  0  0
   19.0562   -5.9401  -15.0581 N   0  0  0  0  0  0  0  0  0  0  0  0
   18.3015   -4.8792  -15.6885 C   0  0  1  0  0  0  0  0  0  0  0  0
   16.8690   -4.9329  -15.2339 C   0  0  0  0  0  0  0  0  0  0  0  0
   16.1716   -6.5255  -15.7650 S   0  0  0  0  0  0  0  0  0  0  0  0
   18.8306   -3.5270  -15.3314 C   0  0  0  0  0  0  0  0  0  0  0  0
   19.6648   -3.4241  -14.4351 O   0  0  0  0  0  0  0  0  0  0  0  0
   18.3505   -2.4278  -16.0354 O   0  0  0  0  0  0  0  0  0  0  0  0
  2  3  1  0
  2  1  1  1
  3  4  1  0
  4  8  1  0
  5  4  2  0
  6  2  1  0
  7  6  2  0
  9  6  1  0
  9 13  1  0
 10  9  1  0
 11 10  1  0
 11 12  1  0
 12 13  1  0
 13 14  1  6
 14 16  1  0
 14 15  2  0
 16 17  1  0
 17 20  1  0
 17 18  1  1
 19 18  1  0
 20 22  1  0
 21 20  2  0
M  END
$$$$
