DPC.pdb
     RDKit          3D

 22 22  0  0  1  0  0  0  0  0999 V2000
   17.2492  -11.5791  -16.7943 N   0  0  0  0  0  0  0  0  0  0  0  0
   16.9914  -10.3551  -16.0615 C   0  0  1  0  0  0  0  0  0  0  0  0
   16.5439  -10.6639  -14.6362 C   0  0  0  0  0  0  0  0  0  0  0  0
   15.3868  -11.5762  -14.7117 C   0  0  0  0  0  0  0  0  0  0  0  0
   14.4022  -11.2604  -15.4358 O   0  0  0  0  0  0  0  0  0  0  0  0
   18.0335   -9.3431  -16.1216 C   0  0  0  0  0  0  0  0  0  0  0  0
   19.1698   -9.6838  -15.6149 O   0  0  0  0  0  0  0  0  0  0  0  0
   15.4030  -12.7625  -13.9895 O   0  0  0  0  0  0  0  0  0  0  0  0
   17.9310   -8.0374  -16.6694 N   0  0  0  0  0  0  0  0  0  0  0  0
   17.0094   -7.7562  -17.7539 C   0  0  0  0  0  0  0  0  0  0  0  0
   16.6004   -6.3282  -17.5155 C   0  0  0  0  0  0  0  0  0  0  0  0
   17.5084   -5.7752  -16.4771 C   0  0  0  0  0  0  0  0  0  0  0  0
   18.6556   -6.8266  -16.4778 C   0  0  1  0  0  0  0  0  0  0  0  0
   19.4390   -6.6474  -15.2707 C   0  0  0  0  0  0  0  0  0  0  0  0
   18.9679   -6.7183  -14.1381 O   0  0  0  0  0  0  0  0  0  0  0  0
   20.8300   -6.3715  -15.3631 N   0  0  0  0  0  0  0  0  0  0  0  0
   21.6565   -6.1522  -14.1963 C   0  0  1  0  0  0  0  0  0  0  0  0
   22.9412   -6.9226  -14.3295 C   0  0  0  0  0  0  0  0  0  0  0  0
   22.5498   -8.6928  -14.1964 S   0  0  0  0  0  0  0  0  0  0  0  0
   22.0179   -4.7110  -14.0289 C   0  0  0  0  0  0  0  0  0  0  0  0
   21.9191   -3.9499  -14.9884 O   0  0  0  0  0  0  0  0  0  0  0  0
   22.4576   -4.2858  -12.7798 O   0  0  0  0  0  0  0  0  0  0  0  0
  2  3  1  0
  2  1  1  1
  3  4  1  0
  4  8  1  0
  5  4  2  0
  6  2  1  0
  7  6  2  0
  9  6  1  0
  9 13  1  0
 10  9  1  0
 11 10  1  0
 11 12  1  0
 12 13  1  0
 13 14  1  1
 14 16  1  0
 14 15  2  0
 16 17  1  0
 17 20  1  0
 17 18  1  6
 19 18  1  0
 20 22  1  0
 21 20  2  0
M  END
$$$$
