DPC.pdb
     RDKit          3D

 22 22  0  0  1  0  0  0  0  0999 V2000
   21.7219  -14.1783  -16.2529 N   0  0  0  0  0  0  0  0  0  0  0  0
   22.5094  -13.0768  -16.7710 C   0  0  1  0  0  0  0  0  0  0  0  0
   22.1047  -12.7523  -18.2056 C   0  0  0  0  0  0  0  0  0  0  0  0
   22.0926  -14.0144  -18.9698 C   0  0  0  0  0  0  0  0  0  0  0  0
   21.4050  -14.0860  -20.0260 O   0  0  0  0  0  0  0  0  0  0  0  0
   22.5919  -11.8973  -15.9250 C   0  0  0  0  0  0  0  0  0  0  0  0
   21.4615  -11.3910  -15.5643 O   0  0  0  0  0  0  0  0  0  0  0  0
   22.8373  -15.0956  -18.5164 O   0  0  0  0  0  0  0  0  0  0  0  0
   23.7698  -11.2528  -15.4638 N   0  0  0  0  0  0  0  0  0  0  0  0
   24.9647  -12.0168  -15.1591 C   0  0  0  0  0  0  0  0  0  0  0  0
   26.0882  -11.0743  -15.4948 C   0  0  0  0  0  0  0  0  0  0  0  0
   25.4894   -9.7315  -15.7117 C   0  0  0  0  0  0  0  0  0  0  0  0
   24.0788   -9.9164  -15.0811 C   0  0  1  0  0  0  0  0  0  0  0  0
   23.2310   -8.8305  -15.5339 C   0  0  0  0  0  0  0  0  0  0  0  0
   22.6975   -8.8010  -16.6404 O   0  0  0  0  0  0  0  0  0  0  0  0
   22.9823   -7.7223  -14.6799 N   0  0  0  0  0  0  0  0  0  0  0  0
   22.2023   -6.5789  -15.1002 C   0  0  1  0  0  0  0  0  0  0  0  0
   20.7394   -6.9273  -15.0876 C   0  0  0  0  0  0  0  0  0  0  0  0
   19.8065   -5.4482  -15.5842 S   0  0  0  0  0  0  0  0  0  0  0  0
   22.3881   -5.4084  -14.1883 C   0  0  0  0  0  0  0  0  0  0  0  0
   22.6676   -5.6031  -13.0078 O   0  0  0  0  0  0  0  0  0  0  0  0
   22.2339   -4.1322  -14.7194 O   0  0  0  0  0  0  0  0  0  0  0  0
  2  3  1  0
  2  1  1  1
  3  4  1  0
  4  8  1  0
  5  4  2  0
  6  2  1  0
  7  6  2  0
  9  6  1  0
  9 13  1  0
 10  9  1  0
 11 10  1  0
 11 12  1  0
 12 13  1  0
 13 14  1  6
 14 16  1  0
 14 15  2  0
 16 17  1  0
 17 20  1  0
 17 18  1  1
 19 18  1  0
 20 22  1  0
 21 20  2  0
M  END
$$$$
