DPC.pdb
     RDKit          3D

 22 22  0  0  1  0  0  0  0  0999 V2000
   19.1655  -12.8452  -16.0913 N   0  0  0  0  0  0  0  0  0  0  0  0
   18.6951  -11.5236  -16.4573 C   0  0  1  0  0  0  0  0  0  0  0  0
   17.4540  -11.1508  -15.6524 C   0  0  0  0  0  0  0  0  0  0  0  0
   16.4939  -12.2663  -15.7566 C   0  0  0  0  0  0  0  0  0  0  0  0
   16.0382  -12.5801  -16.8912 O   0  0  0  0  0  0  0  0  0  0  0  0
   19.6975  -10.4706  -16.4733 C   0  0  0  0  0  0  0  0  0  0  0  0
   20.3702  -10.3261  -15.3821 O   0  0  0  0  0  0  0  0  0  0  0  0
   16.1124  -12.9497  -14.6093 O   0  0  0  0  0  0  0  0  0  0  0  0
   20.0062   -9.5962  -17.5483 N   0  0  0  0  0  0  0  0  0  0  0  0
   19.9004  -10.0432  -18.9243 C   0  0  0  0  0  0  0  0  0  0  0  0
   19.5118   -8.7995  -19.6763 C   0  0  0  0  0  0  0  0  0  0  0  0
   19.6813   -7.6506  -18.7490 C   0  0  0  0  0  0  0  0  0  0  0  0
   20.5545   -8.2844  -17.6277 C   0  0  1  0  0  0  0  0  0  0  0  0
   20.5034   -7.4183  -16.4656 C   0  0  0  0  0  0  0  0  0  0  0  0
   19.4728   -7.1797  -15.8408 O   0  0  0  0  0  0  0  0  0  0  0  0
   21.6896   -6.7924  -15.9958 N   0  0  0  0  0  0  0  0  0  0  0  0
   21.6900   -5.8666  -14.8842 C   0  0  1  0  0  0  0  0  0  0  0  0
   22.4107   -6.4761  -13.7135 C   0  0  0  0  0  0  0  0  0  0  0  0
   22.4533   -5.2436  -12.3779 S   0  0  0  0  0  0  0  0  0  0  0  0
   22.3895   -4.5885  -15.2202 C   0  0  0  0  0  0  0  0  0  0  0  0
   23.2437   -4.5835  -16.1034 O   0  0  0  0  0  0  0  0  0  0  0  0
   22.0418   -3.4442  -14.5102 O   0  0  0  0  0  0  0  0  0  0  0  0
  2  3  1  0
  2  1  1  1
  3  4  1  0
  4  8  1  0
  5  4  2  0
  6  2  1  0
  7  6  2  0
  9  6  1  0
  9 13  1  0
 10  9  1  0
 11 10  1  0
 11 12  1  0
 12 13  1  0
 13 14  1  1
 14 16  1  0
 14 15  2  0
 16 17  1  0
 17 20  1  0
 17 18  1  1
 19 18  1  0
 20 22  1  0
 21 20  2  0
M  END
$$$$
