DPC.pdb
     RDKit          3D

 22 22  0  0  1  0  0  0  0  0999 V2000
   19.6477  -12.9313  -17.3534 N   0  0  0  0  0  0  0  0  0  0  0  0
   19.0301  -11.6215  -17.4233 C   0  0  1  0  0  0  0  0  0  0  0  0
   17.7656  -11.5753  -16.5712 C   0  0  0  0  0  0  0  0  0  0  0  0
   16.8964  -12.6921  -16.9886 C   0  0  0  0  0  0  0  0  0  0  0  0
   16.3226  -12.6370  -18.1116 O   0  0  0  0  0  0  0  0  0  0  0  0
   19.9101  -10.4873  -17.1931 C   0  0  0  0  0  0  0  0  0  0  0  0
   20.6066  -10.5345  -16.1083 O   0  0  0  0  0  0  0  0  0  0  0  0
   16.7282  -13.7808  -16.1426 O   0  0  0  0  0  0  0  0  0  0  0  0
   20.0780   -9.3489  -18.0247 N   0  0  0  0  0  0  0  0  0  0  0  0
   19.9596   -9.4573  -19.4664 C   0  0  0  0  0  0  0  0  0  0  0  0
   19.4100   -8.1201  -19.8824 C   0  0  0  0  0  0  0  0  0  0  0  0
   19.4981   -7.2192  -18.7037 C   0  0  0  0  0  0  0  0  0  0  0  0
   20.4814   -8.0039  -17.7877 C   0  0  1  0  0  0  0  0  0  0  0  0
   20.3905   -7.4575  -16.4474 C   0  0  0  0  0  0  0  0  0  0  0  0
   19.3694   -7.4973  -15.7652 O   0  0  0  0  0  0  0  0  0  0  0  0
   21.5229   -6.8328  -15.8587 N   0  0  0  0  0  0  0  0  0  0  0  0
   21.4956   -6.2776  -14.5232 C   0  0  1  0  0  0  0  0  0  0  0  0
   21.9993   -7.2957  -13.5376 C   0  0  0  0  0  0  0  0  0  0  0  0
   22.0055   -6.5262  -11.8905 S   0  0  0  0  0  0  0  0  0  0  0  0
   22.3693   -5.0703  -14.4006 C   0  0  0  0  0  0  0  0  0  0  0  0
   23.2545   -4.8806  -15.2313 O   0  0  0  0  0  0  0  0  0  0  0  0
   22.1427   -4.2018  -13.3381 O   0  0  0  0  0  0  0  0  0  0  0  0
  2  3  1  0
  2  1  1  1
  3  4  1  0
  4  8  1  0
  5  4  2  0
  6  2  1  0
  7  6  2  0
  9  6  1  0
  9 13  1  0
 10  9  1  0
 11 10  1  0
 11 12  1  0
 12 13  1  0
 13 14  1  1
 14 16  1  0
 14 15  2  0
 16 17  1  0
 17 20  1  0
 17 18  1  1
 19 18  1  0
 20 22  1  0
 21 20  2  0
M  END
$$$$
