DPC.pdb
     RDKit          3D

 22 22  0  0  1  0  0  0  0  0999 V2000
   25.0272  -13.6334  -17.4395 N   0  0  0  0  0  0  0  0  0  0  0  0
   23.7132  -13.0222  -17.4798 C   0  0  1  0  0  0  0  0  0  0  0  0
   22.6320  -14.0452  -17.1456 C   0  0  0  0  0  0  0  0  0  0  0  0
   22.5990  -15.0418  -18.2331 C   0  0  0  0  0  0  0  0  0  0  0  0
   21.7935  -16.0105  -18.1539 O   0  0  0  0  0  0  0  0  0  0  0  0
   23.5643  -11.7787  -16.7414 C   0  0  0  0  0  0  0  0  0  0  0  0
   22.3631  -11.3138  -16.6708 O   0  0  0  0  0  0  0  0  0  0  0  0
   23.4496  -14.8951  -19.3213 O   0  0  0  0  0  0  0  0  0  0  0  0
   24.5890  -11.0326  -16.1018 N   0  0  0  0  0  0  0  0  0  0  0  0
   25.8491  -11.6555  -15.7433 C   0  0  0  0  0  0  0  0  0  0  0  0
   26.8499  -10.5396  -15.8717 C   0  0  0  0  0  0  0  0  0  0  0  0
   26.0850   -9.2749  -16.0276 C   0  0  0  0  0  0  0  0  0  0  0  0
   24.6643   -9.7142  -15.5688 C   0  0  1  0  0  0  0  0  0  0  0  0
   23.7131   -8.7117  -16.0081 C   0  0  0  0  0  0  0  0  0  0  0  0
   23.5116   -8.4373  -17.1887 O   0  0  0  0  0  0  0  0  0  0  0  0
   22.9559   -7.9854  -15.0497 N   0  0  0  0  0  0  0  0  0  0  0  0
   22.0378   -6.9318  -15.4235 C   0  0  1  0  0  0  0  0  0  0  0  0
   20.6354   -7.3186  -15.0422 C   0  0  0  0  0  0  0  0  0  0  0  0
   20.2041   -8.8319  -15.9525 S   0  0  0  0  0  0  0  0  0  0  0  0
   22.3486   -5.6452  -14.7278 C   0  0  0  0  0  0  0  0  0  0  0  0
   23.1607   -5.6400  -13.8058 O   0  0  0  0  0  0  0  0  0  0  0  0
   21.6971   -4.4936  -15.1566 O   0  0  0  0  0  0  0  0  0  0  0  0
  2  3  1  0
  2  1  1  1
  3  4  1  0
  4  8  1  0
  5  4  2  0
  6  2  1  0
  7  6  2  0
  9  6  1  0
  9 13  1  0
 10  9  1  0
 11 10  1  0
 11 12  1  0
 12 13  1  0
 13 14  1  6
 14 16  1  0
 14 15  2  0
 16 17  1  0
 17 20  1  0
 17 18  1  1
 19 18  1  0
 20 22  1  0
 21 20  2  0
M  END
$$$$
