WVE.pdb
     RDKit          3D

 31 32  0  0  1  0  0  0  0  0999 V2000
   25.2541  -18.9357  -10.4115 N   0  0  0  0  0  0  0  0  0  0  0  0
   26.1972  -20.0378  -10.7365 C   0  0  1  0  0  0  0  0  0  0  0  0
   25.8890  -21.1170   -9.7756 C   0  0  0  0  0  0  0  0  0  0  0  0
   26.1410  -20.7877   -8.3772 C   0  0  0  0  0  0  0  0  0  0  0  0
   25.0900  -20.5620   -7.4795 C   0  0  0  0  0  0  0  0  0  0  0  0
   25.6713  -20.2405   -6.3186 N   0  0  0  0  0  0  0  0  0  0  0  0
   27.0081  -20.2496   -6.4246 C   0  0  0  0  0  0  0  0  0  0  0  0
   28.0374  -20.0127   -5.5358 C   0  0  0  0  0  0  0  0  0  0  0  0
   29.3358  -20.1247   -5.9518 C   0  0  0  0  0  0  0  0  0  0  0  0
   29.6350  -20.4715   -7.2478 C   0  0  0  0  0  0  0  0  0  0  0  0
   28.6302  -20.7115   -8.1509 C   0  0  0  0  0  0  0  0  0  0  0  0
   27.3181  -20.5946   -7.7212 C   0  0  0  0  0  0  0  0  0  0  0  0
   26.0037  -20.3171  -12.1642 C   0  0  0  0  0  0  0  0  0  0  0  0
   24.8470  -20.2906  -12.6642 O   0  0  0  0  0  0  0  0  0  0  0  0
   29.2787  -21.2902  -14.7908 C   0  0  0  0  0  0  0  0  0  0  0  0
   28.1610  -20.3901  -15.1653 C   0  0  1  0  0  0  0  0  0  0  0  0
   27.9337  -20.3960  -16.6831 C   0  0  0  0  0  0  0  0  0  0  0  0
   26.8402  -20.6392  -14.5291 C   0  0  2  0  0  0  0  0  0  0  0  0
   27.0576  -20.6310  -13.0584 N   0  0  0  0  0  0  0  0  0  0  0  0
   26.1745  -21.9021  -14.8992 C   0  0  0  0  0  0  0  0  0  0  0  0
   26.5236  -22.9634  -14.3353 O   0  0  0  0  0  0  0  0  0  0  0  0
   25.1574  -21.9472  -15.8631 N   0  0  0  0  0  0  0  0  0  0  0  0
   24.4966  -23.1923  -16.2542 C   0  0  1  0  0  0  0  0  0  0  0  0
   23.0299  -23.1221  -16.0869 C   0  0  0  0  0  0  0  0  0  0  0  0
   22.3847  -24.4543  -16.3538 C   0  0  0  0  0  0  0  0  0  0  0  0
   21.6348  -24.4293  -17.6548 C   0  0  0  0  0  0  0  0  0  0  0  0
   21.5884  -23.3734  -18.3596 O   0  0  0  0  0  0  0  0  0  0  0  0
   24.9638  -23.5839  -17.5682 C   0  0  0  0  0  0  0  0  0  0  0  0
   25.1533  -22.8102  -18.5632 O   0  0  0  0  0  0  0  0  0  0  0  0
   20.9741  -25.5516  -18.1236 O   0  0  0  0  0  0  0  0  0  0  0  0
   25.2516  -24.9211  -17.8347 O   0  0  0  0  0  0  0  0  0  0  0  0
  2 13  1  0
  2  1  1  1
  3  2  1  0
  4  3  1  0
  4  5  2  0
  6  5  1  0
  7 12  2  0
  7  6  1  0
  8  7  1  0
  9 10  1  0
  9  8  2  0
 10 11  2  0
 11 12  1  0
 12  4  1  0
 13 14  2  0
 16 15  1  6
 16 18  1  0
 16 17  1  0
 18 19  1  1
 19 13  1  0
 20 18  1  0
 21 20  2  0
 22 20  1  0
 23 24  1  6
 23 22  1  0
 25 26  1  0
 25 24  1  0
 26 30  1  0
 27 26  2  0
 28 31  1  0
 28 23  1  0
 29 28  2  0
M  END
$$$$
