WVE.pdb
     RDKit          3D

 31 32  0  0  1  0  0  0  0  0999 V2000
   28.2460  -20.8182   -9.1905 N   0  0  0  0  0  0  0  0  0  0  0  0
   26.8235  -21.2465   -9.2410 C   0  0  1  0  0  0  0  0  0  0  0  0
   26.2032  -20.7001   -8.0164 C   0  0  0  0  0  0  0  0  0  0  0  0
   27.1218  -20.0180   -7.1117 C   0  0  0  0  0  0  0  0  0  0  0  0
   27.5613  -18.7127   -7.3654 C   0  0  0  0  0  0  0  0  0  0  0  0
   28.4171  -18.4234   -6.3790 N   0  0  0  0  0  0  0  0  0  0  0  0
   28.5438  -19.4514   -5.5272 C   0  0  0  0  0  0  0  0  0  0  0  0
   29.2692  -19.6472   -4.3692 C   0  0  0  0  0  0  0  0  0  0  0  0
   29.1678  -20.8329   -3.6943 C   0  0  0  0  0  0  0  0  0  0  0  0
   28.3507  -21.8388   -4.1524 C   0  0  0  0  0  0  0  0  0  0  0  0
   27.6198  -21.6695   -5.3013 C   0  0  0  0  0  0  0  0  0  0  0  0
   27.7296  -20.4658   -5.9790 C   0  0  0  0  0  0  0  0  0  0  0  0
   26.3136  -20.7765  -10.5344 C   0  0  0  0  0  0  0  0  0  0  0  0
   26.9872  -19.9645  -11.2241 O   0  0  0  0  0  0  0  0  0  0  0  0
   27.1316  -20.5998  -13.0069 C   0  0  0  0  0  0  0  0  0  0  0  0
   25.7767  -21.0812  -13.3699 C   0  0  1  0  0  0  0  0  0  0  0  0
   25.7621  -22.6060  -13.5446 C   0  0  0  0  0  0  0  0  0  0  0  0
   24.6605  -20.7408  -12.4481 C   0  0  2  0  0  0  0  0  0  0  0  0
   25.0718  -21.1771  -11.0877 N   0  0  0  0  0  0  0  0  0  0  0  0
   23.3553  -21.3508  -12.7633 C   0  0  0  0  0  0  0  0  0  0  0  0
   23.2163  -22.5888  -12.6441 O   0  0  0  0  0  0  0  0  0  0  0  0
   22.2631  -20.5820  -13.1894 N   0  0  0  0  0  0  0  0  0  0  0  0
   20.8889  -21.0826  -13.1640 C   0  0  1  0  0  0  0  0  0  0  0  0
   19.9155  -20.0240  -12.8231 C   0  0  0  0  0  0  0  0  0  0  0  0
   18.5150  -20.5689  -12.7597 C   0  0  0  0  0  0  0  0  0  0  0  0
   17.5374  -19.4807  -12.4195 C   0  0  0  0  0  0  0  0  0  0  0  0
   17.8673  -18.2572  -12.5099 O   0  0  0  0  0  0  0  0  0  0  0  0
   20.6271  -21.8098  -14.3892 C   0  0  0  0  0  0  0  0  0  0  0  0
   21.1441  -21.5762  -15.5304 O   0  0  0  0  0  0  0  0  0  0  0  0
   16.2525  -19.7766  -11.9988 O   0  0  0  0  0  0  0  0  0  0  0  0
   19.7332  -22.8789  -14.3866 O   0  0  0  0  0  0  0  0  0  0  0  0
  2 13  1  0
  2  1  1  1
  3  2  1  0
  4  3  1  0
  4  5  2  0
  6  5  1  0
  7 12  2  0
  7  6  1  0
  8  7  1  0
  9 10  1  0
  9  8  2  0
 10 11  2  0
 11 12  1  0
 12  4  1  0
 13 14  2  0
 16 15  1  1
 16 18  1  0
 16 17  1  0
 18 19  1  1
 19 13  1  0
 20 18  1  0
 21 20  2  0
 22 20  1  0
 23 24  1  6
 23 22  1  0
 25 26  1  0
 25 24  1  0
 26 30  1  0
 27 26  2  0
 28 31  1  0
 28 23  1  0
 29 28  2  0
M  END
$$$$
