WVE.pdb
     RDKit          3D

 31 32  0  0  1  0  0  0  0  0999 V2000
   26.3105  -22.3901  -13.6604 N   0  0  0  0  0  0  0  0  0  0  0  0
   25.9942  -21.3826  -12.6144 C   0  0  1  0  0  0  0  0  0  0  0  0
   26.5530  -20.1085  -13.1120 C   0  0  0  0  0  0  0  0  0  0  0  0
   27.9937  -19.9586  -12.9406 C   0  0  0  0  0  0  0  0  0  0  0  0
   28.7706  -19.2580  -13.8717 C   0  0  0  0  0  0  0  0  0  0  0  0
   30.0315  -19.3597  -13.4369 N   0  0  0  0  0  0  0  0  0  0  0  0
   30.0993  -20.0713  -12.3023 C   0  0  0  0  0  0  0  0  0  0  0  0
   31.1350  -20.4383  -11.4668 C   0  0  0  0  0  0  0  0  0  0  0  0
   30.8747  -21.1689  -10.3399 C   0  0  0  0  0  0  0  0  0  0  0  0
   29.5913  -21.5460  -10.0232 C   0  0  0  0  0  0  0  0  0  0  0  0
   28.5445  -21.1944  -10.8376 C   0  0  0  0  0  0  0  0  0  0  0  0
   28.8175  -20.4554  -11.9775 C   0  0  0  0  0  0  0  0  0  0  0  0
   24.5425  -21.4611  -12.4143 C   0  0  0  0  0  0  0  0  0  0  0  0
   23.8118  -22.0102  -13.2822 O   0  0  0  0  0  0  0  0  0  0  0  0
   23.0028  -21.3465   -8.6785 C   0  0  0  0  0  0  0  0  0  0  0  0
   22.0796  -20.8003   -9.7026 C   0  0  1  0  0  0  0  0  0  0  0  0
   21.9415  -19.2780   -9.5644 C   0  0  0  0  0  0  0  0  0  0  0  0
   22.3987  -21.0781  -11.1283 C   0  0  2  0  0  0  0  0  0  0  0  0
   23.8716  -20.9431  -11.2783 N   0  0  0  0  0  0  0  0  0  0  0  0
   21.7428  -20.2030  -12.1178 C   0  0  0  0  0  0  0  0  0  0  0  0
   22.2401  -19.0812  -12.3641 O   0  0  0  0  0  0  0  0  0  0  0  0
   20.5790  -20.5941  -12.7947 N   0  0  0  0  0  0  0  0  0  0  0  0
   19.8641  -19.7062  -13.7114 C   0  0  1  0  0  0  0  0  0  0  0  0
   19.6844  -20.3113  -15.0478 C   0  0  0  0  0  0  0  0  0  0  0  0
   18.9770  -19.3699  -15.9835 C   0  0  0  0  0  0  0  0  0  0  0  0
   17.8901  -20.0850  -16.7338 C   0  0  0  0  0  0  0  0  0  0  0  0
   17.9254  -21.3456  -16.8871 O   0  0  0  0  0  0  0  0  0  0  0  0
   18.6572  -19.2315  -13.0662 C   0  0  0  0  0  0  0  0  0  0  0  0
   17.9497  -19.8740  -12.2229 O   0  0  0  0  0  0  0  0  0  0  0  0
   16.8212  -19.3950  -17.2788 O   0  0  0  0  0  0  0  0  0  0  0  0
   18.1698  -17.9578  -13.3523 O   0  0  0  0  0  0  0  0  0  0  0  0
  2 13  1  0
  2  1  1  6
  3  2  1  0
  4  3  1  0
  4  5  2  0
  6  5  1  0
  7 12  2  0
  7  6  1  0
  8  7  1  0
  9 10  1  0
  9  8  2  0
 10 11  2  0
 11 12  1  0
 12  4  1  0
 13 14  2  0
 16 15  1  1
 16 18  1  0
 16 17  1  0
 18 19  1  1
 19 13  1  0
 20 18  1  0
 21 20  2  0
 22 20  1  0
 23 24  1  6
 23 22  1  0
 25 26  1  0
 25 24  1  0
 26 30  1  0
 27 26  2  0
 28 31  1  0
 28 23  1  0
 29 28  2  0
M  END
$$$$
