WVE.pdb
     RDKit          3D

 31 32  0  0  1  0  0  0  0  0999 V2000
   26.4482  -19.5262  -11.3412 N   0  0  0  0  0  0  0  0  0  0  0  0
   25.7746  -20.8512  -11.3376 C   0  0  1  0  0  0  0  0  0  0  0  0
   25.7299  -21.2673   -9.9206 C   0  0  0  0  0  0  0  0  0  0  0  0
   26.9140  -20.9259   -9.1404 C   0  0  0  0  0  0  0  0  0  0  0  0
   26.8341  -20.0881   -8.0210 C   0  0  0  0  0  0  0  0  0  0  0  0
   28.0910  -19.9495   -7.5850 N   0  0  0  0  0  0  0  0  0  0  0  0
   28.9501  -20.6398   -8.3489 C   0  0  0  0  0  0  0  0  0  0  0  0
   30.3163  -20.8338   -8.3120 C   0  0  0  0  0  0  0  0  0  0  0  0
   30.9161  -21.6341   -9.2454 C   0  0  0  0  0  0  0  0  0  0  0  0
   30.1768  -22.2525  -10.2255 C   0  0  0  0  0  0  0  0  0  0  0  0
   28.8175  -22.0753  -10.2844 C   0  0  0  0  0  0  0  0  0  0  0  0
   28.2186  -21.2621   -9.3357 C   0  0  0  0  0  0  0  0  0  0  0  0
   24.4975  -20.6487  -12.0317 C   0  0  0  0  0  0  0  0  0  0  0  0
   23.8650  -19.5673  -11.8925 O   0  0  0  0  0  0  0  0  0  0  0  0
   23.5735  -22.4144  -15.5650 C   0  0  0  0  0  0  0  0  0  0  0  0
   22.7524  -21.3388  -14.9580 C   0  0  1  0  0  0  0  0  0  0  0  0
   21.3550  -21.2887  -15.5906 C   0  0  0  0  0  0  0  0  0  0  0  0
   22.5589  -21.3759  -13.4840 C   0  0  2  0  0  0  0  0  0  0  0  0
   23.8945  -21.6142  -12.8760 N   0  0  0  0  0  0  0  0  0  0  0  0
   21.6241  -22.4004  -12.9823 C   0  0  0  0  0  0  0  0  0  0  0  0
   21.9720  -23.6025  -12.9964 O   0  0  0  0  0  0  0  0  0  0  0  0
   20.3566  -22.0654  -12.4855 N   0  0  0  0  0  0  0  0  0  0  0  0
   19.3924  -23.0720  -12.0419 C   0  0  1  0  0  0  0  0  0  0  0  0
   18.7188  -22.6838  -10.7849 C   0  0  0  0  0  0  0  0  0  0  0  0
   17.6092  -23.6394  -10.4416 C   0  0  0  0  0  0  0  0  0  0  0  0
   18.0772  -24.6590   -9.4431 C   0  0  0  0  0  0  0  0  0  0  0  0
   19.1035  -24.4447   -8.7257 O   0  0  0  0  0  0  0  0  0  0  0  0
   18.5194  -23.4110  -13.1469 C   0  0  0  0  0  0  0  0  0  0  0  0
   18.1745  -24.5851  -13.5033 O   0  0  0  0  0  0  0  0  0  0  0  0
   17.4072  -25.8584   -9.2748 O   0  0  0  0  0  0  0  0  0  0  0  0
   17.9707  -22.4016  -13.9355 O   0  0  0  0  0  0  0  0  0  0  0  0
  2 13  1  0
  2  1  1  1
  3  2  1  0
  4  3  1  0
  4  5  2  0
  6  5  1  0
  7 12  2  0
  7  6  1  0
  8  7  1  0
  9 10  1  0
  9  8  2  0
 10 11  2  0
 11 12  1  0
 12  4  1  0
 13 14  2  0
 16 15  1  6
 16 18  1  0
 16 17  1  0
 18 19  1  1
 19 13  1  0
 20 18  1  0
 21 20  2  0
 22 20  1  0
 23 24  1  1
 23 22  1  0
 25 26  1  0
 25 24  1  0
 26 30  1  0
 27 26  2  0
 28 31  1  0
 28 23  1  0
 29 28  2  0
M  END
$$$$
