WVE.pdb
     RDKit          3D

 31 32  0  0  1  0  0  0  0  0999 V2000
   27.7665  -22.1043  -16.6840 N   0  0  0  0  0  0  0  0  0  0  0  0
   26.8823  -21.0119  -16.2000 C   0  0  1  0  0  0  0  0  0  0  0  0
   26.0666  -20.6179  -17.3672 C   0  0  0  0  0  0  0  0  0  0  0  0
   26.2062  -19.2244  -17.7747 C   0  0  0  0  0  0  0  0  0  0  0  0
   27.2700  -18.4344  -17.3214 C   0  0  0  0  0  0  0  0  0  0  0  0
   27.0623  -17.2193  -17.8406 N   0  0  0  0  0  0  0  0  0  0  0  0
   25.9477  -17.1923  -18.5856 C   0  0  0  0  0  0  0  0  0  0  0  0
   25.3205  -16.2129  -19.3292 C   0  0  0  0  0  0  0  0  0  0  0  0
   24.1747  -16.5080  -20.0159 C   0  0  0  0  0  0  0  0  0  0  0  0
   23.6340  -17.7712  -19.9781 C   0  0  0  0  0  0  0  0  0  0  0  0
   24.2377  -18.7622  -19.2459 C   0  0  0  0  0  0  0  0  0  0  0  0
   25.3972  -18.4541  -18.5526 C   0  0  0  0  0  0  0  0  0  0  0  0
   26.1839  -21.5562  -15.0297 C   0  0  0  0  0  0  0  0  0  0  0  0
   25.8253  -22.7645  -15.0108 O   0  0  0  0  0  0  0  0  0  0  0  0
   25.8927  -19.4993  -11.2789 C   0  0  0  0  0  0  0  0  0  0  0  0
   25.7200  -20.9564  -11.4947 C   0  0  1  0  0  0  0  0  0  0  0  0
   24.9215  -21.5924  -10.3487 C   0  0  0  0  0  0  0  0  0  0  0  0
   25.0745  -21.3877  -12.7631 C   0  0  2  0  0  0  0  0  0  0  0  0
   25.8649  -20.7978  -13.8756 N   0  0  0  0  0  0  0  0  0  0  0  0
   23.6619  -20.9992  -12.9319 C   0  0  0  0  0  0  0  0  0  0  0  0
   23.3809  -19.7978  -13.1417 O   0  0  0  0  0  0  0  0  0  0  0  0
   22.6235  -21.9390  -12.8681 N   0  0  0  0  0  0  0  0  0  0  0  0
   21.2128  -21.5625  -12.9569 C   0  0  1  0  0  0  0  0  0  0  0  0
   20.3402  -22.7260  -13.2196 C   0  0  0  0  0  0  0  0  0  0  0  0
   18.8872  -22.3386  -13.1847 C   0  0  0  0  0  0  0  0  0  0  0  0
   18.0148  -23.5247  -13.4809 C   0  0  0  0  0  0  0  0  0  0  0  0
   18.5195  -24.6780  -13.6513 O   0  0  0  0  0  0  0  0  0  0  0  0
   20.8635  -20.7594  -11.8031 C   0  0  0  0  0  0  0  0  0  0  0  0
   21.3203  -20.8977  -10.6213 O   0  0  0  0  0  0  0  0  0  0  0  0
   16.6399  -23.3976  -13.5769 O   0  0  0  0  0  0  0  0  0  0  0  0
   19.9448  -19.7195  -11.9312 O   0  0  0  0  0  0  0  0  0  0  0  0
  2 13  1  0
  2  1  1  6
  3  2  1  0
  4  3  1  0
  4  5  2  0
  6  5  1  0
  7 12  2  0
  7  6  1  0
  8  7  1  0
  9 10  1  0
  9  8  2  0
 10 11  2  0
 11 12  1  0
 12  4  1  0
 13 14  2  0
 16 15  1  1
 16 18  1  0
 16 17  1  0
 18 19  1  6
 19 13  1  0
 20 18  1  0
 21 20  2  0
 22 20  1  0
 23 24  1  1
 23 22  1  0
 25 26  1  0
 25 24  1  0
 26 30  1  0
 27 26  2  0
 28 31  1  0
 28 23  1  0
 29 28  2  0
M  END
$$$$
