WVE.pdb
     RDKit          3D

 31 32  0  0  1  0  0  0  0  0999 V2000
   27.6855  -20.7316  -18.1665 N   0  0  0  0  0  0  0  0  0  0  0  0
   26.9035  -19.9681  -17.1591 C   0  0  1  0  0  0  0  0  0  0  0  0
   25.5342  -19.8795  -17.7069 C   0  0  0  0  0  0  0  0  0  0  0  0
   25.3632  -18.9124  -18.7854 C   0  0  0  0  0  0  0  0  0  0  0  0
   25.2507  -19.3201  -20.1204 C   0  0  0  0  0  0  0  0  0  0  0  0
   25.1588  -18.1926  -20.8342 N   0  0  0  0  0  0  0  0  0  0  0  0
   25.2046  -17.1107  -20.0433 C   0  0  0  0  0  0  0  0  0  0  0  0
   25.1332  -15.7525  -20.2795 C   0  0  0  0  0  0  0  0  0  0  0  0
   25.1891  -14.8751  -19.2313 C   0  0  0  0  0  0  0  0  0  0  0  0
   25.3157  -15.3257  -17.9388 C   0  0  0  0  0  0  0  0  0  0  0  0
   25.3894  -16.6707  -17.6776 C   0  0  0  0  0  0  0  0  0  0  0  0
   25.3331  -17.5520  -18.7453 C   0  0  0  0  0  0  0  0  0  0  0  0
   27.0878  -20.6818  -15.8901 C   0  0  0  0  0  0  0  0  0  0  0  0
   26.6917  -21.8723  -15.7691 O   0  0  0  0  0  0  0  0  0  0  0  0
   29.2586  -19.0764  -12.5405 C   0  0  0  0  0  0  0  0  0  0  0  0
   28.8093  -20.4846  -12.6609 C   0  0  1  0  0  0  0  0  0  0  0  0
   28.6524  -21.1331  -11.2787 C   0  0  0  0  0  0  0  0  0  0  0  0
   27.5460  -20.7379  -13.4035 C   0  0  2  0  0  0  0  0  0  0  0  0
   27.6966  -20.1125  -14.7438 N   0  0  0  0  0  0  0  0  0  0  0  0
   26.3155  -20.2189  -12.7777 C   0  0  0  0  0  0  0  0  0  0  0  0
   26.0194  -19.0118  -12.9243 O   0  0  0  0  0  0  0  0  0  0  0  0
   25.4645  -21.0412  -12.0258 N   0  0  0  0  0  0  0  0  0  0  0  0
   24.2640  -20.5349  -11.3609 C   0  0  1  0  0  0  0  0  0  0  0  0
   23.0331  -20.8498  -12.1159 C   0  0  0  0  0  0  0  0  0  0  0  0
   21.8081  -20.3600  -11.3933 C   0  0  0  0  0  0  0  0  0  0  0  0
   20.6338  -21.2528  -11.6750 C   0  0  0  0  0  0  0  0  0  0  0  0
   20.6898  -22.1340  -12.5884 O   0  0  0  0  0  0  0  0  0  0  0  0
   24.2783  -20.9536   -9.9743 C   0  0  0  0  0  0  0  0  0  0  0  0
   23.5864  -20.4534   -9.0279 O   0  0  0  0  0  0  0  0  0  0  0  0
   19.4593  -21.1430  -10.9508 O   0  0  0  0  0  0  0  0  0  0  0  0
   25.1070  -21.9989   -9.5713 O   0  0  0  0  0  0  0  0  0  0  0  0
  2 13  1  0
  2  1  1  6
  3  2  1  0
  4  3  1  0
  4  5  2  0
  6  5  1  0
  7 12  2  0
  7  6  1  0
  8  7  1  0
  9 10  1  0
  9  8  2  0
 10 11  2  0
 11 12  1  0
 12  4  1  0
 13 14  2  0
 16 15  1  1
 16 18  1  0
 16 17  1  0
 18 19  1  6
 19 13  1  0
 20 18  1  0
 21 20  2  0
 22 20  1  0
 23 24  1  6
 23 22  1  0
 25 26  1  0
 25 24  1  0
 26 30  1  0
 27 26  2  0
 28 31  1  0
 28 23  1  0
 29 28  2  0
M  END
$$$$
