WVE.pdb
     RDKit          3D

 31 32  0  0  1  0  0  0  0  0999 V2000
   28.1098  -20.7381   -9.0689 N   0  0  0  0  0  0  0  0  0  0  0  0
   26.6835  -21.1489   -8.9888 C   0  0  1  0  0  0  0  0  0  0  0  0
   26.2031  -20.6543   -7.6821 C   0  0  0  0  0  0  0  0  0  0  0  0
   27.1827  -19.8960   -6.9121 C   0  0  0  0  0  0  0  0  0  0  0  0
   27.4261  -18.5417   -7.1727 C   0  0  0  0  0  0  0  0  0  0  0  0
   28.4014  -18.1831   -6.3305 N   0  0  0  0  0  0  0  0  0  0  0  0
   28.7844  -19.2133   -5.5622 C   0  0  0  0  0  0  0  0  0  0  0  0
   29.7148  -19.3564   -4.5525 C   0  0  0  0  0  0  0  0  0  0  0  0
   29.8615  -20.5646   -3.9279 C   0  0  0  0  0  0  0  0  0  0  0  0
   29.0935  -21.6454   -4.2907 C   0  0  0  0  0  0  0  0  0  0  0  0
   28.1623  -21.5294   -5.2917 C   0  0  0  0  0  0  0  0  0  0  0  0
   28.0212  -20.3023   -5.9197 C   0  0  0  0  0  0  0  0  0  0  0  0
   26.0482  -20.6136  -10.1986 C   0  0  0  0  0  0  0  0  0  0  0  0
   26.1610  -19.3915  -10.4860 O   0  0  0  0  0  0  0  0  0  0  0  0
   26.9476  -21.1734  -13.4599 C   0  0  0  0  0  0  0  0  0  0  0  0
   25.4741  -21.3407  -13.4843 C   0  0  1  0  0  0  0  0  0  0  0  0
   25.0898  -22.8206  -13.6176 C   0  0  0  0  0  0  0  0  0  0  0  0
   24.7052  -20.7960  -12.3339 C   0  0  2  0  0  0  0  0  0  0  0  0
   25.2840  -21.3938  -11.1019 N   0  0  0  0  0  0  0  0  0  0  0  0
   23.2539  -21.0578  -12.3468 C   0  0  0  0  0  0  0  0  0  0  0  0
   22.8033  -22.0265  -11.6950 O   0  0  0  0  0  0  0  0  0  0  0  0
   22.3627  -20.2490  -13.0661 N   0  0  0  0  0  0  0  0  0  0  0  0
   20.9177  -20.4765  -13.0683 C   0  0  1  0  0  0  0  0  0  0  0  0
   20.1703  -19.3225  -12.5262 C   0  0  0  0  0  0  0  0  0  0  0  0
   19.6439  -18.4453  -13.6288 C   0  0  0  0  0  0  0  0  0  0  0  0
   18.3221  -17.8451  -13.2438 C   0  0  0  0  0  0  0  0  0  0  0  0
   17.4837  -18.5045  -12.5537 O   0  0  0  0  0  0  0  0  0  0  0  0
   20.5117  -20.9302  -14.3826 C   0  0  0  0  0  0  0  0  0  0  0  0
   21.1965  -20.8473  -15.4543 O   0  0  0  0  0  0  0  0  0  0  0  0
   17.9785  -16.5605  -13.6278 O   0  0  0  0  0  0  0  0  0  0  0  0
   19.2632  -21.5233  -14.5593 O   0  0  0  0  0  0  0  0  0  0  0  0
  2 13  1  0
  2  1  1  6
  3  2  1  0
  4  3  1  0
  4  5  2  0
  6  5  1  0
  7 12  2  0
  7  6  1  0
  8  7  1  0
  9 10  1  0
  9  8  2  0
 10 11  2  0
 11 12  1  0
 12  4  1  0
 13 14  2  0
 16 15  1  1
 16 18  1  0
 16 17  1  0
 18 19  1  1
 19 13  1  0
 20 18  1  0
 21 20  2  0
 22 20  1  0
 23 24  1  6
 23 22  1  0
 25 26  1  0
 25 24  1  0
 26 30  1  0
 27 26  2  0
 28 31  1  0
 28 23  1  0
 29 28  2  0
M  END
$$$$
