WVE.pdb
     RDKit          3D

 31 32  0  0  1  0  0  0  0  0999 V2000
   27.3602  -20.8334   -9.3980 N   0  0  0  0  0  0  0  0  0  0  0  0
   25.9961  -21.1862   -8.9245 C   0  0  1  0  0  0  0  0  0  0  0  0
   25.9276  -20.7094   -7.5278 C   0  0  0  0  0  0  0  0  0  0  0  0
   27.0822  -19.9371   -7.0828 C   0  0  0  0  0  0  0  0  0  0  0  0
   27.5104  -18.7986   -7.7769 C   0  0  0  0  0  0  0  0  0  0  0  0
   28.6046  -18.3759   -7.1341 N   0  0  0  0  0  0  0  0  0  0  0  0
   28.8909  -19.1659   -6.0889 C   0  0  0  0  0  0  0  0  0  0  0  0
   29.8775  -19.1508   -5.1237 C   0  0  0  0  0  0  0  0  0  0  0  0
   29.8900  -20.1094   -4.1476 C   0  0  0  0  0  0  0  0  0  0  0  0
   28.9307  -21.0932   -4.1113 C   0  0  0  0  0  0  0  0  0  0  0  0
   27.9398  -21.1307   -5.0596 C   0  0  0  0  0  0  0  0  0  0  0  0
   27.9355  -20.1566   -6.0451 C   0  0  0  0  0  0  0  0  0  0  0  0
   25.0725  -20.5904   -9.8970 C   0  0  0  0  0  0  0  0  0  0  0  0
   25.3078  -19.4493  -10.3779 O   0  0  0  0  0  0  0  0  0  0  0  0
   25.0220  -19.4097  -12.3790 C   0  0  0  0  0  0  0  0  0  0  0  0
   23.8486  -20.2991  -12.5568 C   0  0  1  0  0  0  0  0  0  0  0  0
   24.2705  -21.6610  -13.1250 C   0  0  0  0  0  0  0  0  0  0  0  0
   23.0094  -20.5711  -11.3596 C   0  0  2  0  0  0  0  0  0  0  0  0
   23.8877  -21.2214  -10.3517 N   0  0  0  0  0  0  0  0  0  0  0  0
   21.8307  -21.4296  -11.5803 C   0  0  0  0  0  0  0  0  0  0  0  0
   21.9412  -22.4416  -12.3083 O   0  0  0  0  0  0  0  0  0  0  0  0
   20.5891  -21.1464  -10.9939 N   0  0  0  0  0  0  0  0  0  0  0  0
   19.5532  -22.1630  -10.8115 C   0  0  1  0  0  0  0  0  0  0  0  0
   19.1654  -22.3164   -9.3936 C   0  0  0  0  0  0  0  0  0  0  0  0
   18.1354  -23.3991   -9.2226 C   0  0  0  0  0  0  0  0  0  0  0  0
   18.5255  -24.3315   -8.1118 C   0  0  0  0  0  0  0  0  0  0  0  0
   18.9818  -23.8825   -7.0145 O   0  0  0  0  0  0  0  0  0  0  0  0
   18.4696  -21.9064  -11.7379 C   0  0  0  0  0  0  0  0  0  0  0  0
   18.0681  -20.7626  -12.1313 O   0  0  0  0  0  0  0  0  0  0  0  0
   18.4002  -25.7031   -8.2493 O   0  0  0  0  0  0  0  0  0  0  0  0
   17.7573  -22.9704  -12.2877 O   0  0  0  0  0  0  0  0  0  0  0  0
  2 13  1  0
  2  1  1  6
  3  2  1  0
  4  3  1  0
  4  5  2  0
  6  5  1  0
  7 12  2  0
  7  6  1  0
  8  7  1  0
  9 10  1  0
  9  8  2  0
 10 11  2  0
 11 12  1  0
 12  4  1  0
 13 14  2  0
 16 15  1  1
 16 18  1  0
 16 17  1  0
 18 19  1  1
 19 13  1  0
 20 18  1  0
 21 20  2  0
 22 20  1  0
 23 24  1  1
 23 22  1  0
 25 26  1  0
 25 24  1  0
 26 30  1  0
 27 26  2  0
 28 31  1  0
 28 23  1  0
 29 28  2  0
M  END
$$$$
