WVE.pdb
     RDKit          3D

 31 32  0  0  1  0  0  0  0  0999 V2000
   24.4079  -21.0072  -12.3894 N   0  0  0  0  0  0  0  0  0  0  0  0
   24.2018  -21.0768  -10.9191 C   0  0  1  0  0  0  0  0  0  0  0  0
   24.9918  -19.9621  -10.3567 C   0  0  0  0  0  0  0  0  0  0  0  0
   26.3250  -20.3256   -9.8898 C   0  0  0  0  0  0  0  0  0  0  0  0
   27.2441  -20.9648  -10.7312 C   0  0  0  0  0  0  0  0  0  0  0  0
   28.3251  -21.1914   -9.9768 N   0  0  0  0  0  0  0  0  0  0  0  0
   28.1494  -20.7400   -8.7264 C   0  0  0  0  0  0  0  0  0  0  0  0
   28.9469  -20.7157   -7.5999 C   0  0  0  0  0  0  0  0  0  0  0  0
   28.4784  -20.1500   -6.4458 C   0  0  0  0  0  0  0  0  0  0  0  0
   27.2192  -19.6016   -6.3884 C   0  0  0  0  0  0  0  0  0  0  0  0
   26.4067  -19.6136   -7.4940 C   0  0  0  0  0  0  0  0  0  0  0  0
   26.8890  -20.1898   -8.6583 C   0  0  0  0  0  0  0  0  0  0  0  0
   22.7479  -21.0531  -10.7209 C   0  0  0  0  0  0  0  0  0  0  0  0
   22.0858  -20.0197  -11.0081 O   0  0  0  0  0  0  0  0  0  0  0  0
   20.2655  -21.9235  -12.5816 C   0  0  0  0  0  0  0  0  0  0  0  0
   19.9332  -22.6113  -11.3104 C   0  0  1  0  0  0  0  0  0  0  0  0
   20.3166  -24.0962  -11.3707 C   0  0  0  0  0  0  0  0  0  0  0  0
   20.5246  -22.0622  -10.0612 C   0  0  2  0  0  0  0  0  0  0  0  0
   22.0018  -22.1434  -10.2074 N   0  0  0  0  0  0  0  0  0  0  0  0
   20.1374  -22.7428   -8.8115 C   0  0  0  0  0  0  0  0  0  0  0  0
   20.9928  -23.4156   -8.1934 O   0  0  0  0  0  0  0  0  0  0  0  0
   18.8378  -22.6543   -8.2930 N   0  0  0  0  0  0  0  0  0  0  0  0
   18.4128  -23.3884   -7.1013 C   0  0  1  0  0  0  0  0  0  0  0  0
   17.1200  -22.9005   -6.5769 C   0  0  0  0  0  0  0  0  0  0  0  0
   16.6828  -23.6936   -5.3759 C   0  0  0  0  0  0  0  0  0  0  0  0
   15.3654  -23.1907   -4.8591 C   0  0  0  0  0  0  0  0  0  0  0  0
   14.8097  -23.7342   -3.8543 O   0  0  0  0  0  0  0  0  0  0  0  0
   18.4893  -24.8101   -7.3684 C   0  0  0  0  0  0  0  0  0  0  0  0
   18.1894  -25.3893   -8.4634 O   0  0  0  0  0  0  0  0  0  0  0  0
   14.7193  -22.1241   -5.4596 O   0  0  0  0  0  0  0  0  0  0  0  0
   18.9252  -25.6828   -6.3733 O   0  0  0  0  0  0  0  0  0  0  0  0
  2 13  1  0
  2  1  1  6
  3  2  1  0
  4  3  1  0
  4  5  2  0
  6  5  1  0
  7 12  2  0
  7  6  1  0
  8  7  1  0
  9 10  1  0
  9  8  2  0
 10 11  2  0
 11 12  1  0
 12  4  1  0
 13 14  2  0
 16 15  1  6
 16 18  1  0
 16 17  1  0
 18 19  1  6
 19 13  1  0
 20 18  1  0
 21 20  2  0
 22 20  1  0
 23 24  1  6
 23 22  1  0
 25 26  1  0
 25 24  1  0
 26 30  1  0
 27 26  2  0
 28 31  1  0
 28 23  1  0
 29 28  2  0
M  END
$$$$
