WVE.pdb
     RDKit          3D

 31 32  0  0  1  0  0  0  0  0999 V2000
   28.0426  -22.0741  -10.6135 N   0  0  0  0  0  0  0  0  0  0  0  0
   26.9999  -21.0429  -10.3709 C   0  0  1  0  0  0  0  0  0  0  0  0
   27.7369  -19.8120  -10.0179 C   0  0  0  0  0  0  0  0  0  0  0  0
   28.5089  -19.8886   -8.7827 C   0  0  0  0  0  0  0  0  0  0  0  0
   29.8146  -20.3947   -8.7682 C   0  0  0  0  0  0  0  0  0  0  0  0
   30.1970  -20.3668   -7.4868 N   0  0  0  0  0  0  0  0  0  0  0  0
   29.2266  -19.8795   -6.6998 C   0  0  0  0  0  0  0  0  0  0  0  0
   29.1296  -19.6358   -5.3446 C   0  0  0  0  0  0  0  0  0  0  0  0
   27.9821  -19.0975   -4.8298 C   0  0  0  0  0  0  0  0  0  0  0  0
   26.9174  -18.7930   -5.6442 C   0  0  0  0  0  0  0  0  0  0  0  0
   26.9884  -19.0263   -6.9945 C   0  0  0  0  0  0  0  0  0  0  0  0
   28.1541  -19.5729   -7.5070 C   0  0  0  0  0  0  0  0  0  0  0  0
   26.1737  -21.0216  -11.5837 C   0  0  0  0  0  0  0  0  0  0  0  0
   26.6883  -21.2763  -12.7058 O   0  0  0  0  0  0  0  0  0  0  0  0
   25.3085  -22.7985  -13.5987 C   0  0  0  0  0  0  0  0  0  0  0  0
   23.9959  -22.1653  -13.3237 C   0  0  1  0  0  0  0  0  0  0  0  0
   23.1983  -22.9757  -12.2928 C   0  0  0  0  0  0  0  0  0  0  0  0
   24.0028  -20.7545  -12.8532 C   0  0  2  0  0  0  0  0  0  0  0  0
   24.7887  -20.7207  -11.5918 N   0  0  0  0  0  0  0  0  0  0  0  0
   22.6802  -20.1532  -12.5998 C   0  0  0  0  0  0  0  0  0  0  0  0
   22.1949  -20.2109  -11.4476 O   0  0  0  0  0  0  0  0  0  0  0  0
   21.9516  -19.5144  -13.6130 N   0  0  0  0  0  0  0  0  0  0  0  0
   20.6606  -18.8710  -13.3699 C   0  0  1  0  0  0  0  0  0  0  0  0
   20.1983  -18.0893  -14.5359 C   0  0  0  0  0  0  0  0  0  0  0  0
   21.1931  -17.0250  -14.9098 C   0  0  0  0  0  0  0  0  0  0  0  0
   20.5021  -15.7127  -15.1465 C   0  0  0  0  0  0  0  0  0  0  0  0
   21.0274  -14.6215  -14.7628 O   0  0  0  0  0  0  0  0  0  0  0  0
   19.7287  -19.8564  -12.8612 C   0  0  0  0  0  0  0  0  0  0  0  0
   19.6406  -21.0730  -13.2307 O   0  0  0  0  0  0  0  0  0  0  0  0
   19.2768  -15.6526  -15.7874 O   0  0  0  0  0  0  0  0  0  0  0  0
   18.8139  -19.5033  -11.8710 O   0  0  0  0  0  0  0  0  0  0  0  0
  2 13  1  0
  2  1  1  6
  3  2  1  0
  4  3  1  0
  4  5  2  0
  6  5  1  0
  7 12  2  0
  7  6  1  0
  8  7  1  0
  9 10  1  0
  9  8  2  0
 10 11  2  0
 11 12  1  0
 12  4  1  0
 13 14  2  0
 16 15  1  1
 16 18  1  0
 16 17  1  0
 18 19  1  1
 19 13  1  0
 20 18  1  0
 21 20  2  0
 22 20  1  0
 23 24  1  6
 23 22  1  0
 25 26  1  0
 25 24  1  0
 26 30  1  0
 27 26  2  0
 28 31  1  0
 28 23  1  0
 29 28  2  0
M  END
$$$$
