WVE.pdb
     RDKit          3D

 31 32  0  0  1  0  0  0  0  0999 V2000
   22.4058  -14.1166  -17.4028 N   0  0  0  0  0  0  0  0  0  0  0  0
   22.2056  -12.7180  -17.8645 C   0  0  1  0  0  0  0  0  0  0  0  0
   20.7733  -12.6188  -18.2135 C   0  0  0  0  0  0  0  0  0  0  0  0
   20.3783  -13.3530  -19.4103 C   0  0  0  0  0  0  0  0  0  0  0  0
   19.6592  -14.5519  -19.3272 C   0  0  0  0  0  0  0  0  0  0  0  0
   19.5136  -14.9721  -20.5886 N   0  0  0  0  0  0  0  0  0  0  0  0
   20.0879  -14.1235  -21.4538 C   0  0  0  0  0  0  0  0  0  0  0  0
   20.1987  -14.0932  -22.8294 C   0  0  0  0  0  0  0  0  0  0  0  0
   20.8450  -13.0522  -23.4378 C   0  0  0  0  0  0  0  0  0  0  0  0
   21.3890  -12.0292  -22.6981 C   0  0  0  0  0  0  0  0  0  0  0  0
   21.2929  -12.0362  -21.3294 C   0  0  0  0  0  0  0  0  0  0  0  0
   20.6377  -13.0951  -20.7215 C   0  0  0  0  0  0  0  0  0  0  0  0
   22.7057  -11.8666  -16.7787 C   0  0  0  0  0  0  0  0  0  0  0  0
   22.3136  -12.0529  -15.5953 O   0  0  0  0  0  0  0  0  0  0  0  0
   26.0872  -11.4824  -15.5190 C   0  0  0  0  0  0  0  0  0  0  0  0
   25.5514  -10.1150  -15.7258 C   0  0  1  0  0  0  0  0  0  0  0  0
   26.1485   -9.4740  -16.9859 C   0  0  0  0  0  0  0  0  0  0  0  0
   24.0748   -9.9670  -15.8232 C   0  0  2  0  0  0  0  0  0  0  0  0
   23.6281  -10.8069  -16.9656 N   0  0  0  0  0  0  0  0  0  0  0  0
   23.5768   -8.5937  -16.0258 C   0  0  0  0  0  0  0  0  0  0  0  0
   23.7695   -8.0316  -17.1273 O   0  0  0  0  0  0  0  0  0  0  0  0
   22.8891   -7.9003  -15.0200 N   0  0  0  0  0  0  0  0  0  0  0  0
   22.3023   -6.5776  -15.2342 C   0  0  1  0  0  0  0  0  0  0  0  0
   21.4876   -6.5213  -16.4660 C   0  0  0  0  0  0  0  0  0  0  0  0
   20.2670   -7.3932  -16.3545 C   0  0  0  0  0  0  0  0  0  0  0  0
   19.3727   -7.2087  -17.5469 C   0  0  0  0  0  0  0  0  0  0  0  0
   18.5237   -8.0976  -17.8680 O   0  0  0  0  0  0  0  0  0  0  0  0
   21.6391   -6.1512  -14.0190 C   0  0  0  0  0  0  0  0  0  0  0  0
   21.1019   -5.0141  -13.8118 O   0  0  0  0  0  0  0  0  0  0  0  0
   19.4461   -6.0692  -18.3291 O   0  0  0  0  0  0  0  0  0  0  0  0
   21.5458   -7.0215  -12.9348 O   0  0  0  0  0  0  0  0  0  0  0  0
  2 13  1  0
  2  1  1  1
  3  2  1  0
  4  3  1  0
  4  5  2  0
  6  5  1  0
  7 12  2  0
  7  6  1  0
  8  7  1  0
  9 10  1  0
  9  8  2  0
 10 11  2  0
 11 12  1  0
 12  4  1  0
 13 14  2  0
 16 15  1  6
 16 18  1  0
 16 17  1  0
 18 19  1  6
 19 13  1  0
 20 18  1  0
 21 20  2  0
 22 20  1  0
 23 24  1  6
 23 22  1  0
 25 26  1  0
 25 24  1  0
 26 30  1  0
 27 26  2  0
 28 31  1  0
 28 23  1  0
 29 28  2  0
M  END
$$$$
