WVE.pdb
     RDKit          3D

 31 32  0  0  1  0  0  0  0  0999 V2000
   26.1253  -21.0669  -12.6697 N   0  0  0  0  0  0  0  0  0  0  0  0
   25.3550  -20.8855  -11.4114 C   0  0  1  0  0  0  0  0  0  0  0  0
   26.0448  -19.8035  -10.6790 C   0  0  0  0  0  0  0  0  0  0  0  0
   27.2652  -20.2066   -9.9894 C   0  0  0  0  0  0  0  0  0  0  0  0
   28.4122  -20.5864  -10.6975 C   0  0  0  0  0  0  0  0  0  0  0  0
   29.3089  -20.9361   -9.7686 N   0  0  0  0  0  0  0  0  0  0  0  0
   28.8068  -20.8017   -8.5324 C   0  0  0  0  0  0  0  0  0  0  0  0
   29.3184  -21.0087   -7.2671 C   0  0  0  0  0  0  0  0  0  0  0  0
   28.5434  -20.7538   -6.1690 C   0  0  0  0  0  0  0  0  0  0  0  0
   27.2558  -20.2919   -6.3049 C   0  0  0  0  0  0  0  0  0  0  0  0
   26.7237  -20.0787   -7.5515 C   0  0  0  0  0  0  0  0  0  0  0  0
   27.5154  -20.3407   -8.6581 C   0  0  0  0  0  0  0  0  0  0  0  0
   23.9666  -20.6537  -11.8264 C   0  0  0  0  0  0  0  0  0  0  0  0
   23.6174  -19.5269  -12.2702 O   0  0  0  0  0  0  0  0  0  0  0  0
   22.2764  -19.5201  -13.5582 C   0  0  0  0  0  0  0  0  0  0  0  0
   21.3410  -20.6165  -13.2081 C   0  0  1  0  0  0  0  0  0  0  0  0
   21.3849  -21.7346  -14.2586 C   0  0  0  0  0  0  0  0  0  0  0  0
   21.5127  -21.2635  -11.8802 C   0  0  2  0  0  0  0  0  0  0  0  0
   22.9469  -21.6360  -11.7602 N   0  0  0  0  0  0  0  0  0  0  0  0
   20.6927  -22.4652  -11.6380 C   0  0  0  0  0  0  0  0  0  0  0  0
   20.7890  -23.4370  -12.4207 O   0  0  0  0  0  0  0  0  0  0  0  0
   19.8101  -22.5518  -10.5521 N   0  0  0  0  0  0  0  0  0  0  0  0
   19.1860  -23.8096  -10.1419 C   0  0  1  0  0  0  0  0  0  0  0  0
   19.3347  -24.0599   -8.6929 C   0  0  0  0  0  0  0  0  0  0  0  0
   18.2505  -23.3760   -7.9059 C   0  0  0  0  0  0  0  0  0  0  0  0
   18.3809  -23.6870   -6.4424 C   0  0  0  0  0  0  0  0  0  0  0  0
   19.3292  -24.4155   -6.0133 O   0  0  0  0  0  0  0  0  0  0  0  0
   17.8320  -23.8557  -10.6545 C   0  0  0  0  0  0  0  0  0  0  0  0
   17.1120  -24.8985  -10.7912 O   0  0  0  0  0  0  0  0  0  0  0  0
   17.4754  -23.1915   -5.5203 O   0  0  0  0  0  0  0  0  0  0  0  0
   17.1986  -22.6805  -11.0541 O   0  0  0  0  0  0  0  0  0  0  0  0
  2 13  1  0
  2  1  1  6
  3  2  1  0
  4  3  1  0
  4  5  2  0
  6  5  1  0
  7 12  2  0
  7  6  1  0
  8  7  1  0
  9 10  1  0
  9  8  2  0
 10 11  2  0
 11 12  1  0
 12  4  1  0
 13 14  2  0
 16 15  1  6
 16 18  1  0
 16 17  1  0
 18 19  1  6
 19 13  1  0
 20 18  1  0
 21 20  2  0
 22 20  1  0
 23 24  1  1
 23 22  1  0
 25 26  1  0
 25 24  1  0
 26 30  1  0
 27 26  2  0
 28 31  1  0
 28 23  1  0
 29 28  2  0
M  END
$$$$
