WVE.pdb
     RDKit          3D

 31 32  0  0  1  0  0  0  0  0999 V2000
   27.5068  -19.8159  -11.2956 N   0  0  0  0  0  0  0  0  0  0  0  0
   26.8259  -21.1351  -11.2212 C   0  0  1  0  0  0  0  0  0  0  0  0
   26.4046  -21.2828   -9.8128 C   0  0  0  0  0  0  0  0  0  0  0  0
   27.4279  -20.9567   -8.8259 C   0  0  0  0  0  0  0  0  0  0  0  0
   27.1246  -20.2137   -7.6782 C   0  0  0  0  0  0  0  0  0  0  0  0
   28.2857  -20.0594   -7.0324 N   0  0  0  0  0  0  0  0  0  0  0  0
   29.2918  -20.6523   -7.6916 C   0  0  0  0  0  0  0  0  0  0  0  0
   30.6425  -20.7934   -7.4441 C   0  0  0  0  0  0  0  0  0  0  0  0
   31.4261  -21.4928   -8.3206 C   0  0  0  0  0  0  0  0  0  0  0  0
   30.8880  -22.0613   -9.4506 C   0  0  0  0  0  0  0  0  0  0  0  0
   29.5486  -21.9348   -9.7198 C   0  0  0  0  0  0  0  0  0  0  0  0
   28.7627  -21.2237   -8.8271 C   0  0  0  0  0  0  0  0  0  0  0  0
   25.7785  -21.0992  -12.2485 C   0  0  0  0  0  0  0  0  0  0  0  0
   25.4285  -20.0011  -12.7588 O   0  0  0  0  0  0  0  0  0  0  0  0
   25.8245  -23.1804  -15.4469 C   0  0  0  0  0  0  0  0  0  0  0  0
   24.4844  -23.2374  -14.8141 C   0  0  1  0  0  0  0  0  0  0  0  0
   24.2774  -24.5698  -14.0810 C   0  0  0  0  0  0  0  0  0  0  0  0
   24.1353  -22.1567  -13.8541 C   0  0  2  0  0  0  0  0  0  0  0  0
   25.1002  -22.2481  -12.7269 N   0  0  0  0  0  0  0  0  0  0  0  0
   22.7666  -22.1986  -13.3064 C   0  0  0  0  0  0  0  0  0  0  0  0
   22.5348  -22.9025  -12.2979 O   0  0  0  0  0  0  0  0  0  0  0  0
   21.7171  -21.4681  -13.8814 N   0  0  0  0  0  0  0  0  0  0  0  0
   20.3682  -21.4479  -13.3158 C   0  0  1  0  0  0  0  0  0  0  0  0
   19.8702  -20.0717  -13.1096 C   0  0  0  0  0  0  0  0  0  0  0  0
   19.0945  -19.5864  -14.3034 C   0  0  0  0  0  0  0  0  0  0  0  0
   18.5609  -18.2034  -14.0627 C   0  0  0  0  0  0  0  0  0  0  0  0
   18.7889  -17.5985  -12.9690 O   0  0  0  0  0  0  0  0  0  0  0  0
   19.5137  -22.3177  -14.0978 C   0  0  0  0  0  0  0  0  0  0  0  0
   18.3571  -22.7372  -13.7650 O   0  0  0  0  0  0  0  0  0  0  0  0
   17.8074  -17.5483  -15.0213 O   0  0  0  0  0  0  0  0  0  0  0  0
   19.9392  -22.7751  -15.3434 O   0  0  0  0  0  0  0  0  0  0  0  0
  2 13  1  0
  2  1  1  1
  3  2  1  0
  4  3  1  0
  4  5  2  0
  6  5  1  0
  7 12  2  0
  7  6  1  0
  8  7  1  0
  9 10  1  0
  9  8  2  0
 10 11  2  0
 11 12  1  0
 12  4  1  0
 13 14  2  0
 16 15  1  1
 16 18  1  0
 16 17  1  0
 18 19  1  1
 19 13  1  0
 20 18  1  0
 21 20  2  0
 22 20  1  0
 23 24  1  6
 23 22  1  0
 25 26  1  0
 25 24  1  0
 26 30  1  0
 27 26  2  0
 28 31  1  0
 28 23  1  0
 29 28  2  0
M  END
$$$$
