SCF.pdb
     RDKit          3D

 24 24  0  0  1  0  0  0  0  0999 V2000
    7.2067  -18.9871   23.8890 O   0  0  0  0  0  0  0  0  0  0  0  0
    5.9197  -18.8207   23.4180 C   0  0  0  0  0  0  0  0  0  0  0  0
    5.9689  -18.6667   21.9130 C   0  0  2  0  0  0  0  0  0  0  0  0
    6.3228  -19.9077   21.2889 N   0  0  0  0  0  0  0  0  0  0  0  0
    6.9142  -17.5688   21.6007 C   0  0  0  0  0  0  0  0  0  0  0  0
    8.0457  -17.8978   21.1702 O   0  0  0  0  0  0  0  0  0  0  0  0
    6.6286  -16.2063   21.7534 N   0  0  0  0  0  0  0  0  0  0  0  0
    7.5486  -15.1259   21.4692 C   0  0  1  0  0  0  0  0  0  0  0  0
    6.8460  -13.8182   21.2233 C   0  0  0  0  0  0  0  0  0  0  0  0
    8.0410  -12.5935   20.6650 S   0  0  0  0  0  0  0  0  0  0  0  0
    8.4666  -14.9260   22.6255 C   0  0  0  0  0  0  0  0  0  0  0  0
    9.4953  -14.1855   22.5186 O   0  0  0  0  0  0  0  0  0  0  0  0
    8.2280  -15.5461   23.8675 N   0  0  0  0  0  0  0  0  0  0  0  0
    9.1537  -15.4139   25.0019 C   0  0  1  0  0  0  0  0  0  0  0  0
    8.2636  -15.2064   26.2238 C   0  0  0  0  0  0  0  0  0  0  0  0
    7.7571  -13.8346   26.3322 C   0  0  0  0  0  0  0  0  0  0  0  0
    8.6096  -12.7570   26.4140 C   0  0  0  0  0  0  0  0  0  0  0  0
    8.0813  -11.4811   26.5159 C   0  0  0  0  0  0  0  0  0  0  0  0
    6.7208  -11.2528   26.5382 C   0  0  0  0  0  0  0  0  0  0  0  0
    5.8701  -12.3262   26.4567 C   0  0  0  0  0  0  0  0  0  0  0  0
    6.3997  -13.6187   26.3536 C   0  0  0  0  0  0  0  0  0  0  0  0
    9.8894  -16.6867   25.1392 C   0  0  0  0  0  0  0  0  0  0  0  0
   10.8268  -16.8247   26.1414 O   0  0  0  0  0  0  0  0  0  0  0  0
    9.7112  -17.6784   24.3807 O   0  0  0  0  0  0  0  0  0  0  0  0
  1  2  1  0
  2  3  1  0
  3  5  1  0
  3  4  1  6
  5  6  2  0
  7  8  1  0
  7  5  1  0
  8 11  1  0
  9 10  1  0
  8  9  1  1
 11 12  2  0
 11 13  1  0
 13 14  1  0
 14 22  1  0
 14 15  1  1
 16 15  1  0
 16 17  2  0
 18 17  1  0
 19 18  2  0
 20 21  2  0
 20 19  1  0
 21 16  1  0
 22 24  2  0
 22 23  1  0
M  END
$$$$
