SCF.pdb
     RDKit          3D

 24 24  0  0  1  0  0  0  0  0999 V2000
   11.2552  -19.2590   20.5434 O   0  0  0  0  0  0  0  0  0  0  0  0
   12.1719  -18.3320   20.0893 C   0  0  0  0  0  0  0  0  0  0  0  0
   11.4280  -17.2172   19.3856 C   0  0  2  0  0  0  0  0  0  0  0  0
   12.3457  -16.2476   18.8636 N   0  0  0  0  0  0  0  0  0  0  0  0
   10.4592  -16.6413   20.3480 C   0  0  0  0  0  0  0  0  0  0  0  0
   10.9237  -15.9030   21.2497 O   0  0  0  0  0  0  0  0  0  0  0  0
    9.0771  -16.8656   20.3152 N   0  0  0  0  0  0  0  0  0  0  0  0
    8.1183  -16.2896   21.2334 C   0  0  1  0  0  0  0  0  0  0  0  0
    6.6966  -16.6169   20.8648 C   0  0  0  0  0  0  0  0  0  0  0  0
    5.5947  -16.0467   22.1689 S   0  0  0  0  0  0  0  0  0  0  0  0
    8.3533  -16.8169   22.6069 C   0  0  0  0  0  0  0  0  0  0  0  0
    8.8142  -17.9893   22.7832 O   0  0  0  0  0  0  0  0  0  0  0  0
    8.0751  -16.0403   23.7486 N   0  0  0  0  0  0  0  0  0  0  0  0
    8.4017  -16.4966   25.1074 C   0  0  1  0  0  0  0  0  0  0  0  0
    8.9440  -15.2639   25.8249 C   0  0  0  0  0  0  0  0  0  0  0  0
    7.9599  -14.1809   25.9177 C   0  0  0  0  0  0  0  0  0  0  0  0
    7.0091  -14.1558   26.9126 C   0  0  0  0  0  0  0  0  0  0  0  0
    6.1012  -13.1111   26.9564 C   0  0  0  0  0  0  0  0  0  0  0  0
    6.1182  -12.0885   26.0303 C   0  0  0  0  0  0  0  0  0  0  0  0
    7.0656  -12.1125   25.0381 C   0  0  0  0  0  0  0  0  0  0  0  0
    7.9860  -13.1671   24.9897 C   0  0  0  0  0  0  0  0  0  0  0  0
    7.1478  -16.9312   25.7548 C   0  0  0  0  0  0  0  0  0  0  0  0
    7.1998  -17.5689   26.9766 O   0  0  0  0  0  0  0  0  0  0  0  0
    6.0060  -16.7525   25.2499 O   0  0  0  0  0  0  0  0  0  0  0  0
  1  2  1  0
  2  3  1  0
  3  5  1  0
  3  4  1  1
  5  6  2  0
  7  8  1  0
  7  5  1  0
  8 11  1  0
  9 10  1  0
  8  9  1  6
 11 12  2  0
 11 13  1  0
 13 14  1  0
 14 22  1  0
 14 15  1  1
 16 15  1  0
 16 17  2  0
 18 17  1  0
 19 18  2  0
 20 21  2  0
 20 19  1  0
 21 16  1  0
 22 24  2  0
 22 23  1  0
M  END
$$$$
