SCF.pdb
     RDKit          3D

 24 24  0  0  1  0  0  0  0  0999 V2000
    9.7644  -12.3892   19.8828 O   0  0  0  0  0  0  0  0  0  0  0  0
    9.9214  -13.6573   19.3602 C   0  0  0  0  0  0  0  0  0  0  0  0
    8.5654  -14.1797   18.9365 C   0  0  2  0  0  0  0  0  0  0  0  0
    7.8029  -13.1477   18.2973 N   0  0  0  0  0  0  0  0  0  0  0  0
    7.8985  -14.7355   20.1377 C   0  0  0  0  0  0  0  0  0  0  0  0
    6.6996  -14.4153   20.3220 O   0  0  0  0  0  0  0  0  0  0  0  0
    8.5131  -15.5837   21.0673 N   0  0  0  0  0  0  0  0  0  0  0  0
    7.8540  -16.1897   22.2043 C   0  0  1  0  0  0  0  0  0  0  0  0
    7.6823  -17.6764   22.0479 C   0  0  0  0  0  0  0  0  0  0  0  0
    9.2418  -18.4060   21.5226 S   0  0  0  0  0  0  0  0  0  0  0  0
    8.6605  -15.9631   23.4363 C   0  0  0  0  0  0  0  0  0  0  0  0
    9.9181  -15.7860   23.3667 O   0  0  0  0  0  0  0  0  0  0  0  0
    8.0616  -15.9377   24.7110 N   0  0  0  0  0  0  0  0  0  0  0  0
    8.8415  -15.7391   25.9412 C   0  0  1  0  0  0  0  0  0  0  0  0
    7.8547  -15.1643   26.9532 C   0  0  0  0  0  0  0  0  0  0  0  0
    7.4305  -13.8002   26.6224 C   0  0  0  0  0  0  0  0  0  0  0  0
    8.3006  -12.7366   26.7024 C   0  0  0  0  0  0  0  0  0  0  0  0
    7.8508  -11.4673   26.3799 C   0  0  0  0  0  0  0  0  0  0  0  0
    6.5518  -11.2319   25.9789 C   0  0  0  0  0  0  0  0  0  0  0  0
    5.6836  -12.2914   25.8989 C   0  0  0  0  0  0  0  0  0  0  0  0
    6.1339  -13.5771   26.2240 C   0  0  0  0  0  0  0  0  0  0  0  0
    9.3062  -17.0622   26.4036 C   0  0  0  0  0  0  0  0  0  0  0  0
   10.1965  -17.1404   27.4540 O   0  0  0  0  0  0  0  0  0  0  0  0
    8.9325  -18.1503   25.8870 O   0  0  0  0  0  0  0  0  0  0  0  0
  1  2  1  0
  2  3  1  0
  3  5  1  0
  3  4  1  1
  5  6  2  0
  7  8  1  0
  7  5  1  0
  8 11  1  0
  9 10  1  0
  8  9  1  6
 11 12  2  0
 11 13  1  0
 13 14  1  0
 14 22  1  0
 14 15  1  1
 16 15  1  0
 16 17  2  0
 18 17  1  0
 19 18  2  0
 20 21  2  0
 20 19  1  0
 21 16  1  0
 22 24  2  0
 22 23  1  0
M  END
$$$$
