SCF.pdb
     RDKit          3D

 24 24  0  0  1  0  0  0  0  0999 V2000
   10.2932  -19.6498   20.9085 O   0  0  0  0  0  0  0  0  0  0  0  0
    9.0299  -19.5475   20.3614 C   0  0  0  0  0  0  0  0  0  0  0  0
    9.0084  -18.3758   19.4034 C   0  0  2  0  0  0  0  0  0  0  0  0
    9.9172  -18.5943   18.3165 N   0  0  0  0  0  0  0  0  0  0  0  0
    9.3144  -17.1507   20.1793 C   0  0  0  0  0  0  0  0  0  0  0  0
   10.5190  -16.8072   20.2482 O   0  0  0  0  0  0  0  0  0  0  0  0
    8.3576  -16.3630   20.8315 N   0  0  0  0  0  0  0  0  0  0  0  0
    8.6474  -15.1889   21.6264 C   0  0  1  0  0  0  0  0  0  0  0  0
    7.5456  -14.1657   21.5688 C   0  0  0  0  0  0  0  0  0  0  0  0
    5.9671  -14.9686   21.8904 S   0  0  0  0  0  0  0  0  0  0  0  0
    8.8202  -15.5753   23.0549 C   0  0  0  0  0  0  0  0  0  0  0  0
    8.1063  -16.4927   23.5712 O   0  0  0  0  0  0  0  0  0  0  0  0
    9.7733  -14.9420   23.8761 N   0  0  0  0  0  0  0  0  0  0  0  0
    9.8484  -15.1859   25.3239 C   0  0  1  0  0  0  0  0  0  0  0  0
    8.4032  -15.3791   25.7736 C   0  0  0  0  0  0  0  0  0  0  0  0
    7.7152  -14.1113   26.0374 C   0  0  0  0  0  0  0  0  0  0  0  0
    8.2186  -13.1914   26.9289 C   0  0  0  0  0  0  0  0  0  0  0  0
    7.5306  -12.0090   27.1437 C   0  0  0  0  0  0  0  0  0  0  0  0
    6.3503  -11.7208   26.4899 C   0  0  0  0  0  0  0  0  0  0  0  0
    5.8476  -12.6372   25.6010 C   0  0  0  0  0  0  0  0  0  0  0  0
    6.5399  -13.8346   25.3804 C   0  0  0  0  0  0  0  0  0  0  0  0
   10.6015  -16.4383   25.5356 C   0  0  0  0  0  0  0  0  0  0  0  0
   11.0308  -17.1652   24.4450 O   0  0  0  0  0  0  0  0  0  0  0  0
   10.8832  -16.8962   26.6764 O   0  0  0  0  0  0  0  0  0  0  0  0
  1  2  1  0
  2  3  1  0
  3  5  1  0
  3  4  1  6
  5  6  2  0
  7  8  1  0
  7  5  1  0
  8 11  1  0
  9 10  1  0
  8  9  1  1
 11 12  2  0
 11 13  1  0
 13 14  1  0
 14 22  1  0
 14 15  1  6
 16 15  1  0
 16 17  2  0
 18 17  1  0
 19 18  2  0
 20 21  2  0
 20 19  1  0
 21 16  1  0
 22 24  2  0
 22 23  1  0
M  END
$$$$
