SCF.pdb
     RDKit          3D

 24 24  0  0  1  0  0  0  0  0999 V2000
    5.8353  -19.7417   24.7624 O   0  0  0  0  0  0  0  0  0  0  0  0
    6.9583  -19.7565   23.9595 C   0  0  0  0  0  0  0  0  0  0  0  0
    6.5422  -19.4535   22.5361 C   0  0  2  0  0  0  0  0  0  0  0  0
    6.7579  -20.5925   21.6928 N   0  0  0  0  0  0  0  0  0  0  0  0
    7.2880  -18.2522   22.0921 C   0  0  0  0  0  0  0  0  0  0  0  0
    8.3978  -18.4437   21.5395 O   0  0  0  0  0  0  0  0  0  0  0  0
    6.8387  -16.9349   22.2479 N   0  0  0  0  0  0  0  0  0  0  0  0
    7.5984  -15.7507   21.9092 C   0  0  1  0  0  0  0  0  0  0  0  0
    6.7204  -14.5592   21.6370 C   0  0  0  0  0  0  0  0  0  0  0  0
    7.7443  -13.1617   21.1485 S   0  0  0  0  0  0  0  0  0  0  0  0
    8.5007  -15.3885   23.0380 C   0  0  0  0  0  0  0  0  0  0  0  0
    9.4408  -14.5473   22.8748 O   0  0  0  0  0  0  0  0  0  0  0  0
    8.3443  -15.9614   24.3153 N   0  0  0  0  0  0  0  0  0  0  0  0
    9.2951  -15.7138   25.4088 C   0  0  1  0  0  0  0  0  0  0  0  0
    8.4323  -15.3843   26.6235 C   0  0  0  0  0  0  0  0  0  0  0  0
    7.8482  -14.0409   26.5588 C   0  0  0  0  0  0  0  0  0  0  0  0
    6.4994  -13.8516   26.3602 C   0  0  0  0  0  0  0  0  0  0  0  0
    5.9967  -12.5624   26.3059 C   0  0  0  0  0  0  0  0  0  0  0  0
    6.8078  -11.4551   26.4449 C   0  0  0  0  0  0  0  0  0  0  0  0
    8.1525  -11.6427   26.6428 C   0  0  0  0  0  0  0  0  0  0  0  0
    8.6656  -12.9447   26.6985 C   0  0  0  0  0  0  0  0  0  0  0  0
   10.0380  -16.9653   25.6575 C   0  0  0  0  0  0  0  0  0  0  0  0
    9.8037  -18.0646   24.8582 O   0  0  0  0  0  0  0  0  0  0  0  0
   10.8927  -17.0962   26.5757 O   0  0  0  0  0  0  0  0  0  0  0  0
  1  2  1  0
  2  3  1  0
  3  5  1  0
  3  4  1  6
  5  6  2  0
  7  8  1  0
  7  5  1  0
  8 11  1  0
  9 10  1  0
  8  9  1  1
 11 12  2  0
 11 13  1  0
 13 14  1  0
 14 22  1  0
 14 15  1  1
 16 15  1  0
 16 17  2  0
 18 17  1  0
 19 18  2  0
 20 21  2  0
 20 19  1  0
 21 16  1  0
 22 24  2  0
 22 23  1  0
M  END
$$$$
