SCF.pdb
     RDKit          3D

 24 24  0  0  1  0  0  0  0  0999 V2000
   10.4404  -13.4893   18.2974 O   0  0  0  0  0  0  0  0  0  0  0  0
    9.6203  -14.5747   18.5322 C   0  0  0  0  0  0  0  0  0  0  0  0
    8.1924  -14.0875   18.6546 C   0  0  2  0  0  0  0  0  0  0  0  0
    8.0889  -12.7169   18.2477 N   0  0  0  0  0  0  0  0  0  0  0  0
    7.7550  -14.3132   20.0526 C   0  0  0  0  0  0  0  0  0  0  0  0
    7.6318  -13.2991   20.7807 O   0  0  0  0  0  0  0  0  0  0  0  0
    7.4744  -15.5692   20.6048 N   0  0  0  0  0  0  0  0  0  0  0  0
    7.0771  -15.8057   21.9762 C   0  0  1  0  0  0  0  0  0  0  0  0
    6.1295  -16.9669   22.1112 C   0  0  0  0  0  0  0  0  0  0  0  0
    7.0312  -18.5054   21.8663 S   0  0  0  0  0  0  0  0  0  0  0  0
    8.2767  -16.1131   22.8045 C   0  0  0  0  0  0  0  0  0  0  0  0
    9.4370  -16.1388   22.2840 O   0  0  0  0  0  0  0  0  0  0  0  0
    8.1671  -16.3838   24.1825 N   0  0  0  0  0  0  0  0  0  0  0  0
    9.2808  -16.1646   25.1168 C   0  0  1  0  0  0  0  0  0  0  0  0
    9.5477  -14.6628   25.0774 C   0  0  0  0  0  0  0  0  0  0  0  0
    8.4406  -13.8737   25.6265 C   0  0  0  0  0  0  0  0  0  0  0  0
    7.3481  -13.5359   24.8603 C   0  0  0  0  0  0  0  0  0  0  0  0
    6.3289  -12.7882   25.4256 C   0  0  0  0  0  0  0  0  0  0  0  0
    6.3722  -12.3681   26.7390 C   0  0  0  0  0  0  0  0  0  0  0  0
    7.4607  -12.7042   27.5037 C   0  0  0  0  0  0  0  0  0  0  0  0
    8.4942  -13.4603   26.9365 C   0  0  0  0  0  0  0  0  0  0  0  0
    8.8233  -16.5481   26.4674 C   0  0  0  0  0  0  0  0  0  0  0  0
    7.5427  -17.0303   26.6393 O   0  0  0  0  0  0  0  0  0  0  0  0
    9.5457  -16.4604   27.4974 O   0  0  0  0  0  0  0  0  0  0  0  0
  1  2  1  0
  2  3  1  0
  3  5  1  0
  3  4  1  1
  5  6  2  0
  7  8  1  0
  7  5  1  0
  8 11  1  0
  9 10  1  0
  8  9  1  6
 11 12  2  0
 11 13  1  0
 13 14  1  0
 14 22  1  0
 14 15  1  1
 16 15  1  0
 16 17  2  0
 18 17  1  0
 19 18  2  0
 20 21  2  0
 20 19  1  0
 21 16  1  0
 22 24  2  0
 22 23  1  0
M  END
$$$$
