SCF.pdb
     RDKit          3D

 24 24  0  0  1  0  0  0  0  0999 V2000
    6.4367  -18.2841   23.7300 O   0  0  0  0  0  0  0  0  0  0  0  0
    6.6352  -19.3078   22.8253 C   0  0  0  0  0  0  0  0  0  0  0  0
    6.4495  -18.7624   21.4256 C   0  0  2  0  0  0  0  0  0  0  0  0
    6.7542  -19.7650   20.4474 N   0  0  0  0  0  0  0  0  0  0  0  0
    7.2917  -17.5497   21.2965 C   0  0  0  0  0  0  0  0  0  0  0  0
    8.4952  -17.7233   20.9879 O   0  0  0  0  0  0  0  0  0  0  0  0
    6.8358  -16.2404   21.4944 N   0  0  0  0  0  0  0  0  0  0  0  0
    7.6748  -15.0615   21.5187 C   0  0  1  0  0  0  0  0  0  0  0  0
    6.9453  -13.8237   21.0715 C   0  0  0  0  0  0  0  0  0  0  0  0
    8.1246  -12.4819   20.8507 S   0  0  0  0  0  0  0  0  0  0  0  0
    8.1596  -14.8142   22.9056 C   0  0  0  0  0  0  0  0  0  0  0  0
    8.1845  -13.6364   23.3854 O   0  0  0  0  0  0  0  0  0  0  0  0
    8.6037  -15.8691   23.7267 N   0  0  0  0  0  0  0  0  0  0  0  0
    8.9211  -15.6769   25.1492 C   0  0  1  0  0  0  0  0  0  0  0  0
    7.5831  -15.3873   25.8232 C   0  0  0  0  0  0  0  0  0  0  0  0
    7.4021  -13.9675   26.1416 C   0  0  0  0  0  0  0  0  0  0  0  0
    8.4762  -13.1172   26.2750 C   0  0  0  0  0  0  0  0  0  0  0  0
    8.2523  -11.7846   26.5773 C   0  0  0  0  0  0  0  0  0  0  0  0
    6.9808  -11.2779   26.7504 C   0  0  0  0  0  0  0  0  0  0  0  0
    5.9093  -12.1246   26.6177 C   0  0  0  0  0  0  0  0  0  0  0  0
    6.1307  -13.4733   26.3120 C   0  0  0  0  0  0  0  0  0  0  0  0
    9.4694  -16.9458   25.6682 C   0  0  0  0  0  0  0  0  0  0  0  0
   10.0811  -16.9663   26.9042 O   0  0  0  0  0  0  0  0  0  0  0  0
    9.4130  -18.0371   25.0386 O   0  0  0  0  0  0  0  0  0  0  0  0
  1  2  1  0
  2  3  1  0
  3  5  1  0
  3  4  1  6
  5  6  2  0
  7  8  1  0
  7  5  1  0
  8 11  1  0
  9 10  1  0
  8  9  1  1
 11 12  2  0
 11 13  1  0
 13 14  1  0
 14 22  1  0
 14 15  1  1
 16 15  1  0
 16 17  2  0
 18 17  1  0
 19 18  2  0
 20 21  2  0
 20 19  1  0
 21 16  1  0
 22 24  2  0
 22 23  1  0
M  END
$$$$
