SCF.pdb
     RDKit          3D

 24 24  0  0  1  0  0  0  0  0999 V2000
   13.2743  -14.4744   20.5493 O   0  0  0  0  0  0  0  0  0  0  0  0
   13.3356  -15.7588   20.0468 C   0  0  0  0  0  0  0  0  0  0  0  0
   12.2148  -15.9435   19.0464 C   0  0  2  0  0  0  0  0  0  0  0  0
   12.2345  -14.8980   18.0660 N   0  0  0  0  0  0  0  0  0  0  0  0
   10.9407  -16.0088   19.8007 C   0  0  0  0  0  0  0  0  0  0  0  0
   10.2360  -14.9710   19.8179 O   0  0  0  0  0  0  0  0  0  0  0  0
   10.4796  -17.1398   20.4860 N   0  0  0  0  0  0  0  0  0  0  0  0
    9.2012  -17.2433   21.1564 C   0  0  1  0  0  0  0  0  0  0  0  0
    8.8368  -18.6648   21.4894 C   0  0  0  0  0  0  0  0  0  0  0  0
    7.2048  -18.7013   22.2478 S   0  0  0  0  0  0  0  0  0  0  0  0
    9.2387  -16.4830   22.4372 C   0  0  0  0  0  0  0  0  0  0  0  0
   10.3151  -16.3938   23.1090 O   0  0  0  0  0  0  0  0  0  0  0  0
    8.0914  -15.8418   22.9437 N   0  0  0  0  0  0  0  0  0  0  0  0
    8.1153  -15.0547   24.1851 C   0  0  1  0  0  0  0  0  0  0  0  0
    7.0184  -14.0074   24.0171 C   0  0  0  0  0  0  0  0  0  0  0  0
    6.8212  -13.1922   25.2198 C   0  0  0  0  0  0  0  0  0  0  0  0
    7.7198  -12.2142   25.5816 C   0  0  0  0  0  0  0  0  0  0  0  0
    7.4888  -11.4719   26.7275 C   0  0  0  0  0  0  0  0  0  0  0  0
    6.3813  -11.6813   27.5233 C   0  0  0  0  0  0  0  0  0  0  0  0
    5.4850  -12.6559   27.1637 C   0  0  0  0  0  0  0  0  0  0  0  0
    5.7143  -13.4093   26.0055 C   0  0  0  0  0  0  0  0  0  0  0  0
    7.7683  -15.9562   25.3019 C   0  0  0  0  0  0  0  0  0  0  0  0
    8.4934  -15.8963   26.4735 O   0  0  0  0  0  0  0  0  0  0  0  0
    6.8297  -16.7971   25.2512 O   0  0  0  0  0  0  0  0  0  0  0  0
  1  2  1  0
  2  3  1  0
  3  5  1  0
  3  4  1  6
  5  6  2  0
  7  8  1  0
  7  5  1  0
  8 11  1  0
  9 10  1  0
  8  9  1  1
 11 12  2  0
 11 13  1  0
 13 14  1  0
 14 22  1  0
 14 15  1  6
 16 15  1  0
 16 17  2  0
 18 17  1  0
 19 18  2  0
 20 21  2  0
 20 19  1  0
 21 16  1  0
 22 24  2  0
 22 23  1  0
M  END
$$$$
