SCF.pdb
     RDKit          3D

 24 24  0  0  1  0  0  0  0  0999 V2000
   10.4573  -13.7276   20.0571 O   0  0  0  0  0  0  0  0  0  0  0  0
    9.7073  -14.4954   19.1889 C   0  0  0  0  0  0  0  0  0  0  0  0
    8.2619  -14.0542   19.2744 C   0  0  2  0  0  0  0  0  0  0  0  0
    8.1515  -12.6402   19.0671 N   0  0  0  0  0  0  0  0  0  0  0  0
    7.7316  -14.4923   20.5872 C   0  0  0  0  0  0  0  0  0  0  0  0
    7.5693  -13.6055   21.4596 O   0  0  0  0  0  0  0  0  0  0  0  0
    7.4046  -15.8149   20.9114 N   0  0  0  0  0  0  0  0  0  0  0  0
    6.8942  -16.2565   22.1915 C   0  0  1  0  0  0  0  0  0  0  0  0
    6.4074  -17.6800   22.1596 C   0  0  0  0  0  0  0  0  0  0  0  0
    5.6200  -18.0776   23.7287 S   0  0  0  0  0  0  0  0  0  0  0  0
    7.9699  -16.1782   23.2192 C   0  0  0  0  0  0  0  0  0  0  0  0
    9.1876  -16.3629   22.9013 O   0  0  0  0  0  0  0  0  0  0  0  0
    7.6769  -15.8990   24.5684 N   0  0  0  0  0  0  0  0  0  0  0  0
    8.7288  -15.6627   25.5679 C   0  0  1  0  0  0  0  0  0  0  0  0
    7.9961  -15.1704   26.8125 C   0  0  0  0  0  0  0  0  0  0  0  0
    7.3747  -13.8557   26.6239 C   0  0  0  0  0  0  0  0  0  0  0  0
    6.0166  -13.6760   26.7571 C   0  0  0  0  0  0  0  0  0  0  0  0
    5.4781  -12.4143   26.5680 C   0  0  0  0  0  0  0  0  0  0  0  0
    6.2624  -11.3251   26.2487 C   0  0  0  0  0  0  0  0  0  0  0  0
    7.6163  -11.5031   26.1156 C   0  0  0  0  0  0  0  0  0  0  0  0
    8.1657  -12.7773   26.3059 C   0  0  0  0  0  0  0  0  0  0  0  0
    9.3786  -16.9564   25.8586 C   0  0  0  0  0  0  0  0  0  0  0  0
   10.5839  -16.9756   26.5286 O   0  0  0  0  0  0  0  0  0  0  0  0
    8.8905  -18.0705   25.5252 O   0  0  0  0  0  0  0  0  0  0  0  0
  1  2  1  0
  2  3  1  0
  3  5  1  0
  3  4  1  1
  5  6  2  0
  7  8  1  0
  7  5  1  0
  8 11  1  0
  9 10  1  0
  8  9  1  6
 11 12  2  0
 11 13  1  0
 13 14  1  0
 14 22  1  0
 14 15  1  1
 16 15  1  0
 16 17  2  0
 18 17  1  0
 19 18  2  0
 20 21  2  0
 20 19  1  0
 21 16  1  0
 22 24  2  0
 22 23  1  0
M  END
$$$$
