SCF.pdb
     RDKit          3D

 24 24  0  0  1  0  0  0  0  0999 V2000
   10.5419  -19.0944   21.3055 O   0  0  0  0  0  0  0  0  0  0  0  0
   10.3653  -19.0557   19.9369 C   0  0  0  0  0  0  0  0  0  0  0  0
    9.0463  -18.3769   19.6359 C   0  0  2  0  0  0  0  0  0  0  0  0
    9.1670  -17.5219   18.4917 N   0  0  0  0  0  0  0  0  0  0  0  0
    8.6190  -17.6554   20.8580 C   0  0  0  0  0  0  0  0  0  0  0  0
    8.9645  -16.4537   20.9591 O   0  0  0  0  0  0  0  0  0  0  0  0
    7.8643  -18.2221   21.8927 N   0  0  0  0  0  0  0  0  0  0  0  0
    7.4072  -17.5180   23.0716 C   0  0  1  0  0  0  0  0  0  0  0  0
    6.3720  -18.2922   23.8418 C   0  0  0  0  0  0  0  0  0  0  0  0
    5.9872  -17.4200   25.3687 S   0  0  0  0  0  0  0  0  0  0  0  0
    8.5536  -17.2734   23.9910 C   0  0  0  0  0  0  0  0  0  0  0  0
    9.4323  -18.1718   24.1879 O   0  0  0  0  0  0  0  0  0  0  0  0
    8.7022  -16.0475   24.6687 N   0  0  0  0  0  0  0  0  0  0  0  0
    9.8097  -15.7952   25.6019 C   0  0  1  0  0  0  0  0  0  0  0  0
    9.9351  -14.2762   25.6742 C   0  0  0  0  0  0  0  0  0  0  0  0
    8.6550  -13.6117   25.9384 C   0  0  0  0  0  0  0  0  0  0  0  0
    8.2530  -13.3077   27.2192 C   0  0  0  0  0  0  0  0  0  0  0  0
    7.0342  -12.6804   27.4161 C   0  0  0  0  0  0  0  0  0  0  0  0
    6.2048  -12.3482   26.3649 C   0  0  0  0  0  0  0  0  0  0  0  0
    6.6045  -12.6509   25.0877 C   0  0  0  0  0  0  0  0  0  0  0  0
    7.8363  -13.2853   24.8835 C   0  0  0  0  0  0  0  0  0  0  0  0
    9.4180  -16.3204   26.9251 C   0  0  0  0  0  0  0  0  0  0  0  0
   10.3185  -16.2725   27.9686 O   0  0  0  0  0  0  0  0  0  0  0  0
    8.2864  -16.8219   27.1673 O   0  0  0  0  0  0  0  0  0  0  0  0
  1  2  1  0
  2  3  1  0
  3  5  1  0
  3  4  1  6
  5  6  2  0
  7  8  1  0
  7  5  1  0
  8 11  1  0
  9 10  1  0
  8  9  1  1
 11 12  2  0
 11 13  1  0
 13 14  1  0
 14 22  1  0
 14 15  1  1
 16 15  1  0
 16 17  2  0
 18 17  1  0
 19 18  2  0
 20 21  2  0
 20 19  1  0
 21 16  1  0
 22 24  2  0
 22 23  1  0
M  END
$$$$
