PGA.pdb
     RDKit          3D

 17 17  0  0  1  0  0  0  0  0999 V2000
    7.9337  -15.0163   18.6824 N   0  0  0  0  0  0  0  0  0  0  0  0
    7.1398  -14.1609   17.8232 C   0  0  0  0  0  0  0  0  0  0  0  0
    7.3287  -12.7502   18.3280 C   0  0  0  0  0  0  0  0  0  0  0  0
    8.7101  -12.7828   18.8934 C   0  0  0  0  0  0  0  0  0  0  0  0
    8.9000  -14.1995   19.3422 C   0  0  1  0  0  0  0  0  0  0  0  0
    8.6662  -14.2624   20.8210 C   0  0  0  0  0  0  0  0  0  0  0  0
    9.4092  -13.6268   21.6098 O   0  0  0  0  0  0  0  0  0  0  0  0
    7.6048  -15.0378   21.3634 N   0  0  0  0  0  0  0  0  0  0  0  0
    7.3421  -15.1108   22.7860 C   0  0  0  0  0  0  0  0  0  0  0  0
    8.3116  -15.9913   23.4855 C   0  0  0  0  0  0  0  0  0  0  0  0
    8.2920  -16.1601   24.7390 O   0  0  0  0  0  0  0  0  0  0  0  0
   10.9218  -18.2999   22.1631 C   0  0  0  0  0  0  0  0  0  0  0  0
   10.2320  -17.5557   23.2996 C   0  0  2  0  0  0  0  0  0  0  0  0
    9.2813  -16.6516   22.6884 N   0  0  0  0  0  0  0  0  0  0  0  0
   11.2543  -16.7628   24.0152 C   0  0  0  0  0  0  0  0  0  0  0  0
   11.8259  -17.2034   25.0572 O   0  0  0  0  0  0  0  0  0  0  0  0
   11.6244  -15.5079   23.5712 O   0  0  0  0  0  0  0  0  0  0  0  0
  1  2  1  0
  1  5  1  0
  2  3  1  0
  3  4  1  0
  5  6  1  1
  5  4  1  0
  6  7  2  0
  8  9  1  0
  8  6  1  0
  9 10  1  0
 10 14  1  0
 11 10  2  0
 13 12  1  6
 14 13  1  0
 15 13  1  0
 16 15  2  0
 17 15  1  0
M  END
$$$$
