PGA.pdb
     RDKit          3D

 17 17  0  0  1  0  0  0  0  0999 V2000
    8.5281  -14.7749   18.2562 N   0  0  0  0  0  0  0  0  0  0  0  0
    8.0290  -13.7991   17.3081 C   0  0  0  0  0  0  0  0  0  0  0  0
    7.3583  -12.7159   18.1188 C   0  0  0  0  0  0  0  0  0  0  0  0
    8.1327  -12.7299   19.3953 C   0  0  0  0  0  0  0  0  0  0  0  0
    8.6036  -14.1454   19.5345 C   0  0  1  0  0  0  0  0  0  0  0  0
    7.6892  -14.8565   20.4850 C   0  0  0  0  0  0  0  0  0  0  0  0
    6.9109  -15.7508   20.0695 O   0  0  0  0  0  0  0  0  0  0  0  0
    7.6805  -14.5384   21.8709 N   0  0  0  0  0  0  0  0  0  0  0  0
    6.8972  -15.2826   22.8356 C   0  0  0  0  0  0  0  0  0  0  0  0
    7.7088  -16.3093   23.5366 C   0  0  0  0  0  0  0  0  0  0  0  0
    7.2317  -17.0432   24.4499 O   0  0  0  0  0  0  0  0  0  0  0  0
   10.5633  -18.2242   22.6203 C   0  0  0  0  0  0  0  0  0  0  0  0
    9.9025  -17.4534   23.7562 C   0  0  2  0  0  0  0  0  0  0  0  0
    9.0646  -16.4453   23.1429 N   0  0  0  0  0  0  0  0  0  0  0  0
   10.9660  -16.7830   24.5344 C   0  0  0  0  0  0  0  0  0  0  0  0
   11.2663  -15.5674   24.3371 O   0  0  0  0  0  0  0  0  0  0  0  0
   11.6732  -17.4610   25.5086 O   0  0  0  0  0  0  0  0  0  0  0  0
  1  2  1  0
  1  5  1  0
  2  3  1  0
  3  4  1  0
  5  6  1  1
  5  4  1  0
  6  7  2  0
  8  9  1  0
  8  6  1  0
  9 10  1  0
 10 14  1  0
 11 10  2  0
 13 12  1  6
 14 13  1  0
 15 13  1  0
 16 15  2  0
 17 15  1  0
M  END
$$$$
