PGA.pdb
     RDKit          3D

 17 17  0  0  1  0  0  0  0  0999 V2000
    7.2438  -15.1197   20.2166 N   0  0  0  0  0  0  0  0  0  0  0  0
    6.6495  -14.1917   19.2754 C   0  0  0  0  0  0  0  0  0  0  0  0
    7.4374  -12.9078   19.3817 C   0  0  0  0  0  0  0  0  0  0  0  0
    8.8000  -13.3857   19.7612 C   0  0  0  0  0  0  0  0  0  0  0  0
    8.5560  -14.6515   20.5246 C   0  0  1  0  0  0  0  0  0  0  0  0
    8.6346  -14.3432   21.9889 C   0  0  0  0  0  0  0  0  0  0  0  0
    9.7294  -14.0181   22.5123 O   0  0  0  0  0  0  0  0  0  0  0  0
    7.4796  -14.4107   22.8156 N   0  0  0  0  0  0  0  0  0  0  0  0
    7.5124  -14.0864   24.2269 C   0  0  0  0  0  0  0  0  0  0  0  0
    7.5758  -15.3032   25.0752 C   0  0  0  0  0  0  0  0  0  0  0  0
    7.6873  -15.2469   26.3341 O   0  0  0  0  0  0  0  0  0  0  0  0
    6.7943  -18.8317   24.3376 C   0  0  0  0  0  0  0  0  0  0  0  0
    7.5024  -17.7835   25.1867 C   0  0  2  0  0  0  0  0  0  0  0  0
    7.5060  -16.5577   24.4173 N   0  0  0  0  0  0  0  0  0  0  0  0
    8.8987  -18.2252   25.3897 C   0  0  0  0  0  0  0  0  0  0  0  0
    9.1818  -19.2052   26.1421 O   0  0  0  0  0  0  0  0  0  0  0  0
    9.9491  -17.5822   24.7635 O   0  0  0  0  0  0  0  0  0  0  0  0
  1  2  1  0
  1  5  1  0
  2  3  1  0
  3  4  1  0
  5  6  1  1
  5  4  1  0
  6  7  2  0
  8  9  1  0
  8  6  1  0
  9 10  1  0
 10 14  1  0
 11 10  2  0
 13 12  1  6
 14 13  1  0
 15 13  1  0
 16 15  2  0
 17 15  1  0
M  END
$$$$
