PGA.pdb
     RDKit          3D

 17 17  0  0  1  0  0  0  0  0999 V2000
    8.6672  -14.6846   18.0362 N   0  0  0  0  0  0  0  0  0  0  0  0
    7.4508  -13.9049   17.9237 C   0  0  0  0  0  0  0  0  0  0  0  0
    7.3529  -13.0770   19.1829 C   0  0  0  0  0  0  0  0  0  0  0  0
    8.7840  -12.8573   19.5471 C   0  0  0  0  0  0  0  0  0  0  0  0
    9.4970  -14.0635   19.0168 C   0  0  1  0  0  0  0  0  0  0  0  0
    9.7155  -15.0197   20.1497 C   0  0  0  0  0  0  0  0  0  0  0  0
    9.0902  -16.1085   20.1924 O   0  0  0  0  0  0  0  0  0  0  0  0
   10.6298  -14.7198   21.1966 N   0  0  0  0  0  0  0  0  0  0  0  0
   11.1201  -15.7273   22.1145 C   0  0  0  0  0  0  0  0  0  0  0  0
   10.2945  -15.8057   23.3460 C   0  0  0  0  0  0  0  0  0  0  0  0
   10.5716  -16.5900   24.2992 O   0  0  0  0  0  0  0  0  0  0  0  0
    7.4037  -13.7793   24.5230 C   0  0  0  0  0  0  0  0  0  0  0  0
    8.2739  -15.0292   24.5642 C   0  0  2  0  0  0  0  0  0  0  0  0
    9.1612  -14.9564   23.4232 N   0  0  0  0  0  0  0  0  0  0  0  0
    7.3926  -16.2064   24.4106 C   0  0  0  0  0  0  0  0  0  0  0  0
    7.3128  -16.8368   23.3138 O   0  0  0  0  0  0  0  0  0  0  0  0
    6.6212  -16.6628   25.4621 O   0  0  0  0  0  0  0  0  0  0  0  0
  1  2  1  0
  1  5  1  0
  2  3  1  0
  3  4  1  0
  5  6  1  1
  5  4  1  0
  6  7  2  0
  8  9  1  0
  8  6  1  0
  9 10  1  0
 10 14  1  0
 11 10  2  0
 13 12  1  6
 14 13  1  0
 15 13  1  0
 16 15  2  0
 17 15  1  0
M  END
$$$$
