PGA.pdb
     RDKit          3D

 17 17  0  0  1  0  0  0  0  0999 V2000
    8.3305  -15.2489   20.1720 N   0  0  0  0  0  0  0  0  0  0  0  0
    7.2593  -14.7607   19.3268 C   0  0  0  0  0  0  0  0  0  0  0  0
    6.9211  -13.3738   19.8194 C   0  0  0  0  0  0  0  0  0  0  0  0
    8.2267  -12.8841   20.3529 C   0  0  0  0  0  0  0  0  0  0  0  0
    8.9373  -14.1231   20.8049 C   0  0  1  0  0  0  0  0  0  0  0  0
    8.7724  -14.2481   22.2890 C   0  0  0  0  0  0  0  0  0  0  0  0
    9.1062  -13.3040   23.0476 O   0  0  0  0  0  0  0  0  0  0  0  0
    8.2376  -15.4304   22.8705 N   0  0  0  0  0  0  0  0  0  0  0  0
    7.8880  -15.5186   24.2734 C   0  0  0  0  0  0  0  0  0  0  0  0
    9.0451  -15.2194   25.1541 C   0  0  0  0  0  0  0  0  0  0  0  0
   10.2316  -15.1625   24.7188 O   0  0  0  0  0  0  0  0  0  0  0  0
    9.2486  -13.5448   28.3605 C   0  0  0  0  0  0  0  0  0  0  0  0
    9.8380  -14.5909   27.4226 C   0  0  2  0  0  0  0  0  0  0  0  0
    8.7743  -14.9944   26.5280 N   0  0  0  0  0  0  0  0  0  0  0  0
   10.2475  -15.7561   28.2353 C   0  0  0  0  0  0  0  0  0  0  0  0
   11.2267  -15.6940   29.0378 O   0  0  0  0  0  0  0  0  0  0  0  0
    9.5742  -16.9594   28.1483 O   0  0  0  0  0  0  0  0  0  0  0  0
  1  2  1  0
  1  5  1  0
  2  3  1  0
  3  4  1  0
  5  6  1  1
  5  4  1  0
  6  7  2  0
  8  9  1  0
  8  6  1  0
  9 10  1  0
 10 14  1  0
 11 10  2  0
 13 12  1  1
 14 13  1  0
 15 13  1  0
 16 15  2  0
 17 15  1  0
M  END
$$$$
