LCY.pdb
     RDKit          3D

 27 27  0  0  1  0  0  0  0  0999 V2000
    7.0469  -12.0131   18.6334 C   0  0  0  0  0  0  0  0  0  0  0  0
    7.5971  -13.3990   18.6698 C   0  0  1  0  0  0  0  0  0  0  0  0
    8.9232  -13.3952   17.9173 C   0  0  0  0  0  0  0  0  0  0  0  0
    7.8117  -13.8557   20.0695 C   0  0  0  0  0  0  0  0  0  0  0  0
    8.3867  -15.2462   20.2021 C   0  0  2  0  0  0  0  0  0  0  0  0
    7.5575  -16.1696   19.4626 N   0  0  0  0  0  0  0  0  0  0  0  0
    8.2931  -15.6425   21.6280 C   0  0  0  0  0  0  0  0  0  0  0  0
    8.9117  -14.8814   22.4487 O   0  0  0  0  0  0  0  0  0  0  0  0
    7.5840  -16.7736   22.1114 N   0  0  0  0  0  0  0  0  0  0  0  0
    7.6889  -17.1131   23.4989 C   0  0  1  0  0  0  0  0  0  0  0  0
    6.6026  -18.0984   23.8916 C   0  0  0  0  0  0  0  0  0  0  0  0
    6.7086  -18.5870   25.6122 S   0  0  0  0  0  0  0  0  0  0  0  0
    9.0359  -17.6231   23.8684 C   0  0  0  0  0  0  0  0  0  0  0  0
    9.6554  -18.4970   23.2233 O   0  0  0  0  0  0  0  0  0  0  0  0
    9.5136  -14.1426   30.7928 O   0  0  0  0  0  0  0  0  0  0  0  0
   10.0301  -14.6255   29.5975 C   0  0  0  0  0  0  0  0  0  0  0  0
    9.7139  -14.0693   28.3791 C   0  0  0  0  0  0  0  0  0  0  0  0
   10.2491  -14.5789   27.2109 C   0  0  0  0  0  0  0  0  0  0  0  0
   11.1125  -15.6523   27.2063 C   0  0  0  0  0  0  0  0  0  0  0  0
   11.6845  -16.1978   25.9607 C   0  0  0  0  0  0  0  0  0  0  0  0
   10.9883  -17.4431   25.4591 C   0  0  2  0  0  0  0  0  0  0  0  0
    9.6510  -17.0781   25.0288 N   0  0  0  0  0  0  0  0  0  0  0  0
   10.9840  -18.5341   26.4346 C   0  0  0  0  0  0  0  0  0  0  0  0
    9.8992  -18.9053   26.9427 O   0  0  0  0  0  0  0  0  0  0  0  0
   11.4148  -16.1942   28.4479 C   0  0  0  0  0  0  0  0  0  0  0  0
   10.8898  -15.6982   29.6230 C   0  0  0  0  0  0  0  0  0  0  0  0
   12.1419  -19.1772   26.8199 O   0  0  0  0  0  0  0  0  0  0  0  0
  2  3  1  6
  2  1  1  0
  4  2  1  0
  4  5  1  0
  5  7  1  0
  5  6  1  6
  7  8  2  0
  9 10  1  0
  9  7  1  0
 10 11  1  6
 11 12  1  0
 13 14  2  0
 13 10  1  0
 15 16  1  0
 16 26  2  0
 16 17  1  0
 17 18  2  0
 18 19  1  0
 19 20  1  0
 21 20  1  1
 21 22  1  0
 21 23  1  0
 22 13  1  0
 23 27  1  0
 24 23  2  0
 25 19  2  0
 26 25  1  0
M  END
$$$$
