LCY.pdb
     RDKit          3D

 27 27  0  0  1  0  0  0  0  0999 V2000
    6.8734  -12.3591   17.7242 C   0  0  0  0  0  0  0  0  0  0  0  0
    7.8911  -13.3840   18.0970 C   0  0  1  0  0  0  0  0  0  0  0  0
    9.2281  -12.6725   18.2730 C   0  0  0  0  0  0  0  0  0  0  0  0
    7.5180  -14.0777   19.3593 C   0  0  0  0  0  0  0  0  0  0  0  0
    8.5182  -15.1027   19.8395 C   0  0  2  0  0  0  0  0  0  0  0  0
    8.4921  -16.2382   18.9467 N   0  0  0  0  0  0  0  0  0  0  0  0
    8.0647  -15.5948   21.1629 C   0  0  0  0  0  0  0  0  0  0  0  0
    8.0625  -14.7233   22.0988 O   0  0  0  0  0  0  0  0  0  0  0  0
    7.6505  -16.9251   21.4360 N   0  0  0  0  0  0  0  0  0  0  0  0
    7.2565  -17.2653   22.7703 C   0  0  1  0  0  0  0  0  0  0  0  0
    6.5193  -18.5926   22.7878 C   0  0  0  0  0  0  0  0  0  0  0  0
    6.3184  -19.2442   24.4447 S   0  0  0  0  0  0  0  0  0  0  0  0
    8.3962  -17.2713   23.7253 C   0  0  0  0  0  0  0  0  0  0  0  0
    9.2513  -18.1814   23.7899 O   0  0  0  0  0  0  0  0  0  0  0  0
   11.6673  -15.1171   31.6819 O   0  0  0  0  0  0  0  0  0  0  0  0
   11.0257  -15.0588   30.4515 C   0  0  0  0  0  0  0  0  0  0  0  0
   10.0499  -14.1296   30.1718 C   0  0  0  0  0  0  0  0  0  0  0  0
    9.4344  -14.1038   28.9343 C   0  0  0  0  0  0  0  0  0  0  0  0
    9.7609  -14.9925   27.9337 C   0  0  0  0  0  0  0  0  0  0  0  0
    9.1050  -14.9669   26.6125 C   0  0  0  0  0  0  0  0  0  0  0  0
    9.4322  -16.1590   25.7413 C   0  0  2  0  0  0  0  0  0  0  0  0
    8.5141  -16.1701   24.6171 N   0  0  0  0  0  0  0  0  0  0  0  0
    9.4346  -17.4257   26.4743 C   0  0  0  0  0  0  0  0  0  0  0  0
   10.5161  -18.0347   26.6535 O   0  0  0  0  0  0  0  0  0  0  0  0
   10.7476  -15.9188   28.2419 C   0  0  0  0  0  0  0  0  0  0  0  0
   11.3718  -15.9585   29.4712 C   0  0  0  0  0  0  0  0  0  0  0  0
    8.2783  -17.9807   26.9821 O   0  0  0  0  0  0  0  0  0  0  0  0
  2  3  1  1
  2  1  1  0
  4  2  1  0
  4  5  1  0
  5  7  1  0
  5  6  1  6
  7  8  2  0
  9 10  1  0
  9  7  1  0
 10 11  1  6
 11 12  1  0
 13 14  2  0
 13 10  1  0
 15 16  1  0
 16 26  2  0
 16 17  1  0
 17 18  2  0
 18 19  1  0
 19 20  1  0
 21 20  1  1
 21 22  1  0
 21 23  1  0
 22 13  1  0
 23 27  1  0
 24 23  2  0
 25 19  2  0
 26 25  1  0
M  END
$$$$
