LCY.pdb
     RDKit          3D

 27 27  0  0  1  0  0  0  0  0999 V2000
    6.8545  -12.0749   19.5999 C   0  0  0  0  0  0  0  0  0  0  0  0
    7.6596  -13.0854   18.8545 C   0  0  1  0  0  0  0  0  0  0  0  0
    9.0265  -12.4742   18.5669 C   0  0  0  0  0  0  0  0  0  0  0  0
    7.8212  -14.3345   19.6466 C   0  0  0  0  0  0  0  0  0  0  0  0
    8.5560  -15.4461   18.9354 C   0  0  2  0  0  0  0  0  0  0  0  0
    7.6264  -16.1562   18.0876 N   0  0  0  0  0  0  0  0  0  0  0  0
    9.0178  -16.4138   19.9600 C   0  0  0  0  0  0  0  0  0  0  0  0
    8.0902  -17.0507   20.5677 O   0  0  0  0  0  0  0  0  0  0  0  0
   10.3765  -16.6608   20.2893 N   0  0  0  0  0  0  0  0  0  0  0  0
   10.6743  -17.5695   21.3556 C   0  0  1  0  0  0  0  0  0  0  0  0
   11.6627  -18.6266   20.8967 C   0  0  0  0  0  0  0  0  0  0  0  0
   12.1529  -19.7291   22.2213 S   0  0  0  0  0  0  0  0  0  0  0  0
   11.1548  -16.8817   22.5832 C   0  0  0  0  0  0  0  0  0  0  0  0
   12.0877  -16.0491   22.6001 O   0  0  0  0  0  0  0  0  0  0  0  0
   10.7888  -14.3354   31.1035 O   0  0  0  0  0  0  0  0  0  0  0  0
   10.5168  -14.8176   29.8298 C   0  0  0  0  0  0  0  0  0  0  0  0
   10.2368  -13.9854   28.7702 C   0  0  0  0  0  0  0  0  0  0  0  0
    9.9711  -14.5042   27.5167 C   0  0  0  0  0  0  0  0  0  0  0  0
    9.9729  -15.8591   27.2679 C   0  0  0  0  0  0  0  0  0  0  0  0
    9.6894  -16.4149   25.9310 C   0  0  0  0  0  0  0  0  0  0  0  0
   10.9228  -16.6411   25.0858 C   0  0  2  0  0  0  0  0  0  0  0  0
   10.5082  -17.1955   23.8101 N   0  0  0  0  0  0  0  0  0  0  0  0
   11.9348  -17.4631   25.7507 C   0  0  0  0  0  0  0  0  0  0  0  0
   11.8002  -18.7097   25.7761 O   0  0  0  0  0  0  0  0  0  0  0  0
   10.2582  -16.6758   28.3533 C   0  0  0  0  0  0  0  0  0  0  0  0
   10.5255  -16.1749   29.6103 C   0  0  0  0  0  0  0  0  0  0  0  0
   13.0445  -16.9115   26.3566 O   0  0  0  0  0  0  0  0  0  0  0  0
  2  3  1  1
  2  1  1  0
  4  2  1  0
  4  5  1  0
  5  7  1  0
  5  6  1  6
  7  8  2  0
  9 10  1  0
  9  7  1  0
 10 11  1  6
 11 12  1  0
 13 14  2  0
 13 10  1  0
 15 16  1  0
 16 26  2  0
 16 17  1  0
 17 18  2  0
 18 19  1  0
 19 20  1  0
 21 20  1  1
 21 22  1  0
 21 23  1  0
 22 13  1  0
 23 27  1  0
 24 23  2  0
 25 19  2  0
 26 25  1  0
M  END
$$$$
