LCY.pdb
     RDKit          3D

 27 27  0  0  1  0  0  0  0  0999 V2000
    6.8338  -12.1662   19.3892 C   0  0  0  0  0  0  0  0  0  0  0  0
    7.6853  -13.3892   19.4529 C   0  0  1  0  0  0  0  0  0  0  0  0
    9.1409  -12.9418   19.5300 C   0  0  0  0  0  0  0  0  0  0  0  0
    7.3478  -14.2179   20.6418 C   0  0  0  0  0  0  0  0  0  0  0  0
    8.1908  -15.4600   20.8093 C   0  0  2  0  0  0  0  0  0  0  0  0
    7.8072  -16.4266   19.8064 N   0  0  0  0  0  0  0  0  0  0  0  0
    7.8589  -16.0604   22.1241 C   0  0  0  0  0  0  0  0  0  0  0  0
    6.6622  -15.8622   22.5291 O   0  0  0  0  0  0  0  0  0  0  0  0
    8.7597  -16.8115   22.9242 N   0  0  0  0  0  0  0  0  0  0  0  0
    8.3236  -17.2713   24.2086 C   0  0  1  0  0  0  0  0  0  0  0  0
    8.0876  -18.7710   24.1875 C   0  0  0  0  0  0  0  0  0  0  0  0
    7.6101  -19.4132   25.7906 S   0  0  0  0  0  0  0  0  0  0  0  0
    9.2528  -16.8892   25.3048 C   0  0  0  0  0  0  0  0  0  0  0  0
   10.4992  -16.9348   25.2145 O   0  0  0  0  0  0  0  0  0  0  0  0
    6.5340  -10.8275   25.3621 O   0  0  0  0  0  0  0  0  0  0  0  0
    7.0386  -11.8720   26.1258 C   0  0  0  0  0  0  0  0  0  0  0  0
    6.2601  -12.9312   26.5330 C   0  0  0  0  0  0  0  0  0  0  0  0
    6.7998  -13.9522   27.2927 C   0  0  0  0  0  0  0  0  0  0  0  0
    8.1232  -13.9618   27.6750 C   0  0  0  0  0  0  0  0  0  0  0  0
    8.7010  -15.0503   28.4860 C   0  0  0  0  0  0  0  0  0  0  0  0
    9.4771  -16.0695   27.6823 C   0  0  2  0  0  0  0  0  0  0  0  0
    8.6807  -16.4454   26.5285 N   0  0  0  0  0  0  0  0  0  0  0  0
    9.8990  -17.2270   28.4722 C   0  0  0  0  0  0  0  0  0  0  0  0
    9.4355  -18.3610   28.2040 O   0  0  0  0  0  0  0  0  0  0  0  0
    8.8859  -12.8823   27.2512 C   0  0  0  0  0  0  0  0  0  0  0  0
    8.3635  -11.8554   26.4929 C   0  0  0  0  0  0  0  0  0  0  0  0
   10.7984  -17.1161   29.5121 O   0  0  0  0  0  0  0  0  0  0  0  0
  2  3  1  1
  2  1  1  0
  4  2  1  0
  4  5  1  0
  5  7  1  0
  5  6  1  6
  7  8  2  0
  9 10  1  0
  9  7  1  0
 10 11  1  6
 11 12  1  0
 13 14  2  0
 13 10  1  0
 15 16  1  0
 16 26  2  0
 16 17  1  0
 17 18  2  0
 18 19  1  0
 19 20  1  0
 21 20  1  1
 21 22  1  0
 21 23  1  0
 22 13  1  0
 23 27  1  0
 24 23  2  0
 25 19  2  0
 26 25  1  0
M  END
$$$$
