LCY.pdb
     RDKit          3D

 27 27  0  0  1  0  0  0  0  0999 V2000
    7.6289  -13.3100   19.6952 C   0  0  0  0  0  0  0  0  0  0  0  0
    7.6779  -13.7955   21.1047 C   0  0  1  0  0  0  0  0  0  0  0  0
    7.2020  -12.6618   22.0064 C   0  0  0  0  0  0  0  0  0  0  0  0
    6.8095  -14.9890   21.2927 C   0  0  0  0  0  0  0  0  0  0  0  0
    7.2229  -16.2057   20.4988 C   0  0  2  0  0  0  0  0  0  0  0  0
    6.2505  -17.2540   20.7058 N   0  0  0  0  0  0  0  0  0  0  0  0
    8.5037  -16.7004   21.0594 C   0  0  0  0  0  0  0  0  0  0  0  0
    8.4364  -17.1658   22.2486 O   0  0  0  0  0  0  0  0  0  0  0  0
    9.7483  -16.6857   20.3764 N   0  0  0  0  0  0  0  0  0  0  0  0
   10.8959  -17.2511   21.0202 C   0  0  1  0  0  0  0  0  0  0  0  0
   11.9560  -17.6183   19.9972 C   0  0  0  0  0  0  0  0  0  0  0  0
   11.3404  -18.7410   18.7438 S   0  0  0  0  0  0  0  0  0  0  0  0
   11.4549  -16.3716   22.0809 C   0  0  0  0  0  0  0  0  0  0  0  0
   11.2664  -15.1367   22.1384 O   0  0  0  0  0  0  0  0  0  0  0  0
   10.6393  -14.0987   30.1988 O   0  0  0  0  0  0  0  0  0  0  0  0
   10.7099  -14.6615   28.9311 C   0  0  0  0  0  0  0  0  0  0  0  0
   10.8747  -16.0132   28.7323 C   0  0  0  0  0  0  0  0  0  0  0  0
   10.9403  -16.5354   27.4541 C   0  0  0  0  0  0  0  0  0  0  0  0
   10.8457  -15.7423   26.3317 C   0  0  0  0  0  0  0  0  0  0  0  0
   10.9157  -16.2975   24.9666 C   0  0  0  0  0  0  0  0  0  0  0  0
   12.3250  -16.4779   24.4486 C   0  0  2  0  0  0  0  0  0  0  0  0
   12.2521  -16.9801   23.0888 N   0  0  0  0  0  0  0  0  0  0  0  0
   13.1536  -17.3200   25.3125 C   0  0  0  0  0  0  0  0  0  0  0  0
   14.1484  -16.8223   25.8916 O   0  0  0  0  0  0  0  0  0  0  0  0
   10.6799  -14.3833   26.5602 C   0  0  0  0  0  0  0  0  0  0  0  0
   10.6124  -13.8458   27.8286 C   0  0  0  0  0  0  0  0  0  0  0  0
   12.8774  -18.6560   25.5164 O   0  0  0  0  0  0  0  0  0  0  0  0
  2  3  1  1
  2  1  1  0
  4  2  1  0
  4  5  1  0
  5  7  1  0
  5  6  1  1
  7  8  2  0
  9 10  1  0
  9  7  1  0
 10 11  1  6
 11 12  1  0
 13 14  2  0
 13 10  1  0
 15 16  1  0
 16 26  2  0
 16 17  1  0
 17 18  2  0
 18 19  1  0
 19 20  1  0
 21 20  1  1
 21 22  1  0
 21 23  1  0
 22 13  1  0
 23 27  1  0
 24 23  2  0
 25 19  2  0
 26 25  1  0
M  END
$$$$
