LCY.pdb
     RDKit          3D

 27 27  0  0  1  0  0  0  0  0999 V2000
    7.4623  -11.9185   18.5948 C   0  0  0  0  0  0  0  0  0  0  0  0
    7.7492  -13.3020   18.1165 C   0  0  1  0  0  0  0  0  0  0  0  0
    9.1654  -13.3169   17.5518 C   0  0  0  0  0  0  0  0  0  0  0  0
    7.6369  -14.2881   19.2251 C   0  0  0  0  0  0  0  0  0  0  0  0
    7.8546  -15.7266   18.8190 C   0  0  2  0  0  0  0  0  0  0  0  0
    6.6437  -16.2322   18.2147 N   0  0  0  0  0  0  0  0  0  0  0  0
    8.0740  -16.5189   20.0533 C   0  0  0  0  0  0  0  0  0  0  0  0
    7.0958  -16.5295   20.8771 O   0  0  0  0  0  0  0  0  0  0  0  0
    9.2610  -17.2358   20.3575 N   0  0  0  0  0  0  0  0  0  0  0  0
    9.3766  -17.8687   21.6371 C   0  0  1  0  0  0  0  0  0  0  0  0
   10.0005  -19.2459   21.4978 C   0  0  0  0  0  0  0  0  0  0  0  0
   10.2465  -20.0510   23.0794 S   0  0  0  0  0  0  0  0  0  0  0  0
   10.1172  -17.0411   22.6259 C   0  0  0  0  0  0  0  0  0  0  0  0
   11.2691  -16.5912   22.4402 O   0  0  0  0  0  0  0  0  0  0  0  0
   10.4446  -14.6911   31.2351 O   0  0  0  0  0  0  0  0  0  0  0  0
   10.1008  -14.8849   29.9036 C   0  0  0  0  0  0  0  0  0  0  0  0
   10.0937  -16.1299   29.3173 C   0  0  0  0  0  0  0  0  0  0  0  0
    9.7453  -16.2817   27.9882 C   0  0  0  0  0  0  0  0  0  0  0  0
    9.3931  -15.2119   27.1951 C   0  0  0  0  0  0  0  0  0  0  0  0
    9.0213  -15.3717   25.7764 C   0  0  0  0  0  0  0  0  0  0  0  0
   10.1031  -15.9972   24.9247 C   0  0  2  0  0  0  0  0  0  0  0  0
    9.4684  -16.7474   23.8566 N   0  0  0  0  0  0  0  0  0  0  0  0
   11.0462  -16.8092   25.6949 C   0  0  0  0  0  0  0  0  0  0  0  0
   12.1267  -16.3031   26.0810 O   0  0  0  0  0  0  0  0  0  0  0  0
    9.4085  -13.9680   27.8108 C   0  0  0  0  0  0  0  0  0  0  0  0
    9.7535  -13.7988   29.1355 C   0  0  0  0  0  0  0  0  0  0  0  0
   10.7874  -18.1255   26.0164 O   0  0  0  0  0  0  0  0  0  0  0  0
  2  3  1  1
  2  1  1  0
  4  2  1  0
  4  5  1  0
  5  7  1  0
  5  6  1  1
  7  8  2  0
  9 10  1  0
  9  7  1  0
 10 11  1  6
 11 12  1  0
 13 14  2  0
 13 10  1  0
 15 16  1  0
 16 26  2  0
 16 17  1  0
 17 18  2  0
 18 19  1  0
 19 20  1  0
 21 20  1  1
 21 22  1  0
 21 23  1  0
 22 13  1  0
 23 27  1  0
 24 23  2  0
 25 19  2  0
 26 25  1  0
M  END
$$$$
