LCY.pdb
     RDKit          3D

 27 27  0  0  1  0  0  0  0  0999 V2000
    5.7552  -21.8230   24.6136 C   0  0  0  0  0  0  0  0  0  0  0  0
    5.3737  -21.2838   23.2762 C   0  0  1  0  0  0  0  0  0  0  0  0
    3.8596  -21.1046   23.2592 C   0  0  0  0  0  0  0  0  0  0  0  0
    6.0398  -19.9798   23.0123 C   0  0  0  0  0  0  0  0  0  0  0  0
    5.6899  -19.3454   21.6870 C   0  0  2  0  0  0  0  0  0  0  0  0
    6.0147  -20.2685   20.6242 N   0  0  0  0  0  0  0  0  0  0  0  0
    6.5669  -18.1637   21.5033 C   0  0  0  0  0  0  0  0  0  0  0  0
    7.8162  -18.4197   21.4070 O   0  0  0  0  0  0  0  0  0  0  0  0
    6.1142  -16.8199   21.4319 N   0  0  0  0  0  0  0  0  0  0  0  0
    7.0832  -15.7659   21.3944 C   0  0  1  0  0  0  0  0  0  0  0  0
    6.5102  -14.5372   20.7110 C   0  0  0  0  0  0  0  0  0  0  0  0
    7.6674  -13.1698   20.6746 S   0  0  0  0  0  0  0  0  0  0  0  0
    7.6234  -15.4301   22.7384 C   0  0  0  0  0  0  0  0  0  0  0  0
    7.0113  -14.7481   23.5892 O   0  0  0  0  0  0  0  0  0  0  0  0
   10.8729  -14.5340   30.5372 O   0  0  0  0  0  0  0  0  0  0  0  0
   10.3280  -14.7985   29.2875 C   0  0  0  0  0  0  0  0  0  0  0  0
   10.0570  -13.8043   28.3754 C   0  0  0  0  0  0  0  0  0  0  0  0
    9.5142  -14.1083   27.1410 C   0  0  0  0  0  0  0  0  0  0  0  0
    9.2214  -15.4012   26.7664 C   0  0  0  0  0  0  0  0  0  0  0  0
    8.6418  -15.7278   25.4496 C   0  0  0  0  0  0  0  0  0  0  0  0
    9.6059  -15.5626   24.2963 C   0  0  2  0  0  0  0  0  0  0  0  0
    8.9172  -15.9186   23.0693 N   0  0  0  0  0  0  0  0  0  0  0  0
   10.8523  -16.3087   24.4750 C   0  0  0  0  0  0  0  0  0  0  0  0
   11.9240  -15.6862   24.6657 O   0  0  0  0  0  0  0  0  0  0  0  0
    9.5042  -16.3844   27.7044 C   0  0  0  0  0  0  0  0  0  0  0  0
   10.0457  -16.0986   28.9403 C   0  0  0  0  0  0  0  0  0  0  0  0
   10.8922  -17.6872   24.4420 O   0  0  0  0  0  0  0  0  0  0  0  0
  2  3  1  1
  2  1  1  0
  4  2  1  0
  4  5  1  0
  5  7  1  0
  5  6  1  6
  7  8  2  0
  9 10  1  0
  9  7  1  0
 10 11  1  1
 11 12  1  0
 13 14  2  0
 13 10  1  0
 15 16  1  0
 16 26  2  0
 16 17  1  0
 17 18  2  0
 18 19  1  0
 19 20  1  0
 21 20  1  1
 21 22  1  0
 21 23  1  0
 22 13  1  0
 23 27  1  0
 24 23  2  0
 25 19  2  0
 26 25  1  0
M  END
$$$$
