LCY.pdb
     RDKit          3D

 27 27  0  0  1  0  0  0  0  0999 V2000
    7.3705  -11.8764   19.2966 C   0  0  0  0  0  0  0  0  0  0  0  0
    8.1303  -13.1595   19.2623 C   0  0  1  0  0  0  0  0  0  0  0  0
    9.4597  -12.9346   19.9744 C   0  0  0  0  0  0  0  0  0  0  0  0
    7.3746  -14.2500   19.9358 C   0  0  0  0  0  0  0  0  0  0  0  0
    8.1241  -15.5549   20.0655 C   0  0  2  0  0  0  0  0  0  0  0  0
    7.6393  -16.4764   19.0641 N   0  0  0  0  0  0  0  0  0  0  0  0
    7.7844  -16.1449   21.3830 C   0  0  0  0  0  0  0  0  0  0  0  0
    6.6518  -16.7360   21.4416 O   0  0  0  0  0  0  0  0  0  0  0  0
    8.6131  -16.0914   22.5345 N   0  0  0  0  0  0  0  0  0  0  0  0
    8.3292  -16.9682   23.6309 C   0  0  1  0  0  0  0  0  0  0  0  0
    8.3708  -18.4176   23.1807 C   0  0  0  0  0  0  0  0  0  0  0  0
    8.0482  -19.5621   24.5210 S   0  0  0  0  0  0  0  0  0  0  0  0
    9.2231  -16.7422   24.7975 C   0  0  0  0  0  0  0  0  0  0  0  0
   10.4720  -16.7424   24.7336 O   0  0  0  0  0  0  0  0  0  0  0  0
    6.3062  -10.8065   25.5972 O   0  0  0  0  0  0  0  0  0  0  0  0
    6.8729  -11.9065   26.2280 C   0  0  0  0  0  0  0  0  0  0  0  0
    8.1848  -11.9239   26.6431 C   0  0  0  0  0  0  0  0  0  0  0  0
    8.7122  -13.0386   27.2678 C   0  0  0  0  0  0  0  0  0  0  0  0
    7.9638  -14.1709   27.5031 C   0  0  0  0  0  0  0  0  0  0  0  0
    8.5248  -15.3616   28.1694 C   0  0  0  0  0  0  0  0  0  0  0  0
    9.3710  -16.2297   27.2653 C   0  0  2  0  0  0  0  0  0  0  0  0
    8.6122  -16.5123   26.0607 N   0  0  0  0  0  0  0  0  0  0  0  0
    9.8541  -17.4459   27.9205 C   0  0  0  0  0  0  0  0  0  0  0  0
    9.4225  -18.5627   27.5476 O   0  0  0  0  0  0  0  0  0  0  0  0
    6.6442  -14.1269   27.0748 C   0  0  0  0  0  0  0  0  0  0  0  0
    6.1022  -13.0232   26.4500 C   0  0  0  0  0  0  0  0  0  0  0  0
   10.7779  -17.4092   28.9443 O   0  0  0  0  0  0  0  0  0  0  0  0
  2  3  1  1
  2  1  1  0
  4  2  1  0
  4  5  1  0
  5  7  1  0
  5  6  1  6
  7  8  2  0
  9 10  1  0
  9  7  1  0
 10 11  1  6
 11 12  1  0
 13 14  2  0
 13 10  1  0
 15 16  1  0
 16 26  2  0
 16 17  1  0
 17 18  2  0
 18 19  1  0
 19 20  1  0
 21 20  1  1
 21 22  1  0
 21 23  1  0
 22 13  1  0
 23 27  1  0
 24 23  2  0
 25 19  2  0
 26 25  1  0
M  END
$$$$
