LCY.pdb
     RDKit          3D

 27 27  0  0  1  0  0  0  0  0999 V2000
    7.3268  -11.7878   20.2531 C   0  0  0  0  0  0  0  0  0  0  0  0
    8.0646  -13.0159   19.8378 C   0  0  1  0  0  0  0  0  0  0  0  0
    9.5485  -12.7796   20.0967 C   0  0  0  0  0  0  0  0  0  0  0  0
    7.6015  -14.2055   20.6022 C   0  0  0  0  0  0  0  0  0  0  0  0
    8.3642  -15.4781   20.3186 C   0  0  2  0  0  0  0  0  0  0  0  0
    7.5352  -16.3552   19.5244 N   0  0  0  0  0  0  0  0  0  0  0  0
    8.5930  -16.1682   21.6111 C   0  0  0  0  0  0  0  0  0  0  0  0
    7.5480  -16.6585   22.1616 O   0  0  0  0  0  0  0  0  0  0  0  0
    9.8561  -16.3082   22.2442 N   0  0  0  0  0  0  0  0  0  0  0  0
    9.9538  -17.1241   23.4173 C   0  0  1  0  0  0  0  0  0  0  0  0
   10.9373  -18.2598   23.1980 C   0  0  0  0  0  0  0  0  0  0  0  0
   12.5113  -17.6907   22.5584 S   0  0  0  0  0  0  0  0  0  0  0  0
   10.2967  -16.3444   24.6361 C   0  0  0  0  0  0  0  0  0  0  0  0
   11.0874  -15.3757   24.6487 O   0  0  0  0  0  0  0  0  0  0  0  0
    5.8235  -11.4460   25.3896 O   0  0  0  0  0  0  0  0  0  0  0  0
    6.5346  -12.4797   25.9851 C   0  0  0  0  0  0  0  0  0  0  0  0
    7.7450  -12.2790   26.6085 C   0  0  0  0  0  0  0  0  0  0  0  0
    8.4225  -13.3344   27.1899 C   0  0  0  0  0  0  0  0  0  0  0  0
    7.9289  -14.6204   27.1754 C   0  0  0  0  0  0  0  0  0  0  0  0
    8.6505  -15.7482   27.7950 C   0  0  0  0  0  0  0  0  0  0  0  0
    9.9654  -16.0783   27.1249 C   0  0  2  0  0  0  0  0  0  0  0  0
    9.6832  -16.7306   25.8594 N   0  0  0  0  0  0  0  0  0  0  0  0
   10.8629  -16.8651   27.9720 C   0  0  0  0  0  0  0  0  0  0  0  0
   11.3003  -16.3695   29.0377 O   0  0  0  0  0  0  0  0  0  0  0  0
    6.7070  -14.7951   26.5405 C   0  0  0  0  0  0  0  0  0  0  0  0
    6.0179  -13.7534   25.9555 C   0  0  0  0  0  0  0  0  0  0  0  0
   11.2493  -18.1466   27.6384 O   0  0  0  0  0  0  0  0  0  0  0  0
  2  3  1  1
  2  1  1  0
  4  2  1  0
  4  5  1  0
  5  7  1  0
  5  6  1  6
  7  8  2  0
  9 10  1  0
  9  7  1  0
 10 11  1  6
 11 12  1  0
 13 14  2  0
 13 10  1  0
 15 16  1  0
 16 26  2  0
 16 17  1  0
 17 18  2  0
 18 19  1  0
 19 20  1  0
 21 20  1  1
 21 22  1  0
 21 23  1  0
 22 13  1  0
 23 27  1  0
 24 23  2  0
 25 19  2  0
 26 25  1  0
M  END
$$$$
