LCY.pdb
     RDKit          3D

 27 27  0  0  1  0  0  0  0  0999 V2000
    2.5301  -19.7015   23.4521 C   0  0  0  0  0  0  0  0  0  0  0  0
    3.1337  -19.4746   22.1071 C   0  0  1  0  0  0  0  0  0  0  0  0
    2.1231  -18.7031   21.2655 C   0  0  0  0  0  0  0  0  0  0  0  0
    4.4006  -18.7012   22.2100 C   0  0  0  0  0  0  0  0  0  0  0  0
    5.2409  -18.6901   20.9549 C   0  0  2  0  0  0  0  0  0  0  0  0
    5.7376  -20.0246   20.7106 N   0  0  0  0  0  0  0  0  0  0  0  0
    6.4271  -17.8374   21.2097 C   0  0  0  0  0  0  0  0  0  0  0  0
    7.3648  -18.3914   21.8800 O   0  0  0  0  0  0  0  0  0  0  0  0
    6.5722  -16.4956   20.7689 N   0  0  0  0  0  0  0  0  0  0  0  0
    7.7681  -15.7835   21.1063 C   0  0  1  0  0  0  0  0  0  0  0  0
    7.9223  -14.5526   20.2308 C   0  0  0  0  0  0  0  0  0  0  0  0
    6.3512  -13.7799   19.8504 S   0  0  0  0  0  0  0  0  0  0  0  0
    7.8421  -15.4295   22.5486 C   0  0  0  0  0  0  0  0  0  0  0  0
    6.9796  -14.7513   23.1486 O   0  0  0  0  0  0  0  0  0  0  0  0
    7.2629  -21.4282   26.1390 O   0  0  0  0  0  0  0  0  0  0  0  0
    7.4314  -20.0602   25.9687 C   0  0  0  0  0  0  0  0  0  0  0  0
    6.5507  -19.2935   25.2403 C   0  0  0  0  0  0  0  0  0  0  0  0
    6.7532  -17.9340   25.0938 C   0  0  0  0  0  0  0  0  0  0  0  0
    7.8295  -17.2871   25.6602 C   0  0  0  0  0  0  0  0  0  0  0  0
    8.0476  -15.8363   25.5049 C   0  0  0  0  0  0  0  0  0  0  0  0
    9.2429  -15.4832   24.6484 C   0  0  2  0  0  0  0  0  0  0  0  0
    8.9663  -15.8948   23.2843 N   0  0  0  0  0  0  0  0  0  0  0  0
   10.4994  -16.0361   25.1558 C   0  0  0  0  0  0  0  0  0  0  0  0
   10.9293  -15.6692   26.2753 O   0  0  0  0  0  0  0  0  0  0  0  0
    8.7020  -18.0832   26.3893 C   0  0  0  0  0  0  0  0  0  0  0  0
    8.5149  -19.4408   26.5454 C   0  0  0  0  0  0  0  0  0  0  0  0
   11.2366  -16.9569   24.4406 O   0  0  0  0  0  0  0  0  0  0  0  0
  2  3  1  6
  2  1  1  0
  4  2  1  0
  4  5  1  0
  5  7  1  0
  5  6  1  1
  7  8  2  0
  9 10  1  0
  9  7  1  0
 10 11  1  6
 11 12  1  0
 13 14  2  0
 13 10  1  0
 15 16  1  0
 16 26  2  0
 16 17  1  0
 17 18  2  0
 18 19  1  0
 19 20  1  0
 21 20  1  1
 21 22  1  0
 21 23  1  0
 22 13  1  0
 23 27  1  0
 24 23  2  0
 25 19  2  0
 26 25  1  0
M  END
$$$$
