LCY.pdb
     RDKit          3D

 27 27  0  0  1  0  0  0  0  0999 V2000
    3.0697  -22.0237   21.0165 C   0  0  0  0  0  0  0  0  0  0  0  0
    3.8127  -20.9311   20.3244 C   0  0  1  0  0  0  0  0  0  0  0  0
    2.7871  -19.9695   19.7341 C   0  0  0  0  0  0  0  0  0  0  0  0
    4.7022  -20.2034   21.2695 C   0  0  0  0  0  0  0  0  0  0  0  0
    5.4016  -18.9998   20.6833 C   0  0  2  0  0  0  0  0  0  0  0  0
    5.7508  -19.2822   19.3102 N   0  0  0  0  0  0  0  0  0  0  0  0
    6.6783  -18.8152   21.4149 C   0  0  0  0  0  0  0  0  0  0  0  0
    6.5783  -18.7826   22.6894 O   0  0  0  0  0  0  0  0  0  0  0  0
    7.9521  -18.6780   20.8030 N   0  0  0  0  0  0  0  0  0  0  0  0
    9.0862  -18.3858   21.6274 C   0  0  1  0  0  0  0  0  0  0  0  0
   10.3767  -18.7010   20.8923 C   0  0  0  0  0  0  0  0  0  0  0  0
   10.6796  -17.5816   19.5265 S   0  0  0  0  0  0  0  0  0  0  0  0
    9.0855  -16.9888   22.1366 C   0  0  0  0  0  0  0  0  0  0  0  0
    8.5708  -16.0229   21.5316 O   0  0  0  0  0  0  0  0  0  0  0  0
    6.5334  -11.0409   27.7323 O   0  0  0  0  0  0  0  0  0  0  0  0
    6.8997  -12.1220   26.9412 C   0  0  0  0  0  0  0  0  0  0  0  0
    7.5524  -13.2212   27.4505 C   0  0  0  0  0  0  0  0  0  0  0  0
    7.9004  -14.2779   26.6300 C   0  0  0  0  0  0  0  0  0  0  0  0
    7.6161  -14.2848   25.2821 C   0  0  0  0  0  0  0  0  0  0  0  0
    7.9868  -15.4113   24.4046 C   0  0  0  0  0  0  0  0  0  0  0  0
    9.4749  -15.5425   24.1691 C   0  0  2  0  0  0  0  0  0  0  0  0
    9.7108  -16.7441   23.3899 N   0  0  0  0  0  0  0  0  0  0  0  0
   10.2590  -15.5138   25.4045 C   0  0  0  0  0  0  0  0  0  0  0  0
   10.2734  -16.5209   26.1517 O   0  0  0  0  0  0  0  0  0  0  0  0
    6.9575  -13.1646   24.7942 C   0  0  0  0  0  0  0  0  0  0  0  0
    6.6032  -12.1018   25.5988 C   0  0  0  0  0  0  0  0  0  0  0  0
   10.9920  -14.4077   25.7816 O   0  0  0  0  0  0  0  0  0  0  0  0
  2  3  1  1
  2  1  1  0
  4  2  1  0
  4  5  1  0
  5  7  1  0
  5  6  1  6
  7  8  2  0
  9 10  1  0
  9  7  1  0
 10 11  1  6
 11 12  1  0
 13 14  2  0
 13 10  1  0
 15 16  1  0
 16 26  2  0
 16 17  1  0
 17 18  2  0
 18 19  1  0
 19 20  1  0
 21 20  1  1
 21 22  1  0
 21 23  1  0
 22 13  1  0
 23 27  1  0
 24 23  2  0
 25 19  2  0
 26 25  1  0
M  END
$$$$
