LCY.pdb
     RDKit          3D

 27 27  0  0  1  0  0  0  0  0999 V2000
    3.2923  -19.6771   23.3948 C   0  0  0  0  0  0  0  0  0  0  0  0
    3.5398  -19.3076   21.9711 C   0  0  1  0  0  0  0  0  0  0  0  0
    2.4675  -18.3069   21.5547 C   0  0  0  0  0  0  0  0  0  0  0  0
    4.8887  -18.7035   21.7992 C   0  0  0  0  0  0  0  0  0  0  0  0
    5.1993  -18.2333   20.3977 C   0  0  2  0  0  0  0  0  0  0  0  0
    5.2610  -19.3797   19.5207 N   0  0  0  0  0  0  0  0  0  0  0  0
    6.5567  -17.6361   20.4092 C   0  0  0  0  0  0  0  0  0  0  0  0
    7.4574  -18.3143   19.8058 O   0  0  0  0  0  0  0  0  0  0  0  0
    6.8965  -16.4044   21.0281 N   0  0  0  0  0  0  0  0  0  0  0  0
    8.2100  -15.8699   20.8271 C   0  0  1  0  0  0  0  0  0  0  0  0
    8.2282  -14.9312   19.6340 C   0  0  0  0  0  0  0  0  0  0  0  0
    6.9792  -13.6517   19.7481 S   0  0  0  0  0  0  0  0  0  0  0  0
    8.7554  -15.2065   22.0409 C   0  0  0  0  0  0  0  0  0  0  0  0
    8.2771  -14.1675   22.5463 O   0  0  0  0  0  0  0  0  0  0  0  0
   10.3291  -15.1801   30.4592 O   0  0  0  0  0  0  0  0  0  0  0  0
   10.0429  -15.3631   29.1126 C   0  0  0  0  0  0  0  0  0  0  0  0
   10.1419  -16.5902   28.4975 C   0  0  0  0  0  0  0  0  0  0  0  0
    9.8482  -16.7316   27.1542 C   0  0  0  0  0  0  0  0  0  0  0  0
    9.4478  -15.6687   26.3747 C   0  0  0  0  0  0  0  0  0  0  0  0
    9.1341  -15.8174   24.9409 C   0  0  0  0  0  0  0  0  0  0  0  0
   10.2925  -15.4986   24.0225 C   0  0  2  0  0  0  0  0  0  0  0  0
    9.8917  -15.7964   22.6597 N   0  0  0  0  0  0  0  0  0  0  0  0
   11.5327  -16.1768   24.4018 C   0  0  0  0  0  0  0  0  0  0  0  0
   12.5221  -15.4982   24.7669 O   0  0  0  0  0  0  0  0  0  0  0  0
    9.3561  -14.4429   27.0195 C   0  0  0  0  0  0  0  0  0  0  0  0
    9.6454  -14.2842   28.3587 C   0  0  0  0  0  0  0  0  0  0  0  0
   11.6550  -17.5505   24.3732 O   0  0  0  0  0  0  0  0  0  0  0  0
  2  3  1  1
  2  1  1  0
  4  2  1  0
  4  5  1  0
  5  7  1  0
  5  6  1  6
  7  8  2  0
  9 10  1  0
  9  7  1  0
 10 11  1  6
 11 12  1  0
 13 14  2  0
 13 10  1  0
 15 16  1  0
 16 26  2  0
 16 17  1  0
 17 18  2  0
 18 19  1  0
 19 20  1  0
 21 20  1  1
 21 22  1  0
 21 23  1  0
 22 13  1  0
 23 27  1  0
 24 23  2  0
 25 19  2  0
 26 25  1  0
M  END
$$$$
