LCY.pdb
     RDKit          3D

 27 27  0  0  1  0  0  0  0  0999 V2000
    9.9902  -12.9013   18.7953 C   0  0  0  0  0  0  0  0  0  0  0  0
    8.5748  -13.2641   19.0952 C   0  0  1  0  0  0  0  0  0  0  0  0
    7.7680  -11.9727   19.1743 C   0  0  0  0  0  0  0  0  0  0  0  0
    8.0111  -14.1480   18.0394 C   0  0  0  0  0  0  0  0  0  0  0  0
    8.6883  -15.4919   17.9089 C   0  0  2  0  0  0  0  0  0  0  0  0
    7.9479  -16.3015   16.9690 N   0  0  0  0  0  0  0  0  0  0  0  0
    8.5960  -16.1765   19.2212 C   0  0  0  0  0  0  0  0  0  0  0  0
    7.4082  -16.4121   19.6325 O   0  0  0  0  0  0  0  0  0  0  0  0
    9.7078  -16.5678   20.0127 N   0  0  0  0  0  0  0  0  0  0  0  0
    9.4715  -17.2975   21.2223 C   0  0  1  0  0  0  0  0  0  0  0  0
    9.8126  -18.7653   21.0362 C   0  0  0  0  0  0  0  0  0  0  0  0
    9.7115  -19.6926   22.5659 S   0  0  0  0  0  0  0  0  0  0  0  0
   10.1878  -16.7237   22.3922 C   0  0  0  0  0  0  0  0  0  0  0  0
   11.3949  -16.3974   22.3835 O   0  0  0  0  0  0  0  0  0  0  0  0
   10.7828  -14.5149   31.0434 O   0  0  0  0  0  0  0  0  0  0  0  0
   10.3378  -14.8407   29.7688 C   0  0  0  0  0  0  0  0  0  0  0  0
   10.1834  -16.1431   29.3518 C   0  0  0  0  0  0  0  0  0  0  0  0
    9.7377  -16.4266   28.0744 C   0  0  0  0  0  0  0  0  0  0  0  0
    9.4302  -15.4361   27.1677 C   0  0  0  0  0  0  0  0  0  0  0  0
    8.9548  -15.7365   25.8039 C   0  0  0  0  0  0  0  0  0  0  0  0
   10.0565  -16.1111   24.8380 C   0  0  2  0  0  0  0  0  0  0  0  0
    9.4471  -16.5376   23.5916 N   0  0  0  0  0  0  0  0  0  0  0  0
   10.9825  -17.1076   25.3778 C   0  0  0  0  0  0  0  0  0  0  0  0
   10.6538  -18.3178   25.3850 O   0  0  0  0  0  0  0  0  0  0  0  0
    9.5947  -14.1319   27.6135 C   0  0  0  0  0  0  0  0  0  0  0  0
   10.0382  -13.8314   28.8845 C   0  0  0  0  0  0  0  0  0  0  0  0
   12.2182  -16.7613   25.8839 O   0  0  0  0  0  0  0  0  0  0  0  0
  2  3  1  6
  2  1  1  0
  4  2  1  0
  4  5  1  0
  5  7  1  0
  5  6  1  6
  7  8  2  0
  9 10  1  0
  9  7  1  0
 10 11  1  6
 11 12  1  0
 13 14  2  0
 13 10  1  0
 15 16  1  0
 16 26  2  0
 16 17  1  0
 17 18  2  0
 18 19  1  0
 19 20  1  0
 21 20  1  1
 21 22  1  0
 21 23  1  0
 22 13  1  0
 23 27  1  0
 24 23  2  0
 25 19  2  0
 26 25  1  0
M  END
$$$$
