FAN.pdb
     RDKit          3D

 25 25  0  0  1  0  0  0  0  0999 V2000
    6.0005  -17.5221   24.7858 N   0  0  0  0  0  0  0  0  0  0  0  0
    6.5285  -16.2170   24.4986 C   0  0  1  0  0  0  0  0  0  0  0  0
    7.6129  -15.8127   25.4984 C   0  0  0  0  0  0  0  0  0  0  0  0
    7.5338  -14.4217   25.9007 C   0  0  0  0  0  0  0  0  0  0  0  0
    6.3518  -13.8855   26.3589 C   0  0  0  0  0  0  0  0  0  0  0  0
    6.2670  -12.5454   26.7487 C   0  0  0  0  0  0  0  0  0  0  0  0
    7.3787  -11.7555   26.6727 C   0  0  0  0  0  0  0  0  0  0  0  0
    8.5715  -12.2600   26.2203 C   0  0  0  0  0  0  0  0  0  0  0  0
    8.6380  -13.6040   25.8342 C   0  0  0  0  0  0  0  0  0  0  0  0
    7.1895  -16.1501   23.1668 C   0  0  0  0  0  0  0  0  0  0  0  0
    7.7567  -17.1968   22.7618 O   0  0  0  0  0  0  0  0  0  0  0  0
    7.4800  -13.5409   20.4858 C   0  0  0  0  0  0  0  0  0  0  0  0
    7.7136  -14.9698   20.9905 C   0  0  2  0  0  0  0  0  0  0  0  0
    7.2197  -15.0084   22.3452 N   0  0  0  0  0  0  0  0  0  0  0  0
    9.1736  -15.2299   20.9226 C   0  0  0  0  0  0  0  0  0  0  0  0
    9.7232  -15.3635   19.7974 O   0  0  0  0  0  0  0  0  0  0  0  0
   12.2654  -12.8672   19.8557 N   0  0  0  0  0  0  0  0  0  0  0  0
   12.4190  -14.1859   20.4123 C   0  0  0  0  0  0  0  0  0  0  0  0
   12.7845  -15.0791   19.6367 O   0  0  0  0  0  0  0  0  0  0  0  0
   12.1491  -14.4326   21.8332 C   0  0  0  0  0  0  0  0  0  0  0  0
   11.3841  -15.6797   22.0581 C   0  0  2  0  0  0  0  0  0  0  0  0
    9.9455  -15.3278   22.1093 N   0  0  0  0  0  0  0  0  0  0  0  0
   11.7259  -16.3539   23.3068 C   0  0  0  0  0  0  0  0  0  0  0  0
   12.8594  -16.7591   23.5743 O   0  0  0  0  0  0  0  0  0  0  0  0
   10.7513  -16.5844   24.3015 O   0  0  0  0  0  0  0  0  0  0  0  0
  2  1  1  1
  2 10  1  0
  3  2  1  0
  4  3  1  0
  5  4  2  0
  6  5  1  0
  7  8  1  0
  7  6  2  0
  8  9  2  0
  9  4  1  0
 10 14  1  0
 10 11  2  0
 13 12  1  1
 14 13  1  0
 15 22  1  0
 15 13  1  0
 16 15  2  0
 18 20  1  0
 18 17  1  0
 19 18  2  0
 21 20  1  1
 21 23  1  0
 21 22  1  0
 23 25  1  0
 24 23  2  0
M  END
$$$$
