FAN.pdb
     RDKit          3D

 25 25  0  0  1  0  0  0  0  0999 V2000
    6.0702  -16.7371   25.8071 N   0  0  0  0  0  0  0  0  0  0  0  0
    6.5874  -15.6427   25.0331 C   0  0  1  0  0  0  0  0  0  0  0  0
    7.5385  -14.7695   25.8529 C   0  0  0  0  0  0  0  0  0  0  0  0
    7.0217  -13.4386   26.1070 C   0  0  0  0  0  0  0  0  0  0  0  0
    7.7209  -12.3219   25.7090 C   0  0  0  0  0  0  0  0  0  0  0  0
    7.2297  -11.0352   25.9502 C   0  0  0  0  0  0  0  0  0  0  0  0
    6.0337  -10.8858   26.5929 C   0  0  0  0  0  0  0  0  0  0  0  0
    5.3129  -11.9789   27.0022 C   0  0  0  0  0  0  0  0  0  0  0  0
    5.8200  -13.2596   26.7522 C   0  0  0  0  0  0  0  0  0  0  0  0
    7.3930  -16.0992   23.8679 C   0  0  0  0  0  0  0  0  0  0  0  0
    8.1806  -17.0597   24.0642 O   0  0  0  0  0  0  0  0  0  0  0  0
    7.9498  -14.8143   20.3954 C   0  0  0  0  0  0  0  0  0  0  0  0
    8.2026  -15.8666   21.4816 C   0  0  2  0  0  0  0  0  0  0  0  0
    7.3306  -15.5335   22.5812 N   0  0  0  0  0  0  0  0  0  0  0  0
    9.6353  -15.7763   21.8602 C   0  0  0  0  0  0  0  0  0  0  0  0
   10.0920  -14.6817   22.2838 O   0  0  0  0  0  0  0  0  0  0  0  0
   10.6527  -19.1672   24.5194 N   0  0  0  0  0  0  0  0  0  0  0  0
   11.6496  -18.1774   24.2053 C   0  0  0  0  0  0  0  0  0  0  0  0
   11.9773  -17.4074   25.1178 O   0  0  0  0  0  0  0  0  0  0  0  0
   12.2331  -18.1059   22.8610 C   0  0  0  0  0  0  0  0  0  0  0  0
   11.9048  -16.8412   22.1655 C   0  0  2  0  0  0  0  0  0  0  0  0
   10.4845  -16.9075   21.7477 N   0  0  0  0  0  0  0  0  0  0  0  0
   12.7131  -16.6071   20.9728 C   0  0  0  0  0  0  0  0  0  0  0  0
   12.2738  -16.6954   19.8240 O   0  0  0  0  0  0  0  0  0  0  0  0
   14.0769  -16.2577   21.0733 O   0  0  0  0  0  0  0  0  0  0  0  0
  2  1  1  1
  2 10  1  0
  3  2  1  0
  4  3  1  0
  5  4  2  0
  6  5  1  0
  7  8  1  0
  7  6  2  0
  8  9  2  0
  9  4  1  0
 10 14  1  0
 10 11  2  0
 13 12  1  6
 14 13  1  0
 15 22  1  0
 15 13  1  0
 16 15  2  0
 18 20  1  0
 18 17  1  0
 19 18  2  0
 21 20  1  6
 21 23  1  0
 21 22  1  0
 23 25  1  0
 24 23  2  0
M  END
$$$$
