FAN.pdb
     RDKit          3D

 25 25  0  0  1  0  0  0  0  0999 V2000
    6.6568  -16.5752   25.8668 N   0  0  0  0  0  0  0  0  0  0  0  0
    6.8235  -15.4814   24.9501 C   0  0  1  0  0  0  0  0  0  0  0  0
    7.8683  -14.4810   25.4469 C   0  0  0  0  0  0  0  0  0  0  0  0
    7.3150  -13.4503   26.3039 C   0  0  0  0  0  0  0  0  0  0  0  0
    6.0653  -12.9267   26.0621 C   0  0  0  0  0  0  0  0  0  0  0  0
    5.5247  -11.9327   26.8835 C   0  0  0  0  0  0  0  0  0  0  0  0
    6.2518  -11.4742   27.9450 C   0  0  0  0  0  0  0  0  0  0  0  0
    7.5003  -11.9756   28.2126 C   0  0  0  0  0  0  0  0  0  0  0  0
    8.0258  -12.9704   27.3796 C   0  0  0  0  0  0  0  0  0  0  0  0
    7.3185  -15.9244   23.6183 C   0  0  0  0  0  0  0  0  0  0  0  0
    7.6559  -17.1310   23.5111 O   0  0  0  0  0  0  0  0  0  0  0  0
    7.7364  -14.2918   20.2657 C   0  0  0  0  0  0  0  0  0  0  0  0
    7.8353  -15.5235   21.1736 C   0  0  2  0  0  0  0  0  0  0  0  0
    7.4311  -15.0922   22.4894 N   0  0  0  0  0  0  0  0  0  0  0  0
    9.2475  -15.9806   21.1470 C   0  0  0  0  0  0  0  0  0  0  0  0
    9.7371  -16.4034   20.0664 O   0  0  0  0  0  0  0  0  0  0  0  0
   14.5233  -15.5655   21.3649 N   0  0  0  0  0  0  0  0  0  0  0  0
   13.7439  -15.6106   22.5743 C   0  0  0  0  0  0  0  0  0  0  0  0
   14.3337  -15.9619   23.6048 O   0  0  0  0  0  0  0  0  0  0  0  0
   12.3211  -15.2528   22.5593 C   0  0  0  0  0  0  0  0  0  0  0  0
   11.4441  -16.4195   22.3133 C   0  0  2  0  0  0  0  0  0  0  0  0
   10.0406  -15.9436   22.3230 N   0  0  0  0  0  0  0  0  0  0  0  0
   11.5705  -17.4650   23.3240 C   0  0  0  0  0  0  0  0  0  0  0  0
   10.9050  -17.4935   24.3617 O   0  0  0  0  0  0  0  0  0  0  0  0
   12.4855  -18.5277   23.1633 O   0  0  0  0  0  0  0  0  0  0  0  0
  2  1  1  1
  2 10  1  0
  3  2  1  0
  4  3  1  0
  5  4  2  0
  6  5  1  0
  7  8  1  0
  7  6  2  0
  8  9  2  0
  9  4  1  0
 10 14  1  0
 10 11  2  0
 13 12  1  6
 14 13  1  0
 15 22  1  0
 15 13  1  0
 16 15  2  0
 18 20  1  0
 18 17  1  0
 19 18  2  0
 21 20  1  1
 21 23  1  0
 21 22  1  0
 23 25  1  0
 24 23  2  0
M  END
$$$$
