FAN.pdb
     RDKit          3D

 25 25  0  0  1  0  0  0  0  0999 V2000
    5.5265  -18.4751   22.1656 N   0  0  0  0  0  0  0  0  0  0  0  0
    5.9650  -18.0469   23.4652 C   0  0  1  0  0  0  0  0  0  0  0  0
    7.1262  -18.8989   23.9796 C   0  0  0  0  0  0  0  0  0  0  0  0
    6.7623  -20.2823   24.2182 C   0  0  0  0  0  0  0  0  0  0  0  0
    5.6825  -20.6018   25.0096 C   0  0  0  0  0  0  0  0  0  0  0  0
    5.3250  -21.9330   25.2448 C   0  0  0  0  0  0  0  0  0  0  0  0
    6.0623  -22.9333   24.6778 C   0  0  0  0  0  0  0  0  0  0  0  0
    7.1442  -22.6476   23.8842 C   0  0  0  0  0  0  0  0  0  0  0  0
    7.4876  -21.3092   23.6597 C   0  0  0  0  0  0  0  0  0  0  0  0
    6.4843  -16.6522   23.4606 C   0  0  0  0  0  0  0  0  0  0  0  0
    7.0915  -16.2764   22.4255 O   0  0  0  0  0  0  0  0  0  0  0  0
    6.4530  -13.7718   25.8599 C   0  0  0  0  0  0  0  0  0  0  0  0
    7.0796  -14.5115   24.6719 C   0  0  2  0  0  0  0  0  0  0  0  0
    6.3414  -15.7419   24.5238 N   0  0  0  0  0  0  0  0  0  0  0  0
    8.5058  -14.7547   25.0046 C   0  0  0  0  0  0  0  0  0  0  0  0
    9.2710  -13.7716   25.1890 O   0  0  0  0  0  0  0  0  0  0  0  0
    8.7488  -18.8048   27.5103 N   0  0  0  0  0  0  0  0  0  0  0  0
    9.8054  -17.8422   27.3393 C   0  0  0  0  0  0  0  0  0  0  0  0
   10.0940  -17.1505   28.3249 O   0  0  0  0  0  0  0  0  0  0  0  0
   10.4910  -17.7074   26.0492 C   0  0  0  0  0  0  0  0  0  0  0  0
   10.4128  -16.3332   25.5049 C   0  0  2  0  0  0  0  0  0  0  0  0
    9.0061  -16.0780   25.1145 N   0  0  0  0  0  0  0  0  0  0  0  0
   11.2500  -16.1259   24.3273 C   0  0  0  0  0  0  0  0  0  0  0  0
   10.8006  -15.8629   23.2095 O   0  0  0  0  0  0  0  0  0  0  0  0
   12.6562  -16.2177   24.4071 O   0  0  0  0  0  0  0  0  0  0  0  0
  2  1  1  6
  2 10  1  0
  3  2  1  0
  4  3  1  0
  5  4  2  0
  6  5  1  0
  7  8  1  0
  7  6  2  0
  8  9  2  0
  9  4  1  0
 10 14  1  0
 10 11  2  0
 13 12  1  1
 14 13  1  0
 15 22  1  0
 15 13  1  0
 16 15  2  0
 18 20  1  0
 18 17  1  0
 19 18  2  0
 21 20  1  6
 21 23  1  0
 21 22  1  0
 23 25  1  0
 24 23  2  0
M  END
$$$$
