FAN.pdb
     RDKit          3D

 25 25  0  0  1  0  0  0  0  0999 V2000
    5.4952  -17.9210   21.9299 N   0  0  0  0  0  0  0  0  0  0  0  0
    6.7091  -17.3990   21.3658 C   0  0  1  0  0  0  0  0  0  0  0  0
    7.2845  -16.2636   22.2137 C   0  0  0  0  0  0  0  0  0  0  0  0
    7.6221  -15.0837   21.4411 C   0  0  0  0  0  0  0  0  0  0  0  0
    6.6600  -14.1559   21.1126 C   0  0  0  0  0  0  0  0  0  0  0  0
    6.9770  -13.0157   20.3680 C   0  0  0  0  0  0  0  0  0  0  0  0
    8.2660  -12.8208   19.9600 C   0  0  0  0  0  0  0  0  0  0  0  0
    9.2477  -13.7270   20.2712 C   0  0  0  0  0  0  0  0  0  0  0  0
    8.9121  -14.8628   21.0175 C   0  0  0  0  0  0  0  0  0  0  0  0
    7.7922  -18.4178   21.3021 C   0  0  0  0  0  0  0  0  0  0  0  0
    7.8776  -19.2162   22.2698 O   0  0  0  0  0  0  0  0  0  0  0  0
   10.2456  -19.5245   18.7078 C   0  0  0  0  0  0  0  0  0  0  0  0
    9.7546  -19.5357   20.1603 C   0  0  2  0  0  0  0  0  0  0  0  0
    8.7120  -18.5424   20.2447 N   0  0  0  0  0  0  0  0  0  0  0  0
   10.9153  -19.1990   21.0224 C   0  0  0  0  0  0  0  0  0  0  0  0
   11.9062  -19.9758   21.0514 O   0  0  0  0  0  0  0  0  0  0  0  0
   14.4959  -15.4968   23.2672 N   0  0  0  0  0  0  0  0  0  0  0  0
   13.1686  -15.7759   23.7496 C   0  0  0  0  0  0  0  0  0  0  0  0
   12.9738  -15.6266   24.9632 O   0  0  0  0  0  0  0  0  0  0  0  0
   12.1157  -16.2146   22.8268 C   0  0  0  0  0  0  0  0  0  0  0  0
   12.0519  -17.6877   22.6964 C   0  0  2  0  0  0  0  0  0  0  0  0
   10.9131  -18.0166   21.8069 N   0  0  0  0  0  0  0  0  0  0  0  0
   11.8420  -18.3750   23.9669 C   0  0  0  0  0  0  0  0  0  0  0  0
   10.7426  -18.4685   24.5175 O   0  0  0  0  0  0  0  0  0  0  0  0
   12.9148  -18.9858   24.6514 O   0  0  0  0  0  0  0  0  0  0  0  0
  2  1  1  1
  2 10  1  0
  3  2  1  0
  4  3  1  0
  5  4  2  0
  6  5  1  0
  7  8  1  0
  7  6  2  0
  8  9  2  0
  9  4  1  0
 10 14  1  0
 10 11  2  0
 13 12  1  6
 14 13  1  0
 15 22  1  0
 15 13  1  0
 16 15  2  0
 18 20  1  0
 18 17  1  0
 19 18  2  0
 21 20  1  1
 21 23  1  0
 21 22  1  0
 23 25  1  0
 24 23  2  0
M  END
$$$$
