FAN.pdb
     RDKit          3D

 25 25  0  0  1  0  0  0  0  0999 V2000
    6.2713  -16.6237   25.4077 N   0  0  0  0  0  0  0  0  0  0  0  0
    6.9198  -15.7370   24.4817 C   0  0  1  0  0  0  0  0  0  0  0  0
    8.1197  -15.0335   25.1177 C   0  0  0  0  0  0  0  0  0  0  0  0
    7.7666  -13.8108   25.8130 C   0  0  0  0  0  0  0  0  0  0  0  0
    7.8682  -12.5887   25.1881 C   0  0  0  0  0  0  0  0  0  0  0  0
    7.5300  -11.4052   25.8513 C   0  0  0  0  0  0  0  0  0  0  0  0
    7.0908  -11.4651   27.1434 C   0  0  0  0  0  0  0  0  0  0  0  0
    6.9787  -12.6676   27.7940 C   0  0  0  0  0  0  0  0  0  0  0  0
    7.3217  -13.8424   27.1144 C   0  0  0  0  0  0  0  0  0  0  0  0
    7.4756  -16.4529   23.3011 C   0  0  0  0  0  0  0  0  0  0  0  0
    7.8491  -17.6399   23.4817 O   0  0  0  0  0  0  0  0  0  0  0  0
    7.7111  -15.7691   19.6389 C   0  0  0  0  0  0  0  0  0  0  0  0
    8.1585  -16.5705   20.8672 C   0  0  2  0  0  0  0  0  0  0  0  0
    7.6076  -15.8948   22.0164 N   0  0  0  0  0  0  0  0  0  0  0  0
    9.6430  -16.5696   20.8795 C   0  0  0  0  0  0  0  0  0  0  0  0
   10.2660  -17.2305   20.0070 O   0  0  0  0  0  0  0  0  0  0  0  0
   11.6193  -13.3956   19.4235 N   0  0  0  0  0  0  0  0  0  0  0  0
   12.3690  -14.4554   20.0455 C   0  0  0  0  0  0  0  0  0  0  0  0
   12.9898  -15.2160   19.2909 O   0  0  0  0  0  0  0  0  0  0  0  0
   12.3803  -14.6051   21.5049 C   0  0  0  0  0  0  0  0  0  0  0  0
   11.8341  -15.9079   21.9469 C   0  0  2  0  0  0  0  0  0  0  0  0
   10.3564  -15.8341   21.8611 N   0  0  0  0  0  0  0  0  0  0  0  0
   12.1873  -16.2501   23.3212 C   0  0  0  0  0  0  0  0  0  0  0  0
   11.3568  -16.4082   24.2189 O   0  0  0  0  0  0  0  0  0  0  0  0
   13.5341  -16.4231   23.7063 O   0  0  0  0  0  0  0  0  0  0  0  0
  2  1  1  1
  2 10  1  0
  3  2  1  0
  4  3  1  0
  5  4  2  0
  6  5  1  0
  7  8  1  0
  7  6  2  0
  8  9  2  0
  9  4  1  0
 10 14  1  0
 10 11  2  0
 13 12  1  6
 14 13  1  0
 15 22  1  0
 15 13  1  0
 16 15  2  0
 18 20  1  0
 18 17  1  0
 19 18  2  0
 21 20  1  1
 21 23  1  0
 21 22  1  0
 23 25  1  0
 24 23  2  0
M  END
$$$$
