FAN.pdb
     RDKit          3D

 25 25  0  0  1  0  0  0  0  0999 V2000
    8.0840  -17.0858   21.3497 N   0  0  0  0  0  0  0  0  0  0  0  0
    9.2816  -16.7503   20.6303 C   0  0  1  0  0  0  0  0  0  0  0  0
    9.7360  -15.3197   20.9238 C   0  0  0  0  0  0  0  0  0  0  0  0
    8.7793  -14.3149   20.5018 C   0  0  0  0  0  0  0  0  0  0  0  0
    8.0067  -13.6448   21.4228 C   0  0  0  0  0  0  0  0  0  0  0  0
    7.0819  -12.6747   21.0243 C   0  0  0  0  0  0  0  0  0  0  0  0
    6.9442  -12.3883   19.6958 C   0  0  0  0  0  0  0  0  0  0  0  0
    7.6993  -13.0388   18.7532 C   0  0  0  0  0  0  0  0  0  0  0  0
    8.6203  -14.0070   19.1705 C   0  0  0  0  0  0  0  0  0  0  0  0
   10.4364  -17.6067   21.0149 C   0  0  0  0  0  0  0  0  0  0  0  0
   10.5086  -17.9534   22.2215 O   0  0  0  0  0  0  0  0  0  0  0  0
   13.0904  -19.4755   19.1792 C   0  0  0  0  0  0  0  0  0  0  0  0
   12.5625  -18.8737   20.4869 C   0  0  2  0  0  0  0  0  0  0  0  0
   11.4367  -18.0462   20.1284 N   0  0  0  0  0  0  0  0  0  0  0  0
   13.6661  -18.0826   21.0871 C   0  0  0  0  0  0  0  0  0  0  0  0
   14.7242  -18.6693   21.4368 O   0  0  0  0  0  0  0  0  0  0  0  0
   16.7159  -15.1177   19.7734 N   0  0  0  0  0  0  0  0  0  0  0  0
   15.3471  -14.6832   19.8720 C   0  0  0  0  0  0  0  0  0  0  0  0
   14.7731  -14.4042   18.8109 O   0  0  0  0  0  0  0  0  0  0  0  0
   14.6875  -14.5843   21.1788 C   0  0  0  0  0  0  0  0  0  0  0  0
   14.6226  -15.8848   21.8826 C   0  0  2  0  0  0  0  0  0  0  0  0
   13.5349  -16.6813   21.2671 N   0  0  0  0  0  0  0  0  0  0  0  0
   14.3362  -15.7604   23.3084 C   0  0  0  0  0  0  0  0  0  0  0  0
   13.3113  -16.1959   23.8381 O   0  0  0  0  0  0  0  0  0  0  0  0
   15.2411  -15.1178   24.1805 O   0  0  0  0  0  0  0  0  0  0  0  0
  2  1  1  1
  2 10  1  0
  3  2  1  0
  4  3  1  0
  5  4  2  0
  6  5  1  0
  7  8  1  0
  7  6  2  0
  8  9  2  0
  9  4  1  0
 10 14  1  0
 10 11  2  0
 13 12  1  6
 14 13  1  0
 15 22  1  0
 15 13  1  0
 16 15  2  0
 18 20  1  0
 18 17  1  0
 19 18  2  0
 21 20  1  6
 21 23  1  0
 21 22  1  0
 23 25  1  0
 24 23  2  0
M  END
$$$$
