MNA.pdb
     RDKit          3D

 22 21  0  0  1  0  0  0  0  0999 V2000
    7.0116  -10.8003   27.8355 C   0  0  0  0  0  0  0  0  0  0  0  0
    7.0186  -11.9473   26.4591 S   0  0  0  0  0  0  0  0  0  0  0  0
    6.2235  -13.5053   26.9631 C   0  0  0  0  0  0  0  0  0  0  0  0
    6.1384  -14.4668   25.8095 C   0  0  0  0  0  0  0  0  0  0  0  0
    7.3958  -14.5619   25.0081 C   0  0  2  0  0  0  0  0  0  0  0  0
    7.9142  -13.2068   24.7372 N   0  0  0  0  0  0  0  0  0  0  0  0
    7.2981  -15.3380   23.7587 C   0  0  0  0  0  0  0  0  0  0  0  0
    6.8694  -16.5300   23.7461 O   0  0  0  0  0  0  0  0  0  0  0  0
    8.3010  -12.5033   20.2121 N   0  0  0  0  0  0  0  0  0  0  0  0
    8.2864  -13.8464   19.7552 C   0  0  0  0  0  0  0  0  0  0  0  0
    9.2222  -14.2575   18.9848 O   0  0  0  0  0  0  0  0  0  0  0  0
    7.1896  -14.7503   20.1738 C   0  0  0  0  0  0  0  0  0  0  0  0
    7.6595  -15.6396   21.2942 C   0  0  2  0  0  0  0  0  0  0  0  0
    7.6655  -14.8327   22.4911 N   0  0  0  0  0  0  0  0  0  0  0  0
    8.9776  -16.2456   21.0330 C   0  0  0  0  0  0  0  0  0  0  0  0
    9.1052  -17.0199   20.0587 O   0  0  0  0  0  0  0  0  0  0  0  0
   12.5054  -15.9456   21.3482 C   0  0  0  0  0  0  0  0  0  0  0  0
   11.2847  -16.7758   21.6713 C   0  0  2  0  0  0  0  0  0  0  0  0
   10.1079  -15.9845   21.8443 N   0  0  0  0  0  0  0  0  0  0  0  0
   11.4980  -17.6177   22.8779 C   0  0  0  0  0  0  0  0  0  0  0  0
   10.6598  -17.5465   23.9793 O   0  0  0  0  0  0  0  0  0  0  0  0
   12.4588  -18.4211   22.9236 O   0  0  0  0  0  0  0  0  0  0  0  0
  2  1  1  0
  3  2  1  0
  4  5  1  0
  4  3  1  0
  5  7  1  0
  5  6  1  6
  7  8  2  0
  9 10  1  0
 10 11  2  0
 12 10  1  0
 13 12  1  6
 14 13  1  0
 14  7  1  0
 15 16  2  0
 15 13  1  0
 18 17  1  1
 18 19  1  0
 18 20  1  0
 19 15  1  0
 20 21  1  0
 22 20  2  0
M  END
$$$$
