MNA.pdb
     RDKit          3D

 22 21  0  0  1  0  0  0  0  0999 V2000
    6.8161  -11.0427   25.5636 C   0  0  0  0  0  0  0  0  0  0  0  0
    6.1151  -12.5031   26.3288 S   0  0  0  0  0  0  0  0  0  0  0  0
    5.5017  -13.6301   25.0376 C   0  0  0  0  0  0  0  0  0  0  0  0
    6.3683  -14.8550   24.9326 C   0  0  0  0  0  0  0  0  0  0  0  0
    7.7864  -14.5621   24.5642 C   0  0  2  0  0  0  0  0  0  0  0  0
    7.8501  -14.1094   23.1609 N   0  0  0  0  0  0  0  0  0  0  0  0
    8.7449  -15.6571   24.7988 C   0  0  0  0  0  0  0  0  0  0  0  0
    8.4422  -16.6702   25.4965 O   0  0  0  0  0  0  0  0  0  0  0  0
   10.7157  -17.8580   22.2776 N   0  0  0  0  0  0  0  0  0  0  0  0
   11.8918  -17.0784   22.4250 C   0  0  0  0  0  0  0  0  0  0  0  0
   12.6572  -16.8998   21.4147 O   0  0  0  0  0  0  0  0  0  0  0  0
   12.2170  -16.4859   23.7435 C   0  0  0  0  0  0  0  0  0  0  0  0
   11.0477  -16.6462   24.6784 C   0  0  2  0  0  0  0  0  0  0  0  0
   10.0585  -15.6743   24.2777 N   0  0  0  0  0  0  0  0  0  0  0  0
   11.4210  -16.4979   26.0967 C   0  0  0  0  0  0  0  0  0  0  0  0
   12.3643  -17.1840   26.5490 O   0  0  0  0  0  0  0  0  0  0  0  0
   10.5885  -14.3335   29.0546 C   0  0  0  0  0  0  0  0  0  0  0  0
   11.1627  -15.5322   28.3355 C   0  0  2  0  0  0  0  0  0  0  0  0
   10.7516  -15.6066   26.9693 N   0  0  0  0  0  0  0  0  0  0  0  0
   10.8188  -16.8028   29.0267 C   0  0  0  0  0  0  0  0  0  0  0  0
    9.9604  -17.7343   28.4645 O   0  0  0  0  0  0  0  0  0  0  0  0
   11.3060  -17.0592   30.1526 O   0  0  0  0  0  0  0  0  0  0  0  0
  2  1  1  0
  3  2  1  0
  4  5  1  0
  4  3  1  0
  5  7  1  0
  5  6  1  6
  7  8  2  0
  9 10  1  0
 10 11  2  0
 12 10  1  0
 13 12  1  6
 14 13  1  0
 14  7  1  0
 15 16  2  0
 15 13  1  0
 18 17  1  1
 18 19  1  0
 18 20  1  0
 19 15  1  0
 20 21  1  0
 22 20  2  0
M  END
$$$$
