MNA.pdb
     RDKit          3D

 22 21  0  0  1  0  0  0  0  0999 V2000
    8.3433  -11.5165   19.4270 C   0  0  0  0  0  0  0  0  0  0  0  0
    7.7567  -13.1984   19.6192 S   0  0  0  0  0  0  0  0  0  0  0  0
    7.8528  -13.6782   21.3726 C   0  0  0  0  0  0  0  0  0  0  0  0
    7.3858  -15.0940   21.5721 C   0  0  0  0  0  0  0  0  0  0  0  0
    7.4844  -15.5694   22.9851 C   0  0  2  0  0  0  0  0  0  0  0  0
    7.3234  -14.4262   23.9046 N   0  0  0  0  0  0  0  0  0  0  0  0
    8.7004  -16.3334   23.3171 C   0  0  0  0  0  0  0  0  0  0  0  0
    8.7476  -17.5942   23.2033 O   0  0  0  0  0  0  0  0  0  0  0  0
   10.5639  -15.4186   22.0712 N   0  0  0  0  0  0  0  0  0  0  0  0
   11.8643  -15.9010   22.3697 C   0  0  0  0  0  0  0  0  0  0  0  0
   12.7868  -15.8061   21.4874 O   0  0  0  0  0  0  0  0  0  0  0  0
   12.1340  -16.5079   23.6942 C   0  0  0  0  0  0  0  0  0  0  0  0
   10.8881  -16.4668   24.5386 C   0  0  2  0  0  0  0  0  0  0  0  0
    9.8964  -15.7407   23.7816 N   0  0  0  0  0  0  0  0  0  0  0  0
   11.1130  -15.8680   25.8666 C   0  0  0  0  0  0  0  0  0  0  0  0
   12.2853  -15.7544   26.2884 O   0  0  0  0  0  0  0  0  0  0  0  0
    9.4796  -13.7012   28.3384 C   0  0  0  0  0  0  0  0  0  0  0  0
   10.3481  -14.8843   27.9782 C   0  0  2  0  0  0  0  0  0  0  0  0
   10.0508  -15.4151   26.6856 N   0  0  0  0  0  0  0  0  0  0  0  0
   10.2495  -15.9661   28.9932 C   0  0  0  0  0  0  0  0  0  0  0  0
   10.7366  -15.8097   30.2811 O   0  0  0  0  0  0  0  0  0  0  0  0
    9.7161  -17.0608   28.6971 O   0  0  0  0  0  0  0  0  0  0  0  0
  2  1  1  0
  3  2  1  0
  4  5  1  0
  4  3  1  0
  5  7  1  0
  5  6  1  1
  7  8  2  0
  9 10  1  0
 10 11  2  0
 12 10  1  0
 13 12  1  6
 14 13  1  0
 14  7  1  0
 15 16  2  0
 15 13  1  0
 18 17  1  1
 18 19  1  0
 18 20  1  0
 19 15  1  0
 20 21  1  0
 22 20  2  0
M  END
$$$$
