MNA.pdb
     RDKit          3D

 22 21  0  0  1  0  0  0  0  0999 V2000
    8.1888  -12.7589   21.5806 C   0  0  0  0  0  0  0  0  0  0  0  0
    7.7185  -12.3077   19.9117 S   0  0  0  0  0  0  0  0  0  0  0  0
    7.6004  -13.8079   18.8876 C   0  0  0  0  0  0  0  0  0  0  0  0
    8.4893  -14.8979   19.4206 C   0  0  0  0  0  0  0  0  0  0  0  0
    8.4962  -16.1355   18.5836 C   0  0  2  0  0  0  0  0  0  0  0  0
    7.1213  -16.6577   18.4603 N   0  0  0  0  0  0  0  0  0  0  0  0
    9.4160  -17.1990   19.0261 C   0  0  0  0  0  0  0  0  0  0  0  0
    9.0548  -18.0943   19.8463 O   0  0  0  0  0  0  0  0  0  0  0  0
   11.2429  -19.6534   16.7989 N   0  0  0  0  0  0  0  0  0  0  0  0
   12.5211  -19.0530   16.9345 C   0  0  0  0  0  0  0  0  0  0  0  0
   13.3676  -19.1564   15.9800 O   0  0  0  0  0  0  0  0  0  0  0  0
   12.8571  -18.3188   18.1769 C   0  0  0  0  0  0  0  0  0  0  0  0
   11.6674  -18.3041   19.0997 C   0  0  2  0  0  0  0  0  0  0  0  0
   10.7536  -17.3126   18.5843 N   0  0  0  0  0  0  0  0  0  0  0  0
   12.0317  -18.0391   20.5032 C   0  0  0  0  0  0  0  0  0  0  0  0
   12.6443  -16.9842   20.7805 O   0  0  0  0  0  0  0  0  0  0  0  0
   10.8756  -18.9127   23.8530 C   0  0  0  0  0  0  0  0  0  0  0  0
   11.9920  -18.5517   22.9005 C   0  0  2  0  0  0  0  0  0  0  0  0
   11.7142  -18.9348   21.5526 N   0  0  0  0  0  0  0  0  0  0  0  0
   13.2884  -19.1417   23.3266 C   0  0  0  0  0  0  0  0  0  0  0  0
   13.9885  -20.0298   22.5253 O   0  0  0  0  0  0  0  0  0  0  0  0
   13.7807  -18.8433   24.4398 O   0  0  0  0  0  0  0  0  0  0  0  0
  2  1  1  0
  3  2  1  0
  4  5  1  0
  4  3  1  0
  5  7  1  0
  5  6  1  1
  7  8  2  0
  9 10  1  0
 10 11  2  0
 12 10  1  0
 13 12  1  6
 14 13  1  0
 14  7  1  0
 15 16  2  0
 15 13  1  0
 18 17  1  1
 18 19  1  0
 18 20  1  0
 19 15  1  0
 20 21  1  0
 22 20  2  0
M  END
$$$$
