MNA.pdb
     RDKit          3D

 22 21  0  0  1  0  0  0  0  0999 V2000
    4.8176  -10.7408   26.2782 C   0  0  0  0  0  0  0  0  0  0  0  0
    6.0083  -12.0744   26.3949 S   0  0  0  0  0  0  0  0  0  0  0  0
    6.1415  -12.9121   24.7843 C   0  0  0  0  0  0  0  0  0  0  0  0
    7.4018  -13.7291   24.7023 C   0  0  0  0  0  0  0  0  0  0  0  0
    7.1624  -15.1933   24.5261 C   0  0  2  0  0  0  0  0  0  0  0  0
    6.0744  -15.6288   25.4233 N   0  0  0  0  0  0  0  0  0  0  0  0
    8.3457  -16.0568   24.6904 C   0  0  0  0  0  0  0  0  0  0  0  0
    8.4527  -16.8636   25.6611 O   0  0  0  0  0  0  0  0  0  0  0  0
   12.3394  -19.0020   21.8042 N   0  0  0  0  0  0  0  0  0  0  0  0
   12.4358  -17.8849   22.6735 C   0  0  0  0  0  0  0  0  0  0  0  0
   13.4485  -17.7787   23.4491 O   0  0  0  0  0  0  0  0  0  0  0  0
   11.3644  -16.8615   22.6723 C   0  0  0  0  0  0  0  0  0  0  0  0
   10.5678  -16.9537   23.9466 C   0  0  2  0  0  0  0  0  0  0  0  0
    9.4423  -16.0620   23.7990 N   0  0  0  0  0  0  0  0  0  0  0  0
   11.3643  -16.6398   25.1466 C   0  0  0  0  0  0  0  0  0  0  0  0
   12.1335  -15.6535   25.1211 O   0  0  0  0  0  0  0  0  0  0  0  0
   11.1003  -15.5809   27.9428 C   0  0  0  0  0  0  0  0  0  0  0  0
   11.7940  -16.8647   27.5499 C   0  0  2  0  0  0  0  0  0  0  0  0
   11.2922  -17.4132   26.3300 N   0  0  0  0  0  0  0  0  0  0  0  0
   11.7068  -17.8866   28.6261 C   0  0  0  0  0  0  0  0  0  0  0  0
   12.2570  -17.6788   29.8810 O   0  0  0  0  0  0  0  0  0  0  0  0
   11.1253  -18.9764   28.4143 O   0  0  0  0  0  0  0  0  0  0  0  0
  2  1  1  0
  3  2  1  0
  4  5  1  0
  4  3  1  0
  5  7  1  0
  5  6  1  1
  7  8  2  0
  9 10  1  0
 10 11  2  0
 12 10  1  0
 13 12  1  6
 14 13  1  0
 14  7  1  0
 15 16  2  0
 15 13  1  0
 18 17  1  1
 18 19  1  0
 18 20  1  0
 19 15  1  0
 20 21  1  0
 22 20  2  0
M  END
$$$$
