MNA.pdb
     RDKit          3D

 22 21  0  0  1  0  0  0  0  0999 V2000
    7.7514  -11.8073   21.6691 C   0  0  0  0  0  0  0  0  0  0  0  0
    7.7202  -12.4693   20.0046 S   0  0  0  0  0  0  0  0  0  0  0  0
    8.1621  -14.2347   20.0449 C   0  0  0  0  0  0  0  0  0  0  0  0
    8.2943  -14.7268   21.4601 C   0  0  0  0  0  0  0  0  0  0  0  0
    8.6453  -16.1753   21.5658 C   0  0  2  0  0  0  0  0  0  0  0  0
    7.7050  -16.9732   20.7550 N   0  0  0  0  0  0  0  0  0  0  0  0
    8.7314  -16.7118   22.9361 C   0  0  0  0  0  0  0  0  0  0  0  0
    7.7190  -17.1874   23.5307 O   0  0  0  0  0  0  0  0  0  0  0  0
   10.6885  -19.8362   26.7728 N   0  0  0  0  0  0  0  0  0  0  0  0
   11.4395  -18.6800   26.4380 C   0  0  0  0  0  0  0  0  0  0  0  0
   12.2345  -18.1752   27.3048 O   0  0  0  0  0  0  0  0  0  0  0  0
   11.2910  -18.0743   25.0939 C   0  0  0  0  0  0  0  0  0  0  0  0
    9.9974  -17.3075   25.0188 C   0  0  2  0  0  0  0  0  0  0  0  0
    9.9249  -16.7431   23.6922 N   0  0  0  0  0  0  0  0  0  0  0  0
    9.8802  -16.2739   26.0632 C   0  0  0  0  0  0  0  0  0  0  0  0
    9.5535  -16.6178   27.2208 O   0  0  0  0  0  0  0  0  0  0  0  0
    8.3773  -13.6030   26.9263 C   0  0  0  0  0  0  0  0  0  0  0  0
    9.8461  -13.9449   26.8287 C   0  0  2  0  0  0  0  0  0  0  0  0
   10.1239  -14.9033   25.8063 N   0  0  0  0  0  0  0  0  0  0  0  0
   10.3825  -14.4342   28.1260 C   0  0  0  0  0  0  0  0  0  0  0  0
   10.9931  -15.6724   28.2468 O   0  0  0  0  0  0  0  0  0  0  0  0
   10.2891  -13.7239   29.1544 O   0  0  0  0  0  0  0  0  0  0  0  0
  2  1  1  0
  3  2  1  0
  4  5  1  0
  4  3  1  0
  5  7  1  0
  5  6  1  6
  7  8  2  0
  9 10  1  0
 10 11  2  0
 12 10  1  0
 13 12  1  6
 14 13  1  0
 14  7  1  0
 15 16  2  0
 15 13  1  0
 18 17  1  1
 18 19  1  0
 18 20  1  0
 19 15  1  0
 20 21  1  0
 22 20  2  0
M  END
$$$$
