MNA.pdb
     RDKit          3D

 22 21  0  0  1  0  0  0  0  0999 V2000
    7.5053  -11.7400   20.9554 C   0  0  0  0  0  0  0  0  0  0  0  0
    7.9456  -12.3948   19.3469 S   0  0  0  0  0  0  0  0  0  0  0  0
    8.3373  -14.1660   19.4989 C   0  0  0  0  0  0  0  0  0  0  0  0
    8.4389  -14.5754   20.9427 C   0  0  0  0  0  0  0  0  0  0  0  0
    8.7479  -16.0239   21.1398 C   0  0  2  0  0  0  0  0  0  0  0  0
    7.7480  -16.8447   20.4293 N   0  0  0  0  0  0  0  0  0  0  0  0
    8.8769  -16.4631   22.5410 C   0  0  0  0  0  0  0  0  0  0  0  0
    7.8682  -16.5819   23.2981 O   0  0  0  0  0  0  0  0  0  0  0  0
   10.4565  -18.3050   26.9745 N   0  0  0  0  0  0  0  0  0  0  0  0
   11.3945  -18.7317   25.9993 C   0  0  0  0  0  0  0  0  0  0  0  0
   12.2801  -19.5994   26.3177 O   0  0  0  0  0  0  0  0  0  0  0  0
   11.3366  -18.1664   24.6310 C   0  0  0  0  0  0  0  0  0  0  0  0
   10.2229  -17.1571   24.5415 C   0  0  2  0  0  0  0  0  0  0  0  0
   10.1104  -16.7841   23.1516 N   0  0  0  0  0  0  0  0  0  0  0  0
   10.4379  -15.9852   25.4095 C   0  0  0  0  0  0  0  0  0  0  0  0
   11.4688  -15.2947   25.2494 O   0  0  0  0  0  0  0  0  0  0  0  0
    8.5932  -13.5292   27.3183 C   0  0  0  0  0  0  0  0  0  0  0  0
    9.7888  -14.4464   27.2045 C   0  0  2  0  0  0  0  0  0  0  0  0
    9.5204  -15.6098   26.4200 N   0  0  0  0  0  0  0  0  0  0  0  0
   10.2953  -14.8555   28.5411 C   0  0  0  0  0  0  0  0  0  0  0  0
   10.7410  -13.9298   29.4711 O   0  0  0  0  0  0  0  0  0  0  0  0
   10.3313  -16.0677   28.8570 O   0  0  0  0  0  0  0  0  0  0  0  0
  2  1  1  0
  3  2  1  0
  4  5  1  0
  4  3  1  0
  5  7  1  0
  5  6  1  1
  7  8  2  0
  9 10  1  0
 10 11  2  0
 12 10  1  0
 13 12  1  6
 14 13  1  0
 14  7  1  0
 15 16  2  0
 15 13  1  0
 18 17  1  1
 18 19  1  0
 18 20  1  0
 19 15  1  0
 20 21  1  0
 22 20  2  0
M  END
$$$$
