MNA.pdb
     RDKit          3D

 22 21  0  0  1  0  0  0  0  0999 V2000
    5.3024  -11.2732   26.3923 C   0  0  0  0  0  0  0  0  0  0  0  0
    6.4592  -12.3921   25.6050 S   0  0  0  0  0  0  0  0  0  0  0  0
    5.5556  -13.8151   24.9179 C   0  0  0  0  0  0  0  0  0  0  0  0
    6.4882  -14.7535   24.2022 C   0  0  0  0  0  0  0  0  0  0  0  0
    7.6442  -15.2069   25.0331 C   0  0  2  0  0  0  0  0  0  0  0  0
    8.2049  -14.0580   25.7706 N   0  0  0  0  0  0  0  0  0  0  0  0
    8.7075  -15.9252   24.3077 C   0  0  0  0  0  0  0  0  0  0  0  0
    8.5231  -17.0837   23.8296 O   0  0  0  0  0  0  0  0  0  0  0  0
   13.5854  -17.5679   22.7056 N   0  0  0  0  0  0  0  0  0  0  0  0
   13.4963  -16.3214   23.3773 C   0  0  0  0  0  0  0  0  0  0  0  0
   14.5094  -15.8842   24.0260 O   0  0  0  0  0  0  0  0  0  0  0  0
   12.2342  -15.5473   23.3198 C   0  0  0  0  0  0  0  0  0  0  0  0
   11.2009  -16.1875   24.2082 C   0  0  2  0  0  0  0  0  0  0  0  0
    9.9994  -15.3970   24.0852 N   0  0  0  0  0  0  0  0  0  0  0  0
   11.6409  -16.3045   25.6102 C   0  0  0  0  0  0  0  0  0  0  0  0
   12.6553  -16.9886   25.8709 O   0  0  0  0  0  0  0  0  0  0  0  0
   11.0929  -14.6565   28.9006 C   0  0  0  0  0  0  0  0  0  0  0  0
   11.4572  -15.8190   28.0064 C   0  0  2  0  0  0  0  0  0  0  0  0
   10.9580  -15.6707   26.6761 N   0  0  0  0  0  0  0  0  0  0  0  0
   10.9889  -17.1124   28.5705 C   0  0  0  0  0  0  0  0  0  0  0  0
   10.0930  -17.9256   27.8948 O   0  0  0  0  0  0  0  0  0  0  0  0
   11.4014  -17.4978   29.6894 O   0  0  0  0  0  0  0  0  0  0  0  0
  2  1  1  0
  3  2  1  0
  4  5  1  0
  4  3  1  0
  5  7  1  0
  5  6  1  6
  7  8  2  0
  9 10  1  0
 10 11  2  0
 12 10  1  0
 13 12  1  6
 14 13  1  0
 14  7  1  0
 15 16  2  0
 15 13  1  0
 18 17  1  1
 18 19  1  0
 18 20  1  0
 19 15  1  0
 20 21  1  0
 22 20  2  0
M  END
$$$$
