MNA.pdb
     RDKit          3D

 22 21  0  0  1  0  0  0  0  0999 V2000
    6.2579  -12.6741   20.0189 C   0  0  0  0  0  0  0  0  0  0  0  0
    7.9074  -12.4178   19.3682 S   0  0  0  0  0  0  0  0  0  0  0  0
    8.9173  -13.9015   19.6723 C   0  0  0  0  0  0  0  0  0  0  0  0
    8.7703  -14.3739   21.0927 C   0  0  0  0  0  0  0  0  0  0  0  0
    9.5582  -15.6044   21.4049 C   0  0  2  0  0  0  0  0  0  0  0  0
    9.3486  -16.6091   20.3443 N   0  0  0  0  0  0  0  0  0  0  0  0
    9.3165  -16.1958   22.7333 C   0  0  0  0  0  0  0  0  0  0  0  0
    9.4297  -15.5162   23.7964 O   0  0  0  0  0  0  0  0  0  0  0  0
    6.2988  -17.1429   24.9797 N   0  0  0  0  0  0  0  0  0  0  0  0
    6.3639  -18.3559   24.2469 C   0  0  0  0  0  0  0  0  0  0  0  0
    5.3110  -18.7963   23.6673 O   0  0  0  0  0  0  0  0  0  0  0  0
    7.6459  -19.0943   24.1654 C   0  0  0  0  0  0  0  0  0  0  0  0
    8.7981  -18.1285   24.2470 C   0  0  2  0  0  0  0  0  0  0  0  0
    8.9449  -17.5443   22.9352 N   0  0  0  0  0  0  0  0  0  0  0  0
   10.0466  -18.7609   24.7100 C   0  0  0  0  0  0  0  0  0  0  0  0
   10.0724  -19.2910   25.8429 O   0  0  0  0  0  0  0  0  0  0  0  0
   13.1557  -20.1911   23.3782 C   0  0  0  0  0  0  0  0  0  0  0  0
   12.3887  -19.4324   24.4364 C   0  0  2  0  0  0  0  0  0  0  0  0
   11.2209  -18.7917   23.9200 N   0  0  0  0  0  0  0  0  0  0  0  0
   13.2451  -18.4271   25.1192 C   0  0  0  0  0  0  0  0  0  0  0  0
   14.3944  -18.7873   25.8047 O   0  0  0  0  0  0  0  0  0  0  0  0
   12.9369  -17.2127   25.0892 O   0  0  0  0  0  0  0  0  0  0  0  0
  2  1  1  0
  3  2  1  0
  4  5  1  0
  4  3  1  0
  5  7  1  0
  5  6  1  6
  7  8  2  0
  9 10  1  0
 10 11  2  0
 12 10  1  0
 13 12  1  6
 14 13  1  0
 14  7  1  0
 15 16  2  0
 15 13  1  0
 18 17  1  6
 18 19  1  0
 18 20  1  0
 19 15  1  0
 20 21  1  0
 22 20  2  0
M  END
$$$$
