MNA.pdb
     RDKit          3D

 22 21  0  0  1  0  0  0  0  0999 V2000
    7.0466  -11.9328   25.8161 C   0  0  0  0  0  0  0  0  0  0  0  0
    6.2171  -13.2250   26.7391 S   0  0  0  0  0  0  0  0  0  0  0  0
    6.7810  -14.8515   26.1472 C   0  0  0  0  0  0  0  0  0  0  0  0
    6.6903  -14.9428   24.6486 C   0  0  0  0  0  0  0  0  0  0  0  0
    7.1560  -16.2494   24.0935 C   0  0  2  0  0  0  0  0  0  0  0  0
    6.2216  -17.3192   24.4945 N   0  0  0  0  0  0  0  0  0  0  0  0
    8.5432  -16.6236   24.4228 C   0  0  0  0  0  0  0  0  0  0  0  0
    8.8111  -17.6573   25.1043 O   0  0  0  0  0  0  0  0  0  0  0  0
   12.4372  -17.4943   21.8561 N   0  0  0  0  0  0  0  0  0  0  0  0
   11.7869  -16.2557   22.0922 C   0  0  0  0  0  0  0  0  0  0  0  0
   11.0763  -15.7330   21.1647 O   0  0  0  0  0  0  0  0  0  0  0  0
   11.9416  -15.5860   23.4049 C   0  0  0  0  0  0  0  0  0  0  0  0
   11.0194  -16.2184   24.4132 C   0  0  2  0  0  0  0  0  0  0  0  0
    9.6736  -15.8792   24.0162 N   0  0  0  0  0  0  0  0  0  0  0  0
   11.3065  -15.7995   25.7970 C   0  0  0  0  0  0  0  0  0  0  0  0
   12.4406  -16.0251   26.2745 O   0  0  0  0  0  0  0  0  0  0  0  0
    9.9434  -13.5122   28.3840 C   0  0  0  0  0  0  0  0  0  0  0  0
   10.7190  -14.7233   27.9202 C   0  0  2  0  0  0  0  0  0  0  0  0
   10.3458  -15.1500   26.6089 N   0  0  0  0  0  0  0  0  0  0  0  0
   10.5811  -15.8593   28.8694 C   0  0  0  0  0  0  0  0  0  0  0  0
   10.0736  -17.0870   28.4749 O   0  0  0  0  0  0  0  0  0  0  0  0
   10.9255  -15.7248   30.0669 O   0  0  0  0  0  0  0  0  0  0  0  0
  2  1  1  0
  3  2  1  0
  4  5  1  0
  4  3  1  0
  5  7  1  0
  5  6  1  1
  7  8  2  0
  9 10  1  0
 10 11  2  0
 12 10  1  0
 13 12  1  6
 14 13  1  0
 14  7  1  0
 15 16  2  0
 15 13  1  0
 18 17  1  1
 18 19  1  0
 18 20  1  0
 19 15  1  0
 20 21  1  0
 22 20  2  0
M  END
$$$$
