MNA.pdb
     RDKit          3D

 22 21  0  0  1  0  0  0  0  0999 V2000
    8.5064  -12.8161   21.8497 C   0  0  0  0  0  0  0  0  0  0  0  0
    7.6053  -12.4151   20.3540 S   0  0  0  0  0  0  0  0  0  0  0  0
    8.2612  -13.3967   18.9684 C   0  0  0  0  0  0  0  0  0  0  0  0
    8.1020  -14.8699   19.2264 C   0  0  0  0  0  0  0  0  0  0  0  0
    9.1728  -15.4511   20.0913 C   0  0  2  0  0  0  0  0  0  0  0  0
   10.4062  -14.6517   19.9570 N   0  0  0  0  0  0  0  0  0  0  0  0
    9.4574  -16.8817   19.8786 C   0  0  0  0  0  0  0  0  0  0  0  0
    8.5410  -17.7557   19.9101 O   0  0  0  0  0  0  0  0  0  0  0  0
   13.5650  -20.9002   17.9996 N   0  0  0  0  0  0  0  0  0  0  0  0
   12.2374  -20.4883   18.2839 C   0  0  0  0  0  0  0  0  0  0  0  0
   11.3238  -21.3726   18.4309 O   0  0  0  0  0  0  0  0  0  0  0  0
   11.9287  -19.0441   18.4038 C   0  0  0  0  0  0  0  0  0  0  0  0
   11.0392  -18.8087   19.5956 C   0  0  2  0  0  0  0  0  0  0  0  0
   10.7497  -17.3949   19.6258 N   0  0  0  0  0  0  0  0  0  0  0  0
   11.6368  -19.2746   20.8601 C   0  0  0  0  0  0  0  0  0  0  0  0
   12.0139  -20.4641   20.9489 O   0  0  0  0  0  0  0  0  0  0  0  0
   13.4825  -18.1671   23.7420 C   0  0  0  0  0  0  0  0  0  0  0  0
   12.3255  -18.9696   23.1933 C   0  0  2  0  0  0  0  0  0  0  0  0
   11.8011  -18.4256   21.9809 N   0  0  0  0  0  0  0  0  0  0  0  0
   11.2309  -19.1054   24.1901 C   0  0  0  0  0  0  0  0  0  0  0  0
   11.4364  -19.6899   25.4298 O   0  0  0  0  0  0  0  0  0  0  0  0
   10.0798  -18.6883   23.9224 O   0  0  0  0  0  0  0  0  0  0  0  0
  2  1  1  0
  3  2  1  0
  4  5  1  0
  4  3  1  0
  5  7  1  0
  5  6  1  6
  7  8  2  0
  9 10  1  0
 10 11  2  0
 12 10  1  0
 13 12  1  6
 14 13  1  0
 14  7  1  0
 15 16  2  0
 15 13  1  0
 18 17  1  1
 18 19  1  0
 18 20  1  0
 19 15  1  0
 20 21  1  0
 22 20  2  0
M  END
$$$$
