DMC.pdb
     RDKit          3D

 23 22  0  0  1  0  0  0  0  0999 V2000
    8.3101  -15.5114   20.2314 N   0  0  0  0  0  0  0  0  0  0  0  0
    9.1902  -16.3309   21.0308 C   0  0  1  0  0  0  0  0  0  0  0  0
   10.4363  -16.6141   20.2472 C   0  0  0  0  0  0  0  0  0  0  0  0
   10.0630  -17.4221   19.0605 C   0  0  0  0  0  0  0  0  0  0  0  0
    9.1854  -18.3093   19.1178 O   0  0  0  0  0  0  0  0  0  0  0  0
    9.4078  -15.6922   22.3200 C   0  0  0  0  0  0  0  0  0  0  0  0
   10.5144  -15.1460   22.5572 O   0  0  0  0  0  0  0  0  0  0  0  0
   10.7216  -17.1644   17.8693 O   0  0  0  0  0  0  0  0  0  0  0  0
    6.5503  -10.9769   25.6822 C   0  0  0  0  0  0  0  0  0  0  0  0
    6.1743  -12.4494   26.6622 S   0  0  0  0  0  0  0  0  0  0  0  0
    7.5241  -13.6503   26.4248 C   0  0  0  0  0  0  0  0  0  0  0  0
    7.4499  -14.2904   25.0747 C   0  0  0  0  0  0  0  0  0  0  0  0
    8.7274  -14.9548   24.6459 C   0  0  2  0  0  0  0  0  0  0  0  0
    8.4439  -15.6367   23.3568 N   0  0  0  0  0  0  0  0  0  0  0  0
    9.2060  -16.0147   25.5455 C   0  0  0  0  0  0  0  0  0  0  0  0
    8.7169  -17.2009   25.5229 O   0  0  0  0  0  0  0  0  0  0  0  0
   10.2399  -15.8450   26.5106 N   0  0  0  0  0  0  0  0  0  0  0  0
   10.8047  -16.9564   27.2759 C   0  0  1  0  0  0  0  0  0  0  0  0
   12.2517  -16.6048   27.5502 C   0  0  0  0  0  0  0  0  0  0  0  0
   12.4087  -14.9255   28.1961 S   0  0  0  0  0  0  0  0  0  0  0  0
   10.0675  -17.1972   28.5153 C   0  0  0  0  0  0  0  0  0  0  0  0
    9.1363  -16.4300   28.8531 O   0  0  0  0  0  0  0  0  0  0  0  0
   10.3656  -18.2625   29.3464 O   0  0  0  0  0  0  0  0  0  0  0  0
  2  1  1  6
  2  3  1  0
  3  4  1  0
  4  8  1  0
  5  4  2  0
  6  2  1  0
  7  6  2  0
  9 10  1  0
 10 11  1  0
 11 12  1  0
 13 12  1  1
 13 15  1  0
 13 14  1  0
 14  6  1  0
 15 17  1  0
 16 15  2  0
 18 17  1  0
 18 21  1  0
 18 19  1  1
 20 19  1  0
 21 22  2  0
 21 23  1  0
M  END
$$$$
