DMC.pdb
     RDKit          3D

 23 22  0  0  1  0  0  0  0  0999 V2000
   10.4597  -16.0445   20.1876 N   0  0  0  0  0  0  0  0  0  0  0  0
   10.4065  -16.9268   21.3295 C   0  0  1  0  0  0  0  0  0  0  0  0
   11.6617  -17.7455   21.3704 C   0  0  0  0  0  0  0  0  0  0  0  0
   11.6413  -18.6815   20.2198 C   0  0  0  0  0  0  0  0  0  0  0  0
   12.5821  -18.7370   19.3997 O   0  0  0  0  0  0  0  0  0  0  0  0
   10.1418  -16.1490   22.5303 C   0  0  0  0  0  0  0  0  0  0  0  0
   10.8873  -15.1770   22.8107 O   0  0  0  0  0  0  0  0  0  0  0  0
   10.5366  -19.5047   20.0751 O   0  0  0  0  0  0  0  0  0  0  0  0
    5.7909  -12.0235   25.8784 C   0  0  0  0  0  0  0  0  0  0  0  0
    7.3093  -13.0050   25.8470 S   0  0  0  0  0  0  0  0  0  0  0  0
    6.8528  -14.7634   25.9890 C   0  0  0  0  0  0  0  0  0  0  0  0
    7.3079  -15.5404   24.7943 C   0  0  0  0  0  0  0  0  0  0  0  0
    8.7939  -15.5046   24.5760 C   0  0  2  0  0  0  0  0  0  0  0  0
    9.0809  -16.4088   23.4326 N   0  0  0  0  0  0  0  0  0  0  0  0
    9.5962  -16.0276   25.6917 C   0  0  0  0  0  0  0  0  0  0  0  0
    9.9929  -17.2473   25.7334 O   0  0  0  0  0  0  0  0  0  0  0  0
   10.0124  -15.2562   26.8145 N   0  0  0  0  0  0  0  0  0  0  0  0
   10.8639  -15.7917   27.8766 C   0  0  1  0  0  0  0  0  0  0  0  0
   11.0967  -14.6627   28.8584 C   0  0  0  0  0  0  0  0  0  0  0  0
   10.5762  -13.0760   28.1705 S   0  0  0  0  0  0  0  0  0  0  0  0
   10.2599  -16.9528   28.5284 C   0  0  0  0  0  0  0  0  0  0  0  0
    9.0994  -17.3132   28.2232 O   0  0  0  0  0  0  0  0  0  0  0  0
   10.9357  -17.6836   29.4895 O   0  0  0  0  0  0  0  0  0  0  0  0
  2  1  1  6
  2  3  1  0
  3  4  1  0
  4  8  1  0
  5  4  2  0
  6  2  1  0
  7  6  2  0
  9 10  1  0
 10 11  1  0
 11 12  1  0
 13 12  1  1
 13 15  1  0
 13 14  1  0
 14  6  1  0
 15 17  1  0
 16 15  2  0
 18 17  1  0
 18 21  1  0
 18 19  1  1
 20 19  1  0
 21 22  2  0
 21 23  1  0
M  END
$$$$
