DMC.pdb
     RDKit          3D

 23 22  0  0  1  0  0  0  0  0999 V2000
    8.7010  -17.1734   20.7095 N   0  0  0  0  0  0  0  0  0  0  0  0
    9.9650  -17.0574   21.3981 C   0  0  1  0  0  0  0  0  0  0  0  0
   11.0174  -16.6393   20.4159 C   0  0  0  0  0  0  0  0  0  0  0  0
   11.0141  -17.6091   19.2934 C   0  0  0  0  0  0  0  0  0  0  0  0
   11.2776  -18.8179   19.4671 O   0  0  0  0  0  0  0  0  0  0  0  0
    9.8117  -16.1760   22.5456 C   0  0  0  0  0  0  0  0  0  0  0  0
   10.8264  -15.8511   23.2119 O   0  0  0  0  0  0  0  0  0  0  0  0
   10.7070  -17.1339   18.0289 O   0  0  0  0  0  0  0  0  0  0  0  0
    6.6786  -11.9548   27.6473 C   0  0  0  0  0  0  0  0  0  0  0  0
    6.1882  -13.0072   26.2610 S   0  0  0  0  0  0  0  0  0  0  0  0
    7.2886  -12.6442   24.8545 C   0  0  0  0  0  0  0  0  0  0  0  0
    7.3493  -13.7958   23.9017 C   0  0  0  0  0  0  0  0  0  0  0  0
    8.4904  -14.7384   24.1594 C   0  0  2  0  0  0  0  0  0  0  0  0
    8.5747  -15.6411   22.9824 N   0  0  0  0  0  0  0  0  0  0  0  0
    8.3089  -15.6285   25.3156 C   0  0  0  0  0  0  0  0  0  0  0  0
    7.1502  -15.8852   25.8034 O   0  0  0  0  0  0  0  0  0  0  0  0
    9.3712  -16.2880   25.9980 N   0  0  0  0  0  0  0  0  0  0  0  0
    9.1507  -17.3715   26.9557 C   0  0  1  0  0  0  0  0  0  0  0  0
    8.4458  -18.4805   26.2034 C   0  0  0  0  0  0  0  0  0  0  0  0
    6.7330  -18.6583   26.7481 S   0  0  0  0  0  0  0  0  0  0  0  0
   10.4021  -17.8386   27.5503 C   0  0  0  0  0  0  0  0  0  0  0  0
   11.4998  -17.4090   27.1257 O   0  0  0  0  0  0  0  0  0  0  0  0
   10.4200  -18.7563   28.5858 O   0  0  0  0  0  0  0  0  0  0  0  0
  2  1  1  6
  2  3  1  0
  3  4  1  0
  4  8  1  0
  5  4  2  0
  6  2  1  0
  7  6  2  0
  9 10  1  0
 10 11  1  0
 11 12  1  0
 13 12  1  6
 13 15  1  0
 13 14  1  0
 14  6  1  0
 15 17  1  0
 16 15  2  0
 18 17  1  0
 18 21  1  0
 18 19  1  6
 20 19  1  0
 21 22  2  0
 21 23  1  0
M  END
$$$$
