DMC.pdb
     RDKit          3D

 23 22  0  0  1  0  0  0  0  0999 V2000
   10.5925  -16.5580   20.0547 N   0  0  0  0  0  0  0  0  0  0  0  0
   10.0420  -17.2037   21.2232 C   0  0  1  0  0  0  0  0  0  0  0  0
   10.7705  -18.4932   21.4549 C   0  0  0  0  0  0  0  0  0  0  0  0
   10.5942  -19.3464   20.2543 C   0  0  0  0  0  0  0  0  0  0  0  0
    9.4618  -19.6628   19.8321 O   0  0  0  0  0  0  0  0  0  0  0  0
   10.0643  -16.2764   22.3442 C   0  0  0  0  0  0  0  0  0  0  0  0
   11.0828  -15.5653   22.5345 O   0  0  0  0  0  0  0  0  0  0  0  0
   11.7336  -19.7903   19.6032 O   0  0  0  0  0  0  0  0  0  0  0  0
    5.9205  -11.5131   26.8976 C   0  0  0  0  0  0  0  0  0  0  0  0
    5.8693  -13.0306   25.9155 S   0  0  0  0  0  0  0  0  0  0  0  0
    7.5721  -13.6577   25.7487 C   0  0  0  0  0  0  0  0  0  0  0  0
    7.6768  -14.6555   24.6389 C   0  0  0  0  0  0  0  0  0  0  0  0
    9.0790  -15.1254   24.3743 C   0  0  2  0  0  0  0  0  0  0  0  0
    8.9990  -16.1080   23.2628 N   0  0  0  0  0  0  0  0  0  0  0  0
    9.7086  -15.8521   25.4867 C   0  0  0  0  0  0  0  0  0  0  0  0
    9.5982  -17.1236   25.6199 O   0  0  0  0  0  0  0  0  0  0  0  0
   10.4919  -15.2400   26.5068 N   0  0  0  0  0  0  0  0  0  0  0  0
   11.2209  -16.0056   27.5179 C   0  0  1  0  0  0  0  0  0  0  0  0
   11.6063  -15.0291   28.6091 C   0  0  0  0  0  0  0  0  0  0  0  0
   10.1627  -14.1461   29.2402 S   0  0  0  0  0  0  0  0  0  0  0  0
   10.4240  -17.1119   28.0458 C   0  0  0  0  0  0  0  0  0  0  0  0
   10.9455  -17.9532   28.8139 O   0  0  0  0  0  0  0  0  0  0  0  0
    9.0877  -17.2679   27.7221 O   0  0  0  0  0  0  0  0  0  0  0  0
  2  1  1  6
  2  3  1  0
  3  4  1  0
  4  8  1  0
  5  4  2  0
  6  2  1  0
  7  6  2  0
  9 10  1  0
 10 11  1  0
 11 12  1  0
 13 12  1  1
 13 15  1  0
 13 14  1  0
 14  6  1  0
 15 17  1  0
 16 15  2  0
 18 17  1  0
 18 21  1  0
 18 19  1  1
 20 19  1  0
 21 22  2  0
 21 23  1  0
M  END
$$$$
