CLW.pdb
     RDKit          3D

 29 30  0  0  1  0  0  0  0  0999 V2000
    6.3818  -19.4064   20.4520 N   0  0  0  0  0  0  0  0  0  0  0  0
    6.4369  -18.4789   21.5599 C   0  0  1  0  0  0  0  0  0  0  0  0
    6.5415  -19.2975   22.8304 C   0  0  0  0  0  0  0  0  0  0  0  0
    6.5888  -18.2140   24.2817 S   0  0  0  0  0  0  0  0  0  0  0  0
    7.6069  -17.5974   21.3732 C   0  0  0  0  0  0  0  0  0  0  0  0
    8.6613  -18.0658   20.8984 O   0  0  0  0  0  0  0  0  0  0  0  0
    6.3790  -14.1323   20.2985 C   0  0  0  0  0  0  0  0  0  0  0  0
    7.8290  -13.5897   20.2536 C   0  0  1  0  0  0  0  0  0  0  0  0
    7.6545  -12.0869   20.0708 C   0  0  0  0  0  0  0  0  0  0  0  0
    8.4957  -13.9446   21.5328 C   0  0  0  0  0  0  0  0  0  0  0  0
    8.7636  -15.3991   21.7786 C   0  0  2  0  0  0  0  0  0  0  0  0
    7.5922  -16.2043   21.7164 N   0  0  0  0  0  0  0  0  0  0  0  0
    9.5631  -15.5862   23.0287 C   0  0  0  0  0  0  0  0  0  0  0  0
   10.6881  -15.0257   23.1031 O   0  0  0  0  0  0  0  0  0  0  0  0
    9.1125  -16.3537   24.1097 N   0  0  0  0  0  0  0  0  0  0  0  0
    9.8611  -16.5099   25.3523 C   0  0  1  0  0  0  0  0  0  0  0  0
    8.8806  -16.3336   26.5067 C   0  0  0  0  0  0  0  0  0  0  0  0
    8.9571  -14.9361   27.0488 C   0  0  0  0  0  0  0  0  0  0  0  0
    9.9200  -14.4056   27.8812 C   0  0  0  0  0  0  0  0  0  0  0  0
    9.6360  -13.1177   28.1435 N   0  0  0  0  0  0  0  0  0  0  0  0
    8.4983  -12.7608   27.5057 C   0  0  0  0  0  0  0  0  0  0  0  0
    7.8016  -11.5714   27.4566 C   0  0  0  0  0  0  0  0  0  0  0  0
    6.6458  -11.4959   26.7078 C   0  0  0  0  0  0  0  0  0  0  0  0
    6.2315  -12.6308   26.0308 C   0  0  0  0  0  0  0  0  0  0  0  0
    6.9228  -13.8224   26.0756 C   0  0  0  0  0  0  0  0  0  0  0  0
    8.0721  -13.9026   26.8184 C   0  0  0  0  0  0  0  0  0  0  0  0
   10.4140  -17.8776   25.4460 C   0  0  0  0  0  0  0  0  0  0  0  0
   11.3151  -18.2514   26.4429 O   0  0  0  0  0  0  0  0  0  0  0  0
   10.0533  -18.7339   24.5893 O   0  0  0  0  0  0  0  0  0  0  0  0
  2  1  1  6
  2  3  1  0
  2  5  1  0
  3  4  1  0
  5 12  1  0
  5  6  2  0
  8  7  1  1
  8  9  1  0
 10  8  1  0
 11 13  1  0
 11 10  1  1
 12 11  1  0
 13 14  2  0
 15 13  1  0
 16 15  1  0
 16 17  1  1
 17 18  1  0
 18 19  2  0
 19 20  1  0
 21 22  2  0
 21 20  1  0
 23 22  1  0
 24 23  2  0
 25 24  1  0
 25 26  2  0
 26 18  1  0
 26 21  1  0
 27 16  1  0
 28 27  1  0
 29 27  2  0
M  END
$$$$
