CLW.pdb
     RDKit          3D

 29 30  0  0  1  0  0  0  0  0999 V2000
   12.2847  -17.2328   18.2551 N   0  0  0  0  0  0  0  0  0  0  0  0
   11.1541  -17.8259   18.9341 C   0  0  1  0  0  0  0  0  0  0  0  0
   11.5286  -19.2540   19.2735 C   0  0  0  0  0  0  0  0  0  0  0  0
   10.2111  -20.0449   20.2333 S   0  0  0  0  0  0  0  0  0  0  0  0
   10.8648  -17.0288   20.1432 C   0  0  0  0  0  0  0  0  0  0  0  0
   11.8078  -16.6018   20.8395 O   0  0  0  0  0  0  0  0  0  0  0  0
    6.0400  -14.0678   20.4773 C   0  0  0  0  0  0  0  0  0  0  0  0
    7.5440  -14.4338   20.4214 C   0  0  1  0  0  0  0  0  0  0  0  0
    8.2523  -13.0846   20.4391 C   0  0  0  0  0  0  0  0  0  0  0  0
    7.8610  -15.2707   21.6071 C   0  0  0  0  0  0  0  0  0  0  0  0
    9.2348  -15.8676   21.6696 C   0  0  2  0  0  0  0  0  0  0  0  0
    9.5299  -16.7148   20.5651 N   0  0  0  0  0  0  0  0  0  0  0  0
    9.4763  -16.5018   23.0024 C   0  0  0  0  0  0  0  0  0  0  0  0
    9.3694  -17.7532   23.0922 O   0  0  0  0  0  0  0  0  0  0  0  0
    9.8136  -15.7641   24.1437 N   0  0  0  0  0  0  0  0  0  0  0  0
   10.1145  -16.3731   25.4350 C   0  0  1  0  0  0  0  0  0  0  0  0
    9.7343  -15.3696   26.5181 C   0  0  0  0  0  0  0  0  0  0  0  0
    8.3302  -14.8819   26.3094 C   0  0  0  0  0  0  0  0  0  0  0  0
    7.2041  -15.6362   26.0554 C   0  0  0  0  0  0  0  0  0  0  0  0
    6.1351  -14.8303   25.9289 N   0  0  0  0  0  0  0  0  0  0  0  0
    6.5114  -13.5417   26.0918 C   0  0  0  0  0  0  0  0  0  0  0  0
    5.8000  -12.3606   26.0562 C   0  0  0  0  0  0  0  0  0  0  0  0
    6.4608  -11.1675   26.2617 C   0  0  0  0  0  0  0  0  0  0  0  0
    7.8248  -11.2092   26.4974 C   0  0  0  0  0  0  0  0  0  0  0  0
    8.5418  -12.3858   26.5344 C   0  0  0  0  0  0  0  0  0  0  0  0
    7.8896  -13.5743   26.3307 C   0  0  0  0  0  0  0  0  0  0  0  0
    9.2827  -17.5784   25.6364 C   0  0  0  0  0  0  0  0  0  0  0  0
    8.2536  -17.9293   24.7628 O   0  0  0  0  0  0  0  0  0  0  0  0
    9.5178  -18.3128   26.6378 O   0  0  0  0  0  0  0  0  0  0  0  0
  2  1  1  1
  2  3  1  0
  2  5  1  0
  3  4  1  0
  5 12  1  0
  5  6  2  0
  8  7  1  1
  8  9  1  0
 10  8  1  0
 11 13  1  0
 11 10  1  1
 12 11  1  0
 13 14  2  0
 15 13  1  0
 16 15  1  0
 16 17  1  1
 17 18  1  0
 18 19  2  0
 19 20  1  0
 21 22  2  0
 21 20  1  0
 23 22  1  0
 24 23  2  0
 25 24  1  0
 25 26  2  0
 26 18  1  0
 26 21  1  0
 27 16  1  0
 28 27  1  0
 29 27  2  0
M  END
$$$$
