CLW.pdb
     RDKit          3D

 29 30  0  0  1  0  0  0  0  0999 V2000
    7.2669  -19.6618   21.7799 N   0  0  0  0  0  0  0  0  0  0  0  0
    8.1652  -19.5177   20.6560 C   0  0  1  0  0  0  0  0  0  0  0  0
    7.3168  -19.4759   19.4015 C   0  0  0  0  0  0  0  0  0  0  0  0
    8.3661  -19.3605   17.9290 S   0  0  0  0  0  0  0  0  0  0  0  0
    8.9444  -18.2764   20.8371 C   0  0  0  0  0  0  0  0  0  0  0  0
   10.1156  -18.2168   20.4111 O   0  0  0  0  0  0  0  0  0  0  0  0
    7.1651  -12.7888   22.1803 C   0  0  0  0  0  0  0  0  0  0  0  0
    7.1827  -14.3271   22.0005 C   0  0  1  0  0  0  0  0  0  0  0  0
    5.8879  -14.6256   21.2544 C   0  0  0  0  0  0  0  0  0  0  0  0
    8.3961  -14.6884   21.2235 C   0  0  0  0  0  0  0  0  0  0  0  0
    9.1475  -15.9083   21.6652 C   0  0  2  0  0  0  0  0  0  0  0  0
    8.4131  -17.1143   21.4897 N   0  0  0  0  0  0  0  0  0  0  0  0
    9.6910  -15.7240   23.0462 C   0  0  0  0  0  0  0  0  0  0  0  0
   10.4766  -14.7616   23.2512 O   0  0  0  0  0  0  0  0  0  0  0  0
    9.3629  -16.5729   24.1103 N   0  0  0  0  0  0  0  0  0  0  0  0
   10.1726  -16.6991   25.3175 C   0  0  1  0  0  0  0  0  0  0  0  0
    9.2343  -16.5970   26.5150 C   0  0  0  0  0  0  0  0  0  0  0  0
    8.0468  -15.7433   26.1775 C   0  0  0  0  0  0  0  0  0  0  0  0
    6.8606  -16.1395   25.5965 C   0  0  0  0  0  0  0  0  0  0  0  0
    6.0454  -15.0794   25.4569 N   0  0  0  0  0  0  0  0  0  0  0  0
    6.6534  -13.9687   25.9316 C   0  0  0  0  0  0  0  0  0  0  0  0
    6.2425  -12.6546   26.0131 C   0  0  0  0  0  0  0  0  0  0  0  0
    7.0916  -11.7138   26.5572 C   0  0  0  0  0  0  0  0  0  0  0  0
    8.3334  -12.1354   27.0025 C   0  0  0  0  0  0  0  0  0  0  0  0
    8.7503  -13.4468   26.9240 C   0  0  0  0  0  0  0  0  0  0  0  0
    7.9100  -14.3857   26.3840 C   0  0  0  0  0  0  0  0  0  0  0  0
   10.8101  -18.0318   25.3669 C   0  0  0  0  0  0  0  0  0  0  0  0
   11.7122  -18.3907   26.3683 O   0  0  0  0  0  0  0  0  0  0  0  0
   10.5232  -18.8713   24.4667 O   0  0  0  0  0  0  0  0  0  0  0  0
  2  1  1  1
  2  3  1  0
  2  5  1  0
  3  4  1  0
  5 12  1  0
  5  6  2  0
  8  7  1  6
  8  9  1  0
 10  8  1  0
 11 13  1  0
 11 10  1  1
 12 11  1  0
 13 14  2  0
 15 13  1  0
 16 15  1  0
 16 17  1  1
 17 18  1  0
 18 19  2  0
 19 20  1  0
 21 22  2  0
 21 20  1  0
 23 22  1  0
 24 23  2  0
 25 24  1  0
 25 26  2  0
 26 18  1  0
 26 21  1  0
 27 16  1  0
 28 27  1  0
 29 27  2  0
M  END
$$$$
