CLW.pdb
     RDKit          3D

 29 30  0  0  1  0  0  0  0  0999 V2000
    9.0493  -19.9073   19.7778 N   0  0  0  0  0  0  0  0  0  0  0  0
    8.1538  -18.9142   20.3280 C   0  0  1  0  0  0  0  0  0  0  0  0
    7.3913  -19.5706   21.4605 C   0  0  0  0  0  0  0  0  0  0  0  0
    8.3348  -19.4690   23.0039 S   0  0  0  0  0  0  0  0  0  0  0  0
    8.9586  -17.7677   20.7958 C   0  0  0  0  0  0  0  0  0  0  0  0
   10.2003  -17.7984   20.6788 O   0  0  0  0  0  0  0  0  0  0  0  0
    7.0251  -12.5872   20.0989 C   0  0  0  0  0  0  0  0  0  0  0  0
    7.8376  -13.9058   20.0871 C   0  0  1  0  0  0  0  0  0  0  0  0
    8.9640  -13.6356   19.0968 C   0  0  0  0  0  0  0  0  0  0  0  0
    8.3270  -14.1603   21.4664 C   0  0  0  0  0  0  0  0  0  0  0  0
    9.1107  -15.4191   21.6878 C   0  0  2  0  0  0  0  0  0  0  0  0
    8.3741  -16.5992   21.3887 N   0  0  0  0  0  0  0  0  0  0  0  0
    9.7353  -15.4216   23.0467 C   0  0  0  0  0  0  0  0  0  0  0  0
   10.5205  -14.4822   23.3406 O   0  0  0  0  0  0  0  0  0  0  0  0
    9.4828  -16.4195   23.9960 N   0  0  0  0  0  0  0  0  0  0  0  0
   10.1173  -16.4591   25.3093 C   0  0  1  0  0  0  0  0  0  0  0  0
    9.0177  -16.6553   26.3471 C   0  0  0  0  0  0  0  0  0  0  0  0
    7.8450  -15.7703   26.0400 C   0  0  0  0  0  0  0  0  0  0  0  0
    6.6339  -16.1349   25.4907 C   0  0  0  0  0  0  0  0  0  0  0  0
    5.8438  -15.0534   25.3714 N   0  0  0  0  0  0  0  0  0  0  0  0
    6.4934  -13.9592   25.8289 C   0  0  0  0  0  0  0  0  0  0  0  0
    6.1200  -12.6346   25.9199 C   0  0  0  0  0  0  0  0  0  0  0  0
    7.0079  -11.7166   26.4406 C   0  0  0  0  0  0  0  0  0  0  0  0
    8.2492  -12.1711   26.8537 C   0  0  0  0  0  0  0  0  0  0  0  0
    8.6288  -13.4932   26.7656 C   0  0  0  0  0  0  0  0  0  0  0  0
    7.7499  -14.4095   26.2487 C   0  0  0  0  0  0  0  0  0  0  0  0
   11.0260  -17.6214   25.4018 C   0  0  0  0  0  0  0  0  0  0  0  0
   11.7895  -17.8829   26.5394 O   0  0  0  0  0  0  0  0  0  0  0  0
   11.1092  -18.4020   24.4113 O   0  0  0  0  0  0  0  0  0  0  0  0
  2  1  1  1
  2  3  1  0
  2  5  1  0
  3  4  1  0
  5 12  1  0
  5  6  2  0
  8  7  1  1
  8  9  1  0
 10  8  1  0
 11 13  1  0
 11 10  1  1
 12 11  1  0
 13 14  2  0
 15 13  1  0
 16 15  1  0
 16 17  1  1
 17 18  1  0
 18 19  2  0
 19 20  1  0
 21 22  2  0
 21 20  1  0
 23 22  1  0
 24 23  2  0
 25 24  1  0
 25 26  2  0
 26 18  1  0
 26 21  1  0
 27 16  1  0
 28 27  1  0
 29 27  2  0
M  END
$$$$
