CLW.pdb
     RDKit          3D

 29 30  0  0  1  0  0  0  0  0999 V2000
    7.9122  -19.2596   19.1887 N   0  0  0  0  0  0  0  0  0  0  0  0
    7.5324  -18.6558   20.4465 C   0  0  1  0  0  0  0  0  0  0  0  0
    7.5199  -19.7541   21.4899 C   0  0  0  0  0  0  0  0  0  0  0  0
    6.9363  -19.1122   23.0804 S   0  0  0  0  0  0  0  0  0  0  0  0
    8.5102  -17.5976   20.7705 C   0  0  0  0  0  0  0  0  0  0  0  0
    9.7201  -17.7819   20.5281 O   0  0  0  0  0  0  0  0  0  0  0  0
    6.5762  -14.4290   19.9652 C   0  0  0  0  0  0  0  0  0  0  0  0
    7.9101  -13.6512   20.0868 C   0  0  1  0  0  0  0  0  0  0  0  0
    7.5040  -12.1932   19.9085 C   0  0  0  0  0  0  0  0  0  0  0  0
    8.4892  -13.9321   21.4257 C   0  0  0  0  0  0  0  0  0  0  0  0
    9.0565  -15.3022   21.6466 C   0  0  2  0  0  0  0  0  0  0  0  0
    8.1323  -16.3455   21.3606 N   0  0  0  0  0  0  0  0  0  0  0  0
    9.6858  -15.4027   22.9996 C   0  0  0  0  0  0  0  0  0  0  0  0
   10.6078  -14.5946   23.2867 O   0  0  0  0  0  0  0  0  0  0  0  0
    9.2927  -16.3522   23.9507 N   0  0  0  0  0  0  0  0  0  0  0  0
    9.8862  -16.4525   25.2797 C   0  0  1  0  0  0  0  0  0  0  0  0
    8.7675  -16.7864   26.2605 C   0  0  0  0  0  0  0  0  0  0  0  0
    7.6230  -15.8298   26.0936 C   0  0  0  0  0  0  0  0  0  0  0  0
    6.3649  -16.0978   25.5968 C   0  0  0  0  0  0  0  0  0  0  0  0
    5.6228  -14.9766   25.6070 N   0  0  0  0  0  0  0  0  0  0  0  0
    6.3511  -13.9500   26.1012 C   0  0  0  0  0  0  0  0  0  0  0  0
    6.0488  -12.6209   26.3122 C   0  0  0  0  0  0  0  0  0  0  0  0
    7.0099  -11.7852   26.8414 C   0  0  0  0  0  0  0  0  0  0  0  0
    8.2501  -12.3241   27.1408 C   0  0  0  0  0  0  0  0  0  0  0  0
    8.5588  -13.6511   26.9326 C   0  0  0  0  0  0  0  0  0  0  0  0
    7.6070  -14.4859   26.4067 C   0  0  0  0  0  0  0  0  0  0  0  0
   10.8584  -17.5653   25.3214 C   0  0  0  0  0  0  0  0  0  0  0  0
   11.6652  -17.8099   26.4326 O   0  0  0  0  0  0  0  0  0  0  0  0
   10.9569  -18.3180   24.3110 O   0  0  0  0  0  0  0  0  0  0  0  0
  2  1  1  6
  2  3  1  0
  2  5  1  0
  3  4  1  0
  5 12  1  0
  5  6  2  0
  8  7  1  1
  8  9  1  0
 10  8  1  0
 11 13  1  0
 11 10  1  1
 12 11  1  0
 13 14  2  0
 15 13  1  0
 16 15  1  0
 16 17  1  1
 17 18  1  0
 18 19  2  0
 19 20  1  0
 21 22  2  0
 21 20  1  0
 23 22  1  0
 24 23  2  0
 25 24  1  0
 25 26  2  0
 26 18  1  0
 26 21  1  0
 27 16  1  0
 28 27  1  0
 29 27  2  0
M  END
$$$$
