CLW.pdb
     RDKit          3D

 29 30  0  0  1  0  0  0  0  0999 V2000
   10.9242  -18.5922   18.3648 N   0  0  0  0  0  0  0  0  0  0  0  0
    9.9279  -18.5933   19.4128 C   0  0  1  0  0  0  0  0  0  0  0  0
   10.1224  -19.8602   20.2203 C   0  0  0  0  0  0  0  0  0  0  0  0
    8.9667  -19.9080   21.6149 S   0  0  0  0  0  0  0  0  0  0  0  0
   10.1135  -17.3806   20.2349 C   0  0  0  0  0  0  0  0  0  0  0  0
   11.2594  -17.0608   20.6106 O   0  0  0  0  0  0  0  0  0  0  0  0
    6.6764  -12.9096   20.0466 C   0  0  0  0  0  0  0  0  0  0  0  0
    7.9235  -13.8278   20.0227 C   0  0  1  0  0  0  0  0  0  0  0  0
    9.0600  -12.8951   19.6218 C   0  0  0  0  0  0  0  0  0  0  0  0
    8.0990  -14.4054   21.3800 C   0  0  0  0  0  0  0  0  0  0  0  0
    9.1606  -15.4517   21.5411 C   0  0  2  0  0  0  0  0  0  0  0  0
    9.0230  -16.5363   20.6305 N   0  0  0  0  0  0  0  0  0  0  0  0
    9.2774  -15.8715   22.9718 C   0  0  0  0  0  0  0  0  0  0  0  0
    8.6223  -16.8780   23.3503 O   0  0  0  0  0  0  0  0  0  0  0  0
   10.0799  -15.1943   23.8981 N   0  0  0  0  0  0  0  0  0  0  0  0
   10.1707  -15.5654   25.3063 C   0  0  1  0  0  0  0  0  0  0  0  0
    8.9064  -16.3402   25.6615 C   0  0  0  0  0  0  0  0  0  0  0  0
    7.7247  -15.4164   25.7149 C   0  0  0  0  0  0  0  0  0  0  0  0
    6.4140  -15.7038   25.3970 C   0  0  0  0  0  0  0  0  0  0  0  0
    5.6520  -14.6101   25.5740 N   0  0  0  0  0  0  0  0  0  0  0  0
    6.4185  -13.5833   26.0064 C   0  0  0  0  0  0  0  0  0  0  0  0
    6.1157  -12.2764   26.3271 C   0  0  0  0  0  0  0  0  0  0  0  0
    7.1225  -11.4339   26.7498 C   0  0  0  0  0  0  0  0  0  0  0  0
    8.4075  -11.9435   26.8343 C   0  0  0  0  0  0  0  0  0  0  0  0
    8.7170  -13.2483   26.5154 C   0  0  0  0  0  0  0  0  0  0  0  0
    7.7198  -14.0897   26.0948 C   0  0  0  0  0  0  0  0  0  0  0  0
   11.3197  -16.4701   25.5222 C   0  0  0  0  0  0  0  0  0  0  0  0
   12.1566  -16.8744   24.4822 O   0  0  0  0  0  0  0  0  0  0  0  0
   11.5462  -16.8882   26.6931 O   0  0  0  0  0  0  0  0  0  0  0  0
  2  1  1  6
  2  3  1  0
  2  5  1  0
  3  4  1  0
  5 12  1  0
  5  6  2  0
  8  7  1  1
  8  9  1  0
 10  8  1  0
 11 13  1  0
 11 10  1  1
 12 11  1  0
 13 14  2  0
 15 13  1  0
 16 15  1  0
 16 17  1  6
 17 18  1  0
 18 19  2  0
 19 20  1  0
 21 22  2  0
 21 20  1  0
 23 22  1  0
 24 23  2  0
 25 24  1  0
 25 26  2  0
 26 18  1  0
 26 21  1  0
 27 16  1  0
 28 27  1  0
 29 27  2  0
M  END
$$$$
