CLW.pdb
     RDKit          3D

 29 30  0  0  1  0  0  0  0  0999 V2000
    5.7224  -19.2279   20.7478 N   0  0  0  0  0  0  0  0  0  0  0  0
    6.0059  -18.2234   21.7486 C   0  0  1  0  0  0  0  0  0  0  0  0
    5.9866  -18.9115   23.0981 C   0  0  0  0  0  0  0  0  0  0  0  0
    7.0669  -18.0463   24.2674 S   0  0  0  0  0  0  0  0  0  0  0  0
    7.3241  -17.6274   21.4516 C   0  0  0  0  0  0  0  0  0  0  0  0
    8.2416  -18.3496   21.0120 O   0  0  0  0  0  0  0  0  0  0  0  0
    7.4260  -12.1426   20.2415 C   0  0  0  0  0  0  0  0  0  0  0  0
    7.5569  -13.6801   20.1070 C   0  0  1  0  0  0  0  0  0  0  0  0
    7.8587  -13.8961   18.6289 C   0  0  0  0  0  0  0  0  0  0  0  0
    8.6590  -14.1302   20.9955 C   0  0  0  0  0  0  0  0  0  0  0  0
    8.8054  -15.6081   21.2010 C   0  0  2  0  0  0  0  0  0  0  0  0
    7.6080  -16.2345   21.6464 N   0  0  0  0  0  0  0  0  0  0  0  0
    9.9996  -15.9088   22.0497 C   0  0  0  0  0  0  0  0  0  0  0  0
   11.1255  -15.5079   21.6532 O   0  0  0  0  0  0  0  0  0  0  0  0
    9.9146  -16.6125   23.2572 N   0  0  0  0  0  0  0  0  0  0  0  0
    9.9220  -15.9676   24.5660 C   0  0  1  0  0  0  0  0  0  0  0  0
    8.6813  -15.0854   24.6525 C   0  0  0  0  0  0  0  0  0  0  0  0
    8.6209  -14.3974   25.9851 C   0  0  0  0  0  0  0  0  0  0  0  0
    9.3208  -14.7137   27.1304 C   0  0  0  0  0  0  0  0  0  0  0  0
    8.9906  -13.8608   28.1161 N   0  0  0  0  0  0  0  0  0  0  0  0
    8.0794  -12.9696   27.6642 C   0  0  0  0  0  0  0  0  0  0  0  0
    7.4383  -11.9134   28.2772 C   0  0  0  0  0  0  0  0  0  0  0  0
    6.5373  -11.1590   27.5551 C   0  0  0  0  0  0  0  0  0  0  0  0
    6.3139  -11.4997   26.2315 C   0  0  0  0  0  0  0  0  0  0  0  0
    6.9510  -12.5538   25.6128 C   0  0  0  0  0  0  0  0  0  0  0  0
    7.8474  -13.3066   26.3262 C   0  0  0  0  0  0  0  0  0  0  0  0
    9.8188  -16.9829   25.6354 C   0  0  0  0  0  0  0  0  0  0  0  0
    9.3992  -18.2895   25.3857 O   0  0  0  0  0  0  0  0  0  0  0  0
   10.1232  -16.6487   26.8156 O   0  0  0  0  0  0  0  0  0  0  0  0
  2  1  1  6
  2  3  1  0
  2  5  1  0
  3  4  1  0
  5 12  1  0
  5  6  2  0
  8  7  1  6
  8  9  1  0
 10  8  1  0
 11 13  1  0
 11 10  1  1
 12 11  1  0
 13 14  2  0
 15 13  1  0
 16 15  1  0
 16 17  1  6
 17 18  1  0
 18 19  2  0
 19 20  1  0
 21 22  2  0
 21 20  1  0
 23 22  1  0
 24 23  2  0
 25 24  1  0
 25 26  2  0
 26 18  1  0
 26 21  1  0
 27 16  1  0
 28 27  1  0
 29 27  2  0
M  END
$$$$
