CLW.pdb
     RDKit          3D

 29 30  0  0  1  0  0  0  0  0999 V2000
    8.1362  -19.5137   19.3284 N   0  0  0  0  0  0  0  0  0  0  0  0
    7.6812  -18.7542   20.4717 C   0  0  1  0  0  0  0  0  0  0  0  0
    7.5223  -19.7239   21.6247 C   0  0  0  0  0  0  0  0  0  0  0  0
    7.4694  -21.4299   21.0169 S   0  0  0  0  0  0  0  0  0  0  0  0
    8.6807  -17.7072   20.7645 C   0  0  0  0  0  0  0  0  0  0  0  0
    9.8922  -17.9449   20.5847 O   0  0  0  0  0  0  0  0  0  0  0  0
    6.4593  -14.3641   20.8807 C   0  0  0  0  0  0  0  0  0  0  0  0
    7.8146  -13.8130   20.3722 C   0  0  1  0  0  0  0  0  0  0  0  0
    7.5356  -12.3391   20.1038 C   0  0  0  0  0  0  0  0  0  0  0  0
    8.8293  -14.0266   21.4360 C   0  0  0  0  0  0  0  0  0  0  0  0
    9.2749  -15.4378   21.6764 C   0  0  2  0  0  0  0  0  0  0  0  0
    8.3225  -16.4070   21.2542 N   0  0  0  0  0  0  0  0  0  0  0  0
    9.7354  -15.6142   23.0883 C   0  0  0  0  0  0  0  0  0  0  0  0
   10.6934  -14.9045   23.4931 O   0  0  0  0  0  0  0  0  0  0  0  0
    9.1474  -16.5301   23.9693 N   0  0  0  0  0  0  0  0  0  0  0  0
    9.6427  -16.7790   25.3190 C   0  0  1  0  0  0  0  0  0  0  0  0
    8.5354  -16.3956   26.2947 C   0  0  0  0  0  0  0  0  0  0  0  0
    8.6634  -14.9534   26.6901 C   0  0  0  0  0  0  0  0  0  0  0  0
    9.7993  -14.2892   27.1026 C   0  0  0  0  0  0  0  0  0  0  0  0
    9.5047  -13.0044   27.3680 N   0  0  0  0  0  0  0  0  0  0  0  0
    8.1899  -12.7806   27.1442 C   0  0  0  0  0  0  0  0  0  0  0  0
    7.4121  -11.6482   27.2673 C   0  0  0  0  0  0  0  0  0  0  0  0
    6.0685  -11.7152   26.9630 C   0  0  0  0  0  0  0  0  0  0  0  0
    5.5544  -12.9304   26.5425 C   0  0  0  0  0  0  0  0  0  0  0  0
    6.3259  -14.0657   26.4173 C   0  0  0  0  0  0  0  0  0  0  0  0
    7.6619  -14.0043   26.7186 C   0  0  0  0  0  0  0  0  0  0  0  0
    9.9165  -18.2199   25.5040 C   0  0  0  0  0  0  0  0  0  0  0  0
   10.5512  -18.7187   26.6414 O   0  0  0  0  0  0  0  0  0  0  0  0
    9.5600  -19.0229   24.5955 O   0  0  0  0  0  0  0  0  0  0  0  0
  2  1  1  6
  2  3  1  0
  2  5  1  0
  3  4  1  0
  5 12  1  0
  5  6  2  0
  8  7  1  1
  8  9  1  0
 10  8  1  0
 11 13  1  0
 11 10  1  1
 12 11  1  0
 13 14  2  0
 15 13  1  0
 16 15  1  0
 16 17  1  1
 17 18  1  0
 18 19  2  0
 19 20  1  0
 21 22  2  0
 21 20  1  0
 23 22  1  0
 24 23  2  0
 25 24  1  0
 25 26  2  0
 26 18  1  0
 26 21  1  0
 27 16  1  0
 28 27  1  0
 29 27  2  0
M  END
$$$$
