CLW.pdb
     RDKit          3D

 29 30  0  0  1  0  0  0  0  0999 V2000
    8.2002  -18.9703   20.5357 N   0  0  0  0  0  0  0  0  0  0  0  0
    9.4661  -18.5561   19.9729 C   0  0  1  0  0  0  0  0  0  0  0  0
    9.3168  -18.5692   18.4654 C   0  0  0  0  0  0  0  0  0  0  0  0
    8.5037  -20.0941   17.9212 S   0  0  0  0  0  0  0  0  0  0  0  0
    9.7858  -17.2080   20.4843 C   0  0  0  0  0  0  0  0  0  0  0  0
   10.8907  -16.6941   20.2172 O   0  0  0  0  0  0  0  0  0  0  0  0
    6.3935  -12.9319   20.4392 C   0  0  0  0  0  0  0  0  0  0  0  0
    7.6916  -13.7718   20.3458 C   0  0  1  0  0  0  0  0  0  0  0  0
    8.6969  -12.8257   19.7002 C   0  0  0  0  0  0  0  0  0  0  0  0
    8.0791  -14.1791   21.7209 C   0  0  0  0  0  0  0  0  0  0  0  0
    9.1916  -15.1764   21.8460 C   0  0  2  0  0  0  0  0  0  0  0  0
    8.8733  -16.4457   21.2873 N   0  0  0  0  0  0  0  0  0  0  0  0
    9.6888  -15.2408   23.2550 C   0  0  0  0  0  0  0  0  0  0  0  0
   10.1684  -14.1934   23.7634 O   0  0  0  0  0  0  0  0  0  0  0  0
    9.6420  -16.4103   24.0234 N   0  0  0  0  0  0  0  0  0  0  0  0
   10.0661  -16.4737   25.4180 C   0  0  1  0  0  0  0  0  0  0  0  0
    8.8412  -16.8199   26.2574 C   0  0  0  0  0  0  0  0  0  0  0  0
    7.7129  -15.8795   25.9486 C   0  0  0  0  0  0  0  0  0  0  0  0
    6.5053  -16.1773   25.3530 C   0  0  0  0  0  0  0  0  0  0  0  0
    5.7613  -15.0621   25.2494 N   0  0  0  0  0  0  0  0  0  0  0  0
    6.4388  -14.0104   25.7629 C   0  0  0  0  0  0  0  0  0  0  0  0
    6.1141  -12.6759   25.8896 C   0  0  0  0  0  0  0  0  0  0  0  0
    7.0209  -11.8118   26.4667 C   0  0  0  0  0  0  0  0  0  0  0  0
    8.2312  -12.3286   26.8983 C   0  0  0  0  0  0  0  0  0  0  0  0
    8.5621  -13.6609   26.7748 C   0  0  0  0  0  0  0  0  0  0  0  0
    7.6641  -14.5238   26.2018 C   0  0  0  0  0  0  0  0  0  0  0  0
   11.0510  -17.5605   25.6026 C   0  0  0  0  0  0  0  0  0  0  0  0
   11.7699  -17.7227   26.7868 O   0  0  0  0  0  0  0  0  0  0  0  0
   11.2435  -18.3680   24.6497 O   0  0  0  0  0  0  0  0  0  0  0  0
  2  1  1  1
  2  3  1  0
  2  5  1  0
  3  4  1  0
  5 12  1  0
  5  6  2  0
  8  7  1  1
  8  9  1  0
 10  8  1  0
 11 13  1  0
 11 10  1  1
 12 11  1  0
 13 14  2  0
 15 13  1  0
 16 15  1  0
 16 17  1  1
 17 18  1  0
 18 19  2  0
 19 20  1  0
 21 22  2  0
 21 20  1  0
 23 22  1  0
 24 23  2  0
 25 24  1  0
 25 26  2  0
 26 18  1  0
 26 21  1  0
 27 16  1  0
 28 27  1  0
 29 27  2  0
M  END
$$$$
