CLW.pdb
     RDKit          3D

 29 30  0  0  1  0  0  0  0  0999 V2000
    8.1782  -20.6102   20.5095 N   0  0  0  0  0  0  0  0  0  0  0  0
    7.4638  -19.5789   21.2286 C   0  0  1  0  0  0  0  0  0  0  0  0
    7.4529  -19.9724   22.6915 C   0  0  0  0  0  0  0  0  0  0  0  0
    9.1436  -20.0683   23.3357 S   0  0  0  0  0  0  0  0  0  0  0  0
    8.1540  -18.2922   21.0081 C   0  0  0  0  0  0  0  0  0  0  0  0
    9.3386  -18.2879   20.6165 O   0  0  0  0  0  0  0  0  0  0  0  0
    8.4913  -13.3247   19.2353 C   0  0  0  0  0  0  0  0  0  0  0  0
    7.9297  -13.2956   20.6785 C   0  0  1  0  0  0  0  0  0  0  0  0
    6.9335  -12.1425   20.6630 C   0  0  0  0  0  0  0  0  0  0  0  0
    7.2922  -14.6089   20.9536 C   0  0  0  0  0  0  0  0  0  0  0  0
    8.2072  -15.7799   21.1522 C   0  0  2  0  0  0  0  0  0  0  0  0
    7.5198  -17.0236   21.2252 N   0  0  0  0  0  0  0  0  0  0  0  0
    9.1408  -15.5345   22.2945 C   0  0  0  0  0  0  0  0  0  0  0  0
   10.0096  -14.6320   22.1674 O   0  0  0  0  0  0  0  0  0  0  0  0
    9.0864  -16.2631   23.4890 N   0  0  0  0  0  0  0  0  0  0  0  0
    9.9615  -16.0067   24.6279 C   0  0  1  0  0  0  0  0  0  0  0  0
    9.1413  -16.2159   25.8961 C   0  0  0  0  0  0  0  0  0  0  0  0
    7.9607  -15.2893   25.9141 C   0  0  0  0  0  0  0  0  0  0  0  0
    6.6330  -15.6105   25.7255 C   0  0  0  0  0  0  0  0  0  0  0  0
    5.8786  -14.5011   25.8157 N   0  0  0  0  0  0  0  0  0  0  0  0
    6.6669  -13.4303   26.0621 C   0  0  0  0  0  0  0  0  0  0  0  0
    6.3793  -12.0927   26.2362 C   0  0  0  0  0  0  0  0  0  0  0  0
    7.4078  -11.2066   26.4797 C   0  0  0  0  0  0  0  0  0  0  0  0
    8.6984  -11.7053   26.5392 C   0  0  0  0  0  0  0  0  0  0  0  0
    8.9929  -13.0406   26.3661 C   0  0  0  0  0  0  0  0  0  0  0  0
    7.9741  -13.9253   26.1239 C   0  0  0  0  0  0  0  0  0  0  0  0
   11.0691  -16.9853   24.6505 C   0  0  0  0  0  0  0  0  0  0  0  0
   12.1155  -16.9069   25.5694 O   0  0  0  0  0  0  0  0  0  0  0  0
   11.0616  -17.9241   23.8043 O   0  0  0  0  0  0  0  0  0  0  0  0
  2  1  1  6
  2  3  1  0
  2  5  1  0
  3  4  1  0
  5 12  1  0
  5  6  2  0
  8  7  1  6
  8  9  1  0
 10  8  1  0
 11 13  1  0
 11 10  1  1
 12 11  1  0
 13 14  2  0
 15 13  1  0
 16 15  1  0
 16 17  1  1
 17 18  1  0
 18 19  2  0
 19 20  1  0
 21 22  2  0
 21 20  1  0
 23 22  1  0
 24 23  2  0
 25 24  1  0
 25 26  2  0
 26 18  1  0
 26 21  1  0
 27 16  1  0
 28 27  1  0
 29 27  2  0
M  END
$$$$
