AIF.pdb
     RDKit          3D

 25 25  0  0  1  0  0  0  0  0999 V2000
    7.7744  -19.9099   21.2696 C   0  0  0  0  0  0  0  0  0  0  0  0
    7.8532  -18.8317   20.2301 C   0  0  2  0  0  0  0  0  0  0  0  0
    8.5235  -19.3287   19.0683 N   0  0  0  0  0  0  0  0  0  0  0  0
    8.5383  -17.6034   20.7583 C   0  0  0  0  0  0  0  0  0  0  0  0
    9.7866  -17.5341   20.7479 O   0  0  0  0  0  0  0  0  0  0  0  0
    6.8261  -12.5472   19.6718 C   0  0  0  0  0  0  0  0  0  0  0  0
    7.6469  -13.7648   20.0570 C   0  0  0  0  0  0  0  0  0  0  0  0
    7.6378  -14.0340   21.5448 C   0  0  2  0  0  0  0  0  0  0  0  0
    8.3474  -12.8601   22.2206 C   0  0  0  0  0  0  0  0  0  0  0  0
    8.3036  -15.3401   21.8865 C   0  0  2  0  0  0  0  0  0  0  0  0
    7.8058  -16.5132   21.2719 N   0  0  0  0  0  0  0  0  0  0  0  0
    8.6998  -15.4768   23.2831 C   0  0  0  0  0  0  0  0  0  0  0  0
    9.8170  -15.0523   23.6579 O   0  0  0  0  0  0  0  0  0  0  0  0
    7.8758  -16.0800   24.2839 N   0  0  0  0  0  0  0  0  0  0  0  0
    8.4100  -16.2003   25.6477 C   0  0  1  0  0  0  0  0  0  0  0  0
    7.4028  -15.6655   26.6407 C   0  0  0  0  0  0  0  0  0  0  0  0
    7.2996  -14.2111   26.5489 C   0  0  0  0  0  0  0  0  0  0  0  0
    6.1673  -13.6077   26.0880 C   0  0  0  0  0  0  0  0  0  0  0  0
    6.1022  -12.2355   26.0274 C   0  0  0  0  0  0  0  0  0  0  0  0
    7.1622  -11.4537   26.4245 C   0  0  0  0  0  0  0  0  0  0  0  0
    8.3081  -12.0593   26.8908 C   0  0  0  0  0  0  0  0  0  0  0  0
    8.3721  -13.4249   26.9509 C   0  0  0  0  0  0  0  0  0  0  0  0
    8.8624  -17.5686   25.9183 C   0  0  0  0  0  0  0  0  0  0  0  0
    9.6721  -17.9735   26.9607 O   0  0  0  0  0  0  0  0  0  0  0  0
    8.4851  -18.4977   25.1252 O   0  0  0  0  0  0  0  0  0  0  0  0
  2  4  1  0
  2  1  1  1
  3  2  1  0
  4  5  2  0
  6  7  1  0
  8 10  1  0
  8  9  1  1
  8  7  1  0
 10 11  1  1
 11  4  1  0
 12 14  1  0
 12 10  1  0
 13 12  2  0
 15 14  1  0
 15 16  1  1
 17 16  1  0
 18 17  2  0
 19 18  1  0
 20 19  2  0
 20 21  1  0
 21 22  2  0
 22 17  1  0
 23 24  1  0
 23 15  1  0
 25 23  2  0
M  END
$$$$
