AIF.pdb
     RDKit          3D

 25 25  0  0  1  0  0  0  0  0999 V2000
    7.9114  -19.7642   20.8816 C   0  0  0  0  0  0  0  0  0  0  0  0
    8.4009  -18.6900   19.9565 C   0  0  2  0  0  0  0  0  0  0  0  0
    9.3688  -19.2333   19.0543 N   0  0  0  0  0  0  0  0  0  0  0  0
    8.9712  -17.5250   20.7146 C   0  0  0  0  0  0  0  0  0  0  0  0
   10.1710  -17.5387   21.0663 O   0  0  0  0  0  0  0  0  0  0  0  0
    6.8621  -12.4384   19.7821 C   0  0  0  0  0  0  0  0  0  0  0  0
    7.7699  -13.6191   20.0762 C   0  0  0  0  0  0  0  0  0  0  0  0
    7.8060  -13.9826   21.5434 C   0  0  2  0  0  0  0  0  0  0  0  0
    8.4503  -12.8099   22.2837 C   0  0  0  0  0  0  0  0  0  0  0  0
    8.5614  -15.2611   21.7902 C   0  0  2  0  0  0  0  0  0  0  0  0
    8.1835  -16.4029   21.0452 N   0  0  0  0  0  0  0  0  0  0  0  0
    8.9138  -15.5030   23.1842 C   0  0  0  0  0  0  0  0  0  0  0  0
   10.0483  -15.1796   23.6049 O   0  0  0  0  0  0  0  0  0  0  0  0
    8.0266  -16.1020   24.1321 N   0  0  0  0  0  0  0  0  0  0  0  0
    8.4168  -16.1027   25.5490 C   0  0  1  0  0  0  0  0  0  0  0  0
    7.2379  -15.6970   26.4046 C   0  0  0  0  0  0  0  0  0  0  0  0
    7.0858  -14.2442   26.4302 C   0  0  0  0  0  0  0  0  0  0  0  0
    8.1190  -13.4287   26.7854 C   0  0  0  0  0  0  0  0  0  0  0  0
    7.9421  -12.0650   26.7859 C   0  0  0  0  0  0  0  0  0  0  0  0
    6.7371  -11.5027   26.4334 C   0  0  0  0  0  0  0  0  0  0  0  0
    5.6907  -12.3232   26.0738 C   0  0  0  0  0  0  0  0  0  0  0  0
    5.8675  -13.6801   26.0735 C   0  0  0  0  0  0  0  0  0  0  0  0
    9.0306  -17.3798   25.9265 C   0  0  0  0  0  0  0  0  0  0  0  0
    9.8105  -17.6171   27.0407 O   0  0  0  0  0  0  0  0  0  0  0  0
    8.8415  -18.3895   25.1653 O   0  0  0  0  0  0  0  0  0  0  0  0
  2  4  1  0
  2  1  1  1
  3  2  1  0
  4  5  2  0
  6  7  1  0
  8 10  1  0
  8  9  1  1
  8  7  1  0
 10 11  1  1
 11  4  1  0
 12 14  1  0
 12 10  1  0
 13 12  2  0
 15 14  1  0
 15 16  1  1
 17 16  1  0
 18 17  2  0
 19 18  1  0
 20 19  2  0
 20 21  1  0
 21 22  2  0
 22 17  1  0
 23 24  1  0
 23 15  1  0
 25 23  2  0
M  END
$$$$
