AIF.pdb
     RDKit          3D

 25 25  0  0  1  0  0  0  0  0999 V2000
    8.7786  -20.2312   20.8503 C   0  0  0  0  0  0  0  0  0  0  0  0
    8.9178  -19.1330   19.8384 C   0  0  2  0  0  0  0  0  0  0  0  0
    9.9061  -19.4918   18.8686 N   0  0  0  0  0  0  0  0  0  0  0  0
    9.2580  -17.8220   20.4887 C   0  0  0  0  0  0  0  0  0  0  0  0
   10.4418  -17.5730   20.8050 O   0  0  0  0  0  0  0  0  0  0  0  0
    7.9439  -11.8487   20.6749 C   0  0  0  0  0  0  0  0  0  0  0  0
    8.3998  -13.1079   21.3899 C   0  0  0  0  0  0  0  0  0  0  0  0
    7.9493  -14.3740   20.6969 C   0  0  2  0  0  0  0  0  0  0  0  0
    6.4225  -14.3298   20.6232 C   0  0  0  0  0  0  0  0  0  0  0  0
    8.4224  -15.6097   21.4148 C   0  0  2  0  0  0  0  0  0  0  0  0
    8.2694  -16.8525   20.7562 N   0  0  0  0  0  0  0  0  0  0  0  0
    8.1656  -15.6183   22.8501 C   0  0  0  0  0  0  0  0  0  0  0  0
    7.0415  -15.9659   23.2796 O   0  0  0  0  0  0  0  0  0  0  0  0
    9.1379  -15.2461   23.8301 N   0  0  0  0  0  0  0  0  0  0  0  0
    8.8154  -15.4579   25.2481 C   0  0  1  0  0  0  0  0  0  0  0  0
    7.3361  -15.2418   25.4744 C   0  0  0  0  0  0  0  0  0  0  0  0
    7.0736  -13.8896   25.9612 C   0  0  0  0  0  0  0  0  0  0  0  0
    5.8015  -13.4405   26.1576 C   0  0  0  0  0  0  0  0  0  0  0  0
    5.5936  -12.1654   26.6288 C   0  0  0  0  0  0  0  0  0  0  0  0
    6.6489  -11.3281   26.9079 C   0  0  0  0  0  0  0  0  0  0  0  0
    7.9358  -11.7780   26.7108 C   0  0  0  0  0  0  0  0  0  0  0  0
    8.1418  -13.0469   26.2419 C   0  0  0  0  0  0  0  0  0  0  0  0
    9.3187  -16.7533   25.7159 C   0  0  0  0  0  0  0  0  0  0  0  0
   10.0779  -17.6488   24.9895 O   0  0  0  0  0  0  0  0  0  0  0  0
    9.0405  -17.1140   26.9105 O   0  0  0  0  0  0  0  0  0  0  0  0
  2  4  1  0
  2  1  1  1
  3  2  1  0
  4  5  2  0
  6  7  1  0
  8 10  1  0
  8  9  1  1
  8  7  1  0
 10 11  1  6
 11  4  1  0
 12 14  1  0
 12 10  1  0
 13 12  2  0
 15 14  1  0
 15 16  1  6
 17 16  1  0
 18 17  2  0
 19 18  1  0
 20 19  2  0
 20 21  1  0
 21 22  2  0
 22 17  1  0
 23 24  1  0
 23 15  1  0
 25 23  2  0
M  END
$$$$
