AIF.pdb
     RDKit          3D

 25 25  0  0  1  0  0  0  0  0999 V2000
    5.1886  -18.9330   22.1705 C   0  0  0  0  0  0  0  0  0  0  0  0
    5.7951  -18.2812   20.9636 C   0  0  2  0  0  0  0  0  0  0  0  0
    6.2636  -19.2836   20.0571 N   0  0  0  0  0  0  0  0  0  0  0  0
    6.9046  -17.3414   21.3417 C   0  0  0  0  0  0  0  0  0  0  0  0
    8.0569  -17.7857   21.5371 O   0  0  0  0  0  0  0  0  0  0  0  0
    7.1452  -12.2958   19.1671 C   0  0  0  0  0  0  0  0  0  0  0  0
    7.4738  -13.6372   19.7973 C   0  0  0  0  0  0  0  0  0  0  0  0
    7.4764  -13.5926   21.3086 C   0  0  2  0  0  0  0  0  0  0  0  0
    8.6433  -12.6997   21.7323 C   0  0  0  0  0  0  0  0  0  0  0  0
    7.5961  -14.9656   21.9140 C   0  0  2  0  0  0  0  0  0  0  0  0
    6.6819  -15.9562   21.4845 N   0  0  0  0  0  0  0  0  0  0  0  0
    7.9238  -14.9803   23.3348 C   0  0  0  0  0  0  0  0  0  0  0  0
    7.4216  -14.1241   24.0986 O   0  0  0  0  0  0  0  0  0  0  0  0
    8.8055  -15.9333   23.9337 N   0  0  0  0  0  0  0  0  0  0  0  0
    9.1261  -15.7867   25.3603 C   0  0  1  0  0  0  0  0  0  0  0  0
    7.8499  -15.6571   26.1609 C   0  0  0  0  0  0  0  0  0  0  0  0
    7.5482  -14.2552   26.4405 C   0  0  0  0  0  0  0  0  0  0  0  0
    6.2664  -13.7908   26.4370 C   0  0  0  0  0  0  0  0  0  0  0  0
    6.0200  -12.4673   26.7170 C   0  0  0  0  0  0  0  0  0  0  0  0
    7.0459  -11.5963   27.0023 C   0  0  0  0  0  0  0  0  0  0  0  0
    8.3424  -12.0615   27.0068 C   0  0  0  0  0  0  0  0  0  0  0  0
    8.5869  -13.3787   26.7282 C   0  0  0  0  0  0  0  0  0  0  0  0
   10.0210  -16.8567   25.8126 C   0  0  0  0  0  0  0  0  0  0  0  0
   10.4928  -17.9076   25.0517 O   0  0  0  0  0  0  0  0  0  0  0  0
   10.4179  -16.8390   27.0279 O   0  0  0  0  0  0  0  0  0  0  0  0
  2  4  1  0
  2  1  1  1
  3  2  1  0
  4  5  2  0
  6  7  1  0
  8 10  1  0
  8  9  1  6
  8  7  1  0
 10 11  1  1
 11  4  1  0
 12 14  1  0
 12 10  1  0
 13 12  2  0
 15 14  1  0
 15 16  1  1
 17 16  1  0
 18 17  2  0
 19 18  1  0
 20 19  2  0
 20 21  1  0
 21 22  2  0
 22 17  1  0
 23 24  1  0
 23 15  1  0
 25 23  2  0
M  END
$$$$
