AIF.pdb
     RDKit          3D

 25 25  0  0  1  0  0  0  0  0999 V2000
    8.7143  -19.6871   20.5313 C   0  0  0  0  0  0  0  0  0  0  0  0
    9.1272  -18.4988   19.7148 C   0  0  2  0  0  0  0  0  0  0  0  0
   10.2915  -18.8200   18.9484 N   0  0  0  0  0  0  0  0  0  0  0  0
    9.3706  -17.2929   20.5773 C   0  0  0  0  0  0  0  0  0  0  0  0
   10.4873  -17.1276   21.1150 O   0  0  0  0  0  0  0  0  0  0  0  0
    7.4510  -12.3736   19.2020 C   0  0  0  0  0  0  0  0  0  0  0  0
    8.2381  -13.5309   19.7899 C   0  0  0  0  0  0  0  0  0  0  0  0
    7.7543  -13.9337   21.1645 C   0  0  2  0  0  0  0  0  0  0  0  0
    8.0463  -12.7651   22.1066 C   0  0  0  0  0  0  0  0  0  0  0  0
    8.4137  -15.1979   21.6474 C   0  0  2  0  0  0  0  0  0  0  0  0
    8.3644  -16.3305   20.8010 N   0  0  0  0  0  0  0  0  0  0  0  0
    8.2531  -15.4649   23.0719 C   0  0  0  0  0  0  0  0  0  0  0  0
    7.2441  -16.0850   23.4794 O   0  0  0  0  0  0  0  0  0  0  0  0
    9.1966  -15.0551   24.0650 N   0  0  0  0  0  0  0  0  0  0  0  0
    8.9965  -15.5113   25.4476 C   0  0  1  0  0  0  0  0  0  0  0  0
    7.5266  -15.4539   25.7977 C   0  0  0  0  0  0  0  0  0  0  0  0
    7.1220  -14.0909   26.1337 C   0  0  0  0  0  0  0  0  0  0  0  0
    5.8132  -13.7108   26.1014 C   0  0  0  0  0  0  0  0  0  0  0  0
    5.4689  -12.4222   26.4362 C   0  0  0  0  0  0  0  0  0  0  0  0
    6.4232  -11.5028   26.8053 C   0  0  0  0  0  0  0  0  0  0  0  0
    7.7468  -11.8828   26.8393 C   0  0  0  0  0  0  0  0  0  0  0  0
    8.0886  -13.1652   26.5061 C   0  0  0  0  0  0  0  0  0  0  0  0
    9.6229  -16.8188   25.6676 C   0  0  0  0  0  0  0  0  0  0  0  0
   10.3357  -17.5529   24.7409 O   0  0  0  0  0  0  0  0  0  0  0  0
    9.5121  -17.3549   26.8230 O   0  0  0  0  0  0  0  0  0  0  0  0
  2  4  1  0
  2  1  1  1
  3  2  1  0
  4  5  2  0
  6  7  1  0
  8 10  1  0
  8  9  1  1
  8  7  1  0
 10 11  1  6
 11  4  1  0
 12 14  1  0
 12 10  1  0
 13 12  2  0
 15 14  1  0
 15 16  1  6
 17 16  1  0
 18 17  2  0
 19 18  1  0
 20 19  2  0
 20 21  1  0
 21 22  2  0
 22 17  1  0
 23 24  1  0
 23 15  1  0
 25 23  2  0
M  END
$$$$
