AIF.pdb
     RDKit          3D

 25 25  0  0  1  0  0  0  0  0999 V2000
    8.2221  -12.1150   19.6434 C   0  0  0  0  0  0  0  0  0  0  0  0
    8.3390  -13.5263   19.1497 C   0  0  2  0  0  0  0  0  0  0  0  0
    7.6577  -13.6588   17.8990 N   0  0  0  0  0  0  0  0  0  0  0  0
    7.8084  -14.5093   20.1544 C   0  0  0  0  0  0  0  0  0  0  0  0
    6.6086  -14.8580   20.1100 O   0  0  0  0  0  0  0  0  0  0  0  0
    8.6733  -20.0568   21.5831 C   0  0  0  0  0  0  0  0  0  0  0  0
    8.3439  -18.7065   22.1937 C   0  0  0  0  0  0  0  0  0  0  0  0
    8.7772  -17.5467   21.3259 C   0  0  2  0  0  0  0  0  0  0  0  0
   10.2896  -17.6663   21.1341 C   0  0  0  0  0  0  0  0  0  0  0  0
    8.4106  -16.2190   21.9333 C   0  0  2  0  0  0  0  0  0  0  0  0
    8.6340  -15.0567   21.1582 N   0  0  0  0  0  0  0  0  0  0  0  0
    8.7034  -16.0966   23.3564 C   0  0  0  0  0  0  0  0  0  0  0  0
    9.8361  -15.7126   23.7284 O   0  0  0  0  0  0  0  0  0  0  0  0
    7.7582  -16.3938   24.3872 N   0  0  0  0  0  0  0  0  0  0  0  0
    8.1538  -16.1643   25.7838 C   0  0  1  0  0  0  0  0  0  0  0  0
    7.0003  -15.5558   26.5490 C   0  0  0  0  0  0  0  0  0  0  0  0
    7.0111  -14.0989   26.4398 C   0  0  0  0  0  0  0  0  0  0  0  0
    8.1252  -13.3729   26.7404 C   0  0  0  0  0  0  0  0  0  0  0  0
    8.1016  -12.0039   26.6138 C   0  0  0  0  0  0  0  0  0  0  0  0
    6.9704  -11.3471   26.1876 C   0  0  0  0  0  0  0  0  0  0  0  0
    5.8426  -12.0769   25.8829 C   0  0  0  0  0  0  0  0  0  0  0  0
    5.8669  -13.4392   26.0091 C   0  0  0  0  0  0  0  0  0  0  0  0
    8.7046  -17.3839   26.3834 C   0  0  0  0  0  0  0  0  0  0  0  0
    9.6674  -17.4496   27.3706 O   0  0  0  0  0  0  0  0  0  0  0  0
    8.2681  -18.5116   25.9681 O   0  0  0  0  0  0  0  0  0  0  0  0
  2  4  1  0
  2  1  1  1
  3  2  1  0
  4  5  2  0
  6  7  1  0
  8 10  1  0
  8  9  1  1
  8  7  1  0
 10 11  1  6
 11  4  1  0
 12 14  1  0
 12 10  1  0
 13 12  2  0
 15 14  1  0
 15 16  1  1
 17 16  1  0
 18 17  2  0
 19 18  1  0
 20 19  2  0
 20 21  1  0
 21 22  2  0
 22 17  1  0
 23 24  1  0
 23 15  1  0
 25 23  2  0
M  END
$$$$
