AIF.pdb
     RDKit          3D

 25 25  0  0  1  0  0  0  0  0999 V2000
    8.8944  -12.2504   19.5613 C   0  0  0  0  0  0  0  0  0  0  0  0
    8.5016  -13.6027   19.0452 C   0  0  2  0  0  0  0  0  0  0  0  0
    7.3127  -13.4928   18.2575 N   0  0  0  0  0  0  0  0  0  0  0  0
    8.3129  -14.5879   20.1637 C   0  0  0  0  0  0  0  0  0  0  0  0
    7.2231  -14.6341   20.7749 O   0  0  0  0  0  0  0  0  0  0  0  0
    8.9620  -19.7617   19.6355 C   0  0  0  0  0  0  0  0  0  0  0  0
    8.6695  -18.3406   20.0822 C   0  0  0  0  0  0  0  0  0  0  0  0
    9.5785  -17.8753   21.1972 C   0  0  2  0  0  0  0  0  0  0  0  0
    9.3529  -18.8120   22.3846 C   0  0  0  0  0  0  0  0  0  0  0  0
    9.3167  -16.4428   21.5786 C   0  0  2  0  0  0  0  0  0  0  0  0
    9.3413  -15.4726   20.5491 N   0  0  0  0  0  0  0  0  0  0  0  0
    9.9024  -16.0322   22.8492 C   0  0  0  0  0  0  0  0  0  0  0  0
   11.1402  -15.8631   22.9386 O   0  0  0  0  0  0  0  0  0  0  0  0
    9.1379  -15.8025   24.0354 N   0  0  0  0  0  0  0  0  0  0  0  0
    9.8555  -15.4724   25.2747 C   0  0  1  0  0  0  0  0  0  0  0  0
    9.8798  -13.9729   25.4681 C   0  0  0  0  0  0  0  0  0  0  0  0
    8.5476  -13.4652   25.7871 C   0  0  0  0  0  0  0  0  0  0  0  0
    8.2415  -13.0110   27.0356 C   0  0  0  0  0  0  0  0  0  0  0  0
    6.9802  -12.5288   27.2955 C   0  0  0  0  0  0  0  0  0  0  0  0
    6.0146  -12.4948   26.3162 C   0  0  0  0  0  0  0  0  0  0  0  0
    6.3198  -12.9527   25.0534 C   0  0  0  0  0  0  0  0  0  0  0  0
    7.5751  -13.4324   24.7956 C   0  0  0  0  0  0  0  0  0  0  0  0
    9.3157  -16.2231   26.4128 C   0  0  0  0  0  0  0  0  0  0  0  0
    8.1960  -17.0306   26.4057 O   0  0  0  0  0  0  0  0  0  0  0  0
    9.9224  -16.1381   27.5351 O   0  0  0  0  0  0  0  0  0  0  0  0
  2  4  1  0
  2  1  1  1
  3  2  1  0
  4  5  2  0
  6  7  1  0
  8 10  1  0
  8  9  1  1
  8  7  1  0
 10 11  1  6
 11  4  1  0
 12 14  1  0
 12 10  1  0
 13 12  2  0
 15 14  1  0
 15 16  1  1
 17 16  1  0
 18 17  2  0
 19 18  1  0
 20 19  2  0
 20 21  1  0
 21 22  2  0
 22 17  1  0
 23 24  1  0
 23 15  1  0
 25 23  2  0
M  END
$$$$
