AIF.pdb
     RDKit          3D

 25 25  0  0  1  0  0  0  0  0999 V2000
    8.2434  -12.0247   20.0268 C   0  0  0  0  0  0  0  0  0  0  0  0
    8.2732  -13.3937   19.4150 C   0  0  2  0  0  0  0  0  0  0  0  0
    7.3504  -13.4556   18.3238 N   0  0  0  0  0  0  0  0  0  0  0  0
    7.9730  -14.4596   20.4303 C   0  0  0  0  0  0  0  0  0  0  0  0
    6.7863  -14.7593   20.6856 O   0  0  0  0  0  0  0  0  0  0  0  0
    9.3497  -19.2560   19.6155 C   0  0  0  0  0  0  0  0  0  0  0  0
    8.8143  -17.9401   20.1508 C   0  0  0  0  0  0  0  0  0  0  0  0
    9.3849  -17.5794   21.5037 C   0  0  2  0  0  0  0  0  0  0  0  0
    8.9955  -18.6979   22.4711 C   0  0  0  0  0  0  0  0  0  0  0  0
    8.8868  -16.2444   21.9891 C   0  0  2  0  0  0  0  0  0  0  0  0
    9.0029  -15.1403   21.1121 N   0  0  0  0  0  0  0  0  0  0  0  0
    9.1552  -15.9667   23.3951 C   0  0  0  0  0  0  0  0  0  0  0  0
   10.2544  -15.4704   23.7332 O   0  0  0  0  0  0  0  0  0  0  0  0
    8.2218  -16.2299   24.4458 N   0  0  0  0  0  0  0  0  0  0  0  0
    8.6476  -15.9939   25.8324 C   0  0  1  0  0  0  0  0  0  0  0  0
    7.4562  -15.5917   26.6722 C   0  0  0  0  0  0  0  0  0  0  0  0
    7.1095  -14.1899   26.4505 C   0  0  0  0  0  0  0  0  0  0  0  0
    5.9045  -13.8317   25.9229 C   0  0  0  0  0  0  0  0  0  0  0  0
    5.6086  -12.5013   25.7401 C   0  0  0  0  0  0  0  0  0  0  0  0
    6.5083  -11.5180   26.0805 C   0  0  0  0  0  0  0  0  0  0  0  0
    7.7269  -11.8756   26.6139 C   0  0  0  0  0  0  0  0  0  0  0  0
    8.0207  -13.1996   26.7955 C   0  0  0  0  0  0  0  0  0  0  0  0
    9.4008  -17.1383   26.3551 C   0  0  0  0  0  0  0  0  0  0  0  0
   10.4327  -17.0915   27.2711 O   0  0  0  0  0  0  0  0  0  0  0  0
    9.0924  -18.3064   25.9368 O   0  0  0  0  0  0  0  0  0  0  0  0
  2  4  1  0
  2  1  1  1
  3  2  1  0
  4  5  2  0
  6  7  1  0
  8 10  1  0
  8  9  1  1
  8  7  1  0
 10 11  1  6
 11  4  1  0
 12 14  1  0
 12 10  1  0
 13 12  2  0
 15 14  1  0
 15 16  1  1
 17 16  1  0
 18 17  2  0
 19 18  1  0
 20 19  2  0
 20 21  1  0
 21 22  2  0
 22 17  1  0
 23 24  1  0
 23 15  1  0
 25 23  2  0
M  END
$$$$
