NET.pdb
     RDKit          3D

 25 24  0  0  1  0  0  0  0  0999 V2000
   12.4935   -9.6976   -9.9835 N   0  0  0  0  0  0  0  0  0  0  0  0
   13.0305  -10.9123  -10.4920 C   0  0  0  0  0  0  0  0  0  0  0  0
   12.5032  -12.0134  -10.1769 O   0  0  0  0  0  0  0  0  0  0  0  0
   14.2065  -10.9202  -11.3925 C   0  0  0  0  0  0  0  0  0  0  0  0
   14.6412   -9.5106  -11.6246 C   0  0  2  0  0  0  0  0  0  0  0  0
   13.6588   -8.7688  -12.3744 N   0  0  0  0  0  0  0  0  0  0  0  0
   15.9371   -9.4244  -12.3429 C   0  0  0  0  0  0  0  0  0  0  0  0
   16.9886   -9.9971  -11.9019 O   0  0  0  0  0  0  0  0  0  0  0  0
   16.1027   -8.7048  -13.5638 N   0  0  0  0  0  0  0  0  0  0  0  0
   17.3466   -8.7359  -14.3085 C   0  0  1  0  0  0  0  0  0  0  0  0
   17.0968   -8.9941  -15.7684 C   0  0  0  0  0  0  0  0  0  0  0  0
   16.8923  -10.4335  -16.0959 C   0  0  0  0  0  0  0  0  0  0  0  0
   16.6806  -10.5591  -17.5605 C   0  0  0  0  0  0  0  0  0  0  0  0
   15.9311   -9.7714  -18.1930 O   0  0  0  0  0  0  0  0  0  0  0  0
   18.0856   -7.4647  -14.0864 C   0  0  0  0  0  0  0  0  0  0  0  0
   17.4974   -6.3949  -13.7825 O   0  0  0  0  0  0  0  0  0  0  0  0
   17.3049  -11.5559  -18.2927 O   0  0  0  0  0  0  0  0  0  0  0  0
   21.1633   -7.0538  -11.7564 C   0  0  0  0  0  0  0  0  0  0  0  0
   21.5033   -6.6689  -13.1654 C   0  0  1  0  0  0  0  0  0  0  0  0
   22.1443   -7.7126  -13.8338 O   0  0  0  0  0  0  0  0  0  0  0  0
   20.2785   -6.2234  -13.9554 C   0  0  2  0  0  0  0  0  0  0  0  0
   19.5018   -7.4206  -14.2132 N   0  0  0  0  0  0  0  0  0  0  0  0
   20.6901   -5.5985  -15.2165 C   0  0  0  0  0  0  0  0  0  0  0  0
   20.4569   -6.1742  -16.3097 O   0  0  0  0  0  0  0  0  0  0  0  0
   21.3345   -4.3837  -15.2619 O   0  0  0  0  0  0  0  0  0  0  0  0
  1  2  1  0
  2  3  2  0
  4  2  1  0
  4  5  1  0
  5  6  1  6
  7  9  1  0
  7  5  1  0
  8  7  2  0
 10  9  1  0
 10 11  1  6
 11 12  1  0
 12 13  1  0
 13 17  1  0
 14 13  2  0
 15 10  1  0
 16 15  2  0
 19 18  1  1
 19 21  1  0
 20 19  1  0
 21 23  1  0
 21 22  1  6
 22 15  1  0
 23 25  1  0
 24 23  2  0
M  END
$$$$
