NET.pdb
     RDKit          3D

 25 24  0  0  1  0  0  0  0  0999 V2000
   14.5418  -10.7186  -16.2624 N   0  0  0  0  0  0  0  0  0  0  0  0
   14.5724   -9.4661  -15.5894 C   0  0  0  0  0  0  0  0  0  0  0  0
   13.5391   -8.7443  -15.5571 O   0  0  0  0  0  0  0  0  0  0  0  0
   15.7994   -8.9800  -14.9169 C   0  0  0  0  0  0  0  0  0  0  0  0
   16.8861   -9.9839  -15.1195 C   0  0  2  0  0  0  0  0  0  0  0  0
   16.7302  -11.1186  -14.2444 N   0  0  0  0  0  0  0  0  0  0  0  0
   18.2384   -9.4119  -14.9031 C   0  0  0  0  0  0  0  0  0  0  0  0
   18.6950   -9.1922  -13.7321 O   0  0  0  0  0  0  0  0  0  0  0  0
   19.1177   -9.0692  -15.9733 N   0  0  0  0  0  0  0  0  0  0  0  0
   20.4889   -8.6605  -15.7370 C   0  0  1  0  0  0  0  0  0  0  0  0
   21.4282   -9.3379  -16.6957 C   0  0  0  0  0  0  0  0  0  0  0  0
   21.8013  -10.7229  -16.2913 C   0  0  0  0  0  0  0  0  0  0  0  0
   22.6067  -11.3319  -17.3803 C   0  0  0  0  0  0  0  0  0  0  0  0
   22.1190  -12.1773  -18.1739 O   0  0  0  0  0  0  0  0  0  0  0  0
   20.5823   -7.1787  -15.8192 C   0  0  0  0  0  0  0  0  0  0  0  0
   20.0268   -6.5248  -16.7394 O   0  0  0  0  0  0  0  0  0  0  0  0
   23.9365  -10.9903  -17.5662 O   0  0  0  0  0  0  0  0  0  0  0  0
   19.7693   -4.7027  -12.9913 C   0  0  0  0  0  0  0  0  0  0  0  0
   21.1945   -4.5362  -13.4271 C   0  0  1  0  0  0  0  0  0  0  0  0
   22.0670   -5.2080  -12.5701 O   0  0  0  0  0  0  0  0  0  0  0  0
   21.4191   -4.9994  -14.8615 C   0  0  2  0  0  0  0  0  0  0  0  0
   21.3142   -6.4457  -14.8442 N   0  0  0  0  0  0  0  0  0  0  0  0
   22.7487   -4.5879  -15.3234 C   0  0  0  0  0  0  0  0  0  0  0  0
   23.6449   -5.4498  -15.5099 O   0  0  0  0  0  0  0  0  0  0  0  0
   23.0700   -3.2726  -15.5684 O   0  0  0  0  0  0  0  0  0  0  0  0
  1  2  1  0
  2  3  2  0
  4  2  1  0
  4  5  1  0
  5  6  1  1
  7  9  1  0
  7  5  1  0
  8  7  2  0
 10  9  1  0
 10 11  1  6
 11 12  1  0
 12 13  1  0
 13 17  1  0
 14 13  2  0
 15 10  1  0
 16 15  2  0
 19 18  1  1
 19 21  1  0
 20 19  1  0
 21 23  1  0
 21 22  1  1
 22 15  1  0
 23 25  1  0
 24 23  2  0
M  END
$$$$
