NET.pdb
     RDKit          3D

 25 24  0  0  1  0  0  0  0  0999 V2000
   18.0982  -14.0636  -18.4202 N   0  0  0  0  0  0  0  0  0  0  0  0
   18.4279  -12.6877  -18.2767 C   0  0  0  0  0  0  0  0  0  0  0  0
   18.7652  -12.0133  -19.2874 O   0  0  0  0  0  0  0  0  0  0  0  0
   18.3857  -12.0163  -16.9571 C   0  0  0  0  0  0  0  0  0  0  0  0
   19.6037  -11.1642  -16.8144 C   0  0  2  0  0  0  0  0  0  0  0  0
   20.7325  -11.9265  -16.3431 N   0  0  0  0  0  0  0  0  0  0  0  0
   19.3952  -10.0218  -15.8900 C   0  0  0  0  0  0  0  0  0  0  0  0
   18.8222  -10.1689  -14.7595 O   0  0  0  0  0  0  0  0  0  0  0  0
   19.8140   -8.6915  -16.1916 N   0  0  0  0  0  0  0  0  0  0  0  0
   19.6271   -7.5992  -15.2562 C   0  0  1  0  0  0  0  0  0  0  0  0
   20.9383   -6.9457  -14.9186 C   0  0  0  0  0  0  0  0  0  0  0  0
   20.8016   -5.7379  -14.0564 C   0  0  0  0  0  0  0  0  0  0  0  0
   22.1571   -5.1954  -13.7852 C   0  0  0  0  0  0  0  0  0  0  0  0
   22.3271   -4.0778  -13.2336 O   0  0  0  0  0  0  0  0  0  0  0  0
   18.6506   -6.6297  -15.8200 C   0  0  0  0  0  0  0  0  0  0  0  0
   18.8265   -6.0781  -16.9370 O   0  0  0  0  0  0  0  0  0  0  0  0
   23.2961   -5.9043  -14.1317 O   0  0  0  0  0  0  0  0  0  0  0  0
   14.7403   -7.0476  -16.0546 C   0  0  0  0  0  0  0  0  0  0  0  0
   15.1302   -5.8684  -15.2140 C   0  0  1  0  0  0  0  0  0  0  0  0
   15.0942   -6.1824  -13.8550 O   0  0  0  0  0  0  0  0  0  0  0  0
   16.5048   -5.3235  -15.5831 C   0  0  2  0  0  0  0  0  0  0  0  0
   17.4703   -6.2923  -15.1012 N   0  0  0  0  0  0  0  0  0  0  0  0
   16.7216   -4.0224  -14.9426 C   0  0  0  0  0  0  0  0  0  0  0  0
   17.5166   -3.9224  -13.9737 O   0  0  0  0  0  0  0  0  0  0  0  0
   16.0815   -2.8785  -15.3611 O   0  0  0  0  0  0  0  0  0  0  0  0
  1  2  1  0
  2  3  2  0
  4  2  1  0
  4  5  1  0
  5  6  1  1
  7  9  1  0
  7  5  1  0
  8  7  2  0
 10  9  1  0
 10 11  1  6
 11 12  1  0
 12 13  1  0
 13 17  1  0
 14 13  2  0
 15 10  1  0
 16 15  2  0
 19 18  1  6
 19 21  1  0
 20 19  1  0
 21 23  1  0
 21 22  1  1
 22 15  1  0
 23 25  1  0
 24 23  2  0
M  END
$$$$
