NET.pdb
     RDKit          3D

 25 24  0  0  1  0  0  0  0  0999 V2000
   21.0094  -15.3694  -17.5900 N   0  0  0  0  0  0  0  0  0  0  0  0
   20.2388  -14.5102  -16.7591 C   0  0  0  0  0  0  0  0  0  0  0  0
   19.3814  -14.9980  -15.9738 O   0  0  0  0  0  0  0  0  0  0  0  0
   20.4176  -13.0401  -16.7907 C   0  0  0  0  0  0  0  0  0  0  0  0
   19.0769  -12.3924  -16.6782 C   0  0  2  0  0  0  0  0  0  0  0  0
   18.2191  -12.7531  -17.7790 N   0  0  0  0  0  0  0  0  0  0  0  0
   19.1619  -10.9118  -16.6205 C   0  0  0  0  0  0  0  0  0  0  0  0
   19.7754  -10.2392  -17.5145 O   0  0  0  0  0  0  0  0  0  0  0  0
   18.5724  -10.1395  -15.5755 N   0  0  0  0  0  0  0  0  0  0  0  0
   18.6076   -8.6898  -15.5813 C   0  0  1  0  0  0  0  0  0  0  0  0
   17.3054   -8.1151  -15.0973 C   0  0  0  0  0  0  0  0  0  0  0  0
   16.1620   -8.3601  -16.0212 C   0  0  0  0  0  0  0  0  0  0  0  0
   14.9228   -7.8440  -15.3860 C   0  0  0  0  0  0  0  0  0  0  0  0
   14.0200   -7.2778  -16.0543 O   0  0  0  0  0  0  0  0  0  0  0  0
   19.7599   -8.2218  -14.7662 C   0  0  0  0  0  0  0  0  0  0  0  0
   20.0162   -8.7049  -13.6332 O   0  0  0  0  0  0  0  0  0  0  0  0
   14.7109   -7.9670  -14.0223 O   0  0  0  0  0  0  0  0  0  0  0  0
   23.3475   -8.2694  -15.8702 C   0  0  0  0  0  0  0  0  0  0  0  0
   22.9556   -6.8552  -15.5613 C   0  0  1  0  0  0  0  0  0  0  0  0
   22.6072   -6.1623  -16.7212 O   0  0  0  0  0  0  0  0  0  0  0  0
   21.8177   -6.7775  -14.5505 C   0  0  2  0  0  0  0  0  0  0  0  0
   20.6200   -7.1979  -15.2517 N   0  0  0  0  0  0  0  0  0  0  0  0
   21.6688   -5.4031  -14.0614 C   0  0  0  0  0  0  0  0  0  0  0  0
   20.6850   -4.7091  -14.4237 O   0  0  0  0  0  0  0  0  0  0  0  0
   22.5758   -4.8228  -13.2047 O   0  0  0  0  0  0  0  0  0  0  0  0
  1  2  1  0
  2  3  2  0
  4  2  1  0
  4  5  1  0
  5  6  1  6
  7  9  1  0
  7  5  1  0
  8  7  2  0
 10  9  1  0
 10 11  1  1
 11 12  1  0
 12 13  1  0
 13 17  1  0
 14 13  2  0
 15 10  1  0
 16 15  2  0
 19 18  1  6
 19 21  1  0
 20 19  1  0
 21 23  1  0
 21 22  1  6
 22 15  1  0
 23 25  1  0
 24 23  2  0
M  END
$$$$
