NET.pdb
     RDKit          3D

 25 24  0  0  1  0  0  0  0  0999 V2000
   15.8004  -11.5293  -15.5565 N   0  0  0  0  0  0  0  0  0  0  0  0
   16.9092  -12.1452  -14.9132 C   0  0  0  0  0  0  0  0  0  0  0  0
   16.7872  -13.2977  -14.4166 O   0  0  0  0  0  0  0  0  0  0  0  0
   18.2195  -11.4623  -14.8091 C   0  0  0  0  0  0  0  0  0  0  0  0
   18.0867  -10.0841  -15.3684 C   0  0  2  0  0  0  0  0  0  0  0  0
   17.8081  -10.1097  -16.7823 N   0  0  0  0  0  0  0  0  0  0  0  0
   19.3013   -9.2600  -15.1484 C   0  0  0  0  0  0  0  0  0  0  0  0
   19.8269   -9.1340  -13.9926 O   0  0  0  0  0  0  0  0  0  0  0  0
   19.9637   -8.5562  -16.1981 N   0  0  0  0  0  0  0  0  0  0  0  0
   21.1921   -7.8200  -15.9704 C   0  0  1  0  0  0  0  0  0  0  0  0
   22.1934   -8.0882  -17.0594 C   0  0  0  0  0  0  0  0  0  0  0  0
   22.8064   -9.4447  -16.9889 C   0  0  0  0  0  0  0  0  0  0  0  0
   23.6968   -9.6221  -18.1641 C   0  0  0  0  0  0  0  0  0  0  0  0
   24.7568   -8.9588  -18.3004 O   0  0  0  0  0  0  0  0  0  0  0  0
   20.8818   -6.3712  -15.8438 C   0  0  0  0  0  0  0  0  0  0  0  0
   20.4770   -5.6874  -16.8192 O   0  0  0  0  0  0  0  0  0  0  0  0
   23.3925  -10.5318  -19.1639 O   0  0  0  0  0  0  0  0  0  0  0  0
   18.2882   -4.8041  -14.0925 C   0  0  0  0  0  0  0  0  0  0  0  0
   19.5317   -4.2455  -13.4674 C   0  0  1  0  0  0  0  0  0  0  0  0
   19.8370   -4.9025  -12.2749 O   0  0  0  0  0  0  0  0  0  0  0  0
   20.7283   -4.3007  -14.4097 C   0  0  2  0  0  0  0  0  0  0  0  0
   21.0361   -5.7056  -14.5960 N   0  0  0  0  0  0  0  0  0  0  0  0
   21.8718   -3.6002  -13.8164 C   0  0  0  0  0  0  0  0  0  0  0  0
   22.8682   -4.2517  -13.4119 O   0  0  0  0  0  0  0  0  0  0  0  0
   21.9074   -2.2318  -13.6780 O   0  0  0  0  0  0  0  0  0  0  0  0
  1  2  1  0
  2  3  2  0
  4  2  1  0
  4  5  1  0
  5  6  1  6
  7  9  1  0
  7  5  1  0
  8  7  2  0
 10  9  1  0
 10 11  1  6
 11 12  1  0
 12 13  1  0
 13 17  1  0
 14 13  2  0
 15 10  1  0
 16 15  2  0
 19 18  1  6
 19 21  1  0
 20 19  1  0
 21 23  1  0
 21 22  1  1
 22 15  1  0
 23 25  1  0
 24 23  2  0
M  END
$$$$
