NET.pdb
     RDKit          3D

 25 24  0  0  1  0  0  0  0  0999 V2000
   17.6618  -14.2733  -16.3716 N   0  0  0  0  0  0  0  0  0  0  0  0
   17.4891  -13.0295  -15.7041 C   0  0  0  0  0  0  0  0  0  0  0  0
   16.3465  -12.4992  -15.6486 O   0  0  0  0  0  0  0  0  0  0  0  0
   18.6278  -12.3311  -15.0642 C   0  0  0  0  0  0  0  0  0  0  0  0
   19.0953  -11.2439  -15.9748 C   0  0  2  0  0  0  0  0  0  0  0  0
   19.6498  -11.7749  -17.1946 N   0  0  0  0  0  0  0  0  0  0  0  0
   20.1142  -10.3693  -15.3426 C   0  0  0  0  0  0  0  0  0  0  0  0
   19.9511   -9.8851  -14.1734 O   0  0  0  0  0  0  0  0  0  0  0  0
   21.3361  -10.0091  -15.9854 N   0  0  0  0  0  0  0  0  0  0  0  0
   22.3226   -9.1662  -15.3379 C   0  0  1  0  0  0  0  0  0  0  0  0
   23.7134   -9.5176  -15.7881 C   0  0  0  0  0  0  0  0  0  0  0  0
   24.1618  -10.8694  -15.3492 C   0  0  0  0  0  0  0  0  0  0  0  0
   25.5343  -11.1025  -15.8664 C   0  0  0  0  0  0  0  0  0  0  0  0
   26.1023  -10.2846  -16.6349 O   0  0  0  0  0  0  0  0  0  0  0  0
   21.9973   -7.7386  -15.5975 C   0  0  0  0  0  0  0  0  0  0  0  0
   22.0345   -7.2450  -16.7541 O   0  0  0  0  0  0  0  0  0  0  0  0
   26.2480  -12.2385  -15.5202 O   0  0  0  0  0  0  0  0  0  0  0  0
   19.0431   -5.9881  -15.5671 C   0  0  0  0  0  0  0  0  0  0  0  0
   19.8473   -5.2962  -14.5072 C   0  0  1  0  0  0  0  0  0  0  0  0
   19.4930   -5.7408  -13.2329 O   0  0  0  0  0  0  0  0  0  0  0  0
   21.3475   -5.4654  -14.7159 C   0  0  2  0  0  0  0  0  0  0  0  0
   21.6287   -6.8757  -14.5283 N   0  0  0  0  0  0  0  0  0  0  0  0
   22.0878   -4.6612  -13.7384 C   0  0  0  0  0  0  0  0  0  0  0  0
   22.6835   -5.2221  -12.7837 O   0  0  0  0  0  0  0  0  0  0  0  0
   22.1637   -3.2897  -13.8179 O   0  0  0  0  0  0  0  0  0  0  0  0
  1  2  1  0
  2  3  2  0
  4  2  1  0
  4  5  1  0
  5  6  1  6
  7  9  1  0
  7  5  1  0
  8  7  2  0
 10  9  1  0
 10 11  1  6
 11 12  1  0
 12 13  1  0
 13 17  1  0
 14 13  2  0
 15 10  1  0
 16 15  2  0
 19 18  1  6
 19 21  1  0
 20 19  1  0
 21 23  1  0
 21 22  1  1
 22 15  1  0
 23 25  1  0
 24 23  2  0
M  END
$$$$
