NET.pdb
     RDKit          3D

 25 24  0  0  1  0  0  0  0  0999 V2000
   13.8168  -12.3497  -15.5966 N   0  0  0  0  0  0  0  0  0  0  0  0
   15.0756  -12.6995  -15.0349 C   0  0  0  0  0  0  0  0  0  0  0  0
   15.7171  -13.6834  -15.4936 O   0  0  0  0  0  0  0  0  0  0  0  0
   15.6615  -11.9309  -13.9124 C   0  0  0  0  0  0  0  0  0  0  0  0
   16.6205  -10.9296  -14.4670 C   0  0  2  0  0  0  0  0  0  0  0  0
   17.7601  -11.5674  -15.0770 N   0  0  0  0  0  0  0  0  0  0  0  0
   17.1139   -9.9815  -13.4372 C   0  0  0  0  0  0  0  0  0  0  0  0
   16.8336  -10.1273  -12.2010 O   0  0  0  0  0  0  0  0  0  0  0  0
   17.9275   -8.8511  -13.7475 N   0  0  0  0  0  0  0  0  0  0  0  0
   18.4476   -7.9754  -12.7153 C   0  0  1  0  0  0  0  0  0  0  0  0
   19.6496   -7.2165  -13.2048 C   0  0  0  0  0  0  0  0  0  0  0  0
   20.2735   -6.3479  -12.1669 C   0  0  0  0  0  0  0  0  0  0  0  0
   21.4583   -5.6784  -12.7615 C   0  0  0  0  0  0  0  0  0  0  0  0
   22.3062   -5.0768  -12.0534 O   0  0  0  0  0  0  0  0  0  0  0  0
   17.3667   -7.0663  -12.2499 C   0  0  0  0  0  0  0  0  0  0  0  0
   16.5939   -6.4821  -13.0526 O   0  0  0  0  0  0  0  0  0  0  0  0
   21.6776   -5.6901  -14.1295 O   0  0  0  0  0  0  0  0  0  0  0  0
   15.1390   -7.8716   -8.9923 C   0  0  0  0  0  0  0  0  0  0  0  0
   15.7793   -6.5161   -8.9553 C   0  0  1  0  0  0  0  0  0  0  0  0
   16.9335   -6.5234   -8.1711 O   0  0  0  0  0  0  0  0  0  0  0  0
   16.1037   -5.9908  -10.3486 C   0  0  2  0  0  0  0  0  0  0  0  0
   17.1719   -6.8269  -10.8612 N   0  0  0  0  0  0  0  0  0  0  0  0
   16.5392   -4.5926  -10.2732 C   0  0  0  0  0  0  0  0  0  0  0  0
   15.7164   -3.6927   -9.9666 O   0  0  0  0  0  0  0  0  0  0  0  0
   17.8359   -4.2092  -10.5279 O   0  0  0  0  0  0  0  0  0  0  0  0
  1  2  1  0
  2  3  2  0
  4  2  1  0
  4  5  1  0
  5  6  1  1
  7  9  1  0
  7  5  1  0
  8  7  2  0
 10  9  1  0
 10 11  1  6
 11 12  1  0
 12 13  1  0
 13 17  1  0
 14 13  2  0
 15 10  1  0
 16 15  2  0
 19 18  1  6
 19 21  1  0
 20 19  1  0
 21 23  1  0
 21 22  1  1
 22 15  1  0
 23 25  1  0
 24 23  2  0
M  END
$$$$
