NET.pdb
     RDKit          3D

 25 24  0  0  1  0  0  0  0  0999 V2000
   17.5645  -14.2237  -15.2894 N   0  0  0  0  0  0  0  0  0  0  0  0
   17.6949  -12.8403  -15.5923 C   0  0  0  0  0  0  0  0  0  0  0  0
   16.7417  -12.2245  -16.1418 O   0  0  0  0  0  0  0  0  0  0  0  0
   18.9345  -12.0935  -15.2764 C   0  0  0  0  0  0  0  0  0  0  0  0
   18.8554  -10.7443  -15.9114 C   0  0  2  0  0  0  0  0  0  0  0  0
   18.8809  -10.8324  -17.3499 N   0  0  0  0  0  0  0  0  0  0  0  0
   19.9556   -9.8461  -15.4808 C   0  0  0  0  0  0  0  0  0  0  0  0
   20.1242   -9.5305  -14.2560 O   0  0  0  0  0  0  0  0  0  0  0  0
   20.8947   -9.2756  -16.3910 N   0  0  0  0  0  0  0  0  0  0  0  0
   21.9959   -8.4484  -15.9371 C   0  0  1  0  0  0  0  0  0  0  0  0
   23.2740   -8.8169  -16.6379 C   0  0  0  0  0  0  0  0  0  0  0  0
   24.4444   -7.9935  -16.2220 C   0  0  0  0  0  0  0  0  0  0  0  0
   25.6471   -8.4853  -16.9412 C   0  0  0  0  0  0  0  0  0  0  0  0
   26.1209   -7.8779  -17.9356 O   0  0  0  0  0  0  0  0  0  0  0  0
   21.6480   -7.0157  -16.1304 C   0  0  0  0  0  0  0  0  0  0  0  0
   21.5608   -6.4982  -17.2738 O   0  0  0  0  0  0  0  0  0  0  0  0
   26.2991   -9.6408  -16.5420 O   0  0  0  0  0  0  0  0  0  0  0  0
   18.6953   -5.1613  -15.4187 C   0  0  0  0  0  0  0  0  0  0  0  0
   19.7556   -4.5061  -14.5848 C   0  0  1  0  0  0  0  0  0  0  0  0
   19.6864   -4.9275  -13.2565 O   0  0  0  0  0  0  0  0  0  0  0  0
   21.1565   -4.7506  -15.1329 C   0  0  2  0  0  0  0  0  0  0  0  0
   21.3996   -6.1749  -15.0100 N   0  0  0  0  0  0  0  0  0  0  0  0
   22.1429   -3.9937  -14.3554 C   0  0  0  0  0  0  0  0  0  0  0  0
   22.2003   -2.7420  -14.4596 O   0  0  0  0  0  0  0  0  0  0  0  0
   23.0296   -4.6021  -13.4971 O   0  0  0  0  0  0  0  0  0  0  0  0
  1  2  1  0
  2  3  2  0
  4  2  1  0
  4  5  1  0
  5  6  1  6
  7  9  1  0
  7  5  1  0
  8  7  2  0
 10  9  1  0
 10 11  1  6
 11 12  1  0
 12 13  1  0
 13 17  1  0
 14 13  2  0
 15 10  1  0
 16 15  2  0
 19 18  1  6
 19 21  1  0
 20 19  1  0
 21 23  1  0
 21 22  1  1
 22 15  1  0
 23 25  1  0
 24 23  2  0
M  END
$$$$
