NET.pdb
     RDKit          3D

 25 24  0  0  1  0  0  0  0  0999 V2000
   13.2056   -8.4640  -17.7067 N   0  0  0  0  0  0  0  0  0  0  0  0
   14.6059   -8.6281  -17.8933 C   0  0  0  0  0  0  0  0  0  0  0  0
   15.0546   -8.9640  -19.0228 O   0  0  0  0  0  0  0  0  0  0  0  0
   15.5638   -8.4127  -16.7842 C   0  0  0  0  0  0  0  0  0  0  0  0
   16.7710   -9.2584  -17.0234 C   0  0  2  0  0  0  0  0  0  0  0  0
   16.4916  -10.6557  -16.8066 N   0  0  0  0  0  0  0  0  0  0  0  0
   17.9165   -8.8738  -16.1615 C   0  0  0  0  0  0  0  0  0  0  0  0
   17.8030   -8.7859  -14.8937 O   0  0  0  0  0  0  0  0  0  0  0  0
   19.2130   -8.5776  -16.6784 N   0  0  0  0  0  0  0  0  0  0  0  0
   20.3394   -8.3000  -15.8082 C   0  0  1  0  0  0  0  0  0  0  0  0
   21.4686   -9.2595  -16.0623 C   0  0  0  0  0  0  0  0  0  0  0  0
   22.6879   -8.9778  -15.2531 C   0  0  0  0  0  0  0  0  0  0  0  0
   23.7267   -9.9810  -15.5995 C   0  0  0  0  0  0  0  0  0  0  0  0
   24.1233  -10.1452  -16.7819 O   0  0  0  0  0  0  0  0  0  0  0  0
   20.7608   -6.8848  -15.9843 C   0  0  0  0  0  0  0  0  0  0  0  0
   21.1620   -6.4405  -17.0908 O   0  0  0  0  0  0  0  0  0  0  0  0
   24.3039  -10.7812  -14.6267 O   0  0  0  0  0  0  0  0  0  0  0  0
   18.9958   -3.7603  -15.7806 C   0  0  0  0  0  0  0  0  0  0  0  0
   20.0243   -3.7100  -14.6904 C   0  0  1  0  0  0  0  0  0  0  0  0
   19.4664   -4.0360  -13.4537 O   0  0  0  0  0  0  0  0  0  0  0  0
   21.2154   -4.6169  -14.9760 C   0  0  2  0  0  0  0  0  0  0  0  0
   20.7219   -5.9777  -14.8891 N   0  0  0  0  0  0  0  0  0  0  0  0
   22.2720   -4.3911  -13.9845 C   0  0  0  0  0  0  0  0  0  0  0  0
   22.5072   -5.2596  -13.1064 O   0  0  0  0  0  0  0  0  0  0  0  0
   23.0364   -3.2471  -13.9689 O   0  0  0  0  0  0  0  0  0  0  0  0
  1  2  1  0
  2  3  2  0
  4  2  1  0
  4  5  1  0
  5  6  1  1
  7  9  1  0
  7  5  1  0
  8  7  2  0
 10  9  1  0
 10 11  1  6
 11 12  1  0
 12 13  1  0
 13 17  1  0
 14 13  2  0
 15 10  1  0
 16 15  2  0
 19 18  1  6
 19 21  1  0
 20 19  1  0
 21 23  1  0
 21 22  1  1
 22 15  1  0
 23 25  1  0
 24 23  2  0
M  END
$$$$
