NET.pdb
     RDKit          3D

 25 24  0  0  1  0  0  0  0  0999 V2000
   14.8518  -13.3559  -16.9531 N   0  0  0  0  0  0  0  0  0  0  0  0
   14.4147  -12.6927  -15.7734 C   0  0  0  0  0  0  0  0  0  0  0  0
   13.2080  -12.7738  -15.4170 O   0  0  0  0  0  0  0  0  0  0  0  0
   15.3490  -11.8996  -14.9416 C   0  0  0  0  0  0  0  0  0  0  0  0
   16.7084  -11.9621  -15.5563 C   0  0  2  0  0  0  0  0  0  0  0  0
   17.3703  -13.2067  -15.2552 N   0  0  0  0  0  0  0  0  0  0  0  0
   17.5859  -10.8497  -15.1143 C   0  0  0  0  0  0  0  0  0  0  0  0
   17.7265  -10.5550  -13.8809 O   0  0  0  0  0  0  0  0  0  0  0  0
   18.3282  -10.0373  -16.0226 N   0  0  0  0  0  0  0  0  0  0  0  0
   19.1656   -8.9455  -15.5647 C   0  0  1  0  0  0  0  0  0  0  0  0
   20.6054   -9.1782  -15.9300 C   0  0  0  0  0  0  0  0  0  0  0  0
   21.5230   -8.0990  -15.4672 C   0  0  0  0  0  0  0  0  0  0  0  0
   22.9124   -8.4688  -15.8392 C   0  0  0  0  0  0  0  0  0  0  0  0
   23.4962   -9.4579  -15.3263 O   0  0  0  0  0  0  0  0  0  0  0  0
   18.6509   -7.6647  -16.1176 C   0  0  0  0  0  0  0  0  0  0  0  0
   18.5276   -7.4732  -17.3549 O   0  0  0  0  0  0  0  0  0  0  0  0
   23.6251   -7.7335  -16.7724 O   0  0  0  0  0  0  0  0  0  0  0  0
   15.3590   -5.9227  -15.4443 C   0  0  0  0  0  0  0  0  0  0  0  0
   16.4881   -5.0543  -14.9753 C   0  0  1  0  0  0  0  0  0  0  0  0
   16.7025   -5.2005  -13.6043 O   0  0  0  0  0  0  0  0  0  0  0  0
   17.7817   -5.3272  -15.7334 C   0  0  2  0  0  0  0  0  0  0  0  0
   18.2769   -6.6014  -15.2496 N   0  0  0  0  0  0  0  0  0  0  0  0
   18.7570   -4.2647  -15.4680 C   0  0  0  0  0  0  0  0  0  0  0  0
   19.7840   -4.5092  -14.7852 O   0  0  0  0  0  0  0  0  0  0  0  0
   18.5982   -2.9827  -15.9417 O   0  0  0  0  0  0  0  0  0  0  0  0
  1  2  1  0
  2  3  2  0
  4  2  1  0
  4  5  1  0
  5  6  1  1
  7  9  1  0
  7  5  1  0
  8  7  2  0
 10  9  1  0
 10 11  1  6
 11 12  1  0
 12 13  1  0
 13 17  1  0
 14 13  2  0
 15 10  1  0
 16 15  2  0
 19 18  1  6
 19 21  1  0
 20 19  1  0
 21 23  1  0
 21 22  1  1
 22 15  1  0
 23 25  1  0
 24 23  2  0
M  END
$$$$
