NET.pdb
     RDKit          3D

 25 24  0  0  1  0  0  0  0  0999 V2000
   28.3018  -20.1988  -16.8160 N   0  0  0  0  0  0  0  0  0  0  0  0
   27.2851  -19.7821  -15.9131 C   0  0  0  0  0  0  0  0  0  0  0  0
   27.5997  -19.2439  -14.8171 O   0  0  0  0  0  0  0  0  0  0  0  0
   25.8493  -19.9649  -16.2281 C   0  0  0  0  0  0  0  0  0  0  0  0
   25.2608  -20.9198  -15.2424 C   0  0  2  0  0  0  0  0  0  0  0  0
   25.8550  -22.2284  -15.3514 N   0  0  0  0  0  0  0  0  0  0  0  0
   23.7913  -21.0620  -15.3937 C   0  0  0  0  0  0  0  0  0  0  0  0
   23.2781  -21.9108  -16.1964 O   0  0  0  0  0  0  0  0  0  0  0  0
   22.8545  -20.2715  -14.6633 N   0  0  0  0  0  0  0  0  0  0  0  0
   21.4240  -20.3980  -14.8649 C   0  0  1  0  0  0  0  0  0  0  0  0
   20.7404  -20.8672  -13.6108 C   0  0  0  0  0  0  0  0  0  0  0  0
   20.5684  -22.3458  -13.5393 C   0  0  0  0  0  0  0  0  0  0  0  0
   19.8091  -22.6737  -12.3058 C   0  0  0  0  0  0  0  0  0  0  0  0
   19.4324  -21.7831  -11.5013 O   0  0  0  0  0  0  0  0  0  0  0  0
   20.8777  -19.1009  -15.3450 C   0  0  0  0  0  0  0  0  0  0  0  0
   20.9381  -18.0532  -14.6512 O   0  0  0  0  0  0  0  0  0  0  0  0
   19.4835  -23.9830  -11.9906 O   0  0  0  0  0  0  0  0  0  0  0  0
   18.6836  -19.1107  -19.0222 C   0  0  0  0  0  0  0  0  0  0  0  0
   19.5205  -17.9342  -18.6165 C   0  0  1  0  0  0  0  0  0  0  0  0
   19.0307  -16.7506  -19.1698 O   0  0  0  0  0  0  0  0  0  0  0  0
   19.6259  -17.7932  -17.1027 C   0  0  2  0  0  0  0  0  0  0  0  0
   20.2610  -19.0055  -16.6234 N   0  0  0  0  0  0  0  0  0  0  0  0
   18.2906  -17.6476  -16.5144 C   0  0  0  0  0  0  0  0  0  0  0  0
   17.7873  -18.5918  -15.8542 O   0  0  0  0  0  0  0  0  0  0  0  0
   17.5445  -16.4999  -16.6534 O   0  0  0  0  0  0  0  0  0  0  0  0
  1  2  1  0
  2  3  2  0
  4  2  1  0
  4  5  1  0
  5  6  1  6
  7  9  1  0
  7  5  1  0
  8  7  2  0
 10  9  1  0
 10 11  1  1
 11 12  1  0
 12 13  1  0
 13 17  1  0
 14 13  2  0
 15 10  1  0
 16 15  2  0
 19 18  1  1
 19 21  1  0
 20 19  1  0
 21 23  1  0
 21 22  1  1
 22 15  1  0
 23 25  1  0
 24 23  2  0
M  END
$$$$
