NET.pdb
     RDKit          3D

 25 24  0  0  1  0  0  0  0  0999 V2000
   19.3381  -14.3544  -16.2401 N   0  0  0  0  0  0  0  0  0  0  0  0
   18.8665  -13.7648  -17.4453 C   0  0  0  0  0  0  0  0  0  0  0  0
   18.6713  -14.4838  -18.4625 O   0  0  0  0  0  0  0  0  0  0  0  0
   18.5949  -12.3118  -17.5402 C   0  0  0  0  0  0  0  0  0  0  0  0
   18.8569  -11.6880  -16.2090 C   0  0  2  0  0  0  0  0  0  0  0  0
   17.7769  -11.9329  -15.2864 N   0  0  0  0  0  0  0  0  0  0  0  0
   19.0691  -10.2218  -16.2982 C   0  0  0  0  0  0  0  0  0  0  0  0
   19.9690   -9.7181  -17.0496 O   0  0  0  0  0  0  0  0  0  0  0  0
   18.2937   -9.2779  -15.5608 N   0  0  0  0  0  0  0  0  0  0  0  0
   18.5286   -7.8502  -15.6594 C   0  0  1  0  0  0  0  0  0  0  0  0
   17.3180   -7.0716  -15.2248 C   0  0  0  0  0  0  0  0  0  0  0  0
   17.5056   -5.5941  -15.2763 C   0  0  0  0  0  0  0  0  0  0  0  0
   16.2262   -4.9423  -14.8970 C   0  0  0  0  0  0  0  0  0  0  0  0
   15.1997   -5.6106  -14.6110 O   0  0  0  0  0  0  0  0  0  0  0  0
   19.7345   -7.4935  -14.8658 C   0  0  0  0  0  0  0  0  0  0  0  0
   19.9618   -7.9950  -13.7347 O   0  0  0  0  0  0  0  0  0  0  0  0
   16.1125   -3.5625  -14.8431 O   0  0  0  0  0  0  0  0  0  0  0  0
   23.4207   -7.6037  -15.9961 C   0  0  0  0  0  0  0  0  0  0  0  0
   23.0205   -6.2038  -15.6366 C   0  0  1  0  0  0  0  0  0  0  0  0
   22.6842   -5.4667  -16.7726 O   0  0  0  0  0  0  0  0  0  0  0  0
   21.8701   -6.1690  -14.6377 C   0  0  2  0  0  0  0  0  0  0  0  0
   20.6815   -6.5596  -15.3709 N   0  0  0  0  0  0  0  0  0  0  0  0
   21.7143   -4.8166  -14.0928 C   0  0  0  0  0  0  0  0  0  0  0  0
   20.7059   -4.1287  -14.3943 O   0  0  0  0  0  0  0  0  0  0  0  0
   22.6407   -4.2508  -13.2473 O   0  0  0  0  0  0  0  0  0  0  0  0
  1  2  1  0
  2  3  2  0
  4  2  1  0
  4  5  1  0
  5  6  1  1
  7  9  1  0
  7  5  1  0
  8  7  2  0
 10  9  1  0
 10 11  1  1
 11 12  1  0
 12 13  1  0
 13 17  1  0
 14 13  2  0
 15 10  1  0
 16 15  2  0
 19 18  1  6
 19 21  1  0
 20 19  1  0
 21 23  1  0
 21 22  1  6
 22 15  1  0
 23 25  1  0
 24 23  2  0
M  END
$$$$
