SHP.pdb
     RDKit          3D

 24 25  0  0  1  0  0  0  0  0999 V2000
    9.2232  -12.5675   19.8460 O   0  0  0  0  0  0  0  0  0  0  0  0
    8.9881  -13.8953   19.4720 C   0  0  0  0  0  0  0  0  0  0  0  0
    7.6092  -14.2619   19.8833 C   0  0  2  0  0  0  0  0  0  0  0  0
    6.6976  -13.2440   19.4107 N   0  0  0  0  0  0  0  0  0  0  0  0
    7.3904  -14.5014   21.2925 C   0  0  0  0  0  0  0  0  0  0  0  0
    6.7184  -13.6382   21.9527 O   0  0  0  0  0  0  0  0  0  0  0  0
    7.8363  -15.5944   22.0462 N   0  0  0  0  0  0  0  0  0  0  0  0
    7.5001  -15.8728   23.4305 C   0  0  1  0  0  0  0  0  0  0  0  0
    7.5504  -17.3610   23.6980 C   0  0  0  0  0  0  0  0  0  0  0  0
    7.3338  -17.6621   25.1358 C   0  0  0  0  0  0  0  0  0  0  0  0
    8.2906  -18.1343   25.9991 C   0  0  0  0  0  0  0  0  0  0  0  0
    7.7026  -18.2769   27.2060 N   0  0  0  0  0  0  0  0  0  0  0  0
    6.4099  -17.9090   27.1229 C   0  0  0  0  0  0  0  0  0  0  0  0
    6.2099  -17.5341   25.8331 N   0  0  0  0  0  0  0  0  0  0  0  0
    8.4569  -15.2025   24.3165 C   0  0  0  0  0  0  0  0  0  0  0  0
    9.6807  -15.0657   23.9472 O   0  0  0  0  0  0  0  0  0  0  0  0
    8.1157  -14.6844   25.5742 N   0  0  0  0  0  0  0  0  0  0  0  0
    6.7895  -14.8623   26.2051 C   0  0  0  0  0  0  0  0  0  0  0  0
    6.5716  -13.6395   27.0326 C   0  0  0  0  0  0  0  0  0  0  0  0
    7.8535  -12.8294   26.8789 C   0  0  0  0  0  0  0  0  0  0  0  0
    8.8623  -13.9446   26.5758 C   0  0  1  0  0  0  0  0  0  0  0  0
    9.1327  -14.7483   27.7825 C   0  0  0  0  0  0  0  0  0  0  0  0
    8.5917  -15.8541   27.9416 O   0  0  0  0  0  0  0  0  0  0  0  0
    9.9952  -14.2640   28.7407 O   0  0  0  0  0  0  0  0  0  0  0  0
  2  1  1  0
  3  5  1  0
  3  2  1  0
  3  4  1  1
  5  6  2  0
  7  5  1  0
  8  7  1  0
  9 10  1  0
  8  9  1  6
 10 14  1  0
 11 12  1  0
 11 10  2  0
 12 13  1  0
 13 14  2  0
 15  8  1  0
 15 17  1  0
 16 15  2  0
 17 18  1  0
 19 18  1  0
 20 19  1  0
 20 21  1  0
 21 17  1  0
 21 22  1  1
 22 24  1  0
 23 22  2  0
M  END
$$$$
