SHP.pdb
     RDKit          3D

 24 25  0  0  1  0  0  0  0  0999 V2000
   11.9656  -13.4315   20.4271 O   0  0  0  0  0  0  0  0  0  0  0  0
   11.3767  -14.6219   19.9862 C   0  0  0  0  0  0  0  0  0  0  0  0
    9.9254  -14.3812   19.7843 C   0  0  2  0  0  0  0  0  0  0  0  0
    9.7609  -13.2344   18.9193 N   0  0  0  0  0  0  0  0  0  0  0  0
    9.1192  -14.2191   20.9738 C   0  0  0  0  0  0  0  0  0  0  0  0
    8.8174  -13.0325   21.3395 O   0  0  0  0  0  0  0  0  0  0  0  0
    8.6124  -15.2306   21.7992 N   0  0  0  0  0  0  0  0  0  0  0  0
    7.7559  -15.0419   22.9557 C   0  0  1  0  0  0  0  0  0  0  0  0
    6.9854  -16.3089   23.2556 C   0  0  0  0  0  0  0  0  0  0  0  0
    6.1849  -16.7479   22.0846 C   0  0  0  0  0  0  0  0  0  0  0  0
    5.3162  -15.9551   21.3768 C   0  0  0  0  0  0  0  0  0  0  0  0
    4.7905  -16.7182   20.3950 N   0  0  0  0  0  0  0  0  0  0  0  0
    5.3032  -17.9614   20.4680 C   0  0  0  0  0  0  0  0  0  0  0  0
    6.1612  -17.9508   21.5206 N   0  0  0  0  0  0  0  0  0  0  0  0
    8.5716  -14.6990   24.1249 C   0  0  0  0  0  0  0  0  0  0  0  0
    9.8506  -14.8158   24.0670 O   0  0  0  0  0  0  0  0  0  0  0  0
    8.0344  -14.2370   25.3351 N   0  0  0  0  0  0  0  0  0  0  0  0
    6.5853  -14.1982   25.6304 C   0  0  0  0  0  0  0  0  0  0  0  0
    6.3935  -13.0357   26.5464 C   0  0  0  0  0  0  0  0  0  0  0  0
    7.7968  -12.4916   26.7874 C   0  0  0  0  0  0  0  0  0  0  0  0
    8.6361  -13.7565   26.5659 C   0  0  1  0  0  0  0  0  0  0  0  0
    8.4620  -14.7029   27.6835 C   0  0  0  0  0  0  0  0  0  0  0  0
    7.6687  -15.6532   27.5913 O   0  0  0  0  0  0  0  0  0  0  0  0
    9.1887  -14.5277   28.8401 O   0  0  0  0  0  0  0  0  0  0  0  0
  2  1  1  0
  3  5  1  0
  3  2  1  0
  3  4  1  6
  5  6  2  0
  7  5  1  0
  8  7  1  0
  9 10  1  0
  8  9  1  1
 10 14  1  0
 11 12  1  0
 11 10  2  0
 12 13  1  0
 13 14  2  0
 15  8  1  0
 15 17  1  0
 16 15  2  0
 17 18  1  0
 19 18  1  0
 20 19  1  0
 20 21  1  0
 21 17  1  0
 21 22  1  1
 22 24  1  0
 23 22  2  0
M  END
$$$$
