SHP.pdb
     RDKit          3D

 24 25  0  0  1  0  0  0  0  0999 V2000
    9.6927  -13.2063   19.8125 O   0  0  0  0  0  0  0  0  0  0  0  0
    8.8951  -14.2647   19.3632 C   0  0  0  0  0  0  0  0  0  0  0  0
    7.5235  -14.0804   19.9016 C   0  0  2  0  0  0  0  0  0  0  0  0
    7.0866  -12.7337   19.6081 N   0  0  0  0  0  0  0  0  0  0  0  0
    7.3301  -14.3644   21.3062 C   0  0  0  0  0  0  0  0  0  0  0  0
    6.7644  -13.4748   22.0281 O   0  0  0  0  0  0  0  0  0  0  0  0
    7.6962  -15.5280   21.9944 N   0  0  0  0  0  0  0  0  0  0  0  0
    7.4036  -15.8274   23.3842 C   0  0  1  0  0  0  0  0  0  0  0  0
    7.3775  -17.3233   23.6087 C   0  0  0  0  0  0  0  0  0  0  0  0
    7.2313  -17.6539   25.0489 C   0  0  0  0  0  0  0  0  0  0  0  0
    8.2472  -18.0686   25.8736 C   0  0  0  0  0  0  0  0  0  0  0  0
    7.7119  -18.2640   27.0974 N   0  0  0  0  0  0  0  0  0  0  0  0
    6.3950  -17.9849   27.0624 C   0  0  0  0  0  0  0  0  0  0  0  0
    6.1258  -17.6108   25.7850 N   0  0  0  0  0  0  0  0  0  0  0  0
    8.4353  -15.2401   24.2447 C   0  0  0  0  0  0  0  0  0  0  0  0
    9.6583  -15.2154   23.8487 O   0  0  0  0  0  0  0  0  0  0  0  0
    8.1690  -14.6861   25.5051 N   0  0  0  0  0  0  0  0  0  0  0  0
    6.8699  -14.8127   26.2016 C   0  0  0  0  0  0  0  0  0  0  0  0
    6.7256  -13.5671   27.0109 C   0  0  0  0  0  0  0  0  0  0  0  0
    8.0206  -12.7973   26.7789 C   0  0  0  0  0  0  0  0  0  0  0  0
    8.9826  -13.9471   26.4537 C   0  0  1  0  0  0  0  0  0  0  0  0
    9.2880  -14.7327   27.6640 C   0  0  0  0  0  0  0  0  0  0  0  0
    8.7429  -15.8303   27.8611 O   0  0  0  0  0  0  0  0  0  0  0  0
   10.1879  -14.2405   28.5828 O   0  0  0  0  0  0  0  0  0  0  0  0
  2  1  1  0
  3  5  1  0
  3  2  1  0
  3  4  1  1
  5  6  2  0
  7  5  1  0
  8  7  1  0
  9 10  1  0
  8  9  1  6
 10 14  1  0
 11 12  1  0
 11 10  2  0
 12 13  1  0
 13 14  2  0
 15  8  1  0
 15 17  1  0
 16 15  2  0
 17 18  1  0
 19 18  1  0
 20 19  1  0
 20 21  1  0
 21 17  1  0
 21 22  1  1
 22 24  1  0
 23 22  2  0
M  END
$$$$
