SHP.pdb
     RDKit          3D

 24 25  0  0  1  0  0  0  0  0999 V2000
    9.9816  -12.7479   19.8468 O   0  0  0  0  0  0  0  0  0  0  0  0
    9.3906  -13.8422   19.2053 C   0  0  0  0  0  0  0  0  0  0  0  0
    7.9743  -13.9338   19.6420 C   0  0  2  0  0  0  0  0  0  0  0  0
    7.2931  -12.7148   19.2674 N   0  0  0  0  0  0  0  0  0  0  0  0
    7.7397  -14.2178   21.0404 C   0  0  0  0  0  0  0  0  0  0  0  0
    7.3186  -13.2688   21.7852 O   0  0  0  0  0  0  0  0  0  0  0  0
    7.9216  -15.4400   21.6997 N   0  0  0  0  0  0  0  0  0  0  0  0
    7.6008  -15.7190   23.0876 C   0  0  1  0  0  0  0  0  0  0  0  0
    7.6950  -17.2035   23.3639 C   0  0  0  0  0  0  0  0  0  0  0  0
    7.3764  -17.5135   24.7807 C   0  0  0  0  0  0  0  0  0  0  0  0
    6.1213  -17.4826   25.3355 C   0  0  0  0  0  0  0  0  0  0  0  0
    6.2517  -17.8251   26.6348 N   0  0  0  0  0  0  0  0  0  0  0  0
    7.5477  -18.0683   26.9082 C   0  0  0  0  0  0  0  0  0  0  0  0
    8.2192  -17.8681   25.7449 N   0  0  0  0  0  0  0  0  0  0  0  0
    8.5429  -15.0163   23.9641 C   0  0  0  0  0  0  0  0  0  0  0  0
    9.7501  -14.8133   23.5711 O   0  0  0  0  0  0  0  0  0  0  0  0
    8.2046  -14.5354   25.2373 N   0  0  0  0  0  0  0  0  0  0  0  0
    6.9149  -14.8145   25.9061 C   0  0  0  0  0  0  0  0  0  0  0  0
    6.6353  -13.6182   26.7535 C   0  0  0  0  0  0  0  0  0  0  0  0
    7.8501  -12.7160   26.5699 C   0  0  0  0  0  0  0  0  0  0  0  0
    8.9267  -13.7525   26.2239 C   0  0  1  0  0  0  0  0  0  0  0  0
    9.2918  -14.5453   27.4128 C   0  0  0  0  0  0  0  0  0  0  0  0
    9.8978  -14.0222   28.3614 O   0  0  0  0  0  0  0  0  0  0  0  0
    8.9553  -15.8795   27.4678 O   0  0  0  0  0  0  0  0  0  0  0  0
  2  1  1  0
  3  5  1  0
  3  2  1  0
  3  4  1  1
  5  6  2  0
  7  5  1  0
  8  7  1  0
  9 10  1  0
  8  9  1  6
 10 14  1  0
 11 12  1  0
 11 10  2  0
 12 13  1  0
 13 14  2  0
 15  8  1  0
 15 17  1  0
 16 15  2  0
 17 18  1  0
 19 18  1  0
 20 19  1  0
 20 21  1  0
 21 17  1  0
 21 22  1  1
 22 24  1  0
 23 22  2  0
M  END
$$$$
