SHP.pdb
     RDKit          3D

 24 25  0  0  1  0  0  0  0  0999 V2000
   10.5920  -12.5453   19.3248 O   0  0  0  0  0  0  0  0  0  0  0  0
   10.3480  -13.8734   19.6920 C   0  0  0  0  0  0  0  0  0  0  0  0
    8.8814  -14.1052   19.6686 C   0  0  2  0  0  0  0  0  0  0  0  0
    8.2552  -13.0413   18.9159 N   0  0  0  0  0  0  0  0  0  0  0  0
    8.2238  -14.2549   20.9477 C   0  0  0  0  0  0  0  0  0  0  0  0
    7.4247  -13.3321   21.3257 O   0  0  0  0  0  0  0  0  0  0  0  0
    8.3573  -15.3170   21.8508 N   0  0  0  0  0  0  0  0  0  0  0  0
    7.7166  -15.4214   23.1490 C   0  0  1  0  0  0  0  0  0  0  0  0
    7.4151  -16.8676   23.4753 C   0  0  0  0  0  0  0  0  0  0  0  0
    6.4208  -17.4411   22.5333 C   0  0  0  0  0  0  0  0  0  0  0  0
    5.0670  -17.5025   22.7511 C   0  0  0  0  0  0  0  0  0  0  0  0
    4.5155  -18.0884   21.6671 N   0  0  0  0  0  0  0  0  0  0  0  0
    5.4818  -18.3945   20.7805 C   0  0  0  0  0  0  0  0  0  0  0  0
    6.6481  -17.9835   21.3418 N   0  0  0  0  0  0  0  0  0  0  0  0
    8.6037  -14.8804   24.1835 C   0  0  0  0  0  0  0  0  0  0  0  0
    9.8751  -14.8708   23.9926 O   0  0  0  0  0  0  0  0  0  0  0  0
    8.1445  -14.3562   25.4005 N   0  0  0  0  0  0  0  0  0  0  0  0
    6.7244  -14.3618   25.8151 C   0  0  0  0  0  0  0  0  0  0  0  0
    6.5489  -13.1454   26.6618 C   0  0  0  0  0  0  0  0  0  0  0  0
    7.9374  -12.5220   26.7438 C   0  0  0  0  0  0  0  0  0  0  0  0
    8.8196  -13.7602   26.5392 C   0  0  1  0  0  0  0  0  0  0  0  0
    8.7866  -14.6293   27.7303 C   0  0  0  0  0  0  0  0  0  0  0  0
    9.4180  -14.3246   28.7546 O   0  0  0  0  0  0  0  0  0  0  0  0
    8.0465  -15.7903   27.7024 O   0  0  0  0  0  0  0  0  0  0  0  0
  2  1  1  0
  3  5  1  0
  3  2  1  0
  3  4  1  1
  5  6  2  0
  7  5  1  0
  8  7  1  0
  9 10  1  0
  8  9  1  1
 10 14  1  0
 11 12  1  0
 11 10  2  0
 12 13  1  0
 13 14  2  0
 15  8  1  0
 15 17  1  0
 16 15  2  0
 17 18  1  0
 19 18  1  0
 20 19  1  0
 20 21  1  0
 21 17  1  0
 21 22  1  1
 22 24  1  0
 23 22  2  0
M  END
$$$$
