SHP.pdb
     RDKit          3D

 24 25  0  0  1  0  0  0  0  0999 V2000
   11.6629  -13.9311   18.7270 O   0  0  0  0  0  0  0  0  0  0  0  0
   10.7951  -13.3619   19.6658 C   0  0  0  0  0  0  0  0  0  0  0  0
    9.4621  -13.9999   19.5203 C   0  0  2  0  0  0  0  0  0  0  0  0
    8.7427  -13.3351   18.4569 N   0  0  0  0  0  0  0  0  0  0  0  0
    8.6368  -14.0648   20.7059 C   0  0  0  0  0  0  0  0  0  0  0  0
    7.8405  -13.0931   20.9393 O   0  0  0  0  0  0  0  0  0  0  0  0
    8.6000  -15.0908   21.6586 N   0  0  0  0  0  0  0  0  0  0  0  0
    7.8320  -15.0871   22.8902 C   0  0  1  0  0  0  0  0  0  0  0  0
    7.2590  -16.4611   23.1602 C   0  0  0  0  0  0  0  0  0  0  0  0
    6.3282  -16.8827   22.0829 C   0  0  0  0  0  0  0  0  0  0  0  0
    5.1806  -16.2211   21.7237 C   0  0  0  0  0  0  0  0  0  0  0  0
    4.6203  -16.9164   20.7112 N   0  0  0  0  0  0  0  0  0  0  0  0
    5.3816  -17.9905   20.4277 C   0  0  0  0  0  0  0  0  0  0  0  0
    6.4294  -17.9444   21.2903 N   0  0  0  0  0  0  0  0  0  0  0  0
    8.6973  -14.7091   24.0118 C   0  0  0  0  0  0  0  0  0  0  0  0
    9.9680  -14.8846   23.9247 O   0  0  0  0  0  0  0  0  0  0  0  0
    8.2179  -14.1513   25.2058 N   0  0  0  0  0  0  0  0  0  0  0  0
    6.7882  -13.8779   25.4703 C   0  0  0  0  0  0  0  0  0  0  0  0
    6.7672  -12.6876   26.3703 C   0  0  0  0  0  0  0  0  0  0  0  0
    8.2345  -12.3712   26.6351 C   0  0  0  0  0  0  0  0  0  0  0  0
    8.8651  -13.7565   26.4440 C   0  0  1  0  0  0  0  0  0  0  0  0
    8.5208  -14.6480   27.5673 C   0  0  0  0  0  0  0  0  0  0  0  0
    7.5781  -15.4502   27.4735 O   0  0  0  0  0  0  0  0  0  0  0  0
    9.2549  -14.5875   28.7308 O   0  0  0  0  0  0  0  0  0  0  0  0
  2  1  1  0
  3  5  1  0
  3  2  1  0
  3  4  1  6
  5  6  2  0
  7  5  1  0
  8  7  1  0
  9 10  1  0
  8  9  1  1
 10 14  1  0
 11 12  1  0
 11 10  2  0
 12 13  1  0
 13 14  2  0
 15  8  1  0
 15 17  1  0
 16 15  2  0
 17 18  1  0
 19 18  1  0
 20 19  1  0
 20 21  1  0
 21 17  1  0
 21 22  1  1
 22 24  1  0
 23 22  2  0
M  END
$$$$
