SHP.pdb
     RDKit          3D

 24 25  0  0  1  0  0  0  0  0999 V2000
   10.8463  -16.0781   20.7543 O   0  0  0  0  0  0  0  0  0  0  0  0
   10.2894  -17.3608   20.8078 C   0  0  0  0  0  0  0  0  0  0  0  0
    8.8226  -17.2446   20.6076 C   0  0  2  0  0  0  0  0  0  0  0  0
    8.5710  -16.8375   19.2433 N   0  0  0  0  0  0  0  0  0  0  0  0
    8.1061  -16.3797   21.5184 C   0  0  0  0  0  0  0  0  0  0  0  0
    7.5380  -15.3399   21.0401 O   0  0  0  0  0  0  0  0  0  0  0  0
    7.9523  -16.5448   22.9006 N   0  0  0  0  0  0  0  0  0  0  0  0
    7.2324  -15.6551   23.7933 C   0  0  1  0  0  0  0  0  0  0  0  0
    6.2048  -16.4258   24.5927 C   0  0  0  0  0  0  0  0  0  0  0  0
    6.8017  -17.6267   25.2303 C   0  0  0  0  0  0  0  0  0  0  0  0
    7.4530  -17.6409   26.4384 C   0  0  0  0  0  0  0  0  0  0  0  0
    7.8434  -18.9132   26.6654 N   0  0  0  0  0  0  0  0  0  0  0  0
    7.4566  -19.6926   25.6376 C   0  0  0  0  0  0  0  0  0  0  0  0
    6.8158  -18.8716   24.7661 N   0  0  0  0  0  0  0  0  0  0  0  0
    8.1720  -15.0199   24.7226 C   0  0  0  0  0  0  0  0  0  0  0  0
    9.4309  -15.2594   24.6200 O   0  0  0  0  0  0  0  0  0  0  0  0
    7.7778  -14.1423   25.7429 N   0  0  0  0  0  0  0  0  0  0  0  0
    6.3690  -13.9126   26.1318 C   0  0  0  0  0  0  0  0  0  0  0  0
    6.3093  -12.4990   26.6066 C   0  0  0  0  0  0  0  0  0  0  0  0
    7.7461  -11.9972   26.5235 C   0  0  0  0  0  0  0  0  0  0  0  0
    8.5184  -13.3137   26.6770 C   0  0  1  0  0  0  0  0  0  0  0  0
    8.4321  -13.8131   28.0620 C   0  0  0  0  0  0  0  0  0  0  0  0
    7.5974  -14.6776   28.3729 O   0  0  0  0  0  0  0  0  0  0  0  0
    9.2880  -13.3129   29.0179 O   0  0  0  0  0  0  0  0  0  0  0  0
  2  1  1  0
  3  5  1  0
  3  2  1  0
  3  4  1  6
  5  6  2  0
  7  5  1  0
  8  7  1  0
  9 10  1  0
  8  9  1  1
 10 14  1  0
 11 12  1  0
 11 10  2  0
 12 13  1  0
 13 14  2  0
 15  8  1  0
 15 17  1  0
 16 15  2  0
 17 18  1  0
 19 18  1  0
 20 19  1  0
 20 21  1  0
 21 17  1  0
 21 22  1  1
 22 24  1  0
 23 22  2  0
M  END
$$$$
