SHP.pdb
     RDKit          3D

 24 25  0  0  1  0  0  0  0  0999 V2000
   13.4206  -16.6702   21.8170 O   0  0  0  0  0  0  0  0  0  0  0  0
   12.6542  -16.9340   20.6762 C   0  0  0  0  0  0  0  0  0  0  0  0
   12.2025  -15.6402   20.1044 C   0  0  2  0  0  0  0  0  0  0  0  0
   13.3442  -14.7610   19.9859 N   0  0  0  0  0  0  0  0  0  0  0  0
   11.1289  -14.9608   20.7949 C   0  0  0  0  0  0  0  0  0  0  0  0
   11.2465  -13.7057   21.0039 O   0  0  0  0  0  0  0  0  0  0  0  0
    9.9406  -15.5237   21.2772 N   0  0  0  0  0  0  0  0  0  0  0  0
    8.9265  -14.8405   22.0594 C   0  0  1  0  0  0  0  0  0  0  0  0
    7.5928  -14.8803   21.3463 C   0  0  0  0  0  0  0  0  0  0  0  0
    7.6768  -14.2556   20.0018 C   0  0  0  0  0  0  0  0  0  0  0  0
    7.4000  -14.8884   18.8157 C   0  0  0  0  0  0  0  0  0  0  0  0
    7.5918  -13.9869   17.8292 N   0  0  0  0  0  0  0  0  0  0  0  0
    7.9795  -12.8125   18.3621 C   0  0  0  0  0  0  0  0  0  0  0  0
    8.0236  -13.0076   19.7053 N   0  0  0  0  0  0  0  0  0  0  0  0
    8.7829  -15.4953   23.3634 C   0  0  0  0  0  0  0  0  0  0  0  0
    9.4786  -16.5427   23.6315 O   0  0  0  0  0  0  0  0  0  0  0  0
    7.9145  -15.0409   24.3664 N   0  0  0  0  0  0  0  0  0  0  0  0
    6.8165  -14.0780   24.1298 C   0  0  0  0  0  0  0  0  0  0  0  0
    6.6738  -13.3117   25.4025 C   0  0  0  0  0  0  0  0  0  0  0  0
    7.6861  -13.9400   26.3533 C   0  0  0  0  0  0  0  0  0  0  0  0
    7.7784  -15.3584   25.7765 C   0  0  1  0  0  0  0  0  0  0  0  0
    6.5500  -16.1219   26.0647 C   0  0  0  0  0  0  0  0  0  0  0  0
    5.6513  -16.2207   25.2142 O   0  0  0  0  0  0  0  0  0  0  0  0
    6.4017  -16.7305   27.2911 O   0  0  0  0  0  0  0  0  0  0  0  0
  2  1  1  0
  3  5  1  0
  3  2  1  0
  3  4  1  1
  5  6  2  0
  7  5  1  0
  8  7  1  0
  9 10  1  0
  8  9  1  6
 10 14  1  0
 11 12  1  0
 11 10  2  0
 12 13  1  0
 13 14  2  0
 15  8  1  0
 15 17  1  0
 16 15  2  0
 17 18  1  0
 19 18  1  0
 20 19  1  0
 20 21  1  0
 21 17  1  0
 21 22  1  6
 22 24  1  0
 23 22  2  0
M  END
$$$$
