TQL.pdb
     RDKit          3D

 25 24  0  0  1  0  0  0  0  0999 V2000
   17.6068  -10.8034  -14.0364 C   0  0  0  0  0  0  0  0  0  0  0  0
   16.2629  -10.6244  -14.7438 C   0  0  1  0  0  0  0  0  0  0  0  0
   15.7996  -11.8129  -15.2484 O   0  0  0  0  0  0  0  0  0  0  0  0
   15.3088  -10.0665  -13.7045 C   0  0  2  0  0  0  0  0  0  0  0  0
   14.0623   -9.7996  -14.4043 N   0  0  0  0  0  0  0  0  0  0  0  0
   15.8593   -8.8279  -13.1469 C   0  0  0  0  0  0  0  0  0  0  0  0
   15.9437   -7.8076  -13.8813 O   0  0  0  0  0  0  0  0  0  0  0  0
   15.5273   -6.2281   -7.4005 N   0  0  0  0  0  0  0  0  0  0  0  0
   14.5563   -6.3328   -8.4177 C   0  0  0  0  0  0  0  0  0  0  0  0
   13.3668   -6.0458   -8.1475 O   0  0  0  0  0  0  0  0  0  0  0  0
   14.9104   -6.7609   -9.7700 C   0  0  0  0  0  0  0  0  0  0  0  0
   16.3478   -7.0484   -9.9395 C   0  0  0  0  0  0  0  0  0  0  0  0
   16.8408   -7.4369  -11.2830 C   0  0  2  0  0  0  0  0  0  0  0  0
   16.3220   -8.6665  -11.8087 N   0  0  0  0  0  0  0  0  0  0  0  0
   18.3100   -7.3368  -11.4288 C   0  0  0  0  0  0  0  0  0  0  0  0
   19.1001   -8.1267  -10.8607 O   0  0  0  0  0  0  0  0  0  0  0  0
   21.9587   -8.4480  -15.2033 C   0  0  0  0  0  0  0  0  0  0  0  0
   21.9776   -7.5368  -13.9669 C   0  0  2  0  0  0  0  0  0  0  0  0
   22.8992   -8.1613  -12.9711 C   0  0  0  0  0  0  0  0  0  0  0  0
   20.5667   -7.4254  -13.5089 C   0  0  0  0  0  0  0  0  0  0  0  0
   20.2809   -6.2825  -12.5743 C   0  0  2  0  0  0  0  0  0  0  0  0
   18.8642   -6.3139  -12.2388 N   0  0  0  0  0  0  0  0  0  0  0  0
   20.5925   -4.9688  -13.1389 C   0  0  0  0  0  0  0  0  0  0  0  0
   19.7202   -4.3141  -13.7350 O   0  0  0  0  0  0  0  0  0  0  0  0
   21.8600   -4.4486  -13.0114 O   0  0  0  0  0  0  0  0  0  0  0  0
  2  1  1  1
  3  2  1  0
  4  6  1  0
  4  5  1  6
  4  2  1  0
  6 14  1  0
  7  6  2  0
  9 11  1  0
  9  8  1  0
 10  9  2  0
 12 11  1  0
 13 12  1  1
 14 13  1  0
 15 13  1  0
 16 15  2  0
 18 17  1  6
 18 19  1  0
 20 18  1  0
 21 20  1  6
 21 22  1  0
 21 23  1  0
 22 15  1  0
 23 25  1  0
 24 23  2  0
M  END
$$$$
