TQL.pdb
     RDKit          3D

 25 24  0  0  1  0  0  0  0  0999 V2000
   18.3344  -11.9960  -14.6281 C   0  0  0  0  0  0  0  0  0  0  0  0
   18.6991  -12.7130  -15.9285 C   0  0  1  0  0  0  0  0  0  0  0  0
   18.2471  -14.0082  -15.9307 O   0  0  0  0  0  0  0  0  0  0  0  0
   18.0592  -11.9123  -17.0470 C   0  0  2  0  0  0  0  0  0  0  0  0
   18.4156  -12.5907  -18.2828 N   0  0  0  0  0  0  0  0  0  0  0  0
   18.5911  -10.5465  -17.0398 C   0  0  0  0  0  0  0  0  0  0  0  0
   19.7631  -10.3414  -17.4544 O   0  0  0  0  0  0  0  0  0  0  0  0
   15.5548   -4.9467  -17.0823 N   0  0  0  0  0  0  0  0  0  0  0  0
   16.9061   -4.5751  -16.9255 C   0  0  0  0  0  0  0  0  0  0  0  0
   17.1964   -3.3566  -16.8942 O   0  0  0  0  0  0  0  0  0  0  0  0
   17.9630   -5.5767  -16.7945 C   0  0  0  0  0  0  0  0  0  0  0  0
   17.4612   -6.9644  -16.7794 C   0  0  0  0  0  0  0  0  0  0  0  0
   18.4318   -8.0685  -16.5855 C   0  0  2  0  0  0  0  0  0  0  0  0
   17.8824   -9.3935  -16.5936 N   0  0  0  0  0  0  0  0  0  0  0  0
   19.3616   -7.8508  -15.4551 C   0  0  0  0  0  0  0  0  0  0  0  0
   19.0467   -8.0914  -14.2660 O   0  0  0  0  0  0  0  0  0  0  0  0
   22.5705   -9.7882  -13.5783 C   0  0  0  0  0  0  0  0  0  0  0  0
   22.8285   -9.3793  -15.0361 C   0  0  2  0  0  0  0  0  0  0  0  0
   24.0845  -10.0606  -15.4712 C   0  0  0  0  0  0  0  0  0  0  0  0
   22.9034   -7.8936  -15.0459 C   0  0  0  0  0  0  0  0  0  0  0  0
   21.6418   -7.1821  -14.6415 C   0  0  2  0  0  0  0  0  0  0  0  0
   20.6639   -7.3509  -15.7073 N   0  0  0  0  0  0  0  0  0  0  0  0
   21.8242   -5.7495  -14.4050 C   0  0  0  0  0  0  0  0  0  0  0  0
   21.4978   -4.9196  -15.2708 O   0  0  0  0  0  0  0  0  0  0  0  0
   22.3607   -5.3115  -13.2160 O   0  0  0  0  0  0  0  0  0  0  0  0
  2  1  1  1
  3  2  1  0
  4  6  1  0
  4  5  1  6
  4  2  1  0
  6 14  1  0
  7  6  2  0
  9 11  1  0
  9  8  1  0
 10  9  2  0
 12 11  1  0
 13 12  1  1
 14 13  1  0
 15 13  1  0
 16 15  2  0
 18 17  1  1
 18 19  1  0
 20 18  1  0
 21 20  1  6
 21 22  1  0
 21 23  1  0
 22 15  1  0
 23 25  1  0
 24 23  2  0
M  END
$$$$
