TQL.pdb
     RDKit          3D

 25 24  0  0  1  0  0  0  0  0999 V2000
   13.8348   -9.5470  -14.5838 C   0  0  0  0  0  0  0  0  0  0  0  0
   13.9440  -11.0459  -14.3010 C   0  0  1  0  0  0  0  0  0  0  0  0
   13.2610  -11.7833  -15.2346 O   0  0  0  0  0  0  0  0  0  0  0  0
   15.4248  -11.3744  -14.3264 C   0  0  2  0  0  0  0  0  0  0  0  0
   15.5250  -12.8021  -14.0693 N   0  0  0  0  0  0  0  0  0  0  0  0
   16.1145  -10.6151  -13.2794 C   0  0  0  0  0  0  0  0  0  0  0  0
   15.8624  -10.8667  -12.0708 O   0  0  0  0  0  0  0  0  0  0  0  0
   21.5720   -7.1689  -13.1604 N   0  0  0  0  0  0  0  0  0  0  0  0
   21.4077   -8.5577  -13.3409 C   0  0  0  0  0  0  0  0  0  0  0  0
   22.4115   -9.2515  -13.6259 O   0  0  0  0  0  0  0  0  0  0  0  0
   20.1007   -9.1968  -13.1976 C   0  0  0  0  0  0  0  0  0  0  0  0
   19.0331   -8.2677  -12.7796 C   0  0  0  0  0  0  0  0  0  0  0  0
   17.6928   -8.8201  -12.4677 C   0  0  2  0  0  0  0  0  0  0  0  0
   17.0739   -9.5869  -13.5100 N   0  0  0  0  0  0  0  0  0  0  0  0
   16.7676   -7.8324  -11.8692 C   0  0  0  0  0  0  0  0  0  0  0  0
   16.0436   -7.0794  -12.5618 O   0  0  0  0  0  0  0  0  0  0  0  0
   13.6291   -7.5832   -6.7722 C   0  0  0  0  0  0  0  0  0  0  0  0
   14.0146   -6.7336   -7.9923 C   0  0  2  0  0  0  0  0  0  0  0  0
   12.7525   -6.4091   -8.7222 C   0  0  0  0  0  0  0  0  0  0  0  0
   14.9837   -7.5451   -8.7766 C   0  0  0  0  0  0  0  0  0  0  0  0
   15.7640   -6.7894   -9.8165 C   0  0  2  0  0  0  0  0  0  0  0  0
   16.6829   -7.7188  -10.4587 N   0  0  0  0  0  0  0  0  0  0  0  0
   16.5402   -5.6736   -9.2742 C   0  0  0  0  0  0  0  0  0  0  0  0
   17.7025   -5.8495   -8.8705 O   0  0  0  0  0  0  0  0  0  0  0  0
   15.9838   -4.4167   -9.2082 O   0  0  0  0  0  0  0  0  0  0  0  0
  2  1  1  6
  3  2  1  0
  4  6  1  0
  4  5  1  1
  4  2  1  0
  6 14  1  0
  7  6  2  0
  9 11  1  0
  9  8  1  0
 10  9  2  0
 12 11  1  0
 13 12  1  6
 14 13  1  0
 15 13  1  0
 16 15  2  0
 18 17  1  1
 18 19  1  0
 20 18  1  0
 21 20  1  1
 21 22  1  0
 21 23  1  0
 22 15  1  0
 23 25  1  0
 24 23  2  0
M  END
$$$$
