TQL.pdb
     RDKit          3D

 25 24  0  0  1  0  0  0  0  0999 V2000
   24.8464  -25.4688  -15.8298 C   0  0  0  0  0  0  0  0  0  0  0  0
   26.2655  -25.3585  -16.3885 C   0  0  1  0  0  0  0  0  0  0  0  0
   26.6556  -26.5228  -17.0000 O   0  0  0  0  0  0  0  0  0  0  0  0
   26.2431  -24.2071  -17.3761 C   0  0  2  0  0  0  0  0  0  0  0  0
   27.6088  -24.0589  -17.8530 N   0  0  0  0  0  0  0  0  0  0  0  0
   25.8017  -22.9856  -16.6967 C   0  0  0  0  0  0  0  0  0  0  0  0
   26.6484  -22.2854  -16.0801 O   0  0  0  0  0  0  0  0  0  0  0  0
   21.7033  -18.6550  -18.4015 N   0  0  0  0  0  0  0  0  0  0  0  0
   22.1336  -18.1860  -17.1432 C   0  0  0  0  0  0  0  0  0  0  0  0
   21.7863  -17.0393  -16.7763 O   0  0  0  0  0  0  0  0  0  0  0  0
   22.9652  -19.0081  -16.2656 C   0  0  0  0  0  0  0  0  0  0  0  0
   23.3515  -20.3015  -16.8617 C   0  0  0  0  0  0  0  0  0  0  0  0
   24.0600  -21.2908  -16.0142 C   0  0  2  0  0  0  0  0  0  0  0  0
   24.4614  -22.5023  -16.6688 N   0  0  0  0  0  0  0  0  0  0  0  0
   23.3964  -21.5447  -14.7161 C   0  0  0  0  0  0  0  0  0  0  0  0
   22.5306  -22.4380  -14.5638 O   0  0  0  0  0  0  0  0  0  0  0  0
   25.3500  -22.3127  -10.6024 C   0  0  0  0  0  0  0  0  0  0  0  0
   25.4681  -20.8855  -11.1577 C   0  0  2  0  0  0  0  0  0  0  0  0
   26.3557  -20.1219  -10.2304 C   0  0  0  0  0  0  0  0  0  0  0  0
   24.0805  -20.3574  -11.2498 C   0  0  0  0  0  0  0  0  0  0  0  0
   23.2001  -21.0323  -12.2651 C   0  0  2  0  0  0  0  0  0  0  0  0
   23.7404  -20.7566  -13.5891 N   0  0  0  0  0  0  0  0  0  0  0  0
   21.8088  -20.5798  -12.2311 C   0  0  0  0  0  0  0  0  0  0  0  0
   21.4197  -19.6753  -12.9894 O   0  0  0  0  0  0  0  0  0  0  0  0
   20.9192  -21.1573  -11.3543 O   0  0  0  0  0  0  0  0  0  0  0  0
  2  1  1  6
  3  2  1  0
  4  6  1  0
  4  5  1  1
  4  2  1  0
  6 14  1  0
  7  6  2  0
  9 11  1  0
  9  8  1  0
 10  9  2  0
 12 11  1  0
 13 12  1  6
 14 13  1  0
 15 13  1  0
 16 15  2  0
 18 17  1  1
 18 19  1  0
 20 18  1  0
 21 20  1  1
 21 22  1  0
 21 23  1  0
 22 15  1  0
 23 25  1  0
 24 23  2  0
M  END
$$$$
