TQL.pdb
     RDKit          3D

 25 24  0  0  1  0  0  0  0  0999 V2000
   21.9372  -15.2455  -17.1556 C   0  0  0  0  0  0  0  0  0  0  0  0
   20.7592  -15.4586  -18.1069 C   0  0  1  0  0  0  0  0  0  0  0  0
   20.3231  -16.7591  -18.0817 O   0  0  0  0  0  0  0  0  0  0  0  0
   19.6676  -14.5105  -17.6477 C   0  0  2  0  0  0  0  0  0  0  0  0
   18.5022  -14.8129  -18.4631 N   0  0  0  0  0  0  0  0  0  0  0  0
   20.0977  -13.1257  -17.8615 C   0  0  0  0  0  0  0  0  0  0  0  0
   20.9503  -12.8782  -18.7555 O   0  0  0  0  0  0  0  0  0  0  0  0
   16.7657   -8.1587  -18.0454 N   0  0  0  0  0  0  0  0  0  0  0  0
   16.7631   -9.4222  -18.6714 C   0  0  0  0  0  0  0  0  0  0  0  0
   15.7114   -9.8181  -19.2259 O   0  0  0  0  0  0  0  0  0  0  0  0
   17.9556  -10.2678  -18.6892 C   0  0  0  0  0  0  0  0  0  0  0  0
   19.0804   -9.7167  -17.9089 C   0  0  0  0  0  0  0  0  0  0  0  0
   20.0797  -10.6552  -17.3436 C   0  0  2  0  0  0  0  0  0  0  0  0
   19.6252  -11.9986  -17.1285 N   0  0  0  0  0  0  0  0  0  0  0  0
   20.8097  -10.1134  -16.1759 C   0  0  0  0  0  0  0  0  0  0  0  0
   20.3539  -10.1685  -15.0097 O   0  0  0  0  0  0  0  0  0  0  0  0
   24.8581  -10.8697  -14.5111 C   0  0  0  0  0  0  0  0  0  0  0  0
   24.9008  -10.1309  -15.8570 C   0  0  2  0  0  0  0  0  0  0  0  0
   26.3336  -10.0465  -16.2702 C   0  0  0  0  0  0  0  0  0  0  0  0
   24.2507   -8.8123  -15.6302 C   0  0  0  0  0  0  0  0  0  0  0  0
   22.7921   -8.8666  -15.2682 C   0  0  2  0  0  0  0  0  0  0  0  0
   22.0760   -9.5044  -16.3641 N   0  0  0  0  0  0  0  0  0  0  0  0
   22.1955   -7.5517  -15.0303 C   0  0  0  0  0  0  0  0  0  0  0  0
   21.5719   -6.9680  -15.9332 O   0  0  0  0  0  0  0  0  0  0  0  0
   22.3225   -6.9516  -13.7985 O   0  0  0  0  0  0  0  0  0  0  0  0
  2  1  1  1
  3  2  1  0
  4  6  1  0
  4  5  1  6
  4  2  1  0
  6 14  1  0
  7  6  2  0
  9 11  1  0
  9  8  1  0
 10  9  2  0
 12 11  1  0
 13 12  1  1
 14 13  1  0
 15 13  1  0
 16 15  2  0
 18 17  1  1
 18 19  1  0
 20 18  1  0
 21 20  1  6
 21 22  1  0
 21 23  1  0
 22 15  1  0
 23 25  1  0
 24 23  2  0
M  END
$$$$
