TQL.pdb
     RDKit          3D

 25 24  0  0  1  0  0  0  0  0999 V2000
   12.9119  -10.6785  -13.7694 C   0  0  0  0  0  0  0  0  0  0  0  0
   13.4777  -11.9942  -13.2336 C   0  0  1  0  0  0  0  0  0  0  0  0
   12.8137  -13.0752  -13.7556 O   0  0  0  0  0  0  0  0  0  0  0  0
   14.9431  -12.0154  -13.6255 C   0  0  2  0  0  0  0  0  0  0  0  0
   15.4655  -13.2910  -13.1623 N   0  0  0  0  0  0  0  0  0  0  0  0
   15.6428  -10.9064  -12.9706 C   0  0  0  0  0  0  0  0  0  0  0  0
   15.8708  -10.9690  -11.7330 O   0  0  0  0  0  0  0  0  0  0  0  0
   20.2196   -7.3601  -15.3717 N   0  0  0  0  0  0  0  0  0  0  0  0
   19.9895   -8.7503  -15.3164 C   0  0  0  0  0  0  0  0  0  0  0  0
   20.7202   -9.5097  -15.9944 O   0  0  0  0  0  0  0  0  0  0  0  0
   18.9275   -9.3158  -14.4859 C   0  0  0  0  0  0  0  0  0  0  0  0
   18.1125   -8.2967  -13.7968 C   0  0  0  0  0  0  0  0  0  0  0  0
   16.9402   -8.7413  -13.0051 C   0  0  2  0  0  0  0  0  0  0  0  0
   16.1035   -9.7275  -13.6254 N   0  0  0  0  0  0  0  0  0  0  0  0
   16.1605   -7.6273  -12.4211 C   0  0  0  0  0  0  0  0  0  0  0  0
   15.1895   -7.1000  -13.0127 O   0  0  0  0  0  0  0  0  0  0  0  0
   13.5060   -6.7294   -8.7886 C   0  0  0  0  0  0  0  0  0  0  0  0
   14.9362   -7.2103   -8.5017 C   0  0  2  0  0  0  0  0  0  0  0  0
   15.0481   -7.4105   -7.0258 C   0  0  0  0  0  0  0  0  0  0  0  0
   15.8449   -6.1669   -9.0482 C   0  0  0  0  0  0  0  0  0  0  0  0
   15.8079   -5.9984  -10.5421 C   0  0  2  0  0  0  0  0  0  0  0  0
   16.5107   -7.1233  -11.1432 N   0  0  0  0  0  0  0  0  0  0  0  0
   16.4325   -4.7606  -11.0103 C   0  0  0  0  0  0  0  0  0  0  0  0
   15.8911   -3.6614  -10.8017 O   0  0  0  0  0  0  0  0  0  0  0  0
   17.6295   -4.8077  -11.6874 O   0  0  0  0  0  0  0  0  0  0  0  0
  2  1  1  6
  3  2  1  0
  4  6  1  0
  4  5  1  1
  4  2  1  0
  6 14  1  0
  7  6  2  0
  9 11  1  0
  9  8  1  0
 10  9  2  0
 12 11  1  0
 13 12  1  6
 14 13  1  0
 15 13  1  0
 16 15  2  0
 18 17  1  1
 18 19  1  0
 20 18  1  0
 21 20  1  1
 21 22  1  0
 21 23  1  0
 22 15  1  0
 23 25  1  0
 24 23  2  0
M  END
$$$$
