TQL.pdb
     RDKit          3D

 25 24  0  0  1  0  0  0  0  0999 V2000
   17.9404   -9.0331  -17.1219 C   0  0  0  0  0  0  0  0  0  0  0  0
   17.4437  -10.2990  -16.4225 C   0  0  1  0  0  0  0  0  0  0  0  0
   16.3538  -10.8312  -17.0634 O   0  0  0  0  0  0  0  0  0  0  0  0
   18.6078  -11.2717  -16.4314 C   0  0  2  0  0  0  0  0  0  0  0  0
   18.1250  -12.4836  -15.7888 N   0  0  0  0  0  0  0  0  0  0  0  0
   19.7289  -10.7032  -15.6775 C   0  0  0  0  0  0  0  0  0  0  0  0
   19.6112  -10.5359  -14.4343 O   0  0  0  0  0  0  0  0  0  0  0  0
   25.8509  -11.7355  -15.6242 N   0  0  0  0  0  0  0  0  0  0  0  0
   25.2689  -11.3416  -16.8467 C   0  0  0  0  0  0  0  0  0  0  0  0
   25.8960  -11.5571  -17.9100 O   0  0  0  0  0  0  0  0  0  0  0  0
   23.9574  -10.6974  -16.8954 C   0  0  0  0  0  0  0  0  0  0  0  0
   23.3501  -10.4960  -15.5656 C   0  0  0  0  0  0  0  0  0  0  0  0
   22.0634   -9.7644  -15.4758 C   0  0  2  0  0  0  0  0  0  0  0  0
   20.9784  -10.3104  -16.2389 N   0  0  0  0  0  0  0  0  0  0  0  0
   22.1978   -8.3016  -15.6541 C   0  0  0  0  0  0  0  0  0  0  0  0
   22.2529   -7.7614  -16.7837 O   0  0  0  0  0  0  0  0  0  0  0  0
   19.4661   -3.8935  -16.0893 C   0  0  0  0  0  0  0  0  0  0  0  0
   20.8740   -4.1111  -15.5152 C   0  0  2  0  0  0  0  0  0  0  0  0
   21.8442   -3.5277  -16.4895 C   0  0  0  0  0  0  0  0  0  0  0  0
   21.0192   -5.5773  -15.3106 C   0  0  0  0  0  0  0  0  0  0  0  0
   22.2879   -6.0103  -14.6292 C   0  0  2  0  0  0  0  0  0  0  0  0
   22.2686   -7.4619  -14.5141 N   0  0  0  0  0  0  0  0  0  0  0  0
   22.4600   -5.4436  -13.2910 C   0  0  0  0  0  0  0  0  0  0  0  0
   22.7952   -4.2555  -13.1462 O   0  0  0  0  0  0  0  0  0  0  0  0
   22.2501   -6.2277  -12.1798 O   0  0  0  0  0  0  0  0  0  0  0  0
  2  1  1  6
  3  2  1  0
  4  6  1  0
  4  5  1  1
  4  2  1  0
  6 14  1  0
  7  6  2  0
  9 11  1  0
  9  8  1  0
 10  9  2  0
 12 11  1  0
 13 12  1  6
 14 13  1  0
 15 13  1  0
 16 15  2  0
 18 17  1  6
 18 19  1  0
 20 18  1  0
 21 20  1  1
 21 22  1  0
 21 23  1  0
 22 15  1  0
 23 25  1  0
 24 23  2  0
M  END
$$$$
