TQL.pdb
     RDKit          3D

 25 24  0  0  1  0  0  0  0  0999 V2000
   28.2889  -32.2912  -19.1704 C   0  0  0  0  0  0  0  0  0  0  0  0
   29.4744  -31.3577  -18.9220 C   0  0  1  0  0  0  0  0  0  0  0  0
   30.4145  -31.4659  -19.9152 O   0  0  0  0  0  0  0  0  0  0  0  0
   28.9026  -29.9537  -18.8655 C   0  0  2  0  0  0  0  0  0  0  0  0
   30.0176  -29.0775  -18.5436 N   0  0  0  0  0  0  0  0  0  0  0  0
   27.8765  -29.8828  -17.8213 C   0  0  0  0  0  0  0  0  0  0  0  0
   28.2166  -30.0173  -16.6156 O   0  0  0  0  0  0  0  0  0  0  0  0
   23.5573  -27.2404  -19.4674 N   0  0  0  0  0  0  0  0  0  0  0  0
   24.3207  -26.5455  -18.5068 C   0  0  0  0  0  0  0  0  0  0  0  0
   24.6102  -25.3452  -18.7203 O   0  0  0  0  0  0  0  0  0  0  0  0
   24.7712  -27.1930  -17.2758 C   0  0  0  0  0  0  0  0  0  0  0  0
   24.4153  -28.6229  -17.1979 C   0  0  0  0  0  0  0  0  0  0  0  0
   25.5007  -29.6158  -17.0110 C   0  0  2  0  0  0  0  0  0  0  0  0
   26.4866  -29.6687  -18.0516 N   0  0  0  0  0  0  0  0  0  0  0  0
   25.0168  -30.9597  -16.6243 C   0  0  0  0  0  0  0  0  0  0  0  0
   24.8533  -31.8834  -17.4555 O   0  0  0  0  0  0  0  0  0  0  0  0
   25.2696  -34.0596  -11.4568 C   0  0  0  0  0  0  0  0  0  0  0  0
   24.9194  -34.1918  -12.9464 C   0  0  2  0  0  0  0  0  0  0  0  0
   25.7815  -35.2739  -13.5093 C   0  0  0  0  0  0  0  0  0  0  0  0
   25.1481  -32.8514  -13.5496 C   0  0  0  0  0  0  0  0  0  0  0  0
   24.3733  -32.5699  -14.8072 C   0  0  2  0  0  0  0  0  0  0  0  0
   24.7212  -31.2319  -15.2648 N   0  0  0  0  0  0  0  0  0  0  0  0
   22.9220  -32.6346  -14.6312 C   0  0  0  0  0  0  0  0  0  0  0  0
   22.2837  -31.6309  -14.2708 O   0  0  0  0  0  0  0  0  0  0  0  0
   22.2527  -33.8140  -14.8654 O   0  0  0  0  0  0  0  0  0  0  0  0
  2  1  1  6
  3  2  1  0
  4  6  1  0
  4  5  1  1
  4  2  1  0
  6 14  1  0
  7  6  2  0
  9 11  1  0
  9  8  1  0
 10  9  2  0
 12 11  1  0
 13 12  1  6
 14 13  1  0
 15 13  1  0
 16 15  2  0
 18 17  1  1
 18 19  1  0
 20 18  1  0
 21 20  1  1
 21 22  1  0
 21 23  1  0
 22 15  1  0
 23 25  1  0
 24 23  2  0
M  END
$$$$
