REM.pdb
     RDKit          3D

 29 28  0  0  1  0  0  0  0  0999 V2000
   25.6171  -15.4199  -16.6953 N   0  0  0  0  0  0  0  0  0  0  0  0
   25.0092  -16.4949  -17.4032 C   0  0  0  0  0  0  0  0  0  0  0  0
   24.0261  -16.3601  -18.2125 N   0  0  0  0  0  0  0  0  0  0  0  0
   25.5391  -17.8151  -17.1904 N   0  0  0  0  0  0  0  0  0  0  0  0
   26.2005  -18.1593  -15.9616 C   0  0  0  0  0  0  0  0  0  0  0  0
   27.6335  -18.4811  -16.2096 C   0  0  0  0  0  0  0  0  0  0  0  0
   28.4389  -18.8490  -15.0147 C   0  0  0  0  0  0  0  0  0  0  0  0
   28.0334  -20.1346  -14.3578 C   0  0  2  0  0  0  0  0  0  0  0  0
   27.2791  -20.9809  -15.2612 N   0  0  0  0  0  0  0  0  0  0  0  0
   27.2504  -19.9274  -13.1275 C   0  0  0  0  0  0  0  0  0  0  0  0
   27.6530  -19.1370  -12.2358 O   0  0  0  0  0  0  0  0  0  0  0  0
   23.5998  -17.1592  -18.7148 N   0  0  0  0  0  0  0  0  0  0  0  0
   26.0226  -20.5987  -12.8910 C   0  0  1  0  0  0  0  0  0  0  0  0
   25.1369  -20.3268  -11.7931 C   0  0  0  0  0  0  0  0  0  0  0  0
   23.6993  -20.4825  -12.1380 C   0  0  0  0  0  0  0  0  0  0  0  0
   22.6882  -20.2668  -11.0919 C   0  0  0  0  0  0  0  0  0  0  0  0
   21.2866  -20.4445  -11.4097 O   0  0  0  0  0  0  0  0  0  0  0  0
   20.8325  -20.8158  -12.5087 C   0  0  0  0  0  0  0  0  0  0  0  0
   25.5541  -20.8699  -10.4930 O   0  0  0  0  0  0  0  0  0  0  0  0
   25.6946  -22.1331  -10.3314 O   0  0  0  0  0  0  0  0  0  0  0  0
   20.2724  -20.1953  -10.4401 C   0  0  0  0  0  0  0  0  0  0  0  0
   28.3607  -17.4733   -5.8909 S   0  0  0  0  0  0  0  0  0  0  0  0
   28.0164  -18.8973   -4.7897 C   0  0  0  0  0  0  0  0  0  0  0  0
   27.0815  -20.1191   -5.7544 C   0  0  0  0  0  0  0  0  0  0  0  0
   26.9210  -19.6984   -7.1906 C   0  0  1  0  0  0  0  0  0  0  0  0
   26.1104  -20.6355   -8.0296 N   0  0  0  0  0  0  0  0  0  0  0  0
   25.8285  -20.0824   -9.3425 C   0  0  0  0  0  0  0  0  0  0  0  0
   24.8242  -20.8979   -7.3596 O   0  0  0  0  0  0  0  0  0  0  0  0
   24.7729  -21.8272   -6.3337 O   0  0  0  0  0  0  0  0  0  0  0  0
  2  3  2  0
  2  1  1  0
  4  2  1  0
  5  4  1  0
  6  5  1  0
  7  8  1  0
  7  6  1  0
  8  9  1  6
 10  8  1  0
 10 12  1  0
 11 10  2  0
 13 12  1  0
 13 18  1  0
 13 14  1  1
 15 14  1  0
 15 16  1  0
 16 17  2  0
 18 26  1  0
 19 18  2  0
 20 16  1  0
 21 22  1  0
 22 23  1  0
 23 24  1  0
 25 24  1  6
 25 27  1  0
 26 25  1  0
 27 29  2  0
 27 28  1  0
M  END
$$$$
