REM.pdb
     RDKit          3D

 29 28  0  0  1  0  0  0  0  0999 V2000
   26.4088  -25.8225  -15.9517 N   0  0  0  0  0  0  0  0  0  0  0  0
   24.9984  -25.9545  -15.8120 C   0  0  0  0  0  0  0  0  0  0  0  0
   24.3916  -27.0705  -15.6505 N   0  0  0  0  0  0  0  0  0  0  0  0
   24.2104  -24.7520  -15.8561 N   0  0  0  0  0  0  0  0  0  0  0  0
   24.8345  -23.4583  -15.9084 C   0  0  0  0  0  0  0  0  0  0  0  0
   23.8116  -22.3893  -16.0809 C   0  0  0  0  0  0  0  0  0  0  0  0
   22.8874  -22.1756  -14.9354 C   0  0  0  0  0  0  0  0  0  0  0  0
   21.7782  -21.2016  -15.1991 C   0  0  2  0  0  0  0  0  0  0  0  0
   22.2849  -19.8603  -15.4119 N   0  0  0  0  0  0  0  0  0  0  0  0
   20.7746  -21.1705  -14.1213 C   0  0  0  0  0  0  0  0  0  0  0  0
   20.9257  -20.4179  -13.1249 O   0  0  0  0  0  0  0  0  0  0  0  0
   23.3592  -27.1491  -15.6270 N   0  0  0  0  0  0  0  0  0  0  0  0
   19.6062  -21.9754  -14.1531 C   0  0  2  0  0  0  0  0  0  0  0  0
   18.6237  -22.0373  -13.1070 C   0  0  0  0  0  0  0  0  0  0  0  0
   17.3024  -21.4808  -13.5003 C   0  0  0  0  0  0  0  0  0  0  0  0
   16.2238  -21.4327  -12.5016 C   0  0  0  0  0  0  0  0  0  0  0  0
   14.9215  -20.9283  -12.8847 O   0  0  0  0  0  0  0  0  0  0  0  0
   14.6444  -19.7367  -13.1193 C   0  0  0  0  0  0  0  0  0  0  0  0
   18.5968  -23.2881  -12.3362 O   0  0  0  0  0  0  0  0  0  0  0  0
   18.6338  -24.4206  -12.9342 O   0  0  0  0  0  0  0  0  0  0  0  0
   13.8048  -21.8018  -13.0290 C   0  0  0  0  0  0  0  0  0  0  0  0
   18.2533  -26.8422   -5.1899 S   0  0  0  0  0  0  0  0  0  0  0  0
   18.2932  -25.2421   -6.0827 C   0  0  0  0  0  0  0  0  0  0  0  0
   18.2751  -25.6093   -7.8610 C   0  0  0  0  0  0  0  0  0  0  0  0
   18.4141  -24.3637   -8.6942 C   0  0  1  0  0  0  0  0  0  0  0  0
   18.4675  -24.6018  -10.1705 N   0  0  0  0  0  0  0  0  0  0  0  0
   18.5295  -23.3585  -10.9187 C   0  0  0  0  0  0  0  0  0  0  0  0
   17.2544  -25.3261  -10.5896 O   0  0  0  0  0  0  0  0  0  0  0  0
   17.3071  -26.7016  -10.7441 O   0  0  0  0  0  0  0  0  0  0  0  0
  2  3  2  0
  2  1  1  0
  4  2  1  0
  5  4  1  0
  6  5  1  0
  7  8  1  0
  7  6  1  0
  8  9  1  1
 10  8  1  0
 10 12  1  0
 11 10  2  0
 13 12  1  0
 13 18  1  0
 13 14  1  6
 15 14  1  0
 15 16  1  0
 16 17  2  0
 18 26  1  0
 19 18  2  0
 20 16  1  0
 21 22  1  0
 22 23  1  0
 23 24  1  0
 25 24  1  1
 25 27  1  0
 26 25  1  0
 27 29  2  0
 27 28  1  0
M  END
$$$$
