REM.pdb
     RDKit          3D

 29 28  0  0  1  0  0  0  0  0999 V2000
   13.6410  -22.8510   -8.6620 N   0  0  0  0  0  0  0  0  0  0  0  0
   13.2551  -22.1628   -7.4773 C   0  0  0  0  0  0  0  0  0  0  0  0
   13.0582  -20.8993   -7.4096 N   0  0  0  0  0  0  0  0  0  0  0  0
   13.0767  -22.9439   -6.2827 N   0  0  0  0  0  0  0  0  0  0  0  0
   13.3063  -24.3628   -6.2836 C   0  0  0  0  0  0  0  0  0  0  0  0
   13.1169  -24.9254   -4.9175 C   0  0  0  0  0  0  0  0  0  0  0  0
   14.3375  -25.4518   -4.2505 C   0  0  0  0  0  0  0  0  0  0  0  0
   15.4129  -24.4330   -4.0183 C   0  0  2  0  0  0  0  0  0  0  0  0
   16.6888  -24.8735   -4.5467 N   0  0  0  0  0  0  0  0  0  0  0  0
   15.5761  -24.0859   -2.5960 C   0  0  0  0  0  0  0  0  0  0  0  0
   16.5954  -24.4548   -1.9581 O   0  0  0  0  0  0  0  0  0  0  0  0
   12.7865  -20.4203   -6.5325 N   0  0  0  0  0  0  0  0  0  0  0  0
   14.6067  -23.3304   -1.8864 C   0  0  1  0  0  0  0  0  0  0  0  0
   14.7291  -22.9200   -0.5152 C   0  0  0  0  0  0  0  0  0  0  0  0
   14.0044  -21.6593   -0.2063 C   0  0  0  0  0  0  0  0  0  0  0  0
   14.0233  -21.1460    1.1719 C   0  0  0  0  0  0  0  0  0  0  0  0
   13.3599  -19.8947    1.4741 O   0  0  0  0  0  0  0  0  0  0  0  0
   12.1444  -19.6635    1.3289 C   0  0  0  0  0  0  0  0  0  0  0  0
   14.6141  -23.9945    0.4805 O   0  0  0  0  0  0  0  0  0  0  0  0
   13.9019  -25.0316    0.2378 O   0  0  0  0  0  0  0  0  0  0  0  0
   14.0848  -18.7796    1.9858 C   0  0  0  0  0  0  0  0  0  0  0  0
   16.0963  -26.4118    7.9455 S   0  0  0  0  0  0  0  0  0  0  0  0
   16.5966  -25.2743    6.5984 C   0  0  0  0  0  0  0  0  0  0  0  0
   15.5765  -25.6650    5.1478 C   0  0  0  0  0  0  0  0  0  0  0  0
   15.8503  -24.7314    3.9995 C   0  0  1  0  0  0  0  0  0  0  0  0
   15.0438  -25.0014    2.7683 N   0  0  0  0  0  0  0  0  0  0  0  0
   15.2517  -23.9868    1.7503 C   0  0  0  0  0  0  0  0  0  0  0  0
   13.6122  -25.0099    3.1180 O   0  0  0  0  0  0  0  0  0  0  0  0
   12.9772  -26.2207    3.3404 O   0  0  0  0  0  0  0  0  0  0  0  0
  2  3  2  0
  2  1  1  0
  4  2  1  0
  5  4  1  0
  6  5  1  0
  7  8  1  0
  7  6  1  0
  8  9  1  1
 10  8  1  0
 10 12  1  0
 11 10  2  0
 13 12  1  0
 13 18  1  0
 13 14  1  1
 15 14  1  0
 15 16  1  0
 16 17  2  0
 18 26  1  0
 19 18  2  0
 20 16  1  0
 21 22  1  0
 22 23  1  0
 23 24  1  0
 25 24  1  6
 25 27  1  0
 26 25  1  0
 27 29  2  0
 27 28  1  0
M  END
$$$$
