REM.pdb
     RDKit          3D

 29 28  0  0  1  0  0  0  0  0999 V2000
   20.8995  -19.7498  -11.0172 N   0  0  0  0  0  0  0  0  0  0  0  0
   19.7355  -19.0616  -11.4620 C   0  0  0  0  0  0  0  0  0  0  0  0
   19.5412  -17.8045  -11.3145 N   0  0  0  0  0  0  0  0  0  0  0  0
   18.7160  -19.8350  -12.1187 N   0  0  0  0  0  0  0  0  0  0  0  0
   18.8561  -21.2556  -12.2868 C   0  0  0  0  0  0  0  0  0  0  0  0
   19.6927  -21.5624  -13.4804 C   0  0  0  0  0  0  0  0  0  0  0  0
   19.1623  -21.0970  -14.7896 C   0  0  0  0  0  0  0  0  0  0  0  0
   19.9199  -21.5938  -15.9845 C   0  0  2  0  0  0  0  0  0  0  0  0
   19.6800  -23.0038  -16.2202 N   0  0  0  0  0  0  0  0  0  0  0  0
   21.3712  -21.3646  -15.8788 C   0  0  0  0  0  0  0  0  0  0  0  0
   22.1321  -22.2621  -15.4345 O   0  0  0  0  0  0  0  0  0  0  0  0
   18.6762  -17.3301  -11.6295 N   0  0  0  0  0  0  0  0  0  0  0  0
   21.9731  -20.1394  -16.2669 C   0  0  2  0  0  0  0  0  0  0  0  0
   23.3887  -19.9153  -16.3646 C   0  0  0  0  0  0  0  0  0  0  0  0
   23.7547  -18.8454  -17.3296 C   0  0  0  0  0  0  0  0  0  0  0  0
   22.8602  -18.5737  -18.4651 C   0  0  0  0  0  0  0  0  0  0  0  0
   23.2053  -17.5310  -19.4089 O   0  0  0  0  0  0  0  0  0  0  0  0
   22.9381  -16.3207  -19.2839 C   0  0  0  0  0  0  0  0  0  0  0  0
   24.1198  -19.9165  -15.0900 O   0  0  0  0  0  0  0  0  0  0  0  0
   23.8146  -19.0839  -14.1652 O   0  0  0  0  0  0  0  0  0  0  0  0
   23.9116  -17.8272  -20.6106 C   0  0  0  0  0  0  0  0  0  0  0  0
   25.0421  -21.5203   -8.9111 S   0  0  0  0  0  0  0  0  0  0  0  0
   26.1784  -22.4974   -9.9662 C   0  0  0  0  0  0  0  0  0  0  0  0
   26.6987  -21.4308  -11.3407 C   0  0  0  0  0  0  0  0  0  0  0  0
   25.7516  -21.5145  -12.5075 C   0  0  1  0  0  0  0  0  0  0  0  0
   26.0902  -20.6136  -13.6533 N   0  0  0  0  0  0  0  0  0  0  0  0
   25.1871  -20.8001  -14.7752 C   0  0  0  0  0  0  0  0  0  0  0  0
   27.4582  -20.9089  -14.1152 O   0  0  0  0  0  0  0  0  0  0  0  0
   28.5271  -20.6519  -13.2725 O   0  0  0  0  0  0  0  0  0  0  0  0
  2  3  2  0
  2  1  1  0
  4  2  1  0
  5  4  1  0
  6  5  1  0
  7  8  1  0
  7  6  1  0
  8  9  1  1
 10  8  1  0
 10 12  1  0
 11 10  2  0
 13 12  1  0
 13 18  1  0
 13 14  1  6
 15 14  1  0
 15 16  1  0
 16 17  2  0
 18 26  1  0
 19 18  2  0
 20 16  1  0
 21 22  1  0
 22 23  1  0
 23 24  1  0
 25 24  1  1
 25 27  1  0
 26 25  1  0
 27 29  2  0
 27 28  1  0
M  END
$$$$
