REM.pdb
     RDKit          3D

 29 28  0  0  1  0  0  0  0  0999 V2000
   30.6199  -26.0355  -16.7716 N   0  0  0  0  0  0  0  0  0  0  0  0
   31.2293  -25.4155  -17.8987 C   0  0  0  0  0  0  0  0  0  0  0  0
   32.0003  -26.0191  -18.7239 N   0  0  0  0  0  0  0  0  0  0  0  0
   30.9569  -24.0203  -18.1183 N   0  0  0  0  0  0  0  0  0  0  0  0
   29.7680  -23.4057  -17.5942 C   0  0  0  0  0  0  0  0  0  0  0  0
   29.9819  -21.9471  -17.3813 C   0  0  0  0  0  0  0  0  0  0  0  0
   28.9713  -21.2525  -16.5398 C   0  0  0  0  0  0  0  0  0  0  0  0
   28.5099  -22.0313  -15.3444 C   0  0  2  0  0  0  0  0  0  0  0  0
   27.7968  -23.2322  -15.7324 N   0  0  0  0  0  0  0  0  0  0  0  0
   27.6602  -21.2400  -14.4379 C   0  0  0  0  0  0  0  0  0  0  0  0
   28.0404  -20.1166  -14.0190 O   0  0  0  0  0  0  0  0  0  0  0  0
   32.4937  -25.5291  -19.4914 N   0  0  0  0  0  0  0  0  0  0  0  0
   26.3908  -21.6985  -13.9993 C   0  0  1  0  0  0  0  0  0  0  0  0
   25.4984  -20.9573  -13.1520 C   0  0  0  0  0  0  0  0  0  0  0  0
   24.1290  -20.8151  -13.7129 C   0  0  0  0  0  0  0  0  0  0  0  0
   23.0759  -20.2171  -12.8783 C   0  0  0  0  0  0  0  0  0  0  0  0
   21.7474  -20.0412  -13.4271 O   0  0  0  0  0  0  0  0  0  0  0  0
   21.3471  -19.0421  -14.0543 C   0  0  0  0  0  0  0  0  0  0  0  0
   25.5827  -21.2670  -11.7180 O   0  0  0  0  0  0  0  0  0  0  0  0
   25.4401  -22.4711  -11.3040 O   0  0  0  0  0  0  0  0  0  0  0  0
   20.7497  -21.0486  -13.2830 C   0  0  0  0  0  0  0  0  0  0  0  0
   29.2277  -19.3554   -6.3196 S   0  0  0  0  0  0  0  0  0  0  0  0
   27.5376  -18.6592   -6.1854 C   0  0  0  0  0  0  0  0  0  0  0  0
   26.4034  -19.8204   -6.9996 C   0  0  0  0  0  0  0  0  0  0  0  0
   26.1511  -19.4469   -8.4356 C   0  0  2  0  0  0  0  0  0  0  0  0
   25.6109  -20.5548   -9.2840 N   0  0  0  0  0  0  0  0  0  0  0  0
   25.8188  -20.3049  -10.6995 C   0  0  0  0  0  0  0  0  0  0  0  0
   24.1612  -20.6817   -9.0514 O   0  0  0  0  0  0  0  0  0  0  0  0
   23.7126  -21.3629   -7.9319 O   0  0  0  0  0  0  0  0  0  0  0  0
  2  3  2  0
  2  1  1  0
  4  2  1  0
  5  4  1  0
  6  5  1  0
  7  8  1  0
  7  6  1  0
  8  9  1  6
 10  8  1  0
 10 12  1  0
 11 10  2  0
 13 12  1  0
 13 18  1  0
 13 14  1  6
 15 14  1  0
 15 16  1  0
 16 17  2  0
 18 26  1  0
 19 18  2  0
 20 16  1  0
 21 22  1  0
 22 23  1  0
 23 24  1  0
 25 24  1  1
 25 27  1  0
 26 25  1  0
 27 29  2  0
 27 28  1  0
M  END
$$$$
