REM.pdb
     RDKit          3D

 29 28  0  0  1  0  0  0  0  0999 V2000
   30.5296  -21.0507   -9.6502 N   0  0  0  0  0  0  0  0  0  0  0  0
   30.7914  -22.0784  -10.5996 C   0  0  0  0  0  0  0  0  0  0  0  0
   31.7969  -22.8695  -10.5464 N   0  0  0  0  0  0  0  0  0  0  0  0
   29.8618  -22.2321  -11.6865 N   0  0  0  0  0  0  0  0  0  0  0  0
   28.8191  -21.2688  -11.9119 C   0  0  0  0  0  0  0  0  0  0  0  0
   27.8624  -21.2547  -10.7704 C   0  0  0  0  0  0  0  0  0  0  0  0
   26.4222  -21.1411  -11.1237 C   0  0  0  0  0  0  0  0  0  0  0  0
   26.1331  -21.1819  -12.5945 C   0  0  2  0  0  0  0  0  0  0  0  0
   27.2502  -20.6833  -13.3721 N   0  0  0  0  0  0  0  0  0  0  0  0
   24.9197  -20.4316  -12.9612 C   0  0  0  0  0  0  0  0  0  0  0  0
   24.8141  -19.2085  -12.6876 O   0  0  0  0  0  0  0  0  0  0  0  0
   32.0119  -23.5540  -11.2933 N   0  0  0  0  0  0  0  0  0  0  0  0
   23.8272  -21.0418  -13.6305 C   0  0  1  0  0  0  0  0  0  0  0  0
   22.6756  -20.3421  -14.1286 C   0  0  0  0  0  0  0  0  0  0  0  0
   23.0111  -19.0904  -14.8569 C   0  0  0  0  0  0  0  0  0  0  0  0
   24.0196  -19.1370  -15.9266 C   0  0  0  0  0  0  0  0  0  0  0  0
   23.8082  -18.3714  -17.1375 O   0  0  0  0  0  0  0  0  0  0  0  0
   22.8210  -17.6506  -17.3780 C   0  0  0  0  0  0  0  0  0  0  0  0
   21.6347  -21.1848  -14.7331 O   0  0  0  0  0  0  0  0  0  0  0  0
   21.9537  -22.2062  -15.4379 O   0  0  0  0  0  0  0  0  0  0  0  0
   24.7616  -18.3867  -18.1965 C   0  0  0  0  0  0  0  0  0  0  0  0
   18.0066  -25.4124  -10.1063 S   0  0  0  0  0  0  0  0  0  0  0  0
   19.3031  -24.2628  -10.7034 C   0  0  0  0  0  0  0  0  0  0  0  0
   18.7523  -23.6030  -12.3030 C   0  0  0  0  0  0  0  0  0  0  0  0
   19.6858  -22.5449  -12.8267 C   0  0  2  0  0  0  0  0  0  0  0  0
   19.2927  -21.9629  -14.1480 N   0  0  0  0  0  0  0  0  0  0  0  0
   20.2383  -20.9579  -14.6010 C   0  0  0  0  0  0  0  0  0  0  0  0
   17.9715  -21.3222  -14.0226 O   0  0  0  0  0  0  0  0  0  0  0  0
   16.8390  -22.0289  -14.3926 O   0  0  0  0  0  0  0  0  0  0  0  0
  2  3  2  0
  2  1  1  0
  4  2  1  0
  5  4  1  0
  6  5  1  0
  7  8  1  0
  7  6  1  0
  8  9  1  6
 10  8  1  0
 10 12  1  0
 11 10  2  0
 13 12  1  0
 13 18  1  0
 13 14  1  1
 15 14  1  0
 15 16  1  0
 16 17  2  0
 18 26  1  0
 19 18  2  0
 20 16  1  0
 21 22  1  0
 22 23  1  0
 23 24  1  0
 25 24  1  6
 25 27  1  0
 26 25  1  0
 27 29  2  0
 27 28  1  0
M  END
$$$$
