VRL.pdb
     RDKit          3D

 27 26  0  0  1  0  0  0  0  0999 V2000
    7.2493  -12.6045   20.6892 C   0  0  0  0  0  0  0  0  0  0  0  0
    8.4606  -13.0519   19.9024 C   0  0  2  0  0  0  0  0  0  0  0  0
    8.4729  -12.2468   18.6132 C   0  0  0  0  0  0  0  0  0  0  0  0
    8.3773  -14.5228   19.5230 C   0  0  2  0  0  0  0  0  0  0  0  0
    7.2205  -14.7652   18.6810 N   0  0  0  0  0  0  0  0  0  0  0  0
    8.2295  -15.3668   20.7611 C   0  0  0  0  0  0  0  0  0  0  0  0
    7.1010  -15.6711   21.2027 O   0  0  0  0  0  0  0  0  0  0  0  0
   13.1729  -19.8413   25.3473 N   0  0  0  0  0  0  0  0  0  0  0  0
   11.9612  -20.3962   25.8311 C   0  0  0  0  0  0  0  0  0  0  0  0
   11.8285  -20.7127   27.0658 N   0  0  0  0  0  0  0  0  0  0  0  0
   10.8939  -20.6019   24.9438 N   0  0  0  0  0  0  0  0  0  0  0  0
   10.8181  -20.0336   23.6202 C   0  0  0  0  0  0  0  0  0  0  0  0
    9.9402  -18.7876   23.7211 C   0  0  0  0  0  0  0  0  0  0  0  0
   10.0799  -17.9041   22.5122 C   0  0  0  0  0  0  0  0  0  0  0  0
    9.3073  -16.6297   22.6219 C   0  0  2  0  0  0  0  0  0  0  0  0
    9.3885  -15.8177   21.4278 N   0  0  0  0  0  0  0  0  0  0  0  0
    9.5859  -15.8340   23.8374 C   0  0  0  0  0  0  0  0  0  0  0  0
   10.6908  -15.3107   24.1029 O   0  0  0  0  0  0  0  0  0  0  0  0
   10.9435  -21.1088   27.4482 C   0  0  0  0  0  0  0  0  0  0  0  0
    8.1647  -12.0776   25.6203 C   0  0  1  0  0  0  0  0  0  0  0  0
    7.0878  -13.1691   25.6911 C   0  0  0  0  0  0  0  0  0  0  0  0
    5.8298  -12.5068   26.1354 C   0  0  0  0  0  0  0  0  0  0  0  0
    7.6201  -14.2308   26.5826 C   0  0  2  0  0  0  0  0  0  0  0  0
    8.8109  -14.9829   26.0371 N   0  0  0  0  0  0  0  0  0  0  0  0
    8.5507  -15.6269   24.7958 C   0  0  0  0  0  0  0  0  0  0  0  0
    9.4313  -15.8814   27.0452 O   0  0  0  0  0  0  0  0  0  0  0  0
    9.2176  -17.1157   27.0956 O   0  0  0  0  0  0  0  0  0  0  0  0
  2  1  1  1
  2  3  1  0
  4  2  1  0
  4  5  1  6
  6  4  1  0
  6  7  2  0
  9 10  2  0
  9  8  1  0
 11  9  1  0
 12 13  1  0
 12 11  1  0
 13 14  1  0
 15 14  1  6
 15 16  1  0
 16  6  1  0
 17 15  1  0
 18 17  2  0
 20 19  1  6
 20 22  1  0
 21 20  1  0
 23 22  1  6
 23 24  1  0
 24 17  1  0
 25 23  1  0
 25 27  1  0
 26 25  2  0
M  END
$$$$
