VRL.pdb
     RDKit          3D

 27 26  0  0  1  0  0  0  0  0999 V2000
   10.9410  -21.5595   24.4535 C   0  0  0  0  0  0  0  0  0  0  0  0
   10.9069  -20.0563   24.2931 C   0  0  2  0  0  0  0  0  0  0  0  0
   10.2300  -19.4945   25.5327 C   0  0  0  0  0  0  0  0  0  0  0  0
   10.0794  -19.6343   23.0884 C   0  0  2  0  0  0  0  0  0  0  0  0
   10.5793  -20.2674   21.8820 N   0  0  0  0  0  0  0  0  0  0  0  0
   10.1710  -18.1437   22.8969 C   0  0  0  0  0  0  0  0  0  0  0  0
   11.2600  -17.5944   22.6261 O   0  0  0  0  0  0  0  0  0  0  0  0
    8.3080  -12.0525   18.5096 N   0  0  0  0  0  0  0  0  0  0  0  0
    8.0505  -13.4361   18.3371 C   0  0  0  0  0  0  0  0  0  0  0  0
    8.4631  -14.0578   17.2953 N   0  0  0  0  0  0  0  0  0  0  0  0
    7.3326  -14.1322   19.3215 N   0  0  0  0  0  0  0  0  0  0  0  0
    6.9378  -13.5681   20.5890 C   0  0  0  0  0  0  0  0  0  0  0  0
    7.9912  -13.9912   21.6111 C   0  0  0  0  0  0  0  0  0  0  0  0
    7.9409  -15.4682   21.8892 C   0  0  0  0  0  0  0  0  0  0  0  0
    9.0233  -15.9313   22.8095 C   0  0  2  0  0  0  0  0  0  0  0  0
    9.0040  -17.3611   23.0267 N   0  0  0  0  0  0  0  0  0  0  0  0
    9.1150  -15.1911   24.0869 C   0  0  0  0  0  0  0  0  0  0  0  0
    9.2529  -13.9510   24.1779 O   0  0  0  0  0  0  0  0  0  0  0  0
    8.2452  -15.0623   17.1223 C   0  0  0  0  0  0  0  0  0  0  0  0
    8.6669  -12.2774   26.4836 C   0  0  2  0  0  0  0  0  0  0  0  0
    7.5849  -13.3372   26.2340 C   0  0  0  0  0  0  0  0  0  0  0  0
    6.2777  -12.7076   26.5707 C   0  0  0  0  0  0  0  0  0  0  0  0
    7.9656  -14.5272   27.0366 C   0  0  2  0  0  0  0  0  0  0  0  0
    9.2118  -15.2401   26.5672 N   0  0  0  0  0  0  0  0  0  0  0  0
    9.0458  -15.9035   25.3200 C   0  0  0  0  0  0  0  0  0  0  0  0
    9.8057  -16.1069   27.6181 O   0  0  0  0  0  0  0  0  0  0  0  0
   10.0291  -15.7190   28.7892 O   0  0  0  0  0  0  0  0  0  0  0  0
  2  1  1  1
  2  3  1  0
  4  2  1  0
  4  5  1  6
  6  4  1  0
  6  7  2  0
  9 10  2  0
  9  8  1  0
 11  9  1  0
 12 13  1  0
 12 11  1  0
 13 14  1  0
 15 14  1  1
 15 16  1  0
 16  6  1  0
 17 15  1  0
 18 17  2  0
 20 19  1  6
 20 22  1  0
 21 20  1  0
 23 22  1  6
 23 24  1  0
 24 17  1  0
 25 23  1  0
 25 27  1  0
 26 25  2  0
M  END
$$$$
