VRL.pdb
     RDKit          3D

 27 26  0  0  1  0  0  0  0  0999 V2000
    7.5246  -12.7703   21.1294 C   0  0  0  0  0  0  0  0  0  0  0  0
    8.4932  -13.0044   19.9921 C   0  0  2  0  0  0  0  0  0  0  0  0
    7.9346  -12.2789   18.7789 C   0  0  0  0  0  0  0  0  0  0  0  0
    8.6005  -14.4791   19.6346 C   0  0  2  0  0  0  0  0  0  0  0  0
    7.5656  -14.8484   18.6867 N   0  0  0  0  0  0  0  0  0  0  0  0
    8.4164  -15.3231   20.8679 C   0  0  0  0  0  0  0  0  0  0  0  0
    7.2763  -15.6509   21.2602 O   0  0  0  0  0  0  0  0  0  0  0  0
   11.2491  -20.1481   19.3956 N   0  0  0  0  0  0  0  0  0  0  0  0
    9.8493  -20.2221   19.1824 C   0  0  0  0  0  0  0  0  0  0  0  0
    9.3548  -20.0995   18.0065 N   0  0  0  0  0  0  0  0  0  0  0  0
    8.9951  -20.4315   20.2757 N   0  0  0  0  0  0  0  0  0  0  0  0
    9.1806  -19.8355   21.5761 C   0  0  0  0  0  0  0  0  0  0  0  0
   10.0301  -18.5823   21.3734 C   0  0  0  0  0  0  0  0  0  0  0  0
   10.2469  -17.8377   22.6619 C   0  0  0  0  0  0  0  0  0  0  0  0
    9.4395  -16.5842   22.7606 C   0  0  2  0  0  0  0  0  0  0  0  0
    9.5541  -15.7470   21.5868 N   0  0  0  0  0  0  0  0  0  0  0  0
    9.6442  -15.8065   24.0021 C   0  0  0  0  0  0  0  0  0  0  0  0
   10.7268  -15.2743   24.3335 O   0  0  0  0  0  0  0  0  0  0  0  0
    8.3293  -20.0203   17.8381 C   0  0  0  0  0  0  0  0  0  0  0  0
    8.2837  -12.1091   25.7399 C   0  0  2  0  0  0  0  0  0  0  0  0
    7.1601  -13.1549   25.7408 C   0  0  0  0  0  0  0  0  0  0  0  0
    5.9031  -12.4382   26.0942 C   0  0  0  0  0  0  0  0  0  0  0  0
    7.5851  -14.2312   26.6715 C   0  0  2  0  0  0  0  0  0  0  0  0
    8.7562  -15.0584   26.1965 N   0  0  0  0  0  0  0  0  0  0  0  0
    8.5582  -15.6289   24.9087 C   0  0  0  0  0  0  0  0  0  0  0  0
    9.2095  -16.0447   27.2115 O   0  0  0  0  0  0  0  0  0  0  0  0
    9.1760  -17.2852   27.0331 O   0  0  0  0  0  0  0  0  0  0  0  0
  2  1  1  1
  2  3  1  0
  4  2  1  0
  4  5  1  6
  6  4  1  0
  6  7  2  0
  9 10  2  0
  9  8  1  0
 11  9  1  0
 12 13  1  0
 12 11  1  0
 13 14  1  0
 15 14  1  6
 15 16  1  0
 16  6  1  0
 17 15  1  0
 18 17  2  0
 20 19  1  6
 20 22  1  0
 21 20  1  0
 23 22  1  6
 23 24  1  0
 24 17  1  0
 25 23  1  0
 25 27  1  0
 26 25  2  0
M  END
$$$$
