VRL.pdb
     RDKit          3D

 27 26  0  0  1  0  0  0  0  0999 V2000
    7.6865  -12.1168   18.6386 C   0  0  0  0  0  0  0  0  0  0  0  0
    7.6141  -13.0952   19.7893 C   0  0  2  0  0  0  0  0  0  0  0  0
    8.4754  -12.5289   20.9063 C   0  0  0  0  0  0  0  0  0  0  0  0
    8.1864  -14.4538   19.4137 C   0  0  2  0  0  0  0  0  0  0  0  0
    7.4025  -15.0594   18.3532 N   0  0  0  0  0  0  0  0  0  0  0  0
    8.1430  -15.3776   20.6019 C   0  0  0  0  0  0  0  0  0  0  0  0
    7.0712  -15.9032   20.9709 O   0  0  0  0  0  0  0  0  0  0  0  0
   11.9466  -22.5912   24.6319 N   0  0  0  0  0  0  0  0  0  0  0  0
   10.7361  -21.8761   24.4490 C   0  0  0  0  0  0  0  0  0  0  0  0
    9.7761  -21.9799   25.2915 N   0  0  0  0  0  0  0  0  0  0  0  0
   10.5886  -21.0445   23.3284 N   0  0  0  0  0  0  0  0  0  0  0  0
   11.3192  -19.8171   23.1272 C   0  0  0  0  0  0  0  0  0  0  0  0
   10.3378  -18.6714   23.3671 C   0  0  0  0  0  0  0  0  0  0  0  0
   10.3168  -17.7015   22.2182 C   0  0  0  0  0  0  0  0  0  0  0  0
    9.3639  -16.5685   22.4214 C   0  0  2  0  0  0  0  0  0  0  0  0
    9.3358  -15.6494   21.3050 N   0  0  0  0  0  0  0  0  0  0  0  0
    9.5107  -15.8531   23.7077 C   0  0  0  0  0  0  0  0  0  0  0  0
   10.5547  -15.2725   24.0796 O   0  0  0  0  0  0  0  0  0  0  0  0
    8.8741  -21.4709   25.1749 C   0  0  0  0  0  0  0  0  0  0  0  0
    8.0012  -12.2268   25.9545 C   0  0  1  0  0  0  0  0  0  0  0  0
    6.9163  -13.2559   25.6080 C   0  0  0  0  0  0  0  0  0  0  0  0
    5.6063  -12.6335   25.9470 C   0  0  0  0  0  0  0  0  0  0  0  0
    7.2619  -14.4985   26.3442 C   0  0  2  0  0  0  0  0  0  0  0  0
    8.5310  -15.1779   25.8868 N   0  0  0  0  0  0  0  0  0  0  0  0
    8.4103  -15.7990   24.6129 C   0  0  0  0  0  0  0  0  0  0  0  0
    9.1067  -16.0734   26.9237 O   0  0  0  0  0  0  0  0  0  0  0  0
    9.5561  -15.6626   28.0195 O   0  0  0  0  0  0  0  0  0  0  0  0
  2  1  1  6
  2  3  1  0
  4  2  1  0
  4  5  1  6
  6  4  1  0
  6  7  2  0
  9 10  2  0
  9  8  1  0
 11  9  1  0
 12 13  1  0
 12 11  1  0
 13 14  1  0
 15 14  1  6
 15 16  1  0
 16  6  1  0
 17 15  1  0
 18 17  2  0
 20 19  1  6
 20 22  1  0
 21 20  1  0
 23 22  1  6
 23 24  1  0
 24 17  1  0
 25 23  1  0
 25 27  1  0
 26 25  2  0
M  END
$$$$
