VRL.pdb
     RDKit          3D

 27 26  0  0  1  0  0  0  0  0999 V2000
    7.4312  -12.8313   19.7161 C   0  0  0  0  0  0  0  0  0  0  0  0
    8.6145  -13.5368   19.0929 C   0  0  2  0  0  0  0  0  0  0  0  0
    8.7681  -12.9840   17.6853 C   0  0  0  0  0  0  0  0  0  0  0  0
    8.3813  -15.0354   18.9734 C   0  0  2  0  0  0  0  0  0  0  0  0
    7.5028  -15.3250   17.8552 N   0  0  0  0  0  0  0  0  0  0  0  0
    7.7214  -15.5554   20.2229 C   0  0  0  0  0  0  0  0  0  0  0  0
    6.5575  -15.2167   20.5259 O   0  0  0  0  0  0  0  0  0  0  0  0
   10.1769  -21.6990   23.7472 N   0  0  0  0  0  0  0  0  0  0  0  0
    9.8318  -21.1727   25.0177 C   0  0  0  0  0  0  0  0  0  0  0  0
   10.6073  -21.3253   26.0265 N   0  0  0  0  0  0  0  0  0  0  0  0
    8.6233  -20.4763   25.1708 N   0  0  0  0  0  0  0  0  0  0  0  0
    7.6638  -20.2740   24.1130 C   0  0  0  0  0  0  0  0  0  0  0  0
    7.5302  -18.7651   23.9168 C   0  0  0  0  0  0  0  0  0  0  0  0
    8.0734  -18.3227   22.5861 C   0  0  0  0  0  0  0  0  0  0  0  0
    7.9106  -16.8575   22.3414 C   0  0  2  0  0  0  0  0  0  0  0  0
    8.4349  -16.4392   21.0600 N   0  0  0  0  0  0  0  0  0  0  0  0
    8.3927  -15.9852   23.4343 C   0  0  0  0  0  0  0  0  0  0  0  0
    9.5705  -15.5789   23.5484 O   0  0  0  0  0  0  0  0  0  0  0  0
   10.3873  -20.9275   26.9643 C   0  0  0  0  0  0  0  0  0  0  0  0
    6.5433  -12.7701   27.8274 C   0  0  1  0  0  0  0  0  0  0  0  0
    7.1779  -12.3822   26.4847 C   0  0  0  0  0  0  0  0  0  0  0  0
    6.6876  -11.0151   26.1539 C   0  0  0  0  0  0  0  0  0  0  0  0
    6.8226  -13.4567   25.5231 C   0  0  2  0  0  0  0  0  0  0  0  0
    7.8477  -14.5582   25.3915 N   0  0  0  0  0  0  0  0  0  0  0  0
    7.4840  -15.5568   24.4461 C   0  0  0  0  0  0  0  0  0  0  0  0
    8.2597  -15.1169   26.7055 O   0  0  0  0  0  0  0  0  0  0  0  0
    9.2416  -14.6930   27.3595 O   0  0  0  0  0  0  0  0  0  0  0  0
  2  1  1  6
  2  3  1  0
  4  2  1  0
  4  5  1  6
  6  4  1  0
  6  7  2  0
  9 10  2  0
  9  8  1  0
 11  9  1  0
 12 13  1  0
 12 11  1  0
 13 14  1  0
 15 14  1  1
 15 16  1  0
 16  6  1  0
 17 15  1  0
 18 17  2  0
 20 19  1  1
 20 22  1  0
 21 20  1  0
 23 22  1  6
 23 24  1  0
 24 17  1  0
 25 23  1  0
 25 27  1  0
 26 25  2  0
M  END
$$$$
