VRL.pdb
     RDKit          3D

 27 26  0  0  1  0  0  0  0  0999 V2000
    6.7016  -21.3138   22.4640 C   0  0  0  0  0  0  0  0  0  0  0  0
    6.3405  -21.0208   23.9028 C   0  0  2  0  0  0  0  0  0  0  0  0
    5.0921  -21.8282   24.2188 C   0  0  0  0  0  0  0  0  0  0  0  0
    6.0019  -19.5527   24.1136 C   0  0  2  0  0  0  0  0  0  0  0  0
    4.8505  -19.1773   23.3141 N   0  0  0  0  0  0  0  0  0  0  0  0
    7.1595  -18.6903   23.6854 C   0  0  0  0  0  0  0  0  0  0  0  0
    8.2943  -18.8395   24.1864 O   0  0  0  0  0  0  0  0  0  0  0  0
    8.0798  -15.2119   16.5438 N   0  0  0  0  0  0  0  0  0  0  0  0
    8.3659  -14.0268   17.2677 C   0  0  0  0  0  0  0  0  0  0  0  0
    8.0620  -12.8758   16.7935 N   0  0  0  0  0  0  0  0  0  0  0  0
    8.9917  -14.1177   18.5204 N   0  0  0  0  0  0  0  0  0  0  0  0
    9.4086  -15.3561   19.1311 C   0  0  0  0  0  0  0  0  0  0  0  0
    8.9911  -15.2903   20.5990 C   0  0  0  0  0  0  0  0  0  0  0  0
    7.9604  -16.3323   20.9358 C   0  0  0  0  0  0  0  0  0  0  0  0
    7.9745  -16.7305   22.3760 C   0  0  2  0  0  0  0  0  0  0  0  0
    6.9518  -17.6998   22.7021 N   0  0  0  0  0  0  0  0  0  0  0  0
    7.9778  -15.6040   23.3347 C   0  0  0  0  0  0  0  0  0  0  0  0
    7.4037  -14.5092   23.1422 O   0  0  0  0  0  0  0  0  0  0  0  0
    8.3483  -11.9877   17.2580 C   0  0  0  0  0  0  0  0  0  0  0  0
    5.8289  -12.8491   27.2433 C   0  0  1  0  0  0  0  0  0  0  0  0
    7.2986  -13.0339   26.8410 C   0  0  0  0  0  0  0  0  0  0  0  0
    7.7994  -11.6994   26.4088 C   0  0  0  0  0  0  0  0  0  0  0  0
    7.3242  -14.1075   25.8152 C   0  0  2  0  0  0  0  0  0  0  0  0
    8.6920  -14.6787   25.5250 N   0  0  0  0  0  0  0  0  0  0  0  0
    8.6713  -15.7357   24.5735 C   0  0  0  0  0  0  0  0  0  0  0  0
    9.4453  -15.0166   26.7607 O   0  0  0  0  0  0  0  0  0  0  0  0
    9.8044  -16.1812   27.0545 O   0  0  0  0  0  0  0  0  0  0  0  0
  2  1  1  6
  2  3  1  0
  4  2  1  0
  4  5  1  6
  6  4  1  0
  6  7  2  0
  9 10  2  0
  9  8  1  0
 11  9  1  0
 12 13  1  0
 12 11  1  0
 13 14  1  0
 15 14  1  6
 15 16  1  0
 16  6  1  0
 17 15  1  0
 18 17  2  0
 20 19  1  1
 20 22  1  0
 21 20  1  0
 23 22  1  6
 23 24  1  0
 24 17  1  0
 25 23  1  0
 25 27  1  0
 26 25  2  0
M  END
$$$$
