VRL.pdb
     RDKit          3D

 27 26  0  0  1  0  0  0  0  0999 V2000
    7.0704  -14.7822   19.0344 C   0  0  0  0  0  0  0  0  0  0  0  0
    7.3490  -13.4029   19.5880 C   0  0  2  0  0  0  0  0  0  0  0  0
    7.5417  -12.4788   18.3967 C   0  0  0  0  0  0  0  0  0  0  0  0
    8.6314  -13.3696   20.4056 C   0  0  2  0  0  0  0  0  0  0  0  0
    9.7332  -13.9295   19.6451 N   0  0  0  0  0  0  0  0  0  0  0  0
    8.4682  -14.1954   21.6540 C   0  0  0  0  0  0  0  0  0  0  0  0
    7.5254  -13.9861   22.4467 O   0  0  0  0  0  0  0  0  0  0  0  0
   12.4431  -20.6859   20.3857 N   0  0  0  0  0  0  0  0  0  0  0  0
   11.3243  -20.3648   19.5761 C   0  0  0  0  0  0  0  0  0  0  0  0
   11.3641  -20.5230   18.3050 N   0  0  0  0  0  0  0  0  0  0  0  0
   10.1586  -19.8658   20.1769 N   0  0  0  0  0  0  0  0  0  0  0  0
   10.0181  -19.6140   21.5902 C   0  0  0  0  0  0  0  0  0  0  0  0
    9.3178  -18.2640   21.7336 C   0  0  0  0  0  0  0  0  0  0  0  0
    9.9169  -17.4363   22.8370 C   0  0  0  0  0  0  0  0  0  0  0  0
    9.2204  -16.1295   23.0372 C   0  0  2  0  0  0  0  0  0  0  0  0
    9.3988  -15.2206   21.9264 N   0  0  0  0  0  0  0  0  0  0  0  0
    9.4987  -15.4658   24.3295 C   0  0  0  0  0  0  0  0  0  0  0  0
   10.5841  -14.9179   24.6245 O   0  0  0  0  0  0  0  0  0  0  0  0
   10.5728  -20.2501   17.6839 C   0  0  0  0  0  0  0  0  0  0  0  0
    8.3252  -11.8639   26.1799 C   0  0  2  0  0  0  0  0  0  0  0  0
    7.2268  -12.9361   26.1784 C   0  0  0  0  0  0  0  0  0  0  0  0
    5.9468  -12.2439   26.4963 C   0  0  0  0  0  0  0  0  0  0  0  0
    7.6596  -13.9860   27.1353 C   0  0  2  0  0  0  0  0  0  0  0  0
    8.7501  -14.8998   26.6280 N   0  0  0  0  0  0  0  0  0  0  0  0
    8.4869  -15.4271   25.3334 C   0  0  0  0  0  0  0  0  0  0  0  0
    9.1322  -15.9399   27.6183 O   0  0  0  0  0  0  0  0  0  0  0  0
    9.0758  -17.1703   27.3850 O   0  0  0  0  0  0  0  0  0  0  0  0
  2  1  1  6
  2  3  1  0
  4  2  1  0
  4  5  1  6
  6  4  1  0
  6  7  2  0
  9 10  2  0
  9  8  1  0
 11  9  1  0
 12 13  1  0
 12 11  1  0
 13 14  1  0
 15 14  1  6
 15 16  1  0
 16  6  1  0
 17 15  1  0
 18 17  2  0
 20 19  1  6
 20 22  1  0
 21 20  1  0
 23 22  1  6
 23 24  1  0
 24 17  1  0
 25 23  1  0
 25 27  1  0
 26 25  2  0
M  END
$$$$
