VRL.pdb
     RDKit          3D

 27 26  0  0  1  0  0  0  0  0999 V2000
    6.9807  -12.6530   20.7205 C   0  0  0  0  0  0  0  0  0  0  0  0
    8.3625  -12.7877   20.1214 C   0  0  2  0  0  0  0  0  0  0  0  0
    8.3909  -11.9183   18.8750 C   0  0  0  0  0  0  0  0  0  0  0  0
    8.6553  -14.2168   19.6897 C   0  0  2  0  0  0  0  0  0  0  0  0
    7.6964  -14.6522   18.6914 N   0  0  0  0  0  0  0  0  0  0  0  0
    8.5434  -15.1449   20.8700 C   0  0  0  0  0  0  0  0  0  0  0  0
    7.4414  -15.6264   21.2091 O   0  0  0  0  0  0  0  0  0  0  0  0
   13.6608  -19.4521   23.3832 N   0  0  0  0  0  0  0  0  0  0  0  0
   12.5110  -20.2340   23.6604 C   0  0  0  0  0  0  0  0  0  0  0  0
   12.4722  -21.0096   24.6798 N   0  0  0  0  0  0  0  0  0  0  0  0
   11.4016  -20.1570   22.8047 N   0  0  0  0  0  0  0  0  0  0  0  0
   11.4238  -19.5400   21.5011 C   0  0  0  0  0  0  0  0  0  0  0  0
   10.4061  -18.4013   21.5310 C   0  0  0  0  0  0  0  0  0  0  0  0
   10.6524  -17.4594   22.6771 C   0  0  0  0  0  0  0  0  0  0  0  0
    9.6566  -16.3476   22.7498 C   0  0  2  0  0  0  0  0  0  0  0  0
    9.7059  -15.4716   21.6000 N   0  0  0  0  0  0  0  0  0  0  0  0
    9.6687  -15.5812   24.0149 C   0  0  0  0  0  0  0  0  0  0  0  0
    9.6411  -14.3324   24.0863 O   0  0  0  0  0  0  0  0  0  0  0  0
   11.6680  -21.6460   24.8662 C   0  0  0  0  0  0  0  0  0  0  0  0
    8.3190  -13.0430   26.9422 C   0  0  1  0  0  0  0  0  0  0  0  0
    7.4963  -13.8867   25.9586 C   0  0  0  0  0  0  0  0  0  0  0  0
    6.0890  -13.4074   26.0503 C   0  0  0  0  0  0  0  0  0  0  0  0
    7.7301  -15.3074   26.3221 C   0  0  2  0  0  0  0  0  0  0  0  0
    9.1826  -15.7024   26.4466 N   0  0  0  0  0  0  0  0  0  0  0  0
    9.7146  -16.2765   25.2589 C   0  0  0  0  0  0  0  0  0  0  0  0
    9.4532  -16.5134   27.6622 O   0  0  0  0  0  0  0  0  0  0  0  0
    9.0935  -17.7074   27.7906 O   0  0  0  0  0  0  0  0  0  0  0  0
  2  1  1  6
  2  3  1  0
  4  2  1  0
  4  5  1  6
  6  4  1  0
  6  7  2  0
  9 10  2  0
  9  8  1  0
 11  9  1  0
 12 13  1  0
 12 11  1  0
 13 14  1  0
 15 14  1  1
 15 16  1  0
 16  6  1  0
 17 15  1  0
 18 17  2  0
 20 19  1  6
 20 22  1  0
 21 20  1  0
 23 22  1  6
 23 24  1  0
 24 17  1  0
 25 23  1  0
 25 27  1  0
 26 25  2  0
M  END
$$$$
