VRL.pdb
     RDKit          3D

 27 26  0  0  1  0  0  0  0  0999 V2000
    7.8865  -13.0157   17.1607 C   0  0  0  0  0  0  0  0  0  0  0  0
    7.6576  -13.6693   18.5049 C   0  0  2  0  0  0  0  0  0  0  0  0
    7.0328  -12.6180   19.4074 C   0  0  0  0  0  0  0  0  0  0  0  0
    8.9634  -14.1090   19.1500 C   0  0  2  0  0  0  0  0  0  0  0  0
    9.6344  -15.0918   18.3194 N   0  0  0  0  0  0  0  0  0  0  0  0
    8.6889  -14.7470   20.4860 C   0  0  0  0  0  0  0  0  0  0  0  0
    8.0430  -14.1426   21.3683 O   0  0  0  0  0  0  0  0  0  0  0  0
   10.1140  -19.8886   26.0206 N   0  0  0  0  0  0  0  0  0  0  0  0
   11.1456  -19.9242   25.0487 C   0  0  0  0  0  0  0  0  0  0  0  0
   12.3476  -19.5991   25.3519 N   0  0  0  0  0  0  0  0  0  0  0  0
   10.8441  -20.3202   23.7368 N   0  0  0  0  0  0  0  0  0  0  0  0
    9.5119  -20.3512   23.1845 C   0  0  0  0  0  0  0  0  0  0  0  0
    8.9860  -18.9173   23.2122 C   0  0  0  0  0  0  0  0  0  0  0  0
    9.2871  -18.1851   21.9338 C   0  0  0  0  0  0  0  0  0  0  0  0
    8.8246  -16.7641   21.9462 C   0  0  2  0  0  0  0  0  0  0  0  0
    9.1719  -16.0486   20.7382 N   0  0  0  0  0  0  0  0  0  0  0  0
    9.1968  -15.9976   23.1552 C   0  0  0  0  0  0  0  0  0  0  0  0
   10.3160  -15.4706   23.3425 O   0  0  0  0  0  0  0  0  0  0  0  0
   13.1135  -19.5733   24.6455 C   0  0  0  0  0  0  0  0  0  0  0  0
    5.9892  -12.4992   26.9176 C   0  0  1  0  0  0  0  0  0  0  0  0
    7.3914  -13.0555   26.6343 C   0  0  0  0  0  0  0  0  0  0  0  0
    8.2862  -11.8839   26.4212 C   0  0  0  0  0  0  0  0  0  0  0  0
    7.2518  -13.9907   25.4892 C   0  0  2  0  0  0  0  0  0  0  0  0
    8.4494  -14.8769   25.2407 N   0  0  0  0  0  0  0  0  0  0  0  0
    8.2430  -15.8253   24.2010 C   0  0  0  0  0  0  0  0  0  0  0  0
    8.9828  -15.4818   26.4890 O   0  0  0  0  0  0  0  0  0  0  0  0
    9.9637  -15.0185   27.1172 O   0  0  0  0  0  0  0  0  0  0  0  0
  2  1  1  6
  2  3  1  0
  4  2  1  0
  4  5  1  6
  6  4  1  0
  6  7  2  0
  9 10  2  0
  9  8  1  0
 11  9  1  0
 12 13  1  0
 12 11  1  0
 13 14  1  0
 15 14  1  6
 15 16  1  0
 16  6  1  0
 17 15  1  0
 18 17  2  0
 20 19  1  1
 20 22  1  0
 21 20  1  0
 23 22  1  6
 23 24  1  0
 24 17  1  0
 25 23  1  0
 25 27  1  0
 26 25  2  0
M  END
$$$$
