VRL.pdb
     RDKit          3D

 27 26  0  0  1  0  0  0  0  0999 V2000
    7.3697  -12.4876   20.5298 C   0  0  0  0  0  0  0  0  0  0  0  0
    8.5859  -13.0562   19.8341 C   0  0  2  0  0  0  0  0  0  0  0  0
    8.6876  -12.3639   18.4847 C   0  0  0  0  0  0  0  0  0  0  0  0
    8.4430  -14.5482   19.5737 C   0  0  2  0  0  0  0  0  0  0  0  0
    7.3174  -14.8046   18.6943 N   0  0  0  0  0  0  0  0  0  0  0  0
    8.1901  -15.2752   20.8677 C   0  0  0  0  0  0  0  0  0  0  0  0
    7.0273  -15.4639   21.2845 O   0  0  0  0  0  0  0  0  0  0  0  0
   12.7853  -20.5043   22.6279 N   0  0  0  0  0  0  0  0  0  0  0  0
   12.6698  -20.3451   24.0320 C   0  0  0  0  0  0  0  0  0  0  0  0
   13.6893  -20.4813   24.7964 N   0  0  0  0  0  0  0  0  0  0  0  0
   11.4205  -20.0352   24.5908 N   0  0  0  0  0  0  0  0  0  0  0  0
   10.1739  -20.0812   23.8665 C   0  0  0  0  0  0  0  0  0  0  0  0
    9.5378  -18.6978   23.9885 C   0  0  0  0  0  0  0  0  0  0  0  0
    9.7452  -17.8742   22.7475 C   0  0  0  0  0  0  0  0  0  0  0  0
    9.1048  -16.5260   22.8217 C   0  0  2  0  0  0  0  0  0  0  0  0
    9.2886  -15.7484   21.6163 N   0  0  0  0  0  0  0  0  0  0  0  0
    9.4421  -15.7408   24.0291 C   0  0  0  0  0  0  0  0  0  0  0  0
   10.5722  -15.2602   24.2678 O   0  0  0  0  0  0  0  0  0  0  0  0
   13.6240  -20.3993   25.8334 C   0  0  0  0  0  0  0  0  0  0  0  0
    8.0824  -11.9955   25.4323 C   0  0  1  0  0  0  0  0  0  0  0  0
    7.0019  -13.0389   25.7483 C   0  0  0  0  0  0  0  0  0  0  0  0
    5.7937  -12.2891   26.1918 C   0  0  0  0  0  0  0  0  0  0  0  0
    7.5938  -13.9737   26.7388 C   0  0  2  0  0  0  0  0  0  0  0  0
    8.7409  -14.8085   26.2206 N   0  0  0  0  0  0  0  0  0  0  0  0
    8.4385  -15.4934   25.0112 C   0  0  0  0  0  0  0  0  0  0  0  0
    9.3238  -15.6912   27.2645 O   0  0  0  0  0  0  0  0  0  0  0  0
    9.3563  -16.9411   27.1734 O   0  0  0  0  0  0  0  0  0  0  0  0
  2  1  1  6
  2  3  1  0
  4  2  1  0
  4  5  1  6
  6  4  1  0
  6  7  2  0
  9 10  2  0
  9  8  1  0
 11  9  1  0
 12 13  1  0
 12 11  1  0
 13 14  1  0
 15 14  1  6
 15 16  1  0
 16  6  1  0
 17 15  1  0
 18 17  2  0
 20 19  1  6
 20 22  1  0
 21 20  1  0
 23 22  1  6
 23 24  1  0
 24 17  1  0
 25 23  1  0
 25 27  1  0
 26 25  2  0
M  END
$$$$
