VRL.pdb
     RDKit          3D

 27 26  0  0  1  0  0  0  0  0999 V2000
    8.1237  -12.6299   17.8667 C   0  0  0  0  0  0  0  0  0  0  0  0
    7.7986  -13.5269   19.0398 C   0  0  2  0  0  0  0  0  0  0  0  0
    6.8480  -12.7529   19.9384 C   0  0  0  0  0  0  0  0  0  0  0  0
    9.0367  -13.8573   19.8597 C   0  0  2  0  0  0  0  0  0  0  0  0
    9.9824  -14.6203   19.0664 N   0  0  0  0  0  0  0  0  0  0  0  0
    8.6568  -14.6943   21.0523 C   0  0  0  0  0  0  0  0  0  0  0  0
    7.7793  -14.3115   21.8551 O   0  0  0  0  0  0  0  0  0  0  0  0
    7.1347  -21.6370   20.5681 N   0  0  0  0  0  0  0  0  0  0  0  0
    7.9785  -21.3928   19.4551 C   0  0  0  0  0  0  0  0  0  0  0  0
    7.6782  -21.8365   18.2910 N   0  0  0  0  0  0  0  0  0  0  0  0
    9.1592  -20.6557   19.6331 N   0  0  0  0  0  0  0  0  0  0  0  0
    9.6279  -20.1697   20.9078 C   0  0  0  0  0  0  0  0  0  0  0  0
    9.0449  -18.7698   21.0913 C   0  0  0  0  0  0  0  0  0  0  0  0
    9.5487  -18.1130   22.3467 C   0  0  0  0  0  0  0  0  0  0  0  0
    9.1207  -16.6873   22.4778 C   0  0  2  0  0  0  0  0  0  0  0  0
    9.3064  -15.9296   21.2599 N   0  0  0  0  0  0  0  0  0  0  0  0
    9.6763  -15.9744   23.6487 C   0  0  0  0  0  0  0  0  0  0  0  0
   10.4223  -14.9724   23.5788 O   0  0  0  0  0  0  0  0  0  0  0  0
    8.3059  -21.7136   17.4681 C   0  0  0  0  0  0  0  0  0  0  0  0
    6.6594  -12.6231   26.2992 C   0  0  1  0  0  0  0  0  0  0  0  0
    7.8555  -13.4635   26.7674 C   0  0  0  0  0  0  0  0  0  0  0  0
    8.9381  -12.5081   27.1331 C   0  0  0  0  0  0  0  0  0  0  0  0
    8.1624  -14.4120   25.6667 C   0  0  2  0  0  0  0  0  0  0  0  0
    9.1311  -15.5135   26.0266 N   0  0  0  0  0  0  0  0  0  0  0  0
    9.3639  -16.4293   24.9634 C   0  0  0  0  0  0  0  0  0  0  0  0
    8.7893  -16.1798   27.3103 O   0  0  0  0  0  0  0  0  0  0  0  0
    7.7682  -16.8893   27.4702 O   0  0  0  0  0  0  0  0  0  0  0  0
  2  1  1  6
  2  3  1  0
  4  2  1  0
  4  5  1  6
  6  4  1  0
  6  7  2  0
  9 10  2  0
  9  8  1  0
 11  9  1  0
 12 13  1  0
 12 11  1  0
 13 14  1  0
 15 14  1  6
 15 16  1  0
 16  6  1  0
 17 15  1  0
 18 17  2  0
 20 19  1  1
 20 22  1  0
 21 20  1  0
 23 22  1  6
 23 24  1  0
 24 17  1  0
 25 23  1  0
 25 27  1  0
 26 25  2  0
M  END
$$$$
