CTL.pdb
     RDKit          3D

 22 21  0  0  1  0  0  0  0  0999 V2000
   20.8591  -15.5531  -18.1855 N   0  0  0  0  0  0  0  0  0  0  0  0
   20.0308  -14.3837  -18.3809 C   0  0  1  0  0  0  0  0  0  0  0  0
   18.8857  -14.4619  -17.3723 C   0  0  0  0  0  0  0  0  0  0  0  0
   17.5709  -15.5311  -18.0015 S   0  0  0  0  0  0  0  0  0  0  0  0
   20.7935  -13.1331  -18.1910 C   0  0  0  0  0  0  0  0  0  0  0  0
   21.8003  -13.1763  -17.4194 O   0  0  0  0  0  0  0  0  0  0  0  0
   21.6932   -8.3943  -19.3755 C   0  0  0  0  0  0  0  0  0  0  0  0
   20.9349   -9.6673  -19.6726 C   0  0  1  0  0  0  0  0  0  0  0  0
   21.3571  -10.1246  -20.9185 O   0  0  0  0  0  0  0  0  0  0  0  0
   21.1662  -10.7106  -18.5936 C   0  0  2  0  0  0  0  0  0  0  0  0
   20.4340  -11.9138  -18.8369 N   0  0  0  0  0  0  0  0  0  0  0  0
   20.8217  -10.1578  -17.2525 C   0  0  0  0  0  0  0  0  0  0  0  0
   19.6247  -10.2011  -16.8694 O   0  0  0  0  0  0  0  0  0  0  0  0
   22.7657   -9.8007  -11.6124 C   0  0  0  0  0  0  0  0  0  0  0  0
   21.7340   -9.3119  -12.6286 C   0  0  2  0  0  0  0  0  0  0  0  0
   20.3782   -9.5767  -12.0679 C   0  0  0  0  0  0  0  0  0  0  0  0
   21.9813   -9.9079  -13.9793 C   0  0  0  0  0  0  0  0  0  0  0  0
   21.4133   -9.0789  -15.0644 C   0  0  2  0  0  0  0  0  0  0  0  0
   21.7682   -9.5869  -16.3866 N   0  0  0  0  0  0  0  0  0  0  0  0
   21.8025   -7.6695  -14.9866 C   0  0  0  0  0  0  0  0  0  0  0  0
   21.2538   -6.8659  -14.2281 O   0  0  0  0  0  0  0  0  0  0  0  0
   22.8293   -7.1872  -15.7885 O   0  0  0  0  0  0  0  0  0  0  0  0
  2  1  1  1
  3  2  1  0
  4  3  1  0
  5 11  1  0
  5  2  1  0
  6  5  2  0
  8 10  1  0
  8  7  1  1
  9  8  1  0
 10 11  1  6
 10 12  1  0
 12 19  1  0
 13 12  2  0
 15 14  1  1
 16 15  1  0
 17 15  1  0
 18 17  1  1
 19 18  1  0
 20 18  1  0
 20 22  1  0
 21 20  2  0
M  END
$$$$
