CTL.pdb
     RDKit          3D

 22 21  0  0  1  0  0  0  0  0999 V2000
   23.4037  -13.1382  -17.7009 N   0  0  0  0  0  0  0  0  0  0  0  0
   23.7286  -12.1579  -16.6883 C   0  0  1  0  0  0  0  0  0  0  0  0
   25.2342  -11.9085  -16.7611 C   0  0  0  0  0  0  0  0  0  0  0  0
   26.1308  -13.2617  -15.9656 S   0  0  0  0  0  0  0  0  0  0  0  0
   22.9915  -10.8942  -16.8916 C   0  0  0  0  0  0  0  0  0  0  0  0
   22.8522  -10.4866  -18.0855 O   0  0  0  0  0  0  0  0  0  0  0  0
   19.3370   -8.0096  -15.9528 C   0  0  0  0  0  0  0  0  0  0  0  0
   20.1920   -9.2113  -15.6231 C   0  0  1  0  0  0  0  0  0  0  0  0
   19.6347  -10.3114  -16.2704 O   0  0  0  0  0  0  0  0  0  0  0  0
   21.6342   -8.9936  -16.0459 C   0  0  2  0  0  0  0  0  0  0  0  0
   22.4486  -10.1438  -15.8074 N   0  0  0  0  0  0  0  0  0  0  0  0
   22.2055   -7.8030  -15.3538 C   0  0  0  0  0  0  0  0  0  0  0  0
   22.5538   -7.9118  -14.1504 O   0  0  0  0  0  0  0  0  0  0  0  0
   25.5048   -5.0827  -16.7497 C   0  0  0  0  0  0  0  0  0  0  0  0
   24.1473   -4.6508  -17.3034 C   0  0  2  0  0  0  0  0  0  0  0  0
   24.3844   -3.5798  -18.3130 C   0  0  0  0  0  0  0  0  0  0  0  0
   23.2082   -4.2754  -16.1998 C   0  0  0  0  0  0  0  0  0  0  0  0
   22.9489   -5.4063  -15.2826 C   0  0  2  0  0  0  0  0  0  0  0  0
   22.3776   -6.5567  -15.9772 N   0  0  0  0  0  0  0  0  0  0  0  0
   22.0756   -5.0587  -14.1599 C   0  0  0  0  0  0  0  0  0  0  0  0
   20.8461   -5.0238  -14.2560 O   0  0  0  0  0  0  0  0  0  0  0  0
   22.6255   -4.7505  -12.9219 O   0  0  0  0  0  0  0  0  0  0  0  0
  2  1  1  6
  3  2  1  0
  4  3  1  0
  5 11  1  0
  5  2  1  0
  6  5  2  0
  8 10  1  0
  8  7  1  6
  9  8  1  0
 10 11  1  1
 10 12  1  0
 12 19  1  0
 13 12  2  0
 15 14  1  1
 16 15  1  0
 17 15  1  0
 18 17  1  6
 19 18  1  0
 20 18  1  0
 20 22  1  0
 21 20  2  0
M  END
$$$$
