CTL.pdb
     RDKit          3D

 22 21  0  0  1  0  0  0  0  0999 V2000
   21.0382  -20.8344  -12.9872 N   0  0  0  0  0  0  0  0  0  0  0  0
   21.7193  -20.2232  -11.8672 C   0  0  1  0  0  0  0  0  0  0  0  0
   20.7213  -20.1467  -10.7128 C   0  0  0  0  0  0  0  0  0  0  0  0
   19.6943  -18.6675  -10.8718 S   0  0  0  0  0  0  0  0  0  0  0  0
   22.9108  -20.9962  -11.4614 C   0  0  0  0  0  0  0  0  0  0  0  0
   23.0130  -22.1824  -11.9008 O   0  0  0  0  0  0  0  0  0  0  0  0
   26.3273  -20.3625  -12.3664 C   0  0  0  0  0  0  0  0  0  0  0  0
   25.8542  -21.5793  -11.6053 C   0  0  1  0  0  0  0  0  0  0  0  0
   26.9747  -22.3555  -11.3192 O   0  0  0  0  0  0  0  0  0  0  0  0
   25.1178  -21.1837  -10.3374 C   0  0  2  0  0  0  0  0  0  0  0  0
   23.9194  -20.4544  -10.6115 N   0  0  0  0  0  0  0  0  0  0  0  0
   26.0105  -20.3938   -9.4418 C   0  0  0  0  0  0  0  0  0  0  0  0
   25.5385  -19.3902   -8.8491 O   0  0  0  0  0  0  0  0  0  0  0  0
   28.0458  -20.8234   -4.3838 C   0  0  0  0  0  0  0  0  0  0  0  0
   28.2965  -19.9916   -5.6413 C   0  0  2  0  0  0  0  0  0  0  0  0
   28.0564  -18.5606   -5.2990 C   0  0  0  0  0  0  0  0  0  0  0  0
   27.4938  -20.5032   -6.7966 C   0  0  0  0  0  0  0  0  0  0  0  0
   28.1181  -20.1729   -8.0960 C   0  0  2  0  0  0  0  0  0  0  0  0
   27.3604  -20.7117   -9.2220 N   0  0  0  0  0  0  0  0  0  0  0  0
   29.5059  -20.6258   -8.2086 C   0  0  0  0  0  0  0  0  0  0  0  0
   30.4220  -20.1453   -7.5362 O   0  0  0  0  0  0  0  0  0  0  0  0
   29.8360  -21.6375   -9.1016 O   0  0  0  0  0  0  0  0  0  0  0  0
  2  1  1  6
  3  2  1  0
  4  3  1  0
  5 11  1  0
  5  2  1  0
  6  5  2  0
  8 10  1  0
  8  7  1  1
  9  8  1  0
 10 11  1  6
 10 12  1  0
 12 19  1  0
 13 12  2  0
 15 14  1  1
 16 15  1  0
 17 15  1  0
 18 17  1  1
 19 18  1  0
 20 18  1  0
 20 22  1  0
 21 20  2  0
M  END
$$$$
