CTL.pdb
     RDKit          3D

 22 21  0  0  1  0  0  0  0  0999 V2000
   21.7355  -34.0342  -12.3009 N   0  0  0  0  0  0  0  0  0  0  0  0
   21.6432  -33.7709  -10.8818 C   0  0  1  0  0  0  0  0  0  0  0  0
   20.4754  -34.5937  -10.3400 C   0  0  0  0  0  0  0  0  0  0  0  0
   20.2499  -34.2720   -8.5755 S   0  0  0  0  0  0  0  0  0  0  0  0
   22.8903  -34.1279  -10.1753 C   0  0  0  0  0  0  0  0  0  0  0  0
   23.5313  -35.1379  -10.5992 O   0  0  0  0  0  0  0  0  0  0  0  0
   26.0123  -32.3350   -9.8850 C   0  0  0  0  0  0  0  0  0  0  0  0
   25.6358  -32.6592   -8.4578 C   0  0  1  0  0  0  0  0  0  0  0  0
   25.1719  -31.4846   -7.8704 O   0  0  0  0  0  0  0  0  0  0  0  0
   24.5880  -33.7569   -8.4005 C   0  0  2  0  0  0  0  0  0  0  0  0
   23.3757  -33.3841   -9.0597 N   0  0  0  0  0  0  0  0  0  0  0  0
   24.3111  -34.1389   -6.9861 C   0  0  0  0  0  0  0  0  0  0  0  0
   23.1366  -34.0328   -6.5495 O   0  0  0  0  0  0  0  0  0  0  0  0
   25.7956  -37.1598   -2.5088 C   0  0  0  0  0  0  0  0  0  0  0  0
   24.4938  -36.9889   -3.2913 C   0  0  2  0  0  0  0  0  0  0  0  0
   23.7302  -38.2656   -3.1937 C   0  0  0  0  0  0  0  0  0  0  0  0
   24.7604  -36.5229   -4.6886 C   0  0  0  0  0  0  0  0  0  0  0  0
   24.9894  -35.0631   -4.7528 C   0  0  2  0  0  0  0  0  0  0  0  0
   25.2978  -34.6148   -6.1079 N   0  0  0  0  0  0  0  0  0  0  0  0
   26.0491  -34.5987   -3.8555 C   0  0  0  0  0  0  0  0  0  0  0  0
   27.2101  -34.4165   -4.2311 O   0  0  0  0  0  0  0  0  0  0  0  0
   25.7658  -34.3441   -2.5195 O   0  0  0  0  0  0  0  0  0  0  0  0
  2  1  1  6
  3  2  1  0
  4  3  1  0
  5 11  1  0
  5  2  1  0
  6  5  2  0
  8 10  1  0
  8  7  1  6
  9  8  1  0
 10 11  1  1
 10 12  1  0
 12 19  1  0
 13 12  2  0
 15 14  1  6
 16 15  1  0
 17 15  1  0
 18 17  1  6
 19 18  1  0
 20 18  1  0
 20 22  1  0
 21 20  2  0
M  END
$$$$
