CTL.pdb
     RDKit          3D

 22 21  0  0  1  0  0  0  0  0999 V2000
   14.0440  -10.2686  -16.2761 N   0  0  0  0  0  0  0  0  0  0  0  0
   15.2644  -10.3603  -15.5055 C   0  0  1  0  0  0  0  0  0  0  0  0
   15.6623  -11.8346  -15.4546 C   0  0  0  0  0  0  0  0  0  0  0  0
   14.8710  -12.6471  -14.0469 S   0  0  0  0  0  0  0  0  0  0  0  0
   16.3519   -9.5586  -16.1026 C   0  0  0  0  0  0  0  0  0  0  0  0
   16.3700   -9.4518  -17.3671 O   0  0  0  0  0  0  0  0  0  0  0  0
   16.6008   -7.1403  -17.5887 C   0  0  0  0  0  0  0  0  0  0  0  0
   17.5048   -6.7529  -16.4413 C   0  0  1  0  0  0  0  0  0  0  0  0
   16.7103   -6.1540  -15.4667 O   0  0  0  0  0  0  0  0  0  0  0  0
   18.2412   -7.9604  -15.8884 C   0  0  2  0  0  0  0  0  0  0  0  0
   17.3526   -8.9204  -15.3123 N   0  0  0  0  0  0  0  0  0  0  0  0
   19.2617   -7.5349  -14.8882 C   0  0  0  0  0  0  0  0  0  0  0  0
   18.9082   -7.3799  -13.6914 O   0  0  0  0  0  0  0  0  0  0  0  0
   22.1177   -9.6683  -12.9389 C   0  0  0  0  0  0  0  0  0  0  0  0
   22.6197   -9.2795  -14.3291 C   0  0  2  0  0  0  0  0  0  0  0  0
   23.8076  -10.1250  -14.6399 C   0  0  0  0  0  0  0  0  0  0  0  0
   22.8576   -7.8046  -14.4248 C   0  0  0  0  0  0  0  0  0  0  0  0
   21.6206   -7.0268  -14.1959 C   0  0  2  0  0  0  0  0  0  0  0  0
   20.6069   -7.2959  -15.2120 N   0  0  0  0  0  0  0  0  0  0  0  0
   21.8438   -5.5812  -14.1315 C   0  0  0  0  0  0  0  0  0  0  0  0
   22.5569   -5.0529  -13.2744 O   0  0  0  0  0  0  0  0  0  0  0  0
   21.2407   -4.7432  -15.0611 O   0  0  0  0  0  0  0  0  0  0  0  0
  2  1  1  6
  3  2  1  0
  4  3  1  0
  5 11  1  0
  5  2  1  0
  6  5  2  0
  8 10  1  0
  8  7  1  6
  9  8  1  0
 10 11  1  1
 10 12  1  0
 12 19  1  0
 13 12  2  0
 15 14  1  1
 16 15  1  0
 17 15  1  0
 18 17  1  6
 19 18  1  0
 20 18  1  0
 20 22  1  0
 21 20  2  0
M  END
$$$$
