CTL.pdb
     RDKit          3D

 22 21  0  0  1  0  0  0  0  0999 V2000
   15.1610  -13.2483  -18.1822 N   0  0  0  0  0  0  0  0  0  0  0  0
   15.6075  -12.6511  -16.9430 C   0  0  1  0  0  0  0  0  0  0  0  0
   16.2976  -13.7462  -16.1313 C   0  0  0  0  0  0  0  0  0  0  0  0
   16.7524  -13.1204  -14.4975 S   0  0  0  0  0  0  0  0  0  0  0  0
   16.5374  -11.5280  -17.1790 C   0  0  0  0  0  0  0  0  0  0  0  0
   17.5039  -11.7297  -17.9764 O   0  0  0  0  0  0  0  0  0  0  0  0
   15.4801   -7.7808  -17.8449 C   0  0  0  0  0  0  0  0  0  0  0  0
   16.5859   -7.8337  -16.8162 C   0  0  1  0  0  0  0  0  0  0  0  0
   16.0156   -7.5630  -15.5748 O   0  0  0  0  0  0  0  0  0  0  0  0
   17.2797   -9.1846  -16.8227 C   0  0  2  0  0  0  0  0  0  0  0  0
   16.3775  -10.2589  -16.5489 N   0  0  0  0  0  0  0  0  0  0  0  0
   18.4076   -9.1952  -15.8476 C   0  0  0  0  0  0  0  0  0  0  0  0
   18.4329  -10.0869  -14.9613 O   0  0  0  0  0  0  0  0  0  0  0  0
   23.8403   -9.8749  -15.4520 C   0  0  0  0  0  0  0  0  0  0  0  0
   22.6127   -9.8302  -14.5426 C   0  0  2  0  0  0  0  0  0  0  0  0
   22.6574  -11.0265  -13.6542 C   0  0  0  0  0  0  0  0  0  0  0  0
   21.3541   -9.6882  -15.3404 C   0  0  0  0  0  0  0  0  0  0  0  0
   20.6589   -8.4136  -15.0585 C   0  0  2  0  0  0  0  0  0  0  0  0
   19.4517   -8.2566  -15.8650 N   0  0  0  0  0  0  0  0  0  0  0  0
   21.5040   -7.2333  -15.2496 C   0  0  0  0  0  0  0  0  0  0  0  0
   21.5263   -6.5912  -16.3028 O   0  0  0  0  0  0  0  0  0  0  0  0
   22.3263   -6.7939  -14.2197 O   0  0  0  0  0  0  0  0  0  0  0  0
  2  1  1  6
  3  2  1  0
  4  3  1  0
  5 11  1  0
  5  2  1  0
  6  5  2  0
  8 10  1  0
  8  7  1  6
  9  8  1  0
 10 11  1  1
 10 12  1  0
 12 19  1  0
 13 12  2  0
 15 14  1  6
 16 15  1  0
 17 15  1  0
 18 17  1  6
 19 18  1  0
 20 18  1  0
 20 22  1  0
 21 20  2  0
M  END
$$$$
