CTL.pdb
     RDKit          3D

 22 21  0  0  1  0  0  0  0  0999 V2000
   26.8913  -21.4810   -9.5325 N   0  0  0  0  0  0  0  0  0  0  0  0
   25.6162  -21.1743  -10.1423 C   0  0  1  0  0  0  0  0  0  0  0  0
   24.9280  -20.1326   -9.2616 C   0  0  0  0  0  0  0  0  0  0  0  0
   24.0119  -20.9456   -7.9320 S   0  0  0  0  0  0  0  0  0  0  0  0
   25.7756  -20.6560  -11.5162 C   0  0  0  0  0  0  0  0  0  0  0  0
   26.7513  -19.8741  -11.7343 O   0  0  0  0  0  0  0  0  0  0  0  0
   25.3790  -21.0522  -16.3158 C   0  0  0  0  0  0  0  0  0  0  0  0
   25.1344  -21.6082  -14.9321 C   0  0  1  0  0  0  0  0  0  0  0  0
   26.1598  -22.5095  -14.6562 O   0  0  0  0  0  0  0  0  0  0  0  0
   25.0789  -20.5001  -13.8952 C   0  0  2  0  0  0  0  0  0  0  0  0
   24.8833  -21.0047  -12.5723 N   0  0  0  0  0  0  0  0  0  0  0  0
   24.0094  -19.5195  -14.2381 C   0  0  0  0  0  0  0  0  0  0  0  0
   22.8160  -19.8048  -13.9627 O   0  0  0  0  0  0  0  0  0  0  0  0
   23.2097  -13.8472  -16.7094 C   0  0  0  0  0  0  0  0  0  0  0  0
   22.6384  -15.0921  -16.0313 C   0  0  2  0  0  0  0  0  0  0  0  0
   21.7519  -14.6422  -14.9204 C   0  0  0  0  0  0  0  0  0  0  0  0
   23.7285  -16.0328  -15.6220 C   0  0  0  0  0  0  0  0  0  0  0  0
   23.1981  -17.3475  -15.2004 C   0  0  2  0  0  0  0  0  0  0  0  0
   24.2637  -18.2848  -14.8564 N   0  0  0  0  0  0  0  0  0  0  0  0
   22.3305  -17.9743  -16.1996 C   0  0  0  0  0  0  0  0  0  0  0  0
   21.1023  -18.0105  -16.0892 O   0  0  0  0  0  0  0  0  0  0  0  0
   22.8847  -18.5613  -17.3302 O   0  0  0  0  0  0  0  0  0  0  0  0
  2  1  1  1
  3  2  1  0
  4  3  1  0
  5 11  1  0
  5  2  1  0
  6  5  2  0
  8 10  1  0
  8  7  1  6
  9  8  1  0
 10 11  1  1
 10 12  1  0
 12 19  1  0
 13 12  2  0
 15 14  1  1
 16 15  1  0
 17 15  1  0
 18 17  1  6
 19 18  1  0
 20 18  1  0
 20 22  1  0
 21 20  2  0
M  END
$$$$
