CTL.pdb
     RDKit          3D

 22 21  0  0  1  0  0  0  0  0999 V2000
   16.6158  -14.5096  -17.2655 N   0  0  0  0  0  0  0  0  0  0  0  0
   17.2616  -13.7058  -16.2514 C   0  0  1  0  0  0  0  0  0  0  0  0
   17.8646  -14.6640  -15.2252 C   0  0  0  0  0  0  0  0  0  0  0  0
   16.5570  -15.4166  -14.2294 S   0  0  0  0  0  0  0  0  0  0  0  0
   18.3145  -12.8424  -16.8237 C   0  0  0  0  0  0  0  0  0  0  0  0
   19.0120  -13.3230  -17.7689 O   0  0  0  0  0  0  0  0  0  0  0  0
   17.8341   -9.6613  -18.6158 C   0  0  0  0  0  0  0  0  0  0  0  0
   18.8271   -9.3798  -17.5119 C   0  0  1  0  0  0  0  0  0  0  0  0
   18.1401   -8.7360  -16.4855 O   0  0  0  0  0  0  0  0  0  0  0  0
   19.4820  -10.6589  -17.0210 C   0  0  2  0  0  0  0  0  0  0  0  0
   18.5574  -11.5191  -16.3514 N   0  0  0  0  0  0  0  0  0  0  0  0
   20.6348  -10.3445  -16.1291 C   0  0  0  0  0  0  0  0  0  0  0  0
   20.4296  -10.2260  -14.8941 O   0  0  0  0  0  0  0  0  0  0  0  0
   26.8025   -9.6125  -16.1258 C   0  0  0  0  0  0  0  0  0  0  0  0
   25.4858   -9.7535  -15.3626 C   0  0  2  0  0  0  0  0  0  0  0  0
   25.7093  -10.7039  -14.2359 C   0  0  0  0  0  0  0  0  0  0  0  0
   24.3648  -10.1244  -16.2828 C   0  0  0  0  0  0  0  0  0  0  0  0
   23.0439   -9.7699  -15.7197 C   0  0  2  0  0  0  0  0  0  0  0  0
   21.9475  -10.1721  -16.5964 N   0  0  0  0  0  0  0  0  0  0  0  0
   22.9014   -8.3441  -15.4189 C   0  0  0  0  0  0  0  0  0  0  0  0
   22.8037   -7.4827  -16.2969 O   0  0  0  0  0  0  0  0  0  0  0  0
   22.8716   -7.9124  -14.0988 O   0  0  0  0  0  0  0  0  0  0  0  0
  2  1  1  6
  3  2  1  0
  4  3  1  0
  5 11  1  0
  5  2  1  0
  6  5  2  0
  8 10  1  0
  8  7  1  6
  9  8  1  0
 10 11  1  1
 10 12  1  0
 12 19  1  0
 13 12  2  0
 15 14  1  6
 16 15  1  0
 17 15  1  0
 18 17  1  6
 19 18  1  0
 20 18  1  0
 20 22  1  0
 21 20  2  0
M  END
$$$$
