CTL.pdb
     RDKit          3D

 22 21  0  0  1  0  0  0  0  0999 V2000
   15.3502  -13.5686  -18.4901 N   0  0  0  0  0  0  0  0  0  0  0  0
   15.6493  -12.9261  -17.2294 C   0  0  1  0  0  0  0  0  0  0  0  0
   16.2842  -13.9777  -16.3207 C   0  0  0  0  0  0  0  0  0  0  0  0
   15.0142  -15.0818  -15.6605 S   0  0  0  0  0  0  0  0  0  0  0  0
   16.5652  -11.7802  -17.4013 C   0  0  0  0  0  0  0  0  0  0  0  0
   17.5226  -11.9178  -18.2230 O   0  0  0  0  0  0  0  0  0  0  0  0
   15.3970   -8.2924  -18.2965 C   0  0  0  0  0  0  0  0  0  0  0  0
   16.3790   -8.1551  -17.1561 C   0  0  1  0  0  0  0  0  0  0  0  0
   15.6469   -7.8726  -16.0054 O   0  0  0  0  0  0  0  0  0  0  0  0
   17.2075   -9.4167  -16.9879 C   0  0  2  0  0  0  0  0  0  0  0  0
   16.4020  -10.5580  -16.6852 N   0  0  0  0  0  0  0  0  0  0  0  0
   18.2448   -9.2217  -15.9348 C   0  0  0  0  0  0  0  0  0  0  0  0
   18.1063   -9.8110  -14.8326 O   0  0  0  0  0  0  0  0  0  0  0  0
   23.5442  -10.3313  -14.3517 C   0  0  0  0  0  0  0  0  0  0  0  0
   22.4137   -9.3405  -14.0754 C   0  0  2  0  0  0  0  0  0  0  0  0
   21.9817   -9.5219  -12.6602 C   0  0  0  0  0  0  0  0  0  0  0  0
   21.3187   -9.4742  -15.0873 C   0  0  0  0  0  0  0  0  0  0  0  0
   20.4223   -8.2978  -15.0941 C   0  0  2  0  0  0  0  0  0  0  0  0
   19.3772   -8.4097  -16.1078 N   0  0  0  0  0  0  0  0  0  0  0  0
   21.1264   -7.0289  -15.2885 C   0  0  0  0  0  0  0  0  0  0  0  0
   21.1253   -6.4221  -16.3628 O   0  0  0  0  0  0  0  0  0  0  0  0
   21.8342   -6.4593  -14.2375 O   0  0  0  0  0  0  0  0  0  0  0  0
  2  1  1  6
  3  2  1  0
  4  3  1  0
  5 11  1  0
  5  2  1  0
  6  5  2  0
  8 10  1  0
  8  7  1  6
  9  8  1  0
 10 11  1  1
 10 12  1  0
 12 19  1  0
 13 12  2  0
 15 14  1  6
 16 15  1  0
 17 15  1  0
 18 17  1  6
 19 18  1  0
 20 18  1  0
 20 22  1  0
 21 20  2  0
M  END
$$$$
