NWD.pdb
     RDKit          3D

 31 32  0  0  1  0  0  0  0  0999 V2000
   28.6542  -18.9372  -16.5836 N   0  0  0  0  0  0  0  0  0  0  0  0
   28.2452  -18.5210  -15.2709 C   0  0  0  0  0  0  0  0  0  0  0  0
   28.6247  -17.4104  -14.9026 O   0  0  0  0  0  0  0  0  0  0  0  0
   27.4323  -19.4219  -14.4937 C   0  0  0  0  0  0  0  0  0  0  0  0
   28.1600  -20.3715  -13.5668 C   0  0  2  0  0  0  0  0  0  0  0  0
   28.5983  -21.4962  -14.4354 N   0  0  0  0  0  0  0  0  0  0  0  0
   27.3086  -20.9663  -12.5252 C   0  0  0  0  0  0  0  0  0  0  0  0
   26.7018  -22.0516  -12.8007 O   0  0  0  0  0  0  0  0  0  0  0  0
   27.1034  -20.4454  -11.2390 N   0  0  0  0  0  0  0  0  0  0  0  0
   26.0101  -20.9302  -10.3783 C   0  0  1  0  0  0  0  0  0  0  0  0
   26.1176  -20.3365   -8.9949 C   0  0  0  0  0  0  0  0  0  0  0  0
   27.3658  -20.6695   -8.2905 C   0  0  0  0  0  0  0  0  0  0  0  0
   28.4589  -21.2756   -8.8532 C   0  0  0  0  0  0  0  0  0  0  0  0
   29.3939  -21.4132   -7.9202 N   0  0  0  0  0  0  0  0  0  0  0  0
   28.9769  -20.9222   -6.7392 C   0  0  0  0  0  0  0  0  0  0  0  0
   29.5942  -20.8488   -5.5126 C   0  0  0  0  0  0  0  0  0  0  0  0
   28.9067  -20.2769   -4.4498 C   0  0  0  0  0  0  0  0  0  0  0  0
   27.6245  -19.8012   -4.6635 C   0  0  0  0  0  0  0  0  0  0  0  0
   27.0154  -19.8799   -5.8969 C   0  0  0  0  0  0  0  0  0  0  0  0
   27.6883  -20.4484   -6.9696 C   0  0  0  0  0  0  0  0  0  0  0  0
   24.7496  -20.4215  -10.9789 C   0  0  0  0  0  0  0  0  0  0  0  0
   24.6736  -19.3015  -11.5403 O   0  0  0  0  0  0  0  0  0  0  0  0
   23.5543  -21.1867  -10.9469 N   0  0  0  0  0  0  0  0  0  0  0  0
   22.3190  -20.7071  -11.6170 C   0  0  1  0  0  0  0  0  0  0  0  0
   22.2079  -21.3802  -12.9615 C   0  0  0  0  0  0  0  0  0  0  0  0
   22.3697  -20.4105  -14.0444 C   0  0  0  0  0  0  0  0  0  0  0  0
   21.5507  -19.5013  -14.2885 O   0  0  0  0  0  0  0  0  0  0  0  0
   21.1778  -21.0196  -10.7224 C   0  0  0  0  0  0  0  0  0  0  0  0
   19.9914  -20.6451  -11.0170 O   0  0  0  0  0  0  0  0  0  0  0  0
   23.4879  -20.4386  -14.9055 O   0  0  0  0  0  0  0  0  0  0  0  0
   21.3243  -21.7094   -9.5603 O   0  0  0  0  0  0  0  0  0  0  0  0
  1  2  1  0
  2  3  2  0
  4  2  1  0
  4  5  1  0
  5  7  1  0
  5  6  1  6
  7  8  2  0
  9 10  1  0
  9  7  1  0
 10 11  1  1
 11 12  1  0
 12 13  2  0
 14 13  1  0
 15 14  1  0
 16 15  2  0
 17 16  1  0
 18 19  1  0
 18 17  2  0
 19 20  2  0
 20 15  1  0
 20 12  1  0
 21 22  2  0
 21 10  1  0
 23 21  1  0
 24 28  1  0
 24 23  1  0
 24 25  1  6
 26 25  1  0
 26 27  2  0
 28 31  1  0
 29 28  2  0
 30 26  1  0
M  END
$$$$
