NWD.pdb
     RDKit          3D

 31 32  0  0  1  0  0  0  0  0999 V2000
   28.0906  -23.3492  -19.8949 N   0  0  0  0  0  0  0  0  0  0  0  0
   28.0147  -22.2643  -18.9564 C   0  0  0  0  0  0  0  0  0  0  0  0
   28.5619  -21.2129  -19.2853 O   0  0  0  0  0  0  0  0  0  0  0  0
   27.3132  -22.4843  -17.7171 C   0  0  0  0  0  0  0  0  0  0  0  0
   28.0049  -22.0289  -16.4504 C   0  0  2  0  0  0  0  0  0  0  0  0
   29.0630  -23.0443  -16.2038 N   0  0  0  0  0  0  0  0  0  0  0  0
   27.1436  -22.0371  -15.2581 C   0  0  0  0  0  0  0  0  0  0  0  0
   26.5750  -23.1321  -14.9423 O   0  0  0  0  0  0  0  0  0  0  0  0
   26.8902  -20.9387  -14.4233 N   0  0  0  0  0  0  0  0  0  0  0  0
   26.1033  -21.0789  -13.1854 C   0  0  1  0  0  0  0  0  0  0  0  0
   26.5141  -20.0385  -12.1721 C   0  0  0  0  0  0  0  0  0  0  0  0
   27.5212  -20.5025  -11.2050 C   0  0  0  0  0  0  0  0  0  0  0  0
   28.7633  -20.9880  -11.5217 C   0  0  0  0  0  0  0  0  0  0  0  0
   29.3939  -21.3048  -10.3967 N   0  0  0  0  0  0  0  0  0  0  0  0
   28.6249  -21.0525   -9.3220 C   0  0  0  0  0  0  0  0  0  0  0  0
   28.8548  -21.2191   -7.9765 C   0  0  0  0  0  0  0  0  0  0  0  0
   27.8571  -20.8644   -7.0775 C   0  0  0  0  0  0  0  0  0  0  0  0
   26.6670  -20.3558   -7.5684 C   0  0  0  0  0  0  0  0  0  0  0  0
   26.4473  -20.1930   -8.9188 C   0  0  0  0  0  0  0  0  0  0  0  0
   27.4337  -20.5425   -9.8308 C   0  0  0  0  0  0  0  0  0  0  0  0
   24.6912  -20.8000  -13.5549 C   0  0  0  0  0  0  0  0  0  0  0  0
   24.3621  -19.8271  -14.2765 O   0  0  0  0  0  0  0  0  0  0  0  0
   23.6316  -21.6303  -13.1044 N   0  0  0  0  0  0  0  0  0  0  0  0
   22.2191  -21.3218  -13.4427 C   0  0  1  0  0  0  0  0  0  0  0  0
   21.4011  -22.5789  -13.2887 C   0  0  0  0  0  0  0  0  0  0  0  0
   19.9958  -22.3283  -13.6072 C   0  0  0  0  0  0  0  0  0  0  0  0
   19.5502  -21.2131  -13.9457 O   0  0  0  0  0  0  0  0  0  0  0  0
   21.7732  -20.2326  -12.5400 C   0  0  0  0  0  0  0  0  0  0  0  0
   22.0495  -20.2600  -11.2921 O   0  0  0  0  0  0  0  0  0  0  0  0
   19.0274  -23.3540  -13.5518 O   0  0  0  0  0  0  0  0  0  0  0  0
   21.0591  -19.1623  -12.9790 O   0  0  0  0  0  0  0  0  0  0  0  0
  1  2  1  0
  2  3  2  0
  4  2  1  0
  4  5  1  0
  5  7  1  0
  5  6  1  1
  7  8  2  0
  9 10  1  0
  9  7  1  0
 10 11  1  1
 11 12  1  0
 12 13  2  0
 14 13  1  0
 15 14  1  0
 16 15  2  0
 17 16  1  0
 18 19  1  0
 18 17  2  0
 19 20  2  0
 20 15  1  0
 20 12  1  0
 21 22  2  0
 21 10  1  0
 23 21  1  0
 24 28  1  0
 24 23  1  0
 24 25  1  1
 26 25  1  0
 26 27  2  0
 28 31  1  0
 29 28  2  0
 30 26  1  0
M  END
$$$$
