NWD.pdb
     RDKit          3D

 31 32  0  0  1  0  0  0  0  0999 V2000
   28.5563  -20.9697  -19.1523 N   0  0  0  0  0  0  0  0  0  0  0  0
   27.3557  -21.7584  -19.1690 C   0  0  0  0  0  0  0  0  0  0  0  0
   26.8297  -21.9366  -20.2665 O   0  0  0  0  0  0  0  0  0  0  0  0
   26.8635  -22.2751  -17.9172 C   0  0  0  0  0  0  0  0  0  0  0  0
   27.6245  -21.8823  -16.6694 C   0  0  2  0  0  0  0  0  0  0  0  0
   28.7016  -22.8993  -16.5399 N   0  0  0  0  0  0  0  0  0  0  0  0
   26.8338  -21.9633  -15.4318 C   0  0  0  0  0  0  0  0  0  0  0  0
   26.4036  -23.1075  -15.0744 O   0  0  0  0  0  0  0  0  0  0  0  0
   26.5088  -20.8850  -14.5955 N   0  0  0  0  0  0  0  0  0  0  0  0
   25.7677  -21.0835  -13.3375 C   0  0  1  0  0  0  0  0  0  0  0  0
   26.1532  -20.0366  -12.3210 C   0  0  0  0  0  0  0  0  0  0  0  0
   27.2247  -20.4528  -11.4025 C   0  0  0  0  0  0  0  0  0  0  0  0
   28.4895  -20.8280  -11.7743 C   0  0  0  0  0  0  0  0  0  0  0  0
   29.1796  -21.1324  -10.6812 N   0  0  0  0  0  0  0  0  0  0  0  0
   28.4293  -20.9783   -9.5753 C   0  0  0  0  0  0  0  0  0  0  0  0
   28.7157  -21.1722   -8.2443 C   0  0  0  0  0  0  0  0  0  0  0  0
   27.7239  -20.9281   -7.3032 C   0  0  0  0  0  0  0  0  0  0  0  0
   26.4823  -20.4982   -7.7387 C   0  0  0  0  0  0  0  0  0  0  0  0
   26.2061  -20.3071   -9.0751 C   0  0  0  0  0  0  0  0  0  0  0  0
   27.1860  -20.5465  -10.0286 C   0  0  0  0  0  0  0  0  0  0  0  0
   24.3325  -20.8751  -13.6615 C   0  0  0  0  0  0  0  0  0  0  0  0
   23.9399  -19.9649  -14.4315 O   0  0  0  0  0  0  0  0  0  0  0  0
   23.3221  -21.7054  -13.1092 N   0  0  0  0  0  0  0  0  0  0  0  0
   21.8909  -21.4985  -13.4464 C   0  0  1  0  0  0  0  0  0  0  0  0
   21.1329  -22.7616  -13.1257 C   0  0  0  0  0  0  0  0  0  0  0  0
   19.7032  -22.5907  -13.3828 C   0  0  0  0  0  0  0  0  0  0  0  0
   18.8613  -22.3620  -12.4908 O   0  0  0  0  0  0  0  0  0  0  0  0
   21.4147  -20.3297  -12.6670 C   0  0  0  0  0  0  0  0  0  0  0  0
   21.9008  -20.0678  -11.5139 O   0  0  0  0  0  0  0  0  0  0  0  0
   19.1677  -22.6750  -14.6862 O   0  0  0  0  0  0  0  0  0  0  0  0
   20.4529  -19.4853  -13.1250 O   0  0  0  0  0  0  0  0  0  0  0  0
  1  2  1  0
  2  3  2  0
  4  2  1  0
  4  5  1  0
  5  7  1  0
  5  6  1  1
  7  8  2  0
  9 10  1  0
  9  7  1  0
 10 11  1  1
 11 12  1  0
 12 13  2  0
 14 13  1  0
 15 14  1  0
 16 15  2  0
 17 16  1  0
 18 19  1  0
 18 17  2  0
 19 20  2  0
 20 15  1  0
 20 12  1  0
 21 22  2  0
 21 10  1  0
 23 21  1  0
 24 28  1  0
 24 23  1  0
 24 25  1  1
 26 25  1  0
 26 27  2  0
 28 31  1  0
 29 28  2  0
 30 26  1  0
M  END
$$$$
