NWD.pdb
     RDKit          3D

 31 32  0  0  1  0  0  0  0  0999 V2000
   27.3048  -21.8367   -9.2055 N   0  0  0  0  0  0  0  0  0  0  0  0
   27.0581  -20.4222   -9.1588 C   0  0  0  0  0  0  0  0  0  0  0  0
   27.6440  -19.7902   -8.2812 O   0  0  0  0  0  0  0  0  0  0  0  0
   26.1557  -19.8564  -10.1293 C   0  0  0  0  0  0  0  0  0  0  0  0
   25.5402  -20.8121  -11.1285 C   0  0  2  0  0  0  0  0  0  0  0  0
   26.6789  -21.2856  -11.9595 N   0  0  0  0  0  0  0  0  0  0  0  0
   24.5897  -20.1818  -12.0573 C   0  0  0  0  0  0  0  0  0  0  0  0
   23.5832  -19.5795  -11.5610 O   0  0  0  0  0  0  0  0  0  0  0  0
   24.6918  -20.1784  -13.4564 N   0  0  0  0  0  0  0  0  0  0  0  0
   23.7184  -19.4590  -14.2968 C   0  0  1  0  0  0  0  0  0  0  0  0
   24.2078  -19.3702  -15.7217 C   0  0  0  0  0  0  0  0  0  0  0  0
   23.3386  -18.5829  -16.6104 C   0  0  0  0  0  0  0  0  0  0  0  0
   23.1029  -17.2369  -16.5038 C   0  0  0  0  0  0  0  0  0  0  0  0
   22.2741  -16.8737  -17.4759 N   0  0  0  0  0  0  0  0  0  0  0  0
   21.9353  -17.9258  -18.2428 C   0  0  0  0  0  0  0  0  0  0  0  0
   21.1172  -18.0263  -19.3437 C   0  0  0  0  0  0  0  0  0  0  0  0
   20.9510  -19.2680  -19.9435 C   0  0  0  0  0  0  0  0  0  0  0  0
   21.6150  -20.3599  -19.4117 C   0  0  0  0  0  0  0  0  0  0  0  0
   22.4324  -20.2478  -18.3082 C   0  0  0  0  0  0  0  0  0  0  0  0
   22.6094  -19.0144  -17.6966 C   0  0  0  0  0  0  0  0  0  0  0  0
   22.4838  -20.2860  -14.3060 C   0  0  0  0  0  0  0  0  0  0  0  0
   22.5089  -21.5347  -14.4309 O   0  0  0  0  0  0  0  0  0  0  0  0
   21.1989  -19.6972  -14.1725 N   0  0  0  0  0  0  0  0  0  0  0  0
   19.9681  -20.5270  -14.2082 C   0  0  1  0  0  0  0  0  0  0  0  0
   19.1401  -20.2135  -12.9879 C   0  0  0  0  0  0  0  0  0  0  0  0
   18.9367  -21.4119  -12.1745 C   0  0  0  0  0  0  0  0  0  0  0  0
   19.3916  -22.5355  -12.4702 O   0  0  0  0  0  0  0  0  0  0  0  0
   19.2614  -20.2201  -15.4758 C   0  0  0  0  0  0  0  0  0  0  0  0
   19.0113  -19.0122  -15.8119 O   0  0  0  0  0  0  0  0  0  0  0  0
   18.1955  -21.3774  -10.9735 O   0  0  0  0  0  0  0  0  0  0  0  0
   18.8473  -21.1867  -16.3372 O   0  0  0  0  0  0  0  0  0  0  0  0
  1  2  1  0
  2  3  2  0
  4  2  1  0
  4  5  1  0
  5  7  1  0
  5  6  1  6
  7  8  2  0
  9 10  1  0
  9  7  1  0
 10 11  1  6
 11 12  1  0
 12 13  2  0
 14 13  1  0
 15 14  1  0
 16 15  2  0
 17 16  1  0
 18 19  1  0
 18 17  2  0
 19 20  2  0
 20 15  1  0
 20 12  1  0
 21 22  2  0
 21 10  1  0
 23 21  1  0
 24 28  1  0
 24 23  1  0
 24 25  1  1
 26 25  1  0
 26 27  2  0
 28 31  1  0
 29 28  2  0
 30 26  1  0
M  END
$$$$
