NWD.pdb
     RDKit          3D

 31 32  0  0  1  0  0  0  0  0999 V2000
   27.2169  -27.7257  -16.5781 N   0  0  0  0  0  0  0  0  0  0  0  0
   26.7510  -26.5034  -17.1718 C   0  0  0  0  0  0  0  0  0  0  0  0
   26.5278  -26.5293  -18.3812 O   0  0  0  0  0  0  0  0  0  0  0  0
   26.5817  -25.3541  -16.3194 C   0  0  0  0  0  0  0  0  0  0  0  0
   27.1162  -24.0358  -16.8360 C   0  0  2  0  0  0  0  0  0  0  0  0
   28.5936  -24.1408  -16.7019 N   0  0  0  0  0  0  0  0  0  0  0  0
   26.7144  -22.8686  -16.0362 C   0  0  0  0  0  0  0  0  0  0  0  0
   27.1745  -22.7714  -14.8526 O   0  0  0  0  0  0  0  0  0  0  0  0
   25.8644  -21.8372  -16.4623 N   0  0  0  0  0  0  0  0  0  0  0  0
   25.5594  -20.6847  -15.5962 C   0  0  1  0  0  0  0  0  0  0  0  0
   25.7956  -19.3882  -16.3316 C   0  0  0  0  0  0  0  0  0  0  0  0
   27.2154  -19.0467  -16.5124 C   0  0  0  0  0  0  0  0  0  0  0  0
   28.2697  -19.8998  -16.3141 C   0  0  0  0  0  0  0  0  0  0  0  0
   29.3969  -19.2480  -16.5755 N   0  0  0  0  0  0  0  0  0  0  0  0
   29.1487  -17.9786  -16.9453 C   0  0  0  0  0  0  0  0  0  0  0  0
   29.9902  -16.9517  -17.3039 C   0  0  0  0  0  0  0  0  0  0  0  0
   29.4400  -15.7227  -17.6445 C   0  0  0  0  0  0  0  0  0  0  0  0
   28.0641  -15.5755  -17.6108 C   0  0  0  0  0  0  0  0  0  0  0  0
   27.2301  -16.6113  -17.2499 C   0  0  0  0  0  0  0  0  0  0  0  0
   27.7635  -17.8459  -16.9066 C   0  0  0  0  0  0  0  0  0  0  0  0
   24.1061  -20.7619  -15.2957 C   0  0  0  0  0  0  0  0  0  0  0  0
   23.2543  -21.0813  -16.1605 O   0  0  0  0  0  0  0  0  0  0  0  0
   23.6032  -20.4747  -13.9996 N   0  0  0  0  0  0  0  0  0  0  0  0
   22.1557  -20.6013  -13.6937 C   0  0  1  0  0  0  0  0  0  0  0  0
   21.9561  -20.3937  -12.2138 C   0  0  0  0  0  0  0  0  0  0  0  0
   20.5460  -20.5376  -11.8531 C   0  0  0  0  0  0  0  0  0  0  0  0
   19.8157  -19.5833  -11.5173 O   0  0  0  0  0  0  0  0  0  0  0  0
   21.4377  -19.5972  -14.5162 C   0  0  0  0  0  0  0  0  0  0  0  0
   20.2650  -19.8352  -14.9664 O   0  0  0  0  0  0  0  0  0  0  0  0
   19.9021  -21.7939  -11.8604 O   0  0  0  0  0  0  0  0  0  0  0  0
   21.9744  -18.3889  -14.8323 O   0  0  0  0  0  0  0  0  0  0  0  0
  1  2  1  0
  2  3  2  0
  4  2  1  0
  4  5  1  0
  5  7  1  0
  5  6  1  1
  7  8  2  0
  9 10  1  0
  9  7  1  0
 10 11  1  6
 11 12  1  0
 12 13  2  0
 14 13  1  0
 15 14  1  0
 16 15  2  0
 17 16  1  0
 18 19  1  0
 18 17  2  0
 19 20  2  0
 20 15  1  0
 20 12  1  0
 21 22  2  0
 21 10  1  0
 23 21  1  0
 24 28  1  0
 24 23  1  0
 24 25  1  1
 26 25  1  0
 26 27  2  0
 28 31  1  0
 29 28  2  0
 30 26  1  0
M  END
$$$$
