NWD.pdb
     RDKit          3D

 31 32  0  0  1  0  0  0  0  0999 V2000
   28.8834  -21.2598  -18.1831 N   0  0  0  0  0  0  0  0  0  0  0  0
   27.4539  -21.3072  -18.3174 C   0  0  0  0  0  0  0  0  0  0  0  0
   26.9936  -20.9946  -19.4145 O   0  0  0  0  0  0  0  0  0  0  0  0
   26.6760  -21.7116  -17.1740 C   0  0  0  0  0  0  0  0  0  0  0  0
   27.4434  -22.1121  -15.9326 C   0  0  2  0  0  0  0  0  0  0  0  0
   27.9113  -23.4981  -16.2003 N   0  0  0  0  0  0  0  0  0  0  0  0
   26.6220  -22.1853  -14.7146 C   0  0  0  0  0  0  0  0  0  0  0  0
   25.9011  -23.2214  -14.5445 O   0  0  0  0  0  0  0  0  0  0  0  0
   26.5610  -21.2101  -13.7082 N   0  0  0  0  0  0  0  0  0  0  0  0
   25.6787  -21.3663  -12.5384 C   0  0  1  0  0  0  0  0  0  0  0  0
   26.0632  -20.3966  -11.4476 C   0  0  0  0  0  0  0  0  0  0  0  0
   27.2719  -20.7774  -10.7000 C   0  0  0  0  0  0  0  0  0  0  0  0
   28.3742  -21.3946  -11.2317 C   0  0  0  0  0  0  0  0  0  0  0  0
   29.2648  -21.5786  -10.2638 N   0  0  0  0  0  0  0  0  0  0  0  0
   28.8084  -21.1084   -9.0889 C   0  0  0  0  0  0  0  0  0  0  0  0
   29.3737  -21.0814   -7.8356 C   0  0  0  0  0  0  0  0  0  0  0  0
   28.6542  -20.5210   -6.7880 C   0  0  0  0  0  0  0  0  0  0  0  0
   27.3935  -20.0095   -7.0432 C   0  0  0  0  0  0  0  0  0  0  0  0
   26.8366  -20.0417   -8.3031 C   0  0  0  0  0  0  0  0  0  0  0  0
   27.5420  -20.5982   -9.3611 C   0  0  0  0  0  0  0  0  0  0  0  0
   24.3130  -20.9978  -12.9938 C   0  0  0  0  0  0  0  0  0  0  0  0
   24.0865  -19.9804  -13.6931 O   0  0  0  0  0  0  0  0  0  0  0  0
   23.1830  -21.7879  -12.6561 N   0  0  0  0  0  0  0  0  0  0  0  0
   21.8145  -21.3836  -13.0668 C   0  0  1  0  0  0  0  0  0  0  0  0
   20.9208  -22.5971  -13.0256 C   0  0  0  0  0  0  0  0  0  0  0  0
   19.5343  -22.2329  -13.3156 C   0  0  0  0  0  0  0  0  0  0  0  0
   18.6053  -22.3275  -12.4880 O   0  0  0  0  0  0  0  0  0  0  0  0
   21.3709  -20.3122  -12.1418 C   0  0  0  0  0  0  0  0  0  0  0  0
   21.7322  -20.3128  -10.9154 O   0  0  0  0  0  0  0  0  0  0  0  0
   19.1450  -21.7393  -14.5796 O   0  0  0  0  0  0  0  0  0  0  0  0
   20.5703  -19.2871  -12.5369 O   0  0  0  0  0  0  0  0  0  0  0  0
  1  2  1  0
  2  3  2  0
  4  2  1  0
  4  5  1  0
  5  7  1  0
  5  6  1  6
  7  8  2  0
  9 10  1  0
  9  7  1  0
 10 11  1  1
 11 12  1  0
 12 13  2  0
 14 13  1  0
 15 14  1  0
 16 15  2  0
 17 16  1  0
 18 19  1  0
 18 17  2  0
 19 20  2  0
 20 15  1  0
 20 12  1  0
 21 22  2  0
 21 10  1  0
 23 21  1  0
 24 28  1  0
 24 23  1  0
 24 25  1  1
 26 25  1  0
 26 27  2  0
 28 31  1  0
 29 28  2  0
 30 26  1  0
M  END
$$$$
