NWD.pdb
     RDKit          3D

 31 32  0  0  1  0  0  0  0  0999 V2000
   29.9038  -18.0598  -14.3448 N   0  0  0  0  0  0  0  0  0  0  0  0
   28.4961  -18.1095  -14.6268 C   0  0  0  0  0  0  0  0  0  0  0  0
   28.1179  -17.5302  -15.6439 O   0  0  0  0  0  0  0  0  0  0  0  0
   27.6434  -18.8240  -13.7110 C   0  0  0  0  0  0  0  0  0  0  0  0
   28.2058  -20.0888  -13.0991 C   0  0  2  0  0  0  0  0  0  0  0  0
   28.5734  -20.9458  -14.2576 N   0  0  0  0  0  0  0  0  0  0  0  0
   27.2326  -20.8606  -12.3113 C   0  0  0  0  0  0  0  0  0  0  0  0
   26.5225  -21.7231  -12.9227 O   0  0  0  0  0  0  0  0  0  0  0  0
   27.0139  -20.7369  -10.9312 N   0  0  0  0  0  0  0  0  0  0  0  0
   25.9168  -21.4549  -10.2590 C   0  0  1  0  0  0  0  0  0  0  0  0
   26.2322  -21.6625   -8.7978 C   0  0  0  0  0  0  0  0  0  0  0  0
   26.6396  -20.4394   -8.0885 C   0  0  0  0  0  0  0  0  0  0  0  0
   26.3662  -19.1582   -8.4916 C   0  0  0  0  0  0  0  0  0  0  0  0
   26.8854  -18.3156   -7.6060 N   0  0  0  0  0  0  0  0  0  0  0  0
   27.5046  -18.9775   -6.6118 C   0  0  0  0  0  0  0  0  0  0  0  0
   28.1726  -18.5307   -5.4959 C   0  0  0  0  0  0  0  0  0  0  0  0
   28.7221  -19.4635   -4.6258 C   0  0  0  0  0  0  0  0  0  0  0  0
   28.5776  -20.8098   -4.9131 C   0  0  0  0  0  0  0  0  0  0  0  0
   27.9062  -21.2465   -6.0343 C   0  0  0  0  0  0  0  0  0  0  0  0
   27.3510  -20.3277   -6.9142 C   0  0  0  0  0  0  0  0  0  0  0  0
   24.7296  -20.5641  -10.3309 C   0  0  0  0  0  0  0  0  0  0  0  0
   24.7404  -19.3885   -9.8910 O   0  0  0  0  0  0  0  0  0  0  0  0
   23.5093  -21.0040  -10.9076 N   0  0  0  0  0  0  0  0  0  0  0  0
   22.3348  -20.1000  -10.9990 C   0  0  1  0  0  0  0  0  0  0  0  0
   22.4161  -19.3341  -12.2951 C   0  0  0  0  0  0  0  0  0  0  0  0
   22.6780  -20.2351  -13.4170 C   0  0  0  0  0  0  0  0  0  0  0  0
   22.8105  -21.4701  -13.2977 O   0  0  0  0  0  0  0  0  0  0  0  0
   21.1172  -20.9419  -10.9050 C   0  0  0  0  0  0  0  0  0  0  0  0
   19.9602  -20.4113  -10.7851 O   0  0  0  0  0  0  0  0  0  0  0  0
   22.8018  -19.7576  -14.7398 O   0  0  0  0  0  0  0  0  0  0  0  0
   21.1600  -22.3001  -10.9408 O   0  0  0  0  0  0  0  0  0  0  0  0
  1  2  1  0
  2  3  2  0
  4  2  1  0
  4  5  1  0
  5  7  1  0
  5  6  1  6
  7  8  2  0
  9 10  1  0
  9  7  1  0
 10 11  1  1
 11 12  1  0
 12 13  2  0
 14 13  1  0
 15 14  1  0
 16 15  2  0
 17 16  1  0
 18 19  1  0
 18 17  2  0
 19 20  2  0
 20 15  1  0
 20 12  1  0
 21 22  2  0
 21 10  1  0
 23 21  1  0
 24 28  1  0
 24 23  1  0
 24 25  1  6
 26 25  1  0
 26 27  2  0
 28 31  1  0
 29 28  2  0
 30 26  1  0
M  END
$$$$
