LVG.pdb
     RDKit          3D

 20 19  0  0  1  0  0  0  0  0999 V2000
    7.3662  -12.7422   18.8323 C   0  0  0  0  0  0  0  0  0  0  0  0
    7.5190  -13.9854   19.7135 C   0  0  1  0  0  0  0  0  0  0  0  0
    8.4937  -14.9063   19.0211 C   0  0  0  0  0  0  0  0  0  0  0  0
    8.0639  -13.4983   21.0397 C   0  0  0  0  0  0  0  0  0  0  0  0
    8.1016  -14.6220   22.0632 C   0  0  2  0  0  0  0  0  0  0  0  0
    6.8581  -15.3253   22.1228 N   0  0  0  0  0  0  0  0  0  0  0  0
    8.5393  -14.0870   23.3588 C   0  0  0  0  0  0  0  0  0  0  0  0
    9.6910  -13.5820   23.4336 O   0  0  0  0  0  0  0  0  0  0  0  0
    7.1932  -11.7584   27.4106 C   0  0  0  0  0  0  0  0  0  0  0  0
    6.9851  -12.6066   26.2081 C   0  0  2  0  0  0  0  0  0  0  0  0
    5.7328  -13.4381   26.4414 C   0  0  0  0  0  0  0  0  0  0  0  0
    8.1420  -13.4398   25.7741 C   0  0  2  0  0  0  0  0  0  0  0  0
    7.7365  -14.1071   24.5324 N   0  0  0  0  0  0  0  0  0  0  0  0
    8.5794  -14.4703   26.7154 C   0  0  0  0  0  0  0  0  0  0  0  0
    8.9571  -14.1499   27.8995 O   0  0  0  0  0  0  0  0  0  0  0  0
    8.6304  -15.8632   26.4377 N   0  0  0  0  0  0  0  0  0  0  0  0
    8.9247  -16.8373   27.5021 C   0  0  0  0  0  0  0  0  0  0  0  0
   10.0142  -17.7191   27.0422 C   0  0  0  0  0  0  0  0  0  0  0  0
   10.3209  -17.8068   25.8260 O   0  0  0  0  0  0  0  0  0  0  0  0
   10.7402  -18.4868   27.9548 O   0  0  0  0  0  0  0  0  0  0  0  0
  2  1  1  6
  3  2  1  0
  4  2  1  0
  5  7  1  0
  5  4  1  0
  5  6  1  1
  7  8  2  0
 10  9  1  1
 10 11  1  0
 10 12  1  0
 12 14  1  0
 13  7  1  0
 12 13  1  6
 14 15  2  0
 16 14  1  0
 16 17  1  0
 18 17  1  0
 18 20  1  0
 19 18  2  0
M  END
$$$$
