LVG.pdb
     RDKit          3D

 20 19  0  0  1  0  0  0  0  0999 V2000
    7.8296  -17.0358   20.1793 C   0  0  0  0  0  0  0  0  0  0  0  0
    6.5856  -16.3367   20.7351 C   0  0  1  0  0  0  0  0  0  0  0  0
    5.4632  -17.3455   20.7217 C   0  0  0  0  0  0  0  0  0  0  0  0
    6.9340  -15.9146   22.1471 C   0  0  0  0  0  0  0  0  0  0  0  0
    7.5068  -14.5066   22.1731 C   0  0  2  0  0  0  0  0  0  0  0  0
    8.4867  -14.3149   21.1495 N   0  0  0  0  0  0  0  0  0  0  0  0
    7.9980  -14.2048   23.5237 C   0  0  0  0  0  0  0  0  0  0  0  0
    9.2145  -14.4164   23.7736 O   0  0  0  0  0  0  0  0  0  0  0  0
    5.3807  -12.6930   26.6372 C   0  0  0  0  0  0  0  0  0  0  0  0
    6.8145  -12.3359   26.4784 C   0  0  2  0  0  0  0  0  0  0  0  0
    6.8814  -11.0328   25.6965 C   0  0  0  0  0  0  0  0  0  0  0  0
    7.7008  -13.3857   25.9009 C   0  0  2  0  0  0  0  0  0  0  0  0
    7.1781  -13.6877   24.5641 N   0  0  0  0  0  0  0  0  0  0  0  0
    7.7784  -14.6414   26.6468 C   0  0  0  0  0  0  0  0  0  0  0  0
    8.2375  -14.6574   27.8452 O   0  0  0  0  0  0  0  0  0  0  0  0
    7.3749  -15.9119   26.1537 N   0  0  0  0  0  0  0  0  0  0  0  0
    7.4520  -17.1128   27.0024 C   0  0  0  0  0  0  0  0  0  0  0  0
    8.7792  -17.7307   26.8207 C   0  0  0  0  0  0  0  0  0  0  0  0
    9.8157  -17.0334   26.6777 O   0  0  0  0  0  0  0  0  0  0  0  0
    8.9200  -19.1196   26.8027 O   0  0  0  0  0  0  0  0  0  0  0  0
  2  1  1  1
  3  2  1  0
  4  2  1  0
  5  7  1  0
  5  4  1  0
  5  6  1  6
  7  8  2  0
 10  9  1  6
 10 11  1  0
 10 12  1  0
 12 14  1  0
 13  7  1  0
 12 13  1  6
 14 15  2  0
 16 14  1  0
 16 17  1  0
 18 17  1  0
 18 20  1  0
 19 18  2  0
M  END
$$$$
