LVG.pdb
     RDKit          3D

 20 19  0  0  1  0  0  0  0  0999 V2000
    8.2065  -20.7844   26.2883 C   0  0  0  0  0  0  0  0  0  0  0  0
    6.9698  -19.9933   25.8523 C   0  0  1  0  0  0  0  0  0  0  0  0
    6.0813  -19.8503   27.0638 C   0  0  0  0  0  0  0  0  0  0  0  0
    7.4759  -18.6482   25.3749 C   0  0  0  0  0  0  0  0  0  0  0  0
    6.3308  -17.7696   24.8970 C   0  0  2  0  0  0  0  0  0  0  0  0
    5.6168  -18.3729   23.8151 N   0  0  0  0  0  0  0  0  0  0  0  0
    6.8413  -16.4271   24.5910 C   0  0  0  0  0  0  0  0  0  0  0  0
    7.2383  -16.1966   23.4178 O   0  0  0  0  0  0  0  0  0  0  0  0
    7.2576  -12.7431   27.3704 C   0  0  0  0  0  0  0  0  0  0  0  0
    6.8482  -13.0426   25.9735 C   0  0  2  0  0  0  0  0  0  0  0  0
    5.3513  -13.3131   25.9795 C   0  0  0  0  0  0  0  0  0  0  0  0
    7.6115  -14.1134   25.2723 C   0  0  2  0  0  0  0  0  0  0  0  0
    6.9124  -15.3740   25.5439 N   0  0  0  0  0  0  0  0  0  0  0  0
    9.0070  -14.2776   25.6783 C   0  0  0  0  0  0  0  0  0  0  0  0
    9.4377  -13.7320   26.7574 O   0  0  0  0  0  0  0  0  0  0  0  0
    9.9854  -15.0194   24.9624 N   0  0  0  0  0  0  0  0  0  0  0  0
   11.3816  -15.0766   25.4265 C   0  0  0  0  0  0  0  0  0  0  0  0
   12.1610  -15.8842   24.4691 C   0  0  0  0  0  0  0  0  0  0  0  0
   12.2714  -15.5491   23.2623 O   0  0  0  0  0  0  0  0  0  0  0  0
   12.8026  -17.0532   24.8826 O   0  0  0  0  0  0  0  0  0  0  0  0
  2  1  1  1
  3  2  1  0
  4  2  1  0
  5  7  1  0
  5  4  1  0
  5  6  1  6
  7  8  2  0
 10  9  1  1
 10 11  1  0
 10 12  1  0
 12 14  1  0
 13  7  1  0
 12 13  1  1
 14 15  2  0
 16 14  1  0
 16 17  1  0
 18 17  1  0
 18 20  1  0
 19 18  2  0
M  END
$$$$
