LVG.pdb
     RDKit          3D

 20 19  0  0  1  0  0  0  0  0999 V2000
    7.4076  -11.9366   27.6755 C   0  0  0  0  0  0  0  0  0  0  0  0
    6.5020  -13.0330   27.1072 C   0  0  1  0  0  0  0  0  0  0  0  0
    5.4403  -12.3505   26.2797 C   0  0  0  0  0  0  0  0  0  0  0  0
    7.3898  -13.9129   26.2524 C   0  0  0  0  0  0  0  0  0  0  0  0
    6.5681  -14.9208   25.4647 C   0  0  2  0  0  0  0  0  0  0  0  0
    5.9909  -15.9139   26.3162 N   0  0  0  0  0  0  0  0  0  0  0  0
    7.3876  -15.4773   24.3807 C   0  0  0  0  0  0  0  0  0  0  0  0
    8.0127  -16.5489   24.5998 O   0  0  0  0  0  0  0  0  0  0  0  0
    8.4266  -13.2909   20.7094 C   0  0  0  0  0  0  0  0  0  0  0  0
    8.0210  -14.7185   20.7873 C   0  0  2  0  0  0  0  0  0  0  0  0
    6.5354  -14.7938   20.4691 C   0  0  0  0  0  0  0  0  0  0  0  0
    8.3650  -15.4395   22.0454 C   0  0  2  0  0  0  0  0  0  0  0  0
    7.5148  -14.8749   23.0989 N   0  0  0  0  0  0  0  0  0  0  0  0
    9.7557  -15.3334   22.4859 C   0  0  0  0  0  0  0  0  0  0  0  0
   10.1316  -14.3485   23.2181 O   0  0  0  0  0  0  0  0  0  0  0  0
   10.7867  -16.2592   22.1698 N   0  0  0  0  0  0  0  0  0  0  0  0
   12.1862  -15.9897   22.5402 C   0  0  0  0  0  0  0  0  0  0  0  0
   13.0332  -17.0612   21.9829 C   0  0  0  0  0  0  0  0  0  0  0  0
   12.5878  -17.8805   21.1394 O   0  0  0  0  0  0  0  0  0  0  0  0
   14.3646  -17.1946   22.3815 O   0  0  0  0  0  0  0  0  0  0  0  0
  2  1  1  6
  3  2  1  0
  4  2  1  0
  5  7  1  0
  5  4  1  0
  5  6  1  1
  7  8  2  0
 10  9  1  1
 10 11  1  0
 10 12  1  0
 12 14  1  0
 13  7  1  0
 12 13  1  1
 14 15  2  0
 16 14  1  0
 16 17  1  0
 18 17  1  0
 18 20  1  0
 19 18  2  0
M  END
$$$$
