LVG.pdb
     RDKit          3D

 20 19  0  0  1  0  0  0  0  0999 V2000
    7.2404  -19.0071   21.0186 C   0  0  0  0  0  0  0  0  0  0  0  0
    6.9743  -17.5144   20.8035 C   0  0  1  0  0  0  0  0  0  0  0  0
    5.4784  -17.3359   20.7137 C   0  0  0  0  0  0  0  0  0  0  0  0
    7.5450  -16.8052   22.0137 C   0  0  0  0  0  0  0  0  0  0  0  0
    7.2901  -15.3081   21.9428 C   0  0  2  0  0  0  0  0  0  0  0  0
    7.7191  -14.7566   20.6953 N   0  0  0  0  0  0  0  0  0  0  0  0
    7.8899  -14.6553   23.1136 C   0  0  0  0  0  0  0  0  0  0  0  0
    9.0966  -14.3007   23.0417 O   0  0  0  0  0  0  0  0  0  0  0  0
    6.0388  -11.9348   25.3531 C   0  0  0  0  0  0  0  0  0  0  0  0
    6.7325  -12.9723   26.1599 C   0  0  2  0  0  0  0  0  0  0  0  0
    7.2239  -12.3102   27.4383 C   0  0  0  0  0  0  0  0  0  0  0  0
    7.8100  -13.7387   25.4723 C   0  0  2  0  0  0  0  0  0  0  0  0
    7.1855  -14.4015   24.3225 N   0  0  0  0  0  0  0  0  0  0  0  0
    8.4789  -14.7639   26.2727 C   0  0  0  0  0  0  0  0  0  0  0  0
    7.8486  -15.3661   27.2147 O   0  0  0  0  0  0  0  0  0  0  0  0
    9.8262  -15.1837   26.1035 N   0  0  0  0  0  0  0  0  0  0  0  0
   10.3790  -16.2934   26.8981 C   0  0  0  0  0  0  0  0  0  0  0  0
   11.7951  -16.4758   26.5268 C   0  0  0  0  0  0  0  0  0  0  0  0
   12.2291  -16.1308   25.3983 O   0  0  0  0  0  0  0  0  0  0  0  0
   12.6988  -17.0418   27.4280 O   0  0  0  0  0  0  0  0  0  0  0  0
  2  1  1  1
  3  2  1  0
  4  2  1  0
  5  7  1  0
  5  4  1  0
  5  6  1  6
  7  8  2  0
 10  9  1  6
 10 11  1  0
 10 12  1  0
 12 14  1  0
 13  7  1  0
 12 13  1  6
 14 15  2  0
 16 14  1  0
 16 17  1  0
 18 17  1  0
 18 20  1  0
 19 18  2  0
M  END
$$$$
