WKP.pdb
     RDKit          3D

 31 33  0  0  1  0  0  0  0  0999 V2000
   24.1896  -20.0522   -9.1150 N   0  0  0  0  0  0  0  0  0  0  0  0
   25.6287  -20.1400   -9.4047 C   0  0  1  0  0  0  0  0  0  0  0  0
   26.2195  -21.2787   -8.6516 C   0  0  0  0  0  0  0  0  0  0  0  0
   26.4900  -20.8475   -7.2563 C   0  0  0  0  0  0  0  0  0  0  0  0
   25.5903  -20.8805   -6.2331 C   0  0  0  0  0  0  0  0  0  0  0  0
   26.1853  -20.4223   -5.1336 N   0  0  0  0  0  0  0  0  0  0  0  0
   27.4701  -20.0824   -5.4040 C   0  0  0  0  0  0  0  0  0  0  0  0
   28.4697  -19.5667   -4.5919 C   0  0  0  0  0  0  0  0  0  0  0  0
   29.6926  -19.3222   -5.1719 C   0  0  0  0  0  0  0  0  0  0  0  0
   29.9194  -19.5786   -6.5079 C   0  0  0  0  0  0  0  0  0  0  0  0
   28.8972  -20.0931   -7.2853 C   0  0  0  0  0  0  0  0  0  0  0  0
   27.6665  -20.3484   -6.7393 C   0  0  0  0  0  0  0  0  0  0  0  0
   25.7614  -20.2778  -10.8753 C   0  0  0  0  0  0  0  0  0  0  0  0
   24.8786  -20.8966  -11.5502 O   0  0  0  0  0  0  0  0  0  0  0  0
   26.8460  -19.7466  -11.6381 N   0  0  0  0  0  0  0  0  0  0  0  0
   26.8915  -19.6623  -13.0699 C   0  0  1  0  0  0  0  0  0  0  0  0
   28.1620  -18.9232  -13.5254 C   0  0  0  0  0  0  0  0  0  0  0  0
   28.2859  -18.8720  -15.0177 C   0  0  0  0  0  0  0  0  0  0  0  0
   27.7179  -17.6625  -15.6715 C   0  0  0  0  0  0  0  0  0  0  0  0
   27.9661  -17.7347  -17.1842 C   0  0  0  0  0  0  0  0  0  0  0  0
   27.4132  -16.5945  -17.8567 N   0  0  0  0  0  0  0  0  0  0  0  0
   26.6923  -20.8829  -13.8329 C   0  0  0  0  0  0  0  0  0  0  0  0
   27.6365  -21.7631  -13.7413 O   0  0  0  0  0  0  0  0  0  0  0  0
   25.5967  -21.2334  -14.6625 N   0  0  0  0  0  0  0  0  0  0  0  0
   24.3815  -20.5417  -14.9477 C   0  0  0  0  0  0  0  0  0  0  0  0
   24.0957  -20.9008  -16.3907 C   0  0  0  0  0  0  0  0  0  0  0  0
   24.2998  -22.4172  -16.2904 C   0  0  0  0  0  0  0  0  0  0  0  0
   25.5148  -22.4945  -15.4300 C   0  0  1  0  0  0  0  0  0  0  0  0
   26.6817  -22.6136  -16.3289 C   0  0  0  0  0  0  0  0  0  0  0  0
   26.9847  -23.8146  -16.9259 O   0  0  0  0  0  0  0  0  0  0  0  0
   27.3934  -21.6178  -16.5454 O   0  0  0  0  0  0  0  0  0  0  0  0
  2  1  1  6
  2 13  1  0
  3  4  1  0
  3  2  1  0
  4 12  1  0
  4  5  2  0
  5  6  1  0
  6  7  1  0
  7  8  2  0
  9  8  1  0
 10  9  2  0
 11 12  2  0
 11 10  1  0
 12  7  1  0
 13 14  2  0
 15 13  1  0
 15 16  1  0
 16 17  1  1
 18 17  1  0
 19 18  1  0
 20 19  1  0
 21 20  1  0
 22 16  1  0
 22 24  1  0
 23 22  2  0
 24 28  1  0
 25 24  1  0
 25 26  1  0
 26 27  1  0
 28 27  1  0
 28 29  1  6
 29 30  1  0
 31 29  2  0
M  END
$$$$
