WKP.pdb
     RDKit          3D

 31 33  0  0  1  0  0  0  0  0999 V2000
   24.2172  -20.1703   -9.1671 N   0  0  0  0  0  0  0  0  0  0  0  0
   25.6328  -20.0061   -9.5305 C   0  0  1  0  0  0  0  0  0  0  0  0
   26.4427  -21.0631   -8.8677 C   0  0  0  0  0  0  0  0  0  0  0  0
   26.4829  -20.7972   -7.4070 C   0  0  0  0  0  0  0  0  0  0  0  0
   25.4996  -21.1197   -6.5201 C   0  0  0  0  0  0  0  0  0  0  0  0
   25.8840  -20.7330   -5.3054 N   0  0  0  0  0  0  0  0  0  0  0  0
   27.1101  -20.1562   -5.3642 C   0  0  0  0  0  0  0  0  0  0  0  0
   27.9109  -19.6075   -4.3731 C   0  0  0  0  0  0  0  0  0  0  0  0
   29.1261  -19.0897   -4.7563 C   0  0  0  0  0  0  0  0  0  0  0  0
   29.5353  -19.1135   -6.0731 C   0  0  0  0  0  0  0  0  0  0  0  0
   28.7085  -19.6695   -7.0329 C   0  0  0  0  0  0  0  0  0  0  0  0
   27.4912  -20.1943   -6.6855 C   0  0  0  0  0  0  0  0  0  0  0  0
   25.7028  -20.0556  -11.0110 C   0  0  0  0  0  0  0  0  0  0  0  0
   24.9803  -20.8713  -11.6668 O   0  0  0  0  0  0  0  0  0  0  0  0
   26.5503  -19.2230  -11.8041 N   0  0  0  0  0  0  0  0  0  0  0  0
   26.5872  -19.2020  -13.2385 C   0  0  1  0  0  0  0  0  0  0  0  0
   27.3898  -17.9881  -13.7386 C   0  0  0  0  0  0  0  0  0  0  0  0
   27.4334  -17.9124  -15.2344 C   0  0  0  0  0  0  0  0  0  0  0  0
   28.1599  -16.7443  -15.8006 C   0  0  0  0  0  0  0  0  0  0  0  0
   28.1122  -16.8062  -17.3332 C   0  0  0  0  0  0  0  0  0  0  0  0
   28.6493  -15.6118  -17.9188 N   0  0  0  0  0  0  0  0  0  0  0  0
   26.9868  -20.4163  -13.9295 C   0  0  0  0  0  0  0  0  0  0  0  0
   28.2096  -20.7947  -13.7389 O   0  0  0  0  0  0  0  0  0  0  0  0
   26.2094  -21.2396  -14.7835 N   0  0  0  0  0  0  0  0  0  0  0  0
   24.8322  -21.1684  -15.1505 C   0  0  0  0  0  0  0  0  0  0  0  0
   24.8185  -21.6558  -16.5842 C   0  0  0  0  0  0  0  0  0  0  0  0
   25.6667  -22.9199  -16.4008 C   0  0  0  0  0  0  0  0  0  0  0  0
   26.7386  -22.4257  -15.4902 C   0  0  1  0  0  0  0  0  0  0  0  0
   27.8872  -22.0374  -16.3351 C   0  0  0  0  0  0  0  0  0  0  0  0
   28.7502  -22.9903  -16.8227 O   0  0  0  0  0  0  0  0  0  0  0  0
   28.0721  -20.8384  -16.6058 O   0  0  0  0  0  0  0  0  0  0  0  0
  2  1  1  6
  2 13  1  0
  3  4  1  0
  3  2  1  0
  4 12  1  0
  4  5  2  0
  5  6  1  0
  6  7  1  0
  7  8  2  0
  9  8  1  0
 10  9  2  0
 11 12  2  0
 11 10  1  0
 12  7  1  0
 13 14  2  0
 15 13  1  0
 15 16  1  0
 16 17  1  1
 18 17  1  0
 19 18  1  0
 20 19  1  0
 21 20  1  0
 22 16  1  0
 22 24  1  0
 23 22  2  0
 24 28  1  0
 25 24  1  0
 25 26  1  0
 26 27  1  0
 28 27  1  0
 28 29  1  6
 29 30  1  0
 31 29  2  0
M  END
$$$$
