WKP.pdb
     RDKit          3D

 31 33  0  0  1  0  0  0  0  0999 V2000
   23.4061  -15.9144  -17.1985 N   0  0  0  0  0  0  0  0  0  0  0  0
   24.2064  -17.0580  -16.7353 C   0  0  1  0  0  0  0  0  0  0  0  0
   25.5782  -16.5982  -16.3898 C   0  0  0  0  0  0  0  0  0  0  0  0
   26.3219  -16.3102  -17.6428 C   0  0  0  0  0  0  0  0  0  0  0  0
   26.6913  -15.0708  -18.0725 C   0  0  0  0  0  0  0  0  0  0  0  0
   27.3404  -15.2012  -19.2277 N   0  0  0  0  0  0  0  0  0  0  0  0
   27.4117  -16.5092  -19.5792 C   0  0  0  0  0  0  0  0  0  0  0  0
   27.9813  -17.1300  -20.6813 C   0  0  0  0  0  0  0  0  0  0  0  0
   27.8867  -18.5002  -20.7546 C   0  0  0  0  0  0  0  0  0  0  0  0
   27.2512  -19.2310  -19.7727 C   0  0  0  0  0  0  0  0  0  0  0  0
   26.6954  -18.5755  -18.6885 C   0  0  0  0  0  0  0  0  0  0  0  0
   26.7717  -17.2112  -18.5842 C   0  0  0  0  0  0  0  0  0  0  0  0
   23.4800  -17.6510  -15.5864 C   0  0  0  0  0  0  0  0  0  0  0  0
   23.4016  -17.0300  -14.4792 O   0  0  0  0  0  0  0  0  0  0  0  0
   22.8250  -18.9201  -15.6177 N   0  0  0  0  0  0  0  0  0  0  0  0
   22.6440  -19.7893  -14.4903 C   0  0  1  0  0  0  0  0  0  0  0  0
   21.5773  -20.8548  -14.7980 C   0  0  0  0  0  0  0  0  0  0  0  0
   21.2571  -21.7005  -13.6034 C   0  0  0  0  0  0  0  0  0  0  0  0
   19.8828  -21.5486  -13.0546 C   0  0  0  0  0  0  0  0  0  0  0  0
   19.6919  -22.5159  -11.8786 C   0  0  0  0  0  0  0  0  0  0  0  0
   18.3421  -22.4851  -11.3939 N   0  0  0  0  0  0  0  0  0  0  0  0
   23.8256  -20.3870  -13.8918 C   0  0  0  0  0  0  0  0  0  0  0  0
   24.5898  -21.0500  -14.6987 O   0  0  0  0  0  0  0  0  0  0  0  0
   24.2489  -20.3357  -12.5392 N   0  0  0  0  0  0  0  0  0  0  0  0
   23.6985  -19.6538  -11.4129 C   0  0  0  0  0  0  0  0  0  0  0  0
   23.9800  -20.5893  -10.2558 C   0  0  0  0  0  0  0  0  0  0  0  0
   25.4610  -20.8637  -10.5428 C   0  0  0  0  0  0  0  0  0  0  0  0
   25.4478  -21.0310  -12.0241 C   0  0  1  0  0  0  0  0  0  0  0  0
   25.3477  -22.4792  -12.3009 C   0  0  0  0  0  0  0  0  0  0  0  0
   26.4284  -23.3055  -12.1012 O   0  0  0  0  0  0  0  0  0  0  0  0
   24.2761  -22.9516  -12.7175 O   0  0  0  0  0  0  0  0  0  0  0  0
  2  1  1  1
  2 13  1  0
  3  4  1  0
  3  2  1  0
  4 12  1  0
  4  5  2  0
  5  6  1  0
  6  7  1  0
  7  8  2  0
  9  8  1  0
 10  9  2  0
 11 12  2  0
 11 10  1  0
 12  7  1  0
 13 14  2  0
 15 13  1  0
 15 16  1  0
 16 17  1  6
 18 17  1  0
 19 18  1  0
 20 19  1  0
 21 20  1  0
 22 16  1  0
 22 24  1  0
 23 22  2  0
 24 28  1  0
 25 24  1  0
 25 26  1  0
 26 27  1  0
 28 27  1  0
 28 29  1  1
 29 30  1  0
 31 29  2  0
M  END
$$$$
