WKP.pdb
     RDKit          3D

 31 33  0  0  1  0  0  0  0  0999 V2000
   24.6851  -19.1870   -9.3161 N   0  0  0  0  0  0  0  0  0  0  0  0
   25.9527  -19.8104   -9.7256 C   0  0  1  0  0  0  0  0  0  0  0  0
   26.1792  -21.0467   -8.9301 C   0  0  0  0  0  0  0  0  0  0  0  0
   26.4621  -20.6706   -7.5214 C   0  0  0  0  0  0  0  0  0  0  0  0
   25.5220  -20.4723   -6.5548 C   0  0  0  0  0  0  0  0  0  0  0  0
   26.1434  -20.1517   -5.4217 N   0  0  0  0  0  0  0  0  0  0  0  0
   27.4858  -20.1319   -5.6138 C   0  0  0  0  0  0  0  0  0  0  0  0
   28.5300  -19.8564   -4.7430 C   0  0  0  0  0  0  0  0  0  0  0  0
   29.8079  -19.9193   -5.2477 C   0  0  0  0  0  0  0  0  0  0  0  0
   30.0451  -20.2433   -6.5671 C   0  0  0  0  0  0  0  0  0  0  0  0
   28.9772  -20.5117   -7.4047 C   0  0  0  0  0  0  0  0  0  0  0  0
   27.6912  -20.4580   -6.9343 C   0  0  0  0  0  0  0  0  0  0  0  0
   25.8544  -20.0613  -11.1839 C   0  0  0  0  0  0  0  0  0  0  0  0
   24.8509  -19.6468  -11.8464 O   0  0  0  0  0  0  0  0  0  0  0  0
   26.8392  -20.7591  -11.9479 N   0  0  0  0  0  0  0  0  0  0  0  0
   26.8850  -20.8261  -13.3806 C   0  0  1  0  0  0  0  0  0  0  0  0
   28.2171  -21.4378  -13.8485 C   0  0  0  0  0  0  0  0  0  0  0  0
   28.3323  -21.4750  -15.3419 C   0  0  0  0  0  0  0  0  0  0  0  0
   29.5886  -22.0643  -15.8780 C   0  0  0  0  0  0  0  0  0  0  0  0
   29.2660  -23.3686  -16.6194 C   0  0  0  0  0  0  0  0  0  0  0  0
   30.4629  -24.0291  -17.0544 N   0  0  0  0  0  0  0  0  0  0  0  0
   25.7586  -21.4293  -14.0727 C   0  0  0  0  0  0  0  0  0  0  0  0
   25.6331  -22.7096  -13.9322 O   0  0  0  0  0  0  0  0  0  0  0  0
   24.7796  -20.7956  -14.8798 N   0  0  0  0  0  0  0  0  0  0  0  0
   24.6153  -19.4267  -15.2479 C   0  0  0  0  0  0  0  0  0  0  0  0
   24.0558  -19.4988  -16.6532 C   0  0  0  0  0  0  0  0  0  0  0  0
   22.9512  -20.5326  -16.4035 C   0  0  0  0  0  0  0  0  0  0  0  0
   23.6546  -21.5080  -15.5225 C   0  0  1  0  0  0  0  0  0  0  0  0
   24.1716  -22.5877  -16.3889 C   0  0  0  0  0  0  0  0  0  0  0  0
   23.3508  -23.6148  -16.7915 O   0  0  0  0  0  0  0  0  0  0  0  0
   25.3591  -22.5646  -16.7555 O   0  0  0  0  0  0  0  0  0  0  0  0
  2  1  1  1
  2 13  1  0
  3  4  1  0
  3  2  1  0
  4 12  1  0
  4  5  2  0
  5  6  1  0
  6  7  1  0
  7  8  2  0
  9  8  1  0
 10  9  2  0
 11 12  2  0
 11 10  1  0
 12  7  1  0
 13 14  2  0
 15 13  1  0
 15 16  1  0
 16 17  1  1
 18 17  1  0
 19 18  1  0
 20 19  1  0
 21 20  1  0
 22 16  1  0
 22 24  1  0
 23 22  2  0
 24 28  1  0
 25 24  1  0
 25 26  1  0
 26 27  1  0
 28 27  1  0
 28 29  1  6
 29 30  1  0
 31 29  2  0
M  END
$$$$
