WKP.pdb
     RDKit          3D

 31 33  0  0  1  0  0  0  0  0999 V2000
   23.1092  -18.4570  -18.3067 N   0  0  0  0  0  0  0  0  0  0  0  0
   24.1704  -17.9766  -17.4089 C   0  0  1  0  0  0  0  0  0  0  0  0
   24.2672  -16.4951  -17.5006 C   0  0  0  0  0  0  0  0  0  0  0  0
   24.5291  -16.1138  -18.9120 C   0  0  0  0  0  0  0  0  0  0  0  0
   23.7156  -15.3379  -19.6824 C   0  0  0  0  0  0  0  0  0  0  0  0
   24.2723  -15.2077  -20.8849 N   0  0  0  0  0  0  0  0  0  0  0  0
   25.4467  -15.8844  -20.9325 C   0  0  0  0  0  0  0  0  0  0  0  0
   26.3711  -16.0407  -21.9551 C   0  0  0  0  0  0  0  0  0  0  0  0
   27.4854  -16.8020  -21.6895 C   0  0  0  0  0  0  0  0  0  0  0  0
   27.6790  -17.3882  -20.4563 C   0  0  0  0  0  0  0  0  0  0  0  0
   26.7343  -17.2091  -19.4616 C   0  0  0  0  0  0  0  0  0  0  0  0
   25.6125  -16.4566  -19.6925 C   0  0  0  0  0  0  0  0  0  0  0  0
   23.8305  -18.4590  -16.0484 C   0  0  0  0  0  0  0  0  0  0  0  0
   24.4870  -18.0573  -15.0359 O   0  0  0  0  0  0  0  0  0  0  0  0
   22.7753  -19.3780  -15.7614 N   0  0  0  0  0  0  0  0  0  0  0  0
   22.6374  -20.1318  -14.5482 C   0  0  1  0  0  0  0  0  0  0  0  0
   21.2096  -20.6913  -14.4214 C   0  0  0  0  0  0  0  0  0  0  0  0
   21.0201  -21.4870  -13.1660 C   0  0  0  0  0  0  0  0  0  0  0  0
   19.6862  -22.1246  -13.0011 C   0  0  0  0  0  0  0  0  0  0  0  0
   18.8816  -21.3605  -11.9410 C   0  0  0  0  0  0  0  0  0  0  0  0
   17.5798  -21.9359  -11.7617 N   0  0  0  0  0  0  0  0  0  0  0  0
   23.6293  -21.1549  -14.2631 C   0  0  0  0  0  0  0  0  0  0  0  0
   23.6774  -22.1398  -15.1011 O   0  0  0  0  0  0  0  0  0  0  0  0
   24.5511  -21.2115  -13.1868 N   0  0  0  0  0  0  0  0  0  0  0  0
   24.8143  -20.2869  -12.1321 C   0  0  0  0  0  0  0  0  0  0  0  0
   25.1615  -21.1753  -10.9559 C   0  0  0  0  0  0  0  0  0  0  0  0
   26.1678  -22.0953  -11.6575 C   0  0  0  0  0  0  0  0  0  0  0  0
   25.4894  -22.3322  -12.9636 C   0  0  1  0  0  0  0  0  0  0  0  0
   24.7398  -23.6002  -12.8445 C   0  0  0  0  0  0  0  0  0  0  0  0
   25.3989  -24.8068  -12.8656 O   0  0  0  0  0  0  0  0  0  0  0  0
   23.5029  -23.5728  -12.7242 O   0  0  0  0  0  0  0  0  0  0  0  0
  2  1  1  6
  2 13  1  0
  3  4  1  0
  3  2  1  0
  4 12  1  0
  4  5  2  0
  5  6  1  0
  6  7  1  0
  7  8  2  0
  9  8  1  0
 10  9  2  0
 11 12  2  0
 11 10  1  0
 12  7  1  0
 13 14  2  0
 15 13  1  0
 15 16  1  0
 16 17  1  6
 18 17  1  0
 19 18  1  0
 20 19  1  0
 21 20  1  0
 22 16  1  0
 22 24  1  0
 23 22  2  0
 24 28  1  0
 25 24  1  0
 25 26  1  0
 26 27  1  0
 28 27  1  0
 28 29  1  1
 29 30  1  0
 31 29  2  0
M  END
$$$$
