FKM.pdb
     RDKit          3D

 29 29  0  0  1  0  0  0  0  0999 V2000
   26.1298  -18.5396   -8.2775 N   0  0  0  0  0  0  0  0  0  0  0  0
   26.7861  -19.7455   -8.7662 C   0  0  1  0  0  0  0  0  0  0  0  0
   26.8701  -20.7884   -7.6691 C   0  0  0  0  0  0  0  0  0  0  0  0
   27.7365  -20.3405   -6.5535 C   0  0  0  0  0  0  0  0  0  0  0  0
   27.2456  -19.5622   -5.5278 C   0  0  0  0  0  0  0  0  0  0  0  0
   28.1105  -19.1719   -4.5070 C   0  0  0  0  0  0  0  0  0  0  0  0
   29.4247  -19.5395   -4.4981 C   0  0  0  0  0  0  0  0  0  0  0  0
   29.9227  -20.3181   -5.5212 C   0  0  0  0  0  0  0  0  0  0  0  0
   29.0580  -20.7125   -6.5486 C   0  0  0  0  0  0  0  0  0  0  0  0
   25.9304  -20.2956   -9.8376 C   0  0  0  0  0  0  0  0  0  0  0  0
   24.6731  -20.3615   -9.7682 O   0  0  0  0  0  0  0  0  0  0  0  0
   26.5505  -20.7843  -11.0257 N   0  0  0  0  0  0  0  0  0  0  0  0
   25.9913  -20.5603  -12.3416 C   0  0  1  0  0  0  0  0  0  0  0  0
   27.1235  -20.6199  -13.3266 C   0  0  0  0  0  0  0  0  0  0  0  0
   26.6916  -20.3643  -14.7502 C   0  0  0  0  0  0  0  0  0  0  0  0
   27.0584  -21.5062  -15.6673 C   0  0  0  0  0  0  0  0  0  0  0  0
   26.7164  -21.0950  -17.0840 C   0  0  0  0  0  0  0  0  0  0  0  0
   27.7106  -20.1704  -17.5724 N   0  0  0  0  0  0  0  0  0  0  0  0
   24.8881  -21.5030  -12.6406 C   0  0  0  0  0  0  0  0  0  0  0  0
   25.0484  -22.7398  -12.4669 O   0  0  0  0  0  0  0  0  0  0  0  0
   19.1214  -22.1628  -10.0858 C   0  0  0  0  0  0  0  0  0  0  0  0
   18.7393  -22.2324  -11.8554 S   0  0  0  0  0  0  0  0  0  0  0  0
   20.1628  -22.6162  -12.8562 C   0  0  0  0  0  0  0  0  0  0  0  0
   21.3295  -21.7263  -12.5775 C   0  0  0  0  0  0  0  0  0  0  0  0
   22.5293  -22.0117  -13.4208 C   0  0  2  0  0  0  0  0  0  0  0  0
   23.6231  -21.0935  -13.1250 N   0  0  0  0  0  0  0  0  0  0  0  0
   22.1982  -21.8914  -14.8382 C   0  0  0  0  0  0  0  0  0  0  0  0
   22.4584  -20.8850  -15.5431 O   0  0  0  0  0  0  0  0  0  0  0  0
   21.5451  -22.9304  -15.5253 O   0  0  0  0  0  0  0  0  0  0  0  0
  2  1  1  1
  3  4  1  0
  3  2  1  0
  4  9  2  0
  4  5  1  0
  5  6  2  0
  6  7  1  0
  8  7  2  0
  9  8  1  0
 10 12  1  0
 10  2  1  0
 11 10  2  0
 13 12  1  0
 13 14  1  6
 14 15  1  0
 15 16  1  0
 16 17  1  0
 17 18  1  0
 19 13  1  0
 20 19  2  0
 21 22  1  0
 23 24  1  0
 23 22  1  0
 25 24  1  1
 25 27  1  0
 25 26  1  0
 26 19  1  0
 27 29  1  0
 28 27  2  0
M  END
$$$$
