FKM.pdb
     RDKit          3D

 29 29  0  0  1  0  0  0  0  0999 V2000
   28.2813  -19.4094   -9.0081 N   0  0  0  0  0  0  0  0  0  0  0  0
   27.2144  -20.3452   -8.6766 C   0  0  1  0  0  0  0  0  0  0  0  0
   26.5688  -19.9713   -7.3568 C   0  0  0  0  0  0  0  0  0  0  0  0
   27.5710  -19.8506   -6.2721 C   0  0  0  0  0  0  0  0  0  0  0  0
   27.9682  -18.6218   -5.7917 C   0  0  0  0  0  0  0  0  0  0  0  0
   28.9154  -18.5735   -4.7704 C   0  0  0  0  0  0  0  0  0  0  0  0
   29.4564  -19.7071   -4.2372 C   0  0  0  0  0  0  0  0  0  0  0  0
   29.0636  -20.9400   -4.7130 C   0  0  0  0  0  0  0  0  0  0  0  0
   28.1127  -20.9937   -5.7386 C   0  0  0  0  0  0  0  0  0  0  0  0
   26.1852  -20.2126   -9.7282 C   0  0  0  0  0  0  0  0  0  0  0  0
   25.6589  -19.1164  -10.0616 O   0  0  0  0  0  0  0  0  0  0  0  0
   25.7527  -21.3860  -10.4143 N   0  0  0  0  0  0  0  0  0  0  0  0
   25.0261  -21.3306  -11.6647 C   0  0  1  0  0  0  0  0  0  0  0  0
   25.3832  -22.5623  -12.4464 C   0  0  0  0  0  0  0  0  0  0  0  0
   24.7576  -22.6013  -13.8196 C   0  0  0  0  0  0  0  0  0  0  0  0
   25.1749  -23.8258  -14.5979 C   0  0  0  0  0  0  0  0  0  0  0  0
   24.5455  -23.7418  -15.9726 C   0  0  0  0  0  0  0  0  0  0  0  0
   24.9368  -24.8896  -16.7545 N   0  0  0  0  0  0  0  0  0  0  0  0
   23.5702  -21.1595  -11.4502 C   0  0  0  0  0  0  0  0  0  0  0  0
   22.9904  -21.7804  -10.5208 O   0  0  0  0  0  0  0  0  0  0  0  0
   20.2946  -15.7943  -13.2884 C   0  0  0  0  0  0  0  0  0  0  0  0
   18.9172  -16.9489  -13.0602 S   0  0  0  0  0  0  0  0  0  0  0  0
   19.4297  -18.5097  -12.3698 C   0  0  0  0  0  0  0  0  0  0  0  0
   20.8845  -18.7854  -12.5659 C   0  0  0  0  0  0  0  0  0  0  0  0
   21.3368  -20.0965  -12.0105 C   0  0  2  0  0  0  0  0  0  0  0  0
   22.7591  -20.3165  -12.2467 N   0  0  0  0  0  0  0  0  0  0  0  0
   20.5936  -21.1947  -12.6226 C   0  0  0  0  0  0  0  0  0  0  0  0
   19.5222  -21.6654  -12.1665 O   0  0  0  0  0  0  0  0  0  0  0  0
   21.0467  -21.8146  -13.8010 O   0  0  0  0  0  0  0  0  0  0  0  0
  2  1  1  6
  3  4  1  0
  3  2  1  0
  4  9  2  0
  4  5  1  0
  5  6  2  0
  6  7  1  0
  8  7  2  0
  9  8  1  0
 10 12  1  0
 10  2  1  0
 11 10  2  0
 13 12  1  0
 13 14  1  1
 14 15  1  0
 15 16  1  0
 16 17  1  0
 17 18  1  0
 19 13  1  0
 20 19  2  0
 21 22  1  0
 23 24  1  0
 23 22  1  0
 25 24  1  6
 25 27  1  0
 25 26  1  0
 26 19  1  0
 27 29  1  0
 28 27  2  0
M  END
$$$$
