FKM.pdb
     RDKit          3D

 29 29  0  0  1  0  0  0  0  0999 V2000
   25.4032  -11.6226  -17.1424 N   0  0  0  0  0  0  0  0  0  0  0  0
   24.9910  -11.0735  -15.8569 C   0  0  1  0  0  0  0  0  0  0  0  0
   26.1038  -10.2406  -15.2518 C   0  0  0  0  0  0  0  0  0  0  0  0
   26.6496   -9.2662  -16.2255 C   0  0  0  0  0  0  0  0  0  0  0  0
   27.7666   -9.5508  -16.9806 C   0  0  0  0  0  0  0  0  0  0  0  0
   28.2325   -8.5929  -17.8793 C   0  0  0  0  0  0  0  0  0  0  0  0
   27.6132   -7.3861  -18.0292 C   0  0  0  0  0  0  0  0  0  0  0  0
   26.4952   -7.0945  -17.2770 C   0  0  0  0  0  0  0  0  0  0  0  0
   26.0235   -8.0533  -16.3731 C   0  0  0  0  0  0  0  0  0  0  0  0
   23.8528  -10.1695  -16.1216 C   0  0  0  0  0  0  0  0  0  0  0  0
   23.6255   -9.6355  -17.2410 O   0  0  0  0  0  0  0  0  0  0  0  0
   22.9505   -9.8753  -15.0566 N   0  0  0  0  0  0  0  0  0  0  0  0
   21.7989   -9.0162  -15.2301 C   0  0  1  0  0  0  0  0  0  0  0  0
   20.7419   -9.4831  -14.2707 C   0  0  0  0  0  0  0  0  0  0  0  0
   19.4260   -8.7615  -14.4332 C   0  0  0  0  0  0  0  0  0  0  0  0
   18.8050   -9.0129  -15.7861 C   0  0  0  0  0  0  0  0  0  0  0  0
   17.4721   -8.2957  -15.8282 C   0  0  0  0  0  0  0  0  0  0  0  0
   16.8642   -8.4808  -17.1237 N   0  0  0  0  0  0  0  0  0  0  0  0
   22.1506   -7.5846  -15.0823 C   0  0  0  0  0  0  0  0  0  0  0  0
   22.8847   -7.2086  -14.1309 O   0  0  0  0  0  0  0  0  0  0  0  0
   22.5201   -0.4285  -18.6088 C   0  0  0  0  0  0  0  0  0  0  0  0
   22.1546   -2.2011  -18.6913 S   0  0  0  0  0  0  0  0  0  0  0  0
   22.2633   -3.0046  -17.1045 C   0  0  0  0  0  0  0  0  0  0  0  0
   21.9279   -4.4590  -17.1623 C   0  0  0  0  0  0  0  0  0  0  0  0
   22.0749   -5.1710  -15.8571 C   0  0  2  0  0  0  0  0  0  0  0  0
   21.7018   -6.5765  -15.9683 N   0  0  0  0  0  0  0  0  0  0  0  0
   21.2318   -4.5504  -14.8386 C   0  0  0  0  0  0  0  0  0  0  0  0
   20.0288   -4.8495  -14.6369 O   0  0  0  0  0  0  0  0  0  0  0  0
   21.7317   -3.5451  -13.9914 O   0  0  0  0  0  0  0  0  0  0  0  0
  2  1  1  6
  3  4  1  0
  3  2  1  0
  4  9  2  0
  4  5  1  0
  5  6  2  0
  6  7  1  0
  8  7  2  0
  9  8  1  0
 10 12  1  0
 10  2  1  0
 11 10  2  0
 13 12  1  0
 13 14  1  1
 14 15  1  0
 15 16  1  0
 16 17  1  0
 17 18  1  0
 19 13  1  0
 20 19  2  0
 21 22  1  0
 23 24  1  0
 23 22  1  0
 25 24  1  6
 25 27  1  0
 25 26  1  0
 26 19  1  0
 27 29  1  0
 28 27  2  0
M  END
$$$$
