FKM.pdb
     RDKit          3D

 29 29  0  0  1  0  0  0  0  0999 V2000
   18.1072   -5.5075  -15.1204 N   0  0  0  0  0  0  0  0  0  0  0  0
   18.6936   -6.7520  -15.6013 C   0  0  1  0  0  0  0  0  0  0  0  0
   19.4298   -7.4616  -14.4820 C   0  0  0  0  0  0  0  0  0  0  0  0
   20.6876   -6.7639  -14.1257 C   0  0  0  0  0  0  0  0  0  0  0  0
   21.7832   -6.7821  -14.9612 C   0  0  0  0  0  0  0  0  0  0  0  0
   22.9382   -6.1074  -14.5700 C   0  0  0  0  0  0  0  0  0  0  0  0
   23.0107   -5.4326  -13.3861 C   0  0  0  0  0  0  0  0  0  0  0  0
   21.9184   -5.4102  -12.5452 C   0  0  0  0  0  0  0  0  0  0  0  0
   20.7562   -6.0864  -12.9336 C   0  0  0  0  0  0  0  0  0  0  0  0
   17.5739   -7.6212  -16.0178 C   0  0  0  0  0  0  0  0  0  0  0  0
   16.4432   -7.6257  -15.4600 O   0  0  0  0  0  0  0  0  0  0  0  0
   17.7706   -8.5123  -17.1142 N   0  0  0  0  0  0  0  0  0  0  0  0
   16.6998   -9.3174  -17.6617 C   0  0  1  0  0  0  0  0  0  0  0  0
   17.2897  -10.1699  -18.7484 C   0  0  0  0  0  0  0  0  0  0  0  0
   16.2667  -11.0174  -19.4653 C   0  0  0  0  0  0  0  0  0  0  0  0
   15.3981  -10.1973  -20.3886 C   0  0  0  0  0  0  0  0  0  0  0  0
   14.4178  -11.1347  -21.0618 C   0  0  0  0  0  0  0  0  0  0  0  0
   13.5529  -10.3820  -21.9379 N   0  0  0  0  0  0  0  0  0  0  0  0
   15.9969  -10.0897  -16.6107 C   0  0  0  0  0  0  0  0  0  0  0  0
   16.6537  -10.6770  -15.7112 O   0  0  0  0  0  0  0  0  0  0  0  0
    8.9220   -9.5606  -14.5463 C   0  0  0  0  0  0  0  0  0  0  0  0
   10.5079  -10.2796  -14.0461 S   0  0  0  0  0  0  0  0  0  0  0  0
   11.8819   -9.6491  -14.9894 C   0  0  0  0  0  0  0  0  0  0  0  0
   13.1977  -10.1955  -14.5411 C   0  0  0  0  0  0  0  0  0  0  0  0
   13.8895  -11.0360  -15.5643 C   0  0  2  0  0  0  0  0  0  0  0  0
   14.5888  -10.2165  -16.5473 N   0  0  0  0  0  0  0  0  0  0  0  0
   12.9270  -11.8788  -16.2690 C   0  0  0  0  0  0  0  0  0  0  0  0
   11.7310  -12.0332  -15.9182 O   0  0  0  0  0  0  0  0  0  0  0  0
   13.2921  -12.5943  -17.4235 O   0  0  0  0  0  0  0  0  0  0  0  0
  2  1  1  1
  3  4  1  0
  3  2  1  0
  4  9  2  0
  4  5  1  0
  5  6  2  0
  6  7  1  0
  8  7  2  0
  9  8  1  0
 10 12  1  0
 10  2  1  0
 11 10  2  0
 13 12  1  0
 13 14  1  6
 14 15  1  0
 15 16  1  0
 16 17  1  0
 17 18  1  0
 19 13  1  0
 20 19  2  0
 21 22  1  0
 23 24  1  0
 23 22  1  0
 25 24  1  1
 25 27  1  0
 25 26  1  0
 26 19  1  0
 27 29  1  0
 28 27  2  0
M  END
$$$$
