FKM.pdb
     RDKit          3D

 29 29  0  0  1  0  0  0  0  0999 V2000
   25.7298  -24.0814  -15.8476 N   0  0  0  0  0  0  0  0  0  0  0  0
   25.2225  -25.4461  -15.9112 C   0  0  1  0  0  0  0  0  0  0  0  0
   23.8396  -25.4720  -16.5319 C   0  0  0  0  0  0  0  0  0  0  0  0
   22.8233  -24.8826  -15.6289 C   0  0  0  0  0  0  0  0  0  0  0  0
   22.2127  -25.6305  -14.6457 C   0  0  0  0  0  0  0  0  0  0  0  0
   21.2638  -25.0194  -13.8282 C   0  0  0  0  0  0  0  0  0  0  0  0
   20.9260  -23.7055  -13.9764 C   0  0  0  0  0  0  0  0  0  0  0  0
   21.5329  -22.9513  -14.9580 C   0  0  0  0  0  0  0  0  0  0  0  0
   22.4864  -23.5605  -15.7817 C   0  0  0  0  0  0  0  0  0  0  0  0
   26.1256  -26.1983  -16.8063 C   0  0  0  0  0  0  0  0  0  0  0  0
   26.7539  -25.6789  -17.7683 O   0  0  0  0  0  0  0  0  0  0  0  0
   26.3062  -27.5951  -16.5798 N   0  0  0  0  0  0  0  0  0  0  0  0
   27.2114  -28.3992  -17.3727 C   0  0  1  0  0  0  0  0  0  0  0  0
   27.8127  -29.4297  -16.4604 C   0  0  0  0  0  0  0  0  0  0  0  0
   28.8544  -30.2897  -17.1341 C   0  0  0  0  0  0  0  0  0  0  0  0
   29.5594  -31.1973  -16.1550 C   0  0  0  0  0  0  0  0  0  0  0  0
   30.6397  -31.9456  -16.9073 C   0  0  0  0  0  0  0  0  0  0  0  0
   31.3652  -32.7950  -15.9939 N   0  0  0  0  0  0  0  0  0  0  0  0
   26.5419  -28.9724  -18.5636 C   0  0  0  0  0  0  0  0  0  0  0  0
   25.4082  -29.5094  -18.4547 O   0  0  0  0  0  0  0  0  0  0  0  0
   28.4472  -27.5062  -24.6650 C   0  0  0  0  0  0  0  0  0  0  0  0
   26.9641  -28.4879  -25.0098 S   0  0  0  0  0  0  0  0  0  0  0  0
   26.2574  -29.2125  -23.5432 C   0  0  0  0  0  0  0  0  0  0  0  0
   26.9634  -28.8043  -22.2919 C   0  0  0  0  0  0  0  0  0  0  0  0
   26.4270  -29.4437  -21.0528 C   0  0  2  0  0  0  0  0  0  0  0  0
   27.1099  -28.9568  -19.8597 N   0  0  0  0  0  0  0  0  0  0  0  0
   26.5878  -30.8940  -21.1153 C   0  0  0  0  0  0  0  0  0  0  0  0
   25.6655  -31.6970  -21.4018 O   0  0  0  0  0  0  0  0  0  0  0  0
   27.8276  -31.5025  -20.8493 O   0  0  0  0  0  0  0  0  0  0  0  0
  2  1  1  6
  3  4  1  0
  3  2  1  0
  4  9  2  0
  4  5  1  0
  5  6  2  0
  6  7  1  0
  8  7  2  0
  9  8  1  0
 10 12  1  0
 10  2  1  0
 11 10  2  0
 13 12  1  0
 13 14  1  1
 14 15  1  0
 15 16  1  0
 16 17  1  0
 17 18  1  0
 19 13  1  0
 20 19  2  0
 21 22  1  0
 23 24  1  0
 23 22  1  0
 25 24  1  6
 25 27  1  0
 25 26  1  0
 26 19  1  0
 27 29  1  0
 28 27  2  0
M  END
$$$$
