FKM.pdb
     RDKit          3D

 29 29  0  0  1  0  0  0  0  0999 V2000
   27.5542  -20.8545  -19.0727 N   0  0  0  0  0  0  0  0  0  0  0  0
   27.7708  -21.4194  -17.7469 C   0  0  1  0  0  0  0  0  0  0  0  0
   27.4933  -20.3841  -16.6748 C   0  0  0  0  0  0  0  0  0  0  0  0
   28.3195  -19.1683  -16.8613 C   0  0  0  0  0  0  0  0  0  0  0  0
   27.7483  -17.9432  -17.1290 C   0  0  0  0  0  0  0  0  0  0  0  0
   28.5787  -16.8363  -17.2952 C   0  0  0  0  0  0  0  0  0  0  0  0
   29.9364  -16.9350  -17.1997 C   0  0  0  0  0  0  0  0  0  0  0  0
   30.5147  -18.1575  -16.9320 C   0  0  0  0  0  0  0  0  0  0  0  0
   29.6850  -19.2722  -16.7645 C   0  0  0  0  0  0  0  0  0  0  0  0
   26.7867  -22.5084  -17.5784 C   0  0  0  0  0  0  0  0  0  0  0  0
   25.6207  -22.4818  -18.0577 O   0  0  0  0  0  0  0  0  0  0  0  0
   27.1652  -23.6634  -16.8317 N   0  0  0  0  0  0  0  0  0  0  0  0
   26.3078  -24.8227  -16.7075 C   0  0  1  0  0  0  0  0  0  0  0  0
   27.1810  -26.0401  -16.8125 C   0  0  0  0  0  0  0  0  0  0  0  0
   26.4015  -27.3312  -16.8784 C   0  0  0  0  0  0  0  0  0  0  0  0
   27.3063  -28.5343  -16.9929 C   0  0  0  0  0  0  0  0  0  0  0  0
   26.4350  -29.7552  -17.2006 C   0  0  0  0  0  0  0  0  0  0  0  0
   27.2553  -30.9422  -17.1888 N   0  0  0  0  0  0  0  0  0  0  0  0
   25.4921  -24.7764  -15.4716 C   0  0  0  0  0  0  0  0  0  0  0  0
   26.0450  -24.8757  -14.3447 O   0  0  0  0  0  0  0  0  0  0  0  0
   25.5860  -20.9833  -11.2846 C   0  0  0  0  0  0  0  0  0  0  0  0
   24.0300  -20.6573  -12.1535 S   0  0  0  0  0  0  0  0  0  0  0  0
   23.2370  -22.1437  -12.7340 C   0  0  0  0  0  0  0  0  0  0  0  0
   23.9285  -22.7536  -13.9091 C   0  0  0  0  0  0  0  0  0  0  0  0
   23.3302  -24.0439  -14.3665 C   0  0  2  0  0  0  0  0  0  0  0  0
   24.0853  -24.6228  -15.4719 N   0  0  0  0  0  0  0  0  0  0  0  0
   21.9525  -23.8409  -14.8070 C   0  0  0  0  0  0  0  0  0  0  0  0
   21.6051  -23.7078  -16.0066 O   0  0  0  0  0  0  0  0  0  0  0  0
   20.8932  -23.7796  -13.8838 O   0  0  0  0  0  0  0  0  0  0  0  0
  2  1  1  6
  3  4  1  0
  3  2  1  0
  4  9  2  0
  4  5  1  0
  5  6  2  0
  6  7  1  0
  8  7  2  0
  9  8  1  0
 10 12  1  0
 10  2  1  0
 11 10  2  0
 13 12  1  0
 13 14  1  1
 14 15  1  0
 15 16  1  0
 16 17  1  0
 17 18  1  0
 19 13  1  0
 20 19  2  0
 21 22  1  0
 23 24  1  0
 23 22  1  0
 25 24  1  6
 25 27  1  0
 25 26  1  0
 26 19  1  0
 27 29  1  0
 28 27  2  0
M  END
$$$$
