FKM.pdb
     RDKit          3D

 29 29  0  0  1  0  0  0  0  0999 V2000
   25.4149  -18.3528  -20.0783 N   0  0  0  0  0  0  0  0  0  0  0  0
   25.6139  -17.9000  -18.7075 C   0  0  1  0  0  0  0  0  0  0  0  0
   25.0190  -16.5196  -18.5105 C   0  0  0  0  0  0  0  0  0  0  0  0
   25.7670  -15.4883  -19.2671 C   0  0  0  0  0  0  0  0  0  0  0  0
   27.1325  -15.3519  -19.1422 C   0  0  0  0  0  0  0  0  0  0  0  0
   27.7795  -14.3622  -19.8799 C   0  0  0  0  0  0  0  0  0  0  0  0
   27.0978  -13.5290  -20.7185 C   0  0  0  0  0  0  0  0  0  0  0  0
   25.7315  -13.6597  -20.8485 C   0  0  0  0  0  0  0  0  0  0  0  0
   25.0772  -14.6522  -20.1097 C   0  0  0  0  0  0  0  0  0  0  0  0
   24.8708  -18.8328  -17.8353 C   0  0  0  0  0  0  0  0  0  0  0  0
   23.7692  -19.3602  -18.1482 O   0  0  0  0  0  0  0  0  0  0  0  0
   25.4212  -19.1643  -16.5617 N   0  0  0  0  0  0  0  0  0  0  0  0
   24.7582  -20.0611  -15.6394 C   0  0  1  0  0  0  0  0  0  0  0  0
   25.7753  -20.4901  -14.6210 C   0  0  0  0  0  0  0  0  0  0  0  0
   25.2684  -21.5589  -13.6832 C   0  0  0  0  0  0  0  0  0  0  0  0
   24.9039  -22.8283  -14.4147 C   0  0  0  0  0  0  0  0  0  0  0  0
   24.2575  -23.7703  -13.4209 C   0  0  0  0  0  0  0  0  0  0  0  0
   23.8440  -24.9764  -14.0963 N   0  0  0  0  0  0  0  0  0  0  0  0
   23.5439  -19.4493  -15.0510 C   0  0  0  0  0  0  0  0  0  0  0  0
   23.6344  -18.3968  -14.3657 O   0  0  0  0  0  0  0  0  0  0  0  0
   18.0170  -21.6934  -18.3986 C   0  0  0  0  0  0  0  0  0  0  0  0
   19.3223  -20.5548  -17.8675 S   0  0  0  0  0  0  0  0  0  0  0  0
   19.1300  -20.0211  -16.1783 C   0  0  0  0  0  0  0  0  0  0  0  0
   20.1051  -18.9596  -15.7868 C   0  0  0  0  0  0  0  0  0  0  0  0
   21.0353  -19.3611  -14.6888 C   0  0  2  0  0  0  0  0  0  0  0  0
   22.2445  -19.9861  -15.2126 N   0  0  0  0  0  0  0  0  0  0  0  0
   20.3830  -20.3059  -13.7861 C   0  0  0  0  0  0  0  0  0  0  0  0
   19.5404  -19.9837  -12.9122 O   0  0  0  0  0  0  0  0  0  0  0  0
   20.6674  -21.6822  -13.8411 O   0  0  0  0  0  0  0  0  0  0  0  0
  2  1  1  6
  3  4  1  0
  3  2  1  0
  4  9  2  0
  4  5  1  0
  5  6  2  0
  6  7  1  0
  8  7  2  0
  9  8  1  0
 10 12  1  0
 10  2  1  0
 11 10  2  0
 13 12  1  0
 13 14  1  1
 14 15  1  0
 15 16  1  0
 16 17  1  0
 17 18  1  0
 19 13  1  0
 20 19  2  0
 21 22  1  0
 23 24  1  0
 23 22  1  0
 25 24  1  6
 25 27  1  0
 25 26  1  0
 26 19  1  0
 27 29  1  0
 28 27  2  0
M  END
$$$$
