FKM.pdb
     RDKit          3D

 29 29  0  0  1  0  0  0  0  0999 V2000
   21.6423  -23.1240  -20.1770 N   0  0  0  0  0  0  0  0  0  0  0  0
   22.3400  -22.9396  -18.9109 C   0  0  1  0  0  0  0  0  0  0  0  0
   21.5292  -22.0609  -17.9788 C   0  0  0  0  0  0  0  0  0  0  0  0
   21.4157  -20.6759  -18.4930 C   0  0  0  0  0  0  0  0  0  0  0  0
   20.2838  -20.2408  -19.1475 C   0  0  0  0  0  0  0  0  0  0  0  0
   20.2374  -18.9265  -19.6088 C   0  0  0  0  0  0  0  0  0  0  0  0
   21.2798  -18.0641  -19.4294 C   0  0  0  0  0  0  0  0  0  0  0  0
   22.4154  -18.4926  -18.7755 C   0  0  0  0  0  0  0  0  0  0  0  0
   22.4668  -19.8117  -18.3105 C   0  0  0  0  0  0  0  0  0  0  0  0
   22.4489  -24.2723  -18.2827 C   0  0  0  0  0  0  0  0  0  0  0  0
   21.5230  -25.1282  -18.2862 O   0  0  0  0  0  0  0  0  0  0  0  0
   23.6679  -24.6241  -17.6307 N   0  0  0  0  0  0  0  0  0  0  0  0
   23.8802  -25.9239  -17.0308 C   0  0  1  0  0  0  0  0  0  0  0  0
   25.3506  -26.2196  -17.1090 C   0  0  0  0  0  0  0  0  0  0  0  0
   25.7254  -27.5521  -16.5066 C   0  0  0  0  0  0  0  0  0  0  0  0
   27.1951  -27.8553  -16.6718 C   0  0  0  0  0  0  0  0  0  0  0  0
   27.3447  -29.3504  -16.8601 C   0  0  0  0  0  0  0  0  0  0  0  0
   28.7031  -29.6566  -17.2379 N   0  0  0  0  0  0  0  0  0  0  0  0
   23.3279  -25.9953  -15.6579 C   0  0  0  0  0  0  0  0  0  0  0  0
   23.6756  -25.1504  -14.7915 O   0  0  0  0  0  0  0  0  0  0  0  0
   17.9472  -24.7145  -13.8001 C   0  0  0  0  0  0  0  0  0  0  0  0
   18.2647  -25.7930  -12.3794 S   0  0  0  0  0  0  0  0  0  0  0  0
   19.8280  -26.6410  -12.4899 C   0  0  0  0  0  0  0  0  0  0  0  0
   20.5325  -26.4004  -13.7848 C   0  0  0  0  0  0  0  0  0  0  0  0
   21.8637  -27.0707  -13.8884 C   0  0  2  0  0  0  0  0  0  0  0  0
   22.4042  -26.9828  -15.2401 N   0  0  0  0  0  0  0  0  0  0  0  0
   21.7549  -28.4817  -13.5274 C   0  0  0  0  0  0  0  0  0  0  0  0
   21.7725  -29.4274  -14.3537 O   0  0  0  0  0  0  0  0  0  0  0  0
   21.6191  -28.8830  -12.1862 O   0  0  0  0  0  0  0  0  0  0  0  0
  2  1  1  6
  3  4  1  0
  3  2  1  0
  4  9  2  0
  4  5  1  0
  5  6  2  0
  6  7  1  0
  8  7  2  0
  9  8  1  0
 10 12  1  0
 10  2  1  0
 11 10  2  0
 13 12  1  0
 13 14  1  1
 14 15  1  0
 15 16  1  0
 16 17  1  0
 17 18  1  0
 19 13  1  0
 20 19  2  0
 21 22  1  0
 23 24  1  0
 23 22  1  0
 25 24  1  6
 25 27  1  0
 25 26  1  0
 26 19  1  0
 27 29  1  0
 28 27  2  0
M  END
$$$$
