RHE.pdb
     RDKit          3D

 31 31  0  0  1  0  0  0  0  0999 V2000
   28.2739  -21.2480   -9.9881 N   0  0  0  0  0  0  0  0  0  0  0  0
   29.3868  -21.2795  -10.8805 C   0  0  0  0  0  0  0  0  0  0  0  0
   30.5111  -21.7643  -10.4754 N   0  0  0  0  0  0  0  0  0  0  0  0
   29.2689  -20.7890  -12.2007 N   0  0  0  0  0  0  0  0  0  0  0  0
   28.0244  -20.1940  -12.6474 C   0  0  0  0  0  0  0  0  0  0  0  0
   28.2067  -19.6635  -14.0292 C   0  0  0  0  0  0  0  0  0  0  0  0
   26.9961  -19.0696  -14.6591 C   0  0  0  0  0  0  0  0  0  0  0  0
   25.7914  -19.9631  -14.4548 C   0  0  2  0  0  0  0  0  0  0  0  0
   26.0869  -21.2000  -15.1464 N   0  0  0  0  0  0  0  0  0  0  0  0
   24.5835  -19.3644  -15.0751 C   0  0  0  0  0  0  0  0  0  0  0  0
   24.1745  -18.2387  -14.6504 O   0  0  0  0  0  0  0  0  0  0  0  0
   31.3768  -21.7452  -11.0567 N   0  0  0  0  0  0  0  0  0  0  0  0
   23.8564  -19.9622  -16.1087 C   0  0  1  0  0  0  0  0  0  0  0  0
   22.6452  -19.2264  -16.6841 C   0  0  0  0  0  0  0  0  0  0  0  0
   22.8793  -19.2672  -18.1404 C   0  0  0  0  0  0  0  0  0  0  0  0
   23.0011  -18.0445  -18.9157 C   0  0  0  0  0  0  0  0  0  0  0  0
   22.9683  -16.7155  -18.6979 N   0  0  0  0  0  0  0  0  0  0  0  0
   23.2181  -16.0070  -19.8300 C   0  0  0  0  0  0  0  0  0  0  0  0
   23.4112  -16.9394  -20.7646 N   0  0  0  0  0  0  0  0  0  0  0  0
   23.2929  -18.1519  -20.2713 C   0  0  0  0  0  0  0  0  0  0  0  0
   21.4786  -19.9723  -16.1755 O   0  0  0  0  0  0  0  0  0  0  0  0
   21.6426  -21.2491  -16.0151 N   0  0  0  0  0  0  0  0  0  0  0  0
   20.2142  -19.4505  -15.8417 C   0  0  1  0  0  0  0  0  0  0  0  0
   19.1482  -20.3465  -15.3570 C   0  0  0  0  0  0  0  0  0  0  0  0
   18.0462  -19.5512  -14.7581 C   0  0  0  0  0  0  0  0  0  0  0  0
   16.8587  -20.3591  -14.3427 C   0  0  0  0  0  0  0  0  0  0  0  0
   15.7988  -19.3956  -13.8753 O   0  0  0  0  0  0  0  0  0  0  0  0
   16.0045  -18.1661  -13.8295 C   0  0  0  0  0  0  0  0  0  0  0  0
   18.7659  -21.3208  -16.3788 O   0  0  0  0  0  0  0  0  0  0  0  0
   18.4313  -22.4998  -16.1088 O   0  0  0  0  0  0  0  0  0  0  0  0
   14.5888  -19.9544  -13.5029 O   0  0  0  0  0  0  0  0  0  0  0  0
  2  3  2  0
  2  1  1  0
  4  2  1  0
  5  4  1  0
  6  5  1  0
  7  6  1  0
  8  7  1  0
  8  9  1  6
 10 11  2  0
 10  8  1  0
 12 10  1  0
 13 12  1  0
 13 14  1  1
 14 15  1  0
 15 16  2  0
 15 19  1  0
 16 17  1  0
 17 18  1  0
 19 18  2  0
 20 13  1  0
 21 20  2  0
 22 20  1  0
 23 22  1  0
 23 24  1  6
 24 25  1  0
 26 25  1  0
 26 30  1  0
 27 26  2  0
 28 23  1  0
 28 31  1  0
 29 28  2  0
M  END
$$$$
