RHE.pdb
     RDKit          3D

 31 31  0  0  1  0  0  0  0  0999 V2000
   10.8649   -6.6362   -7.9109 N   0  0  0  0  0  0  0  0  0  0  0  0
   10.9739   -8.0329   -7.6408 C   0  0  0  0  0  0  0  0  0  0  0  0
   10.1963   -8.5721   -6.7646 N   0  0  0  0  0  0  0  0  0  0  0  0
   11.9205   -8.8296   -8.3239 N   0  0  0  0  0  0  0  0  0  0  0  0
   12.4141   -8.4191   -9.6239 C   0  0  0  0  0  0  0  0  0  0  0  0
   13.3902   -9.4332  -10.1168 C   0  0  0  0  0  0  0  0  0  0  0  0
   14.7914   -8.9579  -10.2776 C   0  0  0  0  0  0  0  0  0  0  0  0
   15.6163   -9.9685  -11.0454 C   0  0  2  0  0  0  0  0  0  0  0  0
   15.8319  -11.0797  -10.1429 N   0  0  0  0  0  0  0  0  0  0  0  0
   16.9399   -9.4011  -11.4035 C   0  0  0  0  0  0  0  0  0  0  0  0
   17.7325   -9.0657  -10.4684 O   0  0  0  0  0  0  0  0  0  0  0  0
   10.2087   -9.5927   -6.5500 N   0  0  0  0  0  0  0  0  0  0  0  0
   17.3799   -9.2087  -12.7165 C   0  0  1  0  0  0  0  0  0  0  0  0
   18.8161   -8.7400  -12.9553 C   0  0  0  0  0  0  0  0  0  0  0  0
   19.5226   -9.9791  -13.3334 C   0  0  0  0  0  0  0  0  0  0  0  0
   20.8172   -9.9341  -13.9915 C   0  0  0  0  0  0  0  0  0  0  0  0
   21.7216   -9.0044  -14.3555 N   0  0  0  0  0  0  0  0  0  0  0  0
   22.8333   -9.5615  -14.9030 C   0  0  0  0  0  0  0  0  0  0  0  0
   22.5945  -10.8737  -14.8667 N   0  0  0  0  0  0  0  0  0  0  0  0
   21.4203  -11.1382  -14.3388 C   0  0  0  0  0  0  0  0  0  0  0  0
   18.7011   -7.6960  -13.9910 O   0  0  0  0  0  0  0  0  0  0  0  0
   17.7450   -7.8504  -14.8541 N   0  0  0  0  0  0  0  0  0  0  0  0
   19.5091   -6.5527  -14.1404 C   0  0  1  0  0  0  0  0  0  0  0  0
   19.3909   -5.7157  -15.3485 C   0  0  0  0  0  0  0  0  0  0  0  0
   18.1553   -4.8945  -15.2816 C   0  0  0  0  0  0  0  0  0  0  0  0
   18.1746   -3.8373  -14.2246 C   0  0  0  0  0  0  0  0  0  0  0  0
   17.2515   -2.7341  -14.6731 O   0  0  0  0  0  0  0  0  0  0  0  0
   16.0178   -2.9019  -14.7496 C   0  0  0  0  0  0  0  0  0  0  0  0
   20.6351   -4.9969  -15.6224 O   0  0  0  0  0  0  0  0  0  0  0  0
   21.6070   -4.9845  -14.8286 O   0  0  0  0  0  0  0  0  0  0  0  0
   17.8522   -1.5290  -14.9924 O   0  0  0  0  0  0  0  0  0  0  0  0
  2  3  2  0
  2  1  1  0
  4  2  1  0
  5  4  1  0
  6  5  1  0
  7  6  1  0
  8  7  1  0
  8  9  1  1
 10 11  2  0
 10  8  1  0
 12 10  1  0
 13 12  1  0
 13 14  1  1
 14 15  1  0
 15 16  2  0
 15 19  1  0
 16 17  1  0
 17 18  1  0
 19 18  2  0
 20 13  1  0
 21 20  2  0
 22 20  1  0
 23 22  1  0
 23 24  1  6
 24 25  1  0
 26 25  1  0
 26 30  1  0
 27 26  2  0
 28 23  1  0
 28 31  1  0
 29 28  2  0
M  END
$$$$
