RHE.pdb
     RDKit          3D

 31 31  0  0  1  0  0  0  0  0999 V2000
   25.4849  -19.9126  -12.1442 N   0  0  0  0  0  0  0  0  0  0  0  0
   26.1423  -21.1786  -12.1132 C   0  0  0  0  0  0  0  0  0  0  0  0
   25.8173  -22.0401  -11.2102 N   0  0  0  0  0  0  0  0  0  0  0  0
   27.1408  -21.4981  -13.0610 N   0  0  0  0  0  0  0  0  0  0  0  0
   27.7861  -20.4453  -13.8210 C   0  0  0  0  0  0  0  0  0  0  0  0
   27.9424  -20.8914  -15.2354 C   0  0  0  0  0  0  0  0  0  0  0  0
   28.0288  -19.8062  -16.2503 C   0  0  0  0  0  0  0  0  0  0  0  0
   26.8886  -18.8244  -16.0847 C   0  0  2  0  0  0  0  0  0  0  0  0
   26.9241  -18.3974  -14.7019 N   0  0  0  0  0  0  0  0  0  0  0  0
   25.5847  -19.4893  -16.3293 C   0  0  0  0  0  0  0  0  0  0  0  0
   25.3662  -20.0008  -17.4720 O   0  0  0  0  0  0  0  0  0  0  0  0
   26.2257  -22.9990  -11.1712 N   0  0  0  0  0  0  0  0  0  0  0  0
   24.5678  -19.5931  -15.3755 C   0  0  2  0  0  0  0  0  0  0  0  0
   23.3473  -20.4611  -15.6855 C   0  0  0  0  0  0  0  0  0  0  0  0
   23.5484  -21.6512  -14.8365 C   0  0  0  0  0  0  0  0  0  0  0  0
   24.4538  -22.7146  -15.2369 C   0  0  0  0  0  0  0  0  0  0  0  0
   25.2859  -22.9861  -16.2609 N   0  0  0  0  0  0  0  0  0  0  0  0
   25.9638  -24.1485  -16.0726 C   0  0  0  0  0  0  0  0  0  0  0  0
   25.5287  -24.5945  -14.8928 N   0  0  0  0  0  0  0  0  0  0  0  0
   24.6395  -23.7827  -14.3657 C   0  0  0  0  0  0  0  0  0  0  0  0
   22.1892  -19.6043  -15.3685 O   0  0  0  0  0  0  0  0  0  0  0  0
   22.4613  -18.4345  -14.8783 N   0  0  0  0  0  0  0  0  0  0  0  0
   20.8272  -19.9149  -15.5443 C   0  0  1  0  0  0  0  0  0  0  0  0
   19.8259  -18.8352  -15.6215 C   0  0  0  0  0  0  0  0  0  0  0  0
   20.2214  -17.8454  -16.6558 C   0  0  0  0  0  0  0  0  0  0  0  0
   19.9428  -16.4237  -16.2865 C   0  0  0  0  0  0  0  0  0  0  0  0
   19.6286  -15.6804  -17.5588 O   0  0  0  0  0  0  0  0  0  0  0  0
   19.8309  -16.1864  -18.6809 C   0  0  0  0  0  0  0  0  0  0  0  0
   18.4693  -19.3730  -15.7214 O   0  0  0  0  0  0  0  0  0  0  0  0
   18.1006  -20.1313  -16.6508 O   0  0  0  0  0  0  0  0  0  0  0  0
   19.1034  -14.4090  -17.4080 O   0  0  0  0  0  0  0  0  0  0  0  0
  2  3  2  0
  2  1  1  0
  4  2  1  0
  5  4  1  0
  6  5  1  0
  7  6  1  0
  8  7  1  0
  8  9  1  1
 10 11  2  0
 10  8  1  0
 12 10  1  0
 13 12  1  0
 13 14  1  6
 14 15  1  0
 15 16  2  0
 15 19  1  0
 16 17  1  0
 17 18  1  0
 19 18  2  0
 20 13  1  0
 21 20  2  0
 22 20  1  0
 23 22  1  0
 23 24  1  1
 24 25  1  0
 26 25  1  0
 26 30  1  0
 27 26  2  0
 28 23  1  0
 28 31  1  0
 29 28  2  0
M  END
$$$$
