RHE.pdb
     RDKit          3D

 31 31  0  0  1  0  0  0  0  0999 V2000
   28.3971  -33.9070  -17.2413 N   0  0  0  0  0  0  0  0  0  0  0  0
   28.4689  -32.6507  -16.5687 C   0  0  0  0  0  0  0  0  0  0  0  0
   27.3855  -31.9872  -16.3469 N   0  0  0  0  0  0  0  0  0  0  0  0
   29.7111  -32.1292  -16.1418 N   0  0  0  0  0  0  0  0  0  0  0  0
   30.9360  -32.8584  -16.4068 C   0  0  0  0  0  0  0  0  0  0  0  0
   32.0940  -32.0642  -15.9042 C   0  0  0  0  0  0  0  0  0  0  0  0
   32.7731  -31.2029  -16.9103 C   0  0  0  0  0  0  0  0  0  0  0  0
   34.0472  -30.6158  -16.3417 C   0  0  2  0  0  0  0  0  0  0  0  0
   34.6844  -29.9076  -17.4316 N   0  0  0  0  0  0  0  0  0  0  0  0
   34.9647  -31.6917  -15.8912 C   0  0  0  0  0  0  0  0  0  0  0  0
   35.9893  -31.9537  -16.5960 O   0  0  0  0  0  0  0  0  0  0  0  0
   27.3806  -31.0503  -15.8885 N   0  0  0  0  0  0  0  0  0  0  0  0
   34.7762  -32.4456  -14.7291 C   0  0  2  0  0  0  0  0  0  0  0  0
   35.8633  -33.4333  -14.3025 C   0  0  0  0  0  0  0  0  0  0  0  0
   35.7618  -33.4401  -12.8304 C   0  0  0  0  0  0  0  0  0  0  0  0
   36.4212  -34.4633  -12.0371 C   0  0  0  0  0  0  0  0  0  0  0  0
   37.2964  -35.4689  -12.2311 N   0  0  0  0  0  0  0  0  0  0  0  0
   37.6294  -36.0865  -11.0675 C   0  0  0  0  0  0  0  0  0  0  0  0
   36.9335  -35.4305  -10.1371 N   0  0  0  0  0  0  0  0  0  0  0  0
   36.2090  -34.4680  -10.6626 C   0  0  0  0  0  0  0  0  0  0  0  0
   35.5229  -34.6878  -14.9998 O   0  0  0  0  0  0  0  0  0  0  0  0
   34.3455  -34.7385  -15.5420 N   0  0  0  0  0  0  0  0  0  0  0  0
   36.3352  -35.8286  -15.1447 C   0  0  1  0  0  0  0  0  0  0  0  0
   35.9473  -36.8993  -16.0813 C   0  0  0  0  0  0  0  0  0  0  0  0
   35.5259  -36.3138  -17.3795 C   0  0  0  0  0  0  0  0  0  0  0  0
   35.2555  -37.3210  -18.4508 C   0  0  0  0  0  0  0  0  0  0  0  0
   34.6000  -36.5954  -19.5970 O   0  0  0  0  0  0  0  0  0  0  0  0
   34.4445  -35.3578  -19.5866 C   0  0  0  0  0  0  0  0  0  0  0  0
   36.9643  -37.9490  -16.1411 O   0  0  0  0  0  0  0  0  0  0  0  0
   38.0845  -37.8488  -15.5844 O   0  0  0  0  0  0  0  0  0  0  0  0
   34.1839  -37.3811  -20.6575 O   0  0  0  0  0  0  0  0  0  0  0  0
  2  3  2  0
  2  1  1  0
  4  2  1  0
  5  4  1  0
  6  5  1  0
  7  6  1  0
  8  7  1  0
  8  9  1  6
 10 11  2  0
 10  8  1  0
 12 10  1  0
 13 12  1  0
 13 14  1  1
 14 15  1  0
 15 16  2  0
 15 19  1  0
 16 17  1  0
 17 18  1  0
 19 18  2  0
 20 13  1  0
 21 20  2  0
 22 20  1  0
 23 22  1  0
 23 24  1  1
 24 25  1  0
 26 25  1  0
 26 30  1  0
 27 26  2  0
 28 23  1  0
 28 31  1  0
 29 28  2  0
M  END
$$$$
