RHE.pdb
     RDKit          3D

 31 31  0  0  1  0  0  0  0  0999 V2000
   12.8518  -12.4725  -14.4951 N   0  0  0  0  0  0  0  0  0  0  0  0
   13.1256  -12.9204  -15.8218 C   0  0  0  0  0  0  0  0  0  0  0  0
   12.3866  -13.8378  -16.3467 N   0  0  0  0  0  0  0  0  0  0  0  0
   14.1933  -12.3685  -16.5653 N   0  0  0  0  0  0  0  0  0  0  0  0
   15.0673  -11.3820  -15.9609 C   0  0  0  0  0  0  0  0  0  0  0  0
   16.4350  -11.5242  -16.5381 C   0  0  0  0  0  0  0  0  0  0  0  0
   17.5529  -11.5441  -15.5557 C   0  0  0  0  0  0  0  0  0  0  0  0
   18.8877  -11.6381  -16.2634 C   0  0  2  0  0  0  0  0  0  0  0  0
   19.1853  -13.0505  -16.3733 N   0  0  0  0  0  0  0  0  0  0  0  0
   19.9564  -11.0029  -15.4530 C   0  0  0  0  0  0  0  0  0  0  0  0
   20.3266  -11.5721  -14.3788 O   0  0  0  0  0  0  0  0  0  0  0  0
   12.5212  -14.1825  -17.3219 N   0  0  0  0  0  0  0  0  0  0  0  0
   20.5921   -9.8060  -15.7961 C   0  0  1  0  0  0  0  0  0  0  0  0
   21.6164   -9.2079  -14.8304 C   0  0  0  0  0  0  0  0  0  0  0  0
   22.8440   -9.1194  -15.6444 C   0  0  0  0  0  0  0  0  0  0  0  0
   23.7772  -10.2304  -15.7187 C   0  0  0  0  0  0  0  0  0  0  0  0
   23.9211  -11.4531  -15.1718 N   0  0  0  0  0  0  0  0  0  0  0  0
   24.9933  -12.1157  -15.6794 C   0  0  0  0  0  0  0  0  0  0  0  0
   25.5146  -11.2657  -16.5659 N   0  0  0  0  0  0  0  0  0  0  0  0
   24.8315  -10.1442  -16.6216 C   0  0  0  0  0  0  0  0  0  0  0  0
   21.0156   -7.9349  -14.3897 O   0  0  0  0  0  0  0  0  0  0  0  0
   20.4691   -7.2101  -15.3165 N   0  0  0  0  0  0  0  0  0  0  0  0
   20.9664   -7.4260  -13.0779 C   0  0  1  0  0  0  0  0  0  0  0  0
   20.2046   -6.1970  -12.7889 C   0  0  0  0  0  0  0  0  0  0  0  0
   19.4062   -6.3712  -11.5487 C   0  0  0  0  0  0  0  0  0  0  0  0
   18.6684   -5.1458  -11.1138 C   0  0  0  0  0  0  0  0  0  0  0  0
   17.9609   -5.4786   -9.8259 O   0  0  0  0  0  0  0  0  0  0  0  0
   18.0741   -6.5972   -9.2856 C   0  0  0  0  0  0  0  0  0  0  0  0
   21.0611   -5.0128  -12.8497 O   0  0  0  0  0  0  0  0  0  0  0  0
   22.2903   -5.0438  -12.5993 O   0  0  0  0  0  0  0  0  0  0  0  0
   17.1826   -4.4726   -9.2806 O   0  0  0  0  0  0  0  0  0  0  0  0
  2  3  2  0
  2  1  1  0
  4  2  1  0
  5  4  1  0
  6  5  1  0
  7  6  1  0
  8  7  1  0
  8  9  1  1
 10 11  2  0
 10  8  1  0
 12 10  1  0
 13 12  1  0
 13 14  1  1
 14 15  1  0
 15 16  2  0
 15 19  1  0
 16 17  1  0
 17 18  1  0
 19 18  2  0
 20 13  1  0
 21 20  2  0
 22 20  1  0
 23 22  1  0
 23 24  1  1
 24 25  1  0
 26 25  1  0
 26 30  1  0
 27 26  2  0
 28 23  1  0
 28 31  1  0
 29 28  2  0
M  END
$$$$
