RHE.pdb
     RDKit          3D

 31 31  0  0  1  0  0  0  0  0999 V2000
   28.8841  -18.2319  -20.0887 N   0  0  0  0  0  0  0  0  0  0  0  0
   28.5884  -17.5982  -21.3324 C   0  0  0  0  0  0  0  0  0  0  0  0
   27.3714  -17.2672  -21.6020 N   0  0  0  0  0  0  0  0  0  0  0  0
   29.6129  -17.3277  -22.2676 N   0  0  0  0  0  0  0  0  0  0  0  0
   30.9948  -17.2615  -21.8341 C   0  0  0  0  0  0  0  0  0  0  0  0
   31.2344  -15.9481  -21.1696 C   0  0  0  0  0  0  0  0  0  0  0  0
   32.6307  -15.4366  -21.2319 C   0  0  0  0  0  0  0  0  0  0  0  0
   33.2213  -15.3175  -19.8433 C   0  0  2  0  0  0  0  0  0  0  0  0
   32.9792  -16.5883  -19.1936 N   0  0  0  0  0  0  0  0  0  0  0  0
   32.5253  -14.2619  -19.0665 C   0  0  0  0  0  0  0  0  0  0  0  0
   31.5097  -14.5843  -18.3739 O   0  0  0  0  0  0  0  0  0  0  0  0
   27.1069  -16.7377  -22.4607 N   0  0  0  0  0  0  0  0  0  0  0  0
   32.9165  -12.9199  -19.0442 C   0  0  2  0  0  0  0  0  0  0  0  0
   32.1552  -11.9411  -18.1488 C   0  0  0  0  0  0  0  0  0  0  0  0
   33.1595  -10.9041  -17.8429 C   0  0  0  0  0  0  0  0  0  0  0  0
   32.7771   -9.6506  -17.2157 C   0  0  0  0  0  0  0  0  0  0  0  0
   31.6750   -9.1021  -16.6686 N   0  0  0  0  0  0  0  0  0  0  0  0
   31.9213   -7.8695  -16.1528 C   0  0  0  0  0  0  0  0  0  0  0  0
   33.2178   -7.6662  -16.3939 N   0  0  0  0  0  0  0  0  0  0  0  0
   33.7609   -8.6878  -17.0174 C   0  0  0  0  0  0  0  0  0  0  0  0
   30.9918  -11.5251  -18.9545 O   0  0  0  0  0  0  0  0  0  0  0  0
   31.1969  -11.3938  -20.2286 N   0  0  0  0  0  0  0  0  0  0  0  0
   29.6877  -11.2615  -18.4936 C   0  0  1  0  0  0  0  0  0  0  0  0
   28.6585  -10.7681  -19.4270 C   0  0  0  0  0  0  0  0  0  0  0  0
   27.3057  -11.1321  -18.9340 C   0  0  0  0  0  0  0  0  0  0  0  0
   26.1838  -10.6281  -19.7841 C   0  0  0  0  0  0  0  0  0  0  0  0
   24.8952  -11.0087  -19.1026 O   0  0  0  0  0  0  0  0  0  0  0  0
   24.8807  -11.7179  -18.0765 C   0  0  0  0  0  0  0  0  0  0  0  0
   28.8721   -9.3597  -19.7593 O   0  0  0  0  0  0  0  0  0  0  0  0
   28.6716   -8.8891  -20.9053 O   0  0  0  0  0  0  0  0  0  0  0  0
   23.7343  -10.5253  -19.6804 O   0  0  0  0  0  0  0  0  0  0  0  0
  2  3  2  0
  2  1  1  0
  4  2  1  0
  5  4  1  0
  6  5  1  0
  7  6  1  0
  8  7  1  0
  8  9  1  1
 10 11  2  0
 10  8  1  0
 12 10  1  0
 13 12  1  0
 13 14  1  6
 14 15  1  0
 15 16  2  0
 15 19  1  0
 16 17  1  0
 17 18  1  0
 19 18  2  0
 20 13  1  0
 21 20  2  0
 22 20  1  0
 23 22  1  0
 23 24  1  6
 24 25  1  0
 26 25  1  0
 26 30  1  0
 27 26  2  0
 28 23  1  0
 28 31  1  0
 29 28  2  0
M  END
$$$$
