RHE.pdb
     RDKit          3D

 31 31  0  0  1  0  0  0  0  0999 V2000
   20.5557  -10.5629    8.2124 N   0  0  0  0  0  0  0  0  0  0  0  0
   20.9290  -10.8583    6.8674 C   0  0  0  0  0  0  0  0  0  0  0  0
   21.9643  -10.2842    6.3558 N   0  0  0  0  0  0  0  0  0  0  0  0
   20.1798  -11.7732    6.0935 N   0  0  0  0  0  0  0  0  0  0  0  0
   18.9724  -12.3662    6.6347 C   0  0  0  0  0  0  0  0  0  0  0  0
   18.3601  -13.2520    5.6030 C   0  0  0  0  0  0  0  0  0  0  0  0
   17.0191  -13.8041    5.9378 C   0  0  0  0  0  0  0  0  0  0  0  0
   16.5355  -14.7372    4.8483 C   0  0  2  0  0  0  0  0  0  0  0  0
   15.1192  -14.4785    4.6975 N   0  0  0  0  0  0  0  0  0  0  0  0
   16.7051  -16.1535    5.2577 C   0  0  0  0  0  0  0  0  0  0  0  0
   15.8612  -16.6609    6.0611 O   0  0  0  0  0  0  0  0  0  0  0  0
   22.2728  -10.4472    5.3729 N   0  0  0  0  0  0  0  0  0  0  0  0
   17.7431  -16.9778    4.8133 C   0  0  2  0  0  0  0  0  0  0  0  0
   17.7755  -18.4380    5.2674 C   0  0  0  0  0  0  0  0  0  0  0  0
   17.8210  -19.1905    3.9990 C   0  0  0  0  0  0  0  0  0  0  0  0
   16.6185  -19.7726    3.4278 C   0  0  0  0  0  0  0  0  0  0  0  0
   15.7016  -20.7012    3.7621 N   0  0  0  0  0  0  0  0  0  0  0  0
   14.7097  -20.7941    2.8381 C   0  0  0  0  0  0  0  0  0  0  0  0
   15.0364  -19.8886    1.9141 N   0  0  0  0  0  0  0  0  0  0  0  0
   16.1519  -19.2645    2.2202 C   0  0  0  0  0  0  0  0  0  0  0  0
   18.9606  -18.5315    6.1407 O   0  0  0  0  0  0  0  0  0  0  0  0
   19.9871  -17.8207    5.7886 N   0  0  0  0  0  0  0  0  0  0  0  0
   19.0961  -19.3005    7.3123 C   0  0  1  0  0  0  0  0  0  0  0  0
   20.3521  -19.2594    8.0835 C   0  0  0  0  0  0  0  0  0  0  0  0
   20.5402  -17.9128    8.6811 C   0  0  0  0  0  0  0  0  0  0  0  0
   21.7607  -17.7826    9.5347 C   0  0  0  0  0  0  0  0  0  0  0  0
   21.7749  -16.3824   10.0909 O   0  0  0  0  0  0  0  0  0  0  0  0
   21.0578  -16.0533   11.0570 C   0  0  0  0  0  0  0  0  0  0  0  0
   20.4531  -20.3964    8.9981 O   0  0  0  0  0  0  0  0  0  0  0  0
   19.4801  -21.1379    9.2780 O   0  0  0  0  0  0  0  0  0  0  0  0
   22.6284  -15.4882    9.4687 O   0  0  0  0  0  0  0  0  0  0  0  0
  2  3  2  0
  2  1  1  0
  4  2  1  0
  5  4  1  0
  6  5  1  0
  7  6  1  0
  8  7  1  0
  8  9  1  1
 10 11  2  0
 10  8  1  0
 12 10  1  0
 13 12  1  0
 13 14  1  1
 14 15  1  0
 15 16  2  0
 15 19  1  0
 16 17  1  0
 17 18  1  0
 19 18  2  0
 20 13  1  0
 21 20  2  0
 22 20  1  0
 23 22  1  0
 23 24  1  6
 24 25  1  0
 26 25  1  0
 26 30  1  0
 27 26  2  0
 28 23  1  0
 28 31  1  0
 29 28  2  0
M  END
$$$$
