RHE.pdb
     RDKit          3D

 31 31  0  0  1  0  0  0  0  0999 V2000
   19.2614  -24.6577   -7.7951 N   0  0  0  0  0  0  0  0  0  0  0  0
   18.1413  -23.7887   -7.9565 C   0  0  0  0  0  0  0  0  0  0  0  0
   17.1388  -23.8901   -7.1516 N   0  0  0  0  0  0  0  0  0  0  0  0
   18.1208  -22.8191   -8.9845 N   0  0  0  0  0  0  0  0  0  0  0  0
   19.2296  -22.7202   -9.9135 C   0  0  0  0  0  0  0  0  0  0  0  0
   20.4173  -22.1716   -9.1977 C   0  0  0  0  0  0  0  0  0  0  0  0
   21.2335  -21.1868   -9.9588 C   0  0  0  0  0  0  0  0  0  0  0  0
   21.1904  -21.4861  -11.4420 C   0  0  2  0  0  0  0  0  0  0  0  0
   21.7608  -22.8069  -11.6019 N   0  0  0  0  0  0  0  0  0  0  0  0
   22.0334  -20.5248  -12.1953 C   0  0  0  0  0  0  0  0  0  0  0  0
   21.8631  -19.2808  -11.9992 O   0  0  0  0  0  0  0  0  0  0  0  0
   16.2832  -23.2998   -7.2378 N   0  0  0  0  0  0  0  0  0  0  0  0
   23.0152  -20.8999  -13.1172 C   0  0  1  0  0  0  0  0  0  0  0  0
   23.8260  -19.8102  -13.8204 C   0  0  0  0  0  0  0  0  0  0  0  0
   25.0233  -20.5282  -14.2983 C   0  0  0  0  0  0  0  0  0  0  0  0
   25.9973  -19.8757  -15.1565 C   0  0  0  0  0  0  0  0  0  0  0  0
   26.1549  -18.6832  -15.7630 N   0  0  0  0  0  0  0  0  0  0  0  0
   27.3433  -18.5964  -16.4160 C   0  0  0  0  0  0  0  0  0  0  0  0
   27.9259  -19.7762  -16.1949 N   0  0  0  0  0  0  0  0  0  0  0  0
   27.1697  -20.5598  -15.4590 C   0  0  0  0  0  0  0  0  0  0  0  0
   22.9162  -19.2728  -14.8495 O   0  0  0  0  0  0  0  0  0  0  0  0
   22.0682  -20.1130  -15.3573 N   0  0  0  0  0  0  0  0  0  0  0  0
   22.8648  -17.9519  -15.3343 C   0  0  1  0  0  0  0  0  0  0  0  0
   21.8745  -17.5784  -16.3610 C   0  0  0  0  0  0  0  0  0  0  0  0
   21.2159  -16.2990  -15.9933 C   0  0  0  0  0  0  0  0  0  0  0  0
   20.1891  -15.8305  -16.9738 C   0  0  0  0  0  0  0  0  0  0  0  0
   19.6659  -14.5064  -16.4810 O   0  0  0  0  0  0  0  0  0  0  0  0
   20.3760  -13.7283  -15.8128 C   0  0  0  0  0  0  0  0  0  0  0  0
   22.4470  -17.6520  -17.7050 O   0  0  0  0  0  0  0  0  0  0  0  0
   23.6825  -17.6377  -17.9241 O   0  0  0  0  0  0  0  0  0  0  0  0
   18.3566  -14.2064  -16.8139 O   0  0  0  0  0  0  0  0  0  0  0  0
  2  3  2  0
  2  1  1  0
  4  2  1  0
  5  4  1  0
  6  5  1  0
  7  6  1  0
  8  7  1  0
  8  9  1  1
 10 11  2  0
 10  8  1  0
 12 10  1  0
 13 12  1  0
 13 14  1  1
 14 15  1  0
 15 16  2  0
 15 19  1  0
 16 17  1  0
 17 18  1  0
 19 18  2  0
 20 13  1  0
 21 20  2  0
 22 20  1  0
 23 22  1  0
 23 24  1  6
 24 25  1  0
 26 25  1  0
 26 30  1  0
 27 26  2  0
 28 23  1  0
 28 31  1  0
 29 28  2  0
M  END
$$$$
