RHE.pdb
     RDKit          3D

 31 31  0  0  1  0  0  0  0  0999 V2000
   46.5457  -13.1416   -7.5851 N   0  0  0  0  0  0  0  0  0  0  0  0
   45.9420  -12.2365   -6.6620 C   0  0  0  0  0  0  0  0  0  0  0  0
   46.5911  -11.8810   -5.6058 N   0  0  0  0  0  0  0  0  0  0  0  0
   44.6452  -11.7250   -6.8942 N   0  0  0  0  0  0  0  0  0  0  0  0
   44.2654  -11.2798   -8.2208 C   0  0  0  0  0  0  0  0  0  0  0  0
   42.8263  -10.8891   -8.2100 C   0  0  0  0  0  0  0  0  0  0  0  0
   42.2574  -10.4788   -9.5227 C   0  0  0  0  0  0  0  0  0  0  0  0
   42.0766   -8.9772   -9.5836 C   0  0  2  0  0  0  0  0  0  0  0  0
   41.4147   -8.6020   -8.3520 N   0  0  0  0  0  0  0  0  0  0  0  0
   41.1935   -8.6011  -10.7154 C   0  0  0  0  0  0  0  0  0  0  0  0
   41.5690   -8.8744  -11.8984 O   0  0  0  0  0  0  0  0  0  0  0  0
   46.2176  -11.1908   -4.9188 N   0  0  0  0  0  0  0  0  0  0  0  0
   39.9607   -7.9590  -10.5665 C   0  0  1  0  0  0  0  0  0  0  0  0
   39.1957   -7.5248  -11.8178 C   0  0  0  0  0  0  0  0  0  0  0  0
   38.0172   -8.4128  -11.8244 C   0  0  0  0  0  0  0  0  0  0  0  0
   37.9359   -9.5455  -12.7307 C   0  0  0  0  0  0  0  0  0  0  0  0
   38.7137  -10.1463  -13.6520 N   0  0  0  0  0  0  0  0  0  0  0  0
   38.1271  -11.2580  -14.1680 C   0  0  0  0  0  0  0  0  0  0  0  0
   36.9548  -11.3338  -13.5353 N   0  0  0  0  0  0  0  0  0  0  0  0
   36.8003  -10.3469  -12.6811 C   0  0  0  0  0  0  0  0  0  0  0  0
   38.9440   -6.0848  -11.6210 O   0  0  0  0  0  0  0  0  0  0  0  0
   38.7011   -5.7086  -10.4035 N   0  0  0  0  0  0  0  0  0  0  0  0
   38.9441   -5.0783  -12.6056 C   0  0  1  0  0  0  0  0  0  0  0  0
   38.6902   -3.6753  -12.2297 C   0  0  0  0  0  0  0  0  0  0  0  0
   39.2887   -2.7612  -13.2357 C   0  0  0  0  0  0  0  0  0  0  0  0
   40.7583   -2.9460  -13.4390 C   0  0  0  0  0  0  0  0  0  0  0  0
   41.1957   -1.9600  -14.4909 O   0  0  0  0  0  0  0  0  0  0  0  0
   41.4814   -0.7799  -14.2052 C   0  0  0  0  0  0  0  0  0  0  0  0
   37.2798   -3.4563  -11.9101 O   0  0  0  0  0  0  0  0  0  0  0  0
   36.3517   -4.1401  -12.4060 O   0  0  0  0  0  0  0  0  0  0  0  0
   41.2620   -2.4409  -15.7869 O   0  0  0  0  0  0  0  0  0  0  0  0
  2  3  2  0
  2  1  1  0
  4  2  1  0
  5  4  1  0
  6  5  1  0
  7  6  1  0
  8  7  1  0
  8  9  1  1
 10 11  2  0
 10  8  1  0
 12 10  1  0
 13 12  1  0
 13 14  1  6
 14 15  1  0
 15 16  2  0
 15 19  1  0
 16 17  1  0
 17 18  1  0
 19 18  2  0
 20 13  1  0
 21 20  2  0
 22 20  1  0
 23 22  1  0
 23 24  1  1
 24 25  1  0
 26 25  1  0
 26 30  1  0
 27 26  2  0
 28 23  1  0
 28 31  1  0
 29 28  2  0
M  END
$$$$
