RHE.pdb
     RDKit          3D

 31 31  0  0  1  0  0  0  0  0999 V2000
   12.1285  -21.4934    3.1105 N   0  0  0  0  0  0  0  0  0  0  0  0
   13.1259  -22.5041    2.9710 C   0  0  0  0  0  0  0  0  0  0  0  0
   12.7671  -23.7239    2.7557 N   0  0  0  0  0  0  0  0  0  0  0  0
   14.4990  -22.1823    3.0631 N   0  0  0  0  0  0  0  0  0  0  0  0
   14.9651  -21.2694    4.0886 C   0  0  0  0  0  0  0  0  0  0  0  0
   15.4484  -20.0157    3.4415 C   0  0  0  0  0  0  0  0  0  0  0  0
   16.0322  -18.9983    4.3576 C   0  0  0  0  0  0  0  0  0  0  0  0
   16.3760  -17.7315    3.6037 C   0  0  2  0  0  0  0  0  0  0  0  0
   16.8828  -18.1556    2.3157 N   0  0  0  0  0  0  0  0  0  0  0  0
   17.4521  -16.9831    4.2995 C   0  0  0  0  0  0  0  0  0  0  0  0
   18.6603  -17.3171    4.0902 O   0  0  0  0  0  0  0  0  0  0  0  0
   13.4519  -24.4962    2.6058 N   0  0  0  0  0  0  0  0  0  0  0  0
   17.2239  -15.9217    5.1802 C   0  0  1  0  0  0  0  0  0  0  0  0
   18.4230  -15.2089    5.8077 C   0  0  0  0  0  0  0  0  0  0  0  0
   18.0182  -13.7899    5.8049 C   0  0  0  0  0  0  0  0  0  0  0  0
   18.8653  -12.7664    6.3931 C   0  0  0  0  0  0  0  0  0  0  0  0
   18.8143  -11.8949    7.4191 N   0  0  0  0  0  0  0  0  0  0  0  0
   19.9705  -11.1934    7.5501 C   0  0  0  0  0  0  0  0  0  0  0  0
   20.7489  -11.6582    6.5712 N   0  0  0  0  0  0  0  0  0  0  0  0
   20.1393  -12.5845    5.8657 C   0  0  0  0  0  0  0  0  0  0  0  0
   18.5922  -15.8511    7.1248 O   0  0  0  0  0  0  0  0  0  0  0  0
   17.5127  -16.3084    7.6802 N   0  0  0  0  0  0  0  0  0  0  0  0
   19.7932  -16.0256    7.8386 C   0  0  1  0  0  0  0  0  0  0  0  0
   19.7791  -16.6713    9.1641 C   0  0  0  0  0  0  0  0  0  0  0  0
   20.9011  -17.6383    9.2727 C   0  0  0  0  0  0  0  0  0  0  0  0
   20.9906  -18.3324   10.5939 C   0  0  0  0  0  0  0  0  0  0  0  0
   22.0896  -19.3579   10.4911 O   0  0  0  0  0  0  0  0  0  0  0  0
   22.8030  -19.4547    9.4724 C   0  0  0  0  0  0  0  0  0  0  0  0
   19.6664  -15.6832   10.2368 O   0  0  0  0  0  0  0  0  0  0  0  0
   20.1256  -14.5189   10.1456 O   0  0  0  0  0  0  0  0  0  0  0  0
   22.2596  -20.1812   11.5904 O   0  0  0  0  0  0  0  0  0  0  0  0
  2  3  2  0
  2  1  1  0
  4  2  1  0
  5  4  1  0
  6  5  1  0
  7  6  1  0
  8  7  1  0
  8  9  1  6
 10 11  2  0
 10  8  1  0
 12 10  1  0
 13 12  1  0
 13 14  1  1
 14 15  1  0
 15 16  2  0
 15 19  1  0
 16 17  1  0
 17 18  1  0
 19 18  2  0
 20 13  1  0
 21 20  2  0
 22 20  1  0
 23 22  1  0
 23 24  1  1
 24 25  1  0
 26 25  1  0
 26 30  1  0
 27 26  2  0
 28 23  1  0
 28 31  1  0
 29 28  2  0
M  END
$$$$
