TDQ.pdb
     RDKit          3D

 25 24  0  0  1  0  0  0  0  0999 V2000
    7.6006  -12.0743   18.9373 C   0  0  0  0  0  0  0  0  0  0  0  0
    8.6031  -13.1622   19.1559 C   0  0  1  0  0  0  0  0  0  0  0  0
    8.7837  -13.4258   20.5099 O   0  0  0  0  0  0  0  0  0  0  0  0
    8.1841  -14.4367   18.4750 C   0  0  2  0  0  0  0  0  0  0  0  0
    6.9182  -14.9008   18.9601 N   0  0  0  0  0  0  0  0  0  0  0  0
    9.2449  -15.4776   18.6832 C   0  0  0  0  0  0  0  0  0  0  0  0
    8.9862  -16.3957   19.5246 O   0  0  0  0  0  0  0  0  0  0  0  0
   10.4663  -15.4493   17.9890 N   0  0  0  0  0  0  0  0  0  0  0  0
   11.5036  -16.5177   18.1979 C   0  0  1  0  0  0  0  0  0  0  0  0
   12.4762  -16.2875   17.0609 C   0  0  0  0  0  0  0  0  0  0  0  0
   13.5870  -17.2304   16.9798 C   0  0  0  0  0  0  0  0  0  0  0  0
   13.8135  -18.1298   17.8114 O   0  0  0  0  0  0  0  0  0  0  0  0
   12.1544  -16.0942   19.4606 C   0  0  0  0  0  0  0  0  0  0  0  0
   12.3071  -14.8199   19.6097 O   0  0  0  0  0  0  0  0  0  0  0  0
   14.5018  -17.1623   15.9004 O   0  0  0  0  0  0  0  0  0  0  0  0
    9.6299  -16.3029   24.6517 N   0  0  0  0  0  0  0  0  0  0  0  0
   10.9795  -16.4715   25.0661 C   0  0  0  0  0  0  0  0  0  0  0  0
   11.1639  -16.9749   26.2113 O   0  0  0  0  0  0  0  0  0  0  0  0
   12.1261  -16.0678   24.1792 C   0  0  0  0  0  0  0  0  0  0  0  0
   11.8210  -16.6002   22.8066 C   0  0  0  0  0  0  0  0  0  0  0  0
   12.9186  -16.2998   21.7964 C   0  0  2  0  0  0  0  0  0  0  0  0
   12.6146  -16.9183   20.5043 N   0  0  0  0  0  0  0  0  0  0  0  0
   14.1338  -16.9513   22.3299 C   0  0  0  0  0  0  0  0  0  0  0  0
   14.5569  -18.0170   21.8554 O   0  0  0  0  0  0  0  0  0  0  0  0
   14.8035  -16.3567   23.3750 O   0  0  0  0  0  0  0  0  0  0  0  0
  2  1  1  1
  2  4  1  0
  3  2  1  0
  4  6  1  0
  4  5  1  1
  6  8  1  0
  6  7  2  0
  8  9  1  0
  9 10  1  6
  9 13  1  0
 11 10  1  0
 12 11  2  0
 13 14  2  0
 15 11  1  0
 16 17  1  0
 17 18  2  0
 17 19  1  0
 19 20  1  0
 21 20  1  1
 21 23  1  0
 22 21  1  0
 22 13  1  0
 23 25  1  0
 24 23  2  0
M  END
$$$$
