TDQ.pdb
     RDKit          3D

 25 24  0  0  1  0  0  0  0  0999 V2000
    7.8619  -12.5440   19.1465 C   0  0  0  0  0  0  0  0  0  0  0  0
    8.2892  -13.3839   20.3076 C   0  0  1  0  0  0  0  0  0  0  0  0
    7.8448  -12.8519   21.5138 O   0  0  0  0  0  0  0  0  0  0  0  0
    7.7674  -14.7898   20.1869 C   0  0  2  0  0  0  0  0  0  0  0  0
    6.3391  -14.8132   20.0763 N   0  0  0  0  0  0  0  0  0  0  0  0
    8.2197  -15.5864   21.3755 C   0  0  0  0  0  0  0  0  0  0  0  0
    7.3678  -15.7598   22.3040 O   0  0  0  0  0  0  0  0  0  0  0  0
    9.5169  -16.1186   21.4690 N   0  0  0  0  0  0  0  0  0  0  0  0
    9.8955  -17.0509   22.5863 C   0  0  1  0  0  0  0  0  0  0  0  0
   11.2931  -17.4961   22.2116 C   0  0  0  0  0  0  0  0  0  0  0  0
   11.9437  -18.3964   23.1580 C   0  0  0  0  0  0  0  0  0  0  0  0
   13.1692  -18.6164   23.1969 O   0  0  0  0  0  0  0  0  0  0  0  0
    9.9936  -16.1381   23.7501 C   0  0  0  0  0  0  0  0  0  0  0  0
   11.0024  -15.3307   23.7426 O   0  0  0  0  0  0  0  0  0  0  0  0
   11.1744  -19.0947   24.1208 O   0  0  0  0  0  0  0  0  0  0  0  0
    7.1317  -11.6609   26.0663 N   0  0  0  0  0  0  0  0  0  0  0  0
    6.4188  -12.8905   26.1049 C   0  0  0  0  0  0  0  0  0  0  0  0
    5.1568  -12.8153   26.1294 O   0  0  0  0  0  0  0  0  0  0  0  0
    7.1385  -14.2118   26.1158 C   0  0  0  0  0  0  0  0  0  0  0  0
    8.6002  -13.9111   25.9330 C   0  0  0  0  0  0  0  0  0  0  0  0
    9.4698  -15.1596   25.9525 C   0  0  2  0  0  0  0  0  0  0  0  0
    9.1162  -16.0526   24.8469 N   0  0  0  0  0  0  0  0  0  0  0  0
    9.1337  -15.8539   27.2138 C   0  0  0  0  0  0  0  0  0  0  0  0
    9.4523  -15.3815   28.3161 O   0  0  0  0  0  0  0  0  0  0  0  0
    8.4531  -17.0488   27.1549 O   0  0  0  0  0  0  0  0  0  0  0  0
  2  1  1  6
  2  4  1  0
  3  2  1  0
  4  6  1  0
  4  5  1  1
  6  8  1  0
  6  7  2  0
  8  9  1  0
  9 10  1  6
  9 13  1  0
 11 10  1  0
 12 11  2  0
 13 14  2  0
 15 11  1  0
 16 17  1  0
 17 18  2  0
 17 19  1  0
 19 20  1  0
 21 20  1  6
 21 23  1  0
 22 21  1  0
 22 13  1  0
 23 25  1  0
 24 23  2  0
M  END
$$$$
