TDQ.pdb
     RDKit          3D

 25 24  0  0  1  0  0  0  0  0999 V2000
    7.4276  -14.2978   18.4491 C   0  0  0  0  0  0  0  0  0  0  0  0
    7.8914  -14.8558   19.7567 C   0  0  1  0  0  0  0  0  0  0  0  0
    9.2659  -15.0705   19.7616 O   0  0  0  0  0  0  0  0  0  0  0  0
    7.5498  -13.9347   20.8962 C   0  0  2  0  0  0  0  0  0  0  0  0
    8.0022  -12.5984   20.6463 N   0  0  0  0  0  0  0  0  0  0  0  0
    8.1547  -14.4709   22.1606 C   0  0  0  0  0  0  0  0  0  0  0  0
    9.1117  -13.8012   22.6641 O   0  0  0  0  0  0  0  0  0  0  0  0
    7.6951  -15.6524   22.7666 N   0  0  0  0  0  0  0  0  0  0  0  0
    8.2963  -16.1512   24.0515 C   0  0  1  0  0  0  0  0  0  0  0  0
    7.1917  -16.9965   24.6491 C   0  0  0  0  0  0  0  0  0  0  0  0
    7.5105  -17.6484   25.9152 C   0  0  0  0  0  0  0  0  0  0  0  0
    8.4429  -17.3112   26.6693 O   0  0  0  0  0  0  0  0  0  0  0  0
    9.3700  -17.0560   23.5764 C   0  0  0  0  0  0  0  0  0  0  0  0
    9.4573  -18.1893   24.1907 O   0  0  0  0  0  0  0  0  0  0  0  0
    6.7374  -18.7467   26.3653 O   0  0  0  0  0  0  0  0  0  0  0  0
   14.6505  -15.0856   21.1694 N   0  0  0  0  0  0  0  0  0  0  0  0
   13.4332  -14.8530   20.4726 C   0  0  0  0  0  0  0  0  0  0  0  0
   13.5300  -14.4705   19.2712 O   0  0  0  0  0  0  0  0  0  0  0  0
   12.0995  -15.0543   21.1396 C   0  0  0  0  0  0  0  0  0  0  0  0
   12.3812  -15.5308   22.5375 C   0  0  0  0  0  0  0  0  0  0  0  0
   11.7203  -16.8643   22.8542 C   0  0  2  0  0  0  0  0  0  0  0  0
   10.2909  -16.8202   22.5388 N   0  0  0  0  0  0  0  0  0  0  0  0
   11.8510  -17.0308   24.3175 C   0  0  0  0  0  0  0  0  0  0  0  0
   11.7019  -16.0733   25.0926 O   0  0  0  0  0  0  0  0  0  0  0  0
   12.1447  -18.2773   24.8219 O   0  0  0  0  0  0  0  0  0  0  0  0
  2  1  1  6
  2  4  1  0
  3  2  1  0
  4  6  1  0
  4  5  1  6
  6  8  1  0
  6  7  2  0
  8  9  1  0
  9 10  1  1
  9 13  1  0
 11 10  1  0
 12 11  2  0
 13 14  2  0
 15 11  1  0
 16 17  1  0
 17 18  2  0
 17 19  1  0
 19 20  1  0
 21 20  1  1
 21 23  1  0
 22 21  1  0
 22 13  1  0
 23 25  1  0
 24 23  2  0
M  END
$$$$
