TDQ.pdb
     RDKit          3D

 25 24  0  0  1  0  0  0  0  0999 V2000
    9.9117  -13.0191   18.0494 C   0  0  0  0  0  0  0  0  0  0  0  0
    9.5137  -13.8227   19.2461 C   0  0  1  0  0  0  0  0  0  0  0  0
   10.1651  -13.3849   20.3949 O   0  0  0  0  0  0  0  0  0  0  0  0
    8.0299  -13.7510   19.4841 C   0  0  2  0  0  0  0  0  0  0  0  0
    7.5959  -12.4023   19.6982 N   0  0  0  0  0  0  0  0  0  0  0  0
    7.6779  -14.6136   20.6605 C   0  0  0  0  0  0  0  0  0  0  0  0
    7.3038  -14.0126   21.7173 O   0  0  0  0  0  0  0  0  0  0  0  0
    7.7543  -16.0158   20.6088 N   0  0  0  0  0  0  0  0  0  0  0  0
    7.3553  -16.8596   21.7876 C   0  0  1  0  0  0  0  0  0  0  0  0
    7.5306  -18.2749   21.2796 C   0  0  0  0  0  0  0  0  0  0  0  0
    7.3393  -19.3293   22.2701 C   0  0  0  0  0  0  0  0  0  0  0  0
    7.0832  -19.1317   23.4731 O   0  0  0  0  0  0  0  0  0  0  0  0
    8.4332  -16.5791   22.7659 C   0  0  0  0  0  0  0  0  0  0  0  0
    9.4990  -16.0333   22.2807 O   0  0  0  0  0  0  0  0  0  0  0  0
    7.4412  -20.6902   21.8904 O   0  0  0  0  0  0  0  0  0  0  0  0
    5.9130  -12.9706   25.8258 N   0  0  0  0  0  0  0  0  0  0  0  0
    7.1225  -12.8078   26.5553 C   0  0  0  0  0  0  0  0  0  0  0  0
    7.1722  -11.8374   27.3644 O   0  0  0  0  0  0  0  0  0  0  0  0
    8.2817  -13.7487   26.3675 C   0  0  0  0  0  0  0  0  0  0  0  0
    7.8488  -14.7739   25.3565 C   0  0  0  0  0  0  0  0  0  0  0  0
    8.9299  -15.8007   25.0527 C   0  0  2  0  0  0  0  0  0  0  0  0
    8.4207  -16.8350   24.1496 N   0  0  0  0  0  0  0  0  0  0  0  0
    9.2341  -16.4469   26.3472 C   0  0  0  0  0  0  0  0  0  0  0  0
    8.6948  -17.5140   26.6793 O   0  0  0  0  0  0  0  0  0  0  0  0
   10.1355  -15.8454   27.1958 O   0  0  0  0  0  0  0  0  0  0  0  0
  2  1  1  6
  2  4  1  0
  3  2  1  0
  4  6  1  0
  4  5  1  1
  6  8  1  0
  6  7  2  0
  8  9  1  0
  9 10  1  6
  9 13  1  0
 11 10  1  0
 12 11  2  0
 13 14  2  0
 15 11  1  0
 16 17  1  0
 17 18  2  0
 17 19  1  0
 19 20  1  0
 21 20  1  1
 21 23  1  0
 22 21  1  0
 22 13  1  0
 23 25  1  0
 24 23  2  0
M  END
$$$$
