TDQ.pdb
     RDKit          3D

 25 24  0  0  1  0  0  0  0  0999 V2000
    7.9041  -12.0824   18.9511 C   0  0  0  0  0  0  0  0  0  0  0  0
    8.8525  -13.1331   19.4337 C   0  0  1  0  0  0  0  0  0  0  0  0
    8.2243  -14.0358   20.2856 O   0  0  0  0  0  0  0  0  0  0  0  0
    9.4499  -13.8996   18.2851 C   0  0  2  0  0  0  0  0  0  0  0  0
    8.4388  -14.5409   17.4981 N   0  0  0  0  0  0  0  0  0  0  0  0
   10.4236  -14.9083   18.8202 C   0  0  0  0  0  0  0  0  0  0  0  0
   10.0210  -16.1133   18.8820 O   0  0  0  0  0  0  0  0  0  0  0  0
   11.7178  -14.5510   19.2352 N   0  0  0  0  0  0  0  0  0  0  0  0
   12.6638  -15.5754   19.7979 C   0  0  1  0  0  0  0  0  0  0  0  0
   14.0227  -14.9336   19.6154 C   0  0  0  0  0  0  0  0  0  0  0  0
   14.5520  -14.9522   18.2556 C   0  0  0  0  0  0  0  0  0  0  0  0
   14.8842  -13.9387   17.6120 O   0  0  0  0  0  0  0  0  0  0  0  0
   12.3327  -15.5624   21.2427 C   0  0  0  0  0  0  0  0  0  0  0  0
   13.1248  -14.8677   21.9906 O   0  0  0  0  0  0  0  0  0  0  0  0
   14.7197  -16.1821   17.5733 O   0  0  0  0  0  0  0  0  0  0  0  0
    6.7045  -13.5385   23.4033 N   0  0  0  0  0  0  0  0  0  0  0  0
    7.5602  -14.6524   23.6240 C   0  0  0  0  0  0  0  0  0  0  0  0
    7.0475  -15.6594   24.1914 O   0  0  0  0  0  0  0  0  0  0  0  0
    9.0037  -14.6256   23.2002 C   0  0  0  0  0  0  0  0  0  0  0  0
    9.6219  -15.9076   23.6849 C   0  0  0  0  0  0  0  0  0  0  0  0
   11.0952  -16.0294   23.3242 C   0  0  2  0  0  0  0  0  0  0  0  0
   11.2600  -16.2125   21.8806 N   0  0  0  0  0  0  0  0  0  0  0  0
   11.5624  -17.2648   23.9885 C   0  0  0  0  0  0  0  0  0  0  0  0
   11.8064  -18.2944   23.3403 O   0  0  0  0  0  0  0  0  0  0  0  0
   11.7271  -17.2642   25.3550 O   0  0  0  0  0  0  0  0  0  0  0  0
  2  1  1  6
  2  4  1  0
  3  2  1  0
  4  6  1  0
  4  5  1  1
  6  8  1  0
  6  7  2  0
  8  9  1  0
  9 10  1  1
  9 13  1  0
 11 10  1  0
 12 11  2  0
 13 14  2  0
 15 11  1  0
 16 17  1  0
 17 18  2  0
 17 19  1  0
 19 20  1  0
 21 20  1  6
 21 23  1  0
 22 21  1  0
 22 13  1  0
 23 25  1  0
 24 23  2  0
M  END
$$$$
