TDQ.pdb
     RDKit          3D

 25 24  0  0  1  0  0  0  0  0999 V2000
    7.6405  -11.8007   19.0985 C   0  0  0  0  0  0  0  0  0  0  0  0
    8.6840  -12.8207   19.4257 C   0  0  1  0  0  0  0  0  0  0  0  0
    8.2555  -13.6867   20.4266 O   0  0  0  0  0  0  0  0  0  0  0  0
    9.0499  -13.6362   18.2155 C   0  0  2  0  0  0  0  0  0  0  0  0
    7.9188  -14.3484   17.6994 N   0  0  0  0  0  0  0  0  0  0  0  0
   10.1537  -14.5861   18.5777 C   0  0  0  0  0  0  0  0  0  0  0  0
    9.8276  -15.8049   18.7395 O   0  0  0  0  0  0  0  0  0  0  0  0
   11.4843  -14.1618   18.7330 N   0  0  0  0  0  0  0  0  0  0  0  0
   12.5867  -15.1465   19.0086 C   0  0  1  0  0  0  0  0  0  0  0  0
   13.8248  -14.4344   18.5068 C   0  0  0  0  0  0  0  0  0  0  0  0
   15.0791  -15.1639   18.6620 C   0  0  0  0  0  0  0  0  0  0  0  0
   15.1638  -16.3660   18.9774 O   0  0  0  0  0  0  0  0  0  0  0  0
   12.6333  -15.1738   20.4899 C   0  0  0  0  0  0  0  0  0  0  0  0
   13.1667  -14.1392   21.0508 O   0  0  0  0  0  0  0  0  0  0  0  0
   16.3161  -14.5067   18.4514 O   0  0  0  0  0  0  0  0  0  0  0  0
    8.8379  -17.2545   24.8240 N   0  0  0  0  0  0  0  0  0  0  0  0
    8.6931  -16.1126   23.9893 C   0  0  0  0  0  0  0  0  0  0  0  0
    7.5466  -15.5809   23.9473 O   0  0  0  0  0  0  0  0  0  0  0  0
    9.8524  -15.5701   23.1983 C   0  0  0  0  0  0  0  0  0  0  0  0
   11.0367  -16.4420   23.5109 C   0  0  0  0  0  0  0  0  0  0  0  0
   12.3025  -16.0049   22.7881 C   0  0  2  0  0  0  0  0  0  0  0  0
   12.1614  -16.1893   21.3422 N   0  0  0  0  0  0  0  0  0  0  0  0
   13.3607  -16.9255   23.2558 C   0  0  0  0  0  0  0  0  0  0  0  0
   13.8597  -17.7737   22.4999 O   0  0  0  0  0  0  0  0  0  0  0  0
   13.7954  -16.8330   24.5584 O   0  0  0  0  0  0  0  0  0  0  0  0
  2  1  1  6
  2  4  1  0
  3  2  1  0
  4  6  1  0
  4  5  1  1
  6  8  1  0
  6  7  2  0
  8  9  1  0
  9 10  1  6
  9 13  1  0
 11 10  1  0
 12 11  2  0
 13 14  2  0
 15 11  1  0
 16 17  1  0
 17 18  2  0
 17 19  1  0
 19 20  1  0
 21 20  1  1
 21 23  1  0
 22 21  1  0
 22 13  1  0
 23 25  1  0
 24 23  2  0
M  END
$$$$
