GSH.pdb
     RDKit          3D

 21 21  0  0  1  0  0  0  0  0999 V2000
    8.4554  -16.4564   14.6731 N   0  0  0  0  0  0  0  0  0  0  0  0
    9.4703  -17.2514   15.3260 C   0  0  0  0  0  0  0  0  0  0  0  0
    9.1886  -17.3224   16.7668 C   0  0  0  0  0  0  0  0  0  0  0  0
    8.2447  -16.6719   17.3040 O   0  0  0  0  0  0  0  0  0  0  0  0
   10.0057  -19.7412   20.9104 O   0  0  0  0  0  0  0  0  0  0  0  0
   10.3545  -19.5399   19.5693 C   0  0  0  0  0  0  0  0  0  0  0  0
    9.6672  -18.3189   19.0038 C   0  0  2  0  0  0  0  0  0  0  0  0
    9.9781  -18.1365   17.6206 N   0  0  0  0  0  0  0  0  0  0  0  0
   10.0823  -17.1554   19.8383 C   0  0  0  0  0  0  0  0  0  0  0  0
   11.1899  -16.6152   19.5869 O   0  0  0  0  0  0  0  0  0  0  0  0
    9.2904  -16.6351   20.8941 N   0  0  0  0  0  0  0  0  0  0  0  0
    9.7952  -15.4707   21.6452 C   0  0  1  0  0  0  0  0  0  0  0  0
    8.7543  -14.4191   21.7539 C   0  0  0  0  0  0  0  0  0  0  0  0
    8.4213  -13.8528   20.4368 C   0  0  0  0  0  0  0  0  0  0  0  0
    9.0717  -12.9421   19.6515 C   0  0  0  0  0  0  0  0  0  0  0  0
    8.4151  -12.7871   18.4615 N   0  0  0  0  0  0  0  0  0  0  0  0
    7.3541  -13.6012   18.4989 C   0  0  0  0  0  0  0  0  0  0  0  0
    7.3476  -14.2382   19.6645 N   0  0  0  0  0  0  0  0  0  0  0  0
   10.1407  -15.9961   23.0010 C   0  0  0  0  0  0  0  0  0  0  0  0
    9.8845  -17.1278   23.4196 O   0  0  0  0  0  0  0  0  0  0  0  0
   10.8121  -15.1392   23.8788 O   0  0  0  0  0  0  0  0  0  0  0  0
  1  2  1  0
  3  2  1  0
  4  3  2  0
  5  6  1  0
  7  6  1  1
  7  9  1  0
  7  8  1  0
  8  3  1  0
  9 10  2  0
 11 12  1  0
 11  9  1  0
 12 13  1  1
 13 14  1  0
 14 15  2  0
 14 18  1  0
 15 16  1  0
 16 17  1  0
 18 17  2  0
 19 12  1  0
 20 19  2  0
 21 19  1  0
M  END
$$$$
