GSH.pdb
     RDKit          3D

 21 21  0  0  1  0  0  0  0  0999 V2000
    7.8876  -12.8004   17.7225 N   0  0  0  0  0  0  0  0  0  0  0  0
    9.0110  -13.5089   18.2920 C   0  0  0  0  0  0  0  0  0  0  0  0
    8.5236  -14.5449   19.2135 C   0  0  0  0  0  0  0  0  0  0  0  0
    7.3279  -14.5723   19.6285 O   0  0  0  0  0  0  0  0  0  0  0  0
   10.8659  -17.8698   20.0070 O   0  0  0  0  0  0  0  0  0  0  0  0
    9.5056  -17.9050   20.3373 C   0  0  0  0  0  0  0  0  0  0  0  0
    8.9867  -16.5235   20.6616 C   0  0  2  0  0  0  0  0  0  0  0  0
    9.3909  -15.5681   19.6782 N   0  0  0  0  0  0  0  0  0  0  0  0
    9.4791  -16.1786   22.0258 C   0  0  0  0  0  0  0  0  0  0  0  0
   10.4904  -15.4366   22.1172 O   0  0  0  0  0  0  0  0  0  0  0  0
    8.8629  -16.6460   23.2151 N   0  0  0  0  0  0  0  0  0  0  0  0
    9.3078  -16.0875   24.5053 C   0  0  1  0  0  0  0  0  0  0  0  0
    8.1533  -15.8532   25.4071 C   0  0  0  0  0  0  0  0  0  0  0  0
    7.4986  -14.5664   25.1207 C   0  0  0  0  0  0  0  0  0  0  0  0
    7.7871  -13.5853   24.2134 C   0  0  0  0  0  0  0  0  0  0  0  0
    6.8370  -12.6022   24.2596 N   0  0  0  0  0  0  0  0  0  0  0  0
    5.9517  -12.9667   25.1940 C   0  0  0  0  0  0  0  0  0  0  0  0
    6.3332  -14.1293   25.7109 N   0  0  0  0  0  0  0  0  0  0  0  0
   10.2168  -17.1201   25.0892 C   0  0  0  0  0  0  0  0  0  0  0  0
   10.8408  -17.0120   26.1477 O   0  0  0  0  0  0  0  0  0  0  0  0
   10.3817  -18.3155   24.3826 O   0  0  0  0  0  0  0  0  0  0  0  0
  1  2  1  0
  3  2  1  0
  4  3  2  0
  5  6  1  0
  7  6  1  6
  7  9  1  0
  7  8  1  0
  8  3  1  0
  9 10  2  0
 11 12  1  0
 11  9  1  0
 12 13  1  1
 13 14  1  0
 14 15  2  0
 14 18  1  0
 15 16  1  0
 16 17  1  0
 18 17  2  0
 19 12  1  0
 20 19  2  0
 21 19  1  0
M  END
$$$$
