GSH.pdb
     RDKit          3D

 21 21  0  0  1  0  0  0  0  0999 V2000
    9.2943  -16.4407   14.2813 N   0  0  0  0  0  0  0  0  0  0  0  0
   10.1950  -17.2489   15.0713 C   0  0  0  0  0  0  0  0  0  0  0  0
    9.7378  -17.2734   16.4679 C   0  0  0  0  0  0  0  0  0  0  0  0
    8.7692  -16.5670   16.8747 O   0  0  0  0  0  0  0  0  0  0  0  0
   11.7511  -19.6829   19.2507 O   0  0  0  0  0  0  0  0  0  0  0  0
   10.3704  -19.5104   19.4079 C   0  0  0  0  0  0  0  0  0  0  0  0
    9.9050  -18.2225   18.7696 C   0  0  2  0  0  0  0  0  0  0  0  0
   10.3769  -18.1037   17.4255 N   0  0  0  0  0  0  0  0  0  0  0  0
   10.3761  -17.1064   19.6385 C   0  0  0  0  0  0  0  0  0  0  0  0
   11.4881  -16.5822   19.3733 O   0  0  0  0  0  0  0  0  0  0  0  0
    9.6323  -16.6139   20.7416 N   0  0  0  0  0  0  0  0  0  0  0  0
   10.1768  -15.4769   21.5068 C   0  0  1  0  0  0  0  0  0  0  0  0
    9.1481  -14.4247   21.6955 C   0  0  0  0  0  0  0  0  0  0  0  0
    8.7149  -13.8579   20.4082 C   0  0  0  0  0  0  0  0  0  0  0  0
    9.3310  -12.9948   19.5452 C   0  0  0  0  0  0  0  0  0  0  0  0
    8.5670  -12.8190   18.4241 N   0  0  0  0  0  0  0  0  0  0  0  0
    7.4729  -13.5725   18.5824 C   0  0  0  0  0  0  0  0  0  0  0  0
    7.5497  -14.1930   19.7543 N   0  0  0  0  0  0  0  0  0  0  0  0
   10.5789  -16.0478   22.8281 C   0  0  0  0  0  0  0  0  0  0  0  0
   10.3231  -17.1869   23.2263 O   0  0  0  0  0  0  0  0  0  0  0  0
   11.3079  -15.2285   23.6958 O   0  0  0  0  0  0  0  0  0  0  0  0
  1  2  1  0
  3  2  1  0
  4  3  2  0
  5  6  1  0
  7  6  1  1
  7  9  1  0
  7  8  1  0
  8  3  1  0
  9 10  2  0
 11 12  1  0
 11  9  1  0
 12 13  1  1
 13 14  1  0
 14 15  2  0
 14 18  1  0
 15 16  1  0
 16 17  1  0
 18 17  2  0
 19 12  1  0
 20 19  2  0
 21 19  1  0
M  END
$$$$
