GSH.pdb
     RDKit          3D

 21 21  0  0  1  0  0  0  0  0999 V2000
   11.2636  -24.1764   24.1191 N   0  0  0  0  0  0  0  0  0  0  0  0
   11.3916  -24.6652   25.4731 C   0  0  0  0  0  0  0  0  0  0  0  0
   11.5893  -23.5325   26.3886 C   0  0  0  0  0  0  0  0  0  0  0  0
   12.1201  -22.4457   26.0148 O   0  0  0  0  0  0  0  0  0  0  0  0
    9.5493  -23.4525   29.9678 O   0  0  0  0  0  0  0  0  0  0  0  0
   10.0708  -22.2683   29.4325 C   0  0  0  0  0  0  0  0  0  0  0  0
   11.3429  -22.5317   28.6611 C   0  0  2  0  0  0  0  0  0  0  0  0
   11.1852  -23.6191   27.7466 N   0  0  0  0  0  0  0  0  0  0  0  0
   12.4195  -22.7816   29.6616 C   0  0  0  0  0  0  0  0  0  0  0  0
   12.7044  -23.9757   29.9349 O   0  0  0  0  0  0  0  0  0  0  0  0
   13.1306  -21.7414   30.3134 N   0  0  0  0  0  0  0  0  0  0  0  0
   14.2361  -22.1044   31.2195 C   0  0  1  0  0  0  0  0  0  0  0  0
   15.1508  -20.9546   31.4256 C   0  0  0  0  0  0  0  0  0  0  0  0
   16.2094  -21.2758   32.3963 C   0  0  0  0  0  0  0  0  0  0  0  0
   16.1923  -22.0225   33.5414 C   0  0  0  0  0  0  0  0  0  0  0  0
   17.4506  -22.1065   34.0718 N   0  0  0  0  0  0  0  0  0  0  0  0
   18.2572  -21.4145   33.2593 C   0  0  0  0  0  0  0  0  0  0  0  0
   17.5330  -20.9180   32.2627 N   0  0  0  0  0  0  0  0  0  0  0  0
   13.5812  -22.4799   32.5093 C   0  0  0  0  0  0  0  0  0  0  0  0
   12.4333  -22.1793   32.8463 O   0  0  0  0  0  0  0  0  0  0  0  0
   14.3250  -23.2369   33.4199 O   0  0  0  0  0  0  0  0  0  0  0  0
  1  2  1  0
  3  2  1  0
  4  3  2  0
  5  6  1  0
  7  6  1  1
  7  9  1  0
  7  8  1  0
  8  3  1  0
  9 10  2  0
 11 12  1  0
 11  9  1  0
 12 13  1  1
 13 14  1  0
 14 15  2  0
 14 18  1  0
 15 16  1  0
 16 17  1  0
 18 17  2  0
 19 12  1  0
 20 19  2  0
 21 19  1  0
M  END
$$$$
