GSH.pdb
     RDKit          3D

 21 21  0  0  1  0  0  0  0  0999 V2000
    7.6693  -17.5004   19.6361 N   0  0  0  0  0  0  0  0  0  0  0  0
    7.5680  -18.4026   20.7605 C   0  0  0  0  0  0  0  0  0  0  0  0
    7.9696  -17.7041   21.9897 C   0  0  0  0  0  0  0  0  0  0  0  0
    8.7051  -16.6738   21.9724 O   0  0  0  0  0  0  0  0  0  0  0  0
    6.6886  -19.1886   25.6986 O   0  0  0  0  0  0  0  0  0  0  0  0
    7.0184  -17.8306   25.6107 C   0  0  0  0  0  0  0  0  0  0  0  0
    7.9899  -17.5767   24.4816 C   0  0  2  0  0  0  0  0  0  0  0  0
    7.5397  -18.1679   23.2605 N   0  0  0  0  0  0  0  0  0  0  0  0
    9.3147  -18.1055   24.9150 C   0  0  0  0  0  0  0  0  0  0  0  0
    9.6109  -19.2856   24.5968 O   0  0  0  0  0  0  0  0  0  0  0  0
   10.2478  -17.3432   25.6638 N   0  0  0  0  0  0  0  0  0  0  0  0
   11.4794  -18.0033   26.1354 C   0  0  1  0  0  0  0  0  0  0  0  0
   12.6602  -17.1287   25.9312 C   0  0  0  0  0  0  0  0  0  0  0  0
   12.9305  -16.9140   24.5004 C   0  0  0  0  0  0  0  0  0  0  0  0
   12.2816  -17.3531   23.3800 C   0  0  0  0  0  0  0  0  0  0  0  0
   12.8580  -16.8215   22.2590 N   0  0  0  0  0  0  0  0  0  0  0  0
   13.8669  -16.0479   22.6754 C   0  0  0  0  0  0  0  0  0  0  0  0
   13.9193  -16.0946   24.0019 N   0  0  0  0  0  0  0  0  0  0  0  0
   11.2629  -18.2451   27.5942 C   0  0  0  0  0  0  0  0  0  0  0  0
   12.0618  -18.7929   28.3579 O   0  0  0  0  0  0  0  0  0  0  0  0
   10.0538  -17.8177   28.1518 O   0  0  0  0  0  0  0  0  0  0  0  0
  1  2  1  0
  3  2  1  0
  4  3  2  0
  5  6  1  0
  7  6  1  1
  7  9  1  0
  7  8  1  0
  8  3  1  0
  9 10  2  0
 11 12  1  0
 11  9  1  0
 12 13  1  1
 13 14  1  0
 14 15  2  0
 14 18  1  0
 15 16  1  0
 16 17  1  0
 18 17  2  0
 19 12  1  0
 20 19  2  0
 21 19  1  0
M  END
$$$$
