GSH.pdb
     RDKit          3D

 21 21  0  0  1  0  0  0  0  0999 V2000
    7.7855  -22.2440   20.6818 N   0  0  0  0  0  0  0  0  0  0  0  0
    7.3913  -22.8093   21.9521 C   0  0  0  0  0  0  0  0  0  0  0  0
    7.8136  -21.9163   23.0404 C   0  0  0  0  0  0  0  0  0  0  0  0
    8.5231  -20.8882   22.8347 O   0  0  0  0  0  0  0  0  0  0  0  0
    5.5272  -21.3386   26.2629 O   0  0  0  0  0  0  0  0  0  0  0  0
    6.8665  -21.4885   26.6428 C   0  0  0  0  0  0  0  0  0  0  0  0
    7.7920  -21.3129   25.4615 C   0  0  2  0  0  0  0  0  0  0  0  0
    7.4344  -22.1799   24.3827 N   0  0  0  0  0  0  0  0  0  0  0  0
    9.1793  -21.5559   25.9506 C   0  0  0  0  0  0  0  0  0  0  0  0
    9.5637  -22.7479   26.0641 O   0  0  0  0  0  0  0  0  0  0  0  0
   10.0769  -20.5113   26.2906 N   0  0  0  0  0  0  0  0  0  0  0  0
   11.4774  -20.8577   26.5961 C   0  0  1  0  0  0  0  0  0  0  0  0
   12.4124  -19.9146   25.9347 C   0  0  0  0  0  0  0  0  0  0  0  0
   12.3796  -20.0615   24.4706 C   0  0  0  0  0  0  0  0  0  0  0  0
   12.5347  -21.1560   23.6663 C   0  0  0  0  0  0  0  0  0  0  0  0
   12.3368  -20.8140   22.3565 N   0  0  0  0  0  0  0  0  0  0  0  0
   12.0560  -19.5061   22.3389 C   0  0  0  0  0  0  0  0  0  0  0  0
   12.0781  -19.0495   23.5860 N   0  0  0  0  0  0  0  0  0  0  0  0
   11.5961  -20.7449   28.0815 C   0  0  0  0  0  0  0  0  0  0  0  0
   10.7068  -20.3634   28.8464 O   0  0  0  0  0  0  0  0  0  0  0  0
   12.8165  -21.0995   28.6651 O   0  0  0  0  0  0  0  0  0  0  0  0
  1  2  1  0
  3  2  1  0
  4  3  2  0
  5  6  1  0
  7  6  1  1
  7  9  1  0
  7  8  1  0
  8  3  1  0
  9 10  2  0
 11 12  1  0
 11  9  1  0
 12 13  1  6
 13 14  1  0
 14 15  2  0
 14 18  1  0
 15 16  1  0
 16 17  1  0
 18 17  2  0
 19 12  1  0
 20 19  2  0
 21 19  1  0
M  END
$$$$
