GSH.pdb
     RDKit          3D

 21 21  0  0  1  0  0  0  0  0999 V2000
    8.3399  -12.5999   18.5785 N   0  0  0  0  0  0  0  0  0  0  0  0
    8.5724  -13.9627   18.9991 C   0  0  0  0  0  0  0  0  0  0  0  0
    7.8711  -14.2131   20.2663 C   0  0  0  0  0  0  0  0  0  0  0  0
    7.3664  -13.2789   20.9558 O   0  0  0  0  0  0  0  0  0  0  0  0
    7.4197  -18.1737   21.7201 O   0  0  0  0  0  0  0  0  0  0  0  0
    6.4562  -17.1967   21.9993 C   0  0  0  0  0  0  0  0  0  0  0  0
    7.0658  -15.8142   22.0025 C   0  0  2  0  0  0  0  0  0  0  0  0
    7.7328  -15.5330   20.7698 N   0  0  0  0  0  0  0  0  0  0  0  0
    7.9834  -15.7416   23.1752 C   0  0  0  0  0  0  0  0  0  0  0  0
    9.2160  -15.8822   22.9685 O   0  0  0  0  0  0  0  0  0  0  0  0
    7.5320  -15.5229   24.5022 N   0  0  0  0  0  0  0  0  0  0  0  0
    8.5360  -15.3689   25.5713 C   0  0  1  0  0  0  0  0  0  0  0  0
    7.9223  -14.7987   26.7957 C   0  0  0  0  0  0  0  0  0  0  0  0
    8.8509  -14.8475   27.9366 C   0  0  0  0  0  0  0  0  0  0  0  0
    9.5984  -15.8690   28.4531 C   0  0  0  0  0  0  0  0  0  0  0  0
   10.3824  -15.4124   29.4771 N   0  0  0  0  0  0  0  0  0  0  0  0
   10.1284  -14.1049   29.6021 C   0  0  0  0  0  0  0  0  0  0  0  0
    9.2227  -13.7588   28.6942 N   0  0  0  0  0  0  0  0  0  0  0  0
    9.0384  -16.7502   25.8418 C   0  0  0  0  0  0  0  0  0  0  0  0
   10.1991  -17.0481   26.1342 O   0  0  0  0  0  0  0  0  0  0  0  0
    8.1221  -17.8033   25.7585 O   0  0  0  0  0  0  0  0  0  0  0  0
  1  2  1  0
  3  2  1  0
  4  3  2  0
  5  6  1  0
  7  6  1  6
  7  9  1  0
  7  8  1  0
  8  3  1  0
  9 10  2  0
 11 12  1  0
 11  9  1  0
 12 13  1  1
 13 14  1  0
 14 15  2  0
 14 18  1  0
 15 16  1  0
 16 17  1  0
 18 17  2  0
 19 12  1  0
 20 19  2  0
 21 19  1  0
M  END
$$$$
