GSH.pdb
     RDKit          3D

 21 21  0  0  1  0  0  0  0  0999 V2000
   12.0639  -17.7879   19.1668 N   0  0  0  0  0  0  0  0  0  0  0  0
   11.8105  -17.8738   20.5869 C   0  0  0  0  0  0  0  0  0  0  0  0
   12.9015  -17.2185   21.3221 C   0  0  0  0  0  0  0  0  0  0  0  0
   13.9379  -16.7785   20.7434 O   0  0  0  0  0  0  0  0  0  0  0  0
   12.6868  -16.9533   25.5013 O   0  0  0  0  0  0  0  0  0  0  0  0
   13.3796  -15.9438   24.8218 C   0  0  0  0  0  0  0  0  0  0  0  0
   13.8752  -16.4299   23.4799 C   0  0  2  0  0  0  0  0  0  0  0  0
   12.8300  -17.0534   22.7301 N   0  0  0  0  0  0  0  0  0  0  0  0
   15.0162  -17.3531   23.7414 C   0  0  0  0  0  0  0  0  0  0  0  0
   14.7772  -18.5869   23.7882 O   0  0  0  0  0  0  0  0  0  0  0  0
   16.3480  -16.9055   23.9380 N   0  0  0  0  0  0  0  0  0  0  0  0
   17.3969  -17.9088   24.1987 C   0  0  1  0  0  0  0  0  0  0  0  0
   18.7100  -17.4475   23.6847 C   0  0  0  0  0  0  0  0  0  0  0  0
   18.8361  -17.6863   22.2379 C   0  0  0  0  0  0  0  0  0  0  0  0
   17.9950  -18.2853   21.3419 C   0  0  0  0  0  0  0  0  0  0  0  0
   18.5091  -18.1978   20.0771 N   0  0  0  0  0  0  0  0  0  0  0  0
   19.6712  -17.5428   20.1789 C   0  0  0  0  0  0  0  0  0  0  0  0
   19.8752  -17.2343   21.4546 N   0  0  0  0  0  0  0  0  0  0  0  0
   17.4460  -18.0501   25.6857 C   0  0  0  0  0  0  0  0  0  0  0  0
   16.7987  -17.3787   26.4929 O   0  0  0  0  0  0  0  0  0  0  0  0
   18.2961  -19.0243   26.2185 O   0  0  0  0  0  0  0  0  0  0  0  0
  1  2  1  0
  3  2  1  0
  4  3  2  0
  5  6  1  0
  7  6  1  1
  7  9  1  0
  7  8  1  0
  8  3  1  0
  9 10  2  0
 11 12  1  0
 11  9  1  0
 12 13  1  1
 13 14  1  0
 14 15  2  0
 14 18  1  0
 15 16  1  0
 16 17  1  0
 18 17  2  0
 19 12  1  0
 20 19  2  0
 21 19  1  0
M  END
$$$$
