GSH.pdb
     RDKit          3D

 21 21  0  0  1  0  0  0  0  0999 V2000
    7.5887  -13.1725   18.7921 N   0  0  0  0  0  0  0  0  0  0  0  0
    8.0971  -12.9588   17.4563 C   0  0  0  0  0  0  0  0  0  0  0  0
    8.4744  -14.2486   16.8610 C   0  0  0  0  0  0  0  0  0  0  0  0
    8.4491  -15.3299   17.5188 O   0  0  0  0  0  0  0  0  0  0  0  0
    9.5194  -16.6863   12.7814 O   0  0  0  0  0  0  0  0  0  0  0  0
    9.3024  -15.4415   13.3847 C   0  0  0  0  0  0  0  0  0  0  0  0
    9.2528  -15.5654   14.8897 C   0  0  2  0  0  0  0  0  0  0  0  0
    8.8872  -14.3282   15.5053 N   0  0  0  0  0  0  0  0  0  0  0  0
   10.5910  -16.0487   15.3348 C   0  0  0  0  0  0  0  0  0  0  0  0
   11.5062  -15.1984   15.4801 O   0  0  0  0  0  0  0  0  0  0  0  0
   10.8754  -17.4131   15.5996 N   0  0  0  0  0  0  0  0  0  0  0  0
   12.2158  -17.7686   16.1013 C   0  0  1  0  0  0  0  0  0  0  0  0
   12.1634  -19.0034   16.9220 C   0  0  0  0  0  0  0  0  0  0  0  0
   13.4850  -19.3381   17.4766 C   0  0  0  0  0  0  0  0  0  0  0  0
   14.6454  -18.6188   17.5496 C   0  0  0  0  0  0  0  0  0  0  0  0
   15.5973  -19.3224   18.2354 N   0  0  0  0  0  0  0  0  0  0  0  0
   15.0343  -20.4817   18.5943 C   0  0  0  0  0  0  0  0  0  0  0  0
   13.7826  -20.5021   18.1504 N   0  0  0  0  0  0  0  0  0  0  0  0
   13.0461  -17.9963   14.8797 C   0  0  0  0  0  0  0  0  0  0  0  0
   14.2431  -17.7223   14.7634 O   0  0  0  0  0  0  0  0  0  0  0  0
   12.4220  -18.5684   13.7667 O   0  0  0  0  0  0  0  0  0  0  0  0
  1  2  1  0
  3  2  1  0
  4  3  2  0
  5  6  1  0
  7  6  1  6
  7  9  1  0
  7  8  1  0
  8  3  1  0
  9 10  2  0
 11 12  1  0
 11  9  1  0
 12 13  1  1
 13 14  1  0
 14 15  2  0
 14 18  1  0
 15 16  1  0
 16 17  1  0
 18 17  2  0
 19 12  1  0
 20 19  2  0
 21 19  1  0
M  END
$$$$
