MHL.pdb
     RDKit          3D

 27 27  0  0  1  0  0  0  0  0999 V2000
   27.9479  -38.7076  -12.1777 C   0  0  0  0  0  0  0  0  0  0  0  0
   26.1873  -38.8415  -11.8534 S   0  0  0  0  0  0  0  0  0  0  0  0
   25.4023  -37.2307  -12.0438 C   0  0  0  0  0  0  0  0  0  0  0  0
   26.3823  -36.1639  -11.5986 C   0  0  0  0  0  0  0  0  0  0  0  0
   25.7166  -34.7965  -11.6458 C   0  0  2  0  0  0  0  0  0  0  0  0
   25.9701  -34.1523  -12.8945 N   0  0  0  0  0  0  0  0  0  0  0  0
   26.0566  -33.9915  -10.4498 C   0  0  0  0  0  0  0  0  0  0  0  0
   27.0121  -33.1860  -10.5668 O   0  0  0  0  0  0  0  0  0  0  0  0
   25.3966  -34.0626   -9.2129 N   0  0  0  0  0  0  0  0  0  0  0  0
   25.7776  -33.3362   -8.0120 C   0  0  1  0  0  0  0  0  0  0  0  0
   24.5315  -32.8711   -7.2630 C   0  0  0  0  0  0  0  0  0  0  0  0
   24.0557  -31.6178   -7.8731 C   0  0  0  0  0  0  0  0  0  0  0  0
   24.7481  -30.8756   -8.8339 C   0  0  0  0  0  0  0  0  0  0  0  0
   24.0268  -29.7822   -9.1795 N   0  0  0  0  0  0  0  0  0  0  0  0
   22.9026  -29.8411   -8.4460 C   0  0  0  0  0  0  0  0  0  0  0  0
   22.9138  -30.9318   -7.6660 N   0  0  0  0  0  0  0  0  0  0  0  0
   26.7199  -34.0942   -7.1851 C   0  0  0  0  0  0  0  0  0  0  0  0
   26.5244  -35.2765   -6.8031 O   0  0  0  0  0  0  0  0  0  0  0  0
   32.2389  -33.2440   -7.2938 C   0  0  0  0  0  0  0  0  0  0  0  0
   30.9752  -34.0447   -7.0853 C   0  0  1  0  0  0  0  0  0  0  0  0
   31.4747  -35.5064   -6.9815 C   0  0  0  0  0  0  0  0  0  0  0  0
   30.2446  -33.6942   -5.8448 C   0  0  0  0  0  0  0  0  0  0  0  0
   28.8600  -34.2387   -5.8181 C   0  0  2  0  0  0  0  0  0  0  0  0
   27.9725  -33.5489   -6.7296 N   0  0  0  0  0  0  0  0  0  0  0  0
   28.2776  -34.1583   -4.4660 C   0  0  0  0  0  0  0  0  0  0  0  0
   27.3060  -33.4375   -4.1248 O   0  0  0  0  0  0  0  0  0  0  0  0
   28.8369  -34.9422   -3.4528 O   0  0  0  0  0  0  0  0  0  0  0  0
  1  2  1  0
  3  2  1  0
  4  3  1  0
  5  4  1  0
  5  6  1  6
  7  5  1  0
  8  7  2  0
  9  7  1  0
 10 17  1  0
 10  9  1  0
 10 11  1  1
 12 16  1  0
 12 11  1  0
 13 12  2  0
 14 13  1  0
 14 15  1  0
 15 16  2  0
 17 24  1  0
 18 17  2  0
 20 21  1  1
 20 19  1  0
 22 20  1  0
 23 25  1  0
 23 22  1  1
 24 23  1  0
 25 26  2  0
 25 27  1  0
M  END
$$$$
