MHL.pdb
     RDKit          3D

 27 27  0  0  1  0  0  0  0  0999 V2000
   42.2067  -27.3122    1.5179 C   0  0  0  0  0  0  0  0  0  0  0  0
   40.4152  -27.1964    1.5294 S   0  0  0  0  0  0  0  0  0  0  0  0
   39.8555  -26.4713    3.0813 C   0  0  0  0  0  0  0  0  0  0  0  0
   38.3613  -26.2358    2.9893 C   0  0  0  0  0  0  0  0  0  0  0  0
   37.6149  -27.3644    3.6851 C   0  0  2  0  0  0  0  0  0  0  0  0
   37.4084  -28.4604    2.7937 N   0  0  0  0  0  0  0  0  0  0  0  0
   36.3906  -26.8671    4.3543 C   0  0  0  0  0  0  0  0  0  0  0  0
   35.3644  -26.7569    3.6401 O   0  0  0  0  0  0  0  0  0  0  0  0
   36.2961  -26.5158    5.7101 N   0  0  0  0  0  0  0  0  0  0  0  0
   35.0812  -26.0917    6.3875 C   0  0  1  0  0  0  0  0  0  0  0  0
   34.7767  -27.0285    7.5535 C   0  0  0  0  0  0  0  0  0  0  0  0
   34.3203  -28.3204    7.0130 C   0  0  0  0  0  0  0  0  0  0  0  0
   35.0566  -29.5082    7.0342 C   0  0  0  0  0  0  0  0  0  0  0  0
   34.3422  -30.5037    6.4566 N   0  0  0  0  0  0  0  0  0  0  0  0
   33.1789  -29.9461    6.0809 C   0  0  0  0  0  0  0  0  0  0  0  0
   33.1597  -28.6462    6.4094 N   0  0  0  0  0  0  0  0  0  0  0  0
   35.1228  -24.6750    6.7584 C   0  0  0  0  0  0  0  0  0  0  0  0
   36.1430  -24.0993    7.2162 O   0  0  0  0  0  0  0  0  0  0  0  0
   31.6413  -21.1247    4.2594 C   0  0  0  0  0  0  0  0  0  0  0  0
   32.7774  -21.8775    4.9106 C   0  0  1  0  0  0  0  0  0  0  0  0
   34.0394  -21.3368    4.1954 C   0  0  0  0  0  0  0  0  0  0  0  0
   32.9019  -21.6276    6.3659 C   0  0  0  0  0  0  0  0  0  0  0  0
   34.0105  -22.3994    6.9903 C   0  0  2  0  0  0  0  0  0  0  0  0
   33.9858  -23.8007    6.6299 N   0  0  0  0  0  0  0  0  0  0  0  0
   33.9676  -22.3059    8.4611 C   0  0  0  0  0  0  0  0  0  0  0  0
   33.6884  -23.2435    9.2503 O   0  0  0  0  0  0  0  0  0  0  0  0
   34.2580  -21.0761    9.0585 O   0  0  0  0  0  0  0  0  0  0  0  0
  1  2  1  0
  3  2  1  0
  4  3  1  0
  5  4  1  0
  5  6  1  6
  7  5  1  0
  8  7  2  0
  9  7  1  0
 10 17  1  0
 10  9  1  0
 10 11  1  1
 12 16  1  0
 12 11  1  0
 13 12  2  0
 14 13  1  0
 14 15  1  0
 15 16  2  0
 17 24  1  0
 18 17  2  0
 20 21  1  6
 20 19  1  0
 22 20  1  0
 23 25  1  0
 23 22  1  6
 24 23  1  0
 25 26  2  0
 25 27  1  0
M  END
$$$$
