MHL.pdb
     RDKit          3D

 27 27  0  0  1  0  0  0  0  0999 V2000
   26.7938  -14.3582  -14.6122 C   0  0  0  0  0  0  0  0  0  0  0  0
   26.5167  -15.0542  -16.2437 S   0  0  0  0  0  0  0  0  0  0  0  0
   24.7711  -15.4475  -16.4565 C   0  0  0  0  0  0  0  0  0  0  0  0
   24.0645  -14.2189  -16.9934 C   0  0  0  0  0  0  0  0  0  0  0  0
   23.7911  -13.2415  -15.8599 C   0  0  2  0  0  0  0  0  0  0  0  0
   23.2371  -13.9171  -14.7307 N   0  0  0  0  0  0  0  0  0  0  0  0
   23.0098  -12.0751  -16.3324 C   0  0  0  0  0  0  0  0  0  0  0  0
   23.3735  -11.5560  -17.4157 O   0  0  0  0  0  0  0  0  0  0  0  0
   21.9075  -11.5168  -15.6662 N   0  0  0  0  0  0  0  0  0  0  0  0
   21.1202  -10.3893  -16.1393 C   0  0  1  0  0  0  0  0  0  0  0  0
   19.6384  -10.6328  -15.8652 C   0  0  0  0  0  0  0  0  0  0  0  0
   19.1595  -11.6908  -16.7710 C   0  0  0  0  0  0  0  0  0  0  0  0
   18.9089  -13.0153  -16.4017 C   0  0  0  0  0  0  0  0  0  0  0  0
   18.4791  -13.7199  -17.4760 N   0  0  0  0  0  0  0  0  0  0  0  0
   18.4619  -12.8491  -18.4991 C   0  0  0  0  0  0  0  0  0  0  0  0
   18.8660  -11.6392  -18.0858 N   0  0  0  0  0  0  0  0  0  0  0  0
   21.6188   -9.1129  -15.6211 C   0  0  0  0  0  0  0  0  0  0  0  0
   21.9929   -8.9360  -14.4334 O   0  0  0  0  0  0  0  0  0  0  0  0
   23.8443   -5.3707  -19.1615 C   0  0  0  0  0  0  0  0  0  0  0  0
   23.5827   -6.2556  -17.9656 C   0  0  1  0  0  0  0  0  0  0  0  0
   24.9498   -6.3150  -17.2415 C   0  0  0  0  0  0  0  0  0  0  0  0
   22.5653   -5.7144  -17.0342 C   0  0  0  0  0  0  0  0  0  0  0  0
   22.2235   -6.6630  -15.9397 C   0  0  2  0  0  0  0  0  0  0  0  0
   21.7288   -7.9297  -16.4346 N   0  0  0  0  0  0  0  0  0  0  0  0
   21.2045   -6.0965  -15.0373 C   0  0  0  0  0  0  0  0  0  0  0  0
   20.0308   -6.5225  -14.8927 O   0  0  0  0  0  0  0  0  0  0  0  0
   21.5463   -4.9849  -14.2617 O   0  0  0  0  0  0  0  0  0  0  0  0
  1  2  1  0
  3  2  1  0
  4  3  1  0
  5  4  1  0
  5  6  1  1
  7  5  1  0
  8  7  2  0
  9  7  1  0
 10 17  1  0
 10  9  1  0
 10 11  1  1
 12 16  1  0
 12 11  1  0
 13 12  2  0
 14 13  1  0
 14 15  1  0
 15 16  2  0
 17 24  1  0
 18 17  2  0
 20 21  1  1
 20 19  1  0
 22 20  1  0
 23 25  1  0
 23 22  1  6
 24 23  1  0
 25 26  2  0
 25 27  1  0
M  END
$$$$
