MHL.pdb
     RDKit          3D

 27 27  0  0  1  0  0  0  0  0999 V2000
   28.8073  -21.0158  -10.2877 C   0  0  0  0  0  0  0  0  0  0  0  0
   29.9124  -21.6321  -11.5612 S   0  0  0  0  0  0  0  0  0  0  0  0
   29.7334  -20.6479  -13.0601 C   0  0  0  0  0  0  0  0  0  0  0  0
   28.2574  -20.5291  -13.3827 C   0  0  0  0  0  0  0  0  0  0  0  0
   28.0665  -19.6818  -14.6319 C   0  0  2  0  0  0  0  0  0  0  0  0
   28.6746  -18.3999  -14.4726 N   0  0  0  0  0  0  0  0  0  0  0  0
   26.6451  -19.6492  -15.0474 C   0  0  0  0  0  0  0  0  0  0  0  0
   25.9397  -18.7287  -14.5674 O   0  0  0  0  0  0  0  0  0  0  0  0
   26.0387  -20.5598  -15.9271 N   0  0  0  0  0  0  0  0  0  0  0  0
   24.6340  -20.5591  -16.3034 C   0  0  1  0  0  0  0  0  0  0  0  0
   24.4847  -20.9457  -17.7725 C   0  0  0  0  0  0  0  0  0  0  0  0
   24.8448  -19.7845  -18.6041 C   0  0  0  0  0  0  0  0  0  0  0  0
   25.1296  -18.5045  -18.1206 C   0  0  0  0  0  0  0  0  0  0  0  0
   25.4227  -17.6768  -19.1523 N   0  0  0  0  0  0  0  0  0  0  0  0
   25.3223  -18.4283  -20.2615 C   0  0  0  0  0  0  0  0  0  0  0  0
   24.9784  -19.6843  -19.9418 N   0  0  0  0  0  0  0  0  0  0  0  0
   23.8185  -21.3644  -15.3909 C   0  0  0  0  0  0  0  0  0  0  0  0
   23.9973  -22.5929  -15.1890 O   0  0  0  0  0  0  0  0  0  0  0  0
   24.3023  -20.1182  -10.0366 C   0  0  0  0  0  0  0  0  0  0  0  0
   23.4517  -20.9765  -10.9428 C   0  0  1  0  0  0  0  0  0  0  0  0
   22.0013  -20.5676  -10.5878 C   0  0  0  0  0  0  0  0  0  0  0  0
   23.6834  -20.7324  -12.3858 C   0  0  0  0  0  0  0  0  0  0  0  0
   22.5098  -21.0926  -13.2270 C   0  0  2  0  0  0  0  0  0  0  0  0
   22.7250  -20.8162  -14.6311 N   0  0  0  0  0  0  0  0  0  0  0  0
   21.3000  -20.3664  -12.7994 C   0  0  0  0  0  0  0  0  0  0  0  0
   20.3088  -20.8692  -12.2122 O   0  0  0  0  0  0  0  0  0  0  0  0
   21.2205  -18.9951  -13.0583 O   0  0  0  0  0  0  0  0  0  0  0  0
  1  2  1  0
  3  2  1  0
  4  3  1  0
  5  4  1  0
  5  6  1  1
  7  5  1  0
  8  7  2  0
  9  7  1  0
 10 17  1  0
 10  9  1  0
 10 11  1  6
 12 16  1  0
 12 11  1  0
 13 12  2  0
 14 13  1  0
 14 15  1  0
 15 16  2  0
 17 24  1  0
 18 17  2  0
 20 21  1  1
 20 19  1  0
 22 20  1  0
 23 25  1  0
 23 22  1  1
 24 23  1  0
 25 26  2  0
 25 27  1  0
M  END
$$$$
