MHL.pdb
     RDKit          3D

 27 27  0  0  1  0  0  0  0  0999 V2000
   12.9356  -22.6386    2.2752 C   0  0  0  0  0  0  0  0  0  0  0  0
   12.7169  -20.8623    2.1348 S   0  0  0  0  0  0  0  0  0  0  0  0
   14.3209  -20.0414    2.1527 C   0  0  0  0  0  0  0  0  0  0  0  0
   14.9556  -20.2582    3.5118 C   0  0  0  0  0  0  0  0  0  0  0  0
   16.3023  -19.5529    3.5732 C   0  0  2  0  0  0  0  0  0  0  0  0
   16.8971  -19.4824    2.2772 N   0  0  0  0  0  0  0  0  0  0  0  0
   17.1675  -20.1368    4.6242 C   0  0  0  0  0  0  0  0  0  0  0  0
   16.7924  -19.9819    5.8119 O   0  0  0  0  0  0  0  0  0  0  0  0
   18.3592  -20.8413    4.3914 N   0  0  0  0  0  0  0  0  0  0  0  0
   19.2097  -21.4203    5.4191 C   0  0  1  0  0  0  0  0  0  0  0  0
   19.9212  -22.6566    4.8756 C   0  0  0  0  0  0  0  0  0  0  0  0
   18.9186  -23.7070    4.6293 C   0  0  0  0  0  0  0  0  0  0  0  0
   17.7998  -23.9564    5.4290 C   0  0  0  0  0  0  0  0  0  0  0  0
   17.0883  -24.9893    4.9170 N   0  0  0  0  0  0  0  0  0  0  0  0
   17.7526  -25.3782    3.8157 C   0  0  0  0  0  0  0  0  0  0  0  0
   18.8433  -24.6185    3.6389 N   0  0  0  0  0  0  0  0  0  0  0  0
   20.1104  -20.4288    6.0123 C   0  0  0  0  0  0  0  0  0  0  0  0
   20.5853  -19.4479    5.3844 O   0  0  0  0  0  0  0  0  0  0  0  0
   22.2624  -16.1283    7.7631 C   0  0  0  0  0  0  0  0  0  0  0  0
   21.5511  -17.1003    8.6744 C   0  0  1  0  0  0  0  0  0  0  0  0
   20.5965  -16.2043    9.5006 C   0  0  0  0  0  0  0  0  0  0  0  0
   20.7538  -18.1200    7.9532 C   0  0  0  0  0  0  0  0  0  0  0  0
   21.3663  -19.4751    8.0079 C   0  0  2  0  0  0  0  0  0  0  0  0
   20.5385  -20.4862    7.3860 N   0  0  0  0  0  0  0  0  0  0  0  0
   21.6266  -19.8907    9.3984 C   0  0  0  0  0  0  0  0  0  0  0  0
   22.4888  -19.3933   10.1661 O   0  0  0  0  0  0  0  0  0  0  0  0
   20.8616  -20.9292    9.9369 O   0  0  0  0  0  0  0  0  0  0  0  0
  1  2  1  0
  3  2  1  0
  4  3  1  0
  5  4  1  0
  5  6  1  6
  7  5  1  0
  8  7  2  0
  9  7  1  0
 10 17  1  0
 10  9  1  0
 10 11  1  6
 12 16  1  0
 12 11  1  0
 13 12  2  0
 14 13  1  0
 14 15  1  0
 15 16  2  0
 17 24  1  0
 18 17  2  0
 20 21  1  1
 20 19  1  0
 22 20  1  0
 23 25  1  0
 23 22  1  1
 24 23  1  0
 25 26  2  0
 25 27  1  0
M  END
$$$$
