MHL.pdb
     RDKit          3D

 27 27  0  0  1  0  0  0  0  0999 V2000
   21.0557  -27.7160  -11.0825 C   0  0  0  0  0  0  0  0  0  0  0  0
   19.4210  -27.1478  -11.5597 S   0  0  0  0  0  0  0  0  0  0  0  0
   18.2310  -27.5397  -10.2645 C   0  0  0  0  0  0  0  0  0  0  0  0
   18.6247  -26.7891   -9.0082 C   0  0  0  0  0  0  0  0  0  0  0  0
   17.6523  -25.6452   -8.7617 C   0  0  2  0  0  0  0  0  0  0  0  0
   17.8293  -24.6119   -9.7310 N   0  0  0  0  0  0  0  0  0  0  0  0
   17.7016  -25.1918   -7.3525 C   0  0  0  0  0  0  0  0  0  0  0  0
   18.0084  -23.9902   -7.1585 O   0  0  0  0  0  0  0  0  0  0  0  0
   17.4333  -25.9968   -6.2342 N   0  0  0  0  0  0  0  0  0  0  0  0
   16.7672  -25.5554   -5.0191 C   0  0  1  0  0  0  0  0  0  0  0  0
   15.4517  -24.8625   -5.3645 C   0  0  0  0  0  0  0  0  0  0  0  0
   14.8376  -24.3702   -4.1196 C   0  0  0  0  0  0  0  0  0  0  0  0
   15.2486  -23.2374   -3.4115 C   0  0  0  0  0  0  0  0  0  0  0  0
   14.4690  -23.0704   -2.3162 N   0  0  0  0  0  0  0  0  0  0  0  0
   13.5858  -24.0827   -2.3406 C   0  0  0  0  0  0  0  0  0  0  0  0
   13.8000  -24.8601   -3.4119 N   0  0  0  0  0  0  0  0  0  0  0  0
   16.6302  -26.6378   -4.0414 C   0  0  0  0  0  0  0  0  0  0  0  0
   16.0150  -27.7118   -4.2653 O   0  0  0  0  0  0  0  0  0  0  0  0
   20.4878  -27.6961   -0.1378 C   0  0  0  0  0  0  0  0  0  0  0  0
   19.4032  -27.7857   -1.1852 C   0  0  1  0  0  0  0  0  0  0  0  0
   19.5103  -29.2392   -1.7073 C   0  0  0  0  0  0  0  0  0  0  0  0
   18.0389  -27.5628   -0.6517 C   0  0  0  0  0  0  0  0  0  0  0  0
   16.9943  -27.5904   -1.7112 C   0  0  2  0  0  0  0  0  0  0  0  0
   17.1955  -26.5711   -2.7186 N   0  0  0  0  0  0  0  0  0  0  0  0
   15.6468  -27.4085   -1.1412 C   0  0  0  0  0  0  0  0  0  0  0  0
   14.9555  -26.3606   -1.2060 O   0  0  0  0  0  0  0  0  0  0  0  0
   15.0614  -28.4804   -0.4614 O   0  0  0  0  0  0  0  0  0  0  0  0
  1  2  1  0
  3  2  1  0
  4  3  1  0
  5  4  1  0
  5  6  1  6
  7  5  1  0
  8  7  2  0
  9  7  1  0
 10 17  1  0
 10  9  1  0
 10 11  1  6
 12 16  1  0
 12 11  1  0
 13 12  2  0
 14 13  1  0
 14 15  1  0
 15 16  2  0
 17 24  1  0
 18 17  2  0
 20 21  1  1
 20 19  1  0
 22 20  1  0
 23 25  1  0
 23 22  1  1
 24 23  1  0
 25 26  2  0
 25 27  1  0
M  END
$$$$
