IGQ.pdb
     RDKit          3D

 22 21  0  0  1  0  0  0  0  0999 V2000
    6.2120  -11.3832   27.1089 C   0  0  0  0  0  0  0  0  0  0  0  0
    5.9353  -12.6555   26.3711 C   0  0  0  0  0  0  0  0  0  0  0  0
    7.1378  -13.1582   25.5932 C   0  0  2  0  0  0  0  0  0  0  0  0
    7.7170  -12.1125   24.6954 C   0  0  0  0  0  0  0  0  0  0  0  0
    6.6682  -14.3590   24.7885 C   0  0  2  0  0  0  0  0  0  0  0  0
    6.2713  -15.3728   25.7187 N   0  0  0  0  0  0  0  0  0  0  0  0
    7.7062  -14.8255   23.8351 C   0  0  0  0  0  0  0  0  0  0  0  0
    8.0012  -14.0044   22.9029 O   0  0  0  0  0  0  0  0  0  0  0  0
    8.3389  -16.0819   23.9280 N   0  0  0  0  0  0  0  0  0  0  0  0
    9.3926  -16.4244   23.0108 C   0  0  0  0  0  0  0  0  0  0  0  0
   10.6433  -16.5955   23.7959 C   0  0  0  0  0  0  0  0  0  0  0  0
   11.7052  -17.0223   23.2724 O   0  0  0  0  0  0  0  0  0  0  0  0
   11.5949  -15.8821   29.7094 N   0  0  0  0  0  0  0  0  0  0  0  0
   10.6048  -15.1632   29.0056 C   0  0  0  0  0  0  0  0  0  0  0  0
    9.6215  -14.7178   29.6305 O   0  0  0  0  0  0  0  0  0  0  0  0
   10.7181  -14.9333   27.5469 C   0  0  0  0  0  0  0  0  0  0  0  0
   12.0393  -15.3680   27.0017 C   0  0  0  0  0  0  0  0  0  0  0  0
   11.9599  -16.4472   25.9503 C   0  0  2  0  0  0  0  0  0  0  0  0
   10.7124  -16.2857   25.1886 N   0  0  0  0  0  0  0  0  0  0  0  0
   11.9908  -17.7880   26.5502 C   0  0  0  0  0  0  0  0  0  0  0  0
   10.9482  -18.7014   26.5448 O   0  0  0  0  0  0  0  0  0  0  0  0
   13.0752  -18.1464   27.1310 O   0  0  0  0  0  0  0  0  0  0  0  0
  2  1  1  0
  3  2  1  0
  3  5  1  0
  3  4  1  6
  5  6  1  1
  7  9  1  0
  7  5  1  0
  8  7  2  0
 10 11  1  0
 10  9  1  0
 11 19  1  0
 12 11  2  0
 14 13  1  0
 15 14  2  0
 16 14  1  0
 17 16  1  0
 18 17  1  1
 18 20  1  0
 19 18  1  0
 20 22  2  0
 20 21  1  0
M  END
$$$$
