IGQ.pdb
     RDKit          3D

 22 21  0  0  1  0  0  0  0  0999 V2000
    8.4286  -12.3927   19.9723 C   0  0  0  0  0  0  0  0  0  0  0  0
    8.5076  -13.5042   20.9711 C   0  0  0  0  0  0  0  0  0  0  0  0
    7.7076  -14.7258   20.5568 C   0  0  2  0  0  0  0  0  0  0  0  0
    6.2352  -14.4671   20.5397 C   0  0  0  0  0  0  0  0  0  0  0  0
    8.0492  -15.8290   21.5448 C   0  0  2  0  0  0  0  0  0  0  0  0
    7.5771  -15.4162   22.8321 N   0  0  0  0  0  0  0  0  0  0  0  0
    9.4991  -16.1482   21.5373 C   0  0  0  0  0  0  0  0  0  0  0  0
    9.8531  -17.0643   20.7214 O   0  0  0  0  0  0  0  0  0  0  0  0
   10.4419  -15.5013   22.3620 N   0  0  0  0  0  0  0  0  0  0  0  0
   11.8311  -15.8662   22.2867 C   0  0  0  0  0  0  0  0  0  0  0  0
   12.1813  -16.5898   23.5372 C   0  0  0  0  0  0  0  0  0  0  0  0
   13.3492  -16.9997   23.7648 O   0  0  0  0  0  0  0  0  0  0  0  0
   10.7903  -13.1135   28.9196 N   0  0  0  0  0  0  0  0  0  0  0  0
   10.1790  -14.3520   28.6281 C   0  0  0  0  0  0  0  0  0  0  0  0
    8.9587  -14.4904   28.8459 O   0  0  0  0  0  0  0  0  0  0  0  0
   10.9620  -15.4792   28.0717 C   0  0  0  0  0  0  0  0  0  0  0  0
   10.7762  -15.6302   26.5971 C   0  0  0  0  0  0  0  0  0  0  0  0
   11.5513  -16.7682   25.9802 C   0  0  2  0  0  0  0  0  0  0  0  0
   11.2135  -16.8616   24.5521 N   0  0  0  0  0  0  0  0  0  0  0  0
   11.2447  -18.0471   26.6350 C   0  0  0  0  0  0  0  0  0  0  0  0
   11.8182  -18.5143   27.8073 O   0  0  0  0  0  0  0  0  0  0  0  0
   10.3716  -18.7991   26.0747 O   0  0  0  0  0  0  0  0  0  0  0  0
  2  1  1  0
  3  2  1  0
  3  5  1  0
  3  4  1  1
  5  6  1  1
  7  9  1  0
  7  5  1  0
  8  7  2  0
 10 11  1  0
 10  9  1  0
 11 19  1  0
 12 11  2  0
 14 13  1  0
 15 14  2  0
 16 14  1  0
 17 16  1  0
 18 17  1  1
 18 20  1  0
 19 18  1  0
 20 22  2  0
 20 21  1  0
M  END
$$$$
