IGQ.pdb
     RDKit          3D

 22 21  0  0  1  0  0  0  0  0999 V2000
    8.7446  -12.3291   18.8262 C   0  0  0  0  0  0  0  0  0  0  0  0
    7.7177  -13.4047   18.9939 C   0  0  0  0  0  0  0  0  0  0  0  0
    7.8169  -14.1093   20.3346 C   0  0  2  0  0  0  0  0  0  0  0  0
    7.4934  -13.2063   21.4814 C   0  0  0  0  0  0  0  0  0  0  0  0
    9.2378  -14.6367   20.4484 C   0  0  2  0  0  0  0  0  0  0  0  0
    9.4220  -15.6063   19.4109 N   0  0  0  0  0  0  0  0  0  0  0  0
    9.5193  -15.1790   21.8014 C   0  0  0  0  0  0  0  0  0  0  0  0
    9.6037  -14.3094   22.7325 O   0  0  0  0  0  0  0  0  0  0  0  0
    9.6863  -16.5530   22.0690 N   0  0  0  0  0  0  0  0  0  0  0  0
   10.0946  -16.9846   23.3788 C   0  0  0  0  0  0  0  0  0  0  0  0
   11.5638  -17.2094   23.3480 C   0  0  0  0  0  0  0  0  0  0  0  0
   12.0965  -18.2083   23.8976 O   0  0  0  0  0  0  0  0  0  0  0  0
   12.8199  -13.8838   19.6557 N   0  0  0  0  0  0  0  0  0  0  0  0
   12.9979  -15.2841   19.6667 C   0  0  0  0  0  0  0  0  0  0  0  0
   12.0724  -16.0147   19.2601 O   0  0  0  0  0  0  0  0  0  0  0  0
   14.2591  -15.8910   20.1509 C   0  0  0  0  0  0  0  0  0  0  0  0
   14.5073  -15.6136   21.5977 C   0  0  0  0  0  0  0  0  0  0  0  0
   13.8859  -16.6112   22.5436 C   0  0  2  0  0  0  0  0  0  0  0  0
   12.4553  -16.3055   22.6933 N   0  0  0  0  0  0  0  0  0  0  0  0
   14.5293  -16.5757   23.8640 C   0  0  0  0  0  0  0  0  0  0  0  0
   15.7096  -17.2168   24.2067 O   0  0  0  0  0  0  0  0  0  0  0  0
   13.9501  -15.8939   24.7812 O   0  0  0  0  0  0  0  0  0  0  0  0
  2  1  1  0
  3  2  1  0
  3  5  1  0
  3  4  1  1
  5  6  1  6
  7  9  1  0
  7  5  1  0
  8  7  2  0
 10 11  1  0
 10  9  1  0
 11 19  1  0
 12 11  2  0
 14 13  1  0
 15 14  2  0
 16 14  1  0
 17 16  1  0
 18 17  1  6
 18 20  1  0
 19 18  1  0
 20 22  2  0
 20 21  1  0
M  END
$$$$
