ETF.pdb
     RDKit          3D

 28 28  0  0  1  0  0  0  0  0999 V2000
    8.5374  -17.8233   15.0094 N   0  0  0  0  0  0  0  0  0  0  0  0
    9.4579  -17.9711   16.1154 C   0  0  1  0  0  0  0  0  0  0  0  0
   10.5273  -16.8916   15.9138 C   0  0  0  0  0  0  0  0  0  0  0  0
   11.2128  -17.0976   14.5729 C   0  0  0  0  0  0  0  0  0  0  0  0
   12.6708  -16.8608   14.6807 C   0  0  0  0  0  0  0  0  0  0  0  0
   13.4452  -16.8335   13.6950 O   0  0  0  0  0  0  0  0  0  0  0  0
    8.7682  -17.8024   17.4023 C   0  0  0  0  0  0  0  0  0  0  0  0
    7.5669  -17.3948   17.3958 O   0  0  0  0  0  0  0  0  0  0  0  0
   13.2141  -16.6576   15.9381 O   0  0  0  0  0  0  0  0  0  0  0  0
    8.1081  -20.5883   19.6194 C   0  0  0  0  0  0  0  0  0  0  0  0
    8.8048  -19.5373   20.4498 C   0  0  1  0  0  0  0  0  0  0  0  0
   10.1586  -19.9072   20.4849 O   0  0  0  0  0  0  0  0  0  0  0  0
    8.6458  -18.1524   19.8478 C   0  0  2  0  0  0  0  0  0  0  0  0
    9.4577  -18.0974   18.6047 N   0  0  0  0  0  0  0  0  0  0  0  0
    9.2588  -17.1777   20.7782 C   0  0  0  0  0  0  0  0  0  0  0  0
   10.4886  -16.8576   20.6039 O   0  0  0  0  0  0  0  0  0  0  0  0
    8.6253  -16.5460   21.8582 N   0  0  0  0  0  0  0  0  0  0  0  0
    9.3603  -15.6043   22.7172 C   0  0  1  0  0  0  0  0  0  0  0  0
    8.5020  -14.3874   22.9575 C   0  0  0  0  0  0  0  0  0  0  0  0
    8.1553  -13.7527   21.6740 C   0  0  0  0  0  0  0  0  0  0  0  0
    9.0493  -12.9182   21.0357 C   0  0  0  0  0  0  0  0  0  0  0  0
    8.6996  -12.3424   19.8428 C   0  0  0  0  0  0  0  0  0  0  0  0
    7.4619  -12.6129   19.3116 C   0  0  0  0  0  0  0  0  0  0  0  0
    6.5494  -13.4429   19.9282 C   0  0  0  0  0  0  0  0  0  0  0  0
    6.9053  -14.0233   21.1331 C   0  0  0  0  0  0  0  0  0  0  0  0
    9.7853  -16.2586   23.9607 C   0  0  0  0  0  0  0  0  0  0  0  0
    9.4042  -17.5235   24.3483 O   0  0  0  0  0  0  0  0  0  0  0  0
   10.5570  -15.6397   24.7569 O   0  0  0  0  0  0  0  0  0  0  0  0
  2  1  1  6
  3  2  1  0
  4  3  1  0
  5  6  2  0
  5  4  1  0
  7  2  1  0
  7  8  2  0
  9  5  1  0
 11 13  1  0
 11 10  1  6
 12 11  1  0
 13 14  1  6
 14  7  1  0
 15 13  1  0
 16 15  2  0
 17 15  1  0
 18 17  1  0
 18 19  1  1
 20 21  2  0
 20 19  1  0
 22 21  1  0
 23 22  2  0
 24 23  1  0
 24 25  2  0
 25 20  1  0
 26 18  1  0
 27 26  1  0
 28 26  2  0
M  END
$$$$
