ETF.pdb
     RDKit          3D

 28 28  0  0  1  0  0  0  0  0999 V2000
    8.9331  -13.4619   18.2752 N   0  0  0  0  0  0  0  0  0  0  0  0
    9.0609  -14.7518   18.9176 C   0  0  1  0  0  0  0  0  0  0  0  0
   10.5655  -15.0378   18.9808 C   0  0  0  0  0  0  0  0  0  0  0  0
   11.3187  -13.7461   19.2541 C   0  0  0  0  0  0  0  0  0  0  0  0
   12.7798  -13.9840   19.3005 C   0  0  0  0  0  0  0  0  0  0  0  0
   13.4206  -14.1671   20.3626 O   0  0  0  0  0  0  0  0  0  0  0  0
    8.4664  -14.7332   20.2616 C   0  0  0  0  0  0  0  0  0  0  0  0
    7.9610  -13.6492   20.6845 O   0  0  0  0  0  0  0  0  0  0  0  0
   13.4821  -14.0063   18.1073 O   0  0  0  0  0  0  0  0  0  0  0  0
    5.9347  -17.4458   20.6979 C   0  0  0  0  0  0  0  0  0  0  0  0
    6.7597  -17.3733   21.9603 C   0  0  1  0  0  0  0  0  0  0  0  0
    7.7119  -18.3999   21.8592 O   0  0  0  0  0  0  0  0  0  0  0  0
    7.4425  -16.0250   22.1058 C   0  0  2  0  0  0  0  0  0  0  0  0
    8.4736  -15.9164   21.0415 N   0  0  0  0  0  0  0  0  0  0  0  0
    8.1803  -16.0236   23.3892 C   0  0  0  0  0  0  0  0  0  0  0  0
    9.4598  -16.1073   23.3580 O   0  0  0  0  0  0  0  0  0  0  0  0
    7.6194  -15.9364   24.6717 N   0  0  0  0  0  0  0  0  0  0  0  0
    8.4726  -15.9546   25.8703 C   0  0  1  0  0  0  0  0  0  0  0  0
    7.7051  -15.3656   27.0275 C   0  0  0  0  0  0  0  0  0  0  0  0
    7.4579  -13.9324   26.7922 C   0  0  0  0  0  0  0  0  0  0  0  0
    8.5066  -13.0613   26.5809 C   0  0  0  0  0  0  0  0  0  0  0  0
    8.2464  -11.7339   26.3641 C   0  0  0  0  0  0  0  0  0  0  0  0
    6.9417  -11.3037   26.3631 C   0  0  0  0  0  0  0  0  0  0  0  0
    5.8750  -12.1523   26.5716 C   0  0  0  0  0  0  0  0  0  0  0  0
    6.1408  -13.4929   26.7902 C   0  0  0  0  0  0  0  0  0  0  0  0
    8.9606  -17.3125   26.1401 C   0  0  0  0  0  0  0  0  0  0  0  0
   10.0696  -17.6080   26.9007 O   0  0  0  0  0  0  0  0  0  0  0  0
    8.3392  -18.3056   25.6501 O   0  0  0  0  0  0  0  0  0  0  0  0
  2  1  1  1
  3  2  1  0
  4  3  1  0
  5  6  2  0
  5  4  1  0
  7  2  1  0
  7  8  2  0
  9  5  1  0
 11 13  1  0
 11 10  1  6
 12 11  1  0
 13 14  1  6
 14  7  1  0
 15 13  1  0
 16 15  2  0
 17 15  1  0
 18 17  1  0
 18 19  1  1
 20 21  2  0
 20 19  1  0
 22 21  1  0
 23 22  2  0
 24 23  1  0
 24 25  2  0
 25 20  1  0
 26 18  1  0
 27 26  1  0
 28 26  2  0
M  END
$$$$
