ETF.pdb
     RDKit          3D

 28 28  0  0  1  0  0  0  0  0999 V2000
    9.4937  -16.5830   19.5720 N   0  0  0  0  0  0  0  0  0  0  0  0
    8.1543  -16.0412   19.6438 C   0  0  1  0  0  0  0  0  0  0  0  0
    7.3954  -16.6498   18.4593 C   0  0  0  0  0  0  0  0  0  0  0  0
    8.3454  -17.4929   17.6244 C   0  0  0  0  0  0  0  0  0  0  0  0
    7.6428  -18.0957   16.4683 C   0  0  0  0  0  0  0  0  0  0  0  0
    7.3721  -19.3167   16.3793 O   0  0  0  0  0  0  0  0  0  0  0  0
    7.5129  -16.3867   20.9202 C   0  0  0  0  0  0  0  0  0  0  0  0
    6.2466  -16.3553   20.9888 O   0  0  0  0  0  0  0  0  0  0  0  0
    7.2616  -17.2691   15.4248 O   0  0  0  0  0  0  0  0  0  0  0  0
    6.6433  -19.2562   22.4901 C   0  0  0  0  0  0  0  0  0  0  0  0
    7.6238  -18.6007   23.4326 C   0  0  1  0  0  0  0  0  0  0  0  0
    8.8856  -19.1180   23.0987 O   0  0  0  0  0  0  0  0  0  0  0  0
    7.6123  -17.0891   23.2898 C   0  0  2  0  0  0  0  0  0  0  0  0
    8.3194  -16.7427   22.0297 N   0  0  0  0  0  0  0  0  0  0  0  0
    8.4304  -16.5213   24.3852 C   0  0  0  0  0  0  0  0  0  0  0  0
    9.6914  -16.3825   24.1966 O   0  0  0  0  0  0  0  0  0  0  0  0
    7.9656  -16.1045   25.6410 N   0  0  0  0  0  0  0  0  0  0  0  0
    8.8999  -15.6084   26.6638 C   0  0  1  0  0  0  0  0  0  0  0  0
    8.1912  -14.5913   27.5231 C   0  0  0  0  0  0  0  0  0  0  0  0
    7.7215  -13.4685   26.6932 C   0  0  0  0  0  0  0  0  0  0  0  0
    8.4974  -12.9808   25.6620 C   0  0  0  0  0  0  0  0  0  0  0  0
    8.0344  -11.9361   24.9064 C   0  0  0  0  0  0  0  0  0  0  0  0
    6.8037  -11.3994   25.1974 C   0  0  0  0  0  0  0  0  0  0  0  0
    6.0079  -11.8672   26.2218 C   0  0  0  0  0  0  0  0  0  0  0  0
    6.4781  -12.9228   26.9834 C   0  0  0  0  0  0  0  0  0  0  0  0
    9.4598  -16.7217   27.4397 C   0  0  0  0  0  0  0  0  0  0  0  0
   10.5324  -16.6160   28.2964 O   0  0  0  0  0  0  0  0  0  0  0  0
    8.9418  -17.8762   27.3337 O   0  0  0  0  0  0  0  0  0  0  0  0
  2  1  1  1
  3  2  1  0
  4  3  1  0
  5  6  2  0
  5  4  1  0
  7  2  1  0
  7  8  2  0
  9  5  1  0
 11 13  1  0
 11 10  1  6
 12 11  1  0
 13 14  1  6
 14  7  1  0
 15 13  1  0
 16 15  2  0
 17 15  1  0
 18 17  1  0
 18 19  1  1
 20 21  2  0
 20 19  1  0
 22 21  1  0
 23 22  2  0
 24 23  1  0
 24 25  2  0
 25 20  1  0
 26 18  1  0
 27 26  1  0
 28 26  2  0
M  END
$$$$
