ETF.pdb
     RDKit          3D

 28 28  0  0  1  0  0  0  0  0999 V2000
   10.6488  -19.8043   19.6100 N   0  0  0  0  0  0  0  0  0  0  0  0
   11.5179  -18.9831   20.4242 C   0  0  1  0  0  0  0  0  0  0  0  0
   12.8049  -18.8057   19.6107 C   0  0  0  0  0  0  0  0  0  0  0  0
   12.4600  -18.6541   18.1380 C   0  0  0  0  0  0  0  0  0  0  0  0
   13.6865  -18.5737   17.3118 C   0  0  0  0  0  0  0  0  0  0  0  0
   13.9580  -19.3799   16.3907 O   0  0  0  0  0  0  0  0  0  0  0  0
   10.8933  -17.6861   20.7205 C   0  0  0  0  0  0  0  0  0  0  0  0
   11.6206  -16.6468   20.7043 O   0  0  0  0  0  0  0  0  0  0  0  0
   14.5871  -17.5531   17.5668 O   0  0  0  0  0  0  0  0  0  0  0  0
    6.6116  -17.2140   21.3853 C   0  0  0  0  0  0  0  0  0  0  0  0
    7.5493  -16.2195   20.7441 C   0  0  1  0  0  0  0  0  0  0  0  0
    6.9854  -14.9541   20.9723 O   0  0  0  0  0  0  0  0  0  0  0  0
    8.9426  -16.2981   21.3422 C   0  0  2  0  0  0  0  0  0  0  0  0
    9.5078  -17.6322   21.0131 N   0  0  0  0  0  0  0  0  0  0  0  0
    8.8088  -16.2648   22.8161 C   0  0  0  0  0  0  0  0  0  0  0  0
    8.2328  -17.2513   23.3993 O   0  0  0  0  0  0  0  0  0  0  0  0
    9.2567  -15.2461   23.6698 N   0  0  0  0  0  0  0  0  0  0  0  0
    8.6025  -15.0069   24.9658 C   0  0  1  0  0  0  0  0  0  0  0  0
    7.3438  -14.2071   24.7394 C   0  0  0  0  0  0  0  0  0  0  0  0
    7.1342  -13.2689   25.8557 C   0  0  0  0  0  0  0  0  0  0  0  0
    8.1960  -12.8388   26.6243 C   0  0  0  0  0  0  0  0  0  0  0  0
    7.9710  -11.9655   27.6555 C   0  0  0  0  0  0  0  0  0  0  0  0
    6.6876  -11.5394   27.8978 C   0  0  0  0  0  0  0  0  0  0  0  0
    5.6084  -11.9531   27.1455 C   0  0  0  0  0  0  0  0  0  0  0  0
    5.8387  -12.8353   26.1043 C   0  0  0  0  0  0  0  0  0  0  0  0
    8.3566  -16.2739   25.6653 C   0  0  0  0  0  0  0  0  0  0  0  0
    8.9278  -16.6269   26.8673 O   0  0  0  0  0  0  0  0  0  0  0  0
    7.5682  -17.1258   25.1505 O   0  0  0  0  0  0  0  0  0  0  0  0
  2  1  1  6
  3  2  1  0
  4  3  1  0
  5  6  2  0
  5  4  1  0
  7  2  1  0
  7  8  2  0
  9  5  1  0
 11 13  1  0
 11 10  1  1
 12 11  1  0
 13 14  1  1
 14  7  1  0
 15 13  1  0
 16 15  2  0
 17 15  1  0
 18 17  1  0
 18 19  1  6
 20 21  2  0
 20 19  1  0
 22 21  1  0
 23 22  2  0
 24 23  1  0
 24 25  2  0
 25 20  1  0
 26 18  1  0
 27 26  1  0
 28 26  2  0
M  END
$$$$
