ETF.pdb
     RDKit          3D

 28 28  0  0  1  0  0  0  0  0999 V2000
   10.5616  -18.2826   18.2476 N   0  0  0  0  0  0  0  0  0  0  0  0
    9.7650  -18.3382   19.4538 C   0  0  1  0  0  0  0  0  0  0  0  0
   10.3920  -19.4396   20.3160 C   0  0  0  0  0  0  0  0  0  0  0  0
   10.8901  -20.5643   19.4229 C   0  0  0  0  0  0  0  0  0  0  0  0
   11.5346  -21.6309   20.2231 C   0  0  0  0  0  0  0  0  0  0  0  0
   10.8975  -22.4813   20.8888 O   0  0  0  0  0  0  0  0  0  0  0  0
    9.7751  -17.0454   20.1529 C   0  0  0  0  0  0  0  0  0  0  0  0
   10.8050  -16.3115   20.0526 O   0  0  0  0  0  0  0  0  0  0  0  0
   12.9177  -21.6971   20.2406 O   0  0  0  0  0  0  0  0  0  0  0  0
    7.4873  -13.1420   21.7196 C   0  0  0  0  0  0  0  0  0  0  0  0
    7.4725  -14.5420   21.1547 C   0  0  1  0  0  0  0  0  0  0  0  0
    7.4322  -14.3952   19.7591 O   0  0  0  0  0  0  0  0  0  0  0  0
    8.7029  -15.3273   21.5730 C   0  0  2  0  0  0  0  0  0  0  0  0
    8.6438  -16.6572   20.9130 N   0  0  0  0  0  0  0  0  0  0  0  0
    8.6043  -15.5893   23.0267 C   0  0  0  0  0  0  0  0  0  0  0  0
    7.8437  -16.5421   23.4251 O   0  0  0  0  0  0  0  0  0  0  0  0
    9.2709  -14.8926   24.0451 N   0  0  0  0  0  0  0  0  0  0  0  0
    9.0427  -15.2256   25.4600 C   0  0  1  0  0  0  0  0  0  0  0  0
    7.5690  -15.1099   25.7595 C   0  0  0  0  0  0  0  0  0  0  0  0
    7.2496  -13.7416   26.2021 C   0  0  0  0  0  0  0  0  0  0  0  0
    5.9617  -13.3980   26.5579 C   0  0  0  0  0  0  0  0  0  0  0  0
    5.6944  -12.1180   26.9663 C   0  0  0  0  0  0  0  0  0  0  0  0
    6.7211  -11.2063   27.0107 C   0  0  0  0  0  0  0  0  0  0  0  0
    8.0169  -11.5226   26.6608 C   0  0  0  0  0  0  0  0  0  0  0  0
    8.2841  -12.8166   26.2488 C   0  0  0  0  0  0  0  0  0  0  0  0
    9.5879  -16.5515   25.7761 C   0  0  0  0  0  0  0  0  0  0  0  0
   10.2452  -17.3611   24.8772 O   0  0  0  0  0  0  0  0  0  0  0  0
    9.4586  -17.0129   26.9520 O   0  0  0  0  0  0  0  0  0  0  0  0
  2  1  1  6
  3  2  1  0
  4  3  1  0
  5  6  2  0
  5  4  1  0
  7  2  1  0
  7  8  2  0
  9  5  1  0
 11 13  1  0
 11 10  1  1
 12 11  1  0
 13 14  1  6
 14  7  1  0
 15 13  1  0
 16 15  2  0
 17 15  1  0
 18 17  1  0
 18 19  1  6
 20 21  2  0
 20 19  1  0
 22 21  1  0
 23 22  2  0
 24 23  1  0
 24 25  2  0
 25 20  1  0
 26 18  1  0
 27 26  1  0
 28 26  2  0
M  END
$$$$
