ETF.pdb
     RDKit          3D

 28 28  0  0  1  0  0  0  0  0999 V2000
   10.8521  -18.2350   17.3246 N   0  0  0  0  0  0  0  0  0  0  0  0
   11.0008  -18.2491   18.7635 C   0  0  1  0  0  0  0  0  0  0  0  0
   12.4438  -17.8102   19.0369 C   0  0  0  0  0  0  0  0  0  0  0  0
   13.1845  -18.9196   19.7656 C   0  0  0  0  0  0  0  0  0  0  0  0
   14.6121  -18.5714   19.9506 C   0  0  0  0  0  0  0  0  0  0  0  0
   15.4434  -18.5259   19.0131 O   0  0  0  0  0  0  0  0  0  0  0  0
   10.0386  -17.3404   19.4025 C   0  0  0  0  0  0  0  0  0  0  0  0
    9.4528  -16.4760   18.6821 O   0  0  0  0  0  0  0  0  0  0  0  0
   15.0589  -18.2792   21.2283 O   0  0  0  0  0  0  0  0  0  0  0  0
    7.3296  -17.0369   19.3163 C   0  0  0  0  0  0  0  0  0  0  0  0
    7.3882  -17.1094   20.8232 C   0  0  1  0  0  0  0  0  0  0  0  0
    7.2110  -18.4627   21.1522 O   0  0  0  0  0  0  0  0  0  0  0  0
    8.7153  -16.6002   21.3568 C   0  0  2  0  0  0  0  0  0  0  0  0
    9.7933  -17.4537   20.7936 N   0  0  0  0  0  0  0  0  0  0  0  0
    8.7369  -16.8289   22.8192 C   0  0  0  0  0  0  0  0  0  0  0  0
    9.8736  -16.9235   23.4057 O   0  0  0  0  0  0  0  0  0  0  0  0
    7.6204  -16.9552   23.6585 N   0  0  0  0  0  0  0  0  0  0  0  0
    7.4593  -16.0856   24.8345 C   0  0  1  0  0  0  0  0  0  0  0  0
    7.4086  -14.6487   24.3785 C   0  0  0  0  0  0  0  0  0  0  0  0
    7.3339  -13.7514   25.5445 C   0  0  0  0  0  0  0  0  0  0  0  0
    8.4556  -13.4842   26.3018 C   0  0  0  0  0  0  0  0  0  0  0  0
    8.3562  -12.6452   27.3802 C   0  0  0  0  0  0  0  0  0  0  0  0
    7.1360  -12.0898   27.6801 C   0  0  0  0  0  0  0  0  0  0  0  0
    5.9993  -12.3396   26.9404 C   0  0  0  0  0  0  0  0  0  0  0  0
    6.1027  -13.1875   25.8514 C   0  0  0  0  0  0  0  0  0  0  0  0
    6.2798  -16.4798   25.6144 C   0  0  0  0  0  0  0  0  0  0  0  0
    6.2839  -16.7214   26.9699 O   0  0  0  0  0  0  0  0  0  0  0  0
    5.1629  -16.6180   25.0262 O   0  0  0  0  0  0  0  0  0  0  0  0
  2  1  1  6
  3  2  1  0
  4  3  1  0
  5  6  2  0
  5  4  1  0
  7  2  1  0
  7  8  2  0
  9  5  1  0
 11 13  1  0
 11 10  1  6
 12 11  1  0
 13 14  1  6
 14  7  1  0
 15 13  1  0
 16 15  2  0
 17 15  1  0
 18 17  1  0
 18 19  1  6
 20 21  2  0
 20 19  1  0
 22 21  1  0
 23 22  2  0
 24 23  1  0
 24 25  2  0
 25 20  1  0
 26 18  1  0
 27 26  1  0
 28 26  2  0
M  END
$$$$
