ETF.pdb
     RDKit          3D

 28 28  0  0  1  0  0  0  0  0999 V2000
   10.5826  -17.7447   17.4423 N   0  0  0  0  0  0  0  0  0  0  0  0
    9.5041  -17.8391   18.4017 C   0  0  1  0  0  0  0  0  0  0  0  0
    9.7044  -19.1769   19.1226 C   0  0  0  0  0  0  0  0  0  0  0  0
   11.1836  -19.3895   19.4005 C   0  0  0  0  0  0  0  0  0  0  0  0
   11.4147  -20.6855   20.0792 C   0  0  0  0  0  0  0  0  0  0  0  0
   11.8314  -21.7124   19.4927 O   0  0  0  0  0  0  0  0  0  0  0  0
    9.5395  -16.7149   19.3478 C   0  0  0  0  0  0  0  0  0  0  0  0
   10.4201  -15.8161   19.1866 O   0  0  0  0  0  0  0  0  0  0  0  0
   11.1576  -20.7733   21.4370 O   0  0  0  0  0  0  0  0  0  0  0  0
    7.8394  -13.9126   19.3821 C   0  0  0  0  0  0  0  0  0  0  0  0
    7.4722  -14.5335   20.7084 C   0  0  1  0  0  0  0  0  0  0  0  0
    6.3032  -15.2758   20.4771 O   0  0  0  0  0  0  0  0  0  0  0  0
    8.5792  -15.4313   21.2316 C   0  0  2  0  0  0  0  0  0  0  0  0
    8.5969  -16.6658   20.4049 N   0  0  0  0  0  0  0  0  0  0  0  0
    8.2093  -15.8620   22.5988 C   0  0  0  0  0  0  0  0  0  0  0  0
    7.0681  -16.4201   22.7753 O   0  0  0  0  0  0  0  0  0  0  0  0
    8.9916  -15.7253   23.7547 N   0  0  0  0  0  0  0  0  0  0  0  0
    8.4419  -15.0981   24.9669 C   0  0  1  0  0  0  0  0  0  0  0  0
    8.1452  -13.6479   24.6772 C   0  0  0  0  0  0  0  0  0  0  0  0
    7.6608  -12.9781   25.8967 C   0  0  0  0  0  0  0  0  0  0  0  0
    8.5134  -12.7347   26.9535 C   0  0  0  0  0  0  0  0  0  0  0  0
    8.0351  -12.1095   28.0747 C   0  0  0  0  0  0  0  0  0  0  0  0
    6.7126  -11.7400   28.1167 C   0  0  0  0  0  0  0  0  0  0  0  0
    5.8389  -11.9710   27.0752 C   0  0  0  0  0  0  0  0  0  0  0  0
    6.3249  -12.6027   25.9437 C   0  0  0  0  0  0  0  0  0  0  0  0
    7.2678  -15.8368   25.4474 C   0  0  0  0  0  0  0  0  0  0  0  0
    6.1475  -16.1009   24.6920 O   0  0  0  0  0  0  0  0  0  0  0  0
    7.2532  -16.2743   26.6393 O   0  0  0  0  0  0  0  0  0  0  0  0
  2  1  1  6
  3  2  1  0
  4  3  1  0
  5  6  2  0
  5  4  1  0
  7  2  1  0
  7  8  2  0
  9  5  1  0
 11 13  1  0
 11 10  1  6
 12 11  1  0
 13 14  1  6
 14  7  1  0
 15 13  1  0
 16 15  2  0
 17 15  1  0
 18 17  1  0
 18 19  1  6
 20 21  2  0
 20 19  1  0
 22 21  1  0
 23 22  2  0
 24 23  1  0
 24 25  2  0
 25 20  1  0
 26 18  1  0
 27 26  1  0
 28 26  2  0
M  END
$$$$
