ETF.pdb
     RDKit          3D

 28 28  0  0  1  0  0  0  0  0999 V2000
   10.8615  -14.3651   17.7084 N   0  0  0  0  0  0  0  0  0  0  0  0
   11.1794  -14.8430   19.0363 C   0  0  1  0  0  0  0  0  0  0  0  0
   12.5851  -14.3145   19.3431 C   0  0  0  0  0  0  0  0  0  0  0  0
   13.6231  -15.2977   18.8269 C   0  0  0  0  0  0  0  0  0  0  0  0
   14.9954  -14.7980   19.0731 C   0  0  0  0  0  0  0  0  0  0  0  0
   15.7024  -14.2481   18.1957 O   0  0  0  0  0  0  0  0  0  0  0  0
   10.2020  -14.3565   20.0203 C   0  0  0  0  0  0  0  0  0  0  0  0
    9.9302  -13.1176   20.0412 O   0  0  0  0  0  0  0  0  0  0  0  0
   15.5322  -14.9438   20.3412 O   0  0  0  0  0  0  0  0  0  0  0  0
    6.7562  -14.4695   20.1631 C   0  0  0  0  0  0  0  0  0  0  0  0
    7.2159  -15.2037   21.3996 C   0  0  1  0  0  0  0  0  0  0  0  0
    7.2545  -16.5629   21.0501 O   0  0  0  0  0  0  0  0  0  0  0  0
    8.5853  -14.7310   21.8544 C   0  0  2  0  0  0  0  0  0  0  0  0
    9.5950  -15.2767   20.9108 N   0  0  0  0  0  0  0  0  0  0  0  0
    8.8720  -15.3574   23.1647 C   0  0  0  0  0  0  0  0  0  0  0  0
    9.7051  -16.3317   23.2064 O   0  0  0  0  0  0  0  0  0  0  0  0
    8.3195  -14.9917   24.4008 N   0  0  0  0  0  0  0  0  0  0  0  0
    8.6938  -15.7025   25.6335 C   0  0  1  0  0  0  0  0  0  0  0  0
    8.9866  -14.6908   26.7133 C   0  0  0  0  0  0  0  0  0  0  0  0
    8.0585  -13.5521   26.6033 C   0  0  0  0  0  0  0  0  0  0  0  0
    8.5223  -12.2924   26.2852 C   0  0  0  0  0  0  0  0  0  0  0  0
    7.6357  -11.2524   26.1893 C   0  0  0  0  0  0  0  0  0  0  0  0
    6.3019  -11.4931   26.4137 C   0  0  0  0  0  0  0  0  0  0  0  0
    5.8114  -12.7418   26.7330 C   0  0  0  0  0  0  0  0  0  0  0  0
    6.7093  -13.7906   26.8291 C   0  0  0  0  0  0  0  0  0  0  0  0
    7.6511  -16.6621   26.0169 C   0  0  0  0  0  0  0  0  0  0  0  0
    7.7844  -17.6059   27.0104 O   0  0  0  0  0  0  0  0  0  0  0  0
    6.5375  -16.6474   25.4069 O   0  0  0  0  0  0  0  0  0  0  0  0
  2  1  1  6
  3  2  1  0
  4  3  1  0
  5  6  2  0
  5  4  1  0
  7  2  1  0
  7  8  2  0
  9  5  1  0
 11 13  1  0
 11 10  1  6
 12 11  1  0
 13 14  1  6
 14  7  1  0
 15 13  1  0
 16 15  2  0
 17 15  1  0
 18 17  1  0
 18 19  1  1
 20 21  2  0
 20 19  1  0
 22 21  1  0
 23 22  2  0
 24 23  1  0
 24 25  2  0
 25 20  1  0
 26 18  1  0
 27 26  1  0
 28 26  2  0
M  END
$$$$
