RAS.pdb
     RDKit          3D

 23 22  0  0  1  0  0  0  0  0999 V2000
    9.5843  -13.2426   19.9022 N   0  0  0  0  0  0  0  0  0  0  0  0
    8.1992  -13.0330   19.6615 C   0  0  0  0  0  0  0  0  0  0  0  0
    7.8057  -12.3359   18.6639 N   0  0  0  0  0  0  0  0  0  0  0  0
    7.2728  -13.6227   20.5642 N   0  0  0  0  0  0  0  0  0  0  0  0
    7.7363  -14.7722   21.3329 C   0  0  0  0  0  0  0  0  0  0  0  0
    7.9658  -15.9159   20.4078 C   0  0  0  0  0  0  0  0  0  0  0  0
    9.2260  -16.6293   20.7341 C   0  0  0  0  0  0  0  0  0  0  0  0
    9.4233  -17.8762   19.9033 C   0  0  2  0  0  0  0  0  0  0  0  0
    8.1773  -18.6124   19.9739 N   0  0  0  0  0  0  0  0  0  0  0  0
   10.4758  -18.7384   20.5243 C   0  0  0  0  0  0  0  0  0  0  0  0
   10.1965  -19.4118   21.5404 O   0  0  0  0  0  0  0  0  0  0  0  0
    6.8123  -12.0518   18.5773 C   0  0  0  0  0  0  0  0  0  0  0  0
   13.9365  -19.9007   19.5217 C   0  0  1  0  0  0  0  0  0  0  0  0
   12.8198  -19.6830   20.5156 N   0  0  0  0  0  0  0  0  0  0  0  0
   11.7805  -18.8238   20.0070 C   0  0  0  0  0  0  0  0  0  0  0  0
   13.3260  -19.1277   21.7979 O   0  0  0  0  0  0  0  0  0  0  0  0
   13.3022  -17.8681   22.0118 O   0  0  0  0  0  0  0  0  0  0  0  0
   14.7649  -20.1604   26.3486 C   0  0  0  0  0  0  0  0  0  0  0  0
   14.3824  -20.5618   25.0728 C   0  0  2  0  0  0  0  0  0  0  0  0
   14.2589  -19.3688   24.1260 N   0  0  0  0  0  0  0  0  0  0  0  0
   13.8508  -19.9370   22.8318 C   0  0  0  0  0  0  0  0  0  0  0  0
   15.6193  -18.8130   23.9554 O   0  0  0  0  0  0  0  0  0  0  0  0
   16.1397  -17.8738   24.8362 O   0  0  0  0  0  0  0  0  0  0  0  0
  2  1  1  0
  2  4  1  0
  3  2  2  0
  5  4  1  0
  6  5  1  0
  7  8  1  0
  7  6  1  0
  8 10  1  0
  8  9  1  1
 10 14  1  0
 10 11  2  0
 13 12  1  6
 13 15  1  0
 14 13  1  0
 15 16  2  0
 17 18  1  0
 19 18  1  1
 19 21  1  0
 20 15  1  0
 20 19  1  0
 21 22  1  0
 23 21  2  0
M  END
$$$$
