RAS.pdb
     RDKit          3D

 23 22  0  0  1  0  0  0  0  0999 V2000
    6.9925  -15.1790   16.3605 N   0  0  0  0  0  0  0  0  0  0  0  0
    7.5559  -13.9067   16.6511 C   0  0  0  0  0  0  0  0  0  0  0  0
    8.5018  -13.4297   15.9345 N   0  0  0  0  0  0  0  0  0  0  0  0
    7.0329  -13.1880   17.7606 N   0  0  0  0  0  0  0  0  0  0  0  0
    7.6434  -13.4400   19.0609 C   0  0  0  0  0  0  0  0  0  0  0  0
    6.9507  -14.5871   19.7098 C   0  0  0  0  0  0  0  0  0  0  0  0
    7.6324  -14.9883   20.9659 C   0  0  0  0  0  0  0  0  0  0  0  0
    8.3989  -13.8523   21.6031 C   0  0  2  0  0  0  0  0  0  0  0  0
    9.7098  -13.8505   20.9858 N   0  0  0  0  0  0  0  0  0  0  0  0
    8.6018  -14.1306   23.0584 C   0  0  0  0  0  0  0  0  0  0  0  0
    9.4312  -14.9992   23.4073 O   0  0  0  0  0  0  0  0  0  0  0  0
    8.8632  -12.4732   16.1059 C   0  0  0  0  0  0  0  0  0  0  0  0
    7.0424  -12.8890   26.3000 C   0  0  2  0  0  0  0  0  0  0  0  0
    8.0574  -13.6491   25.4789 N   0  0  0  0  0  0  0  0  0  0  0  0
    7.8908  -13.4485   24.0615 C   0  0  0  0  0  0  0  0  0  0  0  0
    8.0210  -15.1058   25.7716 O   0  0  0  0  0  0  0  0  0  0  0  0
    6.9824  -15.7961   25.4929 O   0  0  0  0  0  0  0  0  0  0  0  0
   11.1926  -17.3791   25.8109 C   0  0  0  0  0  0  0  0  0  0  0  0
    9.9381  -17.9781   25.8620 C   0  0  1  0  0  0  0  0  0  0  0  0
    8.9874  -17.2052   26.7751 N   0  0  0  0  0  0  0  0  0  0  0  0
    9.1039  -15.7985   26.3605 C   0  0  0  0  0  0  0  0  0  0  0  0
    9.5308  -17.3082   28.1472 O   0  0  0  0  0  0  0  0  0  0  0  0
    9.5831  -18.5206   28.8224 O   0  0  0  0  0  0  0  0  0  0  0  0
  2  1  1  0
  2  4  1  0
  3  2  2  0
  5  4  1  0
  6  5  1  0
  7  8  1  0
  7  6  1  0
  8 10  1  0
  8  9  1  6
 10 14  1  0
 10 11  2  0
 13 12  1  1
 13 15  1  0
 14 13  1  0
 15 16  2  0
 17 18  1  0
 19 18  1  6
 19 21  1  0
 20 15  1  0
 20 19  1  0
 21 22  1  0
 23 21  2  0
M  END
$$$$
