RAS.pdb
     RDKit          3D

 23 22  0  0  1  0  0  0  0  0999 V2000
    8.0318  -16.0244   15.7744 N   0  0  0  0  0  0  0  0  0  0  0  0
    7.9395  -14.6623   15.3788 C   0  0  0  0  0  0  0  0  0  0  0  0
    7.8562  -14.3430   14.1430 N   0  0  0  0  0  0  0  0  0  0  0  0
    7.9430  -13.6735   16.4002 N   0  0  0  0  0  0  0  0  0  0  0  0
    7.8788  -14.1447   17.7790 C   0  0  0  0  0  0  0  0  0  0  0  0
    7.9634  -12.9759   18.6973 C   0  0  0  0  0  0  0  0  0  0  0  0
    7.7627  -13.3843   20.1103 C   0  0  0  0  0  0  0  0  0  0  0  0
    9.0648  -13.5798   20.8523 C   0  0  2  0  0  0  0  0  0  0  0  0
   10.0636  -13.8815   19.8468 N   0  0  0  0  0  0  0  0  0  0  0  0
    8.9662  -14.7771   21.7430 C   0  0  0  0  0  0  0  0  0  0  0  0
    8.0286  -14.8534   22.5671 O   0  0  0  0  0  0  0  0  0  0  0  0
    7.7742  -13.3494   13.8587 C   0  0  0  0  0  0  0  0  0  0  0  0
   10.4164  -18.2306   21.8258 C   0  0  2  0  0  0  0  0  0  0  0  0
    9.8574  -17.0107   22.5199 N   0  0  0  0  0  0  0  0  0  0  0  0
    9.8944  -15.8321   21.6915 C   0  0  0  0  0  0  0  0  0  0  0  0
   10.5669  -16.7312   23.7956 O   0  0  0  0  0  0  0  0  0  0  0  0
   11.5717  -15.9420   23.8178 O   0  0  0  0  0  0  0  0  0  0  0  0
   10.7510  -15.8811   28.3307 C   0  0  0  0  0  0  0  0  0  0  0  0
   10.1503  -16.1162   27.0983 C   0  0  1  0  0  0  0  0  0  0  0  0
   10.9681  -17.0946   26.2564 N   0  0  0  0  0  0  0  0  0  0  0  0
   10.1840  -17.3056   25.0296 C   0  0  0  0  0  0  0  0  0  0  0  0
   10.9924  -18.3781   26.9916 O   0  0  0  0  0  0  0  0  0  0  0  0
   11.8498  -18.5892   28.0635 O   0  0  0  0  0  0  0  0  0  0  0  0
  2  1  1  0
  2  4  1  0
  3  2  2  0
  5  4  1  0
  6  5  1  0
  7  8  1  0
  7  6  1  0
  8 10  1  0
  8  9  1  6
 10 14  1  0
 10 11  2  0
 13 12  1  6
 13 15  1  0
 14 13  1  0
 15 16  2  0
 17 18  1  0
 19 18  1  6
 19 21  1  0
 20 15  1  0
 20 19  1  0
 21 22  1  0
 23 21  2  0
M  END
$$$$
