RAS.pdb
     RDKit          3D

 23 22  0  0  1  0  0  0  0  0999 V2000
    7.7604  -12.7322   16.8742 N   0  0  0  0  0  0  0  0  0  0  0  0
    8.2694  -14.0571   16.7969 C   0  0  0  0  0  0  0  0  0  0  0  0
    9.4852  -14.2737   16.4641 N   0  0  0  0  0  0  0  0  0  0  0  0
    7.3833  -15.1264   17.1010 N   0  0  0  0  0  0  0  0  0  0  0  0
    7.1777  -15.4361   18.5113 C   0  0  0  0  0  0  0  0  0  0  0  0
    7.8820  -14.4198   19.3405 C   0  0  0  0  0  0  0  0  0  0  0  0
    7.5830  -14.5996   20.7834 C   0  0  0  0  0  0  0  0  0  0  0  0
    7.9030  -15.9917   21.2771 C   0  0  2  0  0  0  0  0  0  0  0  0
    7.1016  -16.8990   20.4807 N   0  0  0  0  0  0  0  0  0  0  0  0
    7.4540  -16.1426   22.6956 C   0  0  0  0  0  0  0  0  0  0  0  0
    6.2401  -16.3191   22.9396 O   0  0  0  0  0  0  0  0  0  0  0  0
    9.8589  -15.2401   16.4292 C   0  0  0  0  0  0  0  0  0  0  0  0
    7.5458  -17.7125   25.4443 C   0  0  2  0  0  0  0  0  0  0  0  0
    7.9941  -16.2982   25.1595 N   0  0  0  0  0  0  0  0  0  0  0  0
    8.3501  -16.0938   23.7781 C   0  0  0  0  0  0  0  0  0  0  0  0
    9.1383  -15.9007   26.0207 O   0  0  0  0  0  0  0  0  0  0  0  0
   10.3312  -16.2340   25.7064 O   0  0  0  0  0  0  0  0  0  0  0  0
    9.2924  -12.4677   27.8570 C   0  0  0  0  0  0  0  0  0  0  0  0
    9.6799  -13.4642   28.7468 C   0  0  2  0  0  0  0  0  0  0  0  0
   10.1383  -14.7223   28.0107 N   0  0  0  0  0  0  0  0  0  0  0  0
    8.9815  -15.1496   27.2084 C   0  0  0  0  0  0  0  0  0  0  0  0
   10.3712  -15.7606   29.0384 O   0  0  0  0  0  0  0  0  0  0  0  0
   11.4063  -15.6576   29.9586 O   0  0  0  0  0  0  0  0  0  0  0  0
  2  1  1  0
  2  4  1  0
  3  2  2  0
  5  4  1  0
  6  5  1  0
  7  8  1  0
  7  6  1  0
  8 10  1  0
  8  9  1  6
 10 14  1  0
 10 11  2  0
 13 12  1  6
 13 15  1  0
 14 13  1  0
 15 16  2  0
 17 18  1  0
 19 18  1  6
 19 21  1  0
 20 15  1  0
 20 19  1  0
 21 22  1  0
 23 21  2  0
M  END
$$$$
