RAS.pdb
     RDKit          3D

 23 22  0  0  1  0  0  0  0  0999 V2000
    8.6259  -12.0119   20.4304 N   0  0  0  0  0  0  0  0  0  0  0  0
    7.9995  -12.6289   19.3136 C   0  0  0  0  0  0  0  0  0  0  0  0
    8.2142  -12.2063   18.1256 N   0  0  0  0  0  0  0  0  0  0  0  0
    7.1309  -13.7263   19.5633 N   0  0  0  0  0  0  0  0  0  0  0  0
    7.1525  -14.2966   20.9054 C   0  0  0  0  0  0  0  0  0  0  0  0
    8.3149  -15.2194   21.0235 C   0  0  0  0  0  0  0  0  0  0  0  0
    8.0196  -16.5399   20.4130 C   0  0  0  0  0  0  0  0  0  0  0  0
    8.9715  -16.8917   19.2931 C   0  0  2  0  0  0  0  0  0  0  0  0
    8.6313  -18.2380   18.8792 N   0  0  0  0  0  0  0  0  0  0  0  0
   10.3728  -16.9357   19.8135 C   0  0  0  0  0  0  0  0  0  0  0  0
   10.6897  -17.8099   20.6498 O   0  0  0  0  0  0  0  0  0  0  0  0
    7.7494  -12.6535   17.3140 C   0  0  0  0  0  0  0  0  0  0  0  0
   13.5520  -14.9296   19.2040 C   0  0  1  0  0  0  0  0  0  0  0  0
   12.7320  -16.0298   19.8361 N   0  0  0  0  0  0  0  0  0  0  0  0
   11.3595  -16.0248   19.3965 C   0  0  0  0  0  0  0  0  0  0  0  0
   12.7678  -15.9582   21.3202 O   0  0  0  0  0  0  0  0  0  0  0  0
   12.0885  -15.0722   21.9418 O   0  0  0  0  0  0  0  0  0  0  0  0
   13.9414  -19.0465   23.4635 C   0  0  0  0  0  0  0  0  0  0  0  0
   13.3634  -18.0093   24.1882 C   0  0  1  0  0  0  0  0  0  0  0  0
   13.6783  -16.6500   23.5653 N   0  0  0  0  0  0  0  0  0  0  0  0
   13.5348  -16.8420   22.1138 C   0  0  0  0  0  0  0  0  0  0  0  0
   15.1064  -16.3740   23.8356 O   0  0  0  0  0  0  0  0  0  0  0  0
   15.5727  -16.1335   25.1214 O   0  0  0  0  0  0  0  0  0  0  0  0
  2  1  1  0
  2  4  1  0
  3  2  2  0
  5  4  1  0
  6  5  1  0
  7  8  1  0
  7  6  1  0
  8 10  1  0
  8  9  1  1
 10 14  1  0
 10 11  2  0
 13 12  1  6
 13 15  1  0
 14 13  1  0
 15 16  2  0
 17 18  1  0
 19 18  1  1
 19 21  1  0
 20 15  1  0
 20 19  1  0
 21 22  1  0
 23 21  2  0
M  END
$$$$
