RAS.pdb
     RDKit          3D

 23 22  0  0  1  0  0  0  0  0999 V2000
    9.5140  -11.5781   20.3249 N   0  0  0  0  0  0  0  0  0  0  0  0
    8.7359  -12.4555   19.5216 C   0  0  0  0  0  0  0  0  0  0  0  0
    9.0305  -12.6534   18.2928 N   0  0  0  0  0  0  0  0  0  0  0  0
    7.6249  -13.1012   20.1299 N   0  0  0  0  0  0  0  0  0  0  0  0
    6.8254  -13.9809   19.2849 C   0  0  0  0  0  0  0  0  0  0  0  0
    7.5876  -15.2337   19.0278 C   0  0  0  0  0  0  0  0  0  0  0  0
    7.7825  -16.0125   20.2765 C   0  0  0  0  0  0  0  0  0  0  0  0
    8.4594  -17.3422   20.0359 C   0  0  2  0  0  0  0  0  0  0  0  0
    7.4816  -18.1813   19.3730 N   0  0  0  0  0  0  0  0  0  0  0  0
    8.7782  -17.9931   21.3441 C   0  0  0  0  0  0  0  0  0  0  0  0
    7.8638  -18.5468   21.9930 O   0  0  0  0  0  0  0  0  0  0  0  0
    8.5164  -13.3590   17.7336 C   0  0  0  0  0  0  0  0  0  0  0  0
   11.9466  -18.8077   23.2632 C   0  0  1  0  0  0  0  0  0  0  0  0
   10.4533  -18.6226   23.1286 N   0  0  0  0  0  0  0  0  0  0  0  0
   10.0781  -18.0082   21.8802 C   0  0  0  0  0  0  0  0  0  0  0  0
    9.8954  -17.8240   24.2510 O   0  0  0  0  0  0  0  0  0  0  0  0
   10.0960  -16.5634   24.3106 O   0  0  0  0  0  0  0  0  0  0  0  0
    7.1361  -19.4413   26.6812 C   0  0  0  0  0  0  0  0  0  0  0  0
    7.2411  -18.0546   26.7131 C   0  0  1  0  0  0  0  0  0  0  0  0
    8.6738  -17.5971   26.4430 N   0  0  0  0  0  0  0  0  0  0  0  0
    9.1291  -18.3944   25.2935 C   0  0  0  0  0  0  0  0  0  0  0  0
    9.4830  -18.0053   27.6123 O   0  0  0  0  0  0  0  0  0  0  0  0
    9.2905  -17.4403   28.8662 O   0  0  0  0  0  0  0  0  0  0  0  0
  2  1  1  0
  2  4  1  0
  3  2  2  0
  5  4  1  0
  6  5  1  0
  7  8  1  0
  7  6  1  0
  8 10  1  0
  8  9  1  6
 10 14  1  0
 10 11  2  0
 13 12  1  6
 13 15  1  0
 14 13  1  0
 15 16  2  0
 17 18  1  0
 19 18  1  6
 19 21  1  0
 20 15  1  0
 20 19  1  0
 21 22  1  0
 23 21  2  0
M  END
$$$$
