RAS.pdb
     RDKit          3D

 23 22  0  0  1  0  0  0  0  0999 V2000
    9.2557  -13.7780   16.6828 N   0  0  0  0  0  0  0  0  0  0  0  0
    7.9484  -13.2956   16.4020 C   0  0  0  0  0  0  0  0  0  0  0  0
    7.5680  -13.0968   15.1972 N   0  0  0  0  0  0  0  0  0  0  0  0
    7.0842  -13.0438   17.5024 N   0  0  0  0  0  0  0  0  0  0  0  0
    7.5203  -13.5198   18.8101 C   0  0  0  0  0  0  0  0  0  0  0  0
    8.0046  -14.9217   18.6812 C   0  0  0  0  0  0  0  0  0  0  0  0
    8.4060  -15.4770   19.9981 C   0  0  0  0  0  0  0  0  0  0  0  0
    8.7736  -16.9413   19.9270 C   0  0  2  0  0  0  0  0  0  0  0  0
    7.5450  -17.6548   19.6426 N   0  0  0  0  0  0  0  0  0  0  0  0
    9.2513  -17.4099   21.2645 C   0  0  0  0  0  0  0  0  0  0  0  0
    8.4233  -17.5846   22.1852 O   0  0  0  0  0  0  0  0  0  0  0  0
    6.6434  -12.6720   14.9987 C   0  0  0  0  0  0  0  0  0  0  0  0
   12.5512  -18.7017   22.6243 C   0  0  1  0  0  0  0  0  0  0  0  0
   11.1195  -18.2367   22.7522 N   0  0  0  0  0  0  0  0  0  0  0  0
   10.6080  -17.6649   21.5322 C   0  0  0  0  0  0  0  0  0  0  0  0
   10.9575  -17.2540   23.8554 O   0  0  0  0  0  0  0  0  0  0  0  0
   11.3074  -16.0357   23.6933 O   0  0  0  0  0  0  0  0  0  0  0  0
    8.0578  -16.0200   25.5866 C   0  0  0  0  0  0  0  0  0  0  0  0
    8.8347  -16.5908   26.5893 C   0  0  2  0  0  0  0  0  0  0  0  0
   10.3135  -16.6126   26.2054 N   0  0  0  0  0  0  0  0  0  0  0  0
   10.4209  -17.5974   25.1177 C   0  0  0  0  0  0  0  0  0  0  0  0
   11.0512  -17.1552   27.3673 O   0  0  0  0  0  0  0  0  0  0  0  0
   11.1589  -16.4488   28.5581 O   0  0  0  0  0  0  0  0  0  0  0  0
  2  1  1  0
  2  4  1  0
  3  2  2  0
  5  4  1  0
  6  5  1  0
  7  8  1  0
  7  6  1  0
  8 10  1  0
  8  9  1  1
 10 14  1  0
 10 11  2  0
 13 12  1  6
 13 15  1  0
 14 13  1  0
 15 16  2  0
 17 18  1  0
 19 18  1  6
 19 21  1  0
 20 15  1  0
 20 19  1  0
 21 22  1  0
 23 21  2  0
M  END
$$$$
