RAS.pdb
     RDKit          3D

 23 22  0  0  1  0  0  0  0  0999 V2000
    7.4060  -14.4700   14.9523 N   0  0  0  0  0  0  0  0  0  0  0  0
    7.8439  -13.9714   16.2093 C   0  0  0  0  0  0  0  0  0  0  0  0
    8.9458  -13.3303   16.3121 N   0  0  0  0  0  0  0  0  0  0  0  0
    7.0176  -14.2097   17.3413 N   0  0  0  0  0  0  0  0  0  0  0  0
    7.2756  -13.4067   18.5311 C   0  0  0  0  0  0  0  0  0  0  0  0
    8.5295  -13.8830   19.1773 C   0  0  0  0  0  0  0  0  0  0  0  0
    8.2440  -14.6022   20.4441 C   0  0  0  0  0  0  0  0  0  0  0  0
    9.4982  -15.0706   21.1453 C   0  0  2  0  0  0  0  0  0  0  0  0
    9.8380  -16.3506   20.5573 N   0  0  0  0  0  0  0  0  0  0  0  0
    9.2087  -15.3174   22.5916 C   0  0  0  0  0  0  0  0  0  0  0  0
    8.7178  -14.3994   23.2846 O   0  0  0  0  0  0  0  0  0  0  0  0
    9.2626  -12.9687   17.2307 C   0  0  0  0  0  0  0  0  0  0  0  0
    9.5357  -18.2860   24.9531 C   0  0  2  0  0  0  0  0  0  0  0  0
    9.2461  -16.8449   24.6047 N   0  0  0  0  0  0  0  0  0  0  0  0
    9.4686  -16.5527   23.2111 C   0  0  0  0  0  0  0  0  0  0  0  0
   10.0491  -15.9074   25.4326 O   0  0  0  0  0  0  0  0  0  0  0  0
   11.2333  -15.5832   25.0784 O   0  0  0  0  0  0  0  0  0  0  0  0
    8.1672  -13.6420   27.9823 C   0  0  0  0  0  0  0  0  0  0  0  0
    9.4756  -13.2288   27.7535 C   0  0  1  0  0  0  0  0  0  0  0  0
   10.3867  -14.4127   27.4326 N   0  0  0  0  0  0  0  0  0  0  0  0
    9.5653  -15.3324   26.6303 C   0  0  0  0  0  0  0  0  0  0  0  0
   10.6816  -15.0881   28.7154 O   0  0  0  0  0  0  0  0  0  0  0  0
   11.4149  -14.4650   29.7167 O   0  0  0  0  0  0  0  0  0  0  0  0
  2  1  1  0
  2  4  1  0
  3  2  2  0
  5  4  1  0
  6  5  1  0
  7  8  1  0
  7  6  1  0
  8 10  1  0
  8  9  1  6
 10 14  1  0
 10 11  2  0
 13 12  1  6
 13 15  1  0
 14 13  1  0
 15 16  2  0
 17 18  1  0
 19 18  1  6
 19 21  1  0
 20 15  1  0
 20 19  1  0
 21 22  1  0
 23 21  2  0
M  END
$$$$
