QKD.pdb
     RDKit          3D

 27 26  0  0  1  0  0  0  0  0999 V2000
    9.5149  -14.2497   15.7006 N   0  0  0  0  0  0  0  0  0  0  0  0
    8.1225  -14.0666   15.9650 C   0  0  0  0  0  0  0  0  0  0  0  0
    7.3500  -14.0309   14.9834 O   0  0  0  0  0  0  0  0  0  0  0  0
    7.6053  -13.9224   17.3384 C   0  0  0  0  0  0  0  0  0  0  0  0
    8.7206  -14.2169   18.3106 C   0  0  0  0  0  0  0  0  0  0  0  0
    8.3604  -15.3302   19.2541 C   0  0  2  0  0  0  0  0  0  0  0  0
    6.9362  -15.5712   19.3091 N   0  0  0  0  0  0  0  0  0  0  0  0
    8.9012  -14.9568   20.6111 C   0  0  0  0  0  0  0  0  0  0  0  0
   10.1099  -14.6741   20.7045 O   0  0  0  0  0  0  0  0  0  0  0  0
    7.9740  -14.9602   21.6728 N   0  0  0  0  0  0  0  0  0  0  0  0
    8.4237  -14.4928   23.0044 C   0  0  1  0  0  0  0  0  0  0  0  0
    7.2336  -13.8977   23.6489 C   0  0  0  0  0  0  0  0  0  0  0  0
    7.3961  -13.3061   25.0069 C   0  0  0  0  0  0  0  0  0  0  0  0
    6.1122  -12.7171   25.5470 C   0  0  0  0  0  0  0  0  0  0  0  0
    6.2700  -12.1351   26.9268 C   0  0  0  0  0  0  0  0  0  0  0  0
    5.1181  -11.4585   27.4327 N   0  0  0  0  0  0  0  0  0  0  0  0
    9.0518  -15.6443   23.6785 C   0  0  0  0  0  0  0  0  0  0  0  0
    8.5376  -16.8108   23.5617 O   0  0  0  0  0  0  0  0  0  0  0  0
   10.2247  -15.5260   24.4636 N   0  0  0  0  0  0  0  0  0  0  0  0
   10.9114  -16.7284   24.8801 C   0  0  1  0  0  0  0  0  0  0  0  0
   12.3900  -16.6867   24.5828 C   0  0  0  0  0  0  0  0  0  0  0  0
   13.0064  -17.9545   25.0531 C   0  0  0  0  0  0  0  0  0  0  0  0
   13.0937  -18.9559   24.2569 O   0  0  0  0  0  0  0  0  0  0  0  0
   10.6204  -17.1394   26.2631 C   0  0  0  0  0  0  0  0  0  0  0  0
   10.0552  -16.2087   27.1222 O   0  0  0  0  0  0  0  0  0  0  0  0
   13.5121  -18.1258   26.3385 O   0  0  0  0  0  0  0  0  0  0  0  0
   10.8831  -18.3034   26.6313 O   0  0  0  0  0  0  0  0  0  0  0  0
  2  1  1  0
  3  2  2  0
  4  2  1  0
  5  4  1  0
  6  5  1  0
  6  7  1  1
  8  6  1  0
  8 10  1  0
  9  8  2  0
 11 10  1  0
 11 12  1  1
 13 14  1  0
 13 12  1  0
 15 14  1  0
 16 15  1  0
 17 11  1  0
 18 17  2  0
 19 17  1  0
 20 24  1  0
 20 19  1  0
 21 22  1  0
 20 21  1  1
 22 26  1  0
 23 22  2  0
 24 25  1  0
 27 24  2  0
M  END
$$$$
