QKD.pdb
     RDKit          3D

 27 26  0  0  1  0  0  0  0  0999 V2000
    7.3287  -13.1832   16.7680 N   0  0  0  0  0  0  0  0  0  0  0  0
    7.9883  -14.4260   17.0187 C   0  0  0  0  0  0  0  0  0  0  0  0
    7.3591  -15.4741   16.7595 O   0  0  0  0  0  0  0  0  0  0  0  0
    9.3574  -14.4824   17.5635 C   0  0  0  0  0  0  0  0  0  0  0  0
    9.3149  -14.1041   19.0234 C   0  0  0  0  0  0  0  0  0  0  0  0
    9.0591  -15.2962   19.9025 C   0  0  2  0  0  0  0  0  0  0  0  0
    7.6827  -15.7350   19.8547 N   0  0  0  0  0  0  0  0  0  0  0  0
    9.4579  -14.9098   21.3043 C   0  0  0  0  0  0  0  0  0  0  0  0
   10.6262  -14.5261   21.4983 O   0  0  0  0  0  0  0  0  0  0  0  0
    8.4549  -15.0184   22.2887 N   0  0  0  0  0  0  0  0  0  0  0  0
    8.8051  -14.6981   23.6919 C   0  0  1  0  0  0  0  0  0  0  0  0
    7.6922  -13.8742   24.2099 C   0  0  0  0  0  0  0  0  0  0  0  0
    7.7574  -13.4235   25.6289 C   0  0  0  0  0  0  0  0  0  0  0  0
    6.6841  -12.4154   25.9734 C   0  0  0  0  0  0  0  0  0  0  0  0
    6.6068  -12.1237   27.4487 C   0  0  0  0  0  0  0  0  0  0  0  0
    5.5515  -11.2423   27.8360 N   0  0  0  0  0  0  0  0  0  0  0  0
    9.0727  -15.9775   24.3747 C   0  0  0  0  0  0  0  0  0  0  0  0
    8.1409  -16.8480   24.4876 O   0  0  0  0  0  0  0  0  0  0  0  0
   10.3378  -16.3042   24.9213 N   0  0  0  0  0  0  0  0  0  0  0  0
   10.5027  -17.5744   25.5921 C   0  0  1  0  0  0  0  0  0  0  0  0
   11.8807  -18.1586   25.4017 C   0  0  0  0  0  0  0  0  0  0  0  0
   12.1382  -18.3069   23.9456 C   0  0  0  0  0  0  0  0  0  0  0  0
   11.1615  -18.5226   23.1432 O   0  0  0  0  0  0  0  0  0  0  0  0
   10.0757  -17.5710   27.0007 C   0  0  0  0  0  0  0  0  0  0  0  0
    9.8694  -16.3493   27.6239 O   0  0  0  0  0  0  0  0  0  0  0  0
   13.4084  -18.2201   23.3830 O   0  0  0  0  0  0  0  0  0  0  0  0
    9.9083  -18.6541   27.5994 O   0  0  0  0  0  0  0  0  0  0  0  0
  2  1  1  0
  3  2  2  0
  4  2  1  0
  5  4  1  0
  6  5  1  0
  6  7  1  1
  8  6  1  0
  8 10  1  0
  9  8  2  0
 11 10  1  0
 11 12  1  1
 13 14  1  0
 13 12  1  0
 15 14  1  0
 16 15  1  0
 17 11  1  0
 18 17  2  0
 19 17  1  0
 20 24  1  0
 20 19  1  0
 21 22  1  0
 20 21  1  1
 22 26  1  0
 23 22  2  0
 24 25  1  0
 27 24  2  0
M  END
$$$$
