QKD.pdb
     RDKit          3D

 27 26  0  0  1  0  0  0  0  0999 V2000
    9.0633  -12.2706   18.2674 N   0  0  0  0  0  0  0  0  0  0  0  0
    8.0750  -13.2190   17.8598 C   0  0  0  0  0  0  0  0  0  0  0  0
    8.2393  -13.7839   16.7574 O   0  0  0  0  0  0  0  0  0  0  0  0
    6.9014  -13.5264   18.6981 C   0  0  0  0  0  0  0  0  0  0  0  0
    7.3770  -14.1289   19.9970 C   0  0  0  0  0  0  0  0  0  0  0  0
    8.2680  -15.3177   19.7686 C   0  0  2  0  0  0  0  0  0  0  0  0
    7.6492  -16.3218   18.9330 N   0  0  0  0  0  0  0  0  0  0  0  0
    8.6183  -15.8788   21.1235 C   0  0  0  0  0  0  0  0  0  0  0  0
    9.0245  -15.0918   21.9984 O   0  0  0  0  0  0  0  0  0  0  0  0
    8.4514  -17.2693   21.2831 N   0  0  0  0  0  0  0  0  0  0  0  0
    8.7590  -17.8706   22.6014 C   0  0  1  0  0  0  0  0  0  0  0  0
    8.1031  -19.1956   22.6060 C   0  0  0  0  0  0  0  0  0  0  0  0
    7.1889  -19.5195   23.7374 C   0  0  0  0  0  0  0  0  0  0  0  0
    6.5570  -20.8871   23.6070 C   0  0  0  0  0  0  0  0  0  0  0  0
    5.6858  -21.2439   24.7824 C   0  0  0  0  0  0  0  0  0  0  0  0
    5.0219  -22.5047   24.6819 N   0  0  0  0  0  0  0  0  0  0  0  0
   10.2250  -17.8423   22.7592 C   0  0  0  0  0  0  0  0  0  0  0  0
   10.9584  -18.6168   22.0515 O   0  0  0  0  0  0  0  0  0  0  0  0
   10.8808  -16.9795   23.6711 N   0  0  0  0  0  0  0  0  0  0  0  0
   12.2863  -17.1854   23.9411 C   0  0  1  0  0  0  0  0  0  0  0  0
   13.1280  -15.9826   23.5930 C   0  0  0  0  0  0  0  0  0  0  0  0
   13.2487  -15.8974   22.1143 C   0  0  0  0  0  0  0  0  0  0  0  0
   12.7326  -16.8115   21.3778 O   0  0  0  0  0  0  0  0  0  0  0  0
   12.5702  -17.7084   25.2873 C   0  0  0  0  0  0  0  0  0  0  0  0
   13.8644  -18.1138   25.5774 O   0  0  0  0  0  0  0  0  0  0  0  0
   13.9021  -14.8563   21.4611 O   0  0  0  0  0  0  0  0  0  0  0  0
   11.6527  -17.7749   26.1318 O   0  0  0  0  0  0  0  0  0  0  0  0
  2  1  1  0
  3  2  2  0
  4  2  1  0
  5  4  1  0
  6  5  1  0
  6  7  1  6
  8  6  1  0
  8 10  1  0
  9  8  2  0
 11 10  1  0
 11 12  1  6
 13 14  1  0
 13 12  1  0
 15 14  1  0
 16 15  1  0
 17 11  1  0
 18 17  2  0
 19 17  1  0
 20 24  1  0
 20 19  1  0
 21 22  1  0
 20 21  1  1
 22 26  1  0
 23 22  2  0
 24 25  1  0
 27 24  2  0
M  END
$$$$
