QKD.pdb
     RDKit          3D

 27 26  0  0  1  0  0  0  0  0999 V2000
    8.8328  -13.0712   16.7506 N   0  0  0  0  0  0  0  0  0  0  0  0
    7.6075  -13.6620   17.1885 C   0  0  0  0  0  0  0  0  0  0  0  0
    7.0745  -14.5062   16.4369 O   0  0  0  0  0  0  0  0  0  0  0  0
    6.9853  -13.2967   18.4746 C   0  0  0  0  0  0  0  0  0  0  0  0
    8.0278  -13.3874   19.5614 C   0  0  0  0  0  0  0  0  0  0  0  0
    8.4354  -14.8094   19.8277 C   0  0  2  0  0  0  0  0  0  0  0  0
    7.3680  -15.7495   19.5703 N   0  0  0  0  0  0  0  0  0  0  0  0
    8.8886  -14.8816   21.2639 C   0  0  0  0  0  0  0  0  0  0  0  0
    9.7454  -14.0659   21.6515 O   0  0  0  0  0  0  0  0  0  0  0  0
    8.2910  -15.8834   22.0552 N   0  0  0  0  0  0  0  0  0  0  0  0
    8.8972  -16.2008   23.3689 C   0  0  1  0  0  0  0  0  0  0  0  0
    7.8874  -16.9949   24.1006 C   0  0  0  0  0  0  0  0  0  0  0  0
    8.2548  -17.5270   25.4432 C   0  0  0  0  0  0  0  0  0  0  0  0
    7.1624  -18.3735   26.0571 C   0  0  0  0  0  0  0  0  0  0  0  0
    7.4847  -18.8185   27.4591 C   0  0  0  0  0  0  0  0  0  0  0  0
    6.5173  -19.6837   28.0559 N   0  0  0  0  0  0  0  0  0  0  0  0
   10.1976  -16.8432   23.1022 C   0  0  0  0  0  0  0  0  0  0  0  0
   10.5833  -17.0273   21.8956 O   0  0  0  0  0  0  0  0  0  0  0  0
   11.0657  -17.2735   24.1354 N   0  0  0  0  0  0  0  0  0  0  0  0
   12.4915  -17.2766   23.8946 C   0  0  1  0  0  0  0  0  0  0  0  0
   12.9746  -16.0040   23.2439 C   0  0  0  0  0  0  0  0  0  0  0  0
   14.4332  -16.1246   22.9865 C   0  0  0  0  0  0  0  0  0  0  0  0
   15.2657  -15.4718   23.7114 O   0  0  0  0  0  0  0  0  0  0  0  0
   13.2985  -17.6595   25.0644 C   0  0  0  0  0  0  0  0  0  0  0  0
   13.1919  -16.8958   26.2172 O   0  0  0  0  0  0  0  0  0  0  0  0
   14.9667  -16.9270   21.9821 O   0  0  0  0  0  0  0  0  0  0  0  0
   14.0528  -18.6526   24.9979 O   0  0  0  0  0  0  0  0  0  0  0  0
  2  1  1  0
  3  2  2  0
  4  2  1  0
  5  4  1  0
  6  5  1  0
  6  7  1  1
  8  6  1  0
  8 10  1  0
  9  8  2  0
 11 10  1  0
 11 12  1  6
 13 14  1  0
 13 12  1  0
 15 14  1  0
 16 15  1  0
 17 11  1  0
 18 17  2  0
 19 17  1  0
 20 24  1  0
 20 19  1  0
 21 22  1  0
 20 21  1  1
 22 26  1  0
 23 22  2  0
 24 25  1  0
 27 24  2  0
M  END
$$$$
