QKD.pdb
     RDKit          3D

 27 26  0  0  1  0  0  0  0  0999 V2000
    6.5871  -14.4456   15.6057 N   0  0  0  0  0  0  0  0  0  0  0  0
    7.9119  -14.9705   15.4976 C   0  0  0  0  0  0  0  0  0  0  0  0
    8.3589  -15.1730   14.3483 O   0  0  0  0  0  0  0  0  0  0  0  0
    8.7290  -15.2674   16.6886 C   0  0  0  0  0  0  0  0  0  0  0  0
    7.8446  -15.2144   17.9097 C   0  0  0  0  0  0  0  0  0  0  0  0
    7.8008  -13.8366   18.5088 C   0  0  2  0  0  0  0  0  0  0  0  0
    8.4414  -12.8475   17.6717 N   0  0  0  0  0  0  0  0  0  0  0  0
    8.4646  -13.9169   19.8602 C   0  0  0  0  0  0  0  0  0  0  0  0
    9.7024  -13.7957   19.9150 O   0  0  0  0  0  0  0  0  0  0  0  0
    7.6101  -14.1249   20.9617 N   0  0  0  0  0  0  0  0  0  0  0  0
    8.2018  -14.1502   22.3194 C   0  0  1  0  0  0  0  0  0  0  0  0
    7.1831  -13.5649   23.2169 C   0  0  0  0  0  0  0  0  0  0  0  0
    7.5362  -13.3873   24.6538 C   0  0  0  0  0  0  0  0  0  0  0  0
    6.4090  -12.7879   25.4644 C   0  0  0  0  0  0  0  0  0  0  0  0
    6.7702  -12.5907   26.9129 C   0  0  0  0  0  0  0  0  0  0  0  0
    5.7192  -12.0782   27.7334 N   0  0  0  0  0  0  0  0  0  0  0  0
    8.6174  -15.5399   22.5852 C   0  0  0  0  0  0  0  0  0  0  0  0
    8.5152  -16.4240   21.6651 O   0  0  0  0  0  0  0  0  0  0  0  0
    9.1409  -15.9575   23.8333 N   0  0  0  0  0  0  0  0  0  0  0  0
   10.3465  -16.7556   23.8541 C   0  0  1  0  0  0  0  0  0  0  0  0
   11.3982  -16.2461   22.8997 C   0  0  0  0  0  0  0  0  0  0  0  0
   12.5860  -17.1354   22.9809 C   0  0  0  0  0  0  0  0  0  0  0  0
   13.1830  -17.3026   24.1034 O   0  0  0  0  0  0  0  0  0  0  0  0
   10.8772  -17.0091   25.2034 C   0  0  0  0  0  0  0  0  0  0  0  0
   10.8765  -15.9669   26.1184 O   0  0  0  0  0  0  0  0  0  0  0  0
   13.1026  -17.8198   21.8845 O   0  0  0  0  0  0  0  0  0  0  0  0
   11.3110  -18.1432   25.4949 O   0  0  0  0  0  0  0  0  0  0  0  0
  2  1  1  0
  3  2  2  0
  4  2  1  0
  5  4  1  0
  6  5  1  0
  6  7  1  6
  8  6  1  0
  8 10  1  0
  9  8  2  0
 11 10  1  0
 11 12  1  1
 13 14  1  0
 13 12  1  0
 15 14  1  0
 16 15  1  0
 17 11  1  0
 18 17  2  0
 19 17  1  0
 20 24  1  0
 20 19  1  0
 21 22  1  0
 20 21  1  6
 22 26  1  0
 23 22  2  0
 24 25  1  0
 27 24  2  0
M  END
$$$$
