EMG.pdb
     RDKit          3D

 22 21  0  0  1  0  0  0  0  0999 V2000
   11.7108  -17.3528   18.1640 N   0  0  0  0  0  0  0  0  0  0  0  0
   12.3296  -16.0678   17.9025 C   0  0  1  0  0  0  0  0  0  0  0  0
   11.8620  -15.5948   16.5412 C   0  0  0  0  0  0  0  0  0  0  0  0
   12.8612  -16.1587   15.5378 C   0  0  0  0  0  0  0  0  0  0  0  0
   12.5358  -15.7632   14.1602 C   0  0  0  0  0  0  0  0  0  0  0  0
   11.3933  -15.3706   13.8488 O   0  0  0  0  0  0  0  0  0  0  0  0
   12.0054  -15.1518   18.9948 C   0  0  0  0  0  0  0  0  0  0  0  0
   12.6361  -14.0612   19.1451 O   0  0  0  0  0  0  0  0  0  0  0  0
   13.5130  -15.8268   13.1908 O   0  0  0  0  0  0  0  0  0  0  0  0
    6.6394  -11.7432   18.7101 C   0  0  0  0  0  0  0  0  0  0  0  0
    7.0670  -12.9347   20.0024 S   0  0  0  0  0  0  0  0  0  0  0  0
    8.8283  -13.3008   20.0314 C   0  0  0  0  0  0  0  0  0  0  0  0
    9.1772  -14.3518   21.0573 C   0  0  0  0  0  0  0  0  0  0  0  0
   10.6694  -14.6228   21.0711 C   0  0  2  0  0  0  0  0  0  0  0  0
   10.9637  -15.4675   19.9226 N   0  0  0  0  0  0  0  0  0  0  0  0
   11.0809  -15.2865   22.3355 C   0  0  0  0  0  0  0  0  0  0  0  0
   10.5812  -14.9339   23.4277 O   0  0  0  0  0  0  0  0  0  0  0  0
   12.0401  -16.3307   22.3705 N   0  0  0  0  0  0  0  0  0  0  0  0
   12.3653  -17.0380   23.5984 C   0  0  0  0  0  0  0  0  0  0  0  0
   13.3775  -18.0868   23.3689 C   0  0  0  0  0  0  0  0  0  0  0  0
   13.7620  -18.7938   24.3290 O   0  0  0  0  0  0  0  0  0  0  0  0
   13.9344  -18.3313   22.1135 O   0  0  0  0  0  0  0  0  0  0  0  0
  2  1  1  1
  3  2  1  0
  4  3  1  0
  5  4  1  0
  6  5  2  0
  7  8  2  0
  7  2  1  0
  9  5  1  0
 10 11  1  0
 11 12  1  0
 12 13  1  0
 14 13  1  1
 14 15  1  0
 15  7  1  0
 16 18  1  0
 16 14  1  0
 17 16  2  0
 19 20  1  0
 19 18  1  0
 20 22  1  0
 21 20  2  0
M  END
$$$$
