EMG.pdb
     RDKit          3D

 22 21  0  0  1  0  0  0  0  0999 V2000
    7.8056  -12.8360   18.5784 N   0  0  0  0  0  0  0  0  0  0  0  0
    7.1451  -13.6954   19.5416 C   0  0  1  0  0  0  0  0  0  0  0  0
    7.0767  -15.0891   18.9514 C   0  0  0  0  0  0  0  0  0  0  0  0
    8.4703  -15.3808   18.4077 C   0  0  0  0  0  0  0  0  0  0  0  0
    8.5262  -16.6734   17.7103 C   0  0  0  0  0  0  0  0  0  0  0  0
    8.2630  -16.7685   16.4946 O   0  0  0  0  0  0  0  0  0  0  0  0
    7.8605  -13.6223   20.8145 C   0  0  0  0  0  0  0  0  0  0  0  0
    9.0850  -13.2936   20.8607 O   0  0  0  0  0  0  0  0  0  0  0  0
    8.8769  -17.8053   18.4135 O   0  0  0  0  0  0  0  0  0  0  0  0
    7.3177  -11.7735   28.3662 C   0  0  0  0  0  0  0  0  0  0  0  0
    6.4650  -12.1806   26.8236 S   0  0  0  0  0  0  0  0  0  0  0  0
    7.5308  -13.0600   25.6713 C   0  0  0  0  0  0  0  0  0  0  0  0
    6.9033  -13.2012   24.3056 C   0  0  0  0  0  0  0  0  0  0  0  0
    7.8669  -13.8482   23.3295 C   0  0  2  0  0  0  0  0  0  0  0  0
    7.1907  -13.9216   22.0423 N   0  0  0  0  0  0  0  0  0  0  0  0
    8.2702  -15.2013   23.7932 C   0  0  0  0  0  0  0  0  0  0  0  0
    7.4061  -16.0816   24.0060 O   0  0  0  0  0  0  0  0  0  0  0  0
    9.6250  -15.5585   24.0141 N   0  0  0  0  0  0  0  0  0  0  0  0
   10.0102  -16.8927   24.4448 C   0  0  0  0  0  0  0  0  0  0  0  0
   11.4544  -16.9732   24.7356 C   0  0  0  0  0  0  0  0  0  0  0  0
   12.2159  -16.0617   24.3371 O   0  0  0  0  0  0  0  0  0  0  0  0
   12.0198  -18.0332   25.4447 O   0  0  0  0  0  0  0  0  0  0  0  0
  2  1  1  6
  3  2  1  0
  4  3  1  0
  5  4  1  0
  6  5  2  0
  7  8  2  0
  7  2  1  0
  9  5  1  0
 10 11  1  0
 11 12  1  0
 12 13  1  0
 14 13  1  1
 14 15  1  0
 15  7  1  0
 16 18  1  0
 16 14  1  0
 17 16  2  0
 19 20  1  0
 19 18  1  0
 20 22  1  0
 21 20  2  0
M  END
$$$$
