EMG.pdb
     RDKit          3D

 22 21  0  0  1  0  0  0  0  0999 V2000
    7.9293  -17.8306   21.5641 N   0  0  0  0  0  0  0  0  0  0  0  0
    8.9395  -16.8572   21.1974 C   0  0  1  0  0  0  0  0  0  0  0  0
    8.4726  -16.1538   19.9392 C   0  0  0  0  0  0  0  0  0  0  0  0
    9.6416  -16.2242   18.9638 C   0  0  0  0  0  0  0  0  0  0  0  0
    9.1868  -16.2736   17.5671 C   0  0  0  0  0  0  0  0  0  0  0  0
    7.9745  -16.2296   17.2758 O   0  0  0  0  0  0  0  0  0  0  0  0
    9.1711  -15.9613   22.3292 C   0  0  0  0  0  0  0  0  0  0  0  0
   10.1074  -15.1054   22.3072 O   0  0  0  0  0  0  0  0  0  0  0  0
   10.1185  -16.3706   16.5566 O   0  0  0  0  0  0  0  0  0  0  0  0
    6.5227  -10.6356   26.5232 C   0  0  0  0  0  0  0  0  0  0  0  0
    6.4758  -12.4438   26.5469 S   0  0  0  0  0  0  0  0  0  0  0  0
    7.1741  -13.1600   25.0514 C   0  0  0  0  0  0  0  0  0  0  0  0
    7.2188  -14.6679   25.1063 C   0  0  0  0  0  0  0  0  0  0  0  0
    8.5708  -15.1878   24.6568 C   0  0  2  0  0  0  0  0  0  0  0  0
    8.3417  -16.0311   23.4924 N   0  0  0  0  0  0  0  0  0  0  0  0
    9.2374  -15.9536   25.7419 C   0  0  0  0  0  0  0  0  0  0  0  0
    9.5018  -15.4038   26.8349 O   0  0  0  0  0  0  0  0  0  0  0  0
    9.6010  -17.3172   25.5995 N   0  0  0  0  0  0  0  0  0  0  0  0
   10.1428  -18.0902   26.7053 C   0  0  0  0  0  0  0  0  0  0  0  0
   11.5065  -18.5722   26.4139 C   0  0  0  0  0  0  0  0  0  0  0  0
   12.1032  -18.1560   25.3939 O   0  0  0  0  0  0  0  0  0  0  0  0
   12.1724  -19.4833   27.2340 O   0  0  0  0  0  0  0  0  0  0  0  0
  2  1  1  1
  3  2  1  0
  4  3  1  0
  5  4  1  0
  6  5  2  0
  7  8  2  0
  7  2  1  0
  9  5  1  0
 10 11  1  0
 11 12  1  0
 12 13  1  0
 14 13  1  1
 14 15  1  0
 15  7  1  0
 16 18  1  0
 16 14  1  0
 17 16  2  0
 19 20  1  0
 19 18  1  0
 20 22  1  0
 21 20  2  0
M  END
$$$$
