EMG.pdb
     RDKit          3D

 22 21  0  0  1  0  0  0  0  0999 V2000
    8.4683  -17.7746   21.5264 N   0  0  0  0  0  0  0  0  0  0  0  0
    9.8110  -17.2312   21.5932 C   0  0  1  0  0  0  0  0  0  0  0  0
   10.1811  -16.7346   20.2104 C   0  0  0  0  0  0  0  0  0  0  0  0
    9.2413  -17.4480   19.2456 C   0  0  0  0  0  0  0  0  0  0  0  0
    9.5162  -17.0882   17.8473 C   0  0  0  0  0  0  0  0  0  0  0  0
    8.6069  -16.7072   17.0829 O   0  0  0  0  0  0  0  0  0  0  0  0
    9.8566  -16.1998   22.6282 C   0  0  0  0  0  0  0  0  0  0  0  0
   10.9401  -15.6043   22.9133 O   0  0  0  0  0  0  0  0  0  0  0  0
   10.8058  -17.1730   17.3693 O   0  0  0  0  0  0  0  0  0  0  0  0
    6.1096  -10.8853   26.9571 C   0  0  0  0  0  0  0  0  0  0  0  0
    6.0021  -12.5449   26.2452 S   0  0  0  0  0  0  0  0  0  0  0  0
    7.4053  -12.9194   25.1832 C   0  0  0  0  0  0  0  0  0  0  0  0
    7.3264  -14.3096   24.6002 C   0  0  0  0  0  0  0  0  0  0  0  0
    8.7062  -14.9278   24.4815 C   0  0  2  0  0  0  0  0  0  0  0  0
    8.6734  -15.8378   23.3456 N   0  0  0  0  0  0  0  0  0  0  0  0
    9.0785  -15.6487   25.7266 C   0  0  0  0  0  0  0  0  0  0  0  0
    9.2668  -15.0182   26.7913 O   0  0  0  0  0  0  0  0  0  0  0  0
    9.2366  -17.0575   25.7729 N   0  0  0  0  0  0  0  0  0  0  0  0
    9.3625  -17.7783   27.0293 C   0  0  0  0  0  0  0  0  0  0  0  0
   10.7761  -18.0121   27.3815 C   0  0  0  0  0  0  0  0  0  0  0  0
   11.6793  -17.5802   26.6282 O   0  0  0  0  0  0  0  0  0  0  0  0
   11.1594  -18.7021   28.5317 O   0  0  0  0  0  0  0  0  0  0  0  0
  2  1  1  6
  3  2  1  0
  4  3  1  0
  5  4  1  0
  6  5  2  0
  7  8  2  0
  7  2  1  0
  9  5  1  0
 10 11  1  0
 11 12  1  0
 12 13  1  0
 14 13  1  1
 14 15  1  0
 15  7  1  0
 16 18  1  0
 16 14  1  0
 17 16  2  0
 19 20  1  0
 19 18  1  0
 20 22  1  0
 21 20  2  0
M  END
$$$$
