EMG.pdb
     RDKit          3D

 22 21  0  0  1  0  0  0  0  0999 V2000
    6.5959  -19.5252   22.7254 N   0  0  0  0  0  0  0  0  0  0  0  0
    6.2450  -18.5991   23.7845 C   0  0  1  0  0  0  0  0  0  0  0  0
    6.5222  -19.2806   25.1090 C   0  0  0  0  0  0  0  0  0  0  0  0
    6.5864  -20.7727   24.8050 C   0  0  0  0  0  0  0  0  0  0  0  0
    6.8477  -21.5668   26.0139 C   0  0  0  0  0  0  0  0  0  0  0  0
    6.8945  -21.0373   27.1424 O   0  0  0  0  0  0  0  0  0  0  0  0
    6.9828  -17.3519   23.5908 C   0  0  0  0  0  0  0  0  0  0  0  0
    7.8207  -17.2256   22.6465 O   0  0  0  0  0  0  0  0  0  0  0  0
    7.0453  -22.9257   25.8995 O   0  0  0  0  0  0  0  0  0  0  0  0
    8.3614  -12.5494   28.8546 C   0  0  0  0  0  0  0  0  0  0  0  0
    7.8299  -12.4557   27.1280 S   0  0  0  0  0  0  0  0  0  0  0  0
    7.1378  -14.0111   26.5460 C   0  0  0  0  0  0  0  0  0  0  0  0
    6.6949  -13.9364   25.1048 C   0  0  0  0  0  0  0  0  0  0  0  0
    7.4291  -14.9577   24.2575 C   0  0  2  0  0  0  0  0  0  0  0  0
    6.7741  -16.2409   24.4669 N   0  0  0  0  0  0  0  0  0  0  0  0
    8.8656  -15.0297   24.6312 C   0  0  0  0  0  0  0  0  0  0  0  0
    9.6202  -14.0498   24.4383 O   0  0  0  0  0  0  0  0  0  0  0  0
    9.4444  -16.1865   25.2130 N   0  0  0  0  0  0  0  0  0  0  0  0
   10.8737  -16.2941   25.4569 C   0  0  0  0  0  0  0  0  0  0  0  0
   11.1885  -16.1879   26.8944 C   0  0  0  0  0  0  0  0  0  0  0  0
   10.2552  -16.1021   27.7258 O   0  0  0  0  0  0  0  0  0  0  0  0
   12.4970  -16.1788   27.3781 O   0  0  0  0  0  0  0  0  0  0  0  0
  2  1  1  6
  3  2  1  0
  4  3  1  0
  5  4  1  0
  6  5  2  0
  7  8  2  0
  7  2  1  0
  9  5  1  0
 10 11  1  0
 11 12  1  0
 12 13  1  0
 14 13  1  1
 14 15  1  0
 15  7  1  0
 16 18  1  0
 16 14  1  0
 17 16  2  0
 19 20  1  0
 19 18  1  0
 20 22  1  0
 21 20  2  0
M  END
$$$$
