EMG.pdb
     RDKit          3D

 22 21  0  0  1  0  0  0  0  0999 V2000
    7.2315  -17.1424   21.0711 N   0  0  0  0  0  0  0  0  0  0  0  0
    8.5701  -16.6095   20.9075 C   0  0  1  0  0  0  0  0  0  0  0  0
    8.5747  -15.7353   19.6701 C   0  0  0  0  0  0  0  0  0  0  0  0
    7.8259  -16.5220   18.6008 C   0  0  0  0  0  0  0  0  0  0  0  0
    8.2982  -16.1934   17.2483 C   0  0  0  0  0  0  0  0  0  0  0  0
    9.2744  -15.4384   17.0657 O   0  0  0  0  0  0  0  0  0  0  0  0
    8.9576  -15.9107   22.1317 C   0  0  0  0  0  0  0  0  0  0  0  0
   10.0821  -15.3309   22.2279 O   0  0  0  0  0  0  0  0  0  0  0  0
    7.6496  -16.7304   16.1576 O   0  0  0  0  0  0  0  0  0  0  0  0
    7.5067  -11.0370   26.0691 C   0  0  0  0  0  0  0  0  0  0  0  0
    6.6381  -12.4728   26.7449 S   0  0  0  0  0  0  0  0  0  0  0  0
    7.5368  -14.0051   26.4596 C   0  0  0  0  0  0  0  0  0  0  0  0
    7.2375  -14.6000   25.1049 C   0  0  0  0  0  0  0  0  0  0  0  0
    8.4651  -15.2766   24.5257 C   0  0  2  0  0  0  0  0  0  0  0  0
    8.0718  -15.8653   23.2537 N   0  0  0  0  0  0  0  0  0  0  0  0
    8.9896  -16.3154   25.4499 C   0  0  0  0  0  0  0  0  0  0  0  0
    8.3317  -17.3572   25.6708 O   0  0  0  0  0  0  0  0  0  0  0  0
   10.2352  -16.1842   26.1155 N   0  0  0  0  0  0  0  0  0  0  0  0
   10.9618  -17.3356   26.6257 C   0  0  0  0  0  0  0  0  0  0  0  0
   10.5783  -17.6470   28.0160 C   0  0  0  0  0  0  0  0  0  0  0  0
    9.6847  -16.9704   28.5757 O   0  0  0  0  0  0  0  0  0  0  0  0
   11.1734  -18.6754   28.7469 O   0  0  0  0  0  0  0  0  0  0  0  0
  2  1  1  1
  3  2  1  0
  4  3  1  0
  5  4  1  0
  6  5  2  0
  7  8  2  0
  7  2  1  0
  9  5  1  0
 10 11  1  0
 11 12  1  0
 12 13  1  0
 14 13  1  1
 14 15  1  0
 15  7  1  0
 16 18  1  0
 16 14  1  0
 17 16  2  0
 19 20  1  0
 19 18  1  0
 20 22  1  0
 21 20  2  0
M  END
$$$$
