EMG.pdb
     RDKit          3D

 22 21  0  0  1  0  0  0  0  0999 V2000
   10.0428  -15.9140   20.1245 N   0  0  0  0  0  0  0  0  0  0  0  0
    8.8965  -16.2880   20.9300 C   0  0  1  0  0  0  0  0  0  0  0  0
    8.8964  -17.7969   21.0667 C   0  0  0  0  0  0  0  0  0  0  0  0
    9.9090  -18.3080   20.0486 C   0  0  0  0  0  0  0  0  0  0  0  0
    9.9259  -19.7762   19.9833 C   0  0  0  0  0  0  0  0  0  0  0  0
   10.9526  -20.4006   19.6482 O   0  0  0  0  0  0  0  0  0  0  0  0
    8.9569  -15.5747   22.2047 C   0  0  0  0  0  0  0  0  0  0  0  0
   10.0483  -15.0910   22.6345 O   0  0  0  0  0  0  0  0  0  0  0  0
    8.7837  -20.4794   20.2988 O   0  0  0  0  0  0  0  0  0  0  0  0
    6.9774  -11.3201   27.7982 C   0  0  0  0  0  0  0  0  0  0  0  0
    7.2143  -11.9733   26.1279 S   0  0  0  0  0  0  0  0  0  0  0  0
    6.3132  -13.5083   25.8659 C   0  0  0  0  0  0  0  0  0  0  0  0
    6.4735  -14.0328   24.4595 C   0  0  0  0  0  0  0  0  0  0  0  0
    7.8080  -14.7330   24.2898 C   0  0  2  0  0  0  0  0  0  0  0  0
    7.7796  -15.4058   22.9991 N   0  0  0  0  0  0  0  0  0  0  0  0
    8.0456  -15.7054   25.3882 C   0  0  0  0  0  0  0  0  0  0  0  0
    7.1947  -16.5852   25.6503 O   0  0  0  0  0  0  0  0  0  0  0  0
    9.2224  -15.6880   26.1798 N   0  0  0  0  0  0  0  0  0  0  0  0
    9.3998  -16.5763   27.3170 C   0  0  0  0  0  0  0  0  0  0  0  0
   10.5304  -17.5018   27.1116 C   0  0  0  0  0  0  0  0  0  0  0  0
   11.1319  -17.5068   26.0126 O   0  0  0  0  0  0  0  0  0  0  0  0
   10.9673  -18.3848   28.0993 O   0  0  0  0  0  0  0  0  0  0  0  0
  2  1  1  6
  3  2  1  0
  4  3  1  0
  5  4  1  0
  6  5  2  0
  7  8  2  0
  7  2  1  0
  9  5  1  0
 10 11  1  0
 11 12  1  0
 12 13  1  0
 14 13  1  1
 14 15  1  0
 15  7  1  0
 16 18  1  0
 16 14  1  0
 17 16  2  0
 19 20  1  0
 19 18  1  0
 20 22  1  0
 21 20  2  0
M  END
$$$$
