EMG.pdb
     RDKit          3D

 22 21  0  0  1  0  0  0  0  0999 V2000
    8.8820  -18.1036   22.0742 N   0  0  0  0  0  0  0  0  0  0  0  0
    9.8549  -17.0495   21.8619 C   0  0  1  0  0  0  0  0  0  0  0  0
    9.6457  -16.4976   20.4665 C   0  0  0  0  0  0  0  0  0  0  0  0
    9.5397  -17.7106   19.5497 C   0  0  0  0  0  0  0  0  0  0  0  0
    9.5234  -17.3249   18.1315 C   0  0  0  0  0  0  0  0  0  0  0  0
    9.3243  -18.1652   17.2312 O   0  0  0  0  0  0  0  0  0  0  0  0
    9.7173  -16.0533   22.9230 C   0  0  0  0  0  0  0  0  0  0  0  0
   10.5396  -15.0932   23.0317 O   0  0  0  0  0  0  0  0  0  0  0  0
    9.7322  -16.0070   17.7878 O   0  0  0  0  0  0  0  0  0  0  0  0
    6.3829  -10.9662   26.5715 C   0  0  0  0  0  0  0  0  0  0  0  0
    7.0647  -12.6411   26.5225 S   0  0  0  0  0  0  0  0  0  0  0  0
    6.5298  -13.5486   25.0640 C   0  0  0  0  0  0  0  0  0  0  0  0
    6.9487  -14.9983   25.1068 C   0  0  0  0  0  0  0  0  0  0  0  0
    8.4450  -15.1375   24.9025 C   0  0  2  0  0  0  0  0  0  0  0  0
    8.6461  -16.1405   23.8667 N   0  0  0  0  0  0  0  0  0  0  0  0
    9.1225  -15.5360   26.1637 C   0  0  0  0  0  0  0  0  0  0  0  0
    9.1237  -14.7679   27.1521 O   0  0  0  0  0  0  0  0  0  0  0  0
    9.7885  -16.7796   26.3107 N   0  0  0  0  0  0  0  0  0  0  0  0
   10.2992  -17.2338   27.5939 C   0  0  0  0  0  0  0  0  0  0  0  0
   10.8553  -18.5976   27.5048 C   0  0  0  0  0  0  0  0  0  0  0  0
   11.0761  -19.2437   28.5552 O   0  0  0  0  0  0  0  0  0  0  0  0
   11.1509  -19.2101   26.2869 O   0  0  0  0  0  0  0  0  0  0  0  0
  2  1  1  1
  3  2  1  0
  4  3  1  0
  5  4  1  0
  6  5  2  0
  7  8  2  0
  7  2  1  0
  9  5  1  0
 10 11  1  0
 11 12  1  0
 12 13  1  0
 14 13  1  1
 14 15  1  0
 15  7  1  0
 16 18  1  0
 16 14  1  0
 17 16  2  0
 19 20  1  0
 19 18  1  0
 20 22  1  0
 21 20  2  0
M  END
$$$$
