EMG.pdb
     RDKit          3D

 22 21  0  0  1  0  0  0  0  0999 V2000
    7.7289  -14.5414   19.0424 N   0  0  0  0  0  0  0  0  0  0  0  0
    7.2107  -15.2473   20.1982 C   0  0  1  0  0  0  0  0  0  0  0  0
    7.2443  -16.7306   19.8909 C   0  0  0  0  0  0  0  0  0  0  0  0
    8.6831  -17.0424   19.4964 C   0  0  0  0  0  0  0  0  0  0  0  0
    8.8568  -18.4558   19.1327 C   0  0  0  0  0  0  0  0  0  0  0  0
    7.8906  -19.2446   19.1083 O   0  0  0  0  0  0  0  0  0  0  0  0
    7.9868  -14.8657   21.3769 C   0  0  0  0  0  0  0  0  0  0  0  0
    9.2052  -14.5259   21.2780 O   0  0  0  0  0  0  0  0  0  0  0  0
   10.1134  -18.9208   18.8114 O   0  0  0  0  0  0  0  0  0  0  0  0
    7.5377  -11.3192   28.3481 C   0  0  0  0  0  0  0  0  0  0  0  0
    6.7014  -12.0507   26.9204 S   0  0  0  0  0  0  0  0  0  0  0  0
    7.8176  -13.0398   25.9141 C   0  0  0  0  0  0  0  0  0  0  0  0
    7.1352  -13.6084   24.6934 C   0  0  0  0  0  0  0  0  0  0  0  0
    8.1044  -14.4249   23.8604 C   0  0  2  0  0  0  0  0  0  0  0  0
    7.3852  -14.8673   22.6744 N   0  0  0  0  0  0  0  0  0  0  0  0
    8.6233  -15.5865   24.6285 C   0  0  0  0  0  0  0  0  0  0  0  0
    7.8795  -16.5604   24.8837 O   0  0  0  0  0  0  0  0  0  0  0  0
    9.9586  -15.6513   25.1023 N   0  0  0  0  0  0  0  0  0  0  0  0
   10.5294  -16.8782   25.6340 C   0  0  0  0  0  0  0  0  0  0  0  0
   10.3960  -16.9474   27.1018 C   0  0  0  0  0  0  0  0  0  0  0  0
    9.7758  -16.0434   27.7082 O   0  0  0  0  0  0  0  0  0  0  0  0
   10.9363  -17.9885   27.8569 O   0  0  0  0  0  0  0  0  0  0  0  0
  2  1  1  6
  3  2  1  0
  4  3  1  0
  5  4  1  0
  6  5  2  0
  7  8  2  0
  7  2  1  0
  9  5  1  0
 10 11  1  0
 11 12  1  0
 12 13  1  0
 14 13  1  1
 14 15  1  0
 15  7  1  0
 16 18  1  0
 16 14  1  0
 17 16  2  0
 19 20  1  0
 19 18  1  0
 20 22  1  0
 21 20  2  0
M  END
$$$$
