EMG.pdb
     RDKit          3D

 22 21  0  0  1  0  0  0  0  0999 V2000
    8.6175  -17.5577   21.8855 N   0  0  0  0  0  0  0  0  0  0  0  0
    9.8733  -17.1784   22.5035 C   0  0  1  0  0  0  0  0  0  0  0  0
   10.6352  -16.3165   21.5175 C   0  0  0  0  0  0  0  0  0  0  0  0
   10.4922  -17.0042   20.1649 C   0  0  0  0  0  0  0  0  0  0  0  0
   11.1470  -16.2426   19.0918 C   0  0  0  0  0  0  0  0  0  0  0  0
   11.7923  -15.2026   19.3328 O   0  0  0  0  0  0  0  0  0  0  0  0
    9.5968  -16.5208   23.7796 C   0  0  0  0  0  0  0  0  0  0  0  0
   10.5348  -16.0427   24.4877 O   0  0  0  0  0  0  0  0  0  0  0  0
   11.0465  -16.6860   17.7910 O   0  0  0  0  0  0  0  0  0  0  0  0
    7.2065  -10.7915   25.7602 C   0  0  0  0  0  0  0  0  0  0  0  0
    6.9602  -12.5006   26.2996 S   0  0  0  0  0  0  0  0  0  0  0  0
    6.7921  -13.6324   24.9111 C   0  0  0  0  0  0  0  0  0  0  0  0
    6.6047  -15.0621   25.3580 C   0  0  0  0  0  0  0  0  0  0  0  0
    7.9416  -15.7578   25.5272 C   0  0  2  0  0  0  0  0  0  0  0  0
    8.2548  -16.4016   24.2596 N   0  0  0  0  0  0  0  0  0  0  0  0
    7.8907  -16.7543   26.6285 C   0  0  0  0  0  0  0  0  0  0  0  0
    7.6033  -16.3969   27.7932 O   0  0  0  0  0  0  0  0  0  0  0  0
    8.1592  -18.1317   26.4226 N   0  0  0  0  0  0  0  0  0  0  0  0
    8.1938  -19.0831   27.5214 C   0  0  0  0  0  0  0  0  0  0  0  0
    9.5766  -19.3655   27.9515 C   0  0  0  0  0  0  0  0  0  0  0  0
   10.3121  -20.0815   27.2332 O   0  0  0  0  0  0  0  0  0  0  0  0
   10.1112  -18.8645   29.1386 O   0  0  0  0  0  0  0  0  0  0  0  0
  2  1  1  6
  3  2  1  0
  4  3  1  0
  5  4  1  0
  6  5  2  0
  7  8  2  0
  7  2  1  0
  9  5  1  0
 10 11  1  0
 11 12  1  0
 12 13  1  0
 14 13  1  6
 14 15  1  0
 15  7  1  0
 16 18  1  0
 16 14  1  0
 17 16  2  0
 19 20  1  0
 19 18  1  0
 20 22  1  0
 21 20  2  0
M  END
$$$$
