VHW.pdb
     RDKit          3D

 32 34  0  0  1  0  0  0  0  0999 V2000
   29.2194  -19.2748  -13.8987 C   0  0  0  0  0  0  0  0  0  0  0  0
   28.4638  -18.5063  -14.9433 C   0  0  1  0  0  0  0  0  0  0  0  0
   29.2311  -18.2642  -16.2107 C   0  0  0  0  0  0  0  0  0  0  0  0
   27.0643  -19.0204  -15.1619 C   0  0  2  0  0  0  0  0  0  0  0  0
   26.4314  -18.0546  -16.0756 N   0  0  0  0  0  0  0  0  0  0  0  0
   26.2370  -19.1107  -13.9645 C   0  0  0  0  0  0  0  0  0  0  0  0
   25.8453  -18.0582  -13.3797 O   0  0  0  0  0  0  0  0  0  0  0  0
   25.8085  -20.3284  -13.3617 N   0  0  0  0  0  0  0  0  0  0  0  0
   25.1190  -20.3379  -12.0932 C   0  0  1  0  0  0  0  0  0  0  0  0
   23.7115  -20.8160  -12.2683 C   0  0  0  0  0  0  0  0  0  0  0  0
   22.8987  -19.9213  -13.1112 C   0  0  0  0  0  0  0  0  0  0  0  0
   22.7320  -19.9703  -14.4743 C   0  0  0  0  0  0  0  0  0  0  0  0
   21.9048  -18.9588  -14.8131 N   0  0  0  0  0  0  0  0  0  0  0  0
   21.5410  -18.2696  -13.7078 C   0  0  0  0  0  0  0  0  0  0  0  0
   22.1696  -18.8866  -12.6740 N   0  0  0  0  0  0  0  0  0  0  0  0
   25.8542  -21.1098  -11.0582 C   0  0  0  0  0  0  0  0  0  0  0  0
   26.6987  -21.9830  -11.4135 O   0  0  0  0  0  0  0  0  0  0  0  0
   25.6505  -20.9092   -9.6775 N   0  0  0  0  0  0  0  0  0  0  0  0
   26.2877  -21.6560   -8.6221 C   0  0  1  0  0  0  0  0  0  0  0  0
   27.7083  -21.1715   -8.3908 C   0  0  0  0  0  0  0  0  0  0  0  0
   27.7448  -20.0712   -7.4002 C   0  0  0  0  0  0  0  0  0  0  0  0
   27.0497  -18.8866   -7.4899 C   0  0  0  0  0  0  0  0  0  0  0  0
   27.3453  -18.1550   -6.4096 N   0  0  0  0  0  0  0  0  0  0  0  0
   28.2088  -18.8156   -5.6134 C   0  0  0  0  0  0  0  0  0  0  0  0
   28.8086  -18.4942   -4.4040 C   0  0  0  0  0  0  0  0  0  0  0  0
   29.6713  -19.3803   -3.8002 C   0  0  0  0  0  0  0  0  0  0  0  0
   29.9492  -20.6045   -4.3963 C   0  0  0  0  0  0  0  0  0  0  0  0
   29.3431  -20.9038   -5.5980 C   0  0  0  0  0  0  0  0  0  0  0  0
   28.4757  -20.0427   -6.2305 C   0  0  0  0  0  0  0  0  0  0  0  0
   25.4910  -21.4798   -7.3852 C   0  0  0  0  0  0  0  0  0  0  0  0
   24.5071  -20.6793   -7.3304 O   0  0  0  0  0  0  0  0  0  0  0  0
   25.7657  -22.1742   -6.2118 O   0  0  0  0  0  0  0  0  0  0  0  0
  2  1  1  1
  3  2  1  0
  4  5  1  6
  4  2  1  0
  6  7  2  0
  6  4  1  0
  8  6  1  0
  9  8  1  0
  9 10  1  6
 11 15  1  0
 11 10  1  0
 12 11  2  0
 13 12  1  0
 13 14  1  0
 14 15  2  0
 16  9  1  0
 16 18  1  0
 17 16  2  0
 19 18  1  0
 19 30  1  0
 19 20  1  1
 21 20  1  0
 22 21  2  0
 23 24  1  0
 23 22  1  0
 24 29  2  0
 25 24  1  0
 25 26  2  0
 26 27  1  0
 27 28  2  0
 29 21  1  0
 29 28  1  0
 30 32  1  0
 31 30  2  0
M  END
$$$$
