VHW.pdb
     RDKit          3D

 32 34  0  0  1  0  0  0  0  0999 V2000
   25.9615  -14.8586  -14.6123 C   0  0  0  0  0  0  0  0  0  0  0  0
   25.7168  -16.2606  -15.0887 C   0  0  1  0  0  0  0  0  0  0  0  0
   24.5713  -16.3976  -16.0494 C   0  0  0  0  0  0  0  0  0  0  0  0
   26.9737  -16.9662  -15.5278 C   0  0  2  0  0  0  0  0  0  0  0  0
   27.4002  -16.2766  -16.7570 N   0  0  0  0  0  0  0  0  0  0  0  0
   26.8195  -18.3821  -15.8406 C   0  0  0  0  0  0  0  0  0  0  0  0
   26.1281  -18.7426  -16.8381 O   0  0  0  0  0  0  0  0  0  0  0  0
   27.3997  -19.4479  -15.0942 N   0  0  0  0  0  0  0  0  0  0  0  0
   27.2207  -20.8257  -15.4870 C   0  0  1  0  0  0  0  0  0  0  0  0
   28.5415  -21.5278  -15.5431 C   0  0  0  0  0  0  0  0  0  0  0  0
   29.2452  -21.3321  -16.8230 C   0  0  0  0  0  0  0  0  0  0  0  0
   28.7758  -20.7111  -17.9554 C   0  0  0  0  0  0  0  0  0  0  0  0
   29.7594  -20.7649  -18.8784 N   0  0  0  0  0  0  0  0  0  0  0  0
   30.8383  -21.4003  -18.3672 C   0  0  0  0  0  0  0  0  0  0  0  0
   30.4912  -21.7383  -17.0983 N   0  0  0  0  0  0  0  0  0  0  0  0
   26.2395  -21.5342  -14.6251 C   0  0  0  0  0  0  0  0  0  0  0  0
   25.9387  -22.7368  -14.8803 O   0  0  0  0  0  0  0  0  0  0  0  0
   25.6200  -20.9176  -13.5188 N   0  0  0  0  0  0  0  0  0  0  0  0
   24.6455  -21.5359  -12.6553 C   0  0  1  0  0  0  0  0  0  0  0  0
   25.3203  -22.3230  -11.5456 C   0  0  0  0  0  0  0  0  0  0  0  0
   26.1049  -21.4338  -10.6584 C   0  0  0  0  0  0  0  0  0  0  0  0
   25.5827  -20.5044   -9.7878 C   0  0  0  0  0  0  0  0  0  0  0  0
   26.6049  -19.9021   -9.1697 N   0  0  0  0  0  0  0  0  0  0  0  0
   27.7793  -20.4019   -9.6019 C   0  0  0  0  0  0  0  0  0  0  0  0
   29.0988  -20.1188   -9.2790 C   0  0  0  0  0  0  0  0  0  0  0  0
   30.1249  -20.8006   -9.8923 C   0  0  0  0  0  0  0  0  0  0  0  0
   29.8485  -21.7785  -10.8402 C   0  0  0  0  0  0  0  0  0  0  0  0
   28.5308  -22.0440  -11.1468 C   0  0  0  0  0  0  0  0  0  0  0  0
   27.4796  -21.3825  -10.5541 C   0  0  0  0  0  0  0  0  0  0  0  0
   23.8025  -20.4671  -12.0698 C   0  0  0  0  0  0  0  0  0  0  0  0
   24.1198  -19.2409  -12.1558 O   0  0  0  0  0  0  0  0  0  0  0  0
   22.6171  -20.7342  -11.3930 O   0  0  0  0  0  0  0  0  0  0  0  0
  2  1  1  6
  3  2  1  0
  4  5  1  6
  4  2  1  0
  6  7  2  0
  6  4  1  0
  8  6  1  0
  9  8  1  0
  9 10  1  1
 11 15  1  0
 11 10  1  0
 12 11  2  0
 13 12  1  0
 13 14  1  0
 14 15  2  0
 16  9  1  0
 16 18  1  0
 17 16  2  0
 19 18  1  0
 19 30  1  0
 19 20  1  1
 21 20  1  0
 22 21  2  0
 23 24  1  0
 23 22  1  0
 24 29  2  0
 25 24  1  0
 25 26  2  0
 26 27  1  0
 27 28  2  0
 29 21  1  0
 29 28  1  0
 30 32  1  0
 31 30  2  0
M  END
$$$$
