VHW.pdb
     RDKit          3D

 32 34  0  0  1  0  0  0  0  0999 V2000
   27.2547  -26.4743  -18.8642 C   0  0  0  0  0  0  0  0  0  0  0  0
   27.0605  -25.4692  -17.7667 C   0  0  1  0  0  0  0  0  0  0  0  0
   26.3986  -26.0163  -16.5353 C   0  0  0  0  0  0  0  0  0  0  0  0
   28.2936  -24.6493  -17.4878 C   0  0  2  0  0  0  0  0  0  0  0  0
   29.2555  -25.5840  -16.8802 N   0  0  0  0  0  0  0  0  0  0  0  0
   28.1087  -23.5358  -16.5645 C   0  0  0  0  0  0  0  0  0  0  0  0
   28.2367  -23.7141  -15.3175 O   0  0  0  0  0  0  0  0  0  0  0  0
   27.7813  -22.2043  -16.9511 N   0  0  0  0  0  0  0  0  0  0  0  0
   27.5723  -21.1660  -15.9698 C   0  0  1  0  0  0  0  0  0  0  0  0
   27.5043  -19.8265  -16.6343 C   0  0  0  0  0  0  0  0  0  0  0  0
   27.1849  -18.7337  -15.6986 C   0  0  0  0  0  0  0  0  0  0  0  0
   25.9747  -18.1093  -15.5151 C   0  0  0  0  0  0  0  0  0  0  0  0
   26.1486  -17.1720  -14.5593 N   0  0  0  0  0  0  0  0  0  0  0  0
   27.4312  -17.1822  -14.1303 C   0  0  0  0  0  0  0  0  0  0  0  0
   28.0457  -18.1555  -14.8512 N   0  0  0  0  0  0  0  0  0  0  0  0
   26.3893  -21.4324  -15.1113 C   0  0  0  0  0  0  0  0  0  0  0  0
   25.3314  -21.8928  -15.6316 O   0  0  0  0  0  0  0  0  0  0  0  0
   26.3931  -21.1923  -13.7218 N   0  0  0  0  0  0  0  0  0  0  0  0
   25.3085  -21.4890  -12.8200 C   0  0  1  0  0  0  0  0  0  0  0  0
   25.8188  -22.1465  -11.5497 C   0  0  0  0  0  0  0  0  0  0  0  0
   26.2515  -21.1345  -10.5588 C   0  0  0  0  0  0  0  0  0  0  0  0
   25.4264  -20.2513   -9.9004 C   0  0  0  0  0  0  0  0  0  0  0  0
   26.1875  -19.5021   -9.0947 N   0  0  0  0  0  0  0  0  0  0  0  0
   27.4822  -19.8608   -9.1995 C   0  0  0  0  0  0  0  0  0  0  0  0
   28.6393  -19.3994   -8.5879 C   0  0  0  0  0  0  0  0  0  0  0  0
   29.8571  -19.9637   -8.8920 C   0  0  0  0  0  0  0  0  0  0  0  0
   29.9386  -21.0003   -9.8140 C   0  0  0  0  0  0  0  0  0  0  0  0
   28.7771  -21.4433  -10.4104 C   0  0  0  0  0  0  0  0  0  0  0  0
   27.5426  -20.9031  -10.1310 C   0  0  0  0  0  0  0  0  0  0  0  0
   24.6244  -20.2177  -12.4858 C   0  0  0  0  0  0  0  0  0  0  0  0
   25.2054  -19.0945  -12.5984 O   0  0  0  0  0  0  0  0  0  0  0  0
   23.3110  -20.1710  -12.0307 O   0  0  0  0  0  0  0  0  0  0  0  0
  2  1  1  6
  3  2  1  0
  4  5  1  1
  4  2  1  0
  6  7  2  0
  6  4  1  0
  8  6  1  0
  9  8  1  0
  9 10  1  6
 11 15  1  0
 11 10  1  0
 12 11  2  0
 13 12  1  0
 13 14  1  0
 14 15  2  0
 16  9  1  0
 16 18  1  0
 17 16  2  0
 19 18  1  0
 19 30  1  0
 19 20  1  1
 21 20  1  0
 22 21  2  0
 23 24  1  0
 23 22  1  0
 24 29  2  0
 25 24  1  0
 25 26  2  0
 26 27  1  0
 27 28  2  0
 29 21  1  0
 29 28  1  0
 30 32  1  0
 31 30  2  0
M  END
$$$$
