VHW.pdb
     RDKit          3D

 32 34  0  0  1  0  0  0  0  0999 V2000
   30.2136  -21.5741  -18.9318 C   0  0  0  0  0  0  0  0  0  0  0  0
   30.4595  -20.3980  -19.8312 C   0  0  1  0  0  0  0  0  0  0  0  0
   31.3208  -20.6990  -21.0234 C   0  0  0  0  0  0  0  0  0  0  0  0
   29.2059  -19.6286  -20.1583 C   0  0  2  0  0  0  0  0  0  0  0  0
   29.6562  -18.4559  -20.9267 N   0  0  0  0  0  0  0  0  0  0  0  0
   28.4504  -19.1458  -19.0083 C   0  0  0  0  0  0  0  0  0  0  0  0
   29.0298  -18.4846  -18.0972 O   0  0  0  0  0  0  0  0  0  0  0  0
   27.0567  -19.3587  -18.8031 N   0  0  0  0  0  0  0  0  0  0  0  0
   26.4025  -18.9369  -17.5871 C   0  0  1  0  0  0  0  0  0  0  0  0
   25.1131  -18.2448  -17.9017 C   0  0  0  0  0  0  0  0  0  0  0  0
   24.3501  -17.8708  -16.6976 C   0  0  0  0  0  0  0  0  0  0  0  0
   24.5561  -16.7921  -15.8717 C   0  0  0  0  0  0  0  0  0  0  0  0
   23.6216  -16.8483  -14.8992 N   0  0  0  0  0  0  0  0  0  0  0  0
   22.8289  -17.9286  -15.0822 C   0  0  0  0  0  0  0  0  0  0  0  0
   23.3025  -18.5396  -16.1989 N   0  0  0  0  0  0  0  0  0  0  0  0
   26.2241  -20.0559  -16.6261 C   0  0  0  0  0  0  0  0  0  0  0  0
   25.9960  -21.2222  -17.0616 O   0  0  0  0  0  0  0  0  0  0  0  0
   26.2996  -19.8738  -15.2299 N   0  0  0  0  0  0  0  0  0  0  0  0
   26.0676  -20.8960  -14.2405 C   0  0  1  0  0  0  0  0  0  0  0  0
   27.1389  -20.8680  -13.1646 C   0  0  0  0  0  0  0  0  0  0  0  0
   26.5411  -20.9310  -11.8111 C   0  0  0  0  0  0  0  0  0  0  0  0
   25.8344  -21.9929  -11.2940 C   0  0  0  0  0  0  0  0  0  0  0  0
   25.4585  -21.6692  -10.0516 N   0  0  0  0  0  0  0  0  0  0  0  0
   25.8924  -20.4337   -9.7334 C   0  0  0  0  0  0  0  0  0  0  0  0
   25.7660  -19.6569   -8.5905 C   0  0  0  0  0  0  0  0  0  0  0  0
   26.3231  -18.3995   -8.5411 C   0  0  0  0  0  0  0  0  0  0  0  0
   27.0170  -17.8969   -9.6351 C   0  0  0  0  0  0  0  0  0  0  0  0
   27.1306  -18.6848  -10.7609 C   0  0  0  0  0  0  0  0  0  0  0  0
   26.5867  -19.9460  -10.8461 C   0  0  0  0  0  0  0  0  0  0  0  0
   24.7388  -20.6556  -13.6305 C   0  0  0  0  0  0  0  0  0  0  0  0
   24.2791  -19.4836  -13.4663 O   0  0  0  0  0  0  0  0  0  0  0  0
   23.9135  -21.6894  -13.2009 O   0  0  0  0  0  0  0  0  0  0  0  0
  2  1  1  6
  3  2  1  0
  4  5  1  6
  4  2  1  0
  6  7  2  0
  6  4  1  0
  8  6  1  0
  9  8  1  0
  9 10  1  6
 11 15  1  0
 11 10  1  0
 12 11  2  0
 13 12  1  0
 13 14  1  0
 14 15  2  0
 16  9  1  0
 16 18  1  0
 17 16  2  0
 19 18  1  0
 19 30  1  0
 19 20  1  1
 21 20  1  0
 22 21  2  0
 23 24  1  0
 23 22  1  0
 24 29  2  0
 25 24  1  0
 25 26  2  0
 26 27  1  0
 27 28  2  0
 29 21  1  0
 29 28  1  0
 30 32  1  0
 31 30  2  0
M  END
$$$$
