PCT.pdb
     RDKit          3D

 21 21  0  0  1  0  0  0  0  0999 V2000
    6.9357  -14.5555   20.8646 N   0  0  0  0  0  0  0  0  0  0  0  0
    6.5572  -14.1329   19.5366 C   0  0  0  0  0  0  0  0  0  0  0  0
    7.5003  -13.0141   19.1828 C   0  0  0  0  0  0  0  0  0  0  0  0
    8.4701  -12.9278   20.3208 C   0  0  0  0  0  0  0  0  0  0  0  0
    8.3438  -14.2662   20.9907 C   0  0  1  0  0  0  0  0  0  0  0  0
    8.7810  -14.2547   22.4027 C   0  0  0  0  0  0  0  0  0  0  0  0
   10.0048  -14.1196   22.6538 O   0  0  0  0  0  0  0  0  0  0  0  0
    7.8615  -14.3905   23.4517 N   0  0  0  0  0  0  0  0  0  0  0  0
    8.2455  -14.3581   24.8693 C   0  0  1  0  0  0  0  0  0  0  0  0
    7.3049  -13.4457   25.6256 C   0  0  0  0  0  0  0  0  0  0  0  0
    5.5805  -13.9341   25.4522 S   0  0  0  0  0  0  0  0  0  0  0  0
    8.2763  -15.7395   25.3570 C   0  0  0  0  0  0  0  0  0  0  0  0
    7.2043  -16.4391   25.3398 O   0  0  0  0  0  0  0  0  0  0  0  0
    9.3219  -18.6721   24.0729 C   0  0  0  0  0  0  0  0  0  0  0  0
   10.0362  -18.6889   25.4005 C   0  0  1  0  0  0  0  0  0  0  0  0
   11.3416  -18.2439   25.2041 O   0  0  0  0  0  0  0  0  0  0  0  0
    9.3068  -17.7617   26.3708 C   0  0  2  0  0  0  0  0  0  0  0  0
    9.4197  -16.3923   25.8596 N   0  0  0  0  0  0  0  0  0  0  0  0
    9.8688  -17.8558   27.7295 C   0  0  0  0  0  0  0  0  0  0  0  0
   10.4308  -16.8619   28.2886 O   0  0  0  0  0  0  0  0  0  0  0  0
    9.8047  -19.0335   28.4479 O   0  0  0  0  0  0  0  0  0  0  0  0
  2  1  1  0
  3  2  1  0
  4  5  1  0
  4  3  1  0
  5  1  1  0
  6  8  1  0
  5  6  1  1
  7  6  2  0
  9 12  1  0
  9  8  1  0
  9 10  1  1
 11 10  1  0
 12 18  1  0
 13 12  2  0
 15 16  1  0
 15 14  1  6
 17 19  1  0
 17 15  1  0
 17 18  1  6
 19 21  1  0
 20 19  2  0
M  END
$$$$
