PCT.pdb
     RDKit          3D

 21 21  0  0  1  0  0  0  0  0999 V2000
    6.8679  -14.7508   20.7505 N   0  0  0  0  0  0  0  0  0  0  0  0
    6.3505  -14.3226   19.4720 C   0  0  0  0  0  0  0  0  0  0  0  0
    7.2582  -13.2102   19.0192 C   0  0  0  0  0  0  0  0  0  0  0  0
    8.3466  -13.1336   20.0451 C   0  0  0  0  0  0  0  0  0  0  0  0
    8.2835  -14.4723   20.7231 C   0  0  1  0  0  0  0  0  0  0  0  0
    8.8718  -14.4670   22.0791 C   0  0  0  0  0  0  0  0  0  0  0  0
   10.1195  -14.3734   22.1947 O   0  0  0  0  0  0  0  0  0  0  0  0
    8.0676  -14.5636   23.2229 N   0  0  0  0  0  0  0  0  0  0  0  0
    8.5954  -14.4618   24.5902 C   0  0  1  0  0  0  0  0  0  0  0  0
    7.6694  -13.6052   25.4255 C   0  0  0  0  0  0  0  0  0  0  0  0
    8.1771  -13.5188   27.1510 S   0  0  0  0  0  0  0  0  0  0  0  0
    8.7891  -15.8225   25.0983 C   0  0  0  0  0  0  0  0  0  0  0  0
    7.7792  -16.5989   25.2250 O   0  0  0  0  0  0  0  0  0  0  0  0
   10.6201  -18.6023   23.7353 C   0  0  0  0  0  0  0  0  0  0  0  0
   11.1064  -18.5222   25.1601 C   0  0  1  0  0  0  0  0  0  0  0  0
   12.3341  -17.8639   25.1704 O   0  0  0  0  0  0  0  0  0  0  0  0
   10.0878  -17.7447   25.9915 C   0  0  2  0  0  0  0  0  0  0  0  0
   10.0306  -16.3749   25.4719 N   0  0  0  0  0  0  0  0  0  0  0  0
   10.4490  -17.7426   27.4199 C   0  0  0  0  0  0  0  0  0  0  0  0
   10.7122  -16.6640   28.0392 O   0  0  0  0  0  0  0  0  0  0  0  0
   10.5148  -18.9188   28.1407 O   0  0  0  0  0  0  0  0  0  0  0  0
  2  1  1  0
  3  2  1  0
  4  5  1  0
  4  3  1  0
  5  1  1  0
  6  8  1  0
  5  6  1  1
  7  6  2  0
  9 12  1  0
  9  8  1  0
  9 10  1  1
 11 10  1  0
 12 18  1  0
 13 12  2  0
 15 16  1  0
 15 14  1  6
 17 19  1  0
 17 15  1  0
 17 18  1  6
 19 21  1  0
 20 19  2  0
M  END
$$$$
