PCT.pdb
     RDKit          3D

 21 21  0  0  1  0  0  0  0  0999 V2000
    7.0543  -14.6933   20.2734 N   0  0  0  0  0  0  0  0  0  0  0  0
    6.7447  -14.3217   18.9127 C   0  0  0  0  0  0  0  0  0  0  0  0
    7.5694  -13.0943   18.6298 C   0  0  0  0  0  0  0  0  0  0  0  0
    8.4170  -12.8876   19.8471 C   0  0  0  0  0  0  0  0  0  0  0  0
    8.3990  -14.2309   20.5187 C   0  0  1  0  0  0  0  0  0  0  0  0
    8.7055  -14.1644   21.9632 C   0  0  0  0  0  0  0  0  0  0  0  0
    9.9036  -14.0380   22.3201 O   0  0  0  0  0  0  0  0  0  0  0  0
    7.6914  -14.2393   22.9277 N   0  0  0  0  0  0  0  0  0  0  0  0
    7.9448  -14.1514   24.3721 C   0  0  1  0  0  0  0  0  0  0  0  0
    6.7718  -13.4774   25.0496 C   0  0  0  0  0  0  0  0  0  0  0  0
    6.8289  -13.6299   26.8429 S   0  0  0  0  0  0  0  0  0  0  0  0
    8.2346  -15.5026   24.8593 C   0  0  0  0  0  0  0  0  0  0  0  0
    7.3210  -16.3984   24.8173 O   0  0  0  0  0  0  0  0  0  0  0  0
   10.3218  -17.9872   23.5818 C   0  0  0  0  0  0  0  0  0  0  0  0
   10.7401  -17.9537   25.0298 C   0  0  1  0  0  0  0  0  0  0  0  0
   11.9128  -17.2088   25.1326 O   0  0  0  0  0  0  0  0  0  0  0  0
    9.6313  -17.3022   25.8540 C   0  0  2  0  0  0  0  0  0  0  0  0
    9.4722  -15.9215   25.3874 N   0  0  0  0  0  0  0  0  0  0  0  0
    9.9443  -17.3301   27.2935 C   0  0  0  0  0  0  0  0  0  0  0  0
   10.0893  -16.2602   27.9648 O   0  0  0  0  0  0  0  0  0  0  0  0
   10.0922  -18.5259   27.9683 O   0  0  0  0  0  0  0  0  0  0  0  0
  2  1  1  0
  3  2  1  0
  4  5  1  0
  4  3  1  0
  5  1  1  0
  6  8  1  0
  5  6  1  1
  7  6  2  0
  9 12  1  0
  9  8  1  0
  9 10  1  1
 11 10  1  0
 12 18  1  0
 13 12  2  0
 15 16  1  0
 15 14  1  6
 17 19  1  0
 17 15  1  0
 17 18  1  6
 19 21  1  0
 20 19  2  0
M  END
$$$$
