PCT.pdb
     RDKit          3D

 21 21  0  0  1  0  0  0  0  0999 V2000
    6.7380  -14.6030   20.8929 N   0  0  0  0  0  0  0  0  0  0  0  0
    6.3005  -14.1878   19.5809 C   0  0  0  0  0  0  0  0  0  0  0  0
    7.1705  -13.0147   19.2155 C   0  0  0  0  0  0  0  0  0  0  0  0
    8.1649  -12.8871   20.3280 C   0  0  0  0  0  0  0  0  0  0  0  0
    8.1310  -14.2375   20.9847 C   0  0  1  0  0  0  0  0  0  0  0  0
    8.6056  -14.2168   22.3845 C   0  0  0  0  0  0  0  0  0  0  0  0
    9.8358  -14.0823   22.6021 O   0  0  0  0  0  0  0  0  0  0  0  0
    7.7140  -14.3434   23.4584 N   0  0  0  0  0  0  0  0  0  0  0  0
    8.1146  -14.1787   24.8622 C   0  0  1  0  0  0  0  0  0  0  0  0
    7.0684  -13.3659   25.5929 C   0  0  0  0  0  0  0  0  0  0  0  0
    7.3845  -13.2641   27.3627 S   0  0  0  0  0  0  0  0  0  0  0  0
    8.3483  -15.5129   25.4211 C   0  0  0  0  0  0  0  0  0  0  0  0
    7.3677  -16.3268   25.5433 O   0  0  0  0  0  0  0  0  0  0  0  0
    9.8933  -18.5083   24.4496 C   0  0  0  0  0  0  0  0  0  0  0  0
   10.5543  -18.2242   25.7745 C   0  0  1  0  0  0  0  0  0  0  0  0
   11.7942  -17.6375   25.5315 O   0  0  0  0  0  0  0  0  0  0  0  0
    9.6716  -17.2708   26.5777 C   0  0  2  0  0  0  0  0  0  0  0  0
    9.5991  -16.0000   25.8502 N   0  0  0  0  0  0  0  0  0  0  0  0
   10.2034  -17.0612   27.9357 C   0  0  0  0  0  0  0  0  0  0  0  0
   10.5779  -15.9138   28.3349 O   0  0  0  0  0  0  0  0  0  0  0  0
   10.3144  -18.1095   28.8279 O   0  0  0  0  0  0  0  0  0  0  0  0
  2  1  1  0
  3  2  1  0
  4  5  1  0
  4  3  1  0
  5  1  1  0
  6  8  1  0
  5  6  1  1
  7  6  2  0
  9 12  1  0
  9  8  1  0
  9 10  1  1
 11 10  1  0
 12 18  1  0
 13 12  2  0
 15 16  1  0
 15 14  1  6
 17 19  1  0
 17 15  1  0
 17 18  1  6
 19 21  1  0
 20 19  2  0
M  END
$$$$
