PCT.pdb
     RDKit          3D

 21 21  0  0  1  0  0  0  0  0999 V2000
    7.6642  -14.8956   18.6965 N   0  0  0  0  0  0  0  0  0  0  0  0
    7.8451  -13.9530   17.6176 C   0  0  0  0  0  0  0  0  0  0  0  0
    7.9373  -12.6003   18.2719 C   0  0  0  0  0  0  0  0  0  0  0  0
    7.9137  -12.8621   19.7463 C   0  0  0  0  0  0  0  0  0  0  0  0
    8.3010  -14.3095   19.8512 C   0  0  1  0  0  0  0  0  0  0  0  0
    7.8536  -14.9427   21.1097 C   0  0  0  0  0  0  0  0  0  0  0  0
    6.6517  -15.2942   21.2137 O   0  0  0  0  0  0  0  0  0  0  0  0
    8.7399  -15.1536   22.1748 N   0  0  0  0  0  0  0  0  0  0  0  0
    8.3470  -15.7998   23.4343 C   0  0  1  0  0  0  0  0  0  0  0  0
    9.0894  -17.1099   23.5817 C   0  0  0  0  0  0  0  0  0  0  0  0
    8.9259  -17.8148   25.2306 S   0  0  0  0  0  0  0  0  0  0  0  0
    8.5788  -14.8436   24.5201 C   0  0  0  0  0  0  0  0  0  0  0  0
    9.6397  -14.1271   24.5145 O   0  0  0  0  0  0  0  0  0  0  0  0
    6.6238  -11.8785   25.7483 C   0  0  0  0  0  0  0  0  0  0  0  0
    6.8524  -12.7900   26.9272 C   0  0  1  0  0  0  0  0  0  0  0  0
    5.7206  -13.5847   27.0957 O   0  0  0  0  0  0  0  0  0  0  0  0
    8.0720  -13.6669   26.6502 C   0  0  2  0  0  0  0  0  0  0  0  0
    7.7085  -14.6318   25.6080 N   0  0  0  0  0  0  0  0  0  0  0  0
    8.5208  -14.3640   27.8682 C   0  0  0  0  0  0  0  0  0  0  0  0
    8.5329  -15.6329   27.9437 O   0  0  0  0  0  0  0  0  0  0  0  0
    8.9467  -13.6596   28.9772 O   0  0  0  0  0  0  0  0  0  0  0  0
  2  1  1  0
  3  2  1  0
  4  5  1  0
  4  3  1  0
  5  1  1  0
  6  8  1  0
  5  6  1  1
  7  6  2  0
  9 12  1  0
  9  8  1  0
  9 10  1  1
 11 10  1  0
 12 18  1  0
 13 12  2  0
 15 16  1  0
 15 14  1  6
 17 19  1  0
 17 15  1  0
 17 18  1  6
 19 21  1  0
 20 19  2  0
M  END
$$$$
