PCT.pdb
     RDKit          3D

 21 21  0  0  1  0  0  0  0  0999 V2000
    6.8850  -14.5015   20.7014 N   0  0  0  0  0  0  0  0  0  0  0  0
    6.4824  -14.0391   19.3939 C   0  0  0  0  0  0  0  0  0  0  0  0
    7.3533  -12.8469   19.0995 C   0  0  0  0  0  0  0  0  0  0  0  0
    8.3140  -12.7554   20.2448 C   0  0  0  0  0  0  0  0  0  0  0  0
    8.2718  -14.1303   20.8479 C   0  0  1  0  0  0  0  0  0  0  0  0
    8.7054  -14.1603   22.2607 C   0  0  0  0  0  0  0  0  0  0  0  0
    9.9355  -14.1272   22.5147 O   0  0  0  0  0  0  0  0  0  0  0  0
    7.7755  -14.2244   23.3074 N   0  0  0  0  0  0  0  0  0  0  0  0
    8.1431  -14.0782   24.7222 C   0  0  1  0  0  0  0  0  0  0  0  0
    7.0711  -13.2905   25.4429 C   0  0  0  0  0  0  0  0  0  0  0  0
    7.3880  -13.1489   27.2098 S   0  0  0  0  0  0  0  0  0  0  0  0
    8.3812  -15.4186   25.2642 C   0  0  0  0  0  0  0  0  0  0  0  0
    7.4133  -16.2539   25.3307 O   0  0  0  0  0  0  0  0  0  0  0  0
   10.0991  -18.2787   24.1873 C   0  0  0  0  0  0  0  0  0  0  0  0
   10.6683  -18.0682   25.5674 C   0  0  1  0  0  0  0  0  0  0  0  0
   11.8977  -17.4248   25.4436 O   0  0  0  0  0  0  0  0  0  0  0  0
    9.7039  -17.2045   26.3780 C   0  0  2  0  0  0  0  0  0  0  0  0
    9.6235  -15.8897   25.7342 N   0  0  0  0  0  0  0  0  0  0  0  0
   10.1477  -17.0706   27.7765 C   0  0  0  0  0  0  0  0  0  0  0  0
   10.4532  -15.9411   28.2735 O   0  0  0  0  0  0  0  0  0  0  0  0
   10.2481  -18.1734   28.6017 O   0  0  0  0  0  0  0  0  0  0  0  0
  2  1  1  0
  3  2  1  0
  4  5  1  0
  4  3  1  0
  5  1  1  0
  6  8  1  0
  5  6  1  1
  7  6  2  0
  9 12  1  0
  9  8  1  0
  9 10  1  1
 11 10  1  0
 12 18  1  0
 13 12  2  0
 15 16  1  0
 15 14  1  6
 17 19  1  0
 17 15  1  0
 17 18  1  6
 19 21  1  0
 20 19  2  0
M  END
$$$$
