PCT.pdb
     RDKit          3D

 21 21  0  0  1  0  0  0  0  0999 V2000
    8.5939  -15.2470   19.5881 N   0  0  0  0  0  0  0  0  0  0  0  0
    7.8235  -15.8168   18.5077 C   0  0  0  0  0  0  0  0  0  0  0  0
    6.7289  -16.6135   19.1663 C   0  0  0  0  0  0  0  0  0  0  0  0
    6.8711  -16.3584   20.6352 C   0  0  0  0  0  0  0  0  0  0  0  0
    7.6800  -15.0942   20.6944 C   0  0  1  0  0  0  0  0  0  0  0  0
    8.3912  -14.9171   21.9780 C   0  0  0  0  0  0  0  0  0  0  0  0
    9.6213  -15.1688   22.0255 O   0  0  0  0  0  0  0  0  0  0  0  0
    7.7211  -14.4780   23.1280 N   0  0  0  0  0  0  0  0  0  0  0  0
    8.3806  -14.3085   24.4298 C   0  0  1  0  0  0  0  0  0  0  0  0
    7.5334  -13.4178   25.3119 C   0  0  0  0  0  0  0  0  0  0  0  0
    8.2154  -13.2364   26.9685 S   0  0  0  0  0  0  0  0  0  0  0  0
    8.6371  -15.6424   24.9794 C   0  0  0  0  0  0  0  0  0  0  0  0
    7.6654  -16.4631   25.1241 O   0  0  0  0  0  0  0  0  0  0  0  0
   10.5386  -18.4270   23.7424 C   0  0  0  0  0  0  0  0  0  0  0  0
   11.0536  -18.2400   25.1469 C   0  0  1  0  0  0  0  0  0  0  0  0
   12.2483  -17.5261   25.0868 O   0  0  0  0  0  0  0  0  0  0  0  0
   10.0187  -17.4625   25.9579 C   0  0  2  0  0  0  0  0  0  0  0  0
    9.9015  -16.1220   25.3758 N   0  0  0  0  0  0  0  0  0  0  0  0
   10.4008  -17.3793   27.3784 C   0  0  0  0  0  0  0  0  0  0  0  0
   10.6010  -16.2617   27.9503 O   0  0  0  0  0  0  0  0  0  0  0  0
   10.5560  -18.5187   28.1433 O   0  0  0  0  0  0  0  0  0  0  0  0
  2  1  1  0
  3  2  1  0
  4  5  1  0
  4  3  1  0
  5  1  1  0
  6  8  1  0
  5  6  1  1
  7  6  2  0
  9 12  1  0
  9  8  1  0
  9 10  1  1
 11 10  1  0
 12 18  1  0
 13 12  2  0
 15 16  1  0
 15 14  1  6
 17 19  1  0
 17 15  1  0
 17 18  1  6
 19 21  1  0
 20 19  2  0
M  END
$$$$
