PCT.pdb
     RDKit          3D

 21 21  0  0  1  0  0  0  0  0999 V2000
    7.0226  -14.7731   20.3543 N   0  0  0  0  0  0  0  0  0  0  0  0
    6.6661  -14.3974   19.0063 C   0  0  0  0  0  0  0  0  0  0  0  0
    7.3978  -13.1095   18.7372 C   0  0  0  0  0  0  0  0  0  0  0  0
    8.2481  -12.8675   19.9461 C   0  0  0  0  0  0  0  0  0  0  0  0
    8.3353  -14.2219   20.5897 C   0  0  1  0  0  0  0  0  0  0  0  0
    8.6593  -14.1625   22.0306 C   0  0  0  0  0  0  0  0  0  0  0  0
    9.8412  -13.9078   22.3729 O   0  0  0  0  0  0  0  0  0  0  0  0
    7.6792  -14.3834   23.0078 N   0  0  0  0  0  0  0  0  0  0  0  0
    7.9318  -14.2453   24.4484 C   0  0  1  0  0  0  0  0  0  0  0  0
    6.7775  -13.5109   25.0945 C   0  0  0  0  0  0  0  0  0  0  0  0
    6.8998  -13.4757   26.8907 S   0  0  0  0  0  0  0  0  0  0  0  0
    8.1810  -15.5837   24.9902 C   0  0  0  0  0  0  0  0  0  0  0  0
    7.2452  -16.4571   24.9704 O   0  0  0  0  0  0  0  0  0  0  0  0
    9.7355  -18.2668   23.8130 C   0  0  0  0  0  0  0  0  0  0  0  0
   10.3912  -18.1904   25.1684 C   0  0  1  0  0  0  0  0  0  0  0  0
   11.6344  -17.5789   25.0227 O   0  0  0  0  0  0  0  0  0  0  0  0
    9.5081  -17.3665   26.1036 C   0  0  2  0  0  0  0  0  0  0  0  0
    9.4011  -16.0133   25.5495 N   0  0  0  0  0  0  0  0  0  0  0  0
   10.0617  -17.3255   27.4684 C   0  0  0  0  0  0  0  0  0  0  0  0
   10.4436  -16.2358   28.0002 O   0  0  0  0  0  0  0  0  0  0  0  0
   10.1861  -18.4758   28.2225 O   0  0  0  0  0  0  0  0  0  0  0  0
  2  1  1  0
  3  2  1  0
  4  5  1  0
  4  3  1  0
  5  1  1  0
  6  8  1  0
  5  6  1  1
  7  6  2  0
  9 12  1  0
  9  8  1  0
  9 10  1  1
 11 10  1  0
 12 18  1  0
 13 12  2  0
 15 16  1  0
 15 14  1  6
 17 19  1  0
 17 15  1  0
 17 18  1  6
 19 21  1  0
 20 19  2  0
M  END
$$$$
