KMW.pdb
     RDKit          3D

 32 33  0  0  1  0  0  0  0  0999 V2000
    7.8586  -14.2279   19.2662 N   0  0  0  0  0  0  0  0  0  0  0  0
    8.0482  -15.6740   19.3695 C   0  0  1  0  0  0  0  0  0  0  0  0
    8.9673  -16.1830   18.3100 C   0  0  0  0  0  0  0  0  0  0  0  0
    8.3716  -16.1159   16.9258 C   0  0  0  0  0  0  0  0  0  0  0  0
    9.2182  -16.6876   15.8364 C   0  0  0  0  0  0  0  0  0  0  0  0
    8.6603  -16.6305   14.4599 C   0  0  0  0  0  0  0  0  0  0  0  0
    9.6277  -17.2610   13.5657 N   0  0  0  0  0  0  0  0  0  0  0  0
    8.6230  -15.8924   20.7382 C   0  0  0  0  0  0  0  0  0  0  0  0
    9.5946  -15.1804   21.1237 O   0  0  0  0  0  0  0  0  0  0  0  0
    7.7954  -12.1914   25.2196 C   0  0  0  0  0  0  0  0  0  0  0  0
    6.5873  -13.5377   25.2733 S   0  0  0  0  0  0  0  0  0  0  0  0
    7.4490  -15.0788   24.8403 C   0  0  0  0  0  0  0  0  0  0  0  0
    7.3186  -15.3961   23.3660 C   0  0  0  0  0  0  0  0  0  0  0  0
    7.9947  -16.6957   23.0660 C   0  0  2  0  0  0  0  0  0  0  0  0
    8.1244  -16.8761   21.6230 N   0  0  0  0  0  0  0  0  0  0  0  0
    7.4572  -17.8861   23.6972 C   0  0  0  0  0  0  0  0  0  0  0  0
    6.4732  -18.4920   23.1374 O   0  0  0  0  0  0  0  0  0  0  0  0
    7.9225  -18.4539   24.8860 N   0  0  0  0  0  0  0  0  0  0  0  0
    9.1989  -18.0054   25.4583 C   0  0  1  0  0  0  0  0  0  0  0  0
    9.2391  -16.4993   25.4343 C   0  0  0  0  0  0  0  0  0  0  0  0
   10.3925  -15.8973   26.1291 C   0  0  0  0  0  0  0  0  0  0  0  0
   11.6930  -15.6759   25.7784 C   0  0  0  0  0  0  0  0  0  0  0  0
   12.3185  -15.0062   26.7780 N   0  0  0  0  0  0  0  0  0  0  0  0
   11.4577  -14.7698   27.8069 C   0  0  0  0  0  0  0  0  0  0  0  0
   11.5966  -14.1654   29.0411 C   0  0  0  0  0  0  0  0  0  0  0  0
   10.4913  -14.1286   29.8897 C   0  0  0  0  0  0  0  0  0  0  0  0
    9.2693  -14.6666   29.5417 C   0  0  0  0  0  0  0  0  0  0  0  0
    9.1904  -15.2565   28.2937 C   0  0  0  0  0  0  0  0  0  0  0  0
   10.2572  -15.3224   27.4120 C   0  0  0  0  0  0  0  0  0  0  0  0
    9.1646  -18.3993   26.8928 C   0  0  0  0  0  0  0  0  0  0  0  0
    7.9918  -18.7486   27.4981 O   0  0  0  0  0  0  0  0  0  0  0  0
   10.2357  -18.4163   27.5835 O   0  0  0  0  0  0  0  0  0  0  0  0
  2  1  1  6
  3  2  1  0
  4  3  1  0
  5  4  1  0
  5  6  1  0
  7  6  1  0
  8  2  1  0
  9  8  2  0
 10 11  1  0
 12 11  1  0
 12 13  1  0
 14 13  1  6
 14 15  1  0
 15  8  1  0
 16 17  2  0
 16 14  1  0
 18 16  1  0
 19 20  1  1
 19 18  1  0
 21 20  1  0
 21 22  2  0
 23 22  1  0
 24 23  1  0
 25 24  2  0
 26 25  1  0
 27 26  2  0
 27 28  1  0
 28 29  2  0
 29 24  1  0
 29 21  1  0
 30 19  1  0
 31 30  1  0
 32 30  2  0
M  END
$$$$
