KMW.pdb
     RDKit          3D

 32 33  0  0  1  0  0  0  0  0999 V2000
    8.5758  -18.3963   19.1260 N   0  0  0  0  0  0  0  0  0  0  0  0
    8.7672  -17.2328   19.9906 C   0  0  1  0  0  0  0  0  0  0  0  0
    8.0051  -16.0500   19.4939 C   0  0  0  0  0  0  0  0  0  0  0  0
    8.8906  -14.8854   19.1269 C   0  0  0  0  0  0  0  0  0  0  0  0
    8.1741  -13.6283   18.7570 C   0  0  0  0  0  0  0  0  0  0  0  0
    9.0112  -12.4139   18.5737 C   0  0  0  0  0  0  0  0  0  0  0  0
    8.1205  -11.3155   18.2086 N   0  0  0  0  0  0  0  0  0  0  0  0
    8.2763  -17.6680   21.3399 C   0  0  0  0  0  0  0  0  0  0  0  0
    7.1817  -18.2955   21.4290 O   0  0  0  0  0  0  0  0  0  0  0  0
    6.5825  -22.4174   25.5250 C   0  0  0  0  0  0  0  0  0  0  0  0
    8.1600  -21.6731   25.0427 S   0  0  0  0  0  0  0  0  0  0  0  0
    7.8206  -20.4218   23.7683 C   0  0  0  0  0  0  0  0  0  0  0  0
    9.0737  -19.6666   23.3798 C   0  0  0  0  0  0  0  0  0  0  0  0
    8.9243  -18.2216   23.7341 C   0  0  2  0  0  0  0  0  0  0  0  0
    8.9887  -17.3973   22.5308 N   0  0  0  0  0  0  0  0  0  0  0  0
    9.7897  -17.6992   24.7746 C   0  0  0  0  0  0  0  0  0  0  0  0
   11.0590  -17.6982   24.5804 O   0  0  0  0  0  0  0  0  0  0  0  0
    9.3627  -17.1798   25.9994 N   0  0  0  0  0  0  0  0  0  0  0  0
   10.2741  -16.3488   26.7972 C   0  0  1  0  0  0  0  0  0  0  0  0
    9.4681  -15.3008   27.5202 C   0  0  0  0  0  0  0  0  0  0  0  0
    8.1678  -14.9809   26.9019 C   0  0  0  0  0  0  0  0  0  0  0  0
    7.1103  -15.7377   26.4867 C   0  0  0  0  0  0  0  0  0  0  0  0
    6.1169  -14.9211   26.0563 N   0  0  0  0  0  0  0  0  0  0  0  0
    6.4871  -13.6153   26.1729 C   0  0  0  0  0  0  0  0  0  0  0  0
    5.8687  -12.4214   25.8565 C   0  0  0  0  0  0  0  0  0  0  0  0
    6.5670  -11.2348   26.0744 C   0  0  0  0  0  0  0  0  0  0  0  0
    7.8441  -11.2094   26.5962 C   0  0  0  0  0  0  0  0  0  0  0  0
    8.4104  -12.4349   26.8951 C   0  0  0  0  0  0  0  0  0  0  0  0
    7.7625  -13.6435   26.6970 C   0  0  0  0  0  0  0  0  0  0  0  0
   10.8312  -17.2446   27.8466 C   0  0  0  0  0  0  0  0  0  0  0  0
   11.8181  -16.8148   28.6864 O   0  0  0  0  0  0  0  0  0  0  0  0
   10.3939  -18.4345   27.9786 O   0  0  0  0  0  0  0  0  0  0  0  0
  2  1  1  6
  3  2  1  0
  4  3  1  0
  5  4  1  0
  5  6  1  0
  7  6  1  0
  8  2  1  0
  9  8  2  0
 10 11  1  0
 12 11  1  0
 12 13  1  0
 14 13  1  6
 14 15  1  0
 15  8  1  0
 16 17  2  0
 16 14  1  0
 18 16  1  0
 19 20  1  1
 19 18  1  0
 21 20  1  0
 21 22  2  0
 23 22  1  0
 24 23  1  0
 25 24  2  0
 26 25  1  0
 27 26  2  0
 27 28  1  0
 28 29  2  0
 29 24  1  0
 29 21  1  0
 30 19  1  0
 31 30  1  0
 32 30  2  0
M  END
$$$$
