KMW.pdb
     RDKit          3D

 32 33  0  0  1  0  0  0  0  0999 V2000
   10.4354  -18.8624   19.3268 N   0  0  0  0  0  0  0  0  0  0  0  0
   11.6740  -18.0997   19.4757 C   0  0  1  0  0  0  0  0  0  0  0  0
   12.1465  -17.5615   18.1666 C   0  0  0  0  0  0  0  0  0  0  0  0
   11.6574  -18.3615   16.9851 C   0  0  0  0  0  0  0  0  0  0  0  0
   10.8990  -17.5872   15.9576 C   0  0  0  0  0  0  0  0  0  0  0  0
   10.4817  -18.3285   14.7389 C   0  0  0  0  0  0  0  0  0  0  0  0
    9.7434  -17.3986   13.8885 N   0  0  0  0  0  0  0  0  0  0  0  0
   11.3343  -16.9914   20.4282 C   0  0  0  0  0  0  0  0  0  0  0  0
   12.1539  -16.0423   20.5931 O   0  0  0  0  0  0  0  0  0  0  0  0
    7.7728  -12.1733   18.9717 C   0  0  0  0  0  0  0  0  0  0  0  0
    7.3347  -13.3212   20.3004 S   0  0  0  0  0  0  0  0  0  0  0  0
    8.8368  -14.2309   20.7705 C   0  0  0  0  0  0  0  0  0  0  0  0
    8.5556  -15.2523   21.8517 C   0  0  0  0  0  0  0  0  0  0  0  0
    9.8134  -15.9833   22.1972 C   0  0  2  0  0  0  0  0  0  0  0  0
   10.1269  -16.9655   21.1635 N   0  0  0  0  0  0  0  0  0  0  0  0
    9.8993  -16.5698   23.5212 C   0  0  0  0  0  0  0  0  0  0  0  0
    9.4479  -17.7583   23.7014 O   0  0  0  0  0  0  0  0  0  0  0  0
   10.4441  -15.9500   24.6487 N   0  0  0  0  0  0  0  0  0  0  0  0
    9.7728  -16.0800   25.9488 C   0  0  1  0  0  0  0  0  0  0  0  0
    8.3686  -16.5776   25.7225 C   0  0  0  0  0  0  0  0  0  0  0  0
    7.3195  -15.5462   25.8266 C   0  0  0  0  0  0  0  0  0  0  0  0
    5.9617  -15.5659   25.6868 C   0  0  0  0  0  0  0  0  0  0  0  0
    5.4645  -14.3368   25.9711 N   0  0  0  0  0  0  0  0  0  0  0  0
    6.4697  -13.4792   26.3023 C   0  0  0  0  0  0  0  0  0  0  0  0
    6.5026  -12.1402   26.6398 C   0  0  0  0  0  0  0  0  0  0  0  0
    7.7405  -11.5487   26.8864 C   0  0  0  0  0  0  0  0  0  0  0  0
    8.9269  -12.2493   26.8108 C   0  0  0  0  0  0  0  0  0  0  0  0
    8.8307  -13.5860   26.4706 C   0  0  0  0  0  0  0  0  0  0  0  0
    7.6275  -14.2233   26.2136 C   0  0  0  0  0  0  0  0  0  0  0  0
   10.4890  -17.1655   26.6720 C   0  0  0  0  0  0  0  0  0  0  0  0
   11.4579  -17.9020   26.0535 O   0  0  0  0  0  0  0  0  0  0  0  0
   10.2070  -17.4270   27.8872 O   0  0  0  0  0  0  0  0  0  0  0  0
  2  1  1  6
  3  2  1  0
  4  3  1  0
  5  4  1  0
  5  6  1  0
  7  6  1  0
  8  2  1  0
  9  8  2  0
 10 11  1  0
 12 11  1  0
 12 13  1  0
 14 13  1  6
 14 15  1  0
 15  8  1  0
 16 17  2  0
 16 14  1  0
 18 16  1  0
 19 20  1  6
 19 18  1  0
 21 20  1  0
 21 22  2  0
 23 22  1  0
 24 23  1  0
 25 24  2  0
 26 25  1  0
 27 26  2  0
 27 28  1  0
 28 29  2  0
 29 24  1  0
 29 21  1  0
 30 19  1  0
 31 30  1  0
 32 30  2  0
M  END
$$$$
