KMW.pdb
     RDKit          3D

 32 33  0  0  1  0  0  0  0  0999 V2000
   11.6299  -15.3205   18.0379 N   0  0  0  0  0  0  0  0  0  0  0  0
   12.4548  -15.2805   19.2445 C   0  0  1  0  0  0  0  0  0  0  0  0
   13.5503  -14.2745   19.1259 C   0  0  0  0  0  0  0  0  0  0  0  0
   14.6239  -14.6794   18.1467 C   0  0  0  0  0  0  0  0  0  0  0  0
   16.0042  -14.2199   18.4843 C   0  0  0  0  0  0  0  0  0  0  0  0
   17.0618  -14.4913   17.4759 C   0  0  0  0  0  0  0  0  0  0  0  0
   18.3203  -13.9741   18.0068 N   0  0  0  0  0  0  0  0  0  0  0  0
   11.5061  -14.9230   20.3506 C   0  0  0  0  0  0  0  0  0  0  0  0
   11.3735  -13.7108   20.6863 O   0  0  0  0  0  0  0  0  0  0  0  0
    7.0522  -12.5830   19.2506 C   0  0  0  0  0  0  0  0  0  0  0  0
    7.5380  -13.4528   20.7614 S   0  0  0  0  0  0  0  0  0  0  0  0
    8.0312  -15.1406   20.3001 C   0  0  0  0  0  0  0  0  0  0  0  0
    8.3737  -15.9742   21.5163 C   0  0  0  0  0  0  0  0  0  0  0  0
    9.7211  -15.5844   22.0343 C   0  0  2  0  0  0  0  0  0  0  0  0
   10.7508  -15.8945   21.0469 N   0  0  0  0  0  0  0  0  0  0  0  0
   10.0933  -16.0687   23.3500 C   0  0  0  0  0  0  0  0  0  0  0  0
   10.8959  -17.0673   23.4371 O   0  0  0  0  0  0  0  0  0  0  0  0
    9.6533  -15.5361   24.5645 N   0  0  0  0  0  0  0  0  0  0  0  0
   10.0796  -16.1514   25.8284 C   0  0  1  0  0  0  0  0  0  0  0  0
    9.1626  -15.6845   26.9292 C   0  0  0  0  0  0  0  0  0  0  0  0
    7.8659  -15.1500   26.4729 C   0  0  0  0  0  0  0  0  0  0  0  0
    6.7004  -15.7292   26.0611 C   0  0  0  0  0  0  0  0  0  0  0  0
    5.7789  -14.7626   25.8255 N   0  0  0  0  0  0  0  0  0  0  0  0
    6.3049  -13.5304   26.0716 C   0  0  0  0  0  0  0  0  0  0  0  0
    5.8068  -12.2466   25.9628 C   0  0  0  0  0  0  0  0  0  0  0  0
    6.6516  -11.1798   26.2651 C   0  0  0  0  0  0  0  0  0  0  0  0
    7.9581  -11.3587   26.6714 C   0  0  0  0  0  0  0  0  0  0  0  0
    8.3996  -12.6657   26.7634 C   0  0  0  0  0  0  0  0  0  0  0  0
    7.6037  -13.7622   26.4735 C   0  0  0  0  0  0  0  0  0  0  0  0
    9.8375  -17.6115   25.6744 C   0  0  0  0  0  0  0  0  0  0  0  0
   10.8221  -18.5192   25.9397 O   0  0  0  0  0  0  0  0  0  0  0  0
    8.7006  -18.0404   25.2895 O   0  0  0  0  0  0  0  0  0  0  0  0
  2  1  1  6
  3  2  1  0
  4  3  1  0
  5  4  1  0
  5  6  1  0
  7  6  1  0
  8  2  1  0
  9  8  2  0
 10 11  1  0
 12 11  1  0
 12 13  1  0
 14 13  1  6
 14 15  1  0
 15  8  1  0
 16 17  2  0
 16 14  1  0
 18 16  1  0
 19 20  1  1
 19 18  1  0
 21 20  1  0
 21 22  2  0
 23 22  1  0
 24 23  1  0
 25 24  2  0
 26 25  1  0
 27 26  2  0
 27 28  1  0
 28 29  2  0
 29 24  1  0
 29 21  1  0
 30 19  1  0
 31 30  1  0
 32 30  2  0
M  END
$$$$
