KMW.pdb
     RDKit          3D

 32 33  0  0  1  0  0  0  0  0999 V2000
    6.6007  -19.9377   19.2245 N   0  0  0  0  0  0  0  0  0  0  0  0
    6.6921  -19.7777   20.6750 C   0  0  1  0  0  0  0  0  0  0  0  0
    7.0972  -21.0496   21.3419 C   0  0  0  0  0  0  0  0  0  0  0  0
    6.1779  -22.2033   21.0269 C   0  0  0  0  0  0  0  0  0  0  0  0
    6.8526  -23.5172   20.8056 C   0  0  0  0  0  0  0  0  0  0  0  0
    5.9818  -24.6546   20.4094 C   0  0  0  0  0  0  0  0  0  0  0  0
    6.8513  -25.7765   20.0657 N   0  0  0  0  0  0  0  0  0  0  0  0
    7.7198  -18.7043   20.8823 C   0  0  0  0  0  0  0  0  0  0  0  0
    8.9416  -19.0220   20.9600 O   0  0  0  0  0  0  0  0  0  0  0  0
    6.6648  -11.9715   20.7428 C   0  0  0  0  0  0  0  0  0  0  0  0
    8.2935  -12.3364   20.0434 S   0  0  0  0  0  0  0  0  0  0  0  0
    8.8704  -13.9044   20.7599 C   0  0  0  0  0  0  0  0  0  0  0  0
    7.7923  -14.9662   20.7206 C   0  0  0  0  0  0  0  0  0  0  0  0
    8.3407  -16.2635   21.2228 C   0  0  2  0  0  0  0  0  0  0  0  0
    7.3769  -17.3380   21.0033 N   0  0  0  0  0  0  0  0  0  0  0  0
    8.8535  -16.2880   22.5795 C   0  0  0  0  0  0  0  0  0  0  0  0
    8.1699  -16.8846   23.4882 O   0  0  0  0  0  0  0  0  0  0  0  0
   10.0540  -15.7122   23.0030 N   0  0  0  0  0  0  0  0  0  0  0  0
   10.4213  -15.7528   24.4247 C   0  0  1  0  0  0  0  0  0  0  0  0
    9.1710  -15.9436   25.2438 C   0  0  0  0  0  0  0  0  0  0  0  0
    8.9629  -14.9390   26.3034 C   0  0  0  0  0  0  0  0  0  0  0  0
    9.5469  -14.7146   27.5167 C   0  0  0  0  0  0  0  0  0  0  0  0
    9.0240  -13.5895   28.0640 N   0  0  0  0  0  0  0  0  0  0  0  0
    8.0887  -13.0454   27.2365 C   0  0  0  0  0  0  0  0  0  0  0  0
    7.2623  -11.9427   27.3328 C   0  0  0  0  0  0  0  0  0  0  0  0
    6.3699  -11.6899   26.2923 C   0  0  0  0  0  0  0  0  0  0  0  0
    6.2859  -12.4937   25.1738 C   0  0  0  0  0  0  0  0  0  0  0  0
    7.1389  -13.5811   25.1329 C   0  0  0  0  0  0  0  0  0  0  0  0
    8.0434  -13.8797   26.1392 C   0  0  0  0  0  0  0  0  0  0  0  0
   11.2299  -16.9891   24.6029 C   0  0  0  0  0  0  0  0  0  0  0  0
   11.3551  -17.8990   23.5928 O   0  0  0  0  0  0  0  0  0  0  0  0
   11.8213  -17.2201   25.7081 O   0  0  0  0  0  0  0  0  0  0  0  0
  2  1  1  6
  3  2  1  0
  4  3  1  0
  5  4  1  0
  5  6  1  0
  7  6  1  0
  8  2  1  0
  9  8  2  0
 10 11  1  0
 12 11  1  0
 12 13  1  0
 14 13  1  1
 14 15  1  0
 15  8  1  0
 16 17  2  0
 16 14  1  0
 18 16  1  0
 19 20  1  1
 19 18  1  0
 21 20  1  0
 21 22  2  0
 23 22  1  0
 24 23  1  0
 25 24  2  0
 26 25  1  0
 27 26  2  0
 27 28  1  0
 28 29  2  0
 29 24  1  0
 29 21  1  0
 30 19  1  0
 31 30  1  0
 32 30  2  0
M  END
$$$$
