KMW.pdb
     RDKit          3D

 32 33  0  0  1  0  0  0  0  0999 V2000
    9.5756  -20.1569   19.4480 N   0  0  0  0  0  0  0  0  0  0  0  0
    9.3337  -19.8587   20.8588 C   0  0  1  0  0  0  0  0  0  0  0  0
   10.2342  -20.6492   21.7480 C   0  0  0  0  0  0  0  0  0  0  0  0
    9.5279  -21.7803   22.4530 C   0  0  0  0  0  0  0  0  0  0  0  0
   10.3819  -22.5990   23.3645 C   0  0  0  0  0  0  0  0  0  0  0  0
    9.6942  -23.6570   24.1497 C   0  0  0  0  0  0  0  0  0  0  0  0
   10.7012  -24.3174   24.9761 N   0  0  0  0  0  0  0  0  0  0  0  0
    9.5924  -18.3869   20.9935 C   0  0  0  0  0  0  0  0  0  0  0  0
   10.6721  -17.9035   20.5460 O   0  0  0  0  0  0  0  0  0  0  0  0
    7.0254  -12.3684   18.9993 C   0  0  0  0  0  0  0  0  0  0  0  0
    6.6335  -12.8341   20.7036 S   0  0  0  0  0  0  0  0  0  0  0  0
    8.0189  -13.8208   21.3455 C   0  0  0  0  0  0  0  0  0  0  0  0
    7.7146  -15.3031   21.3048 C   0  0  0  0  0  0  0  0  0  0  0  0
    8.8978  -16.0765   21.7924 C   0  0  2  0  0  0  0  0  0  0  0  0
    8.6742  -17.5080   21.6128 N   0  0  0  0  0  0  0  0  0  0  0  0
    9.3780  -15.7843   23.1296 C   0  0  0  0  0  0  0  0  0  0  0  0
    9.7778  -14.5936   23.3966 O   0  0  0  0  0  0  0  0  0  0  0  0
    9.4456  -16.6980   24.1845 N   0  0  0  0  0  0  0  0  0  0  0  0
   10.0842  -16.3075   25.4484 C   0  0  1  0  0  0  0  0  0  0  0  0
    9.0374  -16.2767   26.5319 C   0  0  0  0  0  0  0  0  0  0  0  0
    7.8037  -15.5474   26.1835 C   0  0  0  0  0  0  0  0  0  0  0  0
    6.5642  -15.9382   25.7661 C   0  0  0  0  0  0  0  0  0  0  0  0
    5.7624  -14.8495   25.6635 N   0  0  0  0  0  0  0  0  0  0  0  0
    6.4431  -13.7203   26.0058 C   0  0  0  0  0  0  0  0  0  0  0  0
    6.1041  -12.3818   26.0426 C   0  0  0  0  0  0  0  0  0  0  0  0
    7.0823  -11.4598   26.4116 C   0  0  0  0  0  0  0  0  0  0  0  0
    8.3681  -11.8340   26.7444 C   0  0  0  0  0  0  0  0  0  0  0  0
    8.6478  -13.1871   26.6910 C   0  0  0  0  0  0  0  0  0  0  0  0
    7.7147  -14.1454   26.3294 C   0  0  0  0  0  0  0  0  0  0  0  0
   11.0132  -17.4165   25.7969 C   0  0  0  0  0  0  0  0  0  0  0  0
   11.8359  -17.3294   26.8828 O   0  0  0  0  0  0  0  0  0  0  0  0
   11.0564  -18.4712   25.0824 O   0  0  0  0  0  0  0  0  0  0  0  0
  2  1  1  6
  3  2  1  0
  4  3  1  0
  5  4  1  0
  5  6  1  0
  7  6  1  0
  8  2  1  0
  9  8  2  0
 10 11  1  0
 12 11  1  0
 12 13  1  0
 14 13  1  1
 14 15  1  0
 15  8  1  0
 16 17  2  0
 16 14  1  0
 18 16  1  0
 19 20  1  1
 19 18  1  0
 21 20  1  0
 21 22  2  0
 23 22  1  0
 24 23  1  0
 25 24  2  0
 26 25  1  0
 27 26  2  0
 27 28  1  0
 28 29  2  0
 29 24  1  0
 29 21  1  0
 30 19  1  0
 31 30  1  0
 32 30  2  0
M  END
$$$$
