KMW.pdb
     RDKit          3D

 32 33  0  0  1  0  0  0  0  0999 V2000
    8.0011  -19.5491   20.8887 N   0  0  0  0  0  0  0  0  0  0  0  0
    9.0207  -19.2062   19.8984 C   0  0  1  0  0  0  0  0  0  0  0  0
    8.4820  -19.2812   18.5089 C   0  0  0  0  0  0  0  0  0  0  0  0
    8.0012  -20.6607   18.1329 C   0  0  0  0  0  0  0  0  0  0  0  0
    8.2887  -21.0777   16.7280 C   0  0  0  0  0  0  0  0  0  0  0  0
    7.7870  -22.4142   16.3141 C   0  0  0  0  0  0  0  0  0  0  0  0
    8.2879  -22.6753   14.9672 N   0  0  0  0  0  0  0  0  0  0  0  0
    9.4410  -17.8078   20.2435 C   0  0  0  0  0  0  0  0  0  0  0  0
    9.5997  -16.9614   19.3170 O   0  0  0  0  0  0  0  0  0  0  0  0
    7.8576  -12.2698   21.3864 C   0  0  0  0  0  0  0  0  0  0  0  0
    7.1575  -13.5426   22.4657 S   0  0  0  0  0  0  0  0  0  0  0  0
    7.8002  -15.1531   21.9196 C   0  0  0  0  0  0  0  0  0  0  0  0
    9.1902  -15.0297   21.3331 C   0  0  0  0  0  0  0  0  0  0  0  0
   10.0941  -16.0459   21.9546 C   0  0  2  0  0  0  0  0  0  0  0  0
    9.6772  -17.3924   21.5741 N   0  0  0  0  0  0  0  0  0  0  0  0
   10.3181  -15.9506   23.3846 C   0  0  0  0  0  0  0  0  0  0  0  0
   11.0382  -14.9875   23.8348 O   0  0  0  0  0  0  0  0  0  0  0  0
    9.8085  -16.8278   24.3453 N   0  0  0  0  0  0  0  0  0  0  0  0
   10.3210  -16.7810   25.7212 C   0  0  1  0  0  0  0  0  0  0  0  0
    9.7429  -15.5740   26.4137 C   0  0  0  0  0  0  0  0  0  0  0  0
    8.3138  -15.3280   26.1443 C   0  0  0  0  0  0  0  0  0  0  0  0
    7.2572  -16.1404   25.8497 C   0  0  0  0  0  0  0  0  0  0  0  0
    6.1268  -15.3952   25.7743 N   0  0  0  0  0  0  0  0  0  0  0  0
    6.4025  -14.0828   26.0134 C   0  0  0  0  0  0  0  0  0  0  0  0
    5.6301  -12.9378   26.0275 C   0  0  0  0  0  0  0  0  0  0  0  0
    6.2571  -11.7178   26.2758 C   0  0  0  0  0  0  0  0  0  0  0  0
    7.6127  -11.6137   26.5115 C   0  0  0  0  0  0  0  0  0  0  0  0
    8.3333  -12.7935   26.4866 C   0  0  0  0  0  0  0  0  0  0  0  0
    7.7615  -14.0319   26.2432 C   0  0  0  0  0  0  0  0  0  0  0  0
    9.7512  -17.9704   26.4104 C   0  0  0  0  0  0  0  0  0  0  0  0
   10.1188  -18.2866   27.6866 O   0  0  0  0  0  0  0  0  0  0  0  0
    8.9065  -18.7177   25.8165 O   0  0  0  0  0  0  0  0  0  0  0  0
  2  1  1  1
  3  2  1  0
  4  3  1  0
  5  4  1  0
  5  6  1  0
  7  6  1  0
  8  2  1  0
  9  8  2  0
 10 11  1  0
 12 11  1  0
 12 13  1  0
 14 13  1  1
 14 15  1  0
 15  8  1  0
 16 17  2  0
 16 14  1  0
 18 16  1  0
 19 20  1  1
 19 18  1  0
 21 20  1  0
 21 22  2  0
 23 22  1  0
 24 23  1  0
 25 24  2  0
 26 25  1  0
 27 26  2  0
 27 28  1  0
 28 29  2  0
 29 24  1  0
 29 21  1  0
 30 19  1  0
 31 30  1  0
 32 30  2  0
M  END
$$$$
