KMW.pdb
     RDKit          3D

 32 33  0  0  1  0  0  0  0  0999 V2000
    6.7067  -17.3106   21.0151 N   0  0  0  0  0  0  0  0  0  0  0  0
    8.0441  -16.7331   21.1410 C   0  0  1  0  0  0  0  0  0  0  0  0
    7.9973  -15.2418   21.1599 C   0  0  0  0  0  0  0  0  0  0  0  0
    8.1184  -14.6273   19.7877 C   0  0  0  0  0  0  0  0  0  0  0  0
    8.2538  -13.1402   19.7622 C   0  0  0  0  0  0  0  0  0  0  0  0
    8.3624  -12.5041   18.4233 C   0  0  0  0  0  0  0  0  0  0  0  0
    8.4362  -11.0597   18.6261 N   0  0  0  0  0  0  0  0  0  0  0  0
    8.5805  -17.2763   22.4327 C   0  0  0  0  0  0  0  0  0  0  0  0
    7.7738  -17.6056   23.3496 O   0  0  0  0  0  0  0  0  0  0  0  0
   12.5437  -22.3499   21.5760 C   0  0  0  0  0  0  0  0  0  0  0  0
   13.0206  -20.8464   22.4631 S   0  0  0  0  0  0  0  0  0  0  0  0
   11.5041  -19.9212   22.8495 C   0  0  0  0  0  0  0  0  0  0  0  0
   11.8007  -18.6744   23.6551 C   0  0  0  0  0  0  0  0  0  0  0  0
   10.5313  -17.9314   23.9240 C   0  0  2  0  0  0  0  0  0  0  0  0
    9.9648  -17.4308   22.6749 N   0  0  0  0  0  0  0  0  0  0  0  0
   10.5705  -16.8924   24.9356 C   0  0  0  0  0  0  0  0  0  0  0  0
   10.9976  -15.7265   24.6082 O   0  0  0  0  0  0  0  0  0  0  0  0
   10.1740  -17.0418   26.2670 N   0  0  0  0  0  0  0  0  0  0  0  0
   10.2969  -15.9108   27.1963 C   0  0  1  0  0  0  0  0  0  0  0  0
    8.9564  -15.6619   27.8379 C   0  0  0  0  0  0  0  0  0  0  0  0
    7.8718  -15.3200   26.8986 C   0  0  0  0  0  0  0  0  0  0  0  0
    6.9261  -16.0549   26.2438 C   0  0  0  0  0  0  0  0  0  0  0  0
    6.1100  -15.2208   25.5530 N   0  0  0  0  0  0  0  0  0  0  0  0
    6.4906  -13.9248   25.7295 C   0  0  0  0  0  0  0  0  0  0  0  0
    6.0229  -12.7224   25.2363 C   0  0  0  0  0  0  0  0  0  0  0  0
    6.6896  -11.5529   25.5979 C   0  0  0  0  0  0  0  0  0  0  0  0
    7.7905  -11.5523   26.4298 C   0  0  0  0  0  0  0  0  0  0  0  0
    8.2112  -12.7851   26.8935 C   0  0  0  0  0  0  0  0  0  0  0  0
    7.5872  -13.9776   26.5645 C   0  0  0  0  0  0  0  0  0  0  0  0
   11.2012  -16.3720   28.2843 C   0  0  0  0  0  0  0  0  0  0  0  0
   11.7014  -17.6423   28.2916 O   0  0  0  0  0  0  0  0  0  0  0  0
   11.5245  -15.5842   29.2327 O   0  0  0  0  0  0  0  0  0  0  0  0
  2  1  1  1
  3  2  1  0
  4  3  1  0
  5  4  1  0
  5  6  1  0
  7  6  1  0
  8  2  1  0
  9  8  2  0
 10 11  1  0
 12 11  1  0
 12 13  1  0
 14 13  1  6
 14 15  1  0
 15  8  1  0
 16 17  2  0
 16 14  1  0
 18 16  1  0
 19 20  1  1
 19 18  1  0
 21 20  1  0
 21 22  2  0
 23 22  1  0
 24 23  1  0
 25 24  2  0
 26 25  1  0
 27 26  2  0
 27 28  1  0
 28 29  2  0
 29 24  1  0
 29 21  1  0
 30 19  1  0
 31 30  1  0
 32 30  2  0
M  END
$$$$
