SAG.pdb
     RDKit          3D

 16 15  0  0  1  0  0  0  0  0999 V2000
    2.3240  -20.1307   20.3831 O   0  0  0  0  0  0  0  0  0  0  0  0
    1.7231  -20.7296   21.5139 C   0  0  0  0  0  0  0  0  0  0  0  0
    1.4185  -22.1876   21.2075 C   0  0  2  0  0  0  0  0  0  0  0  0
    0.4808  -22.3373   20.1467 N   0  0  0  0  0  0  0  0  0  0  0  0
    0.8673  -22.7873   22.4552 C   0  0  0  0  0  0  0  0  0  0  0  0
   -0.2944  -22.5074   22.8483 O   0  0  0  0  0  0  0  0  0  0  0  0
    1.0122  -25.7298   24.3930 C   0  0  0  0  0  0  0  0  0  0  0  0
    1.1222  -24.2281   24.5092 C   0  0  2  0  0  0  0  0  0  0  0  0
    1.6215  -23.6978   23.2559 N   0  0  0  0  0  0  0  0  0  0  0  0
    1.9929  -23.8250   25.6504 C   0  0  0  0  0  0  0  0  0  0  0  0
    1.6782  -24.1531   26.8212 O   0  0  0  0  0  0  0  0  0  0  0  0
    3.1545  -23.0793   25.3697 N   0  0  0  0  0  0  0  0  0  0  0  0
    4.0222  -22.6710   26.4608 C   0  0  0  0  0  0  0  0  0  0  0  0
    5.0796  -23.6750   26.7138 C   0  0  0  0  0  0  0  0  0  0  0  0
    5.0773  -24.7043   25.9882 O   0  0  0  0  0  0  0  0  0  0  0  0
    6.0538  -23.5354   27.6954 O   0  0  0  0  0  0  0  0  0  0  0  0
  2  1  1  0
  3  2  1  0
  3  4  1  6
  5  6  2  0
  5  3  1  0
  8  7  1  6
  8  9  1  0
  9  5  1  0
 10 12  1  0
 10  8  1  0
 11 10  2  0
 13 14  1  0
 13 12  1  0
 14 16  1  0
 15 14  2  0
M  END
$$$$
