SAG.pdb
     RDKit          3D

 16 15  0  0  1  0  0  0  0  0999 V2000
    9.1961  -15.4892   19.1511 O   0  0  0  0  0  0  0  0  0  0  0  0
    7.8578  -15.0505   19.0279 C   0  0  0  0  0  0  0  0  0  0  0  0
    7.7989  -13.5483   19.2568 C   0  0  2  0  0  0  0  0  0  0  0  0
    8.6080  -12.8243   18.3360 N   0  0  0  0  0  0  0  0  0  0  0  0
    8.2750  -13.3023   20.6472 C   0  0  0  0  0  0  0  0  0  0  0  0
    9.4156  -12.8182   20.8635 O   0  0  0  0  0  0  0  0  0  0  0  0
    6.7470  -13.2267   24.0533 C   0  0  0  0  0  0  0  0  0  0  0  0
    7.9403  -13.4029   23.1448 C   0  0  2  0  0  0  0  0  0  0  0  0
    7.4695  -13.6003   21.7880 N   0  0  0  0  0  0  0  0  0  0  0  0
    8.8070  -14.5336   23.5847 C   0  0  0  0  0  0  0  0  0  0  0  0
    9.2735  -14.5447   24.7507 O   0  0  0  0  0  0  0  0  0  0  0  0
    9.0752  -15.5639   22.6623 N   0  0  0  0  0  0  0  0  0  0  0  0
    9.6405  -16.8159   23.1346 C   0  0  0  0  0  0  0  0  0  0  0  0
   11.1088  -16.7195   23.2920 C   0  0  0  0  0  0  0  0  0  0  0  0
   11.7089  -15.8842   22.5653 O   0  0  0  0  0  0  0  0  0  0  0  0
   11.8389  -17.4931   24.1868 O   0  0  0  0  0  0  0  0  0  0  0  0
  2  1  1  0
  3  2  1  0
  3  4  1  6
  5  6  2  0
  5  3  1  0
  8  7  1  1
  8  9  1  0
  9  5  1  0
 10 12  1  0
 10  8  1  0
 11 10  2  0
 13 14  1  0
 13 12  1  0
 14 16  1  0
 15 14  2  0
M  END
$$$$
