SAG.pdb
     RDKit          3D

 16 15  0  0  1  0  0  0  0  0999 V2000
    9.2566  -16.0436   16.0116 O   0  0  0  0  0  0  0  0  0  0  0  0
    7.8600  -15.9018   16.1790 C   0  0  0  0  0  0  0  0  0  0  0  0
    7.5110  -14.4237   16.2554 C   0  0  2  0  0  0  0  0  0  0  0  0
    7.9076  -13.7089   15.0899 N   0  0  0  0  0  0  0  0  0  0  0  0
    8.2148  -13.8728   17.4478 C   0  0  0  0  0  0  0  0  0  0  0  0
    8.7251  -12.7233   17.4230 O   0  0  0  0  0  0  0  0  0  0  0  0
    7.6685  -13.0553   20.3679 C   0  0  0  0  0  0  0  0  0  0  0  0
    8.7548  -13.9983   19.9080 C   0  0  2  0  0  0  0  0  0  0  0  0
    8.3426  -14.6136   18.6618 N   0  0  0  0  0  0  0  0  0  0  0  0
    9.0659  -15.0278   20.9406 C   0  0  0  0  0  0  0  0  0  0  0  0
    8.1588  -15.7932   21.3513 O   0  0  0  0  0  0  0  0  0  0  0  0
   10.3862  -15.1057   21.4255 N   0  0  0  0  0  0  0  0  0  0  0  0
   10.7538  -16.1845   22.3260 C   0  0  0  0  0  0  0  0  0  0  0  0
   12.1217  -15.9995   22.8594 C   0  0  0  0  0  0  0  0  0  0  0  0
   12.7793  -15.0188   22.4216 O   0  0  0  0  0  0  0  0  0  0  0  0
   12.7004  -16.8419   23.8016 O   0  0  0  0  0  0  0  0  0  0  0  0
  2  1  1  0
  3  2  1  0
  3  4  1  6
  5  6  2  0
  5  3  1  0
  8  7  1  1
  8  9  1  0
  9  5  1  0
 10 12  1  0
 10  8  1  0
 11 10  2  0
 13 14  1  0
 13 12  1  0
 14 16  1  0
 15 14  2  0
M  END
$$$$
