SAG.pdb
     RDKit          3D

 16 15  0  0  1  0  0  0  0  0999 V2000
   -6.4125  -27.4433   25.7304 O   0  0  0  0  0  0  0  0  0  0  0  0
   -6.0309  -26.8038   26.9321 C   0  0  0  0  0  0  0  0  0  0  0  0
   -7.2775  -26.3860   27.6962 C   0  0  2  0  0  0  0  0  0  0  0  0
   -8.4253  -26.2950   26.8590 N   0  0  0  0  0  0  0  0  0  0  0  0
   -6.9894  -25.0555   28.3021 C   0  0  0  0  0  0  0  0  0  0  0  0
   -6.0707  -24.9169   29.1500 O   0  0  0  0  0  0  0  0  0  0  0  0
   -7.5160  -21.5580   27.3874 C   0  0  0  0  0  0  0  0  0  0  0  0
   -7.4238  -22.5789   28.4965 C   0  0  2  0  0  0  0  0  0  0  0  0
   -7.7330  -23.8871   27.9541 N   0  0  0  0  0  0  0  0  0  0  0  0
   -8.3250  -22.2403   29.6349 C   0  0  0  0  0  0  0  0  0  0  0  0
   -8.1845  -21.1476   30.2380 O   0  0  0  0  0  0  0  0  0  0  0  0
   -9.3165  -23.1725   29.9983 N   0  0  0  0  0  0  0  0  0  0  0  0
  -10.2560  -22.8404   31.0552 C   0  0  0  0  0  0  0  0  0  0  0  0
   -9.8331  -23.4129   32.3526 C   0  0  0  0  0  0  0  0  0  0  0  0
   -8.6564  -23.8554   32.4268 O   0  0  0  0  0  0  0  0  0  0  0  0
  -10.6588  -23.4824   33.4686 O   0  0  0  0  0  0  0  0  0  0  0  0
  2  1  1  0
  3  2  1  0
  3  4  1  6
  5  6  2  0
  5  3  1  0
  8  7  1  6
  8  9  1  0
  9  5  1  0
 10 12  1  0
 10  8  1  0
 11 10  2  0
 13 14  1  0
 13 12  1  0
 14 16  1  0
 15 14  2  0
M  END
$$$$
