SAG.pdb
     RDKit          3D

 16 15  0  0  1  0  0  0  0  0999 V2000
    8.1841  -18.0984   19.9586 O   0  0  0  0  0  0  0  0  0  0  0  0
    7.6974  -17.3921   21.0824 C   0  0  0  0  0  0  0  0  0  0  0  0
    8.4338  -16.0668   21.1999 C   0  0  2  0  0  0  0  0  0  0  0  0
    9.7094  -16.0940   20.5684 N   0  0  0  0  0  0  0  0  0  0  0  0
    8.5980  -15.7891   22.6547 C   0  0  0  0  0  0  0  0  0  0  0  0
    9.6535  -16.1103   23.2588 O   0  0  0  0  0  0  0  0  0  0  0  0
    6.7822  -13.8170   25.2621 C   0  0  0  0  0  0  0  0  0  0  0  0
    7.6972  -14.9471   24.8546 C   0  0  2  0  0  0  0  0  0  0  0  0
    7.5776  -15.1527   23.4247 N   0  0  0  0  0  0  0  0  0  0  0  0
    7.3969  -16.1992   25.6064 C   0  0  0  0  0  0  0  0  0  0  0  0
    6.4607  -16.9453   25.2266 O   0  0  0  0  0  0  0  0  0  0  0  0
    8.1861  -16.5044   26.7325 N   0  0  0  0  0  0  0  0  0  0  0  0
    7.9252  -17.7234   27.4782 C   0  0  0  0  0  0  0  0  0  0  0  0
    9.1740  -18.4726   27.7414 C   0  0  0  0  0  0  0  0  0  0  0  0
   10.0299  -18.5012   26.8180 O   0  0  0  0  0  0  0  0  0  0  0  0
    9.4384  -19.1316   28.9363 O   0  0  0  0  0  0  0  0  0  0  0  0
  2  1  1  0
  3  2  1  0
  3  4  1  6
  5  6  2  0
  5  3  1  0
  8  7  1  1
  8  9  1  0
  9  5  1  0
 10 12  1  0
 10  8  1  0
 11 10  2  0
 13 14  1  0
 13 12  1  0
 14 16  1  0
 15 14  2  0
M  END
$$$$
