SAG.pdb
     RDKit          3D

 16 15  0  0  1  0  0  0  0  0999 V2000
    8.1484  -17.5689   16.2214 O   0  0  0  0  0  0  0  0  0  0  0  0
    7.1962  -16.5372   16.0558 C   0  0  0  0  0  0  0  0  0  0  0  0
    7.9063  -15.2625   15.6277 C   0  0  2  0  0  0  0  0  0  0  0  0
    8.7833  -15.4708   14.5257 N   0  0  0  0  0  0  0  0  0  0  0  0
    8.6827  -14.7818   16.8053 C   0  0  0  0  0  0  0  0  0  0  0  0
    9.8965  -15.0806   16.9446 O   0  0  0  0  0  0  0  0  0  0  0  0
    7.9969  -12.5113   19.7337 C   0  0  0  0  0  0  0  0  0  0  0  0
    8.8341  -13.5195   18.9832 C   0  0  2  0  0  0  0  0  0  0  0  0
    8.0939  -13.9685   17.8205 N   0  0  0  0  0  0  0  0  0  0  0  0
    9.2246  -14.6678   19.8503 C   0  0  0  0  0  0  0  0  0  0  0  0
    8.4099  -15.6021   20.0523 O   0  0  0  0  0  0  0  0  0  0  0  0
   10.5128  -14.6629   20.4203 N   0  0  0  0  0  0  0  0  0  0  0  0
   10.9248  -15.7715   21.2636 C   0  0  0  0  0  0  0  0  0  0  0  0
   12.2409  -15.5134   21.8892 C   0  0  0  0  0  0  0  0  0  0  0  0
   12.8647  -14.4879   21.5081 O   0  0  0  0  0  0  0  0  0  0  0  0
   12.8067  -16.3347   22.8574 O   0  0  0  0  0  0  0  0  0  0  0  0
  2  1  1  0
  3  2  1  0
  3  4  1  6
  5  6  2  0
  5  3  1  0
  8  7  1  1
  8  9  1  0
  9  5  1  0
 10 12  1  0
 10  8  1  0
 11 10  2  0
 13 14  1  0
 13 12  1  0
 14 16  1  0
 15 14  2  0
M  END
$$$$
