SAG.pdb
     RDKit          3D

 16 15  0  0  1  0  0  0  0  0999 V2000
    9.8630  -15.6908   18.0730 O   0  0  0  0  0  0  0  0  0  0  0  0
    8.4635  -15.6359   17.8806 C   0  0  0  0  0  0  0  0  0  0  0  0
    7.9775  -14.2171   18.1318 C   0  0  2  0  0  0  0  0  0  0  0  0
    8.5446  -13.2778   17.2247 N   0  0  0  0  0  0  0  0  0  0  0  0
    8.3649  -13.8664   19.5273 C   0  0  0  0  0  0  0  0  0  0  0  0
    9.3708  -13.1470   19.7573 O   0  0  0  0  0  0  0  0  0  0  0  0
    6.7317  -14.0956   22.8821 C   0  0  0  0  0  0  0  0  0  0  0  0
    7.9587  -13.9423   22.0151 C   0  0  2  0  0  0  0  0  0  0  0  0
    7.6224  -14.3243   20.6578 N   0  0  0  0  0  0  0  0  0  0  0  0
    9.1042  -14.7439   22.5328 C   0  0  0  0  0  0  0  0  0  0  0  0
    9.5169  -14.5576   23.7043 O   0  0  0  0  0  0  0  0  0  0  0  0
    9.6911  -15.6956   21.6760 N   0  0  0  0  0  0  0  0  0  0  0  0
   10.6571  -16.6390   22.2115 C   0  0  0  0  0  0  0  0  0  0  0  0
   11.7458  -16.9038   21.2446 C   0  0  0  0  0  0  0  0  0  0  0  0
   12.4072  -15.9109   20.8412 O   0  0  0  0  0  0  0  0  0  0  0  0
   12.0637  -18.1718   20.7724 O   0  0  0  0  0  0  0  0  0  0  0  0
  2  1  1  0
  3  2  1  0
  3  4  1  6
  5  6  2  0
  5  3  1  0
  8  7  1  1
  8  9  1  0
  9  5  1  0
 10 12  1  0
 10  8  1  0
 11 10  2  0
 13 14  1  0
 13 12  1  0
 14 16  1  0
 15 14  2  0
M  END
$$$$
