SAG.pdb
     RDKit          3D

 16 15  0  0  1  0  0  0  0  0999 V2000
   11.0143  -17.9971   17.0317 O   0  0  0  0  0  0  0  0  0  0  0  0
   10.7715  -16.8700   17.8499 C   0  0  0  0  0  0  0  0  0  0  0  0
   10.3349  -15.7023   16.9792 C   0  0  2  0  0  0  0  0  0  0  0  0
   11.2720  -15.4108   15.9478 N   0  0  0  0  0  0  0  0  0  0  0  0
   10.1908  -14.5217   17.8769 C   0  0  0  0  0  0  0  0  0  0  0  0
   11.1825  -13.8029   18.1634 O   0  0  0  0  0  0  0  0  0  0  0  0
    7.3438  -12.6389   19.4321 C   0  0  0  0  0  0  0  0  0  0  0  0
    8.7974  -13.0437   19.3716 C   0  0  2  0  0  0  0  0  0  0  0  0
    8.9354  -14.1532   18.4489 N   0  0  0  0  0  0  0  0  0  0  0  0
    9.3297  -13.3938   20.7195 C   0  0  0  0  0  0  0  0  0  0  0  0
    9.3141  -12.5373   21.6380 O   0  0  0  0  0  0  0  0  0  0  0  0
    9.8387  -14.6924   20.9169 N   0  0  0  0  0  0  0  0  0  0  0  0
   10.2286  -15.1113   22.2520 C   0  0  0  0  0  0  0  0  0  0  0  0
   10.7319  -16.5030   22.2553 C   0  0  0  0  0  0  0  0  0  0  0  0
   10.8153  -17.0843   21.1412 O   0  0  0  0  0  0  0  0  0  0  0  0
   11.1083  -17.1821   23.4081 O   0  0  0  0  0  0  0  0  0  0  0  0
  2  1  1  0
  3  2  1  0
  3  4  1  6
  5  6  2  0
  5  3  1  0
  8  7  1  1
  8  9  1  0
  9  5  1  0
 10 12  1  0
 10  8  1  0
 11 10  2  0
 13 14  1  0
 13 12  1  0
 14 16  1  0
 15 14  2  0
M  END
$$$$
