SAG.pdb
     RDKit          3D

 16 15  0  0  1  0  0  0  0  0999 V2000
   -3.6063  -22.4493   27.9448 O   0  0  0  0  0  0  0  0  0  0  0  0
   -3.9223  -23.1514   26.7592 C   0  0  0  0  0  0  0  0  0  0  0  0
   -4.4193  -22.1683   25.7109 C   0  0  2  0  0  0  0  0  0  0  0  0
   -3.4868  -21.1226   25.4584 N   0  0  0  0  0  0  0  0  0  0  0  0
   -5.6939  -21.5929   26.2254 C   0  0  0  0  0  0  0  0  0  0  0  0
   -5.7377  -20.4193   26.6758 O   0  0  0  0  0  0  0  0  0  0  0  0
   -9.3019  -22.5219   26.0054 C   0  0  0  0  0  0  0  0  0  0  0  0
   -8.1730  -21.7594   26.6571 C   0  0  2  0  0  0  0  0  0  0  0  0
   -6.9129  -22.3365   26.2323 N   0  0  0  0  0  0  0  0  0  0  0  0
   -8.2923  -21.7595   28.1433 C   0  0  0  0  0  0  0  0  0  0  0  0
   -9.2739  -21.1985   28.6902 O   0  0  0  0  0  0  0  0  0  0  0  0
   -7.2843  -22.3986   28.8914 N   0  0  0  0  0  0  0  0  0  0  0  0
   -7.3852  -22.4360   30.3400 C   0  0  0  0  0  0  0  0  0  0  0  0
   -7.9683  -23.7134   30.8073 C   0  0  0  0  0  0  0  0  0  0  0  0
   -9.2029  -23.8804   30.6234 O   0  0  0  0  0  0  0  0  0  0  0  0
   -7.2300  -24.7150   31.4267 O   0  0  0  0  0  0  0  0  0  0  0  0
  2  1  1  0
  3  2  1  0
  3  4  1  1
  5  6  2  0
  5  3  1  0
  8  7  1  6
  8  9  1  0
  9  5  1  0
 10 12  1  0
 10  8  1  0
 11 10  2  0
 13 14  1  0
 13 12  1  0
 14 16  1  0
 15 14  2  0
M  END
$$$$
