LGA.pdb
     RDKit          3D

 18 17  0  0  1  0  0  0  0  0999 V2000
   29.1183  -20.3193   -4.0042 C   0  0  0  0  0  0  0  0  0  0  0  0
   28.2165  -19.6575   -5.0160 C   0  0  1  0  0  0  0  0  0  0  0  0
   28.8129  -18.2961   -5.3198 C   0  0  0  0  0  0  0  0  0  0  0  0
   28.1146  -20.4099   -6.2984 C   0  0  0  0  0  0  0  0  0  0  0  0
   27.2086  -19.7392   -7.3067 C   0  0  2  0  0  0  0  0  0  0  0  0
   25.9204  -19.4730   -6.7289 N   0  0  0  0  0  0  0  0  0  0  0  0
   27.0737  -20.5447   -8.5452 C   0  0  0  0  0  0  0  0  0  0  0  0
   28.1052  -20.9065   -9.1643 O   0  0  0  0  0  0  0  0  0  0  0  0
   25.8105  -20.9341   -9.0753 N   0  0  0  0  0  0  0  0  0  0  0  0
   25.6779  -21.7561  -10.2598 C   0  0  0  0  0  0  0  0  0  0  0  0
   25.5802  -20.8285  -11.4334 C   0  0  0  0  0  0  0  0  0  0  0  0
   24.8919  -19.7753  -11.3652 O   0  0  0  0  0  0  0  0  0  0  0  0
   27.2850  -20.2874  -14.7198 C   0  0  0  0  0  0  0  0  0  0  0  0
   26.1370  -20.1438  -13.7372 C   0  0  2  0  0  0  0  0  0  0  0  0
   26.2492  -21.0941  -12.6522 N   0  0  0  0  0  0  0  0  0  0  0  0
   24.8295  -20.3645  -14.3999 C   0  0  0  0  0  0  0  0  0  0  0  0
   24.1604  -21.3923  -14.1416 O   0  0  0  0  0  0  0  0  0  0  0  0
   24.3204  -19.4545  -15.3082 O   0  0  0  0  0  0  0  0  0  0  0  0
  2  1  1  1
  3  2  1  0
  4  5  1  0
  4  2  1  0
  5  6  1  1
  7  5  1  0
  7  8  2  0
  9 10  1  0
  9  7  1  0
 10 11  1  0
 11 12  2  0
 11 15  1  0
 14 13  1  6
 15 14  1  0
 16 18  1  0
 16 14  1  0
 17 16  2  0
M  END
$$$$
