LGA.pdb
     RDKit          3D

 18 17  0  0  1  0  0  0  0  0999 V2000
   28.2017  -18.4397   -6.1617 C   0  0  0  0  0  0  0  0  0  0  0  0
   28.2481  -19.6499   -7.0606 C   0  0  1  0  0  0  0  0  0  0  0  0
   28.7626  -20.8058   -6.2238 C   0  0  0  0  0  0  0  0  0  0  0  0
   26.9143  -20.0347   -7.6032 C   0  0  0  0  0  0  0  0  0  0  0  0
   27.0064  -20.9467   -8.8062 C   0  0  2  0  0  0  0  0  0  0  0  0
   28.0793  -20.5365   -9.6692 N   0  0  0  0  0  0  0  0  0  0  0  0
   25.7246  -21.0047   -9.5508 C   0  0  0  0  0  0  0  0  0  0  0  0
   24.6414  -20.8565   -8.9320 O   0  0  0  0  0  0  0  0  0  0  0  0
   25.6614  -21.2240  -10.9566 N   0  0  0  0  0  0  0  0  0  0  0  0
   24.4199  -21.1838  -11.7005 C   0  0  0  0  0  0  0  0  0  0  0  0
   24.6250  -20.2477  -12.8533 C   0  0  0  0  0  0  0  0  0  0  0  0
   23.7786  -20.1787  -13.7842 O   0  0  0  0  0  0  0  0  0  0  0  0
   26.8958  -17.4454  -13.8641 C   0  0  0  0  0  0  0  0  0  0  0  0
   25.9523  -18.6048  -14.1282 C   0  0  2  0  0  0  0  0  0  0  0  0
   25.7642  -19.4124  -12.9428 N   0  0  0  0  0  0  0  0  0  0  0  0
   26.4699  -19.4875  -15.2008 C   0  0  0  0  0  0  0  0  0  0  0  0
   26.9912  -20.5895  -14.9099 O   0  0  0  0  0  0  0  0  0  0  0  0
   26.3923  -19.1232  -16.5325 O   0  0  0  0  0  0  0  0  0  0  0  0
  2  1  1  1
  3  2  1  0
  4  5  1  0
  4  2  1  0
  5  6  1  6
  7  5  1  0
  7  8  2  0
  9 10  1  0
  9  7  1  0
 10 11  1  0
 11 12  2  0
 11 15  1  0
 14 13  1  1
 15 14  1  0
 16 18  1  0
 16 14  1  0
 17 16  2  0
M  END
$$$$
