LGA.pdb
     RDKit          3D

 18 17  0  0  1  0  0  0  0  0999 V2000
   17.2551  -11.6439  -18.1596 C   0  0  0  0  0  0  0  0  0  0  0  0
   18.7623  -11.6131  -18.1096 C   0  0  1  0  0  0  0  0  0  0  0  0
   19.2405  -11.0745  -19.4446 C   0  0  0  0  0  0  0  0  0  0  0  0
   19.3002  -10.7272  -17.0386 C   0  0  0  0  0  0  0  0  0  0  0  0
   20.8107  -10.7391  -16.9650 C   0  0  2  0  0  0  0  0  0  0  0  0
   21.2852  -12.0294  -16.5476 N   0  0  0  0  0  0  0  0  0  0  0  0
   21.3254   -9.6740  -16.0697 C   0  0  0  0  0  0  0  0  0  0  0  0
   21.3846   -9.8802  -14.8319 O   0  0  0  0  0  0  0  0  0  0  0  0
   21.7630   -8.4080  -16.5536 N   0  0  0  0  0  0  0  0  0  0  0  0
   22.3510   -7.4018  -15.6943 C   0  0  0  0  0  0  0  0  0  0  0  0
   21.3202   -6.3314  -15.4967 C   0  0  0  0  0  0  0  0  0  0  0  0
   20.2319   -6.3616  -16.1311 O   0  0  0  0  0  0  0  0  0  0  0  0
   19.6241   -4.4207  -13.2994 C   0  0  0  0  0  0  0  0  0  0  0  0
   20.5205   -4.2177  -14.5075 C   0  0  2  0  0  0  0  0  0  0  0  0
   21.5242   -5.2555  -14.6000 N   0  0  0  0  0  0  0  0  0  0  0  0
   21.2216   -2.9131  -14.4453 C   0  0  0  0  0  0  0  0  0  0  0  0
   20.5723   -1.8460  -14.5477 O   0  0  0  0  0  0  0  0  0  0  0  0
   22.5920   -2.8400  -14.2750 O   0  0  0  0  0  0  0  0  0  0  0  0
  2  1  1  6
  3  2  1  0
  4  5  1  0
  4  2  1  0
  5  6  1  1
  7  5  1  0
  7  8  2  0
  9 10  1  0
  9  7  1  0
 10 11  1  0
 11 12  2  0
 11 15  1  0
 14 13  1  1
 15 14  1  0
 16 18  1  0
 16 14  1  0
 17 16  2  0
M  END
$$$$
