LGA.pdb
     RDKit          3D

 18 17  0  0  1  0  0  0  0  0999 V2000
   15.5048  -13.8095  -16.4523 C   0  0  0  0  0  0  0  0  0  0  0  0
   16.9405  -13.4031  -16.2322 C   0  0  1  0  0  0  0  0  0  0  0  0
   17.7725  -14.1285  -17.2727 C   0  0  0  0  0  0  0  0  0  0  0  0
   17.1728  -11.9403  -16.3978 C   0  0  0  0  0  0  0  0  0  0  0  0
   18.6097  -11.5383  -16.1511 C   0  0  2  0  0  0  0  0  0  0  0  0
   18.9737  -11.7815  -14.7826 N   0  0  0  0  0  0  0  0  0  0  0  0
   18.8545  -10.1217  -16.5172 C   0  0  0  0  0  0  0  0  0  0  0  0
   18.7695   -9.7691  -17.7199 O   0  0  0  0  0  0  0  0  0  0  0  0
   19.1867   -9.1254  -15.5551 N   0  0  0  0  0  0  0  0  0  0  0  0
   19.3431   -7.7273  -15.8976 C   0  0  0  0  0  0  0  0  0  0  0  0
   20.5285   -7.2151  -15.1361 C   0  0  0  0  0  0  0  0  0  0  0  0
   21.0104   -7.8746  -14.1766 O   0  0  0  0  0  0  0  0  0  0  0  0
   23.0728   -4.4698  -15.4412 C   0  0  0  0  0  0  0  0  0  0  0  0
   22.3186   -5.5702  -14.7170 C   0  0  2  0  0  0  0  0  0  0  0  0
   21.1480   -5.9843  -15.4594 N   0  0  0  0  0  0  0  0  0  0  0  0
   21.8708   -5.1244  -13.3760 C   0  0  0  0  0  0  0  0  0  0  0  0
   20.6971   -4.7179  -13.2092 O   0  0  0  0  0  0  0  0  0  0  0  0
   22.7248   -5.1449  -12.2886 O   0  0  0  0  0  0  0  0  0  0  0  0
  2  1  1  6
  3  2  1  0
  4  5  1  0
  4  2  1  0
  5  6  1  1
  7  5  1  0
  7  8  2  0
  9 10  1  0
  9  7  1  0
 10 11  1  0
 11 12  2  0
 11 15  1  0
 14 13  1  6
 15 14  1  0
 16 18  1  0
 16 14  1  0
 17 16  2  0
M  END
$$$$
