LGA.pdb
     RDKit          3D

 18 17  0  0  1  0  0  0  0  0999 V2000
   18.9000  -13.0517  -17.9901 C   0  0  0  0  0  0  0  0  0  0  0  0
   19.0761  -12.2712  -16.7115 C   0  0  1  0  0  0  0  0  0  0  0  0
   19.7860  -13.1825  -15.7284 C   0  0  0  0  0  0  0  0  0  0  0  0
   19.9037  -11.0429  -16.8780 C   0  0  0  0  0  0  0  0  0  0  0  0
   19.9648  -10.1972  -15.6257 C   0  0  2  0  0  0  0  0  0  0  0  0
   18.6411   -9.8677  -15.1745 N   0  0  0  0  0  0  0  0  0  0  0  0
   20.7719   -8.9695  -15.8308 C   0  0  0  0  0  0  0  0  0  0  0  0
   22.0120   -9.0656  -16.0071 O   0  0  0  0  0  0  0  0  0  0  0  0
   20.1995   -7.6653  -15.8377 N   0  0  0  0  0  0  0  0  0  0  0  0
   20.9476   -6.4837  -16.2123 C   0  0  0  0  0  0  0  0  0  0  0  0
   19.9743   -5.3453  -16.2754 C   0  0  0  0  0  0  0  0  0  0  0  0
   20.3570   -4.1890  -16.5982 O   0  0  0  0  0  0  0  0  0  0  0  0
   16.3052   -4.8108  -16.4511 C   0  0  0  0  0  0  0  0  0  0  0  0
   17.7117   -4.3832  -16.0726 C   0  0  2  0  0  0  0  0  0  0  0  0
   18.6014   -5.5201  -15.9786 N   0  0  0  0  0  0  0  0  0  0  0  0
   17.7292   -3.6844  -14.7654 C   0  0  0  0  0  0  0  0  0  0  0  0
   18.1321   -4.2814  -13.7397 O   0  0  0  0  0  0  0  0  0  0  0  0
   17.3072   -2.3730  -14.6448 O   0  0  0  0  0  0  0  0  0  0  0  0
  2  1  1  6
  3  2  1  0
  4  5  1  0
  4  2  1  0
  5  6  1  6
  7  5  1  0
  7  8  2  0
  9 10  1  0
  9  7  1  0
 10 11  1  0
 11 12  2  0
 11 15  1  0
 14 13  1  1
 15 14  1  0
 16 18  1  0
 16 14  1  0
 17 16  2  0
M  END
$$$$
