LGA.pdb
     RDKit          3D

 18 17  0  0  1  0  0  0  0  0999 V2000
   19.7358  -16.2212  -16.3417 C   0  0  0  0  0  0  0  0  0  0  0  0
   19.3041  -14.9135  -16.9570 C   0  0  1  0  0  0  0  0  0  0  0  0
   17.8407  -15.0587  -17.3290 C   0  0  0  0  0  0  0  0  0  0  0  0
   19.4284  -13.7540  -16.0288 C   0  0  0  0  0  0  0  0  0  0  0  0
   18.9447  -12.4562  -16.6363 C   0  0  2  0  0  0  0  0  0  0  0  0
   19.8944  -11.9632  -17.5951 N   0  0  0  0  0  0  0  0  0  0  0  0
   18.6659  -11.4340  -15.5980 C   0  0  0  0  0  0  0  0  0  0  0  0
   17.7570  -11.6387  -14.7553 O   0  0  0  0  0  0  0  0  0  0  0  0
   19.3909  -10.2113  -15.5087 N   0  0  0  0  0  0  0  0  0  0  0  0
   19.1325   -9.2206  -14.4849 C   0  0  0  0  0  0  0  0  0  0  0  0
   18.5616   -8.0153  -15.1696 C   0  0  0  0  0  0  0  0  0  0  0  0
   18.5079   -7.9551  -16.4270 O   0  0  0  0  0  0  0  0  0  0  0  0
   16.5396   -5.0024  -14.2428 C   0  0  0  0  0  0  0  0  0  0  0  0
   17.4329   -5.8217  -15.1565 C   0  0  2  0  0  0  0  0  0  0  0  0
   18.0652   -6.9082  -14.4406 N   0  0  0  0  0  0  0  0  0  0  0  0
   18.5036   -4.9878  -15.7529 C   0  0  0  0  0  0  0  0  0  0  0  0
   18.2167   -4.1084  -16.5985 O   0  0  0  0  0  0  0  0  0  0  0  0
   19.8292   -5.1559  -15.3968 O   0  0  0  0  0  0  0  0  0  0  0  0
  2  1  1  1
  3  2  1  0
  4  5  1  0
  4  2  1  0
  5  6  1  6
  7  5  1  0
  7  8  2  0
  9 10  1  0
  9  7  1  0
 10 11  1  0
 11 12  2  0
 11 15  1  0
 14 13  1  1
 15 14  1  0
 16 18  1  0
 16 14  1  0
 17 16  2  0
M  END
$$$$
