LGA.pdb
     RDKit          3D

 18 17  0  0  1  0  0  0  0  0999 V2000
   25.4300  -13.8977  -15.4597 C   0  0  0  0  0  0  0  0  0  0  0  0
   24.0603  -13.3176  -15.7094 C   0  0  1  0  0  0  0  0  0  0  0  0
   23.0592  -14.2331  -15.0307 C   0  0  0  0  0  0  0  0  0  0  0  0
   23.8861  -11.9492  -15.1451 C   0  0  0  0  0  0  0  0  0  0  0  0
   22.5333  -11.3492  -15.4567 C   0  0  2  0  0  0  0  0  0  0  0  0
   22.2808  -11.3812  -16.8707 N   0  0  0  0  0  0  0  0  0  0  0  0
   22.4111   -9.9673  -14.9313 C   0  0  0  0  0  0  0  0  0  0  0  0
   22.4770   -9.7672  -13.6928 O   0  0  0  0  0  0  0  0  0  0  0  0
   22.2194   -8.8374  -15.7770 N   0  0  0  0  0  0  0  0  0  0  0  0
   22.1175   -7.4860  -15.2673 C   0  0  0  0  0  0  0  0  0  0  0  0
   20.8247   -6.9192  -15.7719 C   0  0  0  0  0  0  0  0  0  0  0  0
   20.8182   -6.0055  -16.6395 O   0  0  0  0  0  0  0  0  0  0  0  0
   17.2021   -7.8421  -15.7086 C   0  0  0  0  0  0  0  0  0  0  0  0
   18.3623   -6.8860  -15.9186 C   0  0  2  0  0  0  0  0  0  0  0  0
   19.5727   -7.3814  -15.3003 N   0  0  0  0  0  0  0  0  0  0  0  0
   18.0721   -5.5515  -15.3421 C   0  0  0  0  0  0  0  0  0  0  0  0
   17.3454   -4.7429  -15.9656 O   0  0  0  0  0  0  0  0  0  0  0  0
   18.5885   -5.1688  -14.1177 O   0  0  0  0  0  0  0  0  0  0  0  0
  2  1  1  1
  3  2  1  0
  4  5  1  0
  4  2  1  0
  5  6  1  6
  7  5  1  0
  7  8  2  0
  9 10  1  0
  9  7  1  0
 10 11  1  0
 11 12  2  0
 11 15  1  0
 14 13  1  1
 15 14  1  0
 16 18  1  0
 16 14  1  0
 17 16  2  0
M  END
$$$$
