LGA.pdb
     RDKit          3D

 18 17  0  0  1  0  0  0  0  0999 V2000
   17.6776  -13.2967  -18.7977 C   0  0  0  0  0  0  0  0  0  0  0  0
   17.7157  -12.7924  -17.3767 C   0  0  1  0  0  0  0  0  0  0  0  0
   17.5591  -13.9999  -16.4720 C   0  0  0  0  0  0  0  0  0  0  0  0
   18.9967  -12.1176  -17.0232 C   0  0  0  0  0  0  0  0  0  0  0  0
   18.9993  -11.5522  -15.6204 C   0  0  2  0  0  0  0  0  0  0  0  0
   17.8872  -10.6621  -15.4333 N   0  0  0  0  0  0  0  0  0  0  0  0
   20.2784  -10.8700  -15.3056 C   0  0  0  0  0  0  0  0  0  0  0  0
   21.3587  -11.5041  -15.4013 O   0  0  0  0  0  0  0  0  0  0  0  0
   20.3423   -9.5082  -14.8933 N   0  0  0  0  0  0  0  0  0  0  0  0
   21.5886   -8.7784  -14.7915 C   0  0  0  0  0  0  0  0  0  0  0  0
   21.3300   -7.3892  -15.2922 C   0  0  0  0  0  0  0  0  0  0  0  0
   22.1758   -6.4728  -15.1121 O   0  0  0  0  0  0  0  0  0  0  0  0
   19.0208   -5.5837  -17.5884 C   0  0  0  0  0  0  0  0  0  0  0  0
   19.9140   -5.6772  -16.3647 C   0  0  2  0  0  0  0  0  0  0  0  0
   20.1393   -7.0534  -15.9798 N   0  0  0  0  0  0  0  0  0  0  0  0
   19.3151   -4.9743  -15.2051 C   0  0  0  0  0  0  0  0  0  0  0  0
   18.6489   -5.6147  -14.3585 O   0  0  0  0  0  0  0  0  0  0  0  0
   19.4734   -3.6118  -15.0294 O   0  0  0  0  0  0  0  0  0  0  0  0
  2  1  1  6
  3  2  1  0
  4  5  1  0
  4  2  1  0
  5  6  1  6
  7  5  1  0
  7  8  2  0
  9 10  1  0
  9  7  1  0
 10 11  1  0
 11 12  2  0
 11 15  1  0
 14 13  1  6
 15 14  1  0
 16 18  1  0
 16 14  1  0
 17 16  2  0
M  END
$$$$
