LGA.pdb
     RDKit          3D

 18 17  0  0  1  0  0  0  0  0999 V2000
   18.9395  -13.5250  -17.4806 C   0  0  0  0  0  0  0  0  0  0  0  0
   18.9692  -12.1116  -18.0064 C   0  0  1  0  0  0  0  0  0  0  0  0
   18.0847  -12.0768  -19.2382 C   0  0  0  0  0  0  0  0  0  0  0  0
   18.4442  -11.1091  -17.0365 C   0  0  0  0  0  0  0  0  0  0  0  0
   18.5356   -9.6885  -17.5473 C   0  0  2  0  0  0  0  0  0  0  0  0
   19.9056   -9.3226  -17.7781 N   0  0  0  0  0  0  0  0  0  0  0  0
   17.8831   -8.7293  -16.6227 C   0  0  0  0  0  0  0  0  0  0  0  0
   16.6518   -8.8289  -16.3944 O   0  0  0  0  0  0  0  0  0  0  0  0
   18.5968   -7.6835  -15.9705 N   0  0  0  0  0  0  0  0  0  0  0  0
   18.0483   -6.9364  -14.8581 C   0  0  0  0  0  0  0  0  0  0  0  0
   19.2038   -6.3327  -14.1179 C   0  0  0  0  0  0  0  0  0  0  0  0
   19.0103   -5.5952  -13.1148 O   0  0  0  0  0  0  0  0  0  0  0  0
   22.9026   -6.7063  -13.8665 C   0  0  0  0  0  0  0  0  0  0  0  0
   21.6115   -5.9124  -13.7830 C   0  0  2  0  0  0  0  0  0  0  0  0
   20.5439   -6.5635  -14.5106 N   0  0  0  0  0  0  0  0  0  0  0  0
   21.7786   -4.5509  -14.3450 C   0  0  0  0  0  0  0  0  0  0  0  0
   21.4977   -4.3286  -15.5459 O   0  0  0  0  0  0  0  0  0  0  0  0
   22.2427   -3.5043  -13.5693 O   0  0  0  0  0  0  0  0  0  0  0  0
  2  1  1  1
  3  2  1  0
  4  5  1  0
  4  2  1  0
  5  6  1  1
  7  5  1  0
  7  8  2  0
  9 10  1  0
  9  7  1  0
 10 11  1  0
 11 12  2  0
 11 15  1  0
 14 13  1  6
 15 14  1  0
 16 18  1  0
 16 14  1  0
 17 16  2  0
M  END
$$$$
