IPE.pdb
     RDKit          3D

 25 25  0  0  1  0  0  0  0  0999 V2000
    6.9189  -12.0279   27.8762 C   0  0  0  0  0  0  0  0  0  0  0  0
    6.1747  -12.9826   26.9433 C   0  0  0  0  0  0  0  0  0  0  0  0
    7.1316  -13.7832   26.1468 C   0  0  2  0  0  0  0  0  0  0  0  0
    8.0984  -12.9030   25.3834 C   0  0  0  0  0  0  0  0  0  0  0  0
    6.4872  -14.8205   25.3034 C   0  0  2  0  0  0  0  0  0  0  0  0
    5.6051  -15.6772   26.0937 N   0  0  0  0  0  0  0  0  0  0  0  0
    7.3489  -15.6635   24.4857 C   0  0  0  0  0  0  0  0  0  0  0  0
    7.7654  -16.8057   24.8881 O   0  0  0  0  0  0  0  0  0  0  0  0
    7.7863  -15.2759   23.1838 N   0  0  0  0  0  0  0  0  0  0  0  0
    7.2884  -14.0338   22.5686 C   0  0  0  0  0  0  0  0  0  0  0  0
    7.9193  -13.9385   21.2089 C   0  0  0  0  0  0  0  0  0  0  0  0
    8.2534  -15.3636   20.9140 C   0  0  0  0  0  0  0  0  0  0  0  0
    8.7090  -15.8632   22.2688 C   0  0  1  0  0  0  0  0  0  0  0  0
   10.1162  -15.4724   22.5450 C   0  0  0  0  0  0  0  0  0  0  0  0
   10.2987  -14.3897   23.1520 O   0  0  0  0  0  0  0  0  0  0  0  0
   11.2332  -16.2377   22.1689 N   0  0  0  0  0  0  0  0  0  0  0  0
   12.3340  -16.5050   23.1071 C   0  0  1  0  0  0  0  0  0  0  0  0
   11.7645  -17.1653   24.3176 C   0  0  0  0  0  0  0  0  0  0  0  0
   12.7465  -17.5844   25.3540 C   0  0  0  0  0  0  0  0  0  0  0  0
   12.0284  -18.2204   26.4803 C   0  0  0  0  0  0  0  0  0  0  0  0
   11.7147  -19.4296   26.4178 O   0  0  0  0  0  0  0  0  0  0  0  0
   13.3800  -17.2823   22.4177 C   0  0  0  0  0  0  0  0  0  0  0  0
   13.0879  -18.4518   21.7280 O   0  0  0  0  0  0  0  0  0  0  0  0
   11.7003  -17.4880   27.6037 O   0  0  0  0  0  0  0  0  0  0  0  0
   14.5645  -16.8730   22.4583 O   0  0  0  0  0  0  0  0  0  0  0  0
  2  1  1  0
  2  3  1  0
  3  5  1  0
  3  4  1  6
  5  6  1  1
  7  5  1  0
  7  8  2  0
  9 13  1  0
  9  7  1  0
 10 11  1  0
 10  9  1  0
 11 12  1  0
 13 12  1  0
 13 14  1  1
 15 14  2  0
 16 14  1  0
 17 16  1  0
 17 18  1  1
 19 18  1  0
 20 19  1  0
 21 20  2  0
 22 17  1  0
 22 23  1  0
 24 20  1  0
 25 22  2  0
M  END
$$$$
