IPE.pdb
     RDKit          3D

 25 25  0  0  1  0  0  0  0  0999 V2000
    7.1594  -16.6026   19.4731 C   0  0  0  0  0  0  0  0  0  0  0  0
    8.2187  -15.5991   19.9277 C   0  0  0  0  0  0  0  0  0  0  0  0
    7.6106  -14.2695   20.1586 C   0  0  2  0  0  0  0  0  0  0  0  0
    6.9264  -13.7432   18.9148 C   0  0  0  0  0  0  0  0  0  0  0  0
    8.5341  -13.2894   20.7825 C   0  0  2  0  0  0  0  0  0  0  0  0
    9.6141  -12.9194   19.8695 N   0  0  0  0  0  0  0  0  0  0  0  0
    9.1105  -13.6270   22.0768 C   0  0  0  0  0  0  0  0  0  0  0  0
   10.3561  -13.8873   22.2213 O   0  0  0  0  0  0  0  0  0  0  0  0
    8.3293  -13.6900   23.2695 N   0  0  0  0  0  0  0  0  0  0  0  0
    6.8973  -13.3465   23.2422 C   0  0  0  0  0  0  0  0  0  0  0  0
    6.3881  -13.4925   24.6477 C   0  0  0  0  0  0  0  0  0  0  0  0
    7.6354  -13.3386   25.4542 C   0  0  0  0  0  0  0  0  0  0  0  0
    8.6484  -14.0765   24.6045 C   0  0  1  0  0  0  0  0  0  0  0  0
    8.5610  -15.5458   24.8112 C   0  0  0  0  0  0  0  0  0  0  0  0
    7.7078  -16.1674   24.1333 O   0  0  0  0  0  0  0  0  0  0  0  0
    9.3691  -16.2630   25.7100 N   0  0  0  0  0  0  0  0  0  0  0  0
    9.4678  -17.7294   25.6543 C   0  0  1  0  0  0  0  0  0  0  0  0
   10.3387  -18.0943   24.4993 C   0  0  0  0  0  0  0  0  0  0  0  0
   11.7165  -17.5328   24.5192 C   0  0  0  0  0  0  0  0  0  0  0  0
   12.4385  -17.9635   23.3019 C   0  0  0  0  0  0  0  0  0  0  0  0
   12.4910  -17.2077   22.3066 O   0  0  0  0  0  0  0  0  0  0  0  0
    9.9340  -18.2334   26.9590 C   0  0  0  0  0  0  0  0  0  0  0  0
   10.3066  -17.3743   27.9846 O   0  0  0  0  0  0  0  0  0  0  0  0
   13.0570  -19.1968   23.2548 O   0  0  0  0  0  0  0  0  0  0  0  0
    9.9947  -19.4722   27.1432 O   0  0  0  0  0  0  0  0  0  0  0  0
  2  1  1  0
  2  3  1  0
  3  5  1  0
  3  4  1  6
  5  6  1  6
  7  5  1  0
  7  8  2  0
  9 13  1  0
  9  7  1  0
 10 11  1  0
 10  9  1  0
 11 12  1  0
 13 12  1  0
 13 14  1  6
 15 14  2  0
 16 14  1  0
 17 16  1  0
 17 18  1  6
 19 18  1  0
 20 19  1  0
 21 20  2  0
 22 17  1  0
 22 23  1  0
 24 20  1  0
 25 22  2  0
M  END
$$$$
