IPE.pdb
     RDKit          3D

 25 25  0  0  1  0  0  0  0  0999 V2000
    8.2853  -12.1520   27.0936 C   0  0  0  0  0  0  0  0  0  0  0  0
    7.6259  -13.5075   26.8416 C   0  0  0  0  0  0  0  0  0  0  0  0
    6.5821  -13.3924   25.7985 C   0  0  2  0  0  0  0  0  0  0  0  0
    5.5033  -12.4059   26.1926 C   0  0  0  0  0  0  0  0  0  0  0  0
    6.0470  -14.6988   25.3407 C   0  0  2  0  0  0  0  0  0  0  0  0
    5.4607  -15.4517   26.4480 N   0  0  0  0  0  0  0  0  0  0  0  0
    6.9412  -15.5773   24.5989 C   0  0  0  0  0  0  0  0  0  0  0  0
    7.2591  -16.7428   25.0240 O   0  0  0  0  0  0  0  0  0  0  0  0
    7.5220  -15.2011   23.3508 N   0  0  0  0  0  0  0  0  0  0  0  0
    7.3088  -13.8494   22.8061 C   0  0  0  0  0  0  0  0  0  0  0  0
    8.0268  -13.7933   21.4880 C   0  0  0  0  0  0  0  0  0  0  0  0
    8.0992  -15.2347   21.1050 C   0  0  0  0  0  0  0  0  0  0  0  0
    8.3686  -15.8981   22.4392 C   0  0  1  0  0  0  0  0  0  0  0  0
    9.8053  -15.8074   22.8088 C   0  0  0  0  0  0  0  0  0  0  0  0
   10.2088  -14.7103   23.2645 O   0  0  0  0  0  0  0  0  0  0  0  0
   10.7196  -16.8666   22.6773 N   0  0  0  0  0  0  0  0  0  0  0  0
   11.9698  -16.9045   23.4512 C   0  0  1  0  0  0  0  0  0  0  0  0
   11.9239  -18.0923   24.3526 C   0  0  0  0  0  0  0  0  0  0  0  0
   13.1417  -18.3358   25.1721 C   0  0  0  0  0  0  0  0  0  0  0  0
   12.9415  -19.5459   25.9993 C   0  0  0  0  0  0  0  0  0  0  0  0
   13.8299  -20.4252   26.0450 O   0  0  0  0  0  0  0  0  0  0  0  0
   13.1149  -16.8811   22.5230 C   0  0  0  0  0  0  0  0  0  0  0  0
   14.3894  -16.5221   22.9422 O   0  0  0  0  0  0  0  0  0  0  0  0
   11.7783  -19.7137   26.7237 O   0  0  0  0  0  0  0  0  0  0  0  0
   12.9286  -17.1940   21.3232 O   0  0  0  0  0  0  0  0  0  0  0  0
  2  1  1  0
  2  3  1  0
  3  5  1  0
  3  4  1  1
  5  6  1  1
  7  5  1  0
  7  8  2  0
  9 13  1  0
  9  7  1  0
 10 11  1  0
 10  9  1  0
 11 12  1  0
 13 12  1  0
 13 14  1  1
 15 14  2  0
 16 14  1  0
 17 16  1  0
 17 18  1  6
 19 18  1  0
 20 19  1  0
 21 20  2  0
 22 17  1  0
 22 23  1  0
 24 20  1  0
 25 22  2  0
M  END
$$$$
