IPE.pdb
     RDKit          3D

 25 25  0  0  1  0  0  0  0  0999 V2000
    6.7643  -11.7988   27.6929 C   0  0  0  0  0  0  0  0  0  0  0  0
    6.0066  -12.8024   26.8245 C   0  0  0  0  0  0  0  0  0  0  0  0
    6.9503  -13.6141   26.0235 C   0  0  2  0  0  0  0  0  0  0  0  0
    7.8673  -12.7453   25.1890 C   0  0  0  0  0  0  0  0  0  0  0  0
    6.2978  -14.6978   25.2473 C   0  0  2  0  0  0  0  0  0  0  0  0
    5.4116  -15.4978   26.0907 N   0  0  0  0  0  0  0  0  0  0  0  0
    7.1526  -15.5957   24.4826 C   0  0  0  0  0  0  0  0  0  0  0  0
    7.5063  -16.7433   24.9273 O   0  0  0  0  0  0  0  0  0  0  0  0
    7.6527  -15.2593   23.1889 N   0  0  0  0  0  0  0  0  0  0  0  0
    7.3335  -13.9562   22.5814 C   0  0  0  0  0  0  0  0  0  0  0  0
    7.9866  -13.9351   21.2290 C   0  0  0  0  0  0  0  0  0  0  0  0
    8.1288  -15.3896   20.9231 C   0  0  0  0  0  0  0  0  0  0  0  0
    8.4979  -15.9578   22.2772 C   0  0  1  0  0  0  0  0  0  0  0  0
    9.9417  -15.7626   22.5711 C   0  0  0  0  0  0  0  0  0  0  0  0
   10.2386  -14.8772   23.4089 O   0  0  0  0  0  0  0  0  0  0  0  0
   10.9737  -16.5042   21.9710 N   0  0  0  0  0  0  0  0  0  0  0  0
   12.0492  -17.1118   22.7693 C   0  0  1  0  0  0  0  0  0  0  0  0
   11.4252  -18.0015   23.7914 C   0  0  0  0  0  0  0  0  0  0  0  0
   12.3676  -18.7449   24.6707 C   0  0  0  0  0  0  0  0  0  0  0  0
   11.9374  -18.6045   26.0792 C   0  0  0  0  0  0  0  0  0  0  0  0
   10.9290  -19.2210   26.4886 O   0  0  0  0  0  0  0  0  0  0  0  0
   13.0010  -17.7852   21.8670 C   0  0  0  0  0  0  0  0  0  0  0  0
   14.3731  -17.7245   22.0733 O   0  0  0  0  0  0  0  0  0  0  0  0
   12.6419  -17.7960   26.9487 O   0  0  0  0  0  0  0  0  0  0  0  0
   12.5553  -18.4288   20.8876 O   0  0  0  0  0  0  0  0  0  0  0  0
  2  1  1  0
  2  3  1  0
  3  5  1  0
  3  4  1  6
  5  6  1  1
  7  5  1  0
  7  8  2  0
  9 13  1  0
  9  7  1  0
 10 11  1  0
 10  9  1  0
 11 12  1  0
 13 12  1  0
 13 14  1  1
 15 14  2  0
 16 14  1  0
 17 16  1  0
 17 18  1  1
 19 18  1  0
 20 19  1  0
 21 20  2  0
 22 17  1  0
 22 23  1  0
 24 20  1  0
 25 22  2  0
M  END
$$$$
