IPE.pdb
     RDKit          3D

 25 25  0  0  1  0  0  0  0  0999 V2000
    8.2181  -12.0078   27.1113 C   0  0  0  0  0  0  0  0  0  0  0  0
    7.6890  -13.4215   26.8720 C   0  0  0  0  0  0  0  0  0  0  0  0
    6.6142  -13.4094   25.8544 C   0  0  2  0  0  0  0  0  0  0  0  0
    5.4953  -12.4623   26.2331 C   0  0  0  0  0  0  0  0  0  0  0  0
    6.1372  -14.7617   25.4718 C   0  0  2  0  0  0  0  0  0  0  0  0
    5.6658  -15.5094   26.6360 N   0  0  0  0  0  0  0  0  0  0  0  0
    7.0403  -15.6095   24.7054 C   0  0  0  0  0  0  0  0  0  0  0  0
    7.3408  -16.7973   25.0779 O   0  0  0  0  0  0  0  0  0  0  0  0
    7.6499  -15.1761   23.4899 N   0  0  0  0  0  0  0  0  0  0  0  0
    7.4610  -13.7961   23.0113 C   0  0  0  0  0  0  0  0  0  0  0  0
    8.2061  -13.6805   21.7122 C   0  0  0  0  0  0  0  0  0  0  0  0
    8.2720  -15.1011   21.2572 C   0  0  0  0  0  0  0  0  0  0  0  0
    8.5078  -15.8347   22.5605 C   0  0  1  0  0  0  0  0  0  0  0  0
    9.9377  -15.7786   22.9625 C   0  0  0  0  0  0  0  0  0  0  0  0
   10.3931  -14.6579   23.2949 O   0  0  0  0  0  0  0  0  0  0  0  0
   10.7913  -16.8947   22.9895 N   0  0  0  0  0  0  0  0  0  0  0  0
   12.1484  -16.8120   23.5508 C   0  0  1  0  0  0  0  0  0  0  0  0
   12.3536  -17.9858   24.4484 C   0  0  0  0  0  0  0  0  0  0  0  0
   11.2275  -18.3095   25.3656 C   0  0  0  0  0  0  0  0  0  0  0  0
   11.5555  -19.5321   26.1312 C   0  0  0  0  0  0  0  0  0  0  0  0
   11.7649  -20.6085   25.5294 O   0  0  0  0  0  0  0  0  0  0  0  0
   13.1222  -16.7028   22.4494 C   0  0  0  0  0  0  0  0  0  0  0  0
   12.7425  -16.8400   21.1205 O   0  0  0  0  0  0  0  0  0  0  0  0
   11.6326  -19.4952   27.5091 O   0  0  0  0  0  0  0  0  0  0  0  0
   14.3252  -16.4805   22.7243 O   0  0  0  0  0  0  0  0  0  0  0  0
  2  1  1  0
  2  3  1  0
  3  5  1  0
  3  4  1  1
  5  6  1  1
  7  5  1  0
  7  8  2  0
  9 13  1  0
  9  7  1  0
 10 11  1  0
 10  9  1  0
 11 12  1  0
 13 12  1  0
 13 14  1  1
 15 14  2  0
 16 14  1  0
 17 16  1  0
 17 18  1  6
 19 18  1  0
 20 19  1  0
 21 20  2  0
 22 17  1  0
 22 23  1  0
 24 20  1  0
 25 22  2  0
M  END
$$$$
