IPE.pdb
     RDKit          3D

 25 25  0  0  1  0  0  0  0  0999 V2000
    7.0009  -11.9773   27.9178 C   0  0  0  0  0  0  0  0  0  0  0  0
    6.2088  -12.8719   26.9649 C   0  0  0  0  0  0  0  0  0  0  0  0
    7.1175  -13.7725   26.2206 C   0  0  2  0  0  0  0  0  0  0  0  0
    8.2002  -13.0012   25.4959 C   0  0  0  0  0  0  0  0  0  0  0  0
    6.4132  -14.7523   25.3565 C   0  0  2  0  0  0  0  0  0  0  0  0
    5.4301  -15.5224   26.1162 N   0  0  0  0  0  0  0  0  0  0  0  0
    7.2244  -15.6733   24.5720 C   0  0  0  0  0  0  0  0  0  0  0  0
    7.5106  -16.8511   24.9853 O   0  0  0  0  0  0  0  0  0  0  0  0
    7.7538  -15.3276   23.2926 N   0  0  0  0  0  0  0  0  0  0  0  0
    7.4336  -14.0274   22.6793 C   0  0  0  0  0  0  0  0  0  0  0  0
    8.1216  -13.9947   21.3446 C   0  0  0  0  0  0  0  0  0  0  0  0
    8.2910  -15.4466   21.0398 C   0  0  0  0  0  0  0  0  0  0  0  0
    8.6318  -16.0129   22.4021 C   0  0  1  0  0  0  0  0  0  0  0  0
   10.0648  -15.7994   22.7343 C   0  0  0  0  0  0  0  0  0  0  0  0
   10.3228  -14.9731   23.6423 O   0  0  0  0  0  0  0  0  0  0  0  0
   11.1271  -16.4625   22.0964 N   0  0  0  0  0  0  0  0  0  0  0  0
   12.3143  -16.9083   22.8416 C   0  0  1  0  0  0  0  0  0  0  0  0
   11.8767  -17.9039   23.8628 C   0  0  0  0  0  0  0  0  0  0  0  0
   11.6829  -17.3803   25.2421 C   0  0  0  0  0  0  0  0  0  0  0  0
   11.3618  -18.5024   26.1512 C   0  0  0  0  0  0  0  0  0  0  0  0
   11.2639  -19.6644   25.6988 O   0  0  0  0  0  0  0  0  0  0  0  0
   13.3243  -17.4068   21.8905 C   0  0  0  0  0  0  0  0  0  0  0  0
   12.9660  -18.0113   20.6926 O   0  0  0  0  0  0  0  0  0  0  0  0
   11.1687  -18.2772   27.4996 O   0  0  0  0  0  0  0  0  0  0  0  0
   14.5389  -17.2800   22.1749 O   0  0  0  0  0  0  0  0  0  0  0  0
  2  1  1  0
  2  3  1  0
  3  5  1  0
  3  4  1  6
  5  6  1  1
  7  5  1  0
  7  8  2  0
  9 13  1  0
  9  7  1  0
 10 11  1  0
 10  9  1  0
 11 12  1  0
 13 12  1  0
 13 14  1  1
 15 14  2  0
 16 14  1  0
 17 16  1  0
 17 18  1  1
 19 18  1  0
 20 19  1  0
 21 20  2  0
 22 17  1  0
 22 23  1  0
 24 20  1  0
 25 22  2  0
M  END
$$$$
