IPE.pdb
     RDKit          3D

 25 25  0  0  1  0  0  0  0  0999 V2000
    4.5777  -18.6424   22.9451 C   0  0  0  0  0  0  0  0  0  0  0  0
    5.3890  -18.6252   21.6500 C   0  0  0  0  0  0  0  0  0  0  0  0
    4.8789  -17.5836   20.7303 C   0  0  2  0  0  0  0  0  0  0  0  0
    3.4487  -17.8555   20.3147 C   0  0  0  0  0  0  0  0  0  0  0  0
    5.7814  -17.3015   19.5864 C   0  0  2  0  0  0  0  0  0  0  0  0
    5.7912  -18.4072   18.6304 N   0  0  0  0  0  0  0  0  0  0  0  0
    7.1574  -16.9265   19.8825 C   0  0  0  0  0  0  0  0  0  0  0  0
    8.1464  -17.6929   19.6098 O   0  0  0  0  0  0  0  0  0  0  0  0
    7.4969  -15.6826   20.4943 N   0  0  0  0  0  0  0  0  0  0  0  0
    6.4409  -14.7661   20.9570 C   0  0  0  0  0  0  0  0  0  0  0  0
    7.1308  -13.5572   21.5214 C   0  0  0  0  0  0  0  0  0  0  0  0
    8.4556  -13.5986   20.8340 C   0  0  0  0  0  0  0  0  0  0  0  0
    8.7504  -15.0837   20.8157 C   0  0  1  0  0  0  0  0  0  0  0  0
    9.2870  -15.5455   22.1226 C   0  0  0  0  0  0  0  0  0  0  0  0
    8.4549  -15.9500   22.9699 O   0  0  0  0  0  0  0  0  0  0  0  0
   10.6528  -15.5528   22.4536 N   0  0  0  0  0  0  0  0  0  0  0  0
   11.1677  -16.3488   23.5782 C   0  0  1  0  0  0  0  0  0  0  0  0
   12.6542  -16.4061   23.4665 C   0  0  0  0  0  0  0  0  0  0  0  0
   13.1931  -17.2595   22.3731 C   0  0  0  0  0  0  0  0  0  0  0  0
   14.6671  -17.1388   22.3389 C   0  0  0  0  0  0  0  0  0  0  0  0
   15.3810  -18.0992   22.7029 O   0  0  0  0  0  0  0  0  0  0  0  0
   10.6678  -15.7801   24.8432 C   0  0  0  0  0  0  0  0  0  0  0  0
   10.7084  -16.4946   26.0334 O   0  0  0  0  0  0  0  0  0  0  0  0
   15.2637  -15.9710   21.9071 O   0  0  0  0  0  0  0  0  0  0  0  0
   10.1935  -14.6194   24.8398 O   0  0  0  0  0  0  0  0  0  0  0  0
  2  1  1  0
  2  3  1  0
  3  5  1  0
  3  4  1  6
  5  6  1  6
  7  5  1  0
  7  8  2  0
  9 13  1  0
  9  7  1  0
 10 11  1  0
 10  9  1  0
 11 12  1  0
 13 12  1  0
 13 14  1  1
 15 14  2  0
 16 14  1  0
 17 16  1  0
 17 18  1  1
 19 18  1  0
 20 19  1  0
 21 20  2  0
 22 17  1  0
 22 23  1  0
 24 20  1  0
 25 22  2  0
M  END
$$$$
