IPE.pdb
     RDKit          3D

 25 25  0  0  1  0  0  0  0  0999 V2000
    6.6786  -11.2613   27.2410 C   0  0  0  0  0  0  0  0  0  0  0  0
    5.9462  -12.3842   26.5072 C   0  0  0  0  0  0  0  0  0  0  0  0
    6.9121  -13.3525   25.9413 C   0  0  2  0  0  0  0  0  0  0  0  0
    7.9702  -12.6642   25.1053 C   0  0  0  0  0  0  0  0  0  0  0  0
    6.2735  -14.5022   25.2535 C   0  0  2  0  0  0  0  0  0  0  0  0
    5.3634  -15.2180   26.1457 N   0  0  0  0  0  0  0  0  0  0  0  0
    7.1423  -15.4695   24.5969 C   0  0  0  0  0  0  0  0  0  0  0  0
    7.4611  -16.5819   25.1454 O   0  0  0  0  0  0  0  0  0  0  0  0
    7.6958  -15.2449   23.3007 N   0  0  0  0  0  0  0  0  0  0  0  0
    7.4512  -13.9756   22.5948 C   0  0  0  0  0  0  0  0  0  0  0  0
    8.1459  -14.0755   21.2669 C   0  0  0  0  0  0  0  0  0  0  0  0
    8.2355  -15.5524   21.0665 C   0  0  0  0  0  0  0  0  0  0  0  0
    8.5382  -16.0389   22.4680 C   0  0  1  0  0  0  0  0  0  0  0  0
    9.9794  -15.8820   22.7963 C   0  0  0  0  0  0  0  0  0  0  0  0
   10.3789  -14.7250   23.0714 O   0  0  0  0  0  0  0  0  0  0  0  0
   10.9017  -16.9421   22.8145 N   0  0  0  0  0  0  0  0  0  0  0  0
   12.1148  -16.8925   23.6448 C   0  0  1  0  0  0  0  0  0  0  0  0
   12.0707  -18.0352   24.6029 C   0  0  0  0  0  0  0  0  0  0  0  0
   13.2625  -18.1974   25.4788 C   0  0  0  0  0  0  0  0  0  0  0  0
   13.0822  -19.3903   26.3351 C   0  0  0  0  0  0  0  0  0  0  0  0
   12.0534  -20.0923   26.2196 O   0  0  0  0  0  0  0  0  0  0  0  0
   13.3006  -16.8699   22.7691 C   0  0  0  0  0  0  0  0  0  0  0  0
   14.5400  -16.4418   23.2266 O   0  0  0  0  0  0  0  0  0  0  0  0
   14.0433  -19.7366   27.2638 O   0  0  0  0  0  0  0  0  0  0  0  0
   13.1823  -17.2478   21.5795 O   0  0  0  0  0  0  0  0  0  0  0  0
  2  1  1  0
  2  3  1  0
  3  5  1  0
  3  4  1  6
  5  6  1  1
  7  5  1  0
  7  8  2  0
  9 13  1  0
  9  7  1  0
 10 11  1  0
 10  9  1  0
 11 12  1  0
 13 12  1  0
 13 14  1  1
 15 14  2  0
 16 14  1  0
 17 16  1  0
 17 18  1  1
 19 18  1  0
 20 19  1  0
 21 20  2  0
 22 17  1  0
 22 23  1  0
 24 20  1  0
 25 22  2  0
M  END
$$$$
