IPE.pdb
     RDKit          3D

 25 25  0  0  1  0  0  0  0  0999 V2000
    7.9687  -12.2843   28.4840 C   0  0  0  0  0  0  0  0  0  0  0  0
    6.8958  -12.6065   27.4445 C   0  0  0  0  0  0  0  0  0  0  0  0
    7.3654  -13.6654   26.5230 C   0  0  2  0  0  0  0  0  0  0  0  0
    8.7471  -13.3644   25.9821 C   0  0  0  0  0  0  0  0  0  0  0  0
    6.3836  -14.0188   25.4676 C   0  0  2  0  0  0  0  0  0  0  0  0
    5.0567  -14.2570   26.0327 N   0  0  0  0  0  0  0  0  0  0  0  0
    6.7150  -15.1183   24.5715 C   0  0  0  0  0  0  0  0  0  0  0  0
    6.3652  -16.3257   24.8158 O   0  0  0  0  0  0  0  0  0  0  0  0
    7.4495  -14.9259   23.3631 N   0  0  0  0  0  0  0  0  0  0  0  0
    8.1343  -13.6485   23.1017 C   0  0  0  0  0  0  0  0  0  0  0  0
    8.7821  -13.7704   21.7521 C   0  0  0  0  0  0  0  0  0  0  0  0
    7.9650  -14.8389   21.1038 C   0  0  0  0  0  0  0  0  0  0  0  0
    7.7195  -15.7868   22.2588 C   0  0  1  0  0  0  0  0  0  0  0  0
    8.8924  -16.6689   22.4942 C   0  0  0  0  0  0  0  0  0  0  0  0
    9.0936  -17.5847   21.6606 O   0  0  0  0  0  0  0  0  0  0  0  0
    9.7724  -16.5338   23.5816 N   0  0  0  0  0  0  0  0  0  0  0  0
   10.7431  -17.5854   23.9211 C   0  0  1  0  0  0  0  0  0  0  0  0
   12.0428  -17.2470   23.2717 C   0  0  0  0  0  0  0  0  0  0  0  0
   12.6067  -15.9098   23.6002 C   0  0  0  0  0  0  0  0  0  0  0  0
   13.9469  -15.7795   22.9875 C   0  0  0  0  0  0  0  0  0  0  0  0
   14.0856  -15.9218   21.7526 O   0  0  0  0  0  0  0  0  0  0  0  0
   10.8076  -17.7300   25.3869 C   0  0  0  0  0  0  0  0  0  0  0  0
   10.1350  -16.8630   26.2381 O   0  0  0  0  0  0  0  0  0  0  0  0
   15.0499  -15.5013   23.7699 O   0  0  0  0  0  0  0  0  0  0  0  0
   11.4899  -18.6624   25.8740 O   0  0  0  0  0  0  0  0  0  0  0  0
  2  1  1  0
  2  3  1  0
  3  5  1  0
  3  4  1  6
  5  6  1  1
  7  5  1  0
  7  8  2  0
  9 13  1  0
  9  7  1  0
 10 11  1  0
 10  9  1  0
 11 12  1  0
 13 12  1  0
 13 14  1  1
 15 14  2  0
 16 14  1  0
 17 16  1  0
 17 18  1  1
 19 18  1  0
 20 19  1  0
 21 20  2  0
 22 17  1  0
 22 23  1  0
 24 20  1  0
 25 22  2  0
M  END
$$$$
