CQS.pdb
     RDKit          3D

 22 21  0  0  1  0  0  0  0  0999 V2000
    7.9264  -13.8474   17.3466 N   0  0  0  0  0  0  0  0  0  0  0  0
    8.5264  -13.5192   18.6360 C   0  0  1  0  0  0  0  0  0  0  0  0
    7.4135  -13.3126   19.6543 C   0  0  0  0  0  0  0  0  0  0  0  0
    8.1874  -12.9884   21.2591 S   0  0  0  0  0  0  0  0  0  0  0  0
    9.3922  -14.6238   19.0815 C   0  0  0  0  0  0  0  0  0  0  0  0
    9.0396  -15.8033   18.8081 O   0  0  0  0  0  0  0  0  0  0  0  0
   15.2680  -13.5629   18.3549 N   0  0  0  0  0  0  0  0  0  0  0  0
   14.7833  -14.8919   18.4532 C   0  0  0  0  0  0  0  0  0  0  0  0
   15.6010  -15.8524   18.4506 O   0  0  0  0  0  0  0  0  0  0  0  0
   13.3306  -15.1237   18.5565 C   0  0  0  0  0  0  0  0  0  0  0  0
   12.9109  -14.9659   20.0116 C   0  0  0  0  0  0  0  0  0  0  0  0
   11.4700  -15.4229   20.1951 C   0  0  2  0  0  0  0  0  0  0  0  0
   10.5865  -14.3749   19.7961 N   0  0  0  0  0  0  0  0  0  0  0  0
   11.3164  -15.8407   21.5902 C   0  0  0  0  0  0  0  0  0  0  0  0
   11.4683  -14.9749   22.4868 O   0  0  0  0  0  0  0  0  0  0  0  0
   10.1984  -19.6772   22.7906 O   0  0  0  0  0  0  0  0  0  0  0  0
    9.8496  -18.6141   23.6217 C   0  0  0  0  0  0  0  0  0  0  0  0
   10.8080  -17.4593   23.4031 C   0  0  2  0  0  0  0  0  0  0  0  0
   11.0058  -17.1603   22.0199 N   0  0  0  0  0  0  0  0  0  0  0  0
   12.0767  -17.7466   24.1203 C   0  0  0  0  0  0  0  0  0  0  0  0
   11.9864  -17.9176   25.5033 O   0  0  0  0  0  0  0  0  0  0  0  0
   13.1850  -17.8369   23.5429 O   0  0  0  0  0  0  0  0  0  0  0  0
  2  1  1  6
  2  3  1  0
  3  4  1  0
  5  2  1  0
  5 13  1  0
  6  5  2  0
  7  8  1  0
  8 10  1  0
  8  9  2  0
 10 11  1  0
 12 11  1  1
 12 13  1  0
 12 14  1  0
 14 15  2  0
 14 19  1  0
 16 17  1  0
 18 17  1  6
 18 20  1  0
 19 18  1  0
 20 21  1  0
 22 20  2  0
M  END
$$$$
