CQS.pdb
     RDKit          3D

 22 21  0  0  1  0  0  0  0  0999 V2000
    9.6791  -13.9863   17.7199 N   0  0  0  0  0  0  0  0  0  0  0  0
    8.4176  -13.8720   18.4450 C   0  0  1  0  0  0  0  0  0  0  0  0
    7.2705  -14.0822   17.4662 C   0  0  0  0  0  0  0  0  0  0  0  0
    7.3266  -12.7383   16.2538 S   0  0  0  0  0  0  0  0  0  0  0  0
    8.3503  -14.8987   19.4984 C   0  0  0  0  0  0  0  0  0  0  0  0
    7.2839  -14.9988   20.1641 O   0  0  0  0  0  0  0  0  0  0  0  0
    8.6648  -20.9925   19.8706 N   0  0  0  0  0  0  0  0  0  0  0  0
    9.7605  -20.1535   19.5448 C   0  0  0  0  0  0  0  0  0  0  0  0
   10.9160  -20.6506   19.4496 O   0  0  0  0  0  0  0  0  0  0  0  0
    9.5259  -18.7145   19.3235 C   0  0  0  0  0  0  0  0  0  0  0  0
   10.2548  -17.9268   20.4036 C   0  0  0  0  0  0  0  0  0  0  0  0
    9.4314  -16.7137   20.8149 C   0  0  2  0  0  0  0  0  0  0  0  0
    9.4472  -15.7512   19.7606 N   0  0  0  0  0  0  0  0  0  0  0  0
    9.9742  -16.2247   22.0840 C   0  0  0  0  0  0  0  0  0  0  0  0
   11.1252  -15.7231   22.0806 O   0  0  0  0  0  0  0  0  0  0  0  0
    7.8365  -14.6043   24.7952 O   0  0  0  0  0  0  0  0  0  0  0  0
    8.8901  -15.1873   25.4970 C   0  0  0  0  0  0  0  0  0  0  0  0
    9.9042  -15.7511   24.5203 C   0  0  2  0  0  0  0  0  0  0  0  0
    9.2990  -16.2708   23.3348 N   0  0  0  0  0  0  0  0  0  0  0  0
   10.7459  -16.7507   25.2266 C   0  0  0  0  0  0  0  0  0  0  0  0
   11.4228  -16.3043   26.3635 O   0  0  0  0  0  0  0  0  0  0  0  0
   10.8626  -17.9389   24.8467 O   0  0  0  0  0  0  0  0  0  0  0  0
  2  1  1  6
  2  3  1  0
  3  4  1  0
  5  2  1  0
  5 13  1  0
  6  5  2  0
  7  8  1  0
  8 10  1  0
  8  9  2  0
 10 11  1  0
 12 11  1  6
 12 13  1  0
 12 14  1  0
 14 15  2  0
 14 19  1  0
 16 17  1  0
 18 17  1  1
 18 20  1  0
 19 18  1  0
 20 21  1  0
 22 20  2  0
M  END
$$$$
