CQS.pdb
     RDKit          3D

 22 21  0  0  1  0  0  0  0  0999 V2000
    7.3771  -14.5675   18.5886 N   0  0  0  0  0  0  0  0  0  0  0  0
    8.3315  -14.2487   19.6459 C   0  0  1  0  0  0  0  0  0  0  0  0
    7.8593  -12.9945   20.3686 C   0  0  0  0  0  0  0  0  0  0  0  0
    8.2073  -11.5765   19.2974 S   0  0  0  0  0  0  0  0  0  0  0  0
    8.4063  -15.3625   20.6062 C   0  0  0  0  0  0  0  0  0  0  0  0
    7.3559  -16.0216   20.8354 O   0  0  0  0  0  0  0  0  0  0  0  0
   13.3318  -18.7839   21.3147 N   0  0  0  0  0  0  0  0  0  0  0  0
   12.2198  -19.1551   20.5169 C   0  0  0  0  0  0  0  0  0  0  0  0
   12.3561  -20.0540   19.6423 O   0  0  0  0  0  0  0  0  0  0  0  0
   10.9248  -18.4816   20.7268 C   0  0  0  0  0  0  0  0  0  0  0  0
   11.0603  -17.5098   21.8911 C   0  0  0  0  0  0  0  0  0  0  0  0
    9.7353  -16.8022   22.1413 C   0  0  2  0  0  0  0  0  0  0  0  0
    9.6189  -15.6883   21.2560 N   0  0  0  0  0  0  0  0  0  0  0  0
    9.6878  -16.4491   23.5618 C   0  0  0  0  0  0  0  0  0  0  0  0
   10.5996  -15.7175   24.0199 O   0  0  0  0  0  0  0  0  0  0  0  0
    6.3684  -16.7968   25.9885 O   0  0  0  0  0  0  0  0  0  0  0  0
    7.3975  -15.9243   26.3385 C   0  0  0  0  0  0  0  0  0  0  0  0
    8.7229  -16.4756   25.8494 C   0  0  2  0  0  0  0  0  0  0  0  0
    8.6838  -16.8704   24.4766 N   0  0  0  0  0  0  0  0  0  0  0  0
    9.1496  -17.5728   26.7552 C   0  0  0  0  0  0  0  0  0  0  0  0
    9.2199  -17.2666   28.1159 O   0  0  0  0  0  0  0  0  0  0  0  0
    9.4377  -18.7229   26.3500 O   0  0  0  0  0  0  0  0  0  0  0  0
  2  1  1  6
  2  3  1  0
  3  4  1  0
  5  2  1  0
  5 13  1  0
  6  5  2  0
  7  8  1  0
  8 10  1  0
  8  9  2  0
 10 11  1  0
 12 11  1  1
 12 13  1  0
 12 14  1  0
 14 15  2  0
 14 19  1  0
 16 17  1  0
 18 17  1  1
 18 20  1  0
 19 18  1  0
 20 21  1  0
 22 20  2  0
M  END
$$$$
