CQS.pdb
     RDKit          3D

 22 21  0  0  1  0  0  0  0  0999 V2000
    4.9104  -13.2457   26.4408 N   0  0  0  0  0  0  0  0  0  0  0  0
    6.2093  -12.9171   25.8619 C   0  0  1  0  0  0  0  0  0  0  0  0
    7.0035  -12.1029   26.8740 C   0  0  0  0  0  0  0  0  0  0  0  0
    8.6344  -11.7737   26.1594 S   0  0  0  0  0  0  0  0  0  0  0  0
    6.9458  -14.1532   25.5491 C   0  0  0  0  0  0  0  0  0  0  0  0
    6.9181  -15.0913   26.3915 O   0  0  0  0  0  0  0  0  0  0  0  0
    9.3471  -17.4547   19.6903 N   0  0  0  0  0  0  0  0  0  0  0  0
    9.8657  -16.5923   20.6894 C   0  0  0  0  0  0  0  0  0  0  0  0
   10.7223  -15.7216   20.3739 O   0  0  0  0  0  0  0  0  0  0  0  0
    9.3919  -16.7314   22.0789 C   0  0  0  0  0  0  0  0  0  0  0  0
    8.7968  -15.4044   22.5296 C   0  0  0  0  0  0  0  0  0  0  0  0
    8.3089  -15.5092   23.9683 C   0  0  2  0  0  0  0  0  0  0  0  0
    7.6654  -14.2902   24.3399 N   0  0  0  0  0  0  0  0  0  0  0  0
    9.4636  -15.8574   24.7989 C   0  0  0  0  0  0  0  0  0  0  0  0
   10.3308  -14.9734   25.0063 O   0  0  0  0  0  0  0  0  0  0  0  0
    9.6561  -19.1439   27.2779 O   0  0  0  0  0  0  0  0  0  0  0  0
   10.4821  -18.0493   27.5273 C   0  0  0  0  0  0  0  0  0  0  0  0
   10.8320  -17.3652   26.2197 C   0  0  2  0  0  0  0  0  0  0  0  0
    9.6877  -17.1278   25.3975 N   0  0  0  0  0  0  0  0  0  0  0  0
   11.8851  -18.1553   25.5320 C   0  0  0  0  0  0  0  0  0  0  0  0
   13.0638  -18.3791   26.2466 O   0  0  0  0  0  0  0  0  0  0  0  0
   11.7526  -18.6105   24.3721 O   0  0  0  0  0  0  0  0  0  0  0  0
  2  1  1  1
  2  3  1  0
  3  4  1  0
  5  2  1  0
  5 13  1  0
  6  5  2  0
  7  8  1  0
  8 10  1  0
  8  9  2  0
 10 11  1  0
 12 11  1  6
 12 13  1  0
 12 14  1  0
 14 15  2  0
 14 19  1  0
 16 17  1  0
 18 17  1  1
 18 20  1  0
 19 18  1  0
 20 21  1  0
 22 20  2  0
M  END
$$$$
