CQS.pdb
     RDKit          3D

 22 21  0  0  1  0  0  0  0  0999 V2000
    7.8972  -16.0461   16.3647 N   0  0  0  0  0  0  0  0  0  0  0  0
    9.1492  -15.5990   16.9671 C   0  0  1  0  0  0  0  0  0  0  0  0
    8.8307  -14.6037   18.0743 C   0  0  0  0  0  0  0  0  0  0  0  0
    8.0681  -13.1511   17.3076 S   0  0  0  0  0  0  0  0  0  0  0  0
    9.8679  -16.7490   17.5410 C   0  0  0  0  0  0  0  0  0  0  0  0
    9.1889  -17.7242   17.9632 O   0  0  0  0  0  0  0  0  0  0  0  0
   15.4586  -18.4326   15.7114 N   0  0  0  0  0  0  0  0  0  0  0  0
   15.1979  -19.4459   16.6685 C   0  0  0  0  0  0  0  0  0  0  0  0
   15.9955  -20.4173   16.7765 O   0  0  0  0  0  0  0  0  0  0  0  0
   13.9978  -19.3428   17.5192 C   0  0  0  0  0  0  0  0  0  0  0  0
   13.2756  -18.0426   17.1931 C   0  0  0  0  0  0  0  0  0  0  0  0
   12.0085  -17.9218   18.0290 C   0  0  2  0  0  0  0  0  0  0  0  0
   11.2794  -16.7649   17.6191 N   0  0  0  0  0  0  0  0  0  0  0  0
   12.4109  -17.9117   19.4370 C   0  0  0  0  0  0  0  0  0  0  0  0
   13.0551  -16.9207   19.8606 O   0  0  0  0  0  0  0  0  0  0  0  0
   10.2976  -18.9561   22.5680 O   0  0  0  0  0  0  0  0  0  0  0  0
   11.5681  -19.5152   22.6937 C   0  0  0  0  0  0  0  0  0  0  0  0
   12.5267  -18.8236   21.7435 C   0  0  2  0  0  0  0  0  0  0  0  0
   12.1300  -18.9423   20.3759 N   0  0  0  0  0  0  0  0  0  0  0  0
   13.9000  -19.3312   21.9939 C   0  0  0  0  0  0  0  0  0  0  0  0
   14.3962  -19.1745   23.2898 O   0  0  0  0  0  0  0  0  0  0  0  0
   14.6010  -19.8760   21.1098 O   0  0  0  0  0  0  0  0  0  0  0  0
  2  1  1  1
  2  3  1  0
  3  4  1  0
  5  2  1  0
  5 13  1  0
  6  5  2  0
  7  8  1  0
  8 10  1  0
  8  9  2  0
 10 11  1  0
 12 11  1  6
 12 13  1  0
 12 14  1  0
 14 15  2  0
 14 19  1  0
 16 17  1  0
 18 17  1  1
 18 20  1  0
 19 18  1  0
 20 21  1  0
 22 20  2  0
M  END
$$$$
