CQS.pdb
     RDKit          3D

 22 21  0  0  1  0  0  0  0  0999 V2000
    8.2607  -13.5982   17.8782 N   0  0  0  0  0  0  0  0  0  0  0  0
    9.4826  -14.0216   18.5550 C   0  0  1  0  0  0  0  0  0  0  0  0
   10.0168  -12.8548   19.3743 C   0  0  0  0  0  0  0  0  0  0  0  0
   11.5928  -13.3684   20.1034 S   0  0  0  0  0  0  0  0  0  0  0  0
    9.1922  -15.1519   19.4530 C   0  0  0  0  0  0  0  0  0  0  0  0
    8.0552  -15.2031   19.9960 O   0  0  0  0  0  0  0  0  0  0  0  0
    8.1175  -20.2845   18.2762 N   0  0  0  0  0  0  0  0  0  0  0  0
    7.4359  -19.0415   18.3072 C   0  0  0  0  0  0  0  0  0  0  0  0
    6.3897  -18.8901   17.6187 O   0  0  0  0  0  0  0  0  0  0  0  0
    7.9651  -17.9496   19.1454 C   0  0  0  0  0  0  0  0  0  0  0  0
    9.2842  -18.3980   19.7597 C   0  0  0  0  0  0  0  0  0  0  0  0
    9.9009  -17.2627   20.5657 C   0  0  2  0  0  0  0  0  0  0  0  0
   10.1572  -16.1544   19.7030 N   0  0  0  0  0  0  0  0  0  0  0  0
   11.0916  -17.7941   21.2323 C   0  0  0  0  0  0  0  0  0  0  0  0
   12.1791  -17.7734   20.6050 O   0  0  0  0  0  0  0  0  0  0  0  0
   13.4997  -16.3200   24.4487 O   0  0  0  0  0  0  0  0  0  0  0  0
   12.4151  -16.5429   23.6021 C   0  0  0  0  0  0  0  0  0  0  0  0
   12.1852  -18.0340   23.4484 C   0  0  2  0  0  0  0  0  0  0  0  0
   11.1199  -18.3381   22.5460 N   0  0  0  0  0  0  0  0  0  0  0  0
   11.9913  -18.6307   24.7948 C   0  0  0  0  0  0  0  0  0  0  0  0
   13.1439  -18.8474   25.5529 O   0  0  0  0  0  0  0  0  0  0  0  0
   10.8658  -18.9343   25.2541 O   0  0  0  0  0  0  0  0  0  0  0  0
  2  1  1  1
  2  3  1  0
  3  4  1  0
  5  2  1  0
  5 13  1  0
  6  5  2  0
  7  8  1  0
  8 10  1  0
  8  9  2  0
 10 11  1  0
 12 11  1  6
 12 13  1  0
 12 14  1  0
 14 15  2  0
 14 19  1  0
 16 17  1  0
 18 17  1  1
 18 20  1  0
 19 18  1  0
 20 21  1  0
 22 20  2  0
M  END
$$$$
