QGH.pdb
     RDKit          3D

 24 24  0  0  1  0  0  0  0  0999 V2000
   47.0419  -11.4636   -5.1535 N   0  0  0  0  0  0  0  0  0  0  0  0
   47.1046  -10.0265   -5.2610 C   0  0  0  0  0  0  0  0  0  0  0  0
   47.8804   -9.4325   -4.5076 O   0  0  0  0  0  0  0  0  0  0  0  0
   46.2632   -9.3065   -6.2413 C   0  0  0  0  0  0  0  0  0  0  0  0
   45.4218  -10.2303   -7.0714 C   0  0  0  0  0  0  0  0  0  0  0  0
   44.6028   -9.5415   -8.1270 C   0  0  2  0  0  0  0  0  0  0  0  0
   45.5086   -8.7195   -8.9470 N   0  0  0  0  0  0  0  0  0  0  0  0
   43.5014   -8.7250   -7.5968 C   0  0  0  0  0  0  0  0  0  0  0  0
   42.3717   -9.2291   -7.3977 O   0  0  0  0  0  0  0  0  0  0  0  0
   43.6946   -7.3267   -7.2937 N   0  0  0  0  0  0  0  0  0  0  0  0
   42.5979   -6.6322   -6.7021 C   0  0  0  0  0  0  0  0  0  0  0  0
   41.6496   -6.0861   -7.7050 C   0  0  0  0  0  0  0  0  0  0  0  0
   42.0560   -6.0215   -8.8854 O   0  0  0  0  0  0  0  0  0  0  0  0
   40.3528   -5.6523   -7.3882 N   0  0  0  0  0  0  0  0  0  0  0  0
   39.4065   -5.0321   -8.2831 C   0  0  1  0  0  0  0  0  0  0  0  0
   38.1210   -5.7596   -8.3837 C   0  0  0  0  0  0  0  0  0  0  0  0
   38.2583   -7.0556   -9.0782 C   0  0  0  0  0  0  0  0  0  0  0  0
   39.4739   -7.5527   -9.5407 C   0  0  0  0  0  0  0  0  0  0  0  0
   39.2427   -8.7376  -10.1156 N   0  0  0  0  0  0  0  0  0  0  0  0
   37.9282   -9.0065  -10.0333 C   0  0  0  0  0  0  0  0  0  0  0  0
   37.3478   -7.9783   -9.4028 N   0  0  0  0  0  0  0  0  0  0  0  0
   39.3020   -3.5603   -8.1137 C   0  0  0  0  0  0  0  0  0  0  0  0
   38.6688   -2.7875   -9.0660 O   0  0  0  0  0  0  0  0  0  0  0  0
   39.7725   -2.9604   -7.1139 O   0  0  0  0  0  0  0  0  0  0  0  0
  2  4  1  0
  2  1  1  0
  3  2  2  0
  5  6  1  0
  5  4  1  0
  6  7  1  1
  6  8  1  0
  8  9  2  0
  8 10  1  0
 10 11  1  0
 12 11  1  0
 12 14  1  0
 13 12  2  0
 15 14  1  0
 15 16  1  1
 15 22  1  0
 16 17  1  0
 17 18  2  0
 17 21  1  0
 18 19  1  0
 19 20  1  0
 21 20  2  0
 22 23  1  0
 24 22  2  0
M  END
$$$$
