QGH.pdb
     RDKit          3D

 24 24  0  0  1  0  0  0  0  0999 V2000
   27.1054  -33.5048  -16.3185 N   0  0  0  0  0  0  0  0  0  0  0  0
   25.8245  -32.8422  -16.3513 C   0  0  0  0  0  0  0  0  0  0  0  0
   25.3742  -32.5278  -17.4561 O   0  0  0  0  0  0  0  0  0  0  0  0
   25.0915  -32.5562  -15.0990 C   0  0  0  0  0  0  0  0  0  0  0  0
   25.8690  -32.9350  -13.8733 C   0  0  0  0  0  0  0  0  0  0  0  0
   25.0656  -33.6589  -12.8293 C   0  0  2  0  0  0  0  0  0  0  0  0
   24.0161  -32.7471  -12.3440 N   0  0  0  0  0  0  0  0  0  0  0  0
   25.8625  -34.1742  -11.7067 C   0  0  0  0  0  0  0  0  0  0  0  0
   26.7156  -35.0735  -11.8893 O   0  0  0  0  0  0  0  0  0  0  0  0
   25.6815  -33.6578  -10.3706 N   0  0  0  0  0  0  0  0  0  0  0  0
   26.4318  -34.2770   -9.3272 C   0  0  0  0  0  0  0  0  0  0  0  0
   26.1277  -33.7189   -7.9857 C   0  0  0  0  0  0  0  0  0  0  0  0
   25.5440  -32.6138   -7.9563 O   0  0  0  0  0  0  0  0  0  0  0  0
   26.4604  -34.3652   -6.7850 N   0  0  0  0  0  0  0  0  0  0  0  0
   26.2644  -33.8592   -5.4484 C   0  0  1  0  0  0  0  0  0  0  0  0
   25.3626  -34.6953   -4.6241 C   0  0  0  0  0  0  0  0  0  0  0  0
   23.9605  -34.6365   -5.0839 C   0  0  0  0  0  0  0  0  0  0  0  0
   23.5475  -33.9036   -6.1935 C   0  0  0  0  0  0  0  0  0  0  0  0
   22.2273  -34.0677   -6.3276 N   0  0  0  0  0  0  0  0  0  0  0  0
   21.7922  -34.8756   -5.3454 C   0  0  0  0  0  0  0  0  0  0  0  0
   22.8539  -35.2103   -4.6023 N   0  0  0  0  0  0  0  0  0  0  0  0
   27.5198  -33.4206   -4.7869 C   0  0  0  0  0  0  0  0  0  0  0  0
   28.7460  -33.6891   -5.3606 O   0  0  0  0  0  0  0  0  0  0  0  0
   27.5256  -32.7937   -3.6970 O   0  0  0  0  0  0  0  0  0  0  0  0
  2  4  1  0
  2  1  1  0
  3  2  2  0
  5  6  1  0
  5  4  1  0
  6  7  1  1
  6  8  1  0
  8  9  2  0
  8 10  1  0
 10 11  1  0
 12 11  1  0
 12 14  1  0
 13 12  2  0
 15 14  1  0
 15 16  1  1
 15 22  1  0
 16 17  1  0
 17 18  2  0
 17 21  1  0
 18 19  1  0
 19 20  1  0
 21 20  2  0
 22 23  1  0
 24 22  2  0
M  END
$$$$
