QGH.pdb
     RDKit          3D

 24 24  0  0  1  0  0  0  0  0999 V2000
   19.4272  -17.4915  -20.4622 N   0  0  0  0  0  0  0  0  0  0  0  0
   18.4923  -16.9006  -21.3883 C   0  0  0  0  0  0  0  0  0  0  0  0
   17.6144  -17.6311  -21.8550 O   0  0  0  0  0  0  0  0  0  0  0  0
   18.5963  -15.4718  -21.7557 C   0  0  0  0  0  0  0  0  0  0  0  0
   19.8166  -14.8137  -21.1828 C   0  0  0  0  0  0  0  0  0  0  0  0
   19.7066  -14.4677  -19.7241 C   0  0  2  0  0  0  0  0  0  0  0  0
   18.2966  -14.6101  -19.3238 N   0  0  0  0  0  0  0  0  0  0  0  0
   20.2079  -13.1285  -19.3837 C   0  0  0  0  0  0  0  0  0  0  0  0
   21.3959  -12.8113  -19.6248 O   0  0  0  0  0  0  0  0  0  0  0  0
   19.3458  -12.1494  -18.7650 N   0  0  0  0  0  0  0  0  0  0  0  0
   19.8921  -10.8506  -18.5421 C   0  0  0  0  0  0  0  0  0  0  0  0
   20.1055  -10.5513  -17.1039 C   0  0  0  0  0  0  0  0  0  0  0  0
   20.0230  -11.5146  -16.3115 O   0  0  0  0  0  0  0  0  0  0  0  0
   20.3879   -9.2665  -16.6143 N   0  0  0  0  0  0  0  0  0  0  0  0
   20.6363   -8.9004  -15.2412 C   0  0  1  0  0  0  0  0  0  0  0  0
   21.6342   -9.7629  -14.5688 C   0  0  0  0  0  0  0  0  0  0  0  0
   21.8391   -9.3924  -13.1541 C   0  0  0  0  0  0  0  0  0  0  0  0
   21.1071   -8.4000  -12.5076 C   0  0  0  0  0  0  0  0  0  0  0  0
   21.5432   -8.3221  -11.2460 N   0  0  0  0  0  0  0  0  0  0  0  0
   22.5218   -9.2270  -11.0723 C   0  0  0  0  0  0  0  0  0  0  0  0
   22.6878   -9.8657  -12.2368 N   0  0  0  0  0  0  0  0  0  0  0  0
   20.8046   -7.4392  -15.0349 C   0  0  0  0  0  0  0  0  0  0  0  0
   20.1726   -6.8013  -13.9867 O   0  0  0  0  0  0  0  0  0  0  0  0
   21.5186   -6.7287  -15.7872 O   0  0  0  0  0  0  0  0  0  0  0  0
  2  4  1  0
  2  1  1  0
  3  2  2  0
  5  6  1  0
  5  4  1  0
  6  7  1  6
  6  8  1  0
  8  9  2  0
  8 10  1  0
 10 11  1  0
 12 11  1  0
 12 14  1  0
 13 12  2  0
 15 14  1  0
 15 16  1  6
 15 22  1  0
 16 17  1  0
 17 18  2  0
 17 21  1  0
 18 19  1  0
 19 20  1  0
 21 20  2  0
 22 23  1  0
 24 22  2  0
M  END
$$$$
