QGH.pdb
     RDKit          3D

 24 24  0  0  1  0  0  0  0  0999 V2000
   25.7700  -20.6045   -9.0234 N   0  0  0  0  0  0  0  0  0  0  0  0
   24.5166  -21.3159   -8.9630 C   0  0  0  0  0  0  0  0  0  0  0  0
   24.0708  -21.5901   -7.8458 O   0  0  0  0  0  0  0  0  0  0  0  0
   23.8055  -21.6966  -10.2027 C   0  0  0  0  0  0  0  0  0  0  0  0
   24.5403  -21.2809  -11.4428 C   0  0  0  0  0  0  0  0  0  0  0  0
   23.9388  -20.1002  -12.1526 C   0  0  2  0  0  0  0  0  0  0  0  0
   22.5222  -20.0030  -11.7622 N   0  0  0  0  0  0  0  0  0  0  0  0
   24.0698  -20.1468  -13.6159 C   0  0  0  0  0  0  0  0  0  0  0  0
   25.1801  -20.3738  -14.1505 O   0  0  0  0  0  0  0  0  0  0  0  0
   22.9254  -19.9327  -14.4698 N   0  0  0  0  0  0  0  0  0  0  0  0
   23.1776  -19.7574  -15.8629 C   0  0  0  0  0  0  0  0  0  0  0  0
   23.4753  -18.3488  -16.2247 C   0  0  0  0  0  0  0  0  0  0  0  0
   23.3263  -17.4943  -15.3246 O   0  0  0  0  0  0  0  0  0  0  0  0
   23.9048  -17.9517  -17.5006 N   0  0  0  0  0  0  0  0  0  0  0  0
   24.2261  -16.6111  -17.9256 C   0  0  1  0  0  0  0  0  0  0  0  0
   25.6065  -16.4672  -18.4408 C   0  0  0  0  0  0  0  0  0  0  0  0
   26.6159  -17.0159  -17.5129 C   0  0  0  0  0  0  0  0  0  0  0  0
   26.4870  -16.9731  -16.1272 C   0  0  0  0  0  0  0  0  0  0  0  0
   27.5681  -17.5524  -15.5947 N   0  0  0  0  0  0  0  0  0  0  0  0
   28.3734  -17.9587  -16.5913 C   0  0  0  0  0  0  0  0  0  0  0  0
   27.7818  -17.6261  -17.7450 N   0  0  0  0  0  0  0  0  0  0  0  0
   23.1632  -15.9745  -18.7448 C   0  0  0  0  0  0  0  0  0  0  0  0
   22.7945  -14.6636  -18.5199 O   0  0  0  0  0  0  0  0  0  0  0  0
   22.5634  -16.5853  -19.6656 O   0  0  0  0  0  0  0  0  0  0  0  0
  2  4  1  0
  2  1  1  0
  3  2  2  0
  5  6  1  0
  5  4  1  0
  6  7  1  6
  6  8  1  0
  8  9  2  0
  8 10  1  0
 10 11  1  0
 12 11  1  0
 12 14  1  0
 13 12  2  0
 15 14  1  0
 15 16  1  6
 15 22  1  0
 16 17  1  0
 17 18  2  0
 17 21  1  0
 18 19  1  0
 19 20  1  0
 21 20  2  0
 22 23  1  0
 24 22  2  0
M  END
$$$$
