QGH.pdb
     RDKit          3D

 24 24  0  0  1  0  0  0  0  0999 V2000
   24.6122   -8.6760  -15.1368 N   0  0  0  0  0  0  0  0  0  0  0  0
   24.9589  -10.0727  -15.2370 C   0  0  0  0  0  0  0  0  0  0  0  0
   25.9327  -10.4654  -14.5892 O   0  0  0  0  0  0  0  0  0  0  0  0
   24.1678  -10.9864  -16.0895 C   0  0  0  0  0  0  0  0  0  0  0  0
   22.9828  -10.3132  -16.7163 C   0  0  0  0  0  0  0  0  0  0  0  0
   21.7262  -10.3794  -15.8942 C   0  0  2  0  0  0  0  0  0  0  0  0
   21.0499  -11.6534  -16.1914 N   0  0  0  0  0  0  0  0  0  0  0  0
   20.8111   -9.2478  -16.1010 C   0  0  0  0  0  0  0  0  0  0  0  0
   21.1116   -8.1013  -15.6944 O   0  0  0  0  0  0  0  0  0  0  0  0
   19.5477   -9.4298  -16.7758 N   0  0  0  0  0  0  0  0  0  0  0  0
   18.7575   -8.2639  -17.0018 C   0  0  0  0  0  0  0  0  0  0  0  0
   17.9796   -7.8510  -15.8069 C   0  0  0  0  0  0  0  0  0  0  0  0
   17.2012   -8.7007  -15.3224 O   0  0  0  0  0  0  0  0  0  0  0  0
   18.0816   -6.5811  -15.2178 N   0  0  0  0  0  0  0  0  0  0  0  0
   17.2837   -6.0657  -14.1321 C   0  0  1  0  0  0  0  0  0  0  0  0
   18.0057   -6.0083  -12.8408 C   0  0  0  0  0  0  0  0  0  0  0  0
   18.3731   -7.3477  -12.3391 C   0  0  0  0  0  0  0  0  0  0  0  0
   17.5185   -8.1433  -11.5804 C   0  0  0  0  0  0  0  0  0  0  0  0
   18.1598   -9.2814  -11.2951 N   0  0  0  0  0  0  0  0  0  0  0  0
   19.3856   -9.2339  -11.8448 C   0  0  0  0  0  0  0  0  0  0  0  0
   19.4976   -8.0571  -12.4725 N   0  0  0  0  0  0  0  0  0  0  0  0
   16.5041   -4.8528  -14.4886 C   0  0  0  0  0  0  0  0  0  0  0  0
   16.6705   -4.2480  -15.7179 O   0  0  0  0  0  0  0  0  0  0  0  0
   15.6700   -4.3317  -13.7053 O   0  0  0  0  0  0  0  0  0  0  0  0
  2  4  1  0
  2  1  1  0
  3  2  2  0
  5  6  1  0
  5  4  1  0
  6  7  1  6
  6  8  1  0
  8  9  2  0
  8 10  1  0
 10 11  1  0
 12 11  1  0
 12 14  1  0
 13 12  2  0
 15 14  1  0
 15 16  1  1
 15 22  1  0
 16 17  1  0
 17 18  2  0
 17 21  1  0
 18 19  1  0
 19 20  1  0
 21 20  2  0
 22 23  1  0
 24 22  2  0
M  END
$$$$
