QGH.pdb
     RDKit          3D

 24 24  0  0  1  0  0  0  0  0999 V2000
   22.9686  -16.8789  -15.0446 N   0  0  0  0  0  0  0  0  0  0  0  0
   24.1254  -17.4258  -15.7106 C   0  0  0  0  0  0  0  0  0  0  0  0
   23.9981  -18.5197  -16.2667 O   0  0  0  0  0  0  0  0  0  0  0  0
   25.4091  -16.6914  -15.7164 C   0  0  0  0  0  0  0  0  0  0  0  0
   25.3138  -15.3530  -15.0455 C   0  0  0  0  0  0  0  0  0  0  0  0
   24.6125  -14.3011  -15.8587 C   0  0  2  0  0  0  0  0  0  0  0  0
   25.4127  -14.0471  -17.0686 N   0  0  0  0  0  0  0  0  0  0  0  0
   24.3603  -13.0479  -15.1331 C   0  0  0  0  0  0  0  0  0  0  0  0
   23.6895  -13.0470  -14.0748 O   0  0  0  0  0  0  0  0  0  0  0  0
   24.8782  -11.7916  -15.6211 N   0  0  0  0  0  0  0  0  0  0  0  0
   24.5298  -10.6171  -14.8904 C   0  0  0  0  0  0  0  0  0  0  0  0
   23.4081   -9.8640  -15.5053 C   0  0  0  0  0  0  0  0  0  0  0  0
   23.4131   -9.7673  -16.7517 O   0  0  0  0  0  0  0  0  0  0  0  0
   22.3731   -9.2740  -14.7632 N   0  0  0  0  0  0  0  0  0  0  0  0
   21.2167   -8.5887  -15.2867 C   0  0  1  0  0  0  0  0  0  0  0  0
   19.9304   -9.1731  -14.8444 C   0  0  0  0  0  0  0  0  0  0  0  0
   19.7886  -10.5895  -15.2375 C   0  0  0  0  0  0  0  0  0  0  0  0
   20.5655  -11.1933  -16.2227 C   0  0  0  0  0  0  0  0  0  0  0  0
   20.1809  -12.4697  -16.3262 N   0  0  0  0  0  0  0  0  0  0  0  0
   19.1915  -12.6938  -15.4442 C   0  0  0  0  0  0  0  0  0  0  0  0
   18.9670  -11.5455  -14.7941 N   0  0  0  0  0  0  0  0  0  0  0  0
   21.3134   -7.1088  -15.2060 C   0  0  0  0  0  0  0  0  0  0  0  0
   20.4620   -6.3088  -15.9409 O   0  0  0  0  0  0  0  0  0  0  0  0
   22.1554   -6.5258  -14.4768 O   0  0  0  0  0  0  0  0  0  0  0  0
  2  4  1  0
  2  1  1  0
  3  2  2  0
  5  6  1  0
  5  4  1  0
  6  7  1  6
  6  8  1  0
  8  9  2  0
  8 10  1  0
 10 11  1  0
 12 11  1  0
 12 14  1  0
 13 12  2  0
 15 14  1  0
 15 16  1  1
 15 22  1  0
 16 17  1  0
 17 18  2  0
 17 21  1  0
 18 19  1  0
 19 20  1  0
 21 20  2  0
 22 23  1  0
 24 22  2  0
M  END
$$$$
