QGH.pdb
     RDKit          3D

 24 24  0  0  1  0  0  0  0  0999 V2000
   20.3271  -11.0394  -22.4843 N   0  0  0  0  0  0  0  0  0  0  0  0
   19.8222  -11.5604  -21.2374 C   0  0  0  0  0  0  0  0  0  0  0  0
   18.9311  -12.4117  -21.2953 O   0  0  0  0  0  0  0  0  0  0  0  0
   20.3619  -11.0810  -19.9466 C   0  0  0  0  0  0  0  0  0  0  0  0
   21.4064  -10.0175  -20.1146 C   0  0  0  0  0  0  0  0  0  0  0  0
   22.5854  -10.1561  -19.1925 C   0  0  2  0  0  0  0  0  0  0  0  0
   22.1904  -11.0231  -18.0696 N   0  0  0  0  0  0  0  0  0  0  0  0
   23.1157   -8.8778  -18.6969 C   0  0  0  0  0  0  0  0  0  0  0  0
   23.5373   -8.0091  -19.4955 O   0  0  0  0  0  0  0  0  0  0  0  0
   23.1632   -8.5936  -17.2822 N   0  0  0  0  0  0  0  0  0  0  0  0
   23.6594   -7.3142  -16.8925 C   0  0  0  0  0  0  0  0  0  0  0  0
   22.6253   -6.4619  -16.2540 C   0  0  0  0  0  0  0  0  0  0  0  0
   21.7634   -5.9634  -17.0099 O   0  0  0  0  0  0  0  0  0  0  0  0
   22.5795   -6.2020  -14.8755 N   0  0  0  0  0  0  0  0  0  0  0  0
   21.6249   -5.3701  -14.1843 C   0  0  1  0  0  0  0  0  0  0  0  0
   21.2175   -5.9051  -12.8654 C   0  0  0  0  0  0  0  0  0  0  0  0
   20.4444   -7.1583  -12.9785 C   0  0  0  0  0  0  0  0  0  0  0  0
   20.1824   -7.7907  -14.1910 C   0  0  0  0  0  0  0  0  0  0  0  0
   19.4649   -8.8898  -13.9359 N   0  0  0  0  0  0  0  0  0  0  0  0
   19.2645   -8.9745  -12.6094 C   0  0  0  0  0  0  0  0  0  0  0  0
   19.8639   -7.9188  -12.0457 N   0  0  0  0  0  0  0  0  0  0  0  0
   21.9610   -3.9237  -14.2167 C   0  0  0  0  0  0  0  0  0  0  0  0
   21.0403   -2.9801  -13.8082 O   0  0  0  0  0  0  0  0  0  0  0  0
   23.0782   -3.4985  -14.6063 O   0  0  0  0  0  0  0  0  0  0  0  0
  2  4  1  0
  2  1  1  0
  3  2  2  0
  5  6  1  0
  5  4  1  0
  6  7  1  1
  6  8  1  0
  8  9  2  0
  8 10  1  0
 10 11  1  0
 12 11  1  0
 12 14  1  0
 13 12  2  0
 15 14  1  0
 15 16  1  1
 15 22  1  0
 16 17  1  0
 17 18  2  0
 17 21  1  0
 18 19  1  0
 19 20  1  0
 21 20  2  0
 22 23  1  0
 24 22  2  0
M  END
$$$$
