QGH.pdb
     RDKit          3D

 24 24  0  0  1  0  0  0  0  0999 V2000
   16.3346  -13.8901  -17.6666 N   0  0  0  0  0  0  0  0  0  0  0  0
   15.8504  -13.2216  -16.4835 C   0  0  0  0  0  0  0  0  0  0  0  0
   15.2633  -13.9070  -15.6423 O   0  0  0  0  0  0  0  0  0  0  0  0
   16.0567  -11.7685  -16.3012 C   0  0  0  0  0  0  0  0  0  0  0  0
   16.5424  -11.0914  -17.5485 C   0  0  0  0  0  0  0  0  0  0  0  0
   18.0379  -11.0682  -17.6985 C   0  0  2  0  0  0  0  0  0  0  0  0
   18.6299  -11.6567  -16.4852 N   0  0  0  0  0  0  0  0  0  0  0  0
   18.5970   -9.7325  -17.9510 C   0  0  0  0  0  0  0  0  0  0  0  0
   18.1808   -9.0364  -18.9060 O   0  0  0  0  0  0  0  0  0  0  0  0
   19.6363   -9.1922  -17.1067 N   0  0  0  0  0  0  0  0  0  0  0  0
   20.2007   -7.9398  -17.4913 C   0  0  0  0  0  0  0  0  0  0  0  0
   20.2318   -6.9537  -16.3821 C   0  0  0  0  0  0  0  0  0  0  0  0
   19.2764   -6.9843  -15.5765 O   0  0  0  0  0  0  0  0  0  0  0  0
   21.2621   -6.0165  -16.2083 N   0  0  0  0  0  0  0  0  0  0  0  0
   21.3710   -5.0377  -15.1543 C   0  0  1  0  0  0  0  0  0  0  0  0
   22.2650   -5.4528  -14.0497 C   0  0  0  0  0  0  0  0  0  0  0  0
   21.9633   -6.8127  -13.5594 C   0  0  0  0  0  0  0  0  0  0  0  0
   21.0529   -7.0755  -12.5392 C   0  0  0  0  0  0  0  0  0  0  0  0
   21.0208   -8.3982  -12.3460 N   0  0  0  0  0  0  0  0  0  0  0  0
   21.8759   -8.9792  -13.2051 C   0  0  0  0  0  0  0  0  0  0  0  0
   22.4374   -8.0053  -13.9315 N   0  0  0  0  0  0  0  0  0  0  0  0
   21.5580   -3.6491  -15.6471 C   0  0  0  0  0  0  0  0  0  0  0  0
   21.3056   -2.5718  -14.8220 O   0  0  0  0  0  0  0  0  0  0  0  0
   21.9502   -3.3937  -16.8140 O   0  0  0  0  0  0  0  0  0  0  0  0
  2  4  1  0
  2  1  1  0
  3  2  2  0
  5  6  1  0
  5  4  1  0
  6  7  1  1
  6  8  1  0
  8  9  2  0
  8 10  1  0
 10 11  1  0
 12 11  1  0
 12 14  1  0
 13 12  2  0
 15 14  1  0
 15 16  1  1
 15 22  1  0
 16 17  1  0
 17 18  2  0
 17 21  1  0
 18 19  1  0
 19 20  1  0
 21 20  2  0
 22 23  1  0
 24 22  2  0
M  END
$$$$
