QGH.pdb
     RDKit          3D

 24 24  0  0  1  0  0  0  0  0999 V2000
   16.9645  -18.1757  -16.7828 N   0  0  0  0  0  0  0  0  0  0  0  0
   17.2801  -16.8751  -17.3212 C   0  0  0  0  0  0  0  0  0  0  0  0
   18.4313  -16.6898  -17.7243 O   0  0  0  0  0  0  0  0  0  0  0  0
   16.2517  -15.8138  -17.3796 C   0  0  0  0  0  0  0  0  0  0  0  0
   16.8199  -14.4437  -17.1547 C   0  0  0  0  0  0  0  0  0  0  0  0
   17.1159  -14.1245  -15.7159 C   0  0  2  0  0  0  0  0  0  0  0  0
   15.9010  -14.3909  -14.9275 N   0  0  0  0  0  0  0  0  0  0  0  0
   17.5888  -12.7514  -15.4889 C   0  0  0  0  0  0  0  0  0  0  0  0
   18.5322  -12.2810  -16.1662 O   0  0  0  0  0  0  0  0  0  0  0  0
   16.9792  -11.9142  -14.4828 N   0  0  0  0  0  0  0  0  0  0  0  0
   17.4128  -10.5568  -14.4167 C   0  0  0  0  0  0  0  0  0  0  0  0
   16.6842   -9.7654  -13.3938 C   0  0  0  0  0  0  0  0  0  0  0  0
   15.5654  -10.1977  -13.0412 O   0  0  0  0  0  0  0  0  0  0  0  0
   17.1882   -8.5856  -12.8244 N   0  0  0  0  0  0  0  0  0  0  0  0
   16.5242   -7.7371  -11.8652 C   0  0  1  0  0  0  0  0  0  0  0  0
   16.7899   -8.1121  -10.4578 C   0  0  0  0  0  0  0  0  0  0  0  0
   15.9906   -7.3198   -9.5016 C   0  0  0  0  0  0  0  0  0  0  0  0
   15.0604   -6.3596   -9.8906 C   0  0  0  0  0  0  0  0  0  0  0  0
   14.5210   -5.8365   -8.7846 N   0  0  0  0  0  0  0  0  0  0  0  0
   15.0754   -6.4300   -7.7135 C   0  0  0  0  0  0  0  0  0  0  0  0
   15.9623   -7.3247   -8.1657 N   0  0  0  0  0  0  0  0  0  0  0  0
   16.6298   -6.2887  -12.1767 C   0  0  0  0  0  0  0  0  0  0  0  0
   15.5186   -5.4730  -12.1062 O   0  0  0  0  0  0  0  0  0  0  0  0
   17.7144   -5.7467  -12.5093 O   0  0  0  0  0  0  0  0  0  0  0  0
  2  4  1  0
  2  1  1  0
  3  2  2  0
  5  6  1  0
  5  4  1  0
  6  7  1  1
  6  8  1  0
  8  9  2  0
  8 10  1  0
 10 11  1  0
 12 11  1  0
 12 14  1  0
 13 12  2  0
 15 14  1  0
 15 16  1  1
 15 22  1  0
 16 17  1  0
 17 18  2  0
 17 21  1  0
 18 19  1  0
 19 20  1  0
 21 20  2  0
 22 23  1  0
 24 22  2  0
M  END
$$$$
