QGH.pdb
     RDKit          3D

 24 24  0  0  1  0  0  0  0  0999 V2000
   13.2923  -13.6414   -9.9380 N   0  0  0  0  0  0  0  0  0  0  0  0
   12.3249  -13.3943  -10.9791 C   0  0  0  0  0  0  0  0  0  0  0  0
   11.1640  -13.7594  -10.7760 O   0  0  0  0  0  0  0  0  0  0  0  0
   12.7254  -12.7285  -12.2376 C   0  0  0  0  0  0  0  0  0  0  0  0
   14.1418  -12.2353  -12.2066 C   0  0  0  0  0  0  0  0  0  0  0  0
   14.3017  -10.8454  -11.6571 C   0  0  2  0  0  0  0  0  0  0  0  0
   13.6604   -9.9056  -12.5921 N   0  0  0  0  0  0  0  0  0  0  0  0
   15.6962  -10.4540  -11.4060 C   0  0  0  0  0  0  0  0  0  0  0  0
   16.4227  -11.1341  -10.6446 O   0  0  0  0  0  0  0  0  0  0  0  0
   16.2603   -9.2800  -12.0289 N   0  0  0  0  0  0  0  0  0  0  0  0
   17.6310   -8.9944  -11.7561 C   0  0  0  0  0  0  0  0  0  0  0  0
   18.1540   -7.8542  -12.5497 C   0  0  0  0  0  0  0  0  0  0  0  0
   17.3316   -7.2462  -13.2685 O   0  0  0  0  0  0  0  0  0  0  0  0
   19.4964   -7.4449  -12.5247 N   0  0  0  0  0  0  0  0  0  0  0  0
   20.1155   -6.4604  -13.3783 C   0  0  1  0  0  0  0  0  0  0  0  0
   21.5590   -6.2680  -13.1115 C   0  0  0  0  0  0  0  0  0  0  0  0
   22.1456   -5.1880  -13.9302 C   0  0  0  0  0  0  0  0  0  0  0  0
   21.7133   -3.8655  -13.8784 C   0  0  0  0  0  0  0  0  0  0  0  0
   22.4512   -3.1566  -14.7391 N   0  0  0  0  0  0  0  0  0  0  0  0
   23.3320   -3.9813  -15.3315 C   0  0  0  0  0  0  0  0  0  0  0  0
   23.1331   -5.2064  -14.8303 N   0  0  0  0  0  0  0  0  0  0  0  0
   19.7362   -6.5883  -14.8086 C   0  0  0  0  0  0  0  0  0  0  0  0
   19.2016   -5.5146  -15.4914 O   0  0  0  0  0  0  0  0  0  0  0  0
   19.8841   -7.6574  -15.4535 O   0  0  0  0  0  0  0  0  0  0  0  0
  2  4  1  0
  2  1  1  0
  3  2  2  0
  5  6  1  0
  5  4  1  0
  6  7  1  6
  6  8  1  0
  8  9  2  0
  8 10  1  0
 10 11  1  0
 12 11  1  0
 12 14  1  0
 13 12  2  0
 15 14  1  0
 15 16  1  6
 15 22  1  0
 16 17  1  0
 17 18  2  0
 17 21  1  0
 18 19  1  0
 19 20  1  0
 21 20  2  0
 22 23  1  0
 24 22  2  0
M  END
$$$$
