YDM.pdb
     RDKit          3D

 29 29  0  0  1  0  0  0  0  0999 V2000
    6.6455  -13.3018   14.6822 O   0  0  0  0  0  0  0  0  0  0  0  0
    6.8862  -13.8074   15.9681 C   0  0  0  0  0  0  0  0  0  0  0  0
    6.5105  -15.0973   16.2965 C   0  0  0  0  0  0  0  0  0  0  0  0
    6.7620  -15.5676   17.5745 C   0  0  0  0  0  0  0  0  0  0  0  0
    7.3754  -14.8043   18.5465 C   0  0  0  0  0  0  0  0  0  0  0  0
    7.5886  -15.4086   19.8611 C   0  0  0  0  0  0  0  0  0  0  0  0
    8.7889  -14.9098   20.5871 C   0  0  2  0  0  0  0  0  0  0  0  0
    9.9711  -14.7847   19.7947 N   0  0  0  0  0  0  0  0  0  0  0  0
    9.0388  -15.8527   21.7349 C   0  0  0  0  0  0  0  0  0  0  0  0
    8.0783  -16.2279   22.4545 O   0  0  0  0  0  0  0  0  0  0  0  0
    7.7464  -13.5199   18.2102 C   0  0  0  0  0  0  0  0  0  0  0  0
    7.4995  -13.0439   16.9394 C   0  0  0  0  0  0  0  0  0  0  0  0
   10.3306  -16.3341   22.0321 N   0  0  0  0  0  0  0  0  0  0  0  0
   10.6501  -17.2080   23.1388 C   0  0  1  0  0  0  0  0  0  0  0  0
   12.0249  -17.7876   22.9041 C   0  0  0  0  0  0  0  0  0  0  0  0
   12.0389  -18.8838   21.9261 C   0  0  0  0  0  0  0  0  0  0  0  0
   11.2169  -19.8504   22.0126 O   0  0  0  0  0  0  0  0  0  0  0  0
   10.7354  -16.4133   24.3849 C   0  0  0  0  0  0  0  0  0  0  0  0
   11.6751  -15.6039   24.5220 O   0  0  0  0  0  0  0  0  0  0  0  0
   12.9474  -18.8837   20.8931 O   0  0  0  0  0  0  0  0  0  0  0  0
    6.9927  -11.1063   26.7698 C   0  0  0  0  0  0  0  0  0  0  0  0
    6.9715  -12.8773   26.9134 S   0  0  0  0  0  0  0  0  0  0  0  0
    8.5809  -13.6356   26.7472 C   0  0  0  0  0  0  0  0  0  0  0  0
    8.6034  -15.1151   26.8473 C   0  0  0  0  0  0  0  0  0  0  0  0
    9.9026  -15.8014   26.6351 C   0  0  2  0  0  0  0  0  0  0  0  0
    9.7686  -16.5775   25.3874 N   0  0  0  0  0  0  0  0  0  0  0  0
   10.2089  -16.7777   27.7199 C   0  0  0  0  0  0  0  0  0  0  0  0
   10.8392  -16.5026   28.8979 O   0  0  0  0  0  0  0  0  0  0  0  0
    9.8429  -17.9839   27.5238 O   0  0  0  0  0  0  0  0  0  0  0  0
  2  3  2  0
  2  1  1  0
  4  3  1  0
  5  4  2  0
  6  5  1  0
  7  6  1  0
  7  8  1  6
  9  7  1  0
  9 10  2  0
 11  5  1  0
 11 12  2  0
 12  2  1  0
 13  9  1  0
 14 13  1  0
 14 15  1  6
 16 15  1  0
 17 16  2  0
 18 14  1  0
 19 18  2  0
 20 16  1  0
 22 21  1  0
 23 22  1  0
 25 24  1  1
 24 23  1  0
 25 26  1  0
 26 18  1  0
 27 28  1  0
 27 25  1  0
 29 27  2  0
M  END
$$$$
