YDM.pdb
     RDKit          3D

 29 29  0  0  1  0  0  0  0  0999 V2000
    5.3551  -22.8329   28.2795 O   0  0  0  0  0  0  0  0  0  0  0  0
    5.6871  -21.9789   27.2176 C   0  0  0  0  0  0  0  0  0  0  0  0
    6.4233  -20.8303   27.4448 C   0  0  0  0  0  0  0  0  0  0  0  0
    6.7351  -20.0075   26.3756 C   0  0  0  0  0  0  0  0  0  0  0  0
    6.3433  -20.2802   25.0811 C   0  0  0  0  0  0  0  0  0  0  0  0
    6.7316  -19.3371   24.0330 C   0  0  0  0  0  0  0  0  0  0  0  0
    7.4948  -19.9401   22.9059 C   0  0  2  0  0  0  0  0  0  0  0  0
    7.5514  -21.3677   22.9042 N   0  0  0  0  0  0  0  0  0  0  0  0
    8.8891  -19.3722   22.9579 C   0  0  0  0  0  0  0  0  0  0  0  0
    9.7748  -19.9544   23.6346 O   0  0  0  0  0  0  0  0  0  0  0  0
    5.6099  -21.4270   24.8641 C   0  0  0  0  0  0  0  0  0  0  0  0
    5.2951  -22.2520   25.9238 C   0  0  0  0  0  0  0  0  0  0  0  0
    9.2374  -18.1950   22.2641 N   0  0  0  0  0  0  0  0  0  0  0  0
   10.5265  -17.5446   22.3393 C   0  0  1  0  0  0  0  0  0  0  0  0
   10.7325  -16.7513   21.0708 C   0  0  0  0  0  0  0  0  0  0  0  0
   12.0778  -16.1724   20.9544 C   0  0  0  0  0  0  0  0  0  0  0  0
   12.2589  -15.0392   20.4062 O   0  0  0  0  0  0  0  0  0  0  0  0
   10.5205  -16.5669   23.4510 C   0  0  0  0  0  0  0  0  0  0  0  0
   11.5331  -15.8631   23.6419 O   0  0  0  0  0  0  0  0  0  0  0  0
   13.1719  -16.8506   21.4395 O   0  0  0  0  0  0  0  0  0  0  0  0
    6.6075  -11.2353   27.3977 C   0  0  0  0  0  0  0  0  0  0  0  0
    6.9384  -12.2877   26.0047 S   0  0  0  0  0  0  0  0  0  0  0  0
    7.9217  -13.7256   26.4022 C   0  0  0  0  0  0  0  0  0  0  0  0
    8.2704  -14.5982   25.2549 C   0  0  0  0  0  0  0  0  0  0  0  0
    9.4346  -15.5067   25.4075 C   0  0  2  0  0  0  0  0  0  0  0  0
    9.3880  -16.4439   24.2689 N   0  0  0  0  0  0  0  0  0  0  0  0
    9.3491  -16.3300   26.6480 C   0  0  0  0  0  0  0  0  0  0  0  0
    9.5760  -15.8958   27.9211 O   0  0  0  0  0  0  0  0  0  0  0  0
    9.0314  -17.5565   26.4996 O   0  0  0  0  0  0  0  0  0  0  0  0
  2  3  2  0
  2  1  1  0
  4  3  1  0
  5  4  2  0
  6  5  1  0
  7  6  1  0
  7  8  1  1
  9  7  1  0
  9 10  2  0
 11  5  1  0
 11 12  2  0
 12  2  1  0
 13  9  1  0
 14 13  1  0
 14 15  1  6
 16 15  1  0
 17 16  2  0
 18 14  1  0
 19 18  2  0
 20 16  1  0
 22 21  1  0
 23 22  1  0
 25 24  1  6
 24 23  1  0
 25 26  1  0
 26 18  1  0
 27 28  1  0
 27 25  1  0
 29 27  2  0
M  END
$$$$
