YDM.pdb
     RDKit          3D

 29 29  0  0  1  0  0  0  0  0999 V2000
    7.0332  -12.9353   16.2549 O   0  0  0  0  0  0  0  0  0  0  0  0
    7.2676  -13.4666   17.5316 C   0  0  0  0  0  0  0  0  0  0  0  0
    6.9444  -14.7812   17.8148 C   0  0  0  0  0  0  0  0  0  0  0  0
    7.1880  -15.2764   19.0847 C   0  0  0  0  0  0  0  0  0  0  0  0
    7.7434  -14.5145   20.0922 C   0  0  0  0  0  0  0  0  0  0  0  0
    7.9541  -15.1464   21.3942 C   0  0  0  0  0  0  0  0  0  0  0  0
    9.3807  -15.2681   21.8022 C   0  0  2  0  0  0  0  0  0  0  0  0
   10.2730  -15.7014   20.7740 N   0  0  0  0  0  0  0  0  0  0  0  0
    9.4317  -16.2274   22.9625 C   0  0  0  0  0  0  0  0  0  0  0  0
    8.6081  -16.1101   23.9054 O   0  0  0  0  0  0  0  0  0  0  0  0
    8.0623  -13.2055   19.8009 C   0  0  0  0  0  0  0  0  0  0  0  0
    7.8228  -12.7045   18.5383 C   0  0  0  0  0  0  0  0  0  0  0  0
   10.3846  -17.2650   23.0264 N   0  0  0  0  0  0  0  0  0  0  0  0
   10.5034  -18.2092   24.1148 C   0  0  1  0  0  0  0  0  0  0  0  0
   11.5133  -19.2613   23.7223 C   0  0  0  0  0  0  0  0  0  0  0  0
   11.7175  -20.2896   24.7514 C   0  0  0  0  0  0  0  0  0  0  0  0
   10.7396  -20.9598   25.2120 O   0  0  0  0  0  0  0  0  0  0  0  0
   11.0528  -17.5217   25.3053 C   0  0  0  0  0  0  0  0  0  0  0  0
   12.1505  -16.9356   25.2113 O   0  0  0  0  0  0  0  0  0  0  0  0
   12.9782  -20.5471   25.2379 O   0  0  0  0  0  0  0  0  0  0  0  0
    9.6080  -12.4846   28.9114 C   0  0  0  0  0  0  0  0  0  0  0  0
    9.0613  -13.2916   27.4258 S   0  0  0  0  0  0  0  0  0  0  0  0
   10.0352  -14.7215   26.9793 C   0  0  0  0  0  0  0  0  0  0  0  0
   10.2123  -15.7332   28.0491 C   0  0  0  0  0  0  0  0  0  0  0  0
   10.9737  -16.9635   27.7163 C   0  0  2  0  0  0  0  0  0  0  0  0
   10.3405  -17.5366   26.5131 N   0  0  0  0  0  0  0  0  0  0  0  0
   10.8757  -17.9952   28.7887 C   0  0  0  0  0  0  0  0  0  0  0  0
   11.4792  -17.9474   30.0111 O   0  0  0  0  0  0  0  0  0  0  0  0
   10.1562  -19.0175   28.5346 O   0  0  0  0  0  0  0  0  0  0  0  0
  2  3  2  0
  2  1  1  0
  4  3  1  0
  5  4  2  0
  6  5  1  0
  7  6  1  0
  7  8  1  6
  9  7  1  0
  9 10  2  0
 11  5  1  0
 11 12  2  0
 12  2  1  0
 13  9  1  0
 14 13  1  0
 14 15  1  6
 16 15  1  0
 17 16  2  0
 18 14  1  0
 19 18  2  0
 20 16  1  0
 22 21  1  0
 23 22  1  0
 25 24  1  1
 24 23  1  0
 25 26  1  0
 26 18  1  0
 27 28  1  0
 27 25  1  0
 29 27  2  0
M  END
$$$$
