YDM.pdb
     RDKit          3D

 29 29  0  0  1  0  0  0  0  0999 V2000
    7.3001  -12.6469   16.1980 O   0  0  0  0  0  0  0  0  0  0  0  0
    7.5709  -13.3132   17.4020 C   0  0  0  0  0  0  0  0  0  0  0  0
    7.7566  -12.5999   18.5724 C   0  0  0  0  0  0  0  0  0  0  0  0
    8.0225  -13.2867   19.7450 C   0  0  0  0  0  0  0  0  0  0  0  0
    8.1123  -14.6623   19.8037 C   0  0  0  0  0  0  0  0  0  0  0  0
    8.3981  -15.2770   21.0996 C   0  0  0  0  0  0  0  0  0  0  0  0
    8.3461  -16.7649   21.1067 C   0  0  2  0  0  0  0  0  0  0  0  0
    7.0364  -17.3285   21.0168 N   0  0  0  0  0  0  0  0  0  0  0  0
    9.0172  -17.2279   22.3733 C   0  0  0  0  0  0  0  0  0  0  0  0
    8.3176  -17.5776   23.3579 O   0  0  0  0  0  0  0  0  0  0  0  0
    7.9259  -15.3649   18.6325 C   0  0  0  0  0  0  0  0  0  0  0  0
    7.6606  -14.6884   17.4602 C   0  0  0  0  0  0  0  0  0  0  0  0
   10.4213  -17.2825   22.4921 N   0  0  0  0  0  0  0  0  0  0  0  0
   11.1325  -17.6978   23.6804 C   0  0  1  0  0  0  0  0  0  0  0  0
   12.5878  -17.8834   23.3219 C   0  0  0  0  0  0  0  0  0  0  0  0
   13.3741  -18.5289   24.3818 C   0  0  0  0  0  0  0  0  0  0  0  0
   12.8266  -18.9108   25.4645 O   0  0  0  0  0  0  0  0  0  0  0  0
   11.0821  -16.6146   24.6882 C   0  0  0  0  0  0  0  0  0  0  0  0
   11.6905  -15.5491   24.4608 O   0  0  0  0  0  0  0  0  0  0  0  0
   14.7250  -18.7327   24.2207 O   0  0  0  0  0  0  0  0  0  0  0  0
    6.6180  -11.7736   28.2218 C   0  0  0  0  0  0  0  0  0  0  0  0
    7.0021  -13.1412   27.1542 S   0  0  0  0  0  0  0  0  0  0  0  0
    8.5560  -13.9385   27.5313 C   0  0  0  0  0  0  0  0  0  0  0  0
    8.9475  -15.0392   26.6176 C   0  0  0  0  0  0  0  0  0  0  0  0
   10.2717  -15.6755   26.8313 C   0  0  2  0  0  0  0  0  0  0  0  0
   10.3581  -16.7962   25.8755 N   0  0  0  0  0  0  0  0  0  0  0  0
   10.4026  -16.2613   28.1964 C   0  0  0  0  0  0  0  0  0  0  0  0
   10.5824  -15.5682   29.3574 O   0  0  0  0  0  0  0  0  0  0  0  0
   10.3377  -17.5325   28.2818 O   0  0  0  0  0  0  0  0  0  0  0  0
  2  3  2  0
  2  1  1  0
  4  3  1  0
  5  4  2  0
  6  5  1  0
  7  6  1  0
  7  8  1  1
  9  7  1  0
  9 10  2  0
 11  5  1  0
 11 12  2  0
 12  2  1  0
 13  9  1  0
 14 13  1  0
 14 15  1  6
 16 15  1  0
 17 16  2  0
 18 14  1  0
 19 18  2  0
 20 16  1  0
 22 21  1  0
 23 22  1  0
 25 24  1  1
 24 23  1  0
 25 26  1  0
 26 18  1  0
 27 28  1  0
 27 25  1  0
 29 27  2  0
M  END
$$$$
