YDM.pdb
     RDKit          3D

 29 29  0  0  1  0  0  0  0  0999 V2000
    7.1847  -13.5864   14.1238 O   0  0  0  0  0  0  0  0  0  0  0  0
    7.2840  -13.9467   15.4757 C   0  0  0  0  0  0  0  0  0  0  0  0
    6.9969  -15.2376   15.8807 C   0  0  0  0  0  0  0  0  0  0  0  0
    7.1042  -15.5623   17.2225 C   0  0  0  0  0  0  0  0  0  0  0  0
    7.4877  -14.6515   18.1854 C   0  0  0  0  0  0  0  0  0  0  0  0
    7.5657  -15.1101   19.5720 C   0  0  0  0  0  0  0  0  0  0  0  0
    8.9189  -15.0100   20.1846 C   0  0  2  0  0  0  0  0  0  0  0  0
    9.9909  -15.4956   19.3746 N   0  0  0  0  0  0  0  0  0  0  0  0
    8.8759  -15.7678   21.4857 C   0  0  0  0  0  0  0  0  0  0  0  0
    7.9362  -15.5632   22.2959 O   0  0  0  0  0  0  0  0  0  0  0  0
    7.7719  -13.3674   17.7726 C   0  0  0  0  0  0  0  0  0  0  0  0
    7.6673  -13.0358   16.4378 C   0  0  0  0  0  0  0  0  0  0  0  0
    9.8671  -16.7104   21.8287 N   0  0  0  0  0  0  0  0  0  0  0  0
    9.9727  -17.3650   23.1135 C   0  0  1  0  0  0  0  0  0  0  0  0
   11.1658  -18.2902   23.0780 C   0  0  0  0  0  0  0  0  0  0  0  0
   11.3719  -19.0281   24.3316 C   0  0  0  0  0  0  0  0  0  0  0  0
   12.5337  -19.4025   24.6889 O   0  0  0  0  0  0  0  0  0  0  0  0
   10.2541  -16.3551   24.1589 C   0  0  0  0  0  0  0  0  0  0  0  0
   11.2957  -15.6731   24.0751 O   0  0  0  0  0  0  0  0  0  0  0  0
   10.3048  -19.3290   25.1459 O   0  0  0  0  0  0  0  0  0  0  0  0
    6.8226  -10.8938   28.4340 C   0  0  0  0  0  0  0  0  0  0  0  0
    6.8069  -12.2476   27.2831 S   0  0  0  0  0  0  0  0  0  0  0  0
    8.3161  -13.2041   27.2714 C   0  0  0  0  0  0  0  0  0  0  0  0
    8.3968  -14.2573   26.2304 C   0  0  0  0  0  0  0  0  0  0  0  0
    9.6163  -15.1036   26.1980 C   0  0  2  0  0  0  0  0  0  0  0  0
    9.3557  -16.1782   25.2211 N   0  0  0  0  0  0  0  0  0  0  0  0
    9.8787  -15.7656   27.5082 C   0  0  0  0  0  0  0  0  0  0  0  0
   10.3961  -15.1722   28.6221 O   0  0  0  0  0  0  0  0  0  0  0  0
    9.5884  -17.0051   27.5909 O   0  0  0  0  0  0  0  0  0  0  0  0
  2  3  2  0
  2  1  1  0
  4  3  1  0
  5  4  2  0
  6  5  1  0
  7  6  1  0
  7  8  1  6
  9  7  1  0
  9 10  2  0
 11  5  1  0
 11 12  2  0
 12  2  1  0
 13  9  1  0
 14 13  1  0
 14 15  1  6
 16 15  1  0
 17 16  2  0
 18 14  1  0
 19 18  2  0
 20 16  1  0
 22 21  1  0
 23 22  1  0
 25 24  1  1
 24 23  1  0
 25 26  1  0
 26 18  1  0
 27 28  1  0
 27 25  1  0
 29 27  2  0
M  END
$$$$
