YDM.pdb
     RDKit          3D

 29 29  0  0  1  0  0  0  0  0999 V2000
    7.9675  -12.4742   17.2214 O   0  0  0  0  0  0  0  0  0  0  0  0
    7.8168  -13.1626   18.4341 C   0  0  0  0  0  0  0  0  0  0  0  0
    7.6760  -12.4685   19.6221 C   0  0  0  0  0  0  0  0  0  0  0  0
    7.5291  -13.1769   20.8029 C   0  0  0  0  0  0  0  0  0  0  0  0
    7.5162  -14.5557   20.8528 C   0  0  0  0  0  0  0  0  0  0  0  0
    7.3545  -15.1939   22.1587 C   0  0  0  0  0  0  0  0  0  0  0  0
    7.4468  -16.6797   22.1400 C   0  0  2  0  0  0  0  0  0  0  0  0
    6.2055  -17.3686   22.3004 N   0  0  0  0  0  0  0  0  0  0  0  0
    8.4004  -17.0805   23.2350 C   0  0  0  0  0  0  0  0  0  0  0  0
    7.9500  -17.4969   24.3328 O   0  0  0  0  0  0  0  0  0  0  0  0
    7.6572  -15.2390   19.6640 C   0  0  0  0  0  0  0  0  0  0  0  0
    7.8040  -14.5409   18.4835 C   0  0  0  0  0  0  0  0  0  0  0  0
    9.7984  -17.0030   23.0670 N   0  0  0  0  0  0  0  0  0  0  0  0
   10.7710  -17.3711   24.0715 C   0  0  1  0  0  0  0  0  0  0  0  0
   12.1434  -17.3239   23.4429 C   0  0  0  0  0  0  0  0  0  0  0  0
   12.4362  -18.4828   22.5888 C   0  0  0  0  0  0  0  0  0  0  0  0
   12.0836  -19.6558   22.9314 O   0  0  0  0  0  0  0  0  0  0  0  0
   10.7683  -16.3603   25.1531 C   0  0  0  0  0  0  0  0  0  0  0  0
   11.2476  -15.2308   24.9256 O   0  0  0  0  0  0  0  0  0  0  0  0
   13.1012  -18.3182   21.3959 O   0  0  0  0  0  0  0  0  0  0  0  0
    7.5374  -11.0328   26.1971 C   0  0  0  0  0  0  0  0  0  0  0  0
    7.4518  -12.6790   26.8605 S   0  0  0  0  0  0  0  0  0  0  0  0
    9.0148  -13.5449   26.8503 C   0  0  0  0  0  0  0  0  0  0  0  0
    8.9857  -14.9220   27.3999 C   0  0  0  0  0  0  0  0  0  0  0  0
   10.2706  -15.6620   27.4760 C   0  0  2  0  0  0  0  0  0  0  0  0
   10.2325  -16.6803   26.4090 N   0  0  0  0  0  0  0  0  0  0  0  0
   10.4247  -16.3940   28.7660 C   0  0  0  0  0  0  0  0  0  0  0  0
   10.8192  -15.8565   29.9561 O   0  0  0  0  0  0  0  0  0  0  0  0
   10.1593  -17.6417   28.7508 O   0  0  0  0  0  0  0  0  0  0  0  0
  2  3  2  0
  2  1  1  0
  4  3  1  0
  5  4  2  0
  6  5  1  0
  7  6  1  0
  7  8  1  1
  9  7  1  0
  9 10  2  0
 11  5  1  0
 11 12  2  0
 12  2  1  0
 13  9  1  0
 14 13  1  0
 14 15  1  6
 16 15  1  0
 17 16  2  0
 18 14  1  0
 19 18  2  0
 20 16  1  0
 22 21  1  0
 23 22  1  0
 25 24  1  1
 24 23  1  0
 25 26  1  0
 26 18  1  0
 27 28  1  0
 27 25  1  0
 29 27  2  0
M  END
$$$$
