YDM.pdb
     RDKit          3D

 29 29  0  0  1  0  0  0  0  0999 V2000
    7.4840  -12.7490   16.3157 O   0  0  0  0  0  0  0  0  0  0  0  0
    7.6574  -13.2835   17.6008 C   0  0  0  0  0  0  0  0  0  0  0  0
    8.6862  -14.1711   17.8587 C   0  0  0  0  0  0  0  0  0  0  0  0
    8.8311  -14.6814   19.1377 C   0  0  0  0  0  0  0  0  0  0  0  0
    7.9905  -14.3443   20.1786 C   0  0  0  0  0  0  0  0  0  0  0  0
    8.2418  -14.9473   21.4870 C   0  0  0  0  0  0  0  0  0  0  0  0
    8.1336  -16.4318   21.5183 C   0  0  2  0  0  0  0  0  0  0  0  0
    6.8135  -16.9496   21.3438 N   0  0  0  0  0  0  0  0  0  0  0  0
    8.6936  -16.8914   22.8390 C   0  0  0  0  0  0  0  0  0  0  0  0
    7.9146  -17.1386   23.7947 O   0  0  0  0  0  0  0  0  0  0  0  0
    6.9679  -13.4591   19.9124 C   0  0  0  0  0  0  0  0  0  0  0  0
    6.8167  -12.9462   18.6410 C   0  0  0  0  0  0  0  0  0  0  0  0
   10.0796  -17.0555   23.0407 N   0  0  0  0  0  0  0  0  0  0  0  0
   10.6847  -17.5181   24.2697 C   0  0  1  0  0  0  0  0  0  0  0  0
   12.1101  -17.9205   23.9747 C   0  0  0  0  0  0  0  0  0  0  0  0
   12.2174  -19.1005   23.1060 C   0  0  0  0  0  0  0  0  0  0  0  0
   11.3623  -20.0400   23.1674 O   0  0  0  0  0  0  0  0  0  0  0  0
   10.7548  -16.3985   25.2358 C   0  0  0  0  0  0  0  0  0  0  0  0
   11.3175  -15.3389   24.8927 O   0  0  0  0  0  0  0  0  0  0  0  0
   13.2513  -19.2103   22.2053 O   0  0  0  0  0  0  0  0  0  0  0  0
    7.6583  -10.8273   25.9557 C   0  0  0  0  0  0  0  0  0  0  0  0
    7.5472  -12.4382   26.6974 S   0  0  0  0  0  0  0  0  0  0  0  0
    9.1071  -13.3057   26.7791 C   0  0  0  0  0  0  0  0  0  0  0  0
    9.0568  -14.6538   27.3953 C   0  0  0  0  0  0  0  0  0  0  0  0
   10.3228  -15.4255   27.4714 C   0  0  2  0  0  0  0  0  0  0  0  0
   10.1934  -16.5400   26.5131 N   0  0  0  0  0  0  0  0  0  0  0  0
   10.5324  -16.0347   28.8163 C   0  0  0  0  0  0  0  0  0  0  0  0
   11.0277  -15.4032   29.9192 O   0  0  0  0  0  0  0  0  0  0  0  0
   10.2149  -17.2637   28.9431 O   0  0  0  0  0  0  0  0  0  0  0  0
  2  3  2  0
  2  1  1  0
  4  3  1  0
  5  4  2  0
  6  5  1  0
  7  6  1  0
  7  8  1  1
  9  7  1  0
  9 10  2  0
 11  5  1  0
 11 12  2  0
 12  2  1  0
 13  9  1  0
 14 13  1  0
 14 15  1  6
 16 15  1  0
 17 16  2  0
 18 14  1  0
 19 18  2  0
 20 16  1  0
 22 21  1  0
 23 22  1  0
 25 24  1  1
 24 23  1  0
 25 26  1  0
 26 18  1  0
 27 28  1  0
 27 25  1  0
 29 27  2  0
M  END
$$$$
