AHF.pdb
     RDKit          3D

 27 28  0  0  1  0  0  0  0  0999 V2000
   40.6354  -25.4728    5.3360 C   0  0  0  0  0  0  0  0  0  0  0  0
   40.0560  -26.3909    4.2513 C   0  0  2  0  0  0  0  0  0  0  0  0
   40.6715  -25.9902    3.0051 N   0  0  0  0  0  0  0  0  0  0  0  0
   38.6069  -26.0288    4.1577 C   0  0  0  0  0  0  0  0  0  0  0  0
   38.1890  -25.0928    3.4270 O   0  0  0  0  0  0  0  0  0  0  0  0
   37.7114  -26.7996    4.9415 N   0  0  0  0  0  0  0  0  0  0  0  0
   36.2503  -26.4685    4.9238 C   0  0  1  0  0  0  0  0  0  0  0  0
   35.4891  -27.7464    4.9925 C   0  0  0  0  0  0  0  0  0  0  0  0
   35.5368  -28.4922    3.7358 C   0  0  0  0  0  0  0  0  0  0  0  0
   36.1030  -28.1703    2.5189 C   0  0  0  0  0  0  0  0  0  0  0  0
   35.8680  -29.1320    1.6137 N   0  0  0  0  0  0  0  0  0  0  0  0
   35.1491  -30.0770    2.2453 C   0  0  0  0  0  0  0  0  0  0  0  0
   34.9444  -29.7051    3.5167 N   0  0  0  0  0  0  0  0  0  0  0  0
   36.0739  -25.5006    5.9898 C   0  0  0  0  0  0  0  0  0  0  0  0
   36.5495  -25.7827    7.1548 O   0  0  0  0  0  0  0  0  0  0  0  0
   35.4096  -24.2618    5.7950 N   0  0  0  0  0  0  0  0  0  0  0  0
   35.0927  -23.4351    6.9705 C   0  0  1  0  0  0  0  0  0  0  0  0
   35.8154  -22.1025    6.8422 C   0  0  0  0  0  0  0  0  0  0  0  0
   37.2643  -22.1835    7.0630 C   0  0  0  0  0  0  0  0  0  0  0  0
   37.7441  -21.9346    8.3532 C   0  0  0  0  0  0  0  0  0  0  0  0
   39.0815  -22.0005    8.6548 C   0  0  0  0  0  0  0  0  0  0  0  0
   39.9761  -22.3186    7.6684 C   0  0  0  0  0  0  0  0  0  0  0  0
   39.5518  -22.5715    6.3855 C   0  0  0  0  0  0  0  0  0  0  0  0
   38.2108  -22.4963    6.1225 C   0  0  0  0  0  0  0  0  0  0  0  0
   33.6660  -23.2458    7.1388 C   0  0  0  0  0  0  0  0  0  0  0  0
   32.7944  -23.5225    6.2952 O   0  0  0  0  0  0  0  0  0  0  0  0
   33.1963  -22.7081    8.3454 O   0  0  0  0  0  0  0  0  0  0  0  0
  2  1  1  1
  2  3  1  0
  4  2  1  0
  5  4  2  0
  6  4  1  0
  7  6  1  0
  7  8  1  1
  9  8  1  0
 10  9  2  0
 11 10  1  0
 12 11  1  0
 12 13  2  0
 13  9  1  0
 14 15  2  0
 14  7  1  0
 16 14  1  0
 17 16  1  0
 17 18  1  6
 18 19  1  0
 19 24  1  0
 19 20  2  0
 20 21  1  0
 21 22  2  0
 23 22  1  0
 24 23  2  0
 25 17  1  0
 26 25  2  0
 27 25  1  0
M  END
$$$$
