AHF.pdb
     RDKit          3D

 27 28  0  0  1  0  0  0  0  0999 V2000
   23.0147  -11.9929  -18.5822 C   0  0  0  0  0  0  0  0  0  0  0  0
   23.4191  -11.1414  -17.3712 C   0  0  2  0  0  0  0  0  0  0  0  0
   23.6611  -12.0650  -16.2846 N   0  0  0  0  0  0  0  0  0  0  0  0
   22.1964  -10.3567  -17.0120 C   0  0  0  0  0  0  0  0  0  0  0  0
   21.7292   -9.4540  -17.7548 O   0  0  0  0  0  0  0  0  0  0  0  0
   21.5780  -10.6806  -15.7781 N   0  0  0  0  0  0  0  0  0  0  0  0
   20.2697  -10.0421  -15.4239 C   0  0  1  0  0  0  0  0  0  0  0  0
   19.5323  -10.9736  -14.5262 C   0  0  0  0  0  0  0  0  0  0  0  0
   18.1975  -11.2937  -15.0296 C   0  0  0  0  0  0  0  0  0  0  0  0
   17.5605  -10.9168  -16.1946 C   0  0  0  0  0  0  0  0  0  0  0  0
   16.3106  -11.4025  -16.2339 N   0  0  0  0  0  0  0  0  0  0  0  0
   16.1387  -12.0942  -15.0935 C   0  0  0  0  0  0  0  0  0  0  0  0
   17.2618  -12.0363  -14.3640 N   0  0  0  0  0  0  0  0  0  0  0  0
   20.6201   -8.7280  -14.9192 C   0  0  0  0  0  0  0  0  0  0  0  0
   21.5670   -8.6417  -14.0480 O   0  0  0  0  0  0  0  0  0  0  0  0
   19.9688   -7.5441  -15.3530 N   0  0  0  0  0  0  0  0  0  0  0  0
   20.3467   -6.2616  -14.7383 C   0  0  1  0  0  0  0  0  0  0  0  0
   21.4204   -5.6054  -15.5934 C   0  0  0  0  0  0  0  0  0  0  0  0
   21.7438   -4.2295  -15.1968 C   0  0  0  0  0  0  0  0  0  0  0  0
   21.3491   -3.1933  -16.0496 C   0  0  0  0  0  0  0  0  0  0  0  0
   21.5973   -1.8763  -15.7536 C   0  0  0  0  0  0  0  0  0  0  0  0
   22.2496   -1.5619  -14.5916 C   0  0  0  0  0  0  0  0  0  0  0  0
   22.6568   -2.5461  -13.7223 C   0  0  0  0  0  0  0  0  0  0  0  0
   22.3917   -3.8478  -14.0511 C   0  0  0  0  0  0  0  0  0  0  0  0
   19.2081   -5.3836  -14.5583 C   0  0  0  0  0  0  0  0  0  0  0  0
   18.2416   -5.2827  -15.3352 O   0  0  0  0  0  0  0  0  0  0  0  0
   19.1619   -4.5664  -13.4200 O   0  0  0  0  0  0  0  0  0  0  0  0
  2  1  1  6
  2  3  1  0
  4  2  1  0
  5  4  2  0
  6  4  1  0
  7  6  1  0
  7  8  1  1
  9  8  1  0
 10  9  2  0
 11 10  1  0
 12 11  1  0
 12 13  2  0
 13  9  1  0
 14 15  2  0
 14  7  1  0
 16 14  1  0
 17 16  1  0
 17 18  1  6
 18 19  1  0
 19 24  1  0
 19 20  2  0
 20 21  1  0
 21 22  2  0
 23 22  1  0
 24 23  2  0
 25 17  1  0
 26 25  2  0
 27 25  1  0
M  END
$$$$
