AHF.pdb
     RDKit          3D

 27 28  0  0  1  0  0  0  0  0999 V2000
   24.2929  -11.5664  -15.6402 C   0  0  0  0  0  0  0  0  0  0  0  0
   23.1206  -11.9538  -16.5516 C   0  0  2  0  0  0  0  0  0  0  0  0
   23.7037  -12.4436  -17.7815 N   0  0  0  0  0  0  0  0  0  0  0  0
   22.4304  -10.6669  -16.8789 C   0  0  0  0  0  0  0  0  0  0  0  0
   22.8929   -9.8435  -17.7113 O   0  0  0  0  0  0  0  0  0  0  0  0
   21.2128  -10.4124  -16.1986 N   0  0  0  0  0  0  0  0  0  0  0  0
   20.5096   -9.1077  -16.4174 C   0  0  1  0  0  0  0  0  0  0  0  0
   19.0439   -9.3703  -16.4167 C   0  0  0  0  0  0  0  0  0  0  0  0
   18.2566   -8.1388  -16.4498 C   0  0  0  0  0  0  0  0  0  0  0  0
   17.4042   -7.5898  -15.5132 C   0  0  0  0  0  0  0  0  0  0  0  0
   16.8471   -6.4615  -15.9780 N   0  0  0  0  0  0  0  0  0  0  0  0
   17.3393   -6.2802  -17.2164 C   0  0  0  0  0  0  0  0  0  0  0  0
   18.1845   -7.2782  -17.5101 N   0  0  0  0  0  0  0  0  0  0  0  0
   21.0528   -8.2171  -15.4094 C   0  0  0  0  0  0  0  0  0  0  0  0
   21.2787   -8.6934  -14.2325 O   0  0  0  0  0  0  0  0  0  0  0  0
   21.3493   -6.8546  -15.6732 N   0  0  0  0  0  0  0  0  0  0  0  0
   21.8725   -6.0189  -14.5808 C   0  0  1  0  0  0  0  0  0  0  0  0
   23.3471   -6.3371  -14.3829 C   0  0  0  0  0  0  0  0  0  0  0  0
   24.1712   -6.1247  -15.5789 C   0  0  0  0  0  0  0  0  0  0  0  0
   24.6375   -4.8301  -15.8303 C   0  0  0  0  0  0  0  0  0  0  0  0
   25.4246   -4.5410  -16.9169 C   0  0  0  0  0  0  0  0  0  0  0  0
   25.7662   -5.5449  -17.7830 C   0  0  0  0  0  0  0  0  0  0  0  0
   25.3318   -6.8329  -17.5773 C   0  0  0  0  0  0  0  0  0  0  0  0
   24.5487   -7.0829  -16.4831 C   0  0  0  0  0  0  0  0  0  0  0  0
   21.6677   -4.6055  -14.8257 C   0  0  0  0  0  0  0  0  0  0  0  0
   21.1744   -4.1133  -15.8564 O   0  0  0  0  0  0  0  0  0  0  0  0
   22.0462   -3.6890  -13.8345 O   0  0  0  0  0  0  0  0  0  0  0  0
  2  1  1  1
  2  3  1  0
  4  2  1  0
  5  4  2  0
  6  4  1  0
  7  6  1  0
  7  8  1  1
  9  8  1  0
 10  9  2  0
 11 10  1  0
 12 11  1  0
 12 13  2  0
 13  9  1  0
 14 15  2  0
 14  7  1  0
 16 14  1  0
 17 16  1  0
 17 18  1  6
 18 19  1  0
 19 24  1  0
 19 20  2  0
 20 21  1  0
 21 22  2  0
 23 22  1  0
 24 23  2  0
 25 17  1  0
 26 25  2  0
 27 25  1  0
M  END
$$$$
