AHF.pdb
     RDKit          3D

 27 28  0  0  1  0  0  0  0  0999 V2000
   29.3866  -20.4737  -13.8154 C   0  0  0  0  0  0  0  0  0  0  0  0
   27.9763  -20.2866  -14.3909 C   0  0  2  0  0  0  0  0  0  0  0  0
   28.0466  -19.1506  -15.2837 N   0  0  0  0  0  0  0  0  0  0  0  0
   27.1253  -19.8766  -13.2301 C   0  0  0  0  0  0  0  0  0  0  0  0
   27.1829  -18.7265  -12.7217 O   0  0  0  0  0  0  0  0  0  0  0  0
   26.2372  -20.8573  -12.7206 N   0  0  0  0  0  0  0  0  0  0  0  0
   25.3363  -20.5065  -11.5759 C   0  0  1  0  0  0  0  0  0  0  0  0
   23.9468  -20.8880  -11.9517 C   0  0  0  0  0  0  0  0  0  0  0  0
   23.3949  -20.0261  -12.9958 C   0  0  0  0  0  0  0  0  0  0  0  0
   23.0257  -20.3095  -14.2951 C   0  0  0  0  0  0  0  0  0  0  0  0
   22.6085  -19.2013  -14.9255 N   0  0  0  0  0  0  0  0  0  0  0  0
   22.7078  -18.1999  -14.0333 C   0  0  0  0  0  0  0  0  0  0  0  0
   23.1776  -18.6814  -12.8739 N   0  0  0  0  0  0  0  0  0  0  0  0
   25.9385  -21.1411  -10.4189 C   0  0  0  0  0  0  0  0  0  0  0  0
   26.1288  -22.4161  -10.4524 O   0  0  0  0  0  0  0  0  0  0  0  0
   26.3295  -20.4131   -9.2651 N   0  0  0  0  0  0  0  0  0  0  0  0
   26.8108  -21.1547   -8.0887 C   0  0  1  0  0  0  0  0  0  0  0  0
   28.1948  -20.6428   -7.7185 C   0  0  0  0  0  0  0  0  0  0  0  0
   28.2807  -20.0715   -6.3690 C   0  0  0  0  0  0  0  0  0  0  0  0
   28.8794  -20.8445   -5.3686 C   0  0  0  0  0  0  0  0  0  0  0  0
   29.0147  -20.3866   -4.0818 C   0  0  0  0  0  0  0  0  0  0  0  0
   28.5523  -19.1381   -3.7626 C   0  0  0  0  0  0  0  0  0  0  0  0
   27.9568  -18.3419   -4.7121 C   0  0  0  0  0  0  0  0  0  0  0  0
   27.8395  -18.8323   -5.9844 C   0  0  0  0  0  0  0  0  0  0  0  0
   25.8970  -21.0578   -6.9682 C   0  0  0  0  0  0  0  0  0  0  0  0
   25.9560  -21.7336   -5.9253 O   0  0  0  0  0  0  0  0  0  0  0  0
   24.8470  -20.1311   -7.0345 O   0  0  0  0  0  0  0  0  0  0  0  0
  2  1  1  1
  2  3  1  0
  4  2  1  0
  5  4  2  0
  6  4  1  0
  7  6  1  0
  7  8  1  6
  9  8  1  0
 10  9  2  0
 11 10  1  0
 12 11  1  0
 12 13  2  0
 13  9  1  0
 14 15  2  0
 14  7  1  0
 16 14  1  0
 17 16  1  0
 17 18  1  1
 18 19  1  0
 19 24  1  0
 19 20  2  0
 20 21  1  0
 21 22  2  0
 23 22  1  0
 24 23  2  0
 25 17  1  0
 26 25  2  0
 27 25  1  0
M  END
$$$$
