AHF.pdb
     RDKit          3D

 27 28  0  0  1  0  0  0  0  0999 V2000
   14.2445  -12.9150  -21.5715 C   0  0  0  0  0  0  0  0  0  0  0  0
   15.1012  -13.9591  -20.8428 C   0  0  2  0  0  0  0  0  0  0  0  0
   14.2957  -15.1571  -20.7516 N   0  0  0  0  0  0  0  0  0  0  0  0
   15.2641  -13.4364  -19.4500 C   0  0  0  0  0  0  0  0  0  0  0  0
   14.2893  -13.2710  -18.6709 O   0  0  0  0  0  0  0  0  0  0  0  0
   16.5867  -13.1310  -19.0407 N   0  0  0  0  0  0  0  0  0  0  0  0
   16.8271  -12.6371  -17.6468 C   0  0  1  0  0  0  0  0  0  0  0  0
   17.8952  -13.4783  -17.0394 C   0  0  0  0  0  0  0  0  0  0  0  0
   17.4161  -14.8106  -16.6748 C   0  0  0  0  0  0  0  0  0  0  0  0
   16.5238  -15.2111  -15.7010 C   0  0  0  0  0  0  0  0  0  0  0  0
   16.4079  -16.5474  -15.6801 N   0  0  0  0  0  0  0  0  0  0  0  0
   17.2258  -17.0121  -16.6411 C   0  0  0  0  0  0  0  0  0  0  0  0
   17.8352  -15.9814  -17.2439 N   0  0  0  0  0  0  0  0  0  0  0  0
   17.0664  -11.2137  -17.7911 C   0  0  0  0  0  0  0  0  0  0  0  0
   17.8106  -10.8160  -18.7663 O   0  0  0  0  0  0  0  0  0  0  0  0
   16.5084  -10.2517  -16.9095 N   0  0  0  0  0  0  0  0  0  0  0  0
   16.8225   -8.8297  -17.1216 C   0  0  1  0  0  0  0  0  0  0  0  0
   16.1354   -8.3604  -18.3953 C   0  0  0  0  0  0  0  0  0  0  0  0
   14.6695   -8.4158  -18.3401 C   0  0  0  0  0  0  0  0  0  0  0  0
   13.9972   -7.3499  -17.7330 C   0  0  0  0  0  0  0  0  0  0  0  0
   12.6279   -7.3106  -17.6476 C   0  0  0  0  0  0  0  0  0  0  0  0
   11.8939   -8.3415  -18.1701 C   0  0  0  0  0  0  0  0  0  0  0  0
   12.5103   -9.4105  -18.7763 C   0  0  0  0  0  0  0  0  0  0  0  0
   13.8772   -9.4148  -18.8427 C   0  0  0  0  0  0  0  0  0  0  0  0
   16.4453   -8.0101  -15.9878 C   0  0  0  0  0  0  0  0  0  0  0  0
   15.8174   -8.4023  -14.9879 O   0  0  0  0  0  0  0  0  0  0  0  0
   16.8059   -6.6553  -15.9873 O   0  0  0  0  0  0  0  0  0  0  0  0
  2  1  1  6
  2  3  1  0
  4  2  1  0
  5  4  2  0
  6  4  1  0
  7  6  1  0
  7  8  1  6
  9  8  1  0
 10  9  2  0
 11 10  1  0
 12 11  1  0
 12 13  2  0
 13  9  1  0
 14 15  2  0
 14  7  1  0
 16 14  1  0
 17 16  1  0
 17 18  1  6
 18 19  1  0
 19 24  1  0
 19 20  2  0
 20 21  1  0
 21 22  2  0
 23 22  1  0
 24 23  2  0
 25 17  1  0
 26 25  2  0
 27 25  1  0
M  END
$$$$
