AHF.pdb
     RDKit          3D

 27 28  0  0  1  0  0  0  0  0999 V2000
   20.9163  -13.1235  -19.1179 C   0  0  0  0  0  0  0  0  0  0  0  0
   21.4822  -12.2929  -20.2776 C   0  0  2  0  0  0  0  0  0  0  0  0
   22.8184  -12.7900  -20.5225 N   0  0  0  0  0  0  0  0  0  0  0  0
   21.6260  -10.9044  -19.7379 C   0  0  0  0  0  0  0  0  0  0  0  0
   22.6885  -10.4931  -19.2025 O   0  0  0  0  0  0  0  0  0  0  0  0
   20.4938  -10.0595  -19.8585 N   0  0  0  0  0  0  0  0  0  0  0  0
   20.6122   -8.6161  -19.4749 C   0  0  1  0  0  0  0  0  0  0  0  0
   19.5820   -7.8536  -20.2330 C   0  0  0  0  0  0  0  0  0  0  0  0
   19.6074   -6.4245  -19.9256 C   0  0  0  0  0  0  0  0  0  0  0  0
   20.3968   -5.7057  -19.0508 C   0  0  0  0  0  0  0  0  0  0  0  0
   20.0486   -4.4102  -19.0477 N   0  0  0  0  0  0  0  0  0  0  0  0
   19.0330   -4.2905  -19.9212 C   0  0  0  0  0  0  0  0  0  0  0  0
   18.7597   -5.4901  -20.4533 N   0  0  0  0  0  0  0  0  0  0  0  0
   20.5504   -8.6087  -18.0256 C   0  0  0  0  0  0  0  0  0  0  0  0
   19.8918   -9.5492  -17.4383 O   0  0  0  0  0  0  0  0  0  0  0  0
   21.1903   -7.6163  -17.2385 N   0  0  0  0  0  0  0  0  0  0  0  0
   21.0603   -7.6807  -15.7741 C   0  0  1  0  0  0  0  0  0  0  0  0
   22.3428   -8.2567  -15.1926 C   0  0  0  0  0  0  0  0  0  0  0  0
   22.2677   -8.5565  -13.7576 C   0  0  0  0  0  0  0  0  0  0  0  0
   22.6621   -9.8300  -13.3341 C   0  0  0  0  0  0  0  0  0  0  0  0
   22.6376  -10.1941  -12.0110 C   0  0  0  0  0  0  0  0  0  0  0  0
   22.2160   -9.2888  -11.0744 C   0  0  0  0  0  0  0  0  0  0  0  0
   21.8189   -8.0252  -11.4427 C   0  0  0  0  0  0  0  0  0  0  0  0
   21.8569   -7.6983  -12.7712 C   0  0  0  0  0  0  0  0  0  0  0  0
   20.7534   -6.3888  -15.1938 C   0  0  0  0  0  0  0  0  0  0  0  0
   21.2801   -5.3080  -15.5135 O   0  0  0  0  0  0  0  0  0  0  0  0
   19.7828   -6.3180  -14.1846 O   0  0  0  0  0  0  0  0  0  0  0  0
  2  1  1  1
  2  3  1  0
  4  2  1  0
  5  4  2  0
  6  4  1  0
  7  6  1  0
  7  8  1  6
  9  8  1  0
 10  9  2  0
 11 10  1  0
 12 11  1  0
 12 13  2  0
 13  9  1  0
 14 15  2  0
 14  7  1  0
 16 14  1  0
 17 16  1  0
 17 18  1  1
 18 19  1  0
 19 24  1  0
 19 20  2  0
 20 21  1  0
 21 22  2  0
 23 22  1  0
 24 23  2  0
 25 17  1  0
 26 25  2  0
 27 25  1  0
M  END
$$$$
