AHF.pdb
     RDKit          3D

 27 28  0  0  1  0  0  0  0  0999 V2000
   14.8886   -9.8889  -14.7503 C   0  0  0  0  0  0  0  0  0  0  0  0
   15.6096   -8.6823  -15.3663 C   0  0  2  0  0  0  0  0  0  0  0  0
   16.6791   -9.2171  -16.1804 N   0  0  0  0  0  0  0  0  0  0  0  0
   16.2511   -7.9732  -14.2151 C   0  0  0  0  0  0  0  0  0  0  0  0
   15.5838   -7.4670  -13.2753 O   0  0  0  0  0  0  0  0  0  0  0  0
   17.6667   -7.8960  -14.2304 N   0  0  0  0  0  0  0  0  0  0  0  0
   18.3700   -7.1171  -13.1611 C   0  0  1  0  0  0  0  0  0  0  0  0
   19.2504   -8.0564  -12.4128 C   0  0  0  0  0  0  0  0  0  0  0  0
   20.0645   -7.3761  -11.4069 C   0  0  0  0  0  0  0  0  0  0  0  0
   19.7689   -7.0035  -10.1112 C   0  0  0  0  0  0  0  0  0  0  0  0
   20.8012   -6.3526   -9.5542 N   0  0  0  0  0  0  0  0  0  0  0  0
   21.7657   -6.3040  -10.4902 C   0  0  0  0  0  0  0  0  0  0  0  0
   21.3363   -6.9136  -11.6041 N   0  0  0  0  0  0  0  0  0  0  0  0
   18.9821   -5.9997  -13.8545 C   0  0  0  0  0  0  0  0  0  0  0  0
   19.2246   -6.1229  -15.1151 O   0  0  0  0  0  0  0  0  0  0  0  0
   19.3130   -4.7838  -13.2017 N   0  0  0  0  0  0  0  0  0  0  0  0
   19.8346   -3.6670  -14.0056 C   0  0  1  0  0  0  0  0  0  0  0  0
   18.9834   -2.4338  -13.7426 C   0  0  0  0  0  0  0  0  0  0  0  0
   19.1249   -1.8865  -12.3878 C   0  0  0  0  0  0  0  0  0  0  0  0
   18.3563   -2.4579  -11.3682 C   0  0  0  0  0  0  0  0  0  0  0  0
   18.4330   -2.0194  -10.0698 C   0  0  0  0  0  0  0  0  0  0  0  0
   19.2846   -0.9937   -9.7580 C   0  0  0  0  0  0  0  0  0  0  0  0
   20.0599   -0.4009  -10.7263 C   0  0  0  0  0  0  0  0  0  0  0  0
   19.9564   -0.8649  -12.0097 C   0  0  0  0  0  0  0  0  0  0  0  0
   21.2348   -3.4066  -13.7385 C   0  0  0  0  0  0  0  0  0  0  0  0
   21.9425   -2.5739  -14.3330 O   0  0  0  0  0  0  0  0  0  0  0  0
   21.8745   -4.1385  -12.7282 O   0  0  0  0  0  0  0  0  0  0  0  0
  2  1  1  1
  2  3  1  0
  4  2  1  0
  5  4  2  0
  6  4  1  0
  7  6  1  0
  7  8  1  6
  9  8  1  0
 10  9  2  0
 11 10  1  0
 12 11  1  0
 12 13  2  0
 13  9  1  0
 14 15  2  0
 14  7  1  0
 16 14  1  0
 17 16  1  0
 17 18  1  1
 18 19  1  0
 19 24  1  0
 19 20  2  0
 20 21  1  0
 21 22  2  0
 23 22  1  0
 24 23  2  0
 25 17  1  0
 26 25  2  0
 27 25  1  0
M  END
$$$$
