VYY.pdb
     RDKit          3D

 32 33  0  0  1  0  0  0  0  0999 V2000
    8.9587  -19.7192   22.6039 C   0  0  0  0  0  0  0  0  0  0  0  0
    9.6211  -19.5464   21.2759 C   0  0  1  0  0  0  0  0  0  0  0  0
    9.3941  -20.8001   20.4684 C   0  0  0  0  0  0  0  0  0  0  0  0
    9.1493  -18.3713   20.4854 C   0  0  2  0  0  0  0  0  0  0  0  0
    9.6721  -18.3977   19.1470 N   0  0  0  0  0  0  0  0  0  0  0  0
    9.5650  -17.1018   21.1600 C   0  0  0  0  0  0  0  0  0  0  0  0
   10.7367  -16.7115   20.9620 O   0  0  0  0  0  0  0  0  0  0  0  0
    7.5823  -13.0202   16.6710 O   0  0  0  0  0  0  0  0  0  0  0  0
    7.6939  -13.2583   18.0483 C   0  0  0  0  0  0  0  0  0  0  0  0
    8.6251  -12.5957   18.8192 C   0  0  0  0  0  0  0  0  0  0  0  0
    8.7236  -12.8393   20.1706 C   0  0  0  0  0  0  0  0  0  0  0  0
    7.8913  -13.7619   20.8184 C   0  0  0  0  0  0  0  0  0  0  0  0
    8.0225  -14.0256   22.2652 C   0  0  0  0  0  0  0  0  0  0  0  0
    9.0528  -15.0549   22.5480 C   0  0  2  0  0  0  0  0  0  0  0  0
    8.7169  -16.3511   21.9838 N   0  0  0  0  0  0  0  0  0  0  0  0
    9.3509  -15.2089   23.9718 C   0  0  0  0  0  0  0  0  0  0  0  0
    9.9141  -14.3110   24.6484 O   0  0  0  0  0  0  0  0  0  0  0  0
    6.9796  -14.3958   20.0025 C   0  0  0  0  0  0  0  0  0  0  0  0
    6.8701  -14.1622   18.6512 C   0  0  0  0  0  0  0  0  0  0  0  0
    6.3341  -10.7884   27.1493 O   0  0  0  0  0  0  0  0  0  0  0  0
    6.6943  -12.1436   27.0442 C   0  0  0  0  0  0  0  0  0  0  0  0
    7.9291  -12.5786   27.4732 C   0  0  0  0  0  0  0  0  0  0  0  0
    8.2797  -13.9130   27.3680 C   0  0  0  0  0  0  0  0  0  0  0  0
    7.4250  -14.8533   26.8383 C   0  0  0  0  0  0  0  0  0  0  0  0
    7.7797  -16.2625   26.7148 C   0  0  0  0  0  0  0  0  0  0  0  0
    9.1474  -16.5256   26.1311 C   0  0  2  0  0  0  0  0  0  0  0  0
    9.0261  -16.3905   24.7059 N   0  0  0  0  0  0  0  0  0  0  0  0
    9.7637  -17.7779   26.5554 C   0  0  0  0  0  0  0  0  0  0  0  0
   10.2165  -18.7318   25.6633 O   0  0  0  0  0  0  0  0  0  0  0  0
    6.1989  -14.3916   26.4177 C   0  0  0  0  0  0  0  0  0  0  0  0
    5.8282  -13.0697   26.5123 C   0  0  0  0  0  0  0  0  0  0  0  0
    9.8972  -18.0192   27.7797 O   0  0  0  0  0  0  0  0  0  0  0  0
  2  1  1  1
  2  3  1  0
  4  6  1  0
  4  2  1  0
  4  5  1  6
  6  7  2  0
  8  9  1  0
  9 10  2  0
  9 19  1  0
 10 11  1  0
 11 12  2  0
 12 13  1  0
 14 13  1  1
 15 14  1  0
 15  6  1  0
 16 17  2  0
 16 14  1  0
 18 12  1  0
 19 18  2  0
 20 21  1  0
 21 22  2  0
 21 31  1  0
 22 23  1  0
 23 24  2  0
 24 25  1  0
 26 25  1  1
 26 28  1  0
 26 27  1  0
 27 16  1  0
 28 29  1  0
 30 24  1  0
 31 30  2  0
 32 28  2  0
M  END
$$$$
