VYY.pdb
     RDKit          3D

 32 33  0  0  1  0  0  0  0  0999 V2000
    8.6651  -12.4391   18.1219 C   0  0  0  0  0  0  0  0  0  0  0  0
    8.8791  -13.4806   19.1715 C   0  0  1  0  0  0  0  0  0  0  0  0
    7.6402  -13.5476   20.0295 C   0  0  0  0  0  0  0  0  0  0  0  0
    9.1795  -14.8468   18.6503 C   0  0  2  0  0  0  0  0  0  0  0  0
    8.1639  -15.2925   17.7363 N   0  0  0  0  0  0  0  0  0  0  0  0
    9.2893  -15.8142   19.7868 C   0  0  0  0  0  0  0  0  0  0  0  0
    8.2276  -16.3374   20.1911 O   0  0  0  0  0  0  0  0  0  0  0  0
   11.6319  -21.6465   17.1956 O   0  0  0  0  0  0  0  0  0  0  0  0
   11.6886  -20.7263   18.2520 C   0  0  0  0  0  0  0  0  0  0  0  0
   11.0504  -20.9668   19.4500 C   0  0  0  0  0  0  0  0  0  0  0  0
   11.1146  -20.0543   20.4789 C   0  0  0  0  0  0  0  0  0  0  0  0
   11.8239  -18.8518   20.3578 C   0  0  0  0  0  0  0  0  0  0  0  0
   11.8672  -17.8750   21.4641 C   0  0  0  0  0  0  0  0  0  0  0  0
   10.6306  -17.0578   21.5283 C   0  0  2  0  0  0  0  0  0  0  0  0
   10.5023  -16.1497   20.4013 N   0  0  0  0  0  0  0  0  0  0  0  0
   10.4904  -16.3054   22.7750 C   0  0  0  0  0  0  0  0  0  0  0  0
   11.3610  -15.4930   23.1792 O   0  0  0  0  0  0  0  0  0  0  0  0
   12.4423  -18.6613   19.1413 C   0  0  0  0  0  0  0  0  0  0  0  0
   12.3866  -19.5642   18.1049 C   0  0  0  0  0  0  0  0  0  0  0  0
    6.3268  -11.0344   28.4275 O   0  0  0  0  0  0  0  0  0  0  0  0
    6.7485  -11.9224   27.4220 C   0  0  0  0  0  0  0  0  0  0  0  0
    7.9921  -11.7913   26.8441 C   0  0  0  0  0  0  0  0  0  0  0  0
    8.4033  -12.6673   25.8549 C   0  0  0  0  0  0  0  0  0  0  0  0
    7.6020  -13.6940   25.4091 C   0  0  0  0  0  0  0  0  0  0  0  0
    8.0167  -14.6229   24.3641 C   0  0  0  0  0  0  0  0  0  0  0  0
    9.0933  -15.6002   24.7720 C   0  0  2  0  0  0  0  0  0  0  0  0
    9.3543  -16.4338   23.6314 N   0  0  0  0  0  0  0  0  0  0  0  0
    8.8134  -16.3439   25.9954 C   0  0  0  0  0  0  0  0  0  0  0  0
    9.2474  -15.9306   27.2410 O   0  0  0  0  0  0  0  0  0  0  0  0
    6.3655  -13.8017   26.0032 C   0  0  0  0  0  0  0  0  0  0  0  0
    5.9350  -12.9427   26.9885 C   0  0  0  0  0  0  0  0  0  0  0  0
    8.1516  -17.4086   25.9358 O   0  0  0  0  0  0  0  0  0  0  0  0
  2  1  1  6
  2  3  1  0
  4  6  1  0
  4  2  1  0
  4  5  1  6
  6  7  2  0
  8  9  1  0
  9 10  2  0
  9 19  1  0
 10 11  1  0
 11 12  2  0
 12 13  1  0
 14 13  1  1
 15 14  1  0
 15  6  1  0
 16 17  2  0
 16 14  1  0
 18 12  1  0
 19 18  2  0
 20 21  1  0
 21 22  2  0
 21 31  1  0
 22 23  1  0
 23 24  2  0
 24 25  1  0
 26 25  1  6
 26 28  1  0
 26 27  1  0
 27 16  1  0
 28 29  1  0
 30 24  1  0
 31 30  2  0
 32 28  2  0
M  END
$$$$
