VYY.pdb
     RDKit          3D

 32 33  0  0  1  0  0  0  0  0999 V2000
    6.2321  -19.1693   25.6870 C   0  0  0  0  0  0  0  0  0  0  0  0
    6.6151  -20.3063   24.7965 C   0  0  1  0  0  0  0  0  0  0  0  0
    6.1211  -21.5854   25.4253 C   0  0  0  0  0  0  0  0  0  0  0  0
    6.0881  -20.2190   23.4026 C   0  0  2  0  0  0  0  0  0  0  0  0
    6.3128  -21.4416   22.6814 N   0  0  0  0  0  0  0  0  0  0  0  0
    6.7426  -19.0839   22.6794 C   0  0  0  0  0  0  0  0  0  0  0  0
    7.8712  -19.3010   22.1860 O   0  0  0  0  0  0  0  0  0  0  0  0
    8.5862  -11.5048   18.5767 O   0  0  0  0  0  0  0  0  0  0  0  0
    7.9304  -12.5714   19.2078 C   0  0  0  0  0  0  0  0  0  0  0  0
    7.8019  -13.7998   18.5955 C   0  0  0  0  0  0  0  0  0  0  0  0
    7.1555  -14.8384   19.2270 C   0  0  0  0  0  0  0  0  0  0  0  0
    6.6041  -14.6970   20.5074 C   0  0  0  0  0  0  0  0  0  0  0  0
    5.8973  -15.8152   21.1632 C   0  0  0  0  0  0  0  0  0  0  0  0
    6.8217  -16.6668   21.9514 C   0  0  2  0  0  0  0  0  0  0  0  0
    6.1576  -17.8195   22.5359 N   0  0  0  0  0  0  0  0  0  0  0  0
    7.5392  -15.9390   22.9979 C   0  0  0  0  0  0  0  0  0  0  0  0
    6.9498  -15.3135   23.9159 O   0  0  0  0  0  0  0  0  0  0  0  0
    6.7602  -13.4505   21.0736 C   0  0  0  0  0  0  0  0  0  0  0  0
    7.4036  -12.4040   20.4543 C   0  0  0  0  0  0  0  0  0  0  0  0
   11.1250  -14.6817   30.4821 O   0  0  0  0  0  0  0  0  0  0  0  0
   10.5501  -14.9605   29.2295 C   0  0  0  0  0  0  0  0  0  0  0  0
   10.6195  -16.2262   28.6898 C   0  0  0  0  0  0  0  0  0  0  0  0
   10.0524  -16.4965   27.4569 C   0  0  0  0  0  0  0  0  0  0  0  0
    9.4029  -15.5293   26.7236 C   0  0  0  0  0  0  0  0  0  0  0  0
    8.8044  -15.7949   25.4205 C   0  0  0  0  0  0  0  0  0  0  0  0
    9.7188  -15.5634   24.2412 C   0  0  2  0  0  0  0  0  0  0  0  0
    8.9652  -15.8811   23.0600 N   0  0  0  0  0  0  0  0  0  0  0  0
   11.0061  -16.2448   24.3216 C   0  0  0  0  0  0  0  0  0  0  0  0
   12.1670  -15.6112   24.7237 O   0  0  0  0  0  0  0  0  0  0  0  0
    9.3485  -14.2746   27.2860 C   0  0  0  0  0  0  0  0  0  0  0  0
    9.9049  -13.9822   28.5103 C   0  0  0  0  0  0  0  0  0  0  0  0
   11.0844  -17.4595   24.0160 O   0  0  0  0  0  0  0  0  0  0  0  0
  2  1  1  1
  2  3  1  0
  4  6  1  0
  4  2  1  0
  4  5  1  6
  6  7  2  0
  8  9  1  0
  9 10  2  0
  9 19  1  0
 10 11  1  0
 11 12  2  0
 12 13  1  0
 14 13  1  1
 15 14  1  0
 15  6  1  0
 16 17  2  0
 16 14  1  0
 18 12  1  0
 19 18  2  0
 20 21  1  0
 21 22  2  0
 21 31  1  0
 22 23  1  0
 23 24  2  0
 24 25  1  0
 26 25  1  1
 26 28  1  0
 26 27  1  0
 27 16  1  0
 28 29  1  0
 30 24  1  0
 31 30  2  0
 32 28  2  0
M  END
$$$$
