VYY.pdb
     RDKit          3D

 32 33  0  0  1  0  0  0  0  0999 V2000
   10.5006  -19.3460   18.6896 C   0  0  0  0  0  0  0  0  0  0  0  0
   10.3252  -18.0217   19.3588 C   0  0  1  0  0  0  0  0  0  0  0  0
    9.0693  -17.3831   18.8200 C   0  0  0  0  0  0  0  0  0  0  0  0
   10.2384  -18.0758   20.8481 C   0  0  2  0  0  0  0  0  0  0  0  0
    9.1190  -18.8681   21.2779 N   0  0  0  0  0  0  0  0  0  0  0  0
   10.1141  -16.6915   21.4030 C   0  0  0  0  0  0  0  0  0  0  0  0
   11.0474  -15.8960   21.1574 O   0  0  0  0  0  0  0  0  0  0  0  0
    7.4240  -13.3712   16.7271 O   0  0  0  0  0  0  0  0  0  0  0  0
    7.4764  -13.5801   18.1126 C   0  0  0  0  0  0  0  0  0  0  0  0
    8.1645  -12.7218   18.9435 C   0  0  0  0  0  0  0  0  0  0  0  0
    8.2076  -12.9390   20.3023 C   0  0  0  0  0  0  0  0  0  0  0  0
    7.5612  -14.0305   20.8976 C   0  0  0  0  0  0  0  0  0  0  0  0
    7.6329  -14.2599   22.3544 C   0  0  0  0  0  0  0  0  0  0  0  0
    8.8951  -14.9341   22.7461 C   0  0  2  0  0  0  0  0  0  0  0  0
    9.0225  -16.2608   22.1674 N   0  0  0  0  0  0  0  0  0  0  0  0
    9.0900  -15.0163   24.1935 C   0  0  0  0  0  0  0  0  0  0  0  0
    8.7927  -14.0755   24.9730 O   0  0  0  0  0  0  0  0  0  0  0  0
    6.8889  -14.8562   20.0230 C   0  0  0  0  0  0  0  0  0  0  0  0
    6.8375  -14.6513   18.6637 C   0  0  0  0  0  0  0  0  0  0  0  0
    6.2837  -10.9595   27.1903 O   0  0  0  0  0  0  0  0  0  0  0  0
    6.7685  -12.2749   27.0797 C   0  0  0  0  0  0  0  0  0  0  0  0
    6.0308  -13.2446   26.4368 C   0  0  0  0  0  0  0  0  0  0  0  0
    6.5114  -14.5378   26.3300 C   0  0  0  0  0  0  0  0  0  0  0  0
    7.7294  -14.9100   26.8527 C   0  0  0  0  0  0  0  0  0  0  0  0
    8.2490  -16.2691   26.7542 C   0  0  0  0  0  0  0  0  0  0  0  0
    9.6715  -16.3720   26.2578 C   0  0  2  0  0  0  0  0  0  0  0  0
    9.6329  -16.1711   24.8358 N   0  0  0  0  0  0  0  0  0  0  0  0
   10.3757  -17.5833   26.6643 C   0  0  0  0  0  0  0  0  0  0  0  0
   10.9139  -18.4783   25.7587 O   0  0  0  0  0  0  0  0  0  0  0  0
    8.4449  -13.9221   27.4893 C   0  0  0  0  0  0  0  0  0  0  0  0
    7.9875  -12.6295   27.6077 C   0  0  0  0  0  0  0  0  0  0  0  0
   10.5089  -17.8425   27.8850 O   0  0  0  0  0  0  0  0  0  0  0  0
  2  1  1  6
  2  3  1  0
  4  6  1  0
  4  2  1  0
  4  5  1  6
  6  7  2  0
  8  9  1  0
  9 10  2  0
  9 19  1  0
 10 11  1  0
 11 12  2  0
 12 13  1  0
 14 13  1  1
 15 14  1  0
 15  6  1  0
 16 17  2  0
 16 14  1  0
 18 12  1  0
 19 18  2  0
 20 21  1  0
 21 22  2  0
 21 31  1  0
 22 23  1  0
 23 24  2  0
 24 25  1  0
 26 25  1  6
 26 28  1  0
 26 27  1  0
 27 16  1  0
 28 29  1  0
 30 24  1  0
 31 30  2  0
 32 28  2  0
M  END
$$$$
