VYY.pdb
     RDKit          3D

 32 33  0  0  1  0  0  0  0  0999 V2000
    6.2046  -20.6840   26.9131 C   0  0  0  0  0  0  0  0  0  0  0  0
    6.7385  -19.7225   25.9017 C   0  0  1  0  0  0  0  0  0  0  0  0
    8.2410  -19.6873   26.0312 C   0  0  0  0  0  0  0  0  0  0  0  0
    6.3834  -20.0364   24.4862 C   0  0  2  0  0  0  0  0  0  0  0  0
    6.7989  -21.3640   24.1252 N   0  0  0  0  0  0  0  0  0  0  0  0
    7.0240  -19.0443   23.5670 C   0  0  0  0  0  0  0  0  0  0  0  0
    8.2023  -19.2744   23.2162 O   0  0  0  0  0  0  0  0  0  0  0  0
    8.7998  -12.2780   18.2455 O   0  0  0  0  0  0  0  0  0  0  0  0
    8.1258  -13.1687   19.0931 C   0  0  0  0  0  0  0  0  0  0  0  0
    7.6362  -12.7651   20.3170 C   0  0  0  0  0  0  0  0  0  0  0  0
    6.9762  -13.6505   21.1392 C   0  0  0  0  0  0  0  0  0  0  0  0
    6.7735  -14.9881   20.7745 C   0  0  0  0  0  0  0  0  0  0  0  0
    6.0802  -15.9297   21.6761 C   0  0  0  0  0  0  0  0  0  0  0  0
    7.0345  -16.8034   22.4022 C   0  0  2  0  0  0  0  0  0  0  0  0
    6.3744  -17.8969   23.0950 N   0  0  0  0  0  0  0  0  0  0  0  0
    7.8905  -16.0806   23.3427 C   0  0  0  0  0  0  0  0  0  0  0  0
    7.4336  -15.2884   24.2056 O   0  0  0  0  0  0  0  0  0  0  0  0
    7.2823  -15.3388   19.5429 C   0  0  0  0  0  0  0  0  0  0  0  0
    7.9436  -14.4649   18.7113 C   0  0  0  0  0  0  0  0  0  0  0  0
    5.4897  -11.9615   26.8842 O   0  0  0  0  0  0  0  0  0  0  0  0
    6.5253  -12.8583   26.5671 C   0  0  0  0  0  0  0  0  0  0  0  0
    6.4279  -14.1915   26.9000 C   0  0  0  0  0  0  0  0  0  0  0  0
    7.4492  -15.0708   26.5862 C   0  0  0  0  0  0  0  0  0  0  0  0
    8.5921  -14.6612   25.9371 C   0  0  0  0  0  0  0  0  0  0  0  0
    9.6806  -15.5726   25.6034 C   0  0  0  0  0  0  0  0  0  0  0  0
   10.1987  -15.4544   24.1899 C   0  0  2  0  0  0  0  0  0  0  0  0
    9.3125  -16.2175   23.3553 N   0  0  0  0  0  0  0  0  0  0  0  0
   11.6071  -15.7961   24.0234 C   0  0  0  0  0  0  0  0  0  0  0  0
   12.6292  -15.0746   24.6113 O   0  0  0  0  0  0  0  0  0  0  0  0
    8.6632  -13.3249   25.6166 C   0  0  0  0  0  0  0  0  0  0  0  0
    7.6603  -12.4321   25.9184 C   0  0  0  0  0  0  0  0  0  0  0  0
   11.9259  -16.7846   23.3190 O   0  0  0  0  0  0  0  0  0  0  0  0
  2  1  1  1
  2  3  1  0
  4  6  1  0
  4  2  1  0
  4  5  1  6
  6  7  2  0
  8  9  1  0
  9 10  2  0
  9 19  1  0
 10 11  1  0
 11 12  2  0
 12 13  1  0
 14 13  1  1
 15 14  1  0
 15  6  1  0
 16 17  2  0
 16 14  1  0
 18 12  1  0
 19 18  2  0
 20 21  1  0
 21 22  2  0
 21 31  1  0
 22 23  1  0
 23 24  2  0
 24 25  1  0
 26 25  1  1
 26 28  1  0
 26 27  1  0
 27 16  1  0
 28 29  1  0
 30 24  1  0
 31 30  2  0
 32 28  2  0
M  END
$$$$
