VYY.pdb
     RDKit          3D

 32 33  0  0  1  0  0  0  0  0999 V2000
    7.6746  -23.1734   23.7753 C   0  0  0  0  0  0  0  0  0  0  0  0
    7.4861  -21.6987   23.9230 C   0  0  1  0  0  0  0  0  0  0  0  0
    7.1529  -21.1273   22.5672 C   0  0  0  0  0  0  0  0  0  0  0  0
    6.4246  -21.2938   24.8913 C   0  0  2  0  0  0  0  0  0  0  0  0
    5.1663  -21.9128   24.5765 N   0  0  0  0  0  0  0  0  0  0  0  0
    6.2661  -19.8057   24.8828 C   0  0  0  0  0  0  0  0  0  0  0  0
    5.4574  -19.3260   24.0581 O   0  0  0  0  0  0  0  0  0  0  0  0
    7.4833  -11.1642   26.3500 O   0  0  0  0  0  0  0  0  0  0  0  0
    7.4883  -12.5601   26.4828 C   0  0  0  0  0  0  0  0  0  0  0  0
    8.6650  -13.2647   26.6218 C   0  0  0  0  0  0  0  0  0  0  0  0
    8.6551  -14.6353   26.7514 C   0  0  0  0  0  0  0  0  0  0  0  0
    7.4618  -15.3699   26.7481 C   0  0  0  0  0  0  0  0  0  0  0  0
    7.4696  -16.8414   26.8691 C   0  0  0  0  0  0  0  0  0  0  0  0
    6.9648  -17.4996   25.6390 C   0  0  2  0  0  0  0  0  0  0  0  0
    6.9690  -18.9491   25.7393 N   0  0  0  0  0  0  0  0  0  0  0  0
    7.6752  -17.0959   24.4256 C   0  0  0  0  0  0  0  0  0  0  0  0
    8.7890  -17.5793   24.0984 O   0  0  0  0  0  0  0  0  0  0  0  0
    6.3161  -14.6177   26.6063 C   0  0  0  0  0  0  0  0  0  0  0  0
    6.3112  -13.2482   26.4760 C   0  0  0  0  0  0  0  0  0  0  0  0
    8.6555  -12.7920   16.5919 O   0  0  0  0  0  0  0  0  0  0  0  0
    8.2329  -13.2534   17.8512 C   0  0  0  0  0  0  0  0  0  0  0  0
    7.9379  -14.5843   18.0500 C   0  0  0  0  0  0  0  0  0  0  0  0
    7.5224  -15.0344   19.2908 C   0  0  0  0  0  0  0  0  0  0  0  0
    7.3864  -14.1871   20.3672 C   0  0  0  0  0  0  0  0  0  0  0  0
    6.9446  -14.6429   21.6802 C   0  0  0  0  0  0  0  0  0  0  0  0
    7.8305  -15.6827   22.3241 C   0  0  2  0  0  0  0  0  0  0  0  0
    7.1603  -16.1213   23.5168 N   0  0  0  0  0  0  0  0  0  0  0  0
    9.2099  -15.2614   22.5426 C   0  0  0  0  0  0  0  0  0  0  0  0
   10.2200  -15.4949   21.6283 O   0  0  0  0  0  0  0  0  0  0  0  0
    7.6874  -12.8637   20.1407 C   0  0  0  0  0  0  0  0  0  0  0  0
    8.1024  -12.3931   18.9159 C   0  0  0  0  0  0  0  0  0  0  0  0
    9.5137  -14.6596   23.6012 O   0  0  0  0  0  0  0  0  0  0  0  0
  2  1  1  6
  2  3  1  0
  4  6  1  0
  4  2  1  0
  4  5  1  6
  6  7  2  0
  8  9  1  0
  9 10  2  0
  9 19  1  0
 10 11  1  0
 11 12  2  0
 12 13  1  0
 14 13  1  1
 15 14  1  0
 15  6  1  0
 16 17  2  0
 16 14  1  0
 18 12  1  0
 19 18  2  0
 20 21  1  0
 21 22  2  0
 21 31  1  0
 22 23  1  0
 23 24  2  0
 24 25  1  0
 26 25  1  1
 26 28  1  0
 26 27  1  0
 27 16  1  0
 28 29  1  0
 30 24  1  0
 31 30  2  0
 32 28  2  0
M  END
$$$$
