VYY.pdb
     RDKit          3D

 32 33  0  0  1  0  0  0  0  0999 V2000
    8.9759  -20.5301   25.6315 C   0  0  0  0  0  0  0  0  0  0  0  0
    9.0401  -21.2877   24.3453 C   0  0  1  0  0  0  0  0  0  0  0  0
    8.8381  -22.7514   24.6491 C   0  0  0  0  0  0  0  0  0  0  0  0
    8.0439  -20.8665   23.3165 C   0  0  2  0  0  0  0  0  0  0  0  0
    8.0092  -21.7882   22.2143 N   0  0  0  0  0  0  0  0  0  0  0  0
    8.3773  -19.4971   22.8132 C   0  0  0  0  0  0  0  0  0  0  0  0
    9.4082  -19.3851   22.1140 O   0  0  0  0  0  0  0  0  0  0  0  0
    8.0772  -11.2294   19.9762 O   0  0  0  0  0  0  0  0  0  0  0  0
    7.7568  -12.4230   20.6386 C   0  0  0  0  0  0  0  0  0  0  0  0
    7.7073  -12.4906   22.0146 C   0  0  0  0  0  0  0  0  0  0  0  0
    7.3912  -13.6693   22.6518 C   0  0  0  0  0  0  0  0  0  0  0  0
    7.1082  -14.8423   21.9395 C   0  0  0  0  0  0  0  0  0  0  0  0
    6.7895  -16.1032   22.6385 C   0  0  0  0  0  0  0  0  0  0  0  0
    7.9632  -17.0079   22.7087 C   0  0  2  0  0  0  0  0  0  0  0  0
    7.6015  -18.3636   23.0865 N   0  0  0  0  0  0  0  0  0  0  0  0
    9.0225  -16.5247   23.5942 C   0  0  0  0  0  0  0  0  0  0  0  0
   10.1068  -16.0562   23.1628 O   0  0  0  0  0  0  0  0  0  0  0  0
    7.1718  -14.7200   20.5685 C   0  0  0  0  0  0  0  0  0  0  0  0
    7.4861  -13.5489   19.9186 C   0  0  0  0  0  0  0  0  0  0  0  0
    5.7428  -11.0679   25.4615 O   0  0  0  0  0  0  0  0  0  0  0  0
    6.5830  -12.1248   25.8546 C   0  0  0  0  0  0  0  0  0  0  0  0
    7.9531  -11.9942   25.7937 C   0  0  0  0  0  0  0  0  0  0  0  0
    8.7764  -13.0365   26.1814 C   0  0  0  0  0  0  0  0  0  0  0  0
    8.2733  -14.2336   26.6387 C   0  0  0  0  0  0  0  0  0  0  0  0
    9.1257  -15.3445   27.0463 C   0  0  0  0  0  0  0  0  0  0  0  0
    9.8866  -16.0080   25.9232 C   0  0  2  0  0  0  0  0  0  0  0  0
    8.9094  -16.5466   25.0181 N   0  0  0  0  0  0  0  0  0  0  0  0
   10.8911  -16.9751   26.3518 C   0  0  0  0  0  0  0  0  0  0  0  0
   12.0328  -16.6153   27.0429 O   0  0  0  0  0  0  0  0  0  0  0  0
    6.9021  -14.3368   26.6891 C   0  0  0  0  0  0  0  0  0  0  0  0
    6.0635  -13.3140   26.3090 C   0  0  0  0  0  0  0  0  0  0  0  0
   10.7305  -18.1922   26.0909 O   0  0  0  0  0  0  0  0  0  0  0  0
  2  1  1  1
  2  3  1  0
  4  6  1  0
  4  2  1  0
  4  5  1  6
  6  7  2  0
  8  9  1  0
  9 10  2  0
  9 19  1  0
 10 11  1  0
 11 12  2  0
 12 13  1  0
 14 13  1  1
 15 14  1  0
 15  6  1  0
 16 17  2  0
 16 14  1  0
 18 12  1  0
 19 18  2  0
 20 21  1  0
 21 22  2  0
 21 31  1  0
 22 23  1  0
 23 24  2  0
 24 25  1  0
 26 25  1  1
 26 28  1  0
 26 27  1  0
 27 16  1  0
 28 29  1  0
 30 24  1  0
 31 30  2  0
 32 28  2  0
M  END
$$$$
