VYY.pdb
     RDKit          3D

 32 33  0  0  1  0  0  0  0  0999 V2000
    6.5683  -20.5758   26.1312 C   0  0  0  0  0  0  0  0  0  0  0  0
    7.3139  -19.6502   25.2259 C   0  0  1  0  0  0  0  0  0  0  0  0
    8.6495  -20.2753   24.9078 C   0  0  0  0  0  0  0  0  0  0  0  0
    6.6169  -19.3241   23.9468 C   0  0  2  0  0  0  0  0  0  0  0  0
    6.3725  -20.5072   23.1684 N   0  0  0  0  0  0  0  0  0  0  0  0
    7.4385  -18.3609   23.1487 C   0  0  0  0  0  0  0  0  0  0  0  0
    8.0799  -18.8278   22.1818 O   0  0  0  0  0  0  0  0  0  0  0  0
    7.6223  -12.4536   17.3973 O   0  0  0  0  0  0  0  0  0  0  0  0
    7.6318  -13.0071   18.6856 C   0  0  0  0  0  0  0  0  0  0  0  0
    6.4609  -13.2631   19.3667 C   0  0  0  0  0  0  0  0  0  0  0  0
    6.4851  -13.8069   20.6312 C   0  0  0  0  0  0  0  0  0  0  0  0
    7.6876  -14.1221   21.2778 C   0  0  0  0  0  0  0  0  0  0  0  0
    7.6968  -14.6872   22.6419 C   0  0  0  0  0  0  0  0  0  0  0  0
    8.3096  -16.0379   22.6762 C   0  0  2  0  0  0  0  0  0  0  0  0
    7.5168  -16.9918   23.4330 N   0  0  0  0  0  0  0  0  0  0  0  0
    9.6839  -16.0446   23.1774 C   0  0  0  0  0  0  0  0  0  0  0  0
   10.5656  -15.2557   22.7515 O   0  0  0  0  0  0  0  0  0  0  0  0
    8.8271  -13.8464   20.5538 C   0  0  0  0  0  0  0  0  0  0  0  0
    8.8177  -13.3034   19.2898 C   0  0  0  0  0  0  0  0  0  0  0  0
    9.0915  -14.9735   30.4433 O   0  0  0  0  0  0  0  0  0  0  0  0
    9.7211  -15.1196   29.1944 C   0  0  0  0  0  0  0  0  0  0  0  0
    9.5070  -14.2041   28.1874 C   0  0  0  0  0  0  0  0  0  0  0  0
   10.1284  -14.3514   26.9599 C   0  0  0  0  0  0  0  0  0  0  0  0
   10.9759  -15.4025   26.6915 C   0  0  0  0  0  0  0  0  0  0  0  0
   11.6349  -15.5765   25.4023 C   0  0  0  0  0  0  0  0  0  0  0  0
   11.4471  -16.9349   24.7698 C   0  0  2  0  0  0  0  0  0  0  0  0
   10.1328  -16.9471   24.1897 N   0  0  0  0  0  0  0  0  0  0  0  0
   11.7128  -18.0641   25.6544 C   0  0  0  0  0  0  0  0  0  0  0  0
   10.7451  -18.9868   26.0051 O   0  0  0  0  0  0  0  0  0  0  0  0
   11.1716  -16.3017   27.7146 C   0  0  0  0  0  0  0  0  0  0  0  0
   10.5648  -16.1759   28.9433 C   0  0  0  0  0  0  0  0  0  0  0  0
   12.8638  -18.2221   26.1289 O   0  0  0  0  0  0  0  0  0  0  0  0
  2  1  1  1
  2  3  1  0
  4  6  1  0
  4  2  1  0
  4  5  1  6
  6  7  2  0
  8  9  1  0
  9 10  2  0
  9 19  1  0
 10 11  1  0
 11 12  2  0
 12 13  1  0
 14 13  1  1
 15 14  1  0
 15  6  1  0
 16 17  2  0
 16 14  1  0
 18 12  1  0
 19 18  2  0
 20 21  1  0
 21 22  2  0
 21 31  1  0
 22 23  1  0
 23 24  2  0
 24 25  1  0
 26 25  1  1
 26 28  1  0
 26 27  1  0
 27 16  1  0
 28 29  1  0
 30 24  1  0
 31 30  2  0
 32 28  2  0
M  END
$$$$
