VYY.pdb
     RDKit          3D

 32 33  0  0  1  0  0  0  0  0999 V2000
    5.1766  -22.1265   24.8164 C   0  0  0  0  0  0  0  0  0  0  0  0
    5.9225  -20.9073   24.3811 C   0  0  1  0  0  0  0  0  0  0  0  0
    7.3587  -21.0510   24.8195 C   0  0  0  0  0  0  0  0  0  0  0  0
    5.8905  -20.6408   22.9127 C   0  0  2  0  0  0  0  0  0  0  0  0
    6.4016  -21.7583   22.1675 N   0  0  0  0  0  0  0  0  0  0  0  0
    6.6954  -19.4192   22.5977 C   0  0  0  0  0  0  0  0  0  0  0  0
    7.9339  -19.5650   22.5013 O   0  0  0  0  0  0  0  0  0  0  0  0
    9.3590  -11.7395   19.4137 O   0  0  0  0  0  0  0  0  0  0  0  0
    8.5483  -12.7379   19.9723 C   0  0  0  0  0  0  0  0  0  0  0  0
    8.0909  -12.6502   21.2698 C   0  0  0  0  0  0  0  0  0  0  0  0
    7.2954  -13.6380   21.8054 C   0  0  0  0  0  0  0  0  0  0  0  0
    6.9177  -14.7660   21.0649 C   0  0  0  0  0  0  0  0  0  0  0  0
    6.0796  -15.8258   21.6603 C   0  0  0  0  0  0  0  0  0  0  0  0
    6.8986  -16.9308   22.2165 C   0  0  2  0  0  0  0  0  0  0  0  0
    6.1328  -18.1503   22.4111 N   0  0  0  0  0  0  0  0  0  0  0  0
    7.5811  -16.5834   23.4628 C   0  0  0  0  0  0  0  0  0  0  0  0
    7.0560  -16.7492   24.5933 O   0  0  0  0  0  0  0  0  0  0  0  0
    7.4016  -14.8041   19.7753 C   0  0  0  0  0  0  0  0  0  0  0  0
    8.1969  -13.8246   19.2274 C   0  0  0  0  0  0  0  0  0  0  0  0
    5.6831  -11.2000   26.8585 O   0  0  0  0  0  0  0  0  0  0  0  0
    6.4338  -12.3628   26.6098 C   0  0  0  0  0  0  0  0  0  0  0  0
    7.7812  -12.2845   26.3335 C   0  0  0  0  0  0  0  0  0  0  0  0
    8.5163  -13.4311   26.0894 C   0  0  0  0  0  0  0  0  0  0  0  0
    7.9452  -14.6835   26.1108 C   0  0  0  0  0  0  0  0  0  0  0  0
    8.7033  -15.9019   25.8506 C   0  0  0  0  0  0  0  0  0  0  0  0
    9.6655  -15.8170   24.6898 C   0  0  2  0  0  0  0  0  0  0  0  0
    8.8971  -16.0286   23.4944 N   0  0  0  0  0  0  0  0  0  0  0  0
   10.8359  -16.6806   24.8003 C   0  0  0  0  0  0  0  0  0  0  0  0
   11.7373  -16.5934   25.8447 O   0  0  0  0  0  0  0  0  0  0  0  0
    6.5985  -14.7326   26.3892 C   0  0  0  0  0  0  0  0  0  0  0  0
    5.8471  -13.6061   26.6352 C   0  0  0  0  0  0  0  0  0  0  0  0
   11.0523  -17.5469   23.9184 O   0  0  0  0  0  0  0  0  0  0  0  0
  2  1  1  6
  2  3  1  0
  4  6  1  0
  4  2  1  0
  4  5  1  6
  6  7  2  0
  8  9  1  0
  9 10  2  0
  9 19  1  0
 10 11  1  0
 11 12  2  0
 12 13  1  0
 14 13  1  1
 15 14  1  0
 15  6  1  0
 16 17  2  0
 16 14  1  0
 18 12  1  0
 19 18  2  0
 20 21  1  0
 21 22  2  0
 21 31  1  0
 22 23  1  0
 23 24  2  0
 24 25  1  0
 26 25  1  1
 26 28  1  0
 26 27  1  0
 27 16  1  0
 28 29  1  0
 30 24  1  0
 31 30  2  0
 32 28  2  0
M  END
$$$$
