VYY.pdb
     RDKit          3D

 32 33  0  0  1  0  0  0  0  0999 V2000
    7.2519  -12.7243   18.9278 C   0  0  0  0  0  0  0  0  0  0  0  0
    8.4828  -13.4970   19.2744 C   0  0  1  0  0  0  0  0  0  0  0  0
    8.0726  -14.6962   20.0924 C   0  0  0  0  0  0  0  0  0  0  0  0
    9.2841  -13.9624   18.1041 C   0  0  2  0  0  0  0  0  0  0  0  0
    8.5173  -14.8374   17.2605 N   0  0  0  0  0  0  0  0  0  0  0  0
   10.5131  -14.6735   18.5770 C   0  0  0  0  0  0  0  0  0  0  0  0
   10.4823  -15.9238   18.5723 O   0  0  0  0  0  0  0  0  0  0  0  0
   17.6152  -15.8968   15.2769 O   0  0  0  0  0  0  0  0  0  0  0  0
   16.7461  -15.3946   16.2559 C   0  0  0  0  0  0  0  0  0  0  0  0
   15.6163  -16.0863   16.6374 C   0  0  0  0  0  0  0  0  0  0  0  0
   14.7716  -15.5812   17.6002 C   0  0  0  0  0  0  0  0  0  0  0  0
   15.0182  -14.3542   18.2303 C   0  0  0  0  0  0  0  0  0  0  0  0
   14.0922  -13.8175   19.2475 C   0  0  0  0  0  0  0  0  0  0  0  0
   12.8957  -14.6786   19.4146 C   0  0  2  0  0  0  0  0  0  0  0  0
   11.6680  -14.0126   19.0139 N   0  0  0  0  0  0  0  0  0  0  0  0
   12.7399  -15.2074   20.7696 C   0  0  0  0  0  0  0  0  0  0  0  0
   12.7593  -14.4741   21.7909 O   0  0  0  0  0  0  0  0  0  0  0  0
   16.1592  -13.7045   17.8124 C   0  0  0  0  0  0  0  0  0  0  0  0
   17.0119  -14.1973   16.8519 C   0  0  0  0  0  0  0  0  0  0  0  0
    6.6717  -14.6170   23.2337 O   0  0  0  0  0  0  0  0  0  0  0  0
    7.7979  -15.4372   23.0436 C   0  0  0  0  0  0  0  0  0  0  0  0
    7.7921  -16.4295   22.0880 C   0  0  0  0  0  0  0  0  0  0  0  0
    8.9024  -17.2345   21.9040 C   0  0  0  0  0  0  0  0  0  0  0  0
   10.0463  -17.0842   22.6550 C   0  0  0  0  0  0  0  0  0  0  0  0
   11.2235  -17.9268   22.4785 C   0  0  0  0  0  0  0  0  0  0  0  0
   12.5290  -17.1781   22.3538 C   0  0  2  0  0  0  0  0  0  0  0  0
   12.5534  -16.5978   21.0397 N   0  0  0  0  0  0  0  0  0  0  0  0
   13.7170  -17.9610   22.6759 C   0  0  0  0  0  0  0  0  0  0  0  0
   14.0124  -18.3838   23.9583 O   0  0  0  0  0  0  0  0  0  0  0  0
   10.0247  -16.0861   23.6019 C   0  0  0  0  0  0  0  0  0  0  0  0
    8.9325  -15.2733   23.8028 C   0  0  0  0  0  0  0  0  0  0  0  0
   14.5190  -18.2742   21.7628 O   0  0  0  0  0  0  0  0  0  0  0  0
  2  1  1  6
  2  3  1  0
  4  6  1  0
  4  2  1  0
  4  5  1  1
  6  7  2  0
  8  9  1  0
  9 10  2  0
  9 19  1  0
 10 11  1  0
 11 12  2  0
 12 13  1  0
 14 13  1  1
 15 14  1  0
 15  6  1  0
 16 17  2  0
 16 14  1  0
 18 12  1  0
 19 18  2  0
 20 21  1  0
 21 22  2  0
 21 31  1  0
 22 23  1  0
 23 24  2  0
 24 25  1  0
 26 25  1  6
 26 28  1  0
 26 27  1  0
 27 16  1  0
 28 29  1  0
 30 24  1  0
 31 30  2  0
 32 28  2  0
M  END
$$$$
