VYY.pdb
     RDKit          3D

 32 33  0  0  1  0  0  0  0  0999 V2000
    8.8705  -12.8055   19.7713 C   0  0  0  0  0  0  0  0  0  0  0  0
    8.0436  -13.7458   18.9562 C   0  0  1  0  0  0  0  0  0  0  0  0
    7.5424  -13.0030   17.7426 C   0  0  0  0  0  0  0  0  0  0  0  0
    8.7528  -14.9803   18.5074 C   0  0  2  0  0  0  0  0  0  0  0  0
    7.8980  -15.8117   17.7052 N   0  0  0  0  0  0  0  0  0  0  0  0
    9.2320  -15.7543   19.6952 C   0  0  0  0  0  0  0  0  0  0  0  0
    8.3642  -16.3437   20.3761 O   0  0  0  0  0  0  0  0  0  0  0  0
   14.2729  -19.7773   25.7470 O   0  0  0  0  0  0  0  0  0  0  0  0
   13.8302  -19.0561   24.6289 C   0  0  0  0  0  0  0  0  0  0  0  0
   12.8947  -19.5781   23.7612 C   0  0  0  0  0  0  0  0  0  0  0  0
   12.4689  -18.8587   22.6672 C   0  0  0  0  0  0  0  0  0  0  0  0
   12.9610  -17.5768   22.3878 C   0  0  0  0  0  0  0  0  0  0  0  0
   12.5081  -16.8262   21.1998 C   0  0  0  0  0  0  0  0  0  0  0  0
   11.0604  -16.5085   21.2657 C   0  0  2  0  0  0  0  0  0  0  0  0
   10.5794  -15.8435   20.0667 N   0  0  0  0  0  0  0  0  0  0  0  0
   10.6872  -15.7200   22.4399 C   0  0  0  0  0  0  0  0  0  0  0  0
   11.0003  -14.5093   22.5721 O   0  0  0  0  0  0  0  0  0  0  0  0
   13.8929  -17.1031   23.2856 C   0  0  0  0  0  0  0  0  0  0  0  0
   14.3272  -17.8106   24.3825 C   0  0  0  0  0  0  0  0  0  0  0  0
    6.3210  -11.2722   28.3651 O   0  0  0  0  0  0  0  0  0  0  0  0
    6.8167  -12.1309   27.3681 C   0  0  0  0  0  0  0  0  0  0  0  0
    7.7646  -13.0844   27.6685 C   0  0  0  0  0  0  0  0  0  0  0  0
    8.2498  -13.9276   26.6845 C   0  0  0  0  0  0  0  0  0  0  0  0
    7.8153  -13.8545   25.3803 C   0  0  0  0  0  0  0  0  0  0  0  0
    8.3195  -14.7310   24.3294 C   0  0  0  0  0  0  0  0  0  0  0  0
    9.5492  -15.5257   24.6993 C   0  0  2  0  0  0  0  0  0  0  0  0
    9.9379  -16.2623   23.5286 N   0  0  0  0  0  0  0  0  0  0  0  0
    9.4094  -16.3488   25.8956 C   0  0  0  0  0  0  0  0  0  0  0  0
    9.4794  -17.7290   25.8695 O   0  0  0  0  0  0  0  0  0  0  0  0
    6.8688  -12.8934   25.1081 C   0  0  0  0  0  0  0  0  0  0  0  0
    6.3716  -12.0440   26.0700 C   0  0  0  0  0  0  0  0  0  0  0  0
    9.2159  -15.7989   27.0070 O   0  0  0  0  0  0  0  0  0  0  0  0
  2  1  1  6
  2  3  1  0
  4  6  1  0
  4  2  1  0
  4  5  1  1
  6  7  2  0
  8  9  1  0
  9 10  2  0
  9 19  1  0
 10 11  1  0
 11 12  2  0
 12 13  1  0
 14 13  1  6
 15 14  1  0
 15  6  1  0
 16 17  2  0
 16 14  1  0
 18 12  1  0
 19 18  2  0
 20 21  1  0
 21 22  2  0
 21 31  1  0
 22 23  1  0
 23 24  2  0
 24 25  1  0
 26 25  1  6
 26 28  1  0
 26 27  1  0
 27 16  1  0
 28 29  1  0
 30 24  1  0
 31 30  2  0
 32 28  2  0
M  END
$$$$
