LPR.pdb
     RDKit          3D

 27 27  0  0  1  0  0  0  0  0999 V2000
    7.8192  -11.8429   26.1610 C   0  0  0  0  0  0  0  0  0  0  0  0
    6.6677  -12.8284   26.1343 C   0  0  1  0  0  0  0  0  0  0  0  0
    5.4425  -12.0333   26.6094 C   0  0  0  0  0  0  0  0  0  0  0  0
    6.3508  -13.2957   24.7519 C   0  0  0  0  0  0  0  0  0  0  0  0
    6.0770  -14.7764   24.6398 C   0  0  2  0  0  0  0  0  0  0  0  0
    5.8857  -15.2576   25.9918 N   0  0  0  0  0  0  0  0  0  0  0  0
    7.1698  -15.5142   23.9609 C   0  0  0  0  0  0  0  0  0  0  0  0
    7.5352  -16.5958   24.5467 O   0  0  0  0  0  0  0  0  0  0  0  0
    7.7944  -15.0939   22.7551 N   0  0  0  0  0  0  0  0  0  0  0  0
    7.4721  -13.9218   22.0160 C   0  0  0  0  0  0  0  0  0  0  0  0
    8.3351  -13.9864   20.7702 C   0  0  0  0  0  0  0  0  0  0  0  0
    8.7095  -15.4662   20.6658 C   0  0  0  0  0  0  0  0  0  0  0  0
    8.8516  -15.8172   22.1194 C   0  0  1  0  0  0  0  0  0  0  0  0
   10.1711  -15.4282   22.6710 C   0  0  0  0  0  0  0  0  0  0  0  0
   10.2332  -14.5360   23.5470 O   0  0  0  0  0  0  0  0  0  0  0  0
   10.6086  -14.1161   27.4425 N   0  0  0  0  0  0  0  0  0  0  0  0
   10.6105  -15.3631   28.1219 C   0  0  0  0  0  0  0  0  0  0  0  0
   10.9683  -15.3737   29.3793 N   0  0  0  0  0  0  0  0  0  0  0  0
   10.2482  -16.5817   27.5125 N   0  0  0  0  0  0  0  0  0  0  0  0
   11.2357  -17.3439   26.7060 C   0  0  0  0  0  0  0  0  0  0  0  0
   11.1882  -16.7604   25.3547 C   0  0  0  0  0  0  0  0  0  0  0  0
   12.0132  -17.2812   24.2730 C   0  0  0  0  0  0  0  0  0  0  0  0
   12.4263  -16.4510   23.1241 C   0  0  2  0  0  0  0  0  0  0  0  0
   11.3707  -16.0412   22.2322 N   0  0  0  0  0  0  0  0  0  0  0  0
   13.6143  -16.9437   22.4101 C   0  0  0  0  0  0  0  0  0  0  0  0
   13.4915  -17.6006   21.3618 O   0  0  0  0  0  0  0  0  0  0  0  0
   14.8664  -16.6742   22.9080 O   0  0  0  0  0  0  0  0  0  0  0  0
  2  3  1  6
  2  1  1  0
  4  2  1  0
  4  5  1  0
  5  7  1  0
  5  6  1  1
  7  8  2  0
  9 13  1  0
  9  7  1  0
 10  9  1  0
 11 10  1  0
 11 12  1  0
 12 13  1  0
 13 14  1  1
 14 15  2  0
 16 17  1  0
 17 19  1  0
 18 17  2  0
 19 20  1  0
 21 20  1  0
 21 22  1  0
 23 22  1  1
 23 24  1  0
 23 25  1  0
 24 14  1  0
 25 27  1  0
 26 25  2  0
M  END
$$$$
