LPR.pdb
     RDKit          3D

 27 27  0  0  1  0  0  0  0  0999 V2000
    5.4996  -17.2994   20.7267 C   0  0  0  0  0  0  0  0  0  0  0  0
    6.1848  -15.9494   20.8042 C   0  0  1  0  0  0  0  0  0  0  0  0
    5.0933  -14.9212   20.4718 C   0  0  0  0  0  0  0  0  0  0  0  0
    6.6535  -15.6279   22.1851 C   0  0  0  0  0  0  0  0  0  0  0  0
    7.7317  -14.5728   22.2496 C   0  0  2  0  0  0  0  0  0  0  0  0
    8.6989  -14.9178   21.2291 N   0  0  0  0  0  0  0  0  0  0  0  0
    8.3727  -14.4855   23.5840 C   0  0  0  0  0  0  0  0  0  0  0  0
    9.5132  -15.0668   23.6734 O   0  0  0  0  0  0  0  0  0  0  0  0
    7.8055  -13.8215   24.7056 N   0  0  0  0  0  0  0  0  0  0  0  0
    6.5674  -13.1208   24.7189 C   0  0  0  0  0  0  0  0  0  0  0  0
    6.4712  -12.5078   26.1032 C   0  0  0  0  0  0  0  0  0  0  0  0
    7.9202  -12.4944   26.5943 C   0  0  0  0  0  0  0  0  0  0  0  0
    8.4263  -13.7745   25.9930 C   0  0  1  0  0  0  0  0  0  0  0  0
    8.0668  -14.9630   26.8023 C   0  0  0  0  0  0  0  0  0  0  0  0
    6.9079  -15.4304   26.7283 O   0  0  0  0  0  0  0  0  0  0  0  0
   11.6008  -20.1525   22.1438 N   0  0  0  0  0  0  0  0  0  0  0  0
   12.4860  -19.7524   23.1796 C   0  0  0  0  0  0  0  0  0  0  0  0
   13.7619  -19.9878   23.0185 N   0  0  0  0  0  0  0  0  0  0  0  0
   12.0607  -19.1183   24.3648 N   0  0  0  0  0  0  0  0  0  0  0  0
   10.6172  -18.8667   24.6088 C   0  0  0  0  0  0  0  0  0  0  0  0
   10.5429  -18.1730   25.9056 C   0  0  0  0  0  0  0  0  0  0  0  0
    9.2696  -17.7328   26.4598 C   0  0  0  0  0  0  0  0  0  0  0  0
    9.1733  -17.0172   27.7476 C   0  0  2  0  0  0  0  0  0  0  0  0
    9.0034  -15.5883   27.6621 N   0  0  0  0  0  0  0  0  0  0  0  0
   10.1830  -17.4108   28.7423 C   0  0  0  0  0  0  0  0  0  0  0  0
   10.3072  -18.6018   29.0762 O   0  0  0  0  0  0  0  0  0  0  0  0
   10.9926  -16.4529   29.3039 O   0  0  0  0  0  0  0  0  0  0  0  0
  2  3  1  1
  2  1  1  0
  4  2  1  0
  4  5  1  0
  5  7  1  0
  5  6  1  6
  7  8  2  0
  9 13  1  0
  9  7  1  0
 10  9  1  0
 11 10  1  0
 11 12  1  0
 12 13  1  0
 13 14  1  1
 14 15  2  0
 16 17  1  0
 17 19  1  0
 18 17  2  0
 19 20  1  0
 21 20  1  0
 21 22  1  0
 23 22  1  6
 23 24  1  0
 23 25  1  0
 24 14  1  0
 25 27  1  0
 26 25  2  0
M  END
$$$$
