LPR.pdb
     RDKit          3D

 27 27  0  0  1  0  0  0  0  0999 V2000
    6.9661  -14.8722   18.2771 C   0  0  0  0  0  0  0  0  0  0  0  0
    7.9991  -14.0666   19.0398 C   0  0  1  0  0  0  0  0  0  0  0  0
    7.4210  -12.6464   19.1283 C   0  0  0  0  0  0  0  0  0  0  0  0
    8.1627  -14.5383   20.4472 C   0  0  0  0  0  0  0  0  0  0  0  0
    9.2006  -13.7836   21.2429 C   0  0  2  0  0  0  0  0  0  0  0  0
   10.4227  -13.8353   20.4685 N   0  0  0  0  0  0  0  0  0  0  0  0
    9.4054  -14.3446   22.6004 C   0  0  0  0  0  0  0  0  0  0  0  0
   10.4785  -15.0336   22.7427 O   0  0  0  0  0  0  0  0  0  0  0  0
    8.5100  -14.1605   23.6889 N   0  0  0  0  0  0  0  0  0  0  0  0
    7.2293  -13.5452   23.6178 C   0  0  0  0  0  0  0  0  0  0  0  0
    6.7310  -13.4951   25.0496 C   0  0  0  0  0  0  0  0  0  0  0  0
    8.0076  -13.6312   25.8818 C   0  0  0  0  0  0  0  0  0  0  0  0
    8.7942  -14.5822   25.0255 C   0  0  1  0  0  0  0  0  0  0  0  0
    8.3980  -15.9950   25.2348 C   0  0  0  0  0  0  0  0  0  0  0  0
    7.2199  -16.3455   24.9974 O   0  0  0  0  0  0  0  0  0  0  0  0
   13.1908  -17.7488   21.9203 N   0  0  0  0  0  0  0  0  0  0  0  0
   12.0493  -17.9655   21.1039 C   0  0  0  0  0  0  0  0  0  0  0  0
   12.0247  -17.4013   19.9248 N   0  0  0  0  0  0  0  0  0  0  0  0
   10.9488  -18.7535   21.4985 N   0  0  0  0  0  0  0  0  0  0  0  0
   10.9340  -19.4155   22.8282 C   0  0  0  0  0  0  0  0  0  0  0  0
    9.7574  -18.8784   23.5324 C   0  0  0  0  0  0  0  0  0  0  0  0
    9.4255  -19.2988   24.8870 C   0  0  0  0  0  0  0  0  0  0  0  0
    8.9757  -18.3469   25.9221 C   0  0  2  0  0  0  0  0  0  0  0  0
    9.3205  -16.9653   25.6986 N   0  0  0  0  0  0  0  0  0  0  0  0
    9.2330  -18.7804   27.3040 C   0  0  0  0  0  0  0  0  0  0  0  0
    8.8939  -19.9152   27.6815 O   0  0  0  0  0  0  0  0  0  0  0  0
    9.8526  -17.9225   28.1807 O   0  0  0  0  0  0  0  0  0  0  0  0
  2  3  1  1
  2  1  1  0
  4  2  1  0
  4  5  1  0
  5  7  1  0
  5  6  1  6
  7  8  2  0
  9 13  1  0
  9  7  1  0
 10  9  1  0
 11 10  1  0
 11 12  1  0
 12 13  1  0
 13 14  1  6
 14 15  2  0
 16 17  1  0
 17 19  1  0
 18 17  2  0
 19 20  1  0
 21 20  1  0
 21 22  1  0
 23 22  1  6
 23 24  1  0
 23 25  1  0
 24 14  1  0
 25 27  1  0
 26 25  2  0
M  END
$$$$
