LPR.pdb
     RDKit          3D

 27 27  0  0  1  0  0  0  0  0999 V2000
    6.7276  -14.4529   19.6015 C   0  0  0  0  0  0  0  0  0  0  0  0
    7.7475  -13.5062   20.2027 C   0  0  1  0  0  0  0  0  0  0  0  0
    7.3911  -12.1198   19.6462 C   0  0  0  0  0  0  0  0  0  0  0  0
    7.6229  -13.4039   21.6873 C   0  0  0  0  0  0  0  0  0  0  0  0
    8.9299  -13.5234   22.4341 C   0  0  2  0  0  0  0  0  0  0  0  0
    9.8751  -14.1092   21.5071 N   0  0  0  0  0  0  0  0  0  0  0  0
    8.8160  -14.3399   23.6668 C   0  0  0  0  0  0  0  0  0  0  0  0
    9.6236  -15.3351   23.7308 O   0  0  0  0  0  0  0  0  0  0  0  0
    7.8986  -14.0794   24.7209 N   0  0  0  0  0  0  0  0  0  0  0  0
    6.7850  -13.1963   24.6553 C   0  0  0  0  0  0  0  0  0  0  0  0
    6.2002  -13.1877   26.0549 C   0  0  0  0  0  0  0  0  0  0  0  0
    7.3522  -13.6834   26.9313 C   0  0  0  0  0  0  0  0  0  0  0  0
    7.9846  -14.6887   26.0117 C   0  0  1  0  0  0  0  0  0  0  0  0
    7.2857  -15.9956   26.0323 C   0  0  0  0  0  0  0  0  0  0  0  0
    6.4902  -16.2827   25.1093 O   0  0  0  0  0  0  0  0  0  0  0  0
    8.4957  -21.4761   21.7659 N   0  0  0  0  0  0  0  0  0  0  0  0
    8.4938  -20.1294   21.3155 C   0  0  0  0  0  0  0  0  0  0  0  0
    8.0631  -19.8903   20.1045 N   0  0  0  0  0  0  0  0  0  0  0  0
    8.9300  -19.0448   22.1036 N   0  0  0  0  0  0  0  0  0  0  0  0
    9.5119  -19.2776   23.4503 C   0  0  0  0  0  0  0  0  0  0  0  0
    8.6958  -18.4837   24.3843 C   0  0  0  0  0  0  0  0  0  0  0  0
    9.0601  -18.3523   25.7886 C   0  0  0  0  0  0  0  0  0  0  0  0
    8.0503  -18.2466   26.8605 C   0  0  2  0  0  0  0  0  0  0  0  0
    7.4938  -16.9340   27.0733 N   0  0  0  0  0  0  0  0  0  0  0  0
    8.4200  -18.9173   28.1164 C   0  0  0  0  0  0  0  0  0  0  0  0
    9.2027  -18.3732   28.9143 O   0  0  0  0  0  0  0  0  0  0  0  0
    7.8945  -20.1536   28.4063 O   0  0  0  0  0  0  0  0  0  0  0  0
  2  3  1  6
  2  1  1  0
  4  2  1  0
  4  5  1  0
  5  7  1  0
  5  6  1  6
  7  8  2  0
  9 13  1  0
  9  7  1  0
 10  9  1  0
 11 10  1  0
 11 12  1  0
 12 13  1  0
 13 14  1  6
 14 15  2  0
 16 17  1  0
 17 19  1  0
 18 17  2  0
 19 20  1  0
 21 20  1  0
 21 22  1  0
 23 22  1  6
 23 24  1  0
 23 25  1  0
 24 14  1  0
 25 27  1  0
 26 25  2  0
M  END
$$$$
