LPR.pdb
     RDKit          3D

 27 27  0  0  1  0  0  0  0  0999 V2000
    8.2098  -14.1728   19.1243 C   0  0  0  0  0  0  0  0  0  0  0  0
    7.5450  -13.1684   20.0447 C   0  0  1  0  0  0  0  0  0  0  0  0
    6.0846  -13.0930   19.5751 C   0  0  0  0  0  0  0  0  0  0  0  0
    7.5033  -13.6365   21.4622 C   0  0  0  0  0  0  0  0  0  0  0  0
    8.8413  -13.6311   22.1620 C   0  0  2  0  0  0  0  0  0  0  0  0
    9.7361  -14.4111   21.3333 N   0  0  0  0  0  0  0  0  0  0  0  0
    8.7736  -14.1808   23.5378 C   0  0  0  0  0  0  0  0  0  0  0  0
    9.4868  -15.2290   23.7352 O   0  0  0  0  0  0  0  0  0  0  0  0
    7.9931  -13.6244   24.5874 N   0  0  0  0  0  0  0  0  0  0  0  0
    7.0507  -12.5671   24.4529 C   0  0  0  0  0  0  0  0  0  0  0  0
    6.5767  -12.2737   25.8636 C   0  0  0  0  0  0  0  0  0  0  0  0
    7.6822  -12.8577   26.7454 C   0  0  0  0  0  0  0  0  0  0  0  0
    8.0612  -14.0706   25.9443 C   0  0  1  0  0  0  0  0  0  0  0  0
    7.1462  -15.2131   26.1768 C   0  0  0  0  0  0  0  0  0  0  0  0
    6.0409  -15.2458   25.5899 O   0  0  0  0  0  0  0  0  0  0  0  0
   11.7898  -20.0326   22.1334 N   0  0  0  0  0  0  0  0  0  0  0  0
   11.2678  -20.1962   23.4439 C   0  0  0  0  0  0  0  0  0  0  0  0
   12.1158  -20.2501   24.4375 N   0  0  0  0  0  0  0  0  0  0  0  0
    9.8904  -20.3024   23.7251 N   0  0  0  0  0  0  0  0  0  0  0  0
    8.9947  -19.1291   23.5597 C   0  0  0  0  0  0  0  0  0  0  0  0
    8.8037  -18.5746   24.9105 C   0  0  0  0  0  0  0  0  0  0  0  0
    7.5093  -18.0701   25.3485 C   0  0  0  0  0  0  0  0  0  0  0  0
    7.2506  -17.6636   26.7441 C   0  0  2  0  0  0  0  0  0  0  0  0
    7.4893  -16.2752   27.0496 N   0  0  0  0  0  0  0  0  0  0  0  0
    7.8071  -18.5723   27.7583 C   0  0  0  0  0  0  0  0  0  0  0  0
    8.7872  -18.2289   28.4415 O   0  0  0  0  0  0  0  0  0  0  0  0
    7.2371  -19.8081   27.9489 O   0  0  0  0  0  0  0  0  0  0  0  0
  2  3  1  6
  2  1  1  0
  4  2  1  0
  4  5  1  0
  5  7  1  0
  5  6  1  6
  7  8  2  0
  9 13  1  0
  9  7  1  0
 10  9  1  0
 11 10  1  0
 11 12  1  0
 12 13  1  0
 13 14  1  6
 14 15  2  0
 16 17  1  0
 17 19  1  0
 18 17  2  0
 19 20  1  0
 21 20  1  0
 21 22  1  0
 23 22  1  6
 23 24  1  0
 23 25  1  0
 24 14  1  0
 25 27  1  0
 26 25  2  0
M  END
$$$$
