LPR.pdb
     RDKit          3D

 27 27  0  0  1  0  0  0  0  0999 V2000
    7.2658  -11.7995   27.3570 C   0  0  0  0  0  0  0  0  0  0  0  0
    6.4616  -12.8869   26.6723 C   0  0  1  0  0  0  0  0  0  0  0  0
    5.3128  -12.1553   25.9623 C   0  0  0  0  0  0  0  0  0  0  0  0
    7.2385  -13.5804   25.6020 C   0  0  0  0  0  0  0  0  0  0  0  0
    6.5048  -14.7192   24.9351 C   0  0  2  0  0  0  0  0  0  0  0  0
    6.1926  -15.6695   25.9817 N   0  0  0  0  0  0  0  0  0  0  0  0
    7.2936  -15.3574   23.8535 C   0  0  0  0  0  0  0  0  0  0  0  0
    7.7160  -16.5395   24.1198 O   0  0  0  0  0  0  0  0  0  0  0  0
    7.5850  -14.7457   22.6039 N   0  0  0  0  0  0  0  0  0  0  0  0
    7.2136  -13.4284   22.2158 C   0  0  0  0  0  0  0  0  0  0  0  0
    7.6566  -13.2987   20.7708 C   0  0  0  0  0  0  0  0  0  0  0  0
    7.7899  -14.7489   20.3018 C   0  0  0  0  0  0  0  0  0  0  0  0
    8.3064  -15.3968   21.5548 C   0  0  1  0  0  0  0  0  0  0  0  0
    9.7683  -15.2210   21.7237 C   0  0  0  0  0  0  0  0  0  0  0  0
   10.2142  -14.1203   22.1196 O   0  0  0  0  0  0  0  0  0  0  0  0
   12.9852  -19.5857   28.2447 N   0  0  0  0  0  0  0  0  0  0  0  0
   11.7444  -19.7714   27.5795 C   0  0  0  0  0  0  0  0  0  0  0  0
   11.2363  -20.9758   27.5580 N   0  0  0  0  0  0  0  0  0  0  0  0
   11.0378  -18.7290   26.9456 N   0  0  0  0  0  0  0  0  0  0  0  0
   11.7094  -17.8654   25.9407 C   0  0  0  0  0  0  0  0  0  0  0  0
   11.2258  -18.3245   24.6277 C   0  0  0  0  0  0  0  0  0  0  0  0
   10.6780  -17.3923   23.6515 C   0  0  0  0  0  0  0  0  0  0  0  0
   11.4400  -16.9506   22.4665 C   0  0  2  0  0  0  0  0  0  0  0  0
   10.6803  -16.2697   21.4481 N   0  0  0  0  0  0  0  0  0  0  0  0
   12.3512  -17.9642   21.9134 C   0  0  0  0  0  0  0  0  0  0  0  0
   13.3968  -18.2660   22.5143 O   0  0  0  0  0  0  0  0  0  0  0  0
   12.0413  -18.5795   20.7244 O   0  0  0  0  0  0  0  0  0  0  0  0
  2  3  1  6
  2  1  1  0
  4  2  1  0
  4  5  1  0
  5  7  1  0
  5  6  1  1
  7  8  2  0
  9 13  1  0
  9  7  1  0
 10  9  1  0
 11 10  1  0
 11 12  1  0
 12 13  1  0
 13 14  1  1
 14 15  2  0
 16 17  1  0
 17 19  1  0
 18 17  2  0
 19 20  1  0
 21 20  1  0
 21 22  1  0
 23 22  1  1
 23 24  1  0
 23 25  1  0
 24 14  1  0
 25 27  1  0
 26 25  2  0
M  END
$$$$
