LPR.pdb
     RDKit          3D

 27 27  0  0  1  0  0  0  0  0999 V2000
    7.0417  -11.2919   27.2811 C   0  0  0  0  0  0  0  0  0  0  0  0
    6.1971  -12.2094   26.4192 C   0  0  1  0  0  0  0  0  0  0  0  0
    5.4419  -11.2804   25.4572 C   0  0  0  0  0  0  0  0  0  0  0  0
    7.0268  -13.1095   25.5640 C   0  0  0  0  0  0  0  0  0  0  0  0
    6.2414  -14.1600   24.8159 C   0  0  2  0  0  0  0  0  0  0  0  0
    5.5237  -14.9203   25.8173 N   0  0  0  0  0  0  0  0  0  0  0  0
    7.1011  -15.0428   23.9908 C   0  0  0  0  0  0  0  0  0  0  0  0
    7.2368  -16.2368   24.4408 O   0  0  0  0  0  0  0  0  0  0  0  0
    7.7457  -14.6413   22.7892 N   0  0  0  0  0  0  0  0  0  0  0  0
    7.8208  -13.3113   22.2897 C   0  0  0  0  0  0  0  0  0  0  0  0
    8.5064  -13.4298   20.9418 C   0  0  0  0  0  0  0  0  0  0  0  0
    8.3052  -14.8981   20.5615 C   0  0  0  0  0  0  0  0  0  0  0  0
    8.4155  -15.5493   21.9107 C   0  0  1  0  0  0  0  0  0  0  0  0
    9.8227  -15.7554   22.3282 C   0  0  0  0  0  0  0  0  0  0  0  0
   10.5420  -14.7621   22.5791 O   0  0  0  0  0  0  0  0  0  0  0  0
    9.3571  -20.5412   28.7540 N   0  0  0  0  0  0  0  0  0  0  0  0
    8.4859  -20.3326   27.6522 C   0  0  0  0  0  0  0  0  0  0  0  0
    7.2698  -20.8053   27.7362 N   0  0  0  0  0  0  0  0  0  0  0  0
    8.8640  -19.6458   26.4805 N   0  0  0  0  0  0  0  0  0  0  0  0
   10.2198  -19.0513   26.3595 C   0  0  0  0  0  0  0  0  0  0  0  0
   10.2942  -18.4914   24.9996 C   0  0  0  0  0  0  0  0  0  0  0  0
   11.4990  -17.8315   24.5146 C   0  0  0  0  0  0  0  0  0  0  0  0
   11.6202  -17.3230   23.1338 C   0  0  2  0  0  0  0  0  0  0  0  0
   10.3794  -17.0524   22.4518 N   0  0  0  0  0  0  0  0  0  0  0  0
   12.5815  -18.0554   22.2952 C   0  0  0  0  0  0  0  0  0  0  0  0
   12.2237  -18.5497   21.2122 O   0  0  0  0  0  0  0  0  0  0  0  0
   13.8829  -18.1920   22.7150 O   0  0  0  0  0  0  0  0  0  0  0  0
  2  3  1  6
  2  1  1  0
  4  2  1  0
  4  5  1  0
  5  7  1  0
  5  6  1  1
  7  8  2  0
  9 13  1  0
  9  7  1  0
 10  9  1  0
 11 10  1  0
 11 12  1  0
 12 13  1  0
 13 14  1  1
 14 15  2  0
 16 17  1  0
 17 19  1  0
 18 17  2  0
 19 20  1  0
 21 20  1  0
 21 22  1  0
 23 22  1  1
 23 24  1  0
 23 25  1  0
 24 14  1  0
 25 27  1  0
 26 25  2  0
M  END
$$$$
