LPR.pdb
     RDKit          3D

 27 27  0  0  1  0  0  0  0  0999 V2000
    9.4667  -19.4088   29.0653 C   0  0  0  0  0  0  0  0  0  0  0  0
    8.5542  -18.2073   29.2129 C   0  0  1  0  0  0  0  0  0  0  0  0
    9.2974  -17.2470   30.1533 C   0  0  0  0  0  0  0  0  0  0  0  0
    8.3699  -17.4715   27.9266 C   0  0  0  0  0  0  0  0  0  0  0  0
    6.9436  -17.0716   27.6338 C   0  0  2  0  0  0  0  0  0  0  0  0
    6.1824  -18.3013   27.5683 N   0  0  0  0  0  0  0  0  0  0  0  0
    6.8099  -16.2942   26.3780 C   0  0  0  0  0  0  0  0  0  0  0  0
    6.3669  -16.9615   25.3754 O   0  0  0  0  0  0  0  0  0  0  0  0
    7.1355  -14.9167   26.2476 N   0  0  0  0  0  0  0  0  0  0  0  0
    7.2810  -13.9913   27.3183 C   0  0  0  0  0  0  0  0  0  0  0  0
    7.5172  -12.6479   26.6547 C   0  0  0  0  0  0  0  0  0  0  0  0
    6.9750  -12.8442   25.2375 C   0  0  0  0  0  0  0  0  0  0  0  0
    7.3626  -14.2742   24.9904 C   0  0  1  0  0  0  0  0  0  0  0  0
    8.7761  -14.4143   24.5673 C   0  0  0  0  0  0  0  0  0  0  0  0
    9.6490  -14.6940   25.4200 O   0  0  0  0  0  0  0  0  0  0  0  0
    7.5381  -12.4259   16.7067 N   0  0  0  0  0  0  0  0  0  0  0  0
    7.8870  -13.7937   16.5521 C   0  0  0  0  0  0  0  0  0  0  0  0
    7.7383  -14.3328   15.3703 N   0  0  0  0  0  0  0  0  0  0  0  0
    8.3824  -14.5938   17.6018 N   0  0  0  0  0  0  0  0  0  0  0  0
    8.8357  -13.9734   18.8731 C   0  0  0  0  0  0  0  0  0  0  0  0
    9.2255  -15.0905   19.7499 C   0  0  0  0  0  0  0  0  0  0  0  0
    8.6012  -15.2884   21.0511 C   0  0  0  0  0  0  0  0  0  0  0  0
    9.3819  -15.3339   22.3034 C   0  0  2  0  0  0  0  0  0  0  0  0
    9.1693  -14.2396   23.2173 N   0  0  0  0  0  0  0  0  0  0  0  0
   10.8059  -15.6560   22.1243 C   0  0  0  0  0  0  0  0  0  0  0  0
   11.1495  -16.6215   21.4207 O   0  0  0  0  0  0  0  0  0  0  0  0
   11.7600  -14.8822   22.7403 O   0  0  0  0  0  0  0  0  0  0  0  0
  2  3  1  1
  2  1  1  0
  4  2  1  0
  4  5  1  0
  5  7  1  0
  5  6  1  6
  7  8  2  0
  9 13  1  0
  9  7  1  0
 10  9  1  0
 11 10  1  0
 11 12  1  0
 12 13  1  0
 13 14  1  1
 14 15  2  0
 16 17  1  0
 17 19  1  0
 18 17  2  0
 19 20  1  0
 21 20  1  0
 21 22  1  0
 23 22  1  6
 23 24  1  0
 23 25  1  0
 24 14  1  0
 25 27  1  0
 26 25  2  0
M  END
$$$$
