LPR.pdb
     RDKit          3D

 27 27  0  0  1  0  0  0  0  0999 V2000
    8.1533  -12.0944   27.3226 C   0  0  0  0  0  0  0  0  0  0  0  0
    7.1656  -13.0061   26.6217 C   0  0  1  0  0  0  0  0  0  0  0  0
    6.0600  -12.0785   26.0965 C   0  0  0  0  0  0  0  0  0  0  0  0
    7.7570  -13.6704   25.4222 C   0  0  0  0  0  0  0  0  0  0  0  0
    6.8287  -14.6310   24.7182 C   0  0  2  0  0  0  0  0  0  0  0  0
    6.4799  -15.6450   25.6909 N   0  0  0  0  0  0  0  0  0  0  0  0
    7.4371  -15.2383   23.5097 C   0  0  0  0  0  0  0  0  0  0  0  0
    7.6838  -16.4941   23.6034 O   0  0  0  0  0  0  0  0  0  0  0  0
    7.7418  -14.5246   22.3188 N   0  0  0  0  0  0  0  0  0  0  0  0
    7.6210  -13.1187   22.1376 C   0  0  0  0  0  0  0  0  0  0  0  0
    7.9564  -12.8746   20.6785 C   0  0  0  0  0  0  0  0  0  0  0  0
    7.7445  -14.2417   20.0251 C   0  0  0  0  0  0  0  0  0  0  0  0
    8.2197  -15.1486   21.1242 C   0  0  1  0  0  0  0  0  0  0  0  0
    9.6952  -15.2869   21.1480 C   0  0  0  0  0  0  0  0  0  0  0  0
   10.3898  -14.3830   21.6656 O   0  0  0  0  0  0  0  0  0  0  0  0
   11.9198  -19.8726   25.8906 N   0  0  0  0  0  0  0  0  0  0  0  0
   11.3798  -20.8111   24.9719 C   0  0  0  0  0  0  0  0  0  0  0  0
   11.3544  -22.0691   25.3269 N   0  0  0  0  0  0  0  0  0  0  0  0
   10.8729  -20.4565   23.7050 N   0  0  0  0  0  0  0  0  0  0  0  0
   11.7957  -20.1066   22.5949 C   0  0  0  0  0  0  0  0  0  0  0  0
   11.5702  -18.6778   22.3190 C   0  0  0  0  0  0  0  0  0  0  0  0
   12.1389  -18.0321   21.1435 C   0  0  0  0  0  0  0  0  0  0  0  0
   11.7591  -16.6665   20.7304 C   0  0  2  0  0  0  0  0  0  0  0  0
   10.3451  -16.4195   20.5984 N   0  0  0  0  0  0  0  0  0  0  0  0
   12.5372  -16.1306   19.6029 C   0  0  0  0  0  0  0  0  0  0  0  0
   13.7789  -16.0986   19.6535 O   0  0  0  0  0  0  0  0  0  0  0  0
   11.8838  -15.6634   18.4880 O   0  0  0  0  0  0  0  0  0  0  0  0
  2  3  1  6
  2  1  1  0
  4  2  1  0
  4  5  1  0
  5  7  1  0
  5  6  1  1
  7  8  2  0
  9 13  1  0
  9  7  1  0
 10  9  1  0
 11 10  1  0
 11 12  1  0
 12 13  1  0
 13 14  1  1
 14 15  2  0
 16 17  1  0
 17 19  1  0
 18 17  2  0
 19 20  1  0
 21 20  1  0
 21 22  1  0
 23 22  1  6
 23 24  1  0
 23 25  1  0
 24 14  1  0
 25 27  1  0
 26 25  2  0
M  END
$$$$
