LPR.pdb
     RDKit          3D

 27 27  0  0  1  0  0  0  0  0999 V2000
    7.1777  -12.1175   24.9642 C   0  0  0  0  0  0  0  0  0  0  0  0
    7.3648  -13.2873   25.9100 C   0  0  1  0  0  0  0  0  0  0  0  0
    7.3696  -12.6735   27.3179 C   0  0  0  0  0  0  0  0  0  0  0  0
    6.2137  -14.2379   25.8738 C   0  0  0  0  0  0  0  0  0  0  0  0
    6.0529  -14.9756   24.5661 C   0  0  2  0  0  0  0  0  0  0  0  0
    4.8431  -15.7611   24.6891 N   0  0  0  0  0  0  0  0  0  0  0  0
    7.2169  -15.8361   24.2436 C   0  0  0  0  0  0  0  0  0  0  0  0
    7.2164  -16.9822   24.8207 O   0  0  0  0  0  0  0  0  0  0  0  0
    8.2744  -15.4624   23.3704 N   0  0  0  0  0  0  0  0  0  0  0  0
    8.4800  -14.1670   22.8194 C   0  0  0  0  0  0  0  0  0  0  0  0
    9.6607  -14.3166   21.8789 C   0  0  0  0  0  0  0  0  0  0  0  0
    9.7059  -15.8186   21.5913 C   0  0  0  0  0  0  0  0  0  0  0  0
    9.2889  -16.3670   22.9261 C   0  0  1  0  0  0  0  0  0  0  0  0
   10.4119  -16.4254   23.8917 C   0  0  0  0  0  0  0  0  0  0  0  0
   11.0647  -15.3865   24.1400 O   0  0  0  0  0  0  0  0  0  0  0  0
    8.9549  -21.0976   28.6185 N   0  0  0  0  0  0  0  0  0  0  0  0
    8.2244  -19.9587   28.1875 C   0  0  0  0  0  0  0  0  0  0  0  0
    6.9237  -20.0620   28.1042 N   0  0  0  0  0  0  0  0  0  0  0  0
    8.8274  -18.7305   27.8476 N   0  0  0  0  0  0  0  0  0  0  0  0
   10.2960  -18.5501   27.9784 C   0  0  0  0  0  0  0  0  0  0  0  0
   10.9001  -19.3952   26.9346 C   0  0  0  0  0  0  0  0  0  0  0  0
   12.0668  -18.9549   26.1816 C   0  0  0  0  0  0  0  0  0  0  0  0
   12.0174  -17.8179   25.2410 C   0  0  2  0  0  0  0  0  0  0  0  0
   10.7690  -17.6308   24.5452 N   0  0  0  0  0  0  0  0  0  0  0  0
   13.1849  -17.7087   24.3528 C   0  0  0  0  0  0  0  0  0  0  0  0
   13.1665  -18.2253   23.2223 O   0  0  0  0  0  0  0  0  0  0  0  0
   14.3014  -17.0303   24.7789 O   0  0  0  0  0  0  0  0  0  0  0  0
  2  3  1  1
  2  1  1  0
  4  2  1  0
  4  5  1  0
  5  7  1  0
  5  6  1  1
  7  8  2  0
  9 13  1  0
  9  7  1  0
 10  9  1  0
 11 10  1  0
 11 12  1  0
 12 13  1  0
 13 14  1  1
 14 15  2  0
 16 17  1  0
 17 19  1  0
 18 17  2  0
 19 20  1  0
 21 20  1  0
 21 22  1  0
 23 22  1  6
 23 24  1  0
 23 25  1  0
 24 14  1  0
 25 27  1  0
 26 25  2  0
M  END
$$$$
