LPR.pdb
     RDKit          3D

 27 27  0  0  1  0  0  0  0  0999 V2000
    7.8354  -12.1113   27.6376 C   0  0  0  0  0  0  0  0  0  0  0  0
    6.8565  -12.9851   26.8786 C   0  0  1  0  0  0  0  0  0  0  0  0
    5.9174  -12.0082   26.1556 C   0  0  0  0  0  0  0  0  0  0  0  0
    7.5219  -13.7903   25.8114 C   0  0  0  0  0  0  0  0  0  0  0  0
    6.5972  -14.7174   25.0594 C   0  0  2  0  0  0  0  0  0  0  0  0
    6.0135  -15.5989   26.0485 N   0  0  0  0  0  0  0  0  0  0  0  0
    7.2919  -15.4895   24.0009 C   0  0  0  0  0  0  0  0  0  0  0  0
    7.4513  -16.7361   24.2595 O   0  0  0  0  0  0  0  0  0  0  0  0
    7.7627  -14.9344   22.7799 N   0  0  0  0  0  0  0  0  0  0  0  0
    7.5715  -13.5925   22.3476 C   0  0  0  0  0  0  0  0  0  0  0  0
    8.1596  -13.5362   20.9505 C   0  0  0  0  0  0  0  0  0  0  0  0
    8.1816  -15.0006   20.5080 C   0  0  0  0  0  0  0  0  0  0  0  0
    8.5063  -15.6765   21.8096 C   0  0  1  0  0  0  0  0  0  0  0  0
    9.9563  -15.6521   22.1158 C   0  0  0  0  0  0  0  0  0  0  0  0
   10.4540  -14.6391   22.6574 O   0  0  0  0  0  0  0  0  0  0  0  0
   10.5312  -20.9660   27.2819 N   0  0  0  0  0  0  0  0  0  0  0  0
   10.3983  -19.6024   27.6554 C   0  0  0  0  0  0  0  0  0  0  0  0
    9.5692  -19.3116   28.6235 N   0  0  0  0  0  0  0  0  0  0  0  0
   11.1110  -18.5539   27.0387 N   0  0  0  0  0  0  0  0  0  0  0  0
   12.0084  -18.8276   25.8872 C   0  0  0  0  0  0  0  0  0  0  0  0
   11.4289  -18.1027   24.7438 C   0  0  0  0  0  0  0  0  0  0  0  0
   12.0316  -18.1670   23.4192 C   0  0  0  0  0  0  0  0  0  0  0  0
   12.0390  -17.0137   22.4974 C   0  0  2  0  0  0  0  0  0  0  0  0
   10.7994  -16.7491   21.8109 N   0  0  0  0  0  0  0  0  0  0  0  0
   13.2069  -16.9521   21.6053 C   0  0  0  0  0  0  0  0  0  0  0  0
   14.3331  -16.6862   22.0596 O   0  0  0  0  0  0  0  0  0  0  0  0
   13.0483  -17.1909   20.2613 O   0  0  0  0  0  0  0  0  0  0  0  0
  2  3  1  6
  2  1  1  0
  4  2  1  0
  4  5  1  0
  5  7  1  0
  5  6  1  1
  7  8  2  0
  9 13  1  0
  9  7  1  0
 10  9  1  0
 11 10  1  0
 11 12  1  0
 12 13  1  0
 13 14  1  1
 14 15  2  0
 16 17  1  0
 17 19  1  0
 18 17  2  0
 19 20  1  0
 21 20  1  0
 21 22  1  0
 23 22  1  6
 23 24  1  0
 23 25  1  0
 24 14  1  0
 25 27  1  0
 26 25  2  0
M  END
$$$$
