YYG.pdb
     RDKit          3D

 29 30  0  0  1  0  0  0  0  0999 V2000
   22.4859    1.5906  -11.0269 O   0  0  0  0  0  0  0  0  0  0  0  0
   23.3218    1.3784   -9.9192 C   0  0  0  0  0  0  0  0  0  0  0  0
   24.5613    0.8147  -10.0385 C   0  0  0  0  0  0  0  0  0  0  0  0
   25.3482    0.6231   -8.9335 C   0  0  0  0  0  0  0  0  0  0  0  0
   24.8976    0.9963   -7.6935 C   0  0  0  0  0  0  0  0  0  0  0  0
   25.7053    0.7939   -6.4917 C   0  0  0  0  0  0  0  0  0  0  0  0
   26.8035    1.7755   -6.2958 C   0  0  2  0  0  0  0  0  0  0  0  0
   27.7562    1.7883   -7.3825 N   0  0  0  0  0  0  0  0  0  0  0  0
   27.4397    1.6782   -4.9661 C   0  0  0  0  0  0  0  0  0  0  0  0
   28.5333    1.1125   -4.7586 O   0  0  0  0  0  0  0  0  0  0  0  0
   23.6489    1.5629   -7.5858 C   0  0  0  0  0  0  0  0  0  0  0  0
   22.8546    1.7602   -8.6740 C   0  0  0  0  0  0  0  0  0  0  0  0
   33.5963    1.3824   -2.5387 O   0  0  0  0  0  0  0  0  0  0  0  0
   32.2876    1.8646   -2.4814 C   0  0  0  0  0  0  0  0  0  0  0  0
   31.8379    2.6061   -3.5431 C   0  0  0  0  0  0  0  0  0  0  0  0
   30.5515    3.0989   -3.5239 C   0  0  0  0  0  0  0  0  0  0  0  0
   29.7281    2.8404   -2.4343 C   0  0  0  0  0  0  0  0  0  0  0  0
   28.3620    3.3663   -2.4589 C   0  0  0  0  0  0  0  0  0  0  0  0
   27.2775    2.3288   -2.5237 C   0  0  2  0  0  0  0  0  0  0  0  0
   26.7648    2.2591   -3.8566 N   0  0  0  0  0  0  0  0  0  0  0  0
   26.2398    2.7524   -1.5343 C   0  0  0  0  0  0  0  0  0  0  0  0
   25.7723    3.9080   -1.7042 O   0  0  0  0  0  0  0  0  0  0  0  0
   30.1827    2.0913   -1.3608 C   0  0  0  0  0  0  0  0  0  0  0  0
   31.4824    1.5948   -1.3830 C   0  0  0  0  0  0  0  0  0  0  0  0
   25.7807    1.9652   -0.4748 N   0  0  0  0  0  0  0  0  0  0  0  0
   24.8313    2.5019    0.4787 C   0  0  0  0  0  0  0  0  0  0  0  0
   24.5987    1.4924    1.5668 C   0  0  0  0  0  0  0  0  0  0  0  0
   23.7563    1.7390    2.6251 O   0  0  0  0  0  0  0  0  0  0  0  0
   25.1808    0.3889    1.5247 O   0  0  0  0  0  0  0  0  0  0  0  0
  2  3  2  0
  2  1  1  0
  4  3  1  0
  5  4  2  0
  6  5  1  0
  7  6  1  0
  7  8  1  6
  9  7  1  0
  9 10  2  0
 11  5  1  0
 11 12  2  0
 12  2  1  0
 13 14  1  0
 14 15  2  0
 15 16  1  0
 17 16  2  0
 17 18  1  0
 19 18  1  6
 19 20  1  0
 20  9  1  0
 21 25  1  0
 21 19  1  0
 22 21  2  0
 23 17  1  0
 24 23  2  0
 24 14  1  0
 26 25  1  0
 27 26  1  0
 28 27  1  0
 29 27  2  0
M  END
$$$$
