YYG.pdb
     RDKit          3D

 29 30  0  0  1  0  0  0  0  0999 V2000
   39.6438  -10.8508   -5.4575 O   0  0  0  0  0  0  0  0  0  0  0  0
   39.3411  -10.2360   -6.6827 C   0  0  0  0  0  0  0  0  0  0  0  0
   38.0548  -10.0326   -7.0983 C   0  0  0  0  0  0  0  0  0  0  0  0
   37.7992   -9.4294   -8.3015 C   0  0  0  0  0  0  0  0  0  0  0  0
   38.8351   -9.0230   -9.1026 C   0  0  0  0  0  0  0  0  0  0  0  0
   38.5983   -8.3886  -10.3985 C   0  0  0  0  0  0  0  0  0  0  0  0
   38.1291   -6.9802  -10.3361 C   0  0  2  0  0  0  0  0  0  0  0  0
   38.0184   -6.3590  -11.6364 N   0  0  0  0  0  0  0  0  0  0  0  0
   38.8785   -6.1604   -9.3622 C   0  0  0  0  0  0  0  0  0  0  0  0
   39.9141   -5.5217   -9.6426 O   0  0  0  0  0  0  0  0  0  0  0  0
   40.1251   -9.2326   -8.6739 C   0  0  0  0  0  0  0  0  0  0  0  0
   40.3961   -9.8305   -7.4810 C   0  0  0  0  0  0  0  0  0  0  0  0
   36.7989    0.5778   -7.9353 O   0  0  0  0  0  0  0  0  0  0  0  0
   37.0963   -0.7058   -7.4745 C   0  0  0  0  0  0  0  0  0  0  0  0
   36.4102   -1.7542   -8.0306 C   0  0  0  0  0  0  0  0  0  0  0  0
   36.6762   -3.0363   -7.6026 C   0  0  0  0  0  0  0  0  0  0  0  0
   37.6323   -3.2520   -6.6169 C   0  0  0  0  0  0  0  0  0  0  0  0
   37.8992   -4.6301   -6.2013 C   0  0  0  0  0  0  0  0  0  0  0  0
   38.9814   -5.3327   -6.9707 C   0  0  2  0  0  0  0  0  0  0  0  0
   38.3945   -6.0985   -8.0259 N   0  0  0  0  0  0  0  0  0  0  0  0
   39.7057   -6.1868   -5.9802 C   0  0  0  0  0  0  0  0  0  0  0  0
   39.0322   -7.1259   -5.4832 O   0  0  0  0  0  0  0  0  0  0  0  0
   38.3256   -2.1924   -6.0542 C   0  0  0  0  0  0  0  0  0  0  0  0
   38.0548   -0.8984   -6.4886 C   0  0  0  0  0  0  0  0  0  0  0  0
   41.0362   -6.0045   -5.5934 N   0  0  0  0  0  0  0  0  0  0  0  0
   41.6432   -6.8877   -4.6187 C   0  0  0  0  0  0  0  0  0  0  0  0
   42.3536   -8.0012   -5.3348 C   0  0  0  0  0  0  0  0  0  0  0  0
   42.8943   -9.0734   -4.6653 O   0  0  0  0  0  0  0  0  0  0  0  0
   42.4658   -7.9680   -6.5776 O   0  0  0  0  0  0  0  0  0  0  0  0
  2  3  2  0
  2  1  1  0
  4  3  1  0
  5  4  2  0
  6  5  1  0
  7  6  1  0
  7  8  1  6
  9  7  1  0
  9 10  2  0
 11  5  1  0
 11 12  2  0
 12  2  1  0
 13 14  1  0
 14 15  2  0
 15 16  1  0
 17 16  2  0
 17 18  1  0
 19 18  1  1
 19 20  1  0
 20  9  1  0
 21 25  1  0
 21 19  1  0
 22 21  2  0
 23 17  1  0
 24 23  2  0
 24 14  1  0
 26 25  1  0
 27 26  1  0
 28 27  1  0
 29 27  2  0
M  END
$$$$
