YYG.pdb
     RDKit          3D

 29 30  0  0  1  0  0  0  0  0999 V2000
   24.2094  -31.2760  -10.3331 O   0  0  0  0  0  0  0  0  0  0  0  0
   24.8516  -32.0819   -9.3798 C   0  0  0  0  0  0  0  0  0  0  0  0
   24.2700  -33.2067   -8.8650 C   0  0  0  0  0  0  0  0  0  0  0  0
   24.9283  -33.9677   -7.9353 C   0  0  0  0  0  0  0  0  0  0  0  0
   26.1810  -33.6063   -7.5111 C   0  0  0  0  0  0  0  0  0  0  0  0
   26.9063  -34.3876   -6.5105 C   0  0  0  0  0  0  0  0  0  0  0  0
   28.1032  -35.1078   -7.0170 C   0  0  2  0  0  0  0  0  0  0  0  0
   27.8150  -35.9722   -8.1389 N   0  0  0  0  0  0  0  0  0  0  0  0
   28.8733  -35.7782   -5.9495 C   0  0  0  0  0  0  0  0  0  0  0  0
   28.9689  -37.0179   -5.8353 O   0  0  0  0  0  0  0  0  0  0  0  0
   26.7564  -32.4727   -8.0363 C   0  0  0  0  0  0  0  0  0  0  0  0
   26.1156  -31.7057   -8.9609 C   0  0  0  0  0  0  0  0  0  0  0  0
   35.0611  -37.8186   -7.5943 O   0  0  0  0  0  0  0  0  0  0  0  0
   34.2219  -37.0794   -6.7590 C   0  0  0  0  0  0  0  0  0  0  0  0
   34.2907  -37.3255   -5.4122 C   0  0  0  0  0  0  0  0  0  0  0  0
   33.4785  -36.6156   -4.5552 C   0  0  0  0  0  0  0  0  0  0  0  0
   32.6030  -35.6626   -5.0626 C   0  0  0  0  0  0  0  0  0  0  0  0
   31.7691  -34.9166   -4.1185 C   0  0  0  0  0  0  0  0  0  0  0  0
   30.3754  -35.4473   -3.9372 C   0  0  2  0  0  0  0  0  0  0  0  0
   29.5412  -34.9639   -4.9931 N   0  0  0  0  0  0  0  0  0  0  0  0
   29.9246  -34.9756   -2.5921 C   0  0  0  0  0  0  0  0  0  0  0  0
   29.5178  -33.7861   -2.5460 O   0  0  0  0  0  0  0  0  0  0  0  0
   32.5329  -35.4141   -6.4240 C   0  0  0  0  0  0  0  0  0  0  0  0
   33.3545  -36.1327   -7.2872 C   0  0  0  0  0  0  0  0  0  0  0  0
   29.9311  -35.7541   -1.4315 N   0  0  0  0  0  0  0  0  0  0  0  0
   29.6118  -35.1601   -0.1493 C   0  0  0  0  0  0  0  0  0  0  0  0
   28.1317  -35.2608    0.0877 C   0  0  0  0  0  0  0  0  0  0  0  0
   27.2806  -35.8256   -0.8326 O   0  0  0  0  0  0  0  0  0  0  0  0
   27.6417  -34.8227    1.1489 O   0  0  0  0  0  0  0  0  0  0  0  0
  2  3  2  0
  2  1  1  0
  4  3  1  0
  5  4  2  0
  6  5  1  0
  7  6  1  0
  7  8  1  6
  9  7  1  0
  9 10  2  0
 11  5  1  0
 11 12  2  0
 12  2  1  0
 13 14  1  0
 14 15  2  0
 15 16  1  0
 17 16  2  0
 17 18  1  0
 19 18  1  6
 19 20  1  0
 20  9  1  0
 21 25  1  0
 21 19  1  0
 22 21  2  0
 23 17  1  0
 24 23  2  0
 24 14  1  0
 26 25  1  0
 27 26  1  0
 28 27  1  0
 29 27  2  0
M  END
$$$$
