YYG.pdb
     RDKit          3D

 29 30  0  0  1  0  0  0  0  0999 V2000
   30.2912  -17.3769  -18.3980 O   0  0  0  0  0  0  0  0  0  0  0  0
   29.1139  -17.3744  -17.6334 C   0  0  0  0  0  0  0  0  0  0  0  0
   28.7037  -18.4676  -16.9226 C   0  0  0  0  0  0  0  0  0  0  0  0
   27.5479  -18.4270  -16.1882 C   0  0  0  0  0  0  0  0  0  0  0  0
   26.7894  -17.2852  -16.1597 C   0  0  0  0  0  0  0  0  0  0  0  0
   25.5437  -17.2115  -15.3977 C   0  0  0  0  0  0  0  0  0  0  0  0
   24.4328  -18.0486  -15.9204 C   0  0  2  0  0  0  0  0  0  0  0  0
   24.1125  -17.7710  -17.3021 N   0  0  0  0  0  0  0  0  0  0  0  0
   23.2473  -18.0572  -15.0392 C   0  0  0  0  0  0  0  0  0  0  0  0
   22.4931  -17.0750  -14.8793 O   0  0  0  0  0  0  0  0  0  0  0  0
   27.2122  -16.1913  -16.8784 C   0  0  0  0  0  0  0  0  0  0  0  0
   28.3583  -16.2154  -17.6131 C   0  0  0  0  0  0  0  0  0  0  0  0
   18.5663  -16.8179  -18.3982 O   0  0  0  0  0  0  0  0  0  0  0  0
   19.1315  -17.6470  -17.4278 C   0  0  0  0  0  0  0  0  0  0  0  0
   18.5754  -17.6276  -16.1750 C   0  0  0  0  0  0  0  0  0  0  0  0
   19.1049  -18.4325  -15.1903 C   0  0  0  0  0  0  0  0  0  0  0  0
   20.1913  -19.2512  -15.4761 C   0  0  0  0  0  0  0  0  0  0  0  0
   20.7143  -20.1050  -14.4082 C   0  0  0  0  0  0  0  0  0  0  0  0
   21.7734  -19.4773  -13.5472 C   0  0  2  0  0  0  0  0  0  0  0  0
   22.9499  -19.2528  -14.3280 N   0  0  0  0  0  0  0  0  0  0  0  0
   22.0095  -20.4307  -12.4201 C   0  0  0  0  0  0  0  0  0  0  0  0
   22.4222  -21.5708  -12.7555 O   0  0  0  0  0  0  0  0  0  0  0  0
   20.7538  -19.2705  -16.7423 C   0  0  0  0  0  0  0  0  0  0  0  0
   20.2169  -18.4565  -17.7349 C   0  0  0  0  0  0  0  0  0  0  0  0
   21.8043  -20.1346  -11.0699 N   0  0  0  0  0  0  0  0  0  0  0  0
   20.4662  -19.9011  -10.5663 C   0  0  0  0  0  0  0  0  0  0  0  0
   19.7415  -21.2129  -10.4607 C   0  0  0  0  0  0  0  0  0  0  0  0
   19.0376  -21.5709   -9.3352 O   0  0  0  0  0  0  0  0  0  0  0  0
   19.7688  -22.0159  -11.4161 O   0  0  0  0  0  0  0  0  0  0  0  0
  2  3  2  0
  2  1  1  0
  4  3  1  0
  5  4  2  0
  6  5  1  0
  7  6  1  0
  7  8  1  6
  9  7  1  0
  9 10  2  0
 11  5  1  0
 11 12  2  0
 12  2  1  0
 13 14  1  0
 14 15  2  0
 15 16  1  0
 17 16  2  0
 17 18  1  0
 19 18  1  6
 19 20  1  0
 20  9  1  0
 21 25  1  0
 21 19  1  0
 22 21  2  0
 23 17  1  0
 24 23  2  0
 24 14  1  0
 26 25  1  0
 27 26  1  0
 28 27  1  0
 29 27  2  0
M  END
$$$$
