YYG.pdb
     RDKit          3D

 29 30  0  0  1  0  0  0  0  0999 V2000
   29.4580  -13.1154  -17.4048 O   0  0  0  0  0  0  0  0  0  0  0  0
   28.2862  -12.4434  -17.0226 C   0  0  0  0  0  0  0  0  0  0  0  0
   27.3307  -12.0718  -17.9269 C   0  0  0  0  0  0  0  0  0  0  0  0
   26.2001  -11.4166  -17.5155 C   0  0  0  0  0  0  0  0  0  0  0  0
   26.0163  -11.1265  -16.1881 C   0  0  0  0  0  0  0  0  0  0  0  0
   24.8283  -10.4166  -15.7163 C   0  0  0  0  0  0  0  0  0  0  0  0
   24.6768   -9.0294  -16.2269 C   0  0  2  0  0  0  0  0  0  0  0  0
   25.8077   -8.1833  -15.9203 N   0  0  0  0  0  0  0  0  0  0  0  0
   23.3799   -8.4177  -15.8717 C   0  0  0  0  0  0  0  0  0  0  0  0
   23.1306   -7.9159  -14.7558 O   0  0  0  0  0  0  0  0  0  0  0  0
   26.9841  -11.5055  -15.2873 C   0  0  0  0  0  0  0  0  0  0  0  0
   28.1132  -12.1573  -15.6799 C   0  0  0  0  0  0  0  0  0  0  0  0
   22.5638   -1.7547  -15.4036 O   0  0  0  0  0  0  0  0  0  0  0  0
   22.1882   -2.9808  -15.9549 C   0  0  0  0  0  0  0  0  0  0  0  0
   20.8821   -3.3696  -15.8060 C   0  0  0  0  0  0  0  0  0  0  0  0
   20.4728   -4.5732  -16.3369 C   0  0  0  0  0  0  0  0  0  0  0  0
   21.3834   -5.3758  -17.0142 C   0  0  0  0  0  0  0  0  0  0  0  0
   20.9061   -6.6391  -17.5794 C   0  0  0  0  0  0  0  0  0  0  0  0
   21.0525   -7.8368  -16.6844 C   0  0  2  0  0  0  0  0  0  0  0  0
   22.3538   -8.4035  -16.8569 N   0  0  0  0  0  0  0  0  0  0  0  0
   19.9619   -8.7816  -17.0756 C   0  0  0  0  0  0  0  0  0  0  0  0
   20.1103   -9.3446  -18.1908 O   0  0  0  0  0  0  0  0  0  0  0  0
   22.7038   -4.9831  -17.1644 C   0  0  0  0  0  0  0  0  0  0  0  0
   23.1143   -3.7669  -16.6270 C   0  0  0  0  0  0  0  0  0  0  0  0
   18.8334   -9.0608  -16.3001 N   0  0  0  0  0  0  0  0  0  0  0  0
   17.8634  -10.0408  -16.7444 C   0  0  0  0  0  0  0  0  0  0  0  0
   16.7931  -10.1862  -15.7002 C   0  0  0  0  0  0  0  0  0  0  0  0
   15.7401  -11.0577  -15.8489 O   0  0  0  0  0  0  0  0  0  0  0  0
   16.8456   -9.5015  -14.6578 O   0  0  0  0  0  0  0  0  0  0  0  0
  2  3  2  0
  2  1  1  0
  4  3  1  0
  5  4  2  0
  6  5  1  0
  7  6  1  0
  7  8  1  1
  9  7  1  0
  9 10  2  0
 11  5  1  0
 11 12  2  0
 12  2  1  0
 13 14  1  0
 14 15  2  0
 15 16  1  0
 17 16  2  0
 17 18  1  0
 19 18  1  6
 19 20  1  0
 20  9  1  0
 21 25  1  0
 21 19  1  0
 22 21  2  0
 23 17  1  0
 24 23  2  0
 24 14  1  0
 26 25  1  0
 27 26  1  0
 28 27  1  0
 29 27  2  0
M  END
$$$$
