YYG.pdb
     RDKit          3D

 29 30  0  0  1  0  0  0  0  0999 V2000
   19.8492  -25.6218  -20.9388 O   0  0  0  0  0  0  0  0  0  0  0  0
   19.8558  -25.8397  -19.5520 C   0  0  0  0  0  0  0  0  0  0  0  0
   19.1011  -25.0912  -18.6926 C   0  0  0  0  0  0  0  0  0  0  0  0
   19.1347  -25.3336  -17.3447 C   0  0  0  0  0  0  0  0  0  0  0  0
   19.9287  -26.3329  -16.8438 C   0  0  0  0  0  0  0  0  0  0  0  0
   19.9989  -26.6097  -15.4098 C   0  0  0  0  0  0  0  0  0  0  0  0
   20.7768  -25.6254  -14.6136 C   0  0  2  0  0  0  0  0  0  0  0  0
   22.1339  -25.4596  -15.0821 N   0  0  0  0  0  0  0  0  0  0  0  0
   20.6888  -25.8565  -13.1572 C   0  0  0  0  0  0  0  0  0  0  0  0
   21.6132  -26.3439  -12.4738 O   0  0  0  0  0  0  0  0  0  0  0  0
   20.6834  -27.0798  -17.7180 C   0  0  0  0  0  0  0  0  0  0  0  0
   20.6613  -26.8517  -19.0602 C   0  0  0  0  0  0  0  0  0  0  0  0
   17.0714  -24.3092   -5.2039 O   0  0  0  0  0  0  0  0  0  0  0  0
   17.4629  -24.3309   -6.5435 C   0  0  0  0  0  0  0  0  0  0  0  0
   16.4858  -24.5173   -7.4869 C   0  0  0  0  0  0  0  0  0  0  0  0
   16.8327  -24.5440   -8.8198 C   0  0  0  0  0  0  0  0  0  0  0  0
   18.1622  -24.3825   -9.1919 C   0  0  0  0  0  0  0  0  0  0  0  0
   18.4884  -24.3992  -10.6190 C   0  0  0  0  0  0  0  0  0  0  0  0
   19.2505  -25.6061  -11.0875 C   0  0  2  0  0  0  0  0  0  0  0  0
   19.4787  -25.5076  -12.4955 N   0  0  0  0  0  0  0  0  0  0  0  0
   18.4126  -26.7905  -10.7265 C   0  0  0  0  0  0  0  0  0  0  0  0
   17.3215  -26.8881  -11.3451 O   0  0  0  0  0  0  0  0  0  0  0  0
   19.1500  -24.1946   -8.2385 C   0  0  0  0  0  0  0  0  0  0  0  0
   18.7967  -24.1680   -6.8929 C   0  0  0  0  0  0  0  0  0  0  0  0
   18.7630  -27.7548   -9.7777 N   0  0  0  0  0  0  0  0  0  0  0  0
   17.9335  -28.9265   -9.5833 C   0  0  0  0  0  0  0  0  0  0  0  0
   16.8210  -28.5924   -8.6304 C   0  0  0  0  0  0  0  0  0  0  0  0
   15.8926  -29.5260   -8.2342 O   0  0  0  0  0  0  0  0  0  0  0  0
   16.7213  -27.4350   -8.1738 O   0  0  0  0  0  0  0  0  0  0  0  0
  2  3  2  0
  2  1  1  0
  4  3  1  0
  5  4  2  0
  6  5  1  0
  7  6  1  0
  7  8  1  6
  9  7  1  0
  9 10  2  0
 11  5  1  0
 11 12  2  0
 12  2  1  0
 13 14  1  0
 14 15  2  0
 15 16  1  0
 17 16  2  0
 17 18  1  0
 19 18  1  6
 19 20  1  0
 20  9  1  0
 21 25  1  0
 21 19  1  0
 22 21  2  0
 23 17  1  0
 24 23  2  0
 24 14  1  0
 26 25  1  0
 27 26  1  0
 28 27  1  0
 29 27  2  0
M  END
$$$$
