DQG.pdb
     RDKit          3D

 22 21  0  0  1  0  0  0  0  0999 V2000
    7.5476  -18.2713   18.3656 N   0  0  0  0  0  0  0  0  0  0  0  0
    7.4380  -18.9914   19.5897 C   0  0  1  0  0  0  0  0  0  0  0  0
    8.8291  -19.2565   20.1559 C   0  0  0  0  0  0  0  0  0  0  0  0
    9.6097  -20.0072   19.1544 C   0  0  0  0  0  0  0  0  0  0  0  0
    9.1472  -21.0368   18.6144 O   0  0  0  0  0  0  0  0  0  0  0  0
    6.7288  -18.1314   20.5997 C   0  0  0  0  0  0  0  0  0  0  0  0
    6.8953  -16.8932   20.5236 O   0  0  0  0  0  0  0  0  0  0  0  0
   10.8704  -19.5645   18.8131 O   0  0  0  0  0  0  0  0  0  0  0  0
    2.6460  -20.6166   21.2345 N   0  0  0  0  0  0  0  0  0  0  0  0
    2.3738  -19.3507   20.6999 C   0  0  0  0  0  0  0  0  0  0  0  0
    1.6618  -19.1973   19.7029 O   0  0  0  0  0  0  0  0  0  0  0  0
    2.9545  -18.1144   21.3453 C   0  0  0  0  0  0  0  0  0  0  0  0
    3.7246  -18.5150   22.5751 C   0  0  0  0  0  0  0  0  0  0  0  0
    5.1386  -18.0111   22.5096 C   0  0  2  0  0  0  0  0  0  0  0  0
    5.9256  -18.7810   21.5638 N   0  0  0  0  0  0  0  0  0  0  0  0
    5.7812  -17.8895   23.8107 C   0  0  0  0  0  0  0  0  0  0  0  0
    5.1850  -17.3727   24.7838 O   0  0  0  0  0  0  0  0  0  0  0  0
    7.1349  -18.3613   24.0300 N   0  0  0  0  0  0  0  0  0  0  0  0
    7.6941  -18.2403   25.3578 C   0  0  0  0  0  0  0  0  0  0  0  0
    8.1239  -19.5468   25.8921 C   0  0  0  0  0  0  0  0  0  0  0  0
    8.7089  -19.6632   27.1433 O   0  0  0  0  0  0  0  0  0  0  0  0
    7.9726  -20.6051   25.2255 O   0  0  0  0  0  0  0  0  0  0  0  0
  2  1  1  6
  3  2  1  0
  4  3  1  0
  4  8  1  0
  5  4  2  0
  6 15  1  0
  6  2  1  0
  7  6  2  0
  9 10  1  0
 10 12  1  0
 11 10  2  0
 12 13  1  0
 14 13  1  1
 14 16  1  0
 14 15  1  0
 16 18  1  0
 17 16  2  0
 18 19  1  0
 20 19  1  0
 20 21  1  0
 22 20  2  0
M  END
$$$$
