DQG.pdb
     RDKit          3D

 22 21  0  0  1  0  0  0  0  0999 V2000
   10.0420  -18.1145   17.2352 N   0  0  0  0  0  0  0  0  0  0  0  0
   11.3843  -17.8609   17.6386 C   0  0  1  0  0  0  0  0  0  0  0  0
   12.1811  -17.3157   16.4579 C   0  0  0  0  0  0  0  0  0  0  0  0
   12.1179  -18.2937   15.3556 C   0  0  0  0  0  0  0  0  0  0  0  0
   12.5598  -19.4558   15.4969 O   0  0  0  0  0  0  0  0  0  0  0  0
   11.3837  -16.7779   18.6826 C   0  0  0  0  0  0  0  0  0  0  0  0
   12.4900  -16.2998   19.0206 O   0  0  0  0  0  0  0  0  0  0  0  0
   11.5641  -17.9155   14.1505 O   0  0  0  0  0  0  0  0  0  0  0  0
    6.4474  -13.2809   19.7111 N   0  0  0  0  0  0  0  0  0  0  0  0
    7.3108  -13.3363   18.6094 C   0  0  0  0  0  0  0  0  0  0  0  0
    7.0177  -12.8370   17.5187 O   0  0  0  0  0  0  0  0  0  0  0  0
    8.6523  -14.0202   18.7312 C   0  0  0  0  0  0  0  0  0  0  0  0
    8.8102  -14.5514   20.1307 C   0  0  0  0  0  0  0  0  0  0  0  0
   10.0625  -15.3723   20.2541 C   0  0  2  0  0  0  0  0  0  0  0  0
   10.1353  -16.3769   19.2091 N   0  0  0  0  0  0  0  0  0  0  0  0
   10.2752  -15.9257   21.5842 C   0  0  0  0  0  0  0  0  0  0  0  0
    9.8364  -17.0573   21.8945 O   0  0  0  0  0  0  0  0  0  0  0  0
   11.0022  -15.1889   22.5999 N   0  0  0  0  0  0  0  0  0  0  0  0
   11.0907  -15.7588   23.9257 C   0  0  0  0  0  0  0  0  0  0  0  0
   12.3567  -16.4902   24.1241 C   0  0  0  0  0  0  0  0  0  0  0  0
   12.7598  -16.9178   25.3794 O   0  0  0  0  0  0  0  0  0  0  0  0
   13.1170  -16.7515   23.1541 O   0  0  0  0  0  0  0  0  0  0  0  0
  2  1  1  6
  3  2  1  0
  4  3  1  0
  4  8  1  0
  5  4  2  0
  6 15  1  0
  6  2  1  0
  7  6  2  0
  9 10  1  0
 10 12  1  0
 11 10  2  0
 12 13  1  0
 14 13  1  1
 14 16  1  0
 14 15  1  0
 16 18  1  0
 17 16  2  0
 18 19  1  0
 20 19  1  0
 20 21  1  0
 22 20  2  0
M  END
$$$$
