DQG.pdb
     RDKit          3D

 22 21  0  0  1  0  0  0  0  0999 V2000
    7.6060  -12.9304   18.8346 N   0  0  0  0  0  0  0  0  0  0  0  0
    7.5872  -14.1593   19.5546 C   0  0  1  0  0  0  0  0  0  0  0  0
    8.3733  -15.2167   18.7863 C   0  0  0  0  0  0  0  0  0  0  0  0
    7.4823  -15.8291   17.7829 C   0  0  0  0  0  0  0  0  0  0  0  0
    6.4802  -15.2174   17.3499 O   0  0  0  0  0  0  0  0  0  0  0  0
    8.3042  -13.9691   20.8632 C   0  0  0  0  0  0  0  0  0  0  0  0
    9.4089  -13.3813   20.8372 O   0  0  0  0  0  0  0  0  0  0  0  0
    7.7610  -17.0977   17.3195 O   0  0  0  0  0  0  0  0  0  0  0  0
    5.5281  -13.1137   26.3080 N   0  0  0  0  0  0  0  0  0  0  0  0
    6.8854  -12.9378   26.6067 C   0  0  0  0  0  0  0  0  0  0  0  0
    7.2652  -12.4408   27.6713 O   0  0  0  0  0  0  0  0  0  0  0  0
    7.9415  -13.3636   25.6140 C   0  0  0  0  0  0  0  0  0  0  0  0
    7.2733  -13.7837   24.3322 C   0  0  0  0  0  0  0  0  0  0  0  0
    8.2863  -14.2668   23.3334 C   0  0  2  0  0  0  0  0  0  0  0  0
    7.6815  -14.4678   22.0293 N   0  0  0  0  0  0  0  0  0  0  0  0
    9.0530  -15.4204   23.7832 C   0  0  0  0  0  0  0  0  0  0  0  0
    8.4903  -16.5016   24.0721 O   0  0  0  0  0  0  0  0  0  0  0  0
   10.4961  -15.3618   23.9142 N   0  0  0  0  0  0  0  0  0  0  0  0
   11.1848  -16.5304   24.4147 C   0  0  0  0  0  0  0  0  0  0  0  0
   12.6234  -16.2729   24.6182 C   0  0  0  0  0  0  0  0  0  0  0  0
   13.4644  -17.2341   25.1566 O   0  0  0  0  0  0  0  0  0  0  0  0
   13.1374  -15.1654   24.3077 O   0  0  0  0  0  0  0  0  0  0  0  0
  2  1  1  6
  3  2  1  0
  4  3  1  0
  4  8  1  0
  5  4  2  0
  6 15  1  0
  6  2  1  0
  7  6  2  0
  9 10  1  0
 10 12  1  0
 11 10  2  0
 12 13  1  0
 14 13  1  1
 14 16  1  0
 14 15  1  0
 16 18  1  0
 17 16  2  0
 18 19  1  0
 20 19  1  0
 20 21  1  0
 22 20  2  0
M  END
$$$$
