DQG.pdb
     RDKit          3D

 22 21  0  0  1  0  0  0  0  0999 V2000
   13.4353  -19.8887   26.5733 N   0  0  0  0  0  0  0  0  0  0  0  0
   12.6794  -21.0566   26.2675 C   0  0  1  0  0  0  0  0  0  0  0  0
   13.3218  -21.7919   25.0958 C   0  0  0  0  0  0  0  0  0  0  0  0
   13.4374  -20.8577   23.9602 C   0  0  0  0  0  0  0  0  0  0  0  0
   12.6928  -19.8562   23.8693 O   0  0  0  0  0  0  0  0  0  0  0  0
   12.7397  -21.9975   27.4395 C   0  0  0  0  0  0  0  0  0  0  0  0
   12.8759  -23.2176   27.1953 O   0  0  0  0  0  0  0  0  0  0  0  0
   14.3812  -21.0979   22.9837 O   0  0  0  0  0  0  0  0  0  0  0  0
   15.4148  -22.9117   34.0467 N   0  0  0  0  0  0  0  0  0  0  0  0
   14.8375  -22.1107   33.0530 C   0  0  0  0  0  0  0  0  0  0  0  0
   15.0786  -20.9033   32.9594 O   0  0  0  0  0  0  0  0  0  0  0  0
   13.8873  -22.7173   32.0473 C   0  0  0  0  0  0  0  0  0  0  0  0
   13.7548  -21.7880   30.8706 C   0  0  0  0  0  0  0  0  0  0  0  0
   12.7107  -22.2843   29.9109 C   0  0  2  0  0  0  0  0  0  0  0  0
   12.6375  -21.4389   28.7333 N   0  0  0  0  0  0  0  0  0  0  0  0
   11.4092  -22.5125   30.5231 C   0  0  0  0  0  0  0  0  0  0  0  0
   10.6709  -21.5563   30.8548 O   0  0  0  0  0  0  0  0  0  0  0  0
   10.9181  -23.8541   30.7724 N   0  0  0  0  0  0  0  0  0  0  0  0
    9.6173  -24.0027   31.3858 C   0  0  0  0  0  0  0  0  0  0  0  0
    8.5991  -24.4395   30.4113 C   0  0  0  0  0  0  0  0  0  0  0  0
    7.3331  -24.8366   30.8122 O   0  0  0  0  0  0  0  0  0  0  0  0
    8.8479  -24.4660   29.1766 O   0  0  0  0  0  0  0  0  0  0  0  0
  2  1  1  1
  3  2  1  0
  4  3  1  0
  4  8  1  0
  5  4  2  0
  6 15  1  0
  6  2  1  0
  7  6  2  0
  9 10  1  0
 10 12  1  0
 11 10  2  0
 12 13  1  0
 14 13  1  1
 14 16  1  0
 14 15  1  0
 16 18  1  0
 17 16  2  0
 18 19  1  0
 20 19  1  0
 20 21  1  0
 22 20  2  0
M  END
$$$$
