DQG.pdb
     RDKit          3D

 22 21  0  0  1  0  0  0  0  0999 V2000
   14.8278  -17.8507   16.3605 N   0  0  0  0  0  0  0  0  0  0  0  0
   15.6112  -18.6187   17.2689 C   0  0  1  0  0  0  0  0  0  0  0  0
   17.0590  -18.6595   16.7911 C   0  0  0  0  0  0  0  0  0  0  0  0
   17.0938  -19.2626   15.4454 C   0  0  0  0  0  0  0  0  0  0  0  0
   17.3928  -18.5809   14.4396 O   0  0  0  0  0  0  0  0  0  0  0  0
   15.6276  -17.9270   18.6046 C   0  0  0  0  0  0  0  0  0  0  0  0
   16.6349  -17.2400   18.8877 O   0  0  0  0  0  0  0  0  0  0  0  0
   16.7881  -20.5993   15.2983 O   0  0  0  0  0  0  0  0  0  0  0  0
   10.4722  -19.3873   21.6710 N   0  0  0  0  0  0  0  0  0  0  0  0
   10.8280  -18.1028   21.2399 C   0  0  0  0  0  0  0  0  0  0  0  0
   10.1908  -17.0983   21.5708 O   0  0  0  0  0  0  0  0  0  0  0  0
   12.0278  -17.9097   20.3425 C   0  0  0  0  0  0  0  0  0  0  0  0
   13.0131  -16.9989   21.0249 C   0  0  0  0  0  0  0  0  0  0  0  0
   14.4250  -17.4133   20.7213 C   0  0  2  0  0  0  0  0  0  0  0  0
   14.5061  -18.1017   19.4461 N   0  0  0  0  0  0  0  0  0  0  0  0
   15.0678  -18.1492   21.8012 C   0  0  0  0  0  0  0  0  0  0  0  0
   15.0602  -19.4016   21.8281 O   0  0  0  0  0  0  0  0  0  0  0  0
   15.7405  -17.4612   22.8862 N   0  0  0  0  0  0  0  0  0  0  0  0
   14.9944  -17.2001   24.0967 C   0  0  0  0  0  0  0  0  0  0  0  0
   15.8296  -16.5516   25.1258 C   0  0  0  0  0  0  0  0  0  0  0  0
   15.3574  -16.3274   26.4094 O   0  0  0  0  0  0  0  0  0  0  0  0
   17.0055  -16.1786   24.8704 O   0  0  0  0  0  0  0  0  0  0  0  0
  2  1  1  6
  3  2  1  0
  4  3  1  0
  4  8  1  0
  5  4  2  0
  6 15  1  0
  6  2  1  0
  7  6  2  0
  9 10  1  0
 10 12  1  0
 11 10  2  0
 12 13  1  0
 14 13  1  1
 14 16  1  0
 14 15  1  0
 16 18  1  0
 17 16  2  0
 18 19  1  0
 20 19  1  0
 20 21  1  0
 22 20  2  0
M  END
$$$$
