DQG.pdb
     RDKit          3D

 22 21  0  0  1  0  0  0  0  0999 V2000
    9.1236  -17.9819   21.3375 N   0  0  0  0  0  0  0  0  0  0  0  0
   10.2130  -17.3887   20.6374 C   0  0  1  0  0  0  0  0  0  0  0  0
    9.6811  -16.4263   19.5806 C   0  0  0  0  0  0  0  0  0  0  0  0
    9.2158  -17.2105   18.4212 C   0  0  0  0  0  0  0  0  0  0  0  0
    9.7595  -18.2950   18.1148 O   0  0  0  0  0  0  0  0  0  0  0  0
   11.0160  -16.5565   21.5994 C   0  0  0  0  0  0  0  0  0  0  0  0
   11.8374  -15.7452   21.1161 O   0  0  0  0  0  0  0  0  0  0  0  0
    8.1658  -16.7350   17.6641 O   0  0  0  0  0  0  0  0  0  0  0  0
   10.5305  -16.9691   27.9373 N   0  0  0  0  0  0  0  0  0  0  0  0
   11.7222  -16.2551   27.7572 C   0  0  0  0  0  0  0  0  0  0  0  0
   12.3651  -15.7987   28.7075 O   0  0  0  0  0  0  0  0  0  0  0  0
   12.2642  -16.0230   26.3664 C   0  0  0  0  0  0  0  0  0  0  0  0
   11.2847  -16.5625   25.3586 C   0  0  0  0  0  0  0  0  0  0  0  0
   11.7780  -16.3360   23.9576 C   0  0  2  0  0  0  0  0  0  0  0  0
   10.7877  -16.7494   22.9804 N   0  0  0  0  0  0  0  0  0  0  0  0
   13.0954  -16.9001   23.6988 C   0  0  0  0  0  0  0  0  0  0  0  0
   13.2306  -18.0851   23.3154 O   0  0  0  0  0  0  0  0  0  0  0  0
   14.3005  -16.1129   23.8751 N   0  0  0  0  0  0  0  0  0  0  0  0
   15.5589  -16.6856   23.4522 C   0  0  0  0  0  0  0  0  0  0  0  0
   16.7044  -15.8453   23.8505 C   0  0  0  0  0  0  0  0  0  0  0  0
   18.0121  -16.2430   23.6200 O   0  0  0  0  0  0  0  0  0  0  0  0
   16.5310  -14.7330   24.4160 O   0  0  0  0  0  0  0  0  0  0  0  0
  2  1  1  1
  3  2  1  0
  4  3  1  0
  4  8  1  0
  5  4  2  0
  6 15  1  0
  6  2  1  0
  7  6  2  0
  9 10  1  0
 10 12  1  0
 11 10  2  0
 12 13  1  0
 14 13  1  1
 14 16  1  0
 14 15  1  0
 16 18  1  0
 17 16  2  0
 18 19  1  0
 20 19  1  0
 20 21  1  0
 22 20  2  0
M  END
$$$$
