DQG.pdb
     RDKit          3D

 22 21  0  0  1  0  0  0  0  0999 V2000
   11.3125  -16.8374   20.4440 N   0  0  0  0  0  0  0  0  0  0  0  0
   12.0146  -16.2028   21.5086 C   0  0  1  0  0  0  0  0  0  0  0  0
   12.3488  -14.7666   21.1192 C   0  0  0  0  0  0  0  0  0  0  0  0
   13.4706  -14.7874   20.1616 C   0  0  0  0  0  0  0  0  0  0  0  0
   14.4148  -15.5984   20.2904 O   0  0  0  0  0  0  0  0  0  0  0  0
   11.1088  -16.1148   22.7063 C   0  0  0  0  0  0  0  0  0  0  0  0
   10.0472  -15.4635   22.5818 O   0  0  0  0  0  0  0  0  0  0  0  0
   13.4757  -13.8946   19.1105 O   0  0  0  0  0  0  0  0  0  0  0  0
    7.4214  -19.5528   23.8233 N   0  0  0  0  0  0  0  0  0  0  0  0
    7.3905  -19.0681   25.1373 C   0  0  0  0  0  0  0  0  0  0  0  0
    6.5260  -19.4176   25.9468 O   0  0  0  0  0  0  0  0  0  0  0  0
    8.4382  -18.0870   25.6082 C   0  0  0  0  0  0  0  0  0  0  0  0
    9.3943  -17.8064   24.4799 C   0  0  0  0  0  0  0  0  0  0  0  0
   10.5767  -17.0158   24.9637 C   0  0  2  0  0  0  0  0  0  0  0  0
   11.5197  -16.7722   23.8875 N   0  0  0  0  0  0  0  0  0  0  0  0
   11.2089  -17.5700   26.1528 C   0  0  0  0  0  0  0  0  0  0  0  0
   12.0275  -18.5149   26.0726 O   0  0  0  0  0  0  0  0  0  0  0  0
   10.9154  -17.0501   27.4744 N   0  0  0  0  0  0  0  0  0  0  0  0
   11.6106  -17.6243   28.6046 C   0  0  0  0  0  0  0  0  0  0  0  0
   10.8983  -18.7969   29.1475 C   0  0  0  0  0  0  0  0  0  0  0  0
   11.3406  -19.4529   30.2856 O   0  0  0  0  0  0  0  0  0  0  0  0
    9.8593  -19.2429   28.5918 O   0  0  0  0  0  0  0  0  0  0  0  0
  2  1  1  6
  3  2  1  0
  4  3  1  0
  4  8  1  0
  5  4  2  0
  6 15  1  0
  6  2  1  0
  7  6  2  0
  9 10  1  0
 10 12  1  0
 11 10  2  0
 12 13  1  0
 14 13  1  6
 14 16  1  0
 14 15  1  0
 16 18  1  0
 17 16  2  0
 18 19  1  0
 20 19  1  0
 20 21  1  0
 22 20  2  0
M  END
$$$$
