DQG.pdb
     RDKit          3D

 22 21  0  0  1  0  0  0  0  0999 V2000
   11.3382  -17.4715   17.3158 N   0  0  0  0  0  0  0  0  0  0  0  0
   11.5208  -17.9153   18.6569 C   0  0  1  0  0  0  0  0  0  0  0  0
   12.9760  -18.3189   18.8707 C   0  0  0  0  0  0  0  0  0  0  0  0
   13.3110  -19.3943   17.9184 C   0  0  0  0  0  0  0  0  0  0  0  0
   12.4980  -20.3120   17.6682 O   0  0  0  0  0  0  0  0  0  0  0  0
   11.2607  -16.7654   19.5910 C   0  0  0  0  0  0  0  0  0  0  0  0
   12.2224  -16.0113   19.8618 O   0  0  0  0  0  0  0  0  0  0  0  0
   14.5428  -19.3853   17.2983 O   0  0  0  0  0  0  0  0  0  0  0  0
    6.7377  -12.5248   19.6099 N   0  0  0  0  0  0  0  0  0  0  0  0
    7.4302  -13.3876   18.7506 C   0  0  0  0  0  0  0  0  0  0  0  0
    7.0487  -13.6135   17.5982 O   0  0  0  0  0  0  0  0  0  0  0  0
    8.6901  -14.0758   19.2211 C   0  0  0  0  0  0  0  0  0  0  0  0
    8.4129  -14.7754   20.5247 C   0  0  0  0  0  0  0  0  0  0  0  0
    9.6252  -15.5261   20.9982 C   0  0  2  0  0  0  0  0  0  0  0  0
    9.9502  -16.6173   20.0981 N   0  0  0  0  0  0  0  0  0  0  0  0
    9.5508  -15.9466   22.3905 C   0  0  0  0  0  0  0  0  0  0  0  0
    8.8327  -16.9119   22.7398 O   0  0  0  0  0  0  0  0  0  0  0  0
   10.3041  -15.2648   23.4252 N   0  0  0  0  0  0  0  0  0  0  0  0
   10.1172  -15.6851   24.7959 C   0  0  0  0  0  0  0  0  0  0  0  0
   11.1873  -16.5992   25.2391 C   0  0  0  0  0  0  0  0  0  0  0  0
   12.0995  -17.1375   24.3451 O   0  0  0  0  0  0  0  0  0  0  0  0
   11.3078  -16.9222   26.4508 O   0  0  0  0  0  0  0  0  0  0  0  0
  2  1  1  6
  3  2  1  0
  4  3  1  0
  4  8  1  0
  5  4  2  0
  6 15  1  0
  6  2  1  0
  7  6  2  0
  9 10  1  0
 10 12  1  0
 11 10  2  0
 12 13  1  0
 14 13  1  6
 14 16  1  0
 14 15  1  0
 16 18  1  0
 17 16  2  0
 18 19  1  0
 20 19  1  0
 20 21  1  0
 22 20  2  0
M  END
$$$$
