DQG.pdb
     RDKit          3D

 22 21  0  0  1  0  0  0  0  0999 V2000
   13.3212  -16.6255   19.0935 N   0  0  0  0  0  0  0  0  0  0  0  0
   13.6637  -15.2852   19.4329 C   0  0  1  0  0  0  0  0  0  0  0  0
   13.9214  -14.4834   18.1613 C   0  0  0  0  0  0  0  0  0  0  0  0
   15.2660  -14.8201   17.6570 C   0  0  0  0  0  0  0  0  0  0  0  0
   15.6812  -16.0005   17.6627 O   0  0  0  0  0  0  0  0  0  0  0  0
   12.4864  -14.6370   20.1085 C   0  0  0  0  0  0  0  0  0  0  0  0
   12.6307  -13.4646   20.5226 O   0  0  0  0  0  0  0  0  0  0  0  0
   16.0761  -13.8135   17.1748 O   0  0  0  0  0  0  0  0  0  0  0  0
    8.5983  -11.9629   18.9151 N   0  0  0  0  0  0  0  0  0  0  0  0
    7.9971  -13.2264   18.9818 C   0  0  0  0  0  0  0  0  0  0  0  0
    6.7795  -13.3680   19.1304 O   0  0  0  0  0  0  0  0  0  0  0  0
    8.8408  -14.4743   18.8681 C   0  0  0  0  0  0  0  0  0  0  0  0
    8.8749  -15.1703   20.2024 C   0  0  0  0  0  0  0  0  0  0  0  0
   10.1503  -14.8627   20.9346 C   0  0  2  0  0  0  0  0  0  0  0  0
   11.3011  -15.3965   20.2293 N   0  0  0  0  0  0  0  0  0  0  0  0
   10.1269  -15.2386   22.3414 C   0  0  0  0  0  0  0  0  0  0  0  0
    9.2582  -14.7836   23.1208 O   0  0  0  0  0  0  0  0  0  0  0  0
   11.1076  -16.1531   22.8937 N   0  0  0  0  0  0  0  0  0  0  0  0
   10.9641  -16.5566   24.2746 C   0  0  0  0  0  0  0  0  0  0  0  0
   12.0918  -17.3979   24.7193 C   0  0  0  0  0  0  0  0  0  0  0  0
   13.1459  -17.7062   23.8738 O   0  0  0  0  0  0  0  0  0  0  0  0
   12.1341  -17.8660   25.8882 O   0  0  0  0  0  0  0  0  0  0  0  0
  2  1  1  6
  3  2  1  0
  4  3  1  0
  4  8  1  0
  5  4  2  0
  6 15  1  0
  6  2  1  0
  7  6  2  0
  9 10  1  0
 10 12  1  0
 11 10  2  0
 12 13  1  0
 14 13  1  6
 14 16  1  0
 14 15  1  0
 16 18  1  0
 17 16  2  0
 18 19  1  0
 20 19  1  0
 20 21  1  0
 22 20  2  0
M  END
$$$$
