YCY.pdb
     RDKit          3D

 31 32  0  0  1  0  0  0  0  0999 V2000
   18.1356  -13.9065  -20.8162 O   0  0  0  0  0  0  0  0  0  0  0  0
   18.2454  -12.8743  -19.8866 C   0  0  0  0  0  0  0  0  0  0  0  0
   17.3432  -12.7953  -18.8505 C   0  0  0  0  0  0  0  0  0  0  0  0
   17.4236  -11.7876  -17.9146 C   0  0  0  0  0  0  0  0  0  0  0  0
   18.4130  -10.8225  -17.9852 C   0  0  0  0  0  0  0  0  0  0  0  0
   18.4487   -9.7724  -16.9590 C   0  0  0  0  0  0  0  0  0  0  0  0
   19.7304   -9.8877  -16.1963 C   0  0  2  0  0  0  0  0  0  0  0  0
   19.8528  -11.1572  -15.5182 N   0  0  0  0  0  0  0  0  0  0  0  0
   19.9389   -8.7891  -15.2226 C   0  0  0  0  0  0  0  0  0  0  0  0
   19.4740   -8.8151  -14.0629 O   0  0  0  0  0  0  0  0  0  0  0  0
   19.3073  -10.9217  -19.0334 C   0  0  0  0  0  0  0  0  0  0  0  0
   19.2365  -11.9212  -19.9712 C   0  0  0  0  0  0  0  0  0  0  0  0
   20.7023   -7.6237  -15.5838 N   0  0  0  0  0  0  0  0  0  0  0  0
   20.9148   -6.5284  -14.6580 C   0  0  1  0  0  0  0  0  0  0  0  0
   22.2881   -6.6584  -14.0496 C   0  0  0  0  0  0  0  0  0  0  0  0
   22.7327   -5.1910  -13.0811 S   0  0  0  0  0  0  0  0  0  0  0  0
   20.6919   -5.2644  -15.3483 C   0  0  0  0  0  0  0  0  0  0  0  0
   21.2562   -5.0448  -16.4474 O   0  0  0  0  0  0  0  0  0  0  0  0
   18.0084    2.6575  -18.0732 O   0  0  0  0  0  0  0  0  0  0  0  0
   18.1167    1.4529  -17.3894 C   0  0  0  0  0  0  0  0  0  0  0  0
   18.5510    1.3980  -16.0822 C   0  0  0  0  0  0  0  0  0  0  0  0
   18.6664    0.2122  -15.3827 C   0  0  0  0  0  0  0  0  0  0  0  0
   18.3397   -0.9802  -15.9948 C   0  0  0  0  0  0  0  0  0  0  0  0
   18.4348   -2.2849  -15.3186 C   0  0  0  0  0  0  0  0  0  0  0  0
   19.7817   -2.9469  -15.5274 C   0  0  2  0  0  0  0  0  0  0  0  0
   19.8494   -4.2207  -14.8493 N   0  0  0  0  0  0  0  0  0  0  0  0
   20.8035   -2.0429  -14.9512 C   0  0  0  0  0  0  0  0  0  0  0  0
   21.3925   -2.3377  -13.7336 O   0  0  0  0  0  0  0  0  0  0  0  0
   17.9037   -0.9408  -17.3019 C   0  0  0  0  0  0  0  0  0  0  0  0
   17.7864    0.2453  -18.0073 C   0  0  0  0  0  0  0  0  0  0  0  0
   21.1777   -0.9842  -15.5300 O   0  0  0  0  0  0  0  0  0  0  0  0
  2  1  1  0
  3  2  2  0
  4  3  1  0
  5 11  1  0
  5  4  2  0
  6  5  1  0
  7  6  1  0
  7  8  1  1
  9  7  1  0
  9 10  2  0
 11 12  2  0
 12  2  1  0
 13  9  1  0
 14 13  1  0
 14 15  1  6
 16 15  1  0
 17 14  1  0
 18 17  2  0
 20 30  2  0
 20 19  1  0
 21 20  1  0
 22 23  1  0
 22 21  2  0
 23 29  2  0
 25 24  1  1
 24 23  1  0
 25 26  1  0
 26 17  1  0
 27 28  1  0
 27 25  1  0
 29 30  1  0
 31 27  2  0
M  END
$$$$
