YCY.pdb
     RDKit          3D

 31 32  0  0  1  0  0  0  0  0999 V2000
   23.9857  -16.5191  -17.4860 O   0  0  0  0  0  0  0  0  0  0  0  0
   25.0834  -17.0483  -16.8101 C   0  0  0  0  0  0  0  0  0  0  0  0
   25.1720  -16.9065  -15.4440 C   0  0  0  0  0  0  0  0  0  0  0  0
   26.2436  -17.4178  -14.7454 C   0  0  0  0  0  0  0  0  0  0  0  0
   27.2654  -18.0900  -15.3933 C   0  0  0  0  0  0  0  0  0  0  0  0
   28.3823  -18.6130  -14.5960 C   0  0  0  0  0  0  0  0  0  0  0  0
   28.3460  -20.1078  -14.6386 C   0  0  2  0  0  0  0  0  0  0  0  0
   28.2958  -20.6171  -15.9894 N   0  0  0  0  0  0  0  0  0  0  0  0
   27.2345  -20.6942  -13.8515 C   0  0  0  0  0  0  0  0  0  0  0  0
   26.3291  -21.3834  -14.3683 O   0  0  0  0  0  0  0  0  0  0  0  0
   27.1553  -18.2202  -16.7642 C   0  0  0  0  0  0  0  0  0  0  0  0
   26.0923  -17.7149  -17.4700 C   0  0  0  0  0  0  0  0  0  0  0  0
   27.1537  -20.4875  -12.4296 N   0  0  0  0  0  0  0  0  0  0  0  0
   26.0391  -20.9811  -11.6446 C   0  0  1  0  0  0  0  0  0  0  0  0
   26.3537  -20.8069  -10.1805 C   0  0  0  0  0  0  0  0  0  0  0  0
   24.8893  -21.0748   -9.1448 S   0  0  0  0  0  0  0  0  0  0  0  0
   24.8167  -20.3111  -12.0698 C   0  0  0  0  0  0  0  0  0  0  0  0
   24.8463  -19.0961  -12.3822 O   0  0  0  0  0  0  0  0  0  0  0  0
   18.6464  -17.2335  -16.9769 O   0  0  0  0  0  0  0  0  0  0  0  0
   19.6514  -17.9373  -16.3251 C   0  0  0  0  0  0  0  0  0  0  0  0
   19.7137  -19.3139  -16.3626 C   0  0  0  0  0  0  0  0  0  0  0  0
   20.7035  -20.0346  -15.7224 C   0  0  0  0  0  0  0  0  0  0  0  0
   21.6818  -19.3730  -15.0093 C   0  0  0  0  0  0  0  0  0  0  0  0
   22.7698  -20.0673  -14.3002 C   0  0  0  0  0  0  0  0  0  0  0  0
   22.4427  -20.3152  -12.8417 C   0  0  2  0  0  0  0  0  0  0  0  0
   23.5430  -20.9574  -12.1606 N   0  0  0  0  0  0  0  0  0  0  0  0
   21.2674  -21.2156  -12.8074 C   0  0  0  0  0  0  0  0  0  0  0  0
   20.0001  -20.7045  -12.5864 O   0  0  0  0  0  0  0  0  0  0  0  0
   21.6324  -17.9962  -14.9629 C   0  0  0  0  0  0  0  0  0  0  0  0
   20.6423  -17.2694  -15.6030 C   0  0  0  0  0  0  0  0  0  0  0  0
   21.3632  -22.4642  -12.9743 O   0  0  0  0  0  0  0  0  0  0  0  0
  2  1  1  0
  3  2  2  0
  4  3  1  0
  5 11  1  0
  5  4  2  0
  6  5  1  0
  7  6  1  0
  7  8  1  6
  9  7  1  0
  9 10  2  0
 11 12  2  0
 12  2  1  0
 13  9  1  0
 14 13  1  0
 14 15  1  1
 16 15  1  0
 17 14  1  0
 18 17  2  0
 20 30  2  0
 20 19  1  0
 21 20  1  0
 22 23  1  0
 22 21  2  0
 23 29  2  0
 25 24  1  6
 24 23  1  0
 25 26  1  0
 26 17  1  0
 27 28  1  0
 27 25  1  0
 29 30  1  0
 31 27  2  0
M  END
$$$$
