YCY.pdb
     RDKit          3D

 31 32  0  0  1  0  0  0  0  0999 V2000
   27.7632  -32.9933  -14.3647 O   0  0  0  0  0  0  0  0  0  0  0  0
   26.7188  -33.2865  -13.4900 C   0  0  0  0  0  0  0  0  0  0  0  0
   27.0022  -33.7644  -12.2309 C   0  0  0  0  0  0  0  0  0  0  0  0
   25.9933  -34.0641  -11.3418 C   0  0  0  0  0  0  0  0  0  0  0  0
   24.6633  -33.8946  -11.6849 C   0  0  0  0  0  0  0  0  0  0  0  0
   23.6313  -34.2308  -10.6956 C   0  0  0  0  0  0  0  0  0  0  0  0
   23.8078  -33.3523   -9.4978 C   0  0  2  0  0  0  0  0  0  0  0  0
   23.5820  -31.9584   -9.8019 N   0  0  0  0  0  0  0  0  0  0  0  0
   25.1299  -33.5040   -8.8439 C   0  0  0  0  0  0  0  0  0  0  0  0
   25.9354  -32.5569   -8.7179 O   0  0  0  0  0  0  0  0  0  0  0  0
   24.4028  -33.4137  -12.9535 C   0  0  0  0  0  0  0  0  0  0  0  0
   25.3998  -33.1121  -13.8470 C   0  0  0  0  0  0  0  0  0  0  0  0
   25.5461  -34.7771   -8.3171 N   0  0  0  0  0  0  0  0  0  0  0  0
   26.8102  -34.9459   -7.6276 C   0  0  1  0  0  0  0  0  0  0  0  0
   26.8435  -34.0298   -6.4307 C   0  0  0  0  0  0  0  0  0  0  0  0
   28.3442  -34.2744   -5.4422 S   0  0  0  0  0  0  0  0  0  0  0  0
   26.9951  -36.3537   -7.2992 C   0  0  0  0  0  0  0  0  0  0  0  0
   26.0333  -37.1523   -7.4080 O   0  0  0  0  0  0  0  0  0  0  0  0
   28.5545  -44.7293   -6.6658 O   0  0  0  0  0  0  0  0  0  0  0  0
   28.4257  -43.3701   -6.9232 C   0  0  0  0  0  0  0  0  0  0  0  0
   27.3523  -42.6423   -6.4557 C   0  0  0  0  0  0  0  0  0  0  0  0
   27.2034  -41.2905   -6.6992 C   0  0  0  0  0  0  0  0  0  0  0  0
   28.1544  -40.6176   -7.4382 C   0  0  0  0  0  0  0  0  0  0  0  0
   28.0690  -39.1790   -7.7410 C   0  0  0  0  0  0  0  0  0  0  0  0
   28.3288  -38.3160   -6.5231 C   0  0  2  0  0  0  0  0  0  0  0  0
   28.2332  -36.9114   -6.8470 N   0  0  0  0  0  0  0  0  0  0  0  0
   29.7075  -38.6098   -6.0691 C   0  0  0  0  0  0  0  0  0  0  0  0
   29.9235  -39.3767   -4.9371 O   0  0  0  0  0  0  0  0  0  0  0  0
   29.2335  -41.3324   -7.9124 C   0  0  0  0  0  0  0  0  0  0  0  0
   29.3871  -42.6875   -7.6709 C   0  0  0  0  0  0  0  0  0  0  0  0
   30.7287  -38.1843   -6.6792 O   0  0  0  0  0  0  0  0  0  0  0  0
  2  1  1  0
  3  2  2  0
  4  3  1  0
  5 11  1  0
  5  4  2  0
  6  5  1  0
  7  6  1  0
  7  8  1  6
  9  7  1  0
  9 10  2  0
 11 12  2  0
 12  2  1  0
 13  9  1  0
 14 13  1  0
 14 15  1  1
 16 15  1  0
 17 14  1  0
 18 17  2  0
 20 30  2  0
 20 19  1  0
 21 20  1  0
 22 23  1  0
 22 21  2  0
 23 29  2  0
 25 24  1  6
 24 23  1  0
 25 26  1  0
 26 17  1  0
 27 28  1  0
 27 25  1  0
 29 30  1  0
 31 27  2  0
M  END
$$$$
