YCY.pdb
     RDKit          3D

 31 32  0  0  1  0  0  0  0  0999 V2000
   24.7006  -17.6614  -21.3919 O   0  0  0  0  0  0  0  0  0  0  0  0
   24.2382  -16.4650  -20.8473 C   0  0  0  0  0  0  0  0  0  0  0  0
   24.7512  -15.2707  -21.2993 C   0  0  0  0  0  0  0  0  0  0  0  0
   24.3160  -14.0702  -20.7822 C   0  0  0  0  0  0  0  0  0  0  0  0
   23.3496  -14.0255  -19.7924 C   0  0  0  0  0  0  0  0  0  0  0  0
   22.9251  -12.7165  -19.2797 C   0  0  0  0  0  0  0  0  0  0  0  0
   21.5707  -12.3997  -19.8301 C   0  0  2  0  0  0  0  0  0  0  0  0
   21.5759  -12.2904  -21.2704 N   0  0  0  0  0  0  0  0  0  0  0  0
   20.9676  -11.1770  -19.2473 C   0  0  0  0  0  0  0  0  0  0  0  0
   21.1783  -10.0337  -19.7058 O   0  0  0  0  0  0  0  0  0  0  0  0
   22.8492  -15.2363  -19.3543 C   0  0  0  0  0  0  0  0  0  0  0  0
   23.2755  -16.4378  -19.8623 C   0  0  0  0  0  0  0  0  0  0  0  0
   20.0963  -11.2616  -18.1050 N   0  0  0  0  0  0  0  0  0  0  0  0
   19.4331  -10.0943  -17.5576 C   0  0  1  0  0  0  0  0  0  0  0  0
   17.9441  -10.2440  -17.7403 C   0  0  0  0  0  0  0  0  0  0  0  0
   17.0206   -9.1175  -16.6599 S   0  0  0  0  0  0  0  0  0  0  0  0
   19.8428   -9.9140  -16.1707 C   0  0  0  0  0  0  0  0  0  0  0  0
   19.8633  -10.8980  -15.3922 O   0  0  0  0  0  0  0  0  0  0  0  0
   22.2309   -2.4976  -15.5218 O   0  0  0  0  0  0  0  0  0  0  0  0
   22.1605   -3.8330  -15.1446 C   0  0  0  0  0  0  0  0  0  0  0  0
   21.7317   -4.2101  -13.8899 C   0  0  0  0  0  0  0  0  0  0  0  0
   21.6535   -5.5312  -13.4929 C   0  0  0  0  0  0  0  0  0  0  0  0
   22.0137   -6.5335  -14.3698 C   0  0  0  0  0  0  0  0  0  0  0  0
   21.9587   -7.9639  -14.0239 C   0  0  0  0  0  0  0  0  0  0  0  0
   20.5744   -8.5507  -14.2117 C   0  0  2  0  0  0  0  0  0  0  0  0
   20.2365   -8.6565  -15.6122 N   0  0  0  0  0  0  0  0  0  0  0  0
   19.6192   -7.6274  -13.5572 C   0  0  0  0  0  0  0  0  0  0  0  0
   19.5872   -7.5153  -12.1778 O   0  0  0  0  0  0  0  0  0  0  0  0
   22.4445   -6.1715  -15.6281 C   0  0  0  0  0  0  0  0  0  0  0  0
   22.5246   -4.8487  -16.0306 C   0  0  0  0  0  0  0  0  0  0  0  0
   18.8068   -6.9146  -14.2113 O   0  0  0  0  0  0  0  0  0  0  0  0
  2  1  1  0
  3  2  2  0
  4  3  1  0
  5 11  1  0
  5  4  2  0
  6  5  1  0
  7  6  1  0
  7  8  1  6
  9  7  1  0
  9 10  2  0
 11 12  2  0
 12  2  1  0
 13  9  1  0
 14 13  1  0
 14 15  1  1
 16 15  1  0
 17 14  1  0
 18 17  2  0
 20 30  2  0
 20 19  1  0
 21 20  1  0
 22 23  1  0
 22 21  2  0
 23 29  2  0
 25 24  1  6
 24 23  1  0
 25 26  1  0
 26 17  1  0
 27 28  1  0
 27 25  1  0
 29 30  1  0
 31 27  2  0
M  END
$$$$
