YCY.pdb
     RDKit          3D

 31 32  0  0  1  0  0  0  0  0999 V2000
   33.7858  -32.7672  -22.9317 O   0  0  0  0  0  0  0  0  0  0  0  0
   33.1988  -31.8044  -22.1130 C   0  0  0  0  0  0  0  0  0  0  0  0
   31.8276  -31.7447  -22.0113 C   0  0  0  0  0  0  0  0  0  0  0  0
   31.2155  -30.8052  -21.2109 C   0  0  0  0  0  0  0  0  0  0  0  0
   31.9582  -29.8915  -20.4836 C   0  0  0  0  0  0  0  0  0  0  0  0
   31.2504  -28.9133  -19.6475 C   0  0  0  0  0  0  0  0  0  0  0  0
   31.6784  -29.0955  -18.2258 C   0  0  2  0  0  0  0  0  0  0  0  0
   31.2148  -30.3453  -17.6694 N   0  0  0  0  0  0  0  0  0  0  0  0
   31.2681  -27.9809  -17.3381 C   0  0  0  0  0  0  0  0  0  0  0  0
   30.2289  -28.0151  -16.6448 O   0  0  0  0  0  0  0  0  0  0  0  0
   33.3324  -29.9702  -20.6011 C   0  0  0  0  0  0  0  0  0  0  0  0
   33.9525  -30.9019  -21.3953 C   0  0  0  0  0  0  0  0  0  0  0  0
   32.0692  -26.7894  -17.2385 N   0  0  0  0  0  0  0  0  0  0  0  0
   31.6833  -25.6736  -16.3971 C   0  0  1  0  0  0  0  0  0  0  0  0
   32.8944  -25.1832  -15.6450 C   0  0  0  0  0  0  0  0  0  0  0  0
   33.0539  -25.9947  -14.0310 S   0  0  0  0  0  0  0  0  0  0  0  0
   31.0430  -24.6521  -17.2160 C   0  0  0  0  0  0  0  0  0  0  0  0
   31.3616  -24.5289  -18.4235 O   0  0  0  0  0  0  0  0  0  0  0  0
   24.8616  -27.1441  -15.8600 O   0  0  0  0  0  0  0  0  0  0  0  0
   25.7352  -26.2931  -16.5257 C   0  0  0  0  0  0  0  0  0  0  0  0
   25.4662  -24.9492  -16.6736 C   0  0  0  0  0  0  0  0  0  0  0  0
   26.3198  -24.0845  -17.3313 C   0  0  0  0  0  0  0  0  0  0  0  0
   27.4965  -24.5607  -17.8716 C   0  0  0  0  0  0  0  0  0  0  0  0
   28.4584  -23.7050  -18.5864 C   0  0  0  0  0  0  0  0  0  0  0  0
   29.3228  -22.8941  -17.6424 C   0  0  2  0  0  0  0  0  0  0  0  0
   30.0450  -23.7493  -16.7292 N   0  0  0  0  0  0  0  0  0  0  0  0
   28.4144  -22.0211  -16.8640 C   0  0  0  0  0  0  0  0  0  0  0  0
   27.6611  -21.0496  -17.5004 O   0  0  0  0  0  0  0  0  0  0  0  0
   27.7789  -25.9027  -17.7315 C   0  0  0  0  0  0  0  0  0  0  0  0
   26.9264  -26.7733  -17.0730 C   0  0  0  0  0  0  0  0  0  0  0  0
   28.2867  -22.1191  -15.6109 O   0  0  0  0  0  0  0  0  0  0  0  0
  2  1  1  0
  3  2  2  0
  4  3  1  0
  5 11  1  0
  5  4  2  0
  6  5  1  0
  7  6  1  0
  7  8  1  1
  9  7  1  0
  9 10  2  0
 11 12  2  0
 12  2  1  0
 13  9  1  0
 14 13  1  0
 14 15  1  6
 16 15  1  0
 17 14  1  0
 18 17  2  0
 20 30  2  0
 20 19  1  0
 21 20  1  0
 22 23  1  0
 22 21  2  0
 23 29  2  0
 25 24  1  6
 24 23  1  0
 25 26  1  0
 26 17  1  0
 27 28  1  0
 27 25  1  0
 29 30  1  0
 31 27  2  0
M  END
$$$$
