YCY.pdb
     RDKit          3D

 31 32  0  0  1  0  0  0  0  0999 V2000
   32.6848  -39.5846  -16.5667 O   0  0  0  0  0  0  0  0  0  0  0  0
   32.4442  -38.2139  -16.4954 C   0  0  0  0  0  0  0  0  0  0  0  0
   33.2660  -37.4198  -15.7286 C   0  0  0  0  0  0  0  0  0  0  0  0
   33.0559  -36.0613  -15.6365 C   0  0  0  0  0  0  0  0  0  0  0  0
   32.0129  -35.4510  -16.3112 C   0  0  0  0  0  0  0  0  0  0  0  0
   31.8384  -33.9992  -16.1751 C   0  0  0  0  0  0  0  0  0  0  0  0
   32.4696  -33.3257  -17.3521 C   0  0  2  0  0  0  0  0  0  0  0  0
   33.9104  -33.2900  -17.2561 N   0  0  0  0  0  0  0  0  0  0  0  0
   31.9596  -31.9541  -17.5912 C   0  0  0  0  0  0  0  0  0  0  0  0
   32.6974  -30.9455  -17.5769 O   0  0  0  0  0  0  0  0  0  0  0  0
   31.2013  -36.2677  -17.0746 C   0  0  0  0  0  0  0  0  0  0  0  0
   31.4014  -37.6218  -17.1734 C   0  0  0  0  0  0  0  0  0  0  0  0
   30.5633  -31.7262  -17.8551 N   0  0  0  0  0  0  0  0  0  0  0  0
   30.0590  -30.4248  -18.2476 C   0  0  1  0  0  0  0  0  0  0  0  0
   30.7065  -30.0181  -19.5470 C   0  0  0  0  0  0  0  0  0  0  0  0
   30.1185  -28.3973  -20.1093 S   0  0  0  0  0  0  0  0  0  0  0  0
   28.6033  -30.4688  -18.3014 C   0  0  0  0  0  0  0  0  0  0  0  0
   28.0286  -31.4002  -18.9153 O   0  0  0  0  0  0  0  0  0  0  0  0
   20.0153  -29.6234  -16.5269 O   0  0  0  0  0  0  0  0  0  0  0  0
   21.3958  -29.4659  -16.5360 C   0  0  0  0  0  0  0  0  0  0  0  0
   22.2442  -30.4859  -16.1617 C   0  0  0  0  0  0  0  0  0  0  0  0
   23.6193  -30.3520  -16.1630 C   0  0  0  0  0  0  0  0  0  0  0  0
   24.1922  -29.1584  -16.5506 C   0  0  0  0  0  0  0  0  0  0  0  0
   25.6476  -28.9359  -16.5797 C   0  0  0  0  0  0  0  0  0  0  0  0
   26.3161  -29.6384  -17.7439 C   0  0  2  0  0  0  0  0  0  0  0  0
   27.7526  -29.4965  -17.6857 N   0  0  0  0  0  0  0  0  0  0  0  0
   25.8211  -28.9939  -18.9819 C   0  0  0  0  0  0  0  0  0  0  0  0
   26.6070  -28.0741  -19.6548 O   0  0  0  0  0  0  0  0  0  0  0  0
   23.3562  -28.1292  -16.9276 C   0  0  0  0  0  0  0  0  0  0  0  0
   21.9772  -28.2586  -16.9280 C   0  0  0  0  0  0  0  0  0  0  0  0
   24.6844  -29.2469  -19.4717 O   0  0  0  0  0  0  0  0  0  0  0  0
  2  1  1  0
  3  2  2  0
  4  3  1  0
  5 11  1  0
  5  4  2  0
  6  5  1  0
  7  6  1  0
  7  8  1  1
  9  7  1  0
  9 10  2  0
 11 12  2  0
 12  2  1  0
 13  9  1  0
 14 13  1  0
 14 15  1  6
 16 15  1  0
 17 14  1  0
 18 17  2  0
 20 30  2  0
 20 19  1  0
 21 20  1  0
 22 23  1  0
 22 21  2  0
 23 29  2  0
 25 24  1  1
 24 23  1  0
 25 26  1  0
 26 17  1  0
 27 28  1  0
 27 25  1  0
 29 30  1  0
 31 27  2  0
M  END
$$$$
