YCY.pdb
     RDKit          3D

 31 32  0  0  1  0  0  0  0  0999 V2000
   17.0542  -14.9872  -21.3151 O   0  0  0  0  0  0  0  0  0  0  0  0
   17.7294  -14.1411  -20.4376 C   0  0  0  0  0  0  0  0  0  0  0  0
   18.2287  -14.6450  -19.2583 C   0  0  0  0  0  0  0  0  0  0  0  0
   18.9009  -13.8358  -18.3688 C   0  0  0  0  0  0  0  0  0  0  0  0
   19.0962  -12.4910  -18.6313 C   0  0  0  0  0  0  0  0  0  0  0  0
   19.8203  -11.6778  -17.6458 C   0  0  0  0  0  0  0  0  0  0  0  0
   21.2239  -11.4791  -18.1233 C   0  0  2  0  0  0  0  0  0  0  0  0
   21.9941  -12.7004  -18.0859 N   0  0  0  0  0  0  0  0  0  0  0  0
   21.9525  -10.4167  -17.3891 C   0  0  0  0  0  0  0  0  0  0  0  0
   22.6176  -10.6424  -16.3554 O   0  0  0  0  0  0  0  0  0  0  0  0
   18.5865  -12.0073  -19.8207 C   0  0  0  0  0  0  0  0  0  0  0  0
   17.9153  -12.8043  -20.7139 C   0  0  0  0  0  0  0  0  0  0  0  0
   21.9213   -9.0534  -17.8492 N   0  0  0  0  0  0  0  0  0  0  0  0
   22.6685   -8.0026  -17.1863 C   0  0  1  0  0  0  0  0  0  0  0  0
   23.2724   -7.0962  -18.2287 C   0  0  0  0  0  0  0  0  0  0  0  0
   24.6174   -7.9144  -19.1290 S   0  0  0  0  0  0  0  0  0  0  0  0
   21.7982   -7.3166  -16.2397 C   0  0  0  0  0  0  0  0  0  0  0  0
   20.6407   -6.9785  -16.5870 O   0  0  0  0  0  0  0  0  0  0  0  0
   17.2752   -4.6472   -9.2513 O   0  0  0  0  0  0  0  0  0  0  0  0
   18.1635   -5.2551  -10.1299 C   0  0  0  0  0  0  0  0  0  0  0  0
   17.8974   -5.3508  -11.4791 C   0  0  0  0  0  0  0  0  0  0  0  0
   18.7655   -5.9506  -12.3710 C   0  0  0  0  0  0  0  0  0  0  0  0
   19.9545   -6.4837  -11.9180 C   0  0  0  0  0  0  0  0  0  0  0  0
   20.9323   -7.1385  -12.8033 C   0  0  0  0  0  0  0  0  0  0  0  0
   21.2571   -6.3018  -14.0241 C   0  0  2  0  0  0  0  0  0  0  0  0
   22.1783   -6.9890  -14.8995 N   0  0  0  0  0  0  0  0  0  0  0  0
   21.8957   -5.0566  -13.5394 C   0  0  0  0  0  0  0  0  0  0  0  0
   23.2674   -4.9961  -13.3628 O   0  0  0  0  0  0  0  0  0  0  0  0
   20.2342   -6.3955  -10.5711 C   0  0  0  0  0  0  0  0  0  0  0  0
   19.3672   -5.7952   -9.6732 C   0  0  0  0  0  0  0  0  0  0  0  0
   21.2345   -4.0144  -13.2703 O   0  0  0  0  0  0  0  0  0  0  0  0
  2  1  1  0
  3  2  2  0
  4  3  1  0
  5 11  1  0
  5  4  2  0
  6  5  1  0
  7  6  1  0
  7  8  1  1
  9  7  1  0
  9 10  2  0
 11 12  2  0
 12  2  1  0
 13  9  1  0
 14 13  1  0
 14 15  1  6
 16 15  1  0
 17 14  1  0
 18 17  2  0
 20 30  2  0
 20 19  1  0
 21 20  1  0
 22 23  1  0
 22 21  2  0
 23 29  2  0
 25 24  1  1
 24 23  1  0
 25 26  1  0
 26 17  1  0
 27 28  1  0
 27 25  1  0
 29 30  1  0
 31 27  2  0
M  END
$$$$
