YCY.pdb
     RDKit          3D

 31 32  0  0  1  0  0  0  0  0999 V2000
   11.9949   -4.8652   -6.5659 O   0  0  0  0  0  0  0  0  0  0  0  0
   13.2150   -5.0262   -7.2196 C   0  0  0  0  0  0  0  0  0  0  0  0
   14.2621   -4.1854   -6.9187 C   0  0  0  0  0  0  0  0  0  0  0  0
   15.4813   -4.3174   -7.5466 C   0  0  0  0  0  0  0  0  0  0  0  0
   15.6931   -5.2986   -8.4994 C   0  0  0  0  0  0  0  0  0  0  0  0
   17.0138   -5.3911   -9.1351 C   0  0  0  0  0  0  0  0  0  0  0  0
   16.9573   -4.7080  -10.4647 C   0  0  2  0  0  0  0  0  0  0  0  0
   16.3857   -3.3843  -10.3774 N   0  0  0  0  0  0  0  0  0  0  0  0
   16.2348   -5.4873  -11.4987 C   0  0  0  0  0  0  0  0  0  0  0  0
   15.1230   -5.1419  -11.9529 O   0  0  0  0  0  0  0  0  0  0  0  0
   14.6282   -6.1307   -8.7852 C   0  0  0  0  0  0  0  0  0  0  0  0
   13.4096   -6.0082   -8.1659 C   0  0  0  0  0  0  0  0  0  0  0  0
   16.7991   -6.6994  -12.0315 N   0  0  0  0  0  0  0  0  0  0  0  0
   16.0526   -7.5667  -12.9217 C   0  0  1  0  0  0  0  0  0  0  0  0
   16.6258   -7.4551  -14.3116 C   0  0  0  0  0  0  0  0  0  0  0  0
   16.1018   -8.8356  -15.3646 S   0  0  0  0  0  0  0  0  0  0  0  0
   16.0571   -8.9229  -12.3881 C   0  0  0  0  0  0  0  0  0  0  0  0
   17.1255   -9.4221  -11.9592 O   0  0  0  0  0  0  0  0  0  0  0  0
    9.1576   -9.7364   -9.5728 O   0  0  0  0  0  0  0  0  0  0  0  0
   10.4883  -10.0854   -9.7679 C   0  0  0  0  0  0  0  0  0  0  0  0
   11.4984   -9.1487   -9.7168 C   0  0  0  0  0  0  0  0  0  0  0  0
   12.8279   -9.4725   -9.9076 C   0  0  0  0  0  0  0  0  0  0  0  0
   13.1858  -10.7805  -10.1613 C   0  0  0  0  0  0  0  0  0  0  0  0
   14.5791  -11.2068  -10.3753 C   0  0  0  0  0  0  0  0  0  0  0  0
   14.9953  -11.1119  -11.8291 C   0  0  2  0  0  0  0  0  0  0  0  0
   14.8950   -9.7550  -12.3147 N   0  0  0  0  0  0  0  0  0  0  0  0
   14.0666  -11.9672  -12.6031 C   0  0  0  0  0  0  0  0  0  0  0  0
   14.0607  -13.3393  -12.4195 O   0  0  0  0  0  0  0  0  0  0  0  0
   12.1864  -11.7283  -10.2154 C   0  0  0  0  0  0  0  0  0  0  0  0
   10.8523  -11.4085  -10.0248 C   0  0  0  0  0  0  0  0  0  0  0  0
   13.2542  -11.4964  -13.4484 O   0  0  0  0  0  0  0  0  0  0  0  0
  2  1  1  0
  3  2  2  0
  4  3  1  0
  5 11  1  0
  5  4  2  0
  6  5  1  0
  7  6  1  0
  7  8  1  1
  9  7  1  0
  9 10  2  0
 11 12  2  0
 12  2  1  0
 13  9  1  0
 14 13  1  0
 14 15  1  6
 16 15  1  0
 17 14  1  0
 18 17  2  0
 20 30  2  0
 20 19  1  0
 21 20  1  0
 22 23  1  0
 22 21  2  0
 23 29  2  0
 25 24  1  1
 24 23  1  0
 25 26  1  0
 26 17  1  0
 27 28  1  0
 27 25  1  0
 29 30  1  0
 31 27  2  0
M  END
$$$$
