YCY.pdb
     RDKit          3D

 31 32  0  0  1  0  0  0  0  0999 V2000
   13.4372   -7.5533  -24.2278 O   0  0  0  0  0  0  0  0  0  0  0  0
   14.4333   -7.0612  -23.3867 C   0  0  0  0  0  0  0  0  0  0  0  0
   15.2298   -6.0231  -23.8131 C   0  0  0  0  0  0  0  0  0  0  0  0
   16.2234   -5.5132  -23.0064 C   0  0  0  0  0  0  0  0  0  0  0  0
   16.4533   -6.0274  -21.7422 C   0  0  0  0  0  0  0  0  0  0  0  0
   17.5267   -5.4434  -20.9276 C   0  0  0  0  0  0  0  0  0  0  0  0
   17.0259   -4.1780  -20.3066 C   0  0  2  0  0  0  0  0  0  0  0  0
   16.8190   -3.1328  -21.2819 N   0  0  0  0  0  0  0  0  0  0  0  0
   17.8960   -3.6692  -19.2192 C   0  0  0  0  0  0  0  0  0  0  0  0
   18.6069   -2.6488  -19.3424 O   0  0  0  0  0  0  0  0  0  0  0  0
   15.6419   -7.0688  -21.3355 C   0  0  0  0  0  0  0  0  0  0  0  0
   14.6493   -7.5844  -22.1307 C   0  0  0  0  0  0  0  0  0  0  0  0
   17.9570   -4.3465  -17.9507 N   0  0  0  0  0  0  0  0  0  0  0  0
   18.7976   -3.8739  -16.8682 C   0  0  1  0  0  0  0  0  0  0  0  0
   17.9331   -3.2022  -15.8317 C   0  0  0  0  0  0  0  0  0  0  0  0
   18.8547   -2.8685  -14.3058 S   0  0  0  0  0  0  0  0  0  0  0  0
   19.5854   -4.9852  -16.3501 C   0  0  0  0  0  0  0  0  0  0  0  0
   19.0294   -6.0819  -16.0994 O   0  0  0  0  0  0  0  0  0  0  0  0
   25.1752  -11.3931  -14.9002 O   0  0  0  0  0  0  0  0  0  0  0  0
   24.5553  -10.2287  -15.3367 C   0  0  0  0  0  0  0  0  0  0  0  0
   25.2758   -9.0919  -15.6348 C   0  0  0  0  0  0  0  0  0  0  0  0
   24.6810   -7.9233  -16.0702 C   0  0  0  0  0  0  0  0  0  0  0  0
   23.3109   -7.8657  -16.2213 C   0  0  0  0  0  0  0  0  0  0  0  0
   22.6016   -6.6596  -16.6803 C   0  0  0  0  0  0  0  0  0  0  0  0
   21.7063   -6.0728  -15.6081 C   0  0  2  0  0  0  0  0  0  0  0  0
   20.9924   -4.9162  -16.0976 N   0  0  0  0  0  0  0  0  0  0  0  0
   22.5837   -5.6561  -14.4902 C   0  0  0  0  0  0  0  0  0  0  0  0
   22.8277   -6.5163  -13.4334 O   0  0  0  0  0  0  0  0  0  0  0  0
   22.5773   -8.9950  -15.9270 C   0  0  0  0  0  0  0  0  0  0  0  0
   23.1689  -10.1687  -15.4902 C   0  0  0  0  0  0  0  0  0  0  0  0
   23.1385   -4.5219  -14.4486 O   0  0  0  0  0  0  0  0  0  0  0  0
  2  1  1  0
  3  2  2  0
  4  3  1  0
  5 11  1  0
  5  4  2  0
  6  5  1  0
  7  6  1  0
  7  8  1  6
  9  7  1  0
  9 10  2  0
 11 12  2  0
 12  2  1  0
 13  9  1  0
 14 13  1  0
 14 15  1  1
 16 15  1  0
 17 14  1  0
 18 17  2  0
 20 30  2  0
 20 19  1  0
 21 20  1  0
 22 23  1  0
 22 21  2  0
 23 29  2  0
 25 24  1  6
 24 23  1  0
 25 26  1  0
 26 17  1  0
 27 28  1  0
 27 25  1  0
 29 30  1  0
 31 27  2  0
M  END
$$$$
