YCY.pdb
     RDKit          3D

 31 32  0  0  1  0  0  0  0  0999 V2000
   17.6083  -15.8971  -18.3796 O   0  0  0  0  0  0  0  0  0  0  0  0
   18.4166  -14.8233  -18.0116 C   0  0  0  0  0  0  0  0  0  0  0  0
   18.2255  -13.5959  -18.6040 C   0  0  0  0  0  0  0  0  0  0  0  0
   19.0071  -12.5138  -18.2630 C   0  0  0  0  0  0  0  0  0  0  0  0
   20.0090  -12.6251  -17.3147 C   0  0  0  0  0  0  0  0  0  0  0  0
   20.8101  -11.4372  -16.9923 C   0  0  0  0  0  0  0  0  0  0  0  0
   21.8788  -11.2814  -18.0272 C   0  0  2  0  0  0  0  0  0  0  0  0
   22.8296  -12.3685  -18.0019 N   0  0  0  0  0  0  0  0  0  0  0  0
   22.6052   -9.9919  -17.9365 C   0  0  0  0  0  0  0  0  0  0  0  0
   23.7025   -9.8729  -17.3503 O   0  0  0  0  0  0  0  0  0  0  0  0
   20.1826  -13.8662  -16.7336 C   0  0  0  0  0  0  0  0  0  0  0  0
   19.4099  -14.9507  -17.0656 C   0  0  0  0  0  0  0  0  0  0  0  0
   22.0622   -8.8004  -18.5337 N   0  0  0  0  0  0  0  0  0  0  0  0
   22.7249   -7.5158  -18.4223 C   0  0  1  0  0  0  0  0  0  0  0  0
   23.0416   -7.0044  -19.8047 C   0  0  0  0  0  0  0  0  0  0  0  0
   23.7897   -5.3532  -19.7526 S   0  0  0  0  0  0  0  0  0  0  0  0
   21.8956   -6.6129  -17.6342 C   0  0  0  0  0  0  0  0  0  0  0  0
   20.6575   -6.5679  -17.8332 O   0  0  0  0  0  0  0  0  0  0  0  0
   18.5883   -9.5318  -12.6026 O   0  0  0  0  0  0  0  0  0  0  0  0
   19.3488   -8.4530  -13.0367 C   0  0  0  0  0  0  0  0  0  0  0  0
   20.7253   -8.5095  -13.0859 C   0  0  0  0  0  0  0  0  0  0  0  0
   21.5016   -7.4498  -13.5138 C   0  0  0  0  0  0  0  0  0  0  0  0
   20.8987   -6.2751  -13.9138 C   0  0  0  0  0  0  0  0  0  0  0  0
   21.6545   -5.1014  -14.3827 C   0  0  0  0  0  0  0  0  0  0  0  0
   21.5143   -4.8829  -15.8755 C   0  0  2  0  0  0  0  0  0  0  0  0
   22.4054   -5.7453  -16.6165 N   0  0  0  0  0  0  0  0  0  0  0  0
   21.8796   -3.4730  -16.1439 C   0  0  0  0  0  0  0  0  0  0  0  0
   22.9874   -3.1718  -16.9174 O   0  0  0  0  0  0  0  0  0  0  0  0
   19.5228   -6.2039  -13.8700 C   0  0  0  0  0  0  0  0  0  0  0  0
   18.7404   -7.2635  -13.4418 C   0  0  0  0  0  0  0  0  0  0  0  0
   21.2131   -2.5004  -15.6902 O   0  0  0  0  0  0  0  0  0  0  0  0
  2  1  1  0
  3  2  2  0
  4  3  1  0
  5 11  1  0
  5  4  2  0
  6  5  1  0
  7  6  1  0
  7  8  1  1
  9  7  1  0
  9 10  2  0
 11 12  2  0
 12  2  1  0
 13  9  1  0
 14 13  1  0
 14 15  1  6
 16 15  1  0
 17 14  1  0
 18 17  2  0
 20 30  2  0
 20 19  1  0
 21 20  1  0
 22 23  1  0
 22 21  2  0
 23 29  2  0
 25 24  1  1
 24 23  1  0
 25 26  1  0
 26 17  1  0
 27 28  1  0
 27 25  1  0
 29 30  1  0
 31 27  2  0
M  END
$$$$
