YCY.pdb
     RDKit          3D

 31 32  0  0  1  0  0  0  0  0999 V2000
   32.1032  -16.1581  -19.2962 O   0  0  0  0  0  0  0  0  0  0  0  0
   30.7166  -16.2064  -19.4253 C   0  0  0  0  0  0  0  0  0  0  0  0
   29.9743  -16.9186  -18.5111 C   0  0  0  0  0  0  0  0  0  0  0  0
   28.6019  -16.9866  -18.6100 C   0  0  0  0  0  0  0  0  0  0  0  0
   27.9250  -16.3418  -19.6305 C   0  0  0  0  0  0  0  0  0  0  0  0
   26.4614  -16.4500  -19.6847 C   0  0  0  0  0  0  0  0  0  0  0  0
   26.0958  -17.8481  -20.0710 C   0  0  2  0  0  0  0  0  0  0  0  0
   26.7372  -18.2640  -21.2966 N   0  0  0  0  0  0  0  0  0  0  0  0
   24.6335  -18.0663  -20.1839 C   0  0  0  0  0  0  0  0  0  0  0  0
   23.9816  -17.7679  -21.2076 O   0  0  0  0  0  0  0  0  0  0  0  0
   28.6904  -15.6331  -20.5362 C   0  0  0  0  0  0  0  0  0  0  0  0
   30.0579  -15.5587  -20.4473 C   0  0  0  0  0  0  0  0  0  0  0  0
   23.8916  -18.6434  -19.0941 N   0  0  0  0  0  0  0  0  0  0  0  0
   22.4674  -18.8991  -19.1858 C   0  0  1  0  0  0  0  0  0  0  0  0
   22.2424  -20.3833  -19.3243 C   0  0  0  0  0  0  0  0  0  0  0  0
   23.7997  -21.2749  -19.5866 S   0  0  0  0  0  0  0  0  0  0  0  0
   21.7966  -18.3047  -18.0365 C   0  0  0  0  0  0  0  0  0  0  0  0
   22.4291  -18.1258  -16.9675 O   0  0  0  0  0  0  0  0  0  0  0  0
   16.4720  -14.9694  -21.8693 O   0  0  0  0  0  0  0  0  0  0  0  0
   17.2645  -15.1516  -20.7427 C   0  0  0  0  0  0  0  0  0  0  0  0
   18.6380  -15.2333  -20.8280 C   0  0  0  0  0  0  0  0  0  0  0  0
   19.4457  -15.4141  -19.7218 C   0  0  0  0  0  0  0  0  0  0  0  0
   18.8790  -15.5203  -18.4684 C   0  0  0  0  0  0  0  0  0  0  0  0
   19.6697  -15.7136  -17.2412 C   0  0  0  0  0  0  0  0  0  0  0  0
   19.8745  -17.1781  -16.9107 C   0  0  2  0  0  0  0  0  0  0  0  0
   20.4249  -17.8966  -18.0366 N   0  0  0  0  0  0  0  0  0  0  0  0
   18.5429  -17.7406  -16.5884 C   0  0  0  0  0  0  0  0  0  0  0  0
   18.0209  -18.7790  -17.3404 O   0  0  0  0  0  0  0  0  0  0  0  0
   17.5066  -15.4406  -18.3676 C   0  0  0  0  0  0  0  0  0  0  0  0
   16.6927  -15.2594  -19.4735 C   0  0  0  0  0  0  0  0  0  0  0  0
   17.8363  -17.3095  -15.6341 O   0  0  0  0  0  0  0  0  0  0  0  0
  2  1  1  0
  3  2  2  0
  4  3  1  0
  5 11  1  0
  5  4  2  0
  6  5  1  0
  7  6  1  0
  7  8  1  6
  9  7  1  0
  9 10  2  0
 11 12  2  0
 12  2  1  0
 13  9  1  0
 14 13  1  0
 14 15  1  1
 16 15  1  0
 17 14  1  0
 18 17  2  0
 20 30  2  0
 20 19  1  0
 21 20  1  0
 22 23  1  0
 22 21  2  0
 23 29  2  0
 25 24  1  6
 24 23  1  0
 25 26  1  0
 26 17  1  0
 27 28  1  0
 27 25  1  0
 29 30  1  0
 31 27  2  0
M  END
$$$$
