LWN.pdb
     RDKit          3D

 31 32  0  0  1  0  0  0  0  0999 V2000
    8.2488  -12.4495   18.6050 C   0  0  0  0  0  0  0  0  0  0  0  0
    7.7349  -13.6431   19.3568 C   0  0  2  0  0  0  0  0  0  0  0  0
    6.2621  -13.3818   19.6530 C   0  0  0  0  0  0  0  0  0  0  0  0
    8.4404  -13.7945   20.7006 C   0  0  0  0  0  0  0  0  0  0  0  0
    8.7855  -15.2222   20.9695 C   0  0  2  0  0  0  0  0  0  0  0  0
    7.7008  -16.1293   20.7061 N   0  0  0  0  0  0  0  0  0  0  0  0
    9.3024  -15.3438   22.3554 C   0  0  0  0  0  0  0  0  0  0  0  0
   10.1454  -14.4974   22.7490 O   0  0  0  0  0  0  0  0  0  0  0  0
    8.9008  -16.3543   23.2522 N   0  0  0  0  0  0  0  0  0  0  0  0
    9.3924  -16.3846   24.5948 C   0  0  1  0  0  0  0  0  0  0  0  0
    8.3725  -16.5550   25.6634 C   0  0  0  0  0  0  0  0  0  0  0  0
    7.3382  -15.5152   25.7109 C   0  0  0  0  0  0  0  0  0  0  0  0
    6.0110  -15.6676   25.3652 C   0  0  0  0  0  0  0  0  0  0  0  0
    5.3611  -14.5077   25.5155 N   0  0  0  0  0  0  0  0  0  0  0  0
    6.2193  -13.5541   25.9610 C   0  0  0  0  0  0  0  0  0  0  0  0
    6.0392  -12.2262   26.2700 C   0  0  0  0  0  0  0  0  0  0  0  0
    7.1120  -11.4999   26.7137 C   0  0  0  0  0  0  0  0  0  0  0  0
    8.3366  -12.1177   26.8376 C   0  0  0  0  0  0  0  0  0  0  0  0
    8.5112  -13.4433   26.5277 C   0  0  0  0  0  0  0  0  0  0  0  0
    7.4576  -14.1949   26.0812 C   0  0  0  0  0  0  0  0  0  0  0  0
   10.5234  -17.3483   24.6569 C   0  0  0  0  0  0  0  0  0  0  0  0
   10.3913  -18.5384   24.2254 O   0  0  0  0  0  0  0  0  0  0  0  0
   13.7714  -17.4121   22.9384 N   0  0  0  0  0  0  0  0  0  0  0  0
   14.5483  -17.0629   24.0684 C   0  0  0  0  0  0  0  0  0  0  0  0
   15.6274  -16.4529   23.8792 O   0  0  0  0  0  0  0  0  0  0  0  0
   14.1496  -17.3817   25.4531 C   0  0  0  0  0  0  0  0  0  0  0  0
   12.7778  -18.0698   25.5158 C   0  0  2  0  0  0  0  0  0  0  0  0
   11.8066  -17.0340   25.1838 N   0  0  0  0  0  0  0  0  0  0  0  0
   12.5166  -18.6587   26.8415 C   0  0  0  0  0  0  0  0  0  0  0  0
   13.1320  -19.8097   27.3000 O   0  0  0  0  0  0  0  0  0  0  0  0
   11.6963  -18.0982   27.6029 O   0  0  0  0  0  0  0  0  0  0  0  0
  2  1  1  1
  2  3  1  0
  4  5  1  0
  4  2  1  0
  5  6  1  1
  7  5  1  0
  7  8  2  0
  9  7  1  0
 10  9  1  0
 10 11  1  1
 12 11  1  0
 13 12  2  0
 14 13  1  0
 15 14  1  0
 15 20  2  0
 16 15  1  0
 17 16  2  0
 17 18  1  0
 18 19  2  0
 19 20  1  0
 20 12  1  0
 21 10  1  0
 22 21  2  0
 23 24  1  0
 24 26  1  0
 24 25  2  0
 27 26  1  1
 27 28  1  0
 27 29  1  0
 28 21  1  0
 29 30  1  0
 31 29  2  0
M  END
$$$$
