LWN.pdb
     RDKit          3D

 31 32  0  0  1  0  0  0  0  0999 V2000
    9.7279  -20.4990   19.1327 C   0  0  0  0  0  0  0  0  0  0  0  0
   11.0792  -19.9218   19.4409 C   0  0  2  0  0  0  0  0  0  0  0  0
   11.9635  -21.0780   19.8952 C   0  0  0  0  0  0  0  0  0  0  0  0
   11.0059  -18.9337   20.6004 C   0  0  0  0  0  0  0  0  0  0  0  0
   10.2221  -17.7197   20.2242 C   0  0  2  0  0  0  0  0  0  0  0  0
   10.7485  -17.0364   19.0732 N   0  0  0  0  0  0  0  0  0  0  0  0
   10.1063  -16.8309   21.4072 C   0  0  0  0  0  0  0  0  0  0  0  0
   11.0266  -15.9991   21.6148 O   0  0  0  0  0  0  0  0  0  0  0  0
    9.0233  -16.8686   22.3085 N   0  0  0  0  0  0  0  0  0  0  0  0
    8.9680  -15.9826   23.4298 C   0  0  1  0  0  0  0  0  0  0  0  0
    7.6135  -15.5242   23.8376 C   0  0  0  0  0  0  0  0  0  0  0  0
    7.5859  -14.3007   24.6472 C   0  0  0  0  0  0  0  0  0  0  0  0
    7.1151  -13.0671   24.2465 C   0  0  0  0  0  0  0  0  0  0  0  0
    7.2592  -12.1771   25.2351 N   0  0  0  0  0  0  0  0  0  0  0  0
    7.8227  -12.7769   26.3154 C   0  0  0  0  0  0  0  0  0  0  0  0
    8.1632  -12.2997   27.5593 C   0  0  0  0  0  0  0  0  0  0  0  0
    8.7210  -13.1601   28.4670 C   0  0  0  0  0  0  0  0  0  0  0  0
    8.9244  -14.4745   28.1096 C   0  0  0  0  0  0  0  0  0  0  0  0
    8.5830  -14.9459   26.8666 C   0  0  0  0  0  0  0  0  0  0  0  0
    8.0242  -14.1094   25.9380 C   0  0  0  0  0  0  0  0  0  0  0  0
    9.7822  -16.5674   24.5284 C   0  0  0  0  0  0  0  0  0  0  0  0
    9.5344  -17.7333   24.9750 O   0  0  0  0  0  0  0  0  0  0  0  0
   13.1409  -17.7966   24.2104 N   0  0  0  0  0  0  0  0  0  0  0  0
   13.7620  -16.7724   24.9638 C   0  0  0  0  0  0  0  0  0  0  0  0
   14.9516  -16.4796   24.6968 O   0  0  0  0  0  0  0  0  0  0  0  0
   13.0779  -16.0359   26.0445 C   0  0  0  0  0  0  0  0  0  0  0  0
   11.6293  -16.5082   26.2387 C   0  0  2  0  0  0  0  0  0  0  0  0
   10.8716  -15.8987   25.1521 N   0  0  0  0  0  0  0  0  0  0  0  0
   11.0967  -16.1242   27.5584 C   0  0  0  0  0  0  0  0  0  0  0  0
   11.4130  -16.7863   28.7311 O   0  0  0  0  0  0  0  0  0  0  0  0
   10.3152  -15.1496   27.6365 O   0  0  0  0  0  0  0  0  0  0  0  0
  2  1  1  1
  2  3  1  0
  4  5  1  0
  4  2  1  0
  5  6  1  6
  7  5  1  0
  7  8  2  0
  9  7  1  0
 10  9  1  0
 10 11  1  1
 12 11  1  0
 13 12  2  0
 14 13  1  0
 15 14  1  0
 15 20  2  0
 16 15  1  0
 17 16  2  0
 17 18  1  0
 18 19  2  0
 19 20  1  0
 20 12  1  0
 21 10  1  0
 22 21  2  0
 23 24  1  0
 24 26  1  0
 24 25  2  0
 27 26  1  1
 27 28  1  0
 27 29  1  0
 28 21  1  0
 29 30  1  0
 31 29  2  0
M  END
$$$$
