LWN.pdb
     RDKit          3D

 31 32  0  0  1  0  0  0  0  0999 V2000
    8.4034  -14.1061   18.1421 C   0  0  0  0  0  0  0  0  0  0  0  0
    7.4368  -13.7448   19.2326 C   0  0  2  0  0  0  0  0  0  0  0  0
    7.0511  -12.2851   19.0193 C   0  0  0  0  0  0  0  0  0  0  0  0
    8.0944  -13.8367   20.6057 C   0  0  0  0  0  0  0  0  0  0  0  0
    8.5065  -15.2387   20.9124 C   0  0  2  0  0  0  0  0  0  0  0  0
    7.4401  -16.1917   20.7598 N   0  0  0  0  0  0  0  0  0  0  0  0
    9.1150  -15.2808   22.2654 C   0  0  0  0  0  0  0  0  0  0  0  0
    9.9523  -14.3914   22.5656 O   0  0  0  0  0  0  0  0  0  0  0  0
    8.8062  -16.2611   23.2298 N   0  0  0  0  0  0  0  0  0  0  0  0
    9.4506  -16.2661   24.5066 C   0  0  1  0  0  0  0  0  0  0  0  0
    8.5651  -16.4442   25.6878 C   0  0  0  0  0  0  0  0  0  0  0  0
    7.4533  -15.4914   25.7840 C   0  0  0  0  0  0  0  0  0  0  0  0
    6.1328  -15.7436   25.4733 C   0  0  0  0  0  0  0  0  0  0  0  0
    5.3975  -14.6421   25.6637 N   0  0  0  0  0  0  0  0  0  0  0  0
    6.1901  -13.6303   26.1025 C   0  0  0  0  0  0  0  0  0  0  0  0
    5.9144  -12.3264   26.4412 C   0  0  0  0  0  0  0  0  0  0  0  0
    6.9388  -11.5240   26.8679 C   0  0  0  0  0  0  0  0  0  0  0  0
    8.2117  -12.0439   26.9455 C   0  0  0  0  0  0  0  0  0  0  0  0
    8.4818  -13.3460   26.6059 C   0  0  0  0  0  0  0  0  0  0  0  0
    7.4784  -14.1720   26.1755 C   0  0  0  0  0  0  0  0  0  0  0  0
   10.6011  -17.2065   24.4459 C   0  0  0  0  0  0  0  0  0  0  0  0
   10.4294  -18.4587   24.5968 O   0  0  0  0  0  0  0  0  0  0  0  0
   13.2224  -17.3807   21.4729 N   0  0  0  0  0  0  0  0  0  0  0  0
   14.1640  -16.7298   22.3049 C   0  0  0  0  0  0  0  0  0  0  0  0
   14.9384  -15.8941   21.7815 O   0  0  0  0  0  0  0  0  0  0  0  0
   14.2765  -16.9877   23.7537 C   0  0  0  0  0  0  0  0  0  0  0  0
   13.0571  -17.7432   24.3029 C   0  0  2  0  0  0  0  0  0  0  0  0
   11.9460  -16.8025   24.2201 N   0  0  0  0  0  0  0  0  0  0  0  0
   13.2747  -18.2113   25.6835 C   0  0  0  0  0  0  0  0  0  0  0  0
   13.1618  -17.3935   26.7934 O   0  0  0  0  0  0  0  0  0  0  0  0
   13.5789  -19.4101   25.8763 O   0  0  0  0  0  0  0  0  0  0  0  0
  2  1  1  6
  2  3  1  0
  4  5  1  0
  4  2  1  0
  5  6  1  1
  7  5  1  0
  7  8  2  0
  9  7  1  0
 10  9  1  0
 10 11  1  1
 12 11  1  0
 13 12  2  0
 14 13  1  0
 15 14  1  0
 15 20  2  0
 16 15  1  0
 17 16  2  0
 17 18  1  0
 18 19  2  0
 19 20  1  0
 20 12  1  0
 21 10  1  0
 22 21  2  0
 23 24  1  0
 24 26  1  0
 24 25  2  0
 27 26  1  1
 27 28  1  0
 27 29  1  0
 28 21  1  0
 29 30  1  0
 31 29  2  0
M  END
$$$$
