LWN.pdb
     RDKit          3D

 31 32  0  0  1  0  0  0  0  0999 V2000
    8.3225  -14.2001   18.2817 C   0  0  0  0  0  0  0  0  0  0  0  0
    7.5306  -13.6934   19.4523 C   0  0  2  0  0  0  0  0  0  0  0  0
    7.2579  -12.2148   19.1983 C   0  0  0  0  0  0  0  0  0  0  0  0
    8.3364  -13.7833   20.7441 C   0  0  0  0  0  0  0  0  0  0  0  0
    8.6704  -15.2010   21.0727 C   0  0  2  0  0  0  0  0  0  0  0  0
    7.5536  -16.0963   20.9311 N   0  0  0  0  0  0  0  0  0  0  0  0
    9.2729  -15.2562   22.4280 C   0  0  0  0  0  0  0  0  0  0  0  0
   10.1772  -14.4279   22.7077 O   0  0  0  0  0  0  0  0  0  0  0  0
    8.8873  -16.1842   23.4162 N   0  0  0  0  0  0  0  0  0  0  0  0
    9.5115  -16.1910   24.7030 C   0  0  1  0  0  0  0  0  0  0  0  0
    8.6017  -16.3108   25.8730 C   0  0  0  0  0  0  0  0  0  0  0  0
    7.5203  -15.3204   25.9270 C   0  0  0  0  0  0  0  0  0  0  0  0
    6.1834  -15.5571   25.6805 C   0  0  0  0  0  0  0  0  0  0  0  0
    5.4855  -14.4223   25.8040 N   0  0  0  0  0  0  0  0  0  0  0  0
    6.3200  -13.4027   26.1332 C   0  0  0  0  0  0  0  0  0  0  0  0
    6.0918  -12.0680   26.3733 C   0  0  0  0  0  0  0  0  0  0  0  0
    7.1518  -11.2649   26.6999 C   0  0  0  0  0  0  0  0  0  0  0  0
    8.4120  -11.8148   26.7786 C   0  0  0  0  0  0  0  0  0  0  0  0
    8.6346  -13.1476   26.5378 C   0  0  0  0  0  0  0  0  0  0  0  0
    7.5949  -13.9751   26.2086 C   0  0  0  0  0  0  0  0  0  0  0  0
   10.6236  -17.1781   24.6779 C   0  0  0  0  0  0  0  0  0  0  0  0
   10.4257  -18.3748   24.2920 O   0  0  0  0  0  0  0  0  0  0  0  0
   14.5675  -15.3097   23.3373 N   0  0  0  0  0  0  0  0  0  0  0  0
   14.3419  -16.6842   23.5867 C   0  0  0  0  0  0  0  0  0  0  0  0
   14.1625  -17.4425   22.6043 O   0  0  0  0  0  0  0  0  0  0  0  0
   14.3082  -17.2644   24.9433 C   0  0  0  0  0  0  0  0  0  0  0  0
   12.9576  -17.9259   25.2557 C   0  0  2  0  0  0  0  0  0  0  0  0
   11.9587  -16.8804   25.0676 N   0  0  0  0  0  0  0  0  0  0  0  0
   12.9179  -18.4799   26.6210 C   0  0  0  0  0  0  0  0  0  0  0  0
   12.0117  -18.0731   27.5837 O   0  0  0  0  0  0  0  0  0  0  0  0
   13.7427  -19.3658   26.9400 O   0  0  0  0  0  0  0  0  0  0  0  0
  2  1  1  6
  2  3  1  0
  4  5  1  0
  4  2  1  0
  5  6  1  1
  7  5  1  0
  7  8  2  0
  9  7  1  0
 10  9  1  0
 10 11  1  1
 12 11  1  0
 13 12  2  0
 14 13  1  0
 15 14  1  0
 15 20  2  0
 16 15  1  0
 17 16  2  0
 17 18  1  0
 18 19  2  0
 19 20  1  0
 20 12  1  0
 21 10  1  0
 22 21  2  0
 23 24  1  0
 24 26  1  0
 24 25  2  0
 27 26  1  1
 27 28  1  0
 27 29  1  0
 28 21  1  0
 29 30  1  0
 31 29  2  0
M  END
$$$$
