LWN.pdb
     RDKit          3D

 31 32  0  0  1  0  0  0  0  0999 V2000
    8.0543  -14.0776   18.3350 C   0  0  0  0  0  0  0  0  0  0  0  0
    7.1852  -13.7056   19.5014 C   0  0  2  0  0  0  0  0  0  0  0  0
    6.7984  -12.2420   19.3189 C   0  0  0  0  0  0  0  0  0  0  0  0
    7.9534  -13.8037   20.8154 C   0  0  0  0  0  0  0  0  0  0  0  0
    8.3872  -15.2074   21.0818 C   0  0  2  0  0  0  0  0  0  0  0  0
    7.3104  -16.1585   21.0141 N   0  0  0  0  0  0  0  0  0  0  0  0
    9.1053  -15.2556   22.3798 C   0  0  0  0  0  0  0  0  0  0  0  0
   10.0743  -14.4718   22.5494 O   0  0  0  0  0  0  0  0  0  0  0  0
    8.7608  -16.1300   23.4302 N   0  0  0  0  0  0  0  0  0  0  0  0
    9.4936  -16.1295   24.6583 C   0  0  1  0  0  0  0  0  0  0  0  0
    8.6916  -16.2832   25.9010 C   0  0  0  0  0  0  0  0  0  0  0  0
    7.5708  -15.3466   26.0406 C   0  0  0  0  0  0  0  0  0  0  0  0
    6.2336  -15.6427   25.8726 C   0  0  0  0  0  0  0  0  0  0  0  0
    5.4927  -14.5446   26.0608 N   0  0  0  0  0  0  0  0  0  0  0  0
    6.2978  -13.4919   26.3574 C   0  0  0  0  0  0  0  0  0  0  0  0
    6.0231  -12.1737   26.6368 C   0  0  0  0  0  0  0  0  0  0  0  0
    7.0630  -11.3265   26.9129 C   0  0  0  0  0  0  0  0  0  0  0  0
    8.3499  -11.8168   26.9031 C   0  0  0  0  0  0  0  0  0  0  0  0
    8.6188  -13.1334   26.6234 C   0  0  0  0  0  0  0  0  0  0  0  0
    7.6001  -14.0040   26.3430 C   0  0  0  0  0  0  0  0  0  0  0  0
   10.6255  -17.0854   24.5278 C   0  0  0  0  0  0  0  0  0  0  0  0
   10.4368  -18.2639   24.0855 O   0  0  0  0  0  0  0  0  0  0  0  0
   14.3521  -15.0981   22.9425 N   0  0  0  0  0  0  0  0  0  0  0  0
   14.2560  -16.4881   23.1896 C   0  0  0  0  0  0  0  0  0  0  0  0
   14.1161  -17.2556   22.2080 O   0  0  0  0  0  0  0  0  0  0  0  0
   14.3124  -17.0741   24.5430 C   0  0  0  0  0  0  0  0  0  0  0  0
   13.0095  -17.7978   24.9144 C   0  0  2  0  0  0  0  0  0  0  0  0
   11.9702  -16.7758   24.8722 N   0  0  0  0  0  0  0  0  0  0  0  0
   13.0928  -18.4376   26.2396 C   0  0  0  0  0  0  0  0  0  0  0  0
   12.2444  -18.1330   27.2889 O   0  0  0  0  0  0  0  0  0  0  0  0
   13.9738  -19.3039   26.4402 O   0  0  0  0  0  0  0  0  0  0  0  0
  2  1  1  6
  2  3  1  0
  4  5  1  0
  4  2  1  0
  5  6  1  1
  7  5  1  0
  7  8  2  0
  9  7  1  0
 10  9  1  0
 10 11  1  1
 12 11  1  0
 13 12  2  0
 14 13  1  0
 15 14  1  0
 15 20  2  0
 16 15  1  0
 17 16  2  0
 17 18  1  0
 18 19  2  0
 19 20  1  0
 20 12  1  0
 21 10  1  0
 22 21  2  0
 23 24  1  0
 24 26  1  0
 24 25  2  0
 27 26  1  1
 27 28  1  0
 27 29  1  0
 28 21  1  0
 29 30  1  0
 31 29  2  0
M  END
$$$$
