LWN.pdb
     RDKit          3D

 31 32  0  0  1  0  0  0  0  0999 V2000
    7.9308  -12.4387   18.6959 C   0  0  0  0  0  0  0  0  0  0  0  0
    7.7271  -13.6593   19.5459 C   0  0  2  0  0  0  0  0  0  0  0  0
    6.5085  -13.3923   20.4228 C   0  0  0  0  0  0  0  0  0  0  0  0
    8.9101  -13.8835   20.4821 C   0  0  0  0  0  0  0  0  0  0  0  0
    8.9451  -15.2916   20.9776 C   0  0  2  0  0  0  0  0  0  0  0  0
    7.6600  -15.9371   20.9492 N   0  0  0  0  0  0  0  0  0  0  0  0
    9.5620  -15.3161   22.3273 C   0  0  0  0  0  0  0  0  0  0  0  0
   10.5273  -14.5413   22.5508 O   0  0  0  0  0  0  0  0  0  0  0  0
    9.1258  -16.1586   23.3696 N   0  0  0  0  0  0  0  0  0  0  0  0
    9.7556  -16.1279   24.6532 C   0  0  1  0  0  0  0  0  0  0  0  0
    8.8536  -16.2432   25.8297 C   0  0  0  0  0  0  0  0  0  0  0  0
    7.7126  -15.3205   25.8344 C   0  0  0  0  0  0  0  0  0  0  0  0
    6.4029  -15.6404   25.5406 C   0  0  0  0  0  0  0  0  0  0  0  0
    5.6329  -14.5496   25.6277 N   0  0  0  0  0  0  0  0  0  0  0  0
    6.3907  -13.4786   25.9784 C   0  0  0  0  0  0  0  0  0  0  0  0
    6.0727  -12.1588   26.1977 C   0  0  0  0  0  0  0  0  0  0  0  0
    7.0688  -11.2901   26.5562 C   0  0  0  0  0  0  0  0  0  0  0  0
    8.3563  -11.7612   26.6867 C   0  0  0  0  0  0  0  0  0  0  0  0
    8.6686  -13.0794   26.4665 C   0  0  0  0  0  0  0  0  0  0  0  0
    7.6944  -13.9713   26.1064 C   0  0  0  0  0  0  0  0  0  0  0  0
   10.8873  -17.0927   24.6419 C   0  0  0  0  0  0  0  0  0  0  0  0
   10.6860  -18.3326   24.4365 O   0  0  0  0  0  0  0  0  0  0  0  0
   14.4837  -15.2221   22.8206 N   0  0  0  0  0  0  0  0  0  0  0  0
   14.5373  -16.5862   23.1930 C   0  0  0  0  0  0  0  0  0  0  0  0
   14.5352  -17.4488   22.2829 O   0  0  0  0  0  0  0  0  0  0  0  0
   14.5953  -17.0391   24.5965 C   0  0  0  0  0  0  0  0  0  0  0  0
   13.2928  -17.7235   25.0373 C   0  0  2  0  0  0  0  0  0  0  0  0
   12.2457  -16.7261   24.8505 N   0  0  0  0  0  0  0  0  0  0  0  0
   13.3604  -18.1894   26.4341 C   0  0  0  0  0  0  0  0  0  0  0  0
   12.5282  -17.7222   27.4355 O   0  0  0  0  0  0  0  0  0  0  0  0
   14.2117  -19.0529   26.7446 O   0  0  0  0  0  0  0  0  0  0  0  0
  2  1  1  6
  2  3  1  0
  4  5  1  0
  4  2  1  0
  5  6  1  1
  7  5  1  0
  7  8  2  0
  9  7  1  0
 10  9  1  0
 10 11  1  1
 12 11  1  0
 13 12  2  0
 14 13  1  0
 15 14  1  0
 15 20  2  0
 16 15  1  0
 17 16  2  0
 17 18  1  0
 18 19  2  0
 19 20  1  0
 20 12  1  0
 21 10  1  0
 22 21  2  0
 23 24  1  0
 24 26  1  0
 24 25  2  0
 27 26  1  1
 27 28  1  0
 27 29  1  0
 28 21  1  0
 29 30  1  0
 31 29  2  0
M  END
$$$$
