LWN.pdb
     RDKit          3D

 31 32  0  0  1  0  0  0  0  0999 V2000
    8.0764  -12.6327   18.8777 C   0  0  0  0  0  0  0  0  0  0  0  0
    7.9086  -13.8337   19.7629 C   0  0  2  0  0  0  0  0  0  0  0  0
    6.5815  -13.6649   20.4946 C   0  0  0  0  0  0  0  0  0  0  0  0
    9.0004  -13.8922   20.8264 C   0  0  0  0  0  0  0  0  0  0  0  0
    9.2244  -15.2933   21.2913 C   0  0  2  0  0  0  0  0  0  0  0  0
    8.0601  -16.1282   21.1642 N   0  0  0  0  0  0  0  0  0  0  0  0
    9.7538  -15.2659   22.6776 C   0  0  0  0  0  0  0  0  0  0  0  0
   10.6765  -14.4534   22.9427 O   0  0  0  0  0  0  0  0  0  0  0  0
    9.2795  -16.0993   23.7106 N   0  0  0  0  0  0  0  0  0  0  0  0
    9.8363  -16.0301   25.0261 C   0  0  1  0  0  0  0  0  0  0  0  0
    8.8755  -16.1629   26.1531 C   0  0  0  0  0  0  0  0  0  0  0  0
    7.6782  -15.3203   26.0554 C   0  0  0  0  0  0  0  0  0  0  0  0
    6.4237  -15.7283   25.6505 C   0  0  0  0  0  0  0  0  0  0  0  0
    5.5765  -14.6928   25.6664 N   0  0  0  0  0  0  0  0  0  0  0  0
    6.2263  -13.5732   26.0772 C   0  0  0  0  0  0  0  0  0  0  0  0
    5.8012  -12.2787   26.2629 C   0  0  0  0  0  0  0  0  0  0  0  0
    6.7009  -11.3447   26.7029 C   0  0  0  0  0  0  0  0  0  0  0  0
    8.0014  -11.7270   26.9462 C   0  0  0  0  0  0  0  0  0  0  0  0
    8.4207  -13.0204   26.7591 C   0  0  0  0  0  0  0  0  0  0  0  0
    7.5445  -13.9760   26.3195 C   0  0  0  0  0  0  0  0  0  0  0  0
   11.0000  -16.9540   25.0903 C   0  0  0  0  0  0  0  0  0  0  0  0
   11.1454  -17.7535   26.0700 O   0  0  0  0  0  0  0  0  0  0  0  0
   12.1309  -21.4176   22.2071 N   0  0  0  0  0  0  0  0  0  0  0  0
   12.3654  -20.6567   23.3770 C   0  0  0  0  0  0  0  0  0  0  0  0
   13.1441  -21.1246   24.2412 O   0  0  0  0  0  0  0  0  0  0  0  0
   11.7389  -19.3439   23.6262 C   0  0  0  0  0  0  0  0  0  0  0  0
   12.7818  -18.2411   23.8619 C   0  0  2  0  0  0  0  0  0  0  0  0
   12.0150  -17.0232   24.0963 N   0  0  0  0  0  0  0  0  0  0  0  0
   13.6996  -18.0968   22.7176 C   0  0  0  0  0  0  0  0  0  0  0  0
   13.2922  -17.6936   21.4586 O   0  0  0  0  0  0  0  0  0  0  0  0
   14.9147  -18.3500   22.8795 O   0  0  0  0  0  0  0  0  0  0  0  0
  2  1  1  6
  2  3  1  0
  4  5  1  0
  4  2  1  0
  5  6  1  1
  7  5  1  0
  7  8  2  0
  9  7  1  0
 10  9  1  0
 10 11  1  1
 12 11  1  0
 13 12  2  0
 14 13  1  0
 15 14  1  0
 15 20  2  0
 16 15  1  0
 17 16  2  0
 17 18  1  0
 18 19  2  0
 19 20  1  0
 20 12  1  0
 21 10  1  0
 22 21  2  0
 23 24  1  0
 24 26  1  0
 24 25  2  0
 27 26  1  6
 27 28  1  0
 27 29  1  0
 28 21  1  0
 29 30  1  0
 31 29  2  0
M  END
$$$$
