LWN.pdb
     RDKit          3D

 31 32  0  0  1  0  0  0  0  0999 V2000
    8.6352  -13.9586   18.5294 C   0  0  0  0  0  0  0  0  0  0  0  0
    7.6463  -13.7192   19.6335 C   0  0  2  0  0  0  0  0  0  0  0  0
    7.1640  -12.2794   19.4941 C   0  0  0  0  0  0  0  0  0  0  0  0
    8.3082  -13.8378   21.0024 C   0  0  0  0  0  0  0  0  0  0  0  0
    8.8803  -15.2016   21.2074 C   0  0  2  0  0  0  0  0  0  0  0  0
    7.9312  -16.2575   20.9772 N   0  0  0  0  0  0  0  0  0  0  0  0
    9.4917  -15.2736   22.5579 C   0  0  0  0  0  0  0  0  0  0  0  0
   10.3528  -14.4095   22.8644 O   0  0  0  0  0  0  0  0  0  0  0  0
    9.1604  -16.2555   23.5133 N   0  0  0  0  0  0  0  0  0  0  0  0
    9.7780  -16.2652   24.8031 C   0  0  1  0  0  0  0  0  0  0  0  0
    8.8600  -16.3528   25.9695 C   0  0  0  0  0  0  0  0  0  0  0  0
    7.7592  -15.3826   25.9720 C   0  0  0  0  0  0  0  0  0  0  0  0
    6.4323  -15.6526   25.7065 C   0  0  0  0  0  0  0  0  0  0  0  0
    5.7107  -14.5284   25.7817 N   0  0  0  0  0  0  0  0  0  0  0  0
    6.5190  -13.4833   26.0960 C   0  0  0  0  0  0  0  0  0  0  0  0
    6.2607  -12.1467   26.2908 C   0  0  0  0  0  0  0  0  0  0  0  0
    7.2986  -11.3137   26.6137 C   0  0  0  0  0  0  0  0  0  0  0  0
    8.5671  -11.8362   26.7340 C   0  0  0  0  0  0  0  0  0  0  0  0
    8.8196  -13.1710   26.5383 C   0  0  0  0  0  0  0  0  0  0  0  0
    7.8026  -14.0282   26.2140 C   0  0  0  0  0  0  0  0  0  0  0  0
   10.8667  -17.2785   24.7925 C   0  0  0  0  0  0  0  0  0  0  0  0
   11.3933  -17.6820   25.8787 O   0  0  0  0  0  0  0  0  0  0  0  0
   10.2078  -20.4941   23.6217 N   0  0  0  0  0  0  0  0  0  0  0  0
   11.0958  -20.5518   22.5215 C   0  0  0  0  0  0  0  0  0  0  0  0
   10.8364  -21.3533   21.5928 O   0  0  0  0  0  0  0  0  0  0  0  0
   12.3078  -19.7162   22.4166 C   0  0  0  0  0  0  0  0  0  0  0  0
   12.4982  -18.8168   23.6472 C   0  0  2  0  0  0  0  0  0  0  0  0
   11.3941  -17.8652   23.6091 N   0  0  0  0  0  0  0  0  0  0  0  0
   13.8059  -18.1369   23.6358 C   0  0  0  0  0  0  0  0  0  0  0  0
   13.9537  -16.7689   23.4927 O   0  0  0  0  0  0  0  0  0  0  0  0
   14.8463  -18.8216   23.7608 O   0  0  0  0  0  0  0  0  0  0  0  0
  2  1  1  6
  2  3  1  0
  4  5  1  0
  4  2  1  0
  5  6  1  1
  7  5  1  0
  7  8  2  0
  9  7  1  0
 10  9  1  0
 10 11  1  1
 12 11  1  0
 13 12  2  0
 14 13  1  0
 15 14  1  0
 15 20  2  0
 16 15  1  0
 17 16  2  0
 17 18  1  0
 18 19  2  0
 19 20  1  0
 20 12  1  0
 21 10  1  0
 22 21  2  0
 23 24  1  0
 24 26  1  0
 24 25  2  0
 27 26  1  6
 27 28  1  0
 27 29  1  0
 28 21  1  0
 29 30  1  0
 31 29  2  0
M  END
$$$$
