IVP.pdb
     RDKit          3D

 23 23  0  0  1  0  0  0  0  0999 V2000
   19.5792  -31.0097  -11.0954 C   0  0  0  0  0  0  0  0  0  0  0  0
   20.9948  -31.2382  -11.5351 C   0  0  0  0  0  0  0  0  0  0  0  0
   21.6610  -32.2656  -10.6841 C   0  0  2  0  0  0  0  0  0  0  0  0
   21.4062  -31.9884   -9.2215 C   0  0  0  0  0  0  0  0  0  0  0  0
   23.0916  -32.5341  -10.9869 C   0  0  2  0  0  0  0  0  0  0  0  0
   23.1548  -33.1046  -12.3458 N   0  0  0  0  0  0  0  0  0  0  0  0
   23.7815  -33.4710  -10.1031 C   0  0  0  0  0  0  0  0  0  0  0  0
   23.6414  -34.7468  -10.2114 O   0  0  0  0  0  0  0  0  0  0  0  0
   26.9102  -34.5740  -10.2225 C   0  0  0  0  0  0  0  0  0  0  0  0
   26.8576  -34.1024   -8.7888 C   0  0  1  0  0  0  0  0  0  0  0  0
   27.6455  -32.8004   -8.7007 C   0  0  0  0  0  0  0  0  0  0  0  0
   25.4612  -33.9688   -8.2671 C   0  0  2  0  0  0  0  0  0  0  0  0
   24.6514  -33.0571   -9.0600 N   0  0  0  0  0  0  0  0  0  0  0  0
   25.4694  -33.5357   -6.8341 C   0  0  0  0  0  0  0  0  0  0  0  0
   25.8266  -32.3459   -6.5782 O   0  0  0  0  0  0  0  0  0  0  0  0
   25.1023  -34.3795   -5.7724 N   0  0  0  0  0  0  0  0  0  0  0  0
   24.5681  -35.7257   -5.8119 C   0  0  0  0  0  0  0  0  0  0  0  0
   23.7216  -35.8090   -4.5254 C   0  0  0  0  0  0  0  0  0  0  0  0
   24.6967  -35.1567   -3.5541 C   0  0  0  0  0  0  0  0  0  0  0  0
   25.2172  -33.9952   -4.3602 C   0  0  1  0  0  0  0  0  0  0  0  0
   26.6104  -33.6638   -4.0358 C   0  0  0  0  0  0  0  0  0  0  0  0
   27.5435  -34.0167   -4.7932 O   0  0  0  0  0  0  0  0  0  0  0  0
   26.8911  -32.9551   -2.8825 O   0  0  0  0  0  0  0  0  0  0  0  0
  2  1  1  0
  3  2  1  0
  3  4  1  1
  5  3  1  0
  5  7  1  0
  5  6  1  6
  7  8  2  0
 10 12  1  0
 10  9  1  6
 11 10  1  0
 12 14  1  0
 13  7  1  0
 12 13  1  6
 14 15  2  0
 16 14  1  0
 16 17  1  0
 17 18  1  0
 19 18  1  0
 20 19  1  0
 20 16  1  0
 20 21  1  1
 22 21  2  0
 23 21  1  0
M  END
$$$$
