IVP.pdb
     RDKit          3D

 23 23  0  0  1  0  0  0  0  0999 V2000
   28.3608  -20.5502  -14.8534 C   0  0  0  0  0  0  0  0  0  0  0  0
   27.1905  -21.1051  -14.0973 C   0  0  0  0  0  0  0  0  0  0  0  0
   27.1295  -20.5440  -12.7171 C   0  0  2  0  0  0  0  0  0  0  0  0
   28.4879  -20.6049  -12.0599 C   0  0  0  0  0  0  0  0  0  0  0  0
   26.0379  -21.0625  -11.8509 C   0  0  2  0  0  0  0  0  0  0  0  0
   24.7643  -20.8195  -12.5543 N   0  0  0  0  0  0  0  0  0  0  0  0
   25.9116  -20.4573  -10.5271 C   0  0  0  0  0  0  0  0  0  0  0  0
   25.6096  -19.2155  -10.3660 O   0  0  0  0  0  0  0  0  0  0  0  0
   24.5100  -20.6804   -5.9067 C   0  0  0  0  0  0  0  0  0  0  0  0
   24.7235  -21.2324   -7.2961 C   0  0  1  0  0  0  0  0  0  0  0  0
   23.4219  -21.0555   -8.0695 C   0  0  0  0  0  0  0  0  0  0  0  0
   25.8979  -20.6220   -7.9947 C   0  0  2  0  0  0  0  0  0  0  0  0
   26.1127  -21.1791   -9.3211 N   0  0  0  0  0  0  0  0  0  0  0  0
   27.1390  -20.7646   -7.1698 C   0  0  0  0  0  0  0  0  0  0  0  0
   27.6100  -21.9310   -7.0074 O   0  0  0  0  0  0  0  0  0  0  0  0
   27.7978  -19.6755   -6.5749 N   0  0  0  0  0  0  0  0  0  0  0  0
   27.5228  -18.2582   -6.6967 C   0  0  0  0  0  0  0  0  0  0  0  0
   28.9048  -17.6091   -6.4787 C   0  0  0  0  0  0  0  0  0  0  0  0
   29.3697  -18.4304   -5.2833 C   0  0  0  0  0  0  0  0  0  0  0  0
   28.9457  -19.8229   -5.6719 C   0  0  1  0  0  0  0  0  0  0  0  0
   28.5770  -20.6438   -4.5115 C   0  0  0  0  0  0  0  0  0  0  0  0
   27.3932  -21.0174   -4.3443 O   0  0  0  0  0  0  0  0  0  0  0  0
   29.5485  -21.0060   -3.5972 O   0  0  0  0  0  0  0  0  0  0  0  0
  2  1  1  0
  3  2  1  0
  3  4  1  1
  5  3  1  0
  5  7  1  0
  5  6  1  6
  7  8  2  0
 10 12  1  0
 10  9  1  1
 11 10  1  0
 12 14  1  0
 13  7  1  0
 12 13  1  6
 14 15  2  0
 16 14  1  0
 16 17  1  0
 17 18  1  0
 19 18  1  0
 20 19  1  0
 20 16  1  0
 20 21  1  1
 22 21  2  0
 23 21  1  0
M  END
$$$$
