IVP.pdb
     RDKit          3D

 23 23  0  0  1  0  0  0  0  0999 V2000
   19.1885  -19.7197  -14.0866 C   0  0  0  0  0  0  0  0  0  0  0  0
   20.6177  -19.2996  -14.2601 C   0  0  0  0  0  0  0  0  0  0  0  0
   21.5037  -19.9982  -13.2852 C   0  0  2  0  0  0  0  0  0  0  0  0
   21.5687  -19.2324  -11.9851 C   0  0  0  0  0  0  0  0  0  0  0  0
   22.8418  -20.4007  -13.7934 C   0  0  2  0  0  0  0  0  0  0  0  0
   22.6298  -21.4455  -14.8129 N   0  0  0  0  0  0  0  0  0  0  0  0
   23.7744  -20.9507  -12.8124 C   0  0  0  0  0  0  0  0  0  0  0  0
   23.5465  -22.0572  -12.1936 O   0  0  0  0  0  0  0  0  0  0  0  0
   28.3756  -21.4858  -11.1699 C   0  0  0  0  0  0  0  0  0  0  0  0
   27.3313  -21.0077  -12.1505 C   0  0  1  0  0  0  0  0  0  0  0  0
   27.3550  -21.9505  -13.3482 C   0  0  0  0  0  0  0  0  0  0  0  0
   25.9700  -20.8818  -11.5415 C   0  0  2  0  0  0  0  0  0  0  0  0
   24.9949  -20.3160  -12.4606 N   0  0  0  0  0  0  0  0  0  0  0  0
   26.0239  -20.0699  -10.2849 C   0  0  0  0  0  0  0  0  0  0  0  0
   26.2198  -18.8217  -10.3957 O   0  0  0  0  0  0  0  0  0  0  0  0
   25.8682  -20.6235   -9.0030 N   0  0  0  0  0  0  0  0  0  0  0  0
   25.5528  -21.9856   -8.6232 C   0  0  0  0  0  0  0  0  0  0  0  0
   24.8196  -21.8172   -7.2768 C   0  0  0  0  0  0  0  0  0  0  0  0
   25.7426  -20.7946   -6.6273 C   0  0  0  0  0  0  0  0  0  0  0  0
   26.0163  -19.8470   -7.7660 C   0  0  1  0  0  0  0  0  0  0  0  0
   27.3581  -19.2546   -7.6957 C   0  0  0  0  0  0  0  0  0  0  0  0
   28.2841  -19.6837   -8.4220 O   0  0  0  0  0  0  0  0  0  0  0  0
   27.5979  -18.2134   -6.8185 O   0  0  0  0  0  0  0  0  0  0  0  0
  2  1  1  0
  3  2  1  0
  3  4  1  1
  5  3  1  0
  5  7  1  0
  5  6  1  6
  7  8  2  0
 10 12  1  0
 10  9  1  1
 11 10  1  0
 12 14  1  0
 13  7  1  0
 12 13  1  6
 14 15  2  0
 16 14  1  0
 16 17  1  0
 17 18  1  0
 19 18  1  0
 20 19  1  0
 20 16  1  0
 20 21  1  1
 22 21  2  0
 23 21  1  0
M  END
$$$$
