IVP.pdb
     RDKit          3D

 23 23  0  0  1  0  0  0  0  0999 V2000
   23.3244  -24.5288  -18.0477 C   0  0  0  0  0  0  0  0  0  0  0  0
   24.7036  -25.0925  -17.8767 C   0  0  0  0  0  0  0  0  0  0  0  0
   25.4730  -24.3257  -16.8551 C   0  0  2  0  0  0  0  0  0  0  0  0
   24.8291  -24.4604  -15.4956 C   0  0  0  0  0  0  0  0  0  0  0  0
   25.8029  -22.9195  -17.2082 C   0  0  2  0  0  0  0  0  0  0  0  0
   26.8023  -22.9604  -18.2923 N   0  0  0  0  0  0  0  0  0  0  0  0
   26.3683  -22.0943  -16.1433 C   0  0  0  0  0  0  0  0  0  0  0  0
   27.5063  -22.3587  -15.6008 O   0  0  0  0  0  0  0  0  0  0  0  0
   26.7606  -17.7959  -13.7650 C   0  0  0  0  0  0  0  0  0  0  0  0
   26.3096  -18.6721  -14.9094 C   0  0  1  0  0  0  0  0  0  0  0  0
   27.2287  -18.3958  -16.0938 C   0  0  0  0  0  0  0  0  0  0  0  0
   26.2527  -20.1234  -14.5488 C   0  0  2  0  0  0  0  0  0  0  0  0
   25.7155  -20.9468  -15.6209 N   0  0  0  0  0  0  0  0  0  0  0  0
   25.4590  -20.3282  -13.2961 C   0  0  0  0  0  0  0  0  0  0  0  0
   24.2003  -20.1880  -13.3643 O   0  0  0  0  0  0  0  0  0  0  0  0
   26.0405  -20.6656  -12.0624 N   0  0  0  0  0  0  0  0  0  0  0  0
   27.4385  -20.8362  -11.7224 C   0  0  0  0  0  0  0  0  0  0  0  0
   27.4002  -21.8580  -10.5677 C   0  0  0  0  0  0  0  0  0  0  0  0
   26.2485  -21.2686   -9.7640 C   0  0  0  0  0  0  0  0  0  0  0  0
   25.2602  -20.9102  -10.8432 C   0  0  1  0  0  0  0  0  0  0  0  0
   24.4618  -19.7252  -10.5049 C   0  0  0  0  0  0  0  0  0  0  0  0
   24.7275  -18.6107  -11.0111 O   0  0  0  0  0  0  0  0  0  0  0  0
   23.4074  -19.8446   -9.6188 O   0  0  0  0  0  0  0  0  0  0  0  0
  2  1  1  0
  3  2  1  0
  3  4  1  1
  5  3  1  0
  5  7  1  0
  5  6  1  6
  7  8  2  0
 10 12  1  0
 10  9  1  1
 11 10  1  0
 12 14  1  0
 13  7  1  0
 12 13  1  6
 14 15  2  0
 16 14  1  0
 16 17  1  0
 17 18  1  0
 19 18  1  0
 20 19  1  0
 20 16  1  0
 20 21  1  1
 22 21  2  0
 23 21  1  0
M  END
$$$$
