IVP.pdb
     RDKit          3D

 23 23  0  0  1  0  0  0  0  0999 V2000
   19.4685  -18.5516  -18.3355 C   0  0  0  0  0  0  0  0  0  0  0  0
   20.5138  -18.3815  -19.3975 C   0  0  0  0  0  0  0  0  0  0  0  0
   21.8539  -18.8102  -18.9037 C   0  0  2  0  0  0  0  0  0  0  0  0
   21.8499  -20.2835  -18.5719 C   0  0  0  0  0  0  0  0  0  0  0  0
   22.4518  -17.9716  -17.8313 C   0  0  2  0  0  0  0  0  0  0  0  0
   22.6920  -16.6325  -18.4015 N   0  0  0  0  0  0  0  0  0  0  0  0
   23.7239  -18.4293  -17.2774 C   0  0  0  0  0  0  0  0  0  0  0  0
   24.6627  -18.9080  -18.0182 O   0  0  0  0  0  0  0  0  0  0  0  0
   27.1546  -18.4557  -13.7276 C   0  0  0  0  0  0  0  0  0  0  0  0
   25.9183  -17.9076  -14.3996 C   0  0  1  0  0  0  0  0  0  0  0  0
   26.3116  -16.6185  -15.1119 C   0  0  0  0  0  0  0  0  0  0  0  0
   25.2616  -18.8948  -15.3129 C   0  0  2  0  0  0  0  0  0  0  0  0
   24.0265  -18.3884  -15.8908 N   0  0  0  0  0  0  0  0  0  0  0  0
   25.0047  -20.1867  -14.6013 C   0  0  0  0  0  0  0  0  0  0  0  0
   24.1013  -20.2017  -13.7113 O   0  0  0  0  0  0  0  0  0  0  0  0
   25.7120  -21.3697  -14.8736 N   0  0  0  0  0  0  0  0  0  0  0  0
   26.7328  -21.6205  -15.8707 C   0  0  0  0  0  0  0  0  0  0  0  0
   26.5711  -23.1242  -16.1729 C   0  0  0  0  0  0  0  0  0  0  0  0
   26.4283  -23.6414  -14.7475 C   0  0  0  0  0  0  0  0  0  0  0  0
   25.5091  -22.6195  -14.1307 C   0  0  1  0  0  0  0  0  0  0  0  0
   25.7770  -22.4104  -12.7021 C   0  0  0  0  0  0  0  0  0  0  0  0
   26.4142  -21.4048  -12.3127 O   0  0  0  0  0  0  0  0  0  0  0  0
   25.3199  -23.3344  -11.7810 O   0  0  0  0  0  0  0  0  0  0  0  0
  2  1  1  0
  3  2  1  0
  3  4  1  1
  5  3  1  0
  5  7  1  0
  5  6  1  6
  7  8  2  0
 10 12  1  0
 10  9  1  6
 11 10  1  0
 12 14  1  0
 13  7  1  0
 12 13  1  1
 14 15  2  0
 16 14  1  0
 16 17  1  0
 17 18  1  0
 19 18  1  0
 20 19  1  0
 20 16  1  0
 20 21  1  1
 22 21  2  0
 23 21  1  0
M  END
$$$$
