IVP.pdb
     RDKit          3D

 23 23  0  0  1  0  0  0  0  0999 V2000
   18.8386  -20.3964  -15.8964 C   0  0  0  0  0  0  0  0  0  0  0  0
   19.4192  -20.8262  -14.5820 C   0  0  0  0  0  0  0  0  0  0  0  0
   20.8177  -20.3325  -14.4269 C   0  0  2  0  0  0  0  0  0  0  0  0
   21.5909  -20.5189  -15.7107 C   0  0  0  0  0  0  0  0  0  0  0  0
   21.5506  -20.8182  -13.2279 C   0  0  2  0  0  0  0  0  0  0  0  0
   20.8061  -20.3587  -12.0403 N   0  0  0  0  0  0  0  0  0  0  0  0
   22.9264  -20.3521  -13.0704 C   0  0  0  0  0  0  0  0  0  0  0  0
   23.2148  -19.1077  -12.9042 O   0  0  0  0  0  0  0  0  0  0  0  0
   27.6116  -21.1009  -11.7669 C   0  0  0  0  0  0  0  0  0  0  0  0
   26.1541  -21.4863  -11.8548 C   0  0  1  0  0  0  0  0  0  0  0  0
   25.5292  -21.2489  -10.4847 C   0  0  0  0  0  0  0  0  0  0  0  0
   25.4256  -20.7764  -12.9526 C   0  0  2  0  0  0  0  0  0  0  0  0
   24.0481  -21.2223  -13.0910 N   0  0  0  0  0  0  0  0  0  0  0  0
   26.1489  -20.9289  -14.2545 C   0  0  0  0  0  0  0  0  0  0  0  0
   26.0685  -22.0470  -14.8478 O   0  0  0  0  0  0  0  0  0  0  0  0
   26.9036  -19.8994  -14.8414 N   0  0  0  0  0  0  0  0  0  0  0  0
   27.2165  -18.5819  -14.3261 C   0  0  0  0  0  0  0  0  0  0  0  0
   27.3786  -17.7315  -15.6025 C   0  0  0  0  0  0  0  0  0  0  0  0
   28.2160  -18.6978  -16.4298 C   0  0  0  0  0  0  0  0  0  0  0  0
   27.5372  -20.0156  -16.1605 C   0  0  1  0  0  0  0  0  0  0  0  0
   28.4748  -21.1456  -16.1759 C   0  0  0  0  0  0  0  0  0  0  0  0
   28.8408  -21.6859  -15.1068 O   0  0  0  0  0  0  0  0  0  0  0  0
   28.9559  -21.6150  -17.3839 O   0  0  0  0  0  0  0  0  0  0  0  0
  2  1  1  0
  3  2  1  0
  3  4  1  6
  5  3  1  0
  5  7  1  0
  5  6  1  1
  7  8  2  0
 10 12  1  0
 10  9  1  1
 11 10  1  0
 12 14  1  0
 13  7  1  0
 12 13  1  6
 14 15  2  0
 16 14  1  0
 16 17  1  0
 17 18  1  0
 19 18  1  0
 20 19  1  0
 20 16  1  0
 20 21  1  1
 22 21  2  0
 23 21  1  0
M  END
$$$$
