IVP.pdb
     RDKit          3D

 23 23  0  0  1  0  0  0  0  0999 V2000
   15.0394  -12.9367  -19.2331 C   0  0  0  0  0  0  0  0  0  0  0  0
   16.4270  -13.4868  -19.0869 C   0  0  0  0  0  0  0  0  0  0  0  0
   17.1613  -12.8022  -17.9844 C   0  0  2  0  0  0  0  0  0  0  0  0
   17.0997  -11.3031  -18.1575 C   0  0  0  0  0  0  0  0  0  0  0  0
   18.5339  -13.3021  -17.7072 C   0  0  2  0  0  0  0  0  0  0  0  0
   18.4255  -14.7414  -17.4030 N   0  0  0  0  0  0  0  0  0  0  0  0
   19.2394  -12.6854  -16.5862 C   0  0  0  0  0  0  0  0  0  0  0  0
   18.9648  -12.9722  -15.3609 O   0  0  0  0  0  0  0  0  0  0  0  0
   23.3090  -10.7293  -14.6888 C   0  0  0  0  0  0  0  0  0  0  0  0
   22.5051  -11.3859  -15.7857 C   0  0  1  0  0  0  0  0  0  0  0  0
   22.8656  -12.8670  -15.8004 C   0  0  0  0  0  0  0  0  0  0  0  0
   21.0330  -11.1511  -15.6537 C   0  0  2  0  0  0  0  0  0  0  0  0
   20.2729  -11.7262  -16.7526 N   0  0  0  0  0  0  0  0  0  0  0  0
   20.7375   -9.6884  -15.5341 C   0  0  0  0  0  0  0  0  0  0  0  0
   20.9892   -8.9508  -16.5347 O   0  0  0  0  0  0  0  0  0  0  0  0
   20.1994   -9.1037  -14.3754 N   0  0  0  0  0  0  0  0  0  0  0  0
   19.8691   -9.7178  -13.1054 C   0  0  0  0  0  0  0  0  0  0  0  0
   18.7172   -8.8395  -12.5760 C   0  0  0  0  0  0  0  0  0  0  0  0
   19.2965   -7.4672  -12.8935 C   0  0  0  0  0  0  0  0  0  0  0  0
   19.8705   -7.6768  -14.2706 C   0  0  1  0  0  0  0  0  0  0  0  0
   21.0671   -6.8607  -14.5122 C   0  0  0  0  0  0  0  0  0  0  0  0
   22.2042   -7.3854  -14.5323 O   0  0  0  0  0  0  0  0  0  0  0  0
   20.9333   -5.5004  -14.7193 O   0  0  0  0  0  0  0  0  0  0  0  0
  2  1  1  0
  3  2  1  0
  3  4  1  6
  5  3  1  0
  5  7  1  0
  5  6  1  1
  7  8  2  0
 10 12  1  0
 10  9  1  1
 11 10  1  0
 12 14  1  0
 13  7  1  0
 12 13  1  6
 14 15  2  0
 16 14  1  0
 16 17  1  0
 17 18  1  0
 19 18  1  0
 20 19  1  0
 20 16  1  0
 20 21  1  1
 22 21  2  0
 23 21  1  0
M  END
$$$$
