IVP.pdb
     RDKit          3D

 23 23  0  0  1  0  0  0  0  0999 V2000
   22.0728  -21.9753  -10.0464 C   0  0  0  0  0  0  0  0  0  0  0  0
   22.9943  -20.8340  -10.3587 C   0  0  0  0  0  0  0  0  0  0  0  0
   24.2632  -20.9421   -9.5830 C   0  0  2  0  0  0  0  0  0  0  0  0
   23.9730  -21.2424   -8.1316 C   0  0  0  0  0  0  0  0  0  0  0  0
   25.2354  -19.8323   -9.7667 C   0  0  2  0  0  0  0  0  0  0  0  0
   25.5689  -19.7718  -11.2023 N   0  0  0  0  0  0  0  0  0  0  0  0
   26.5000  -19.9458   -9.0437 C   0  0  0  0  0  0  0  0  0  0  0  0
   27.4498  -20.7208   -9.4393 O   0  0  0  0  0  0  0  0  0  0  0  0
   28.7607  -17.0268   -8.1376 C   0  0  0  0  0  0  0  0  0  0  0  0
   28.5905  -17.8655   -6.8933 C   0  0  1  0  0  0  0  0  0  0  0  0
   27.7006  -17.0887   -5.9298 C   0  0  0  0  0  0  0  0  0  0  0  0
   28.0705  -19.2394   -7.1796 C   0  0  2  0  0  0  0  0  0  0  0  0
   26.7827  -19.2217   -7.8555 N   0  0  0  0  0  0  0  0  0  0  0  0
   27.9799  -20.0453   -5.9213 C   0  0  0  0  0  0  0  0  0  0  0  0
   26.8426  -20.1560   -5.3709 O   0  0  0  0  0  0  0  0  0  0  0  0
   29.0867  -20.6777   -5.3303 N   0  0  0  0  0  0  0  0  0  0  0  0
   30.4310  -20.8450   -5.8441 C   0  0  0  0  0  0  0  0  0  0  0  0
   30.9060  -22.1509   -5.1750 C   0  0  0  0  0  0  0  0  0  0  0  0
   30.4107  -21.8887   -3.7588 C   0  0  0  0  0  0  0  0  0  0  0  0
   29.0430  -21.3065   -4.0046 C   0  0  1  0  0  0  0  0  0  0  0  0
   28.6597  -20.3199   -2.9868 C   0  0  0  0  0  0  0  0  0  0  0  0
   28.7809  -19.0933   -3.2093 O   0  0  0  0  0  0  0  0  0  0  0  0
   28.1603  -20.7528   -1.7725 O   0  0  0  0  0  0  0  0  0  0  0  0
  2  1  1  0
  3  2  1  0
  3  4  1  1
  5  3  1  0
  5  7  1  0
  5  6  1  6
  7  8  2  0
 10 12  1  0
 10  9  1  6
 11 10  1  0
 12 14  1  0
 13  7  1  0
 12 13  1  1
 14 15  2  0
 16 14  1  0
 16 17  1  0
 17 18  1  0
 19 18  1  0
 20 19  1  0
 20 16  1  0
 20 21  1  1
 22 21  2  0
 23 21  1  0
M  END
$$$$
