ILE.pdb
     RDKit          3D

 26 25  0  0  1  0  0  0  0  0999 V2000
    8.6544  -19.0725   19.2548 C   0  0  0  0  0  0  0  0  0  0  0  0
    8.1972  -17.6759   19.5056 C   0  0  0  0  0  0  0  0  0  0  0  0
    8.6911  -17.0524   20.7737 C   0  0  2  0  0  0  0  0  0  0  0  0
    8.3535  -17.8802   22.0037 C   0  0  0  0  0  0  0  0  0  0  0  0
    8.0555  -15.6940   21.0295 C   0  0  2  0  0  0  0  0  0  0  0  0
    8.5052  -14.8347   19.9371 N   0  0  0  0  0  0  0  0  0  0  0  0
    8.4900  -15.1193   22.3174 C   0  0  0  0  0  0  0  0  0  0  0  0
    9.7074  -14.7943   22.4232 O   0  0  0  0  0  0  0  0  0  0  0  0
    7.7015  -11.7366   26.4812 C   0  0  0  0  0  0  0  0  0  0  0  0
    6.8511  -13.0440   26.5791 C   0  0  1  0  0  0  0  0  0  0  0  0
    5.5225  -12.5678   27.0830 C   0  0  0  0  0  0  0  0  0  0  0  0
    6.8921  -13.6228   25.2326 C   0  0  0  0  0  0  0  0  0  0  0  0
    8.0962  -14.2611   24.6783 C   0  0  2  0  0  0  0  0  0  0  0  0
    7.6180  -14.9217   23.4129 N   0  0  0  0  0  0  0  0  0  0  0  0
    8.8784  -15.1992   25.4363 C   0  0  0  0  0  0  0  0  0  0  0  0
    8.3344  -16.3286   25.7232 O   0  0  0  0  0  0  0  0  0  0  0  0
   10.2047  -15.0479   25.9121 N   0  0  0  0  0  0  0  0  0  0  0  0
   10.8731  -16.1532   26.6170 C   0  0  1  0  0  0  0  0  0  0  0  0
   12.2728  -16.3303   26.0407 C   0  0  0  0  0  0  0  0  0  0  0  0
   12.2765  -16.6281   24.5714 C   0  0  0  0  0  0  0  0  0  0  0  0
   13.6839  -16.8111   24.1422 C   0  0  0  0  0  0  0  0  0  0  0  0
   14.6234  -16.6996   24.9486 O   0  0  0  0  0  0  0  0  0  0  0  0
   10.8518  -15.9192   28.0588 C   0  0  0  0  0  0  0  0  0  0  0  0
   11.0817  -16.8975   29.0137 O   0  0  0  0  0  0  0  0  0  0  0  0
   13.9410  -17.1117   22.8190 O   0  0  0  0  0  0  0  0  0  0  0  0
   10.6107  -14.7643   28.4931 O   0  0  0  0  0  0  0  0  0  0  0  0
  2  3  1  0
  2  1  1  0
  3  4  1  1
  5  6  1  6
  5  3  1  0
  7  5  1  0
  8  7  2  0
 10 12  1  0
 10  9  1  6
 11 10  1  0
 13 12  1  1
 13 15  1  0
 13 14  1  0
 14  7  1  0
 15 16  2  0
 17 18  1  0
 17 15  1  0
 19 20  1  0
 18 19  1  6
 20 21  1  0
 21 25  1  0
 21 22  2  0
 23 24  1  0
 23 18  1  0
 26 23  2  0
M  END
$$$$
