ILE.pdb
     RDKit          3D

 26 25  0  0  1  0  0  0  0  0999 V2000
    9.2666  -12.9121   27.8262 C   0  0  0  0  0  0  0  0  0  0  0  0
    8.4003  -13.9945   27.2782 C   0  0  0  0  0  0  0  0  0  0  0  0
    7.2965  -13.5429   26.3736 C   0  0  2  0  0  0  0  0  0  0  0  0
    6.2373  -12.7308   27.1020 C   0  0  0  0  0  0  0  0  0  0  0  0
    6.5409  -14.7138   25.7631 C   0  0  2  0  0  0  0  0  0  0  0  0
    6.5637  -15.7692   26.7729 N   0  0  0  0  0  0  0  0  0  0  0  0
    7.1881  -15.2003   24.5293 C   0  0  0  0  0  0  0  0  0  0  0  0
    7.5715  -16.4052   24.5149 O   0  0  0  0  0  0  0  0  0  0  0  0
    7.2768  -13.0344   18.9187 C   0  0  0  0  0  0  0  0  0  0  0  0
    7.9500  -14.2278   19.6700 C   0  0  1  0  0  0  0  0  0  0  0  0
    9.3818  -14.1619   19.2325 C   0  0  0  0  0  0  0  0  0  0  0  0
    7.6679  -13.9882   21.0887 C   0  0  0  0  0  0  0  0  0  0  0  0
    8.0322  -14.9459   22.1443 C   0  0  2  0  0  0  0  0  0  0  0  0
    7.3912  -14.3905   23.3880 N   0  0  0  0  0  0  0  0  0  0  0  0
    9.4005  -15.2839   22.4269 C   0  0  0  0  0  0  0  0  0  0  0  0
   10.1162  -14.4019   23.0297 O   0  0  0  0  0  0  0  0  0  0  0  0
   10.0808  -16.4921   22.1333 N   0  0  0  0  0  0  0  0  0  0  0  0
   11.4685  -16.6922   22.5800 C   0  0  1  0  0  0  0  0  0  0  0  0
   11.5654  -18.0308   23.3022 C   0  0  0  0  0  0  0  0  0  0  0  0
   10.7316  -18.0957   24.5464 C   0  0  0  0  0  0  0  0  0  0  0  0
   10.9501  -19.4189   25.1787 C   0  0  0  0  0  0  0  0  0  0  0  0
   10.5224  -19.6669   26.3192 O   0  0  0  0  0  0  0  0  0  0  0  0
   12.3865  -16.5608   21.4513 C   0  0  0  0  0  0  0  0  0  0  0  0
   13.7606  -16.4233   21.5723 O   0  0  0  0  0  0  0  0  0  0  0  0
   11.6428  -20.3847   24.4753 O   0  0  0  0  0  0  0  0  0  0  0  0
   11.9296  -16.5683   20.2801 O   0  0  0  0  0  0  0  0  0  0  0  0
  2  3  1  0
  2  1  1  0
  3  4  1  1
  5  6  1  1
  5  3  1  0
  7  5  1  0
  8  7  2  0
 10 12  1  0
 10  9  1  6
 11 10  1  0
 13 12  1  6
 13 15  1  0
 13 14  1  0
 14  7  1  0
 15 16  2  0
 17 18  1  0
 17 15  1  0
 19 20  1  0
 18 19  1  6
 20 21  1  0
 21 25  1  0
 21 22  2  0
 23 24  1  0
 23 18  1  0
 26 23  2  0
M  END
$$$$
