ILE.pdb
     RDKit          3D

 26 25  0  0  1  0  0  0  0  0999 V2000
    7.5972  -11.8293   20.0702 C   0  0  0  0  0  0  0  0  0  0  0  0
    7.5632  -13.0556   20.9173 C   0  0  0  0  0  0  0  0  0  0  0  0
    8.4707  -14.1648   20.4850 C   0  0  2  0  0  0  0  0  0  0  0  0
    8.1194  -14.7061   19.1083 C   0  0  0  0  0  0  0  0  0  0  0  0
    8.3864  -15.3681   21.4121 C   0  0  2  0  0  0  0  0  0  0  0  0
    6.9919  -15.8016   21.3721 N   0  0  0  0  0  0  0  0  0  0  0  0
    8.7527  -15.0188   22.7983 C   0  0  0  0  0  0  0  0  0  0  0  0
    9.9452  -14.6526   23.0055 O   0  0  0  0  0  0  0  0  0  0  0  0
    5.3052  -12.6519   26.5528 C   0  0  0  0  0  0  0  0  0  0  0  0
    6.6146  -12.7793   25.7094 C   0  0  1  0  0  0  0  0  0  0  0  0
    7.4977  -11.6996   26.2575 C   0  0  0  0  0  0  0  0  0  0  0  0
    7.0513  -14.1662   25.8973 C   0  0  0  0  0  0  0  0  0  0  0  0
    8.2699  -14.7070   25.2752 C   0  0  2  0  0  0  0  0  0  0  0  0
    7.8431  -15.0755   23.8795 N   0  0  0  0  0  0  0  0  0  0  0  0
    8.9979  -15.8035   25.8532 C   0  0  0  0  0  0  0  0  0  0  0  0
    9.2570  -15.7446   27.1115 O   0  0  0  0  0  0  0  0  0  0  0  0
    9.4704  -16.9746   25.2100 N   0  0  0  0  0  0  0  0  0  0  0  0
   10.2549  -17.9696   25.9582 C   0  0  1  0  0  0  0  0  0  0  0  0
    9.3957  -19.2087   26.1801 C   0  0  0  0  0  0  0  0  0  0  0  0
    8.1377  -18.9295   26.9461 C   0  0  0  0  0  0  0  0  0  0  0  0
    7.4209  -20.2132   27.1381 C   0  0  0  0  0  0  0  0  0  0  0  0
    7.8673  -21.2764   26.6738 O   0  0  0  0  0  0  0  0  0  0  0  0
   11.5160  -18.2387   25.2717 C   0  0  0  0  0  0  0  0  0  0  0  0
   12.5921  -18.9000   25.8430 O   0  0  0  0  0  0  0  0  0  0  0  0
    6.2369  -20.2128   27.8489 O   0  0  0  0  0  0  0  0  0  0  0  0
   11.6655  -17.8565   24.0834 O   0  0  0  0  0  0  0  0  0  0  0  0
  2  3  1  0
  2  1  1  0
  3  4  1  6
  5  6  1  1
  5  3  1  0
  7  5  1  0
  8  7  2  0
 10 12  1  0
 10  9  1  1
 11 10  1  0
 13 12  1  1
 13 15  1  0
 13 14  1  0
 14  7  1  0
 15 16  2  0
 17 18  1  0
 17 15  1  0
 19 20  1  0
 18 19  1  6
 20 21  1  0
 21 25  1  0
 21 22  2  0
 23 24  1  0
 23 18  1  0
 26 23  2  0
M  END
$$$$
