ILE.pdb
     RDKit          3D

 26 25  0  0  1  0  0  0  0  0999 V2000
    7.1914  -18.0842   18.6794 C   0  0  0  0  0  0  0  0  0  0  0  0
    6.9599  -16.7249   19.2462 C   0  0  0  0  0  0  0  0  0  0  0  0
    7.6658  -16.4330   20.5335 C   0  0  2  0  0  0  0  0  0  0  0  0
    7.3930  -17.4799   21.6018 C   0  0  0  0  0  0  0  0  0  0  0  0
    7.2130  -15.1177   21.1496 C   0  0  2  0  0  0  0  0  0  0  0  0
    7.5831  -14.0821   20.1880 N   0  0  0  0  0  0  0  0  0  0  0  0
    7.8850  -14.8553   22.4370 C   0  0  0  0  0  0  0  0  0  0  0  0
    9.1378  -14.6857   22.4104 O   0  0  0  0  0  0  0  0  0  0  0  0
    5.4178  -12.1553   26.6289 C   0  0  0  0  0  0  0  0  0  0  0  0
    6.4296  -12.4780   25.4826 C   0  0  1  0  0  0  0  0  0  0  0  0
    7.4023  -11.3392   25.5350 C   0  0  0  0  0  0  0  0  0  0  0  0
    6.9417  -13.8156   25.7963 C   0  0  0  0  0  0  0  0  0  0  0  0
    7.9323  -14.5049   24.9550 C   0  0  2  0  0  0  0  0  0  0  0  0
    7.1984  -14.7870   23.6713 N   0  0  0  0  0  0  0  0  0  0  0  0
    8.6017  -15.7001   25.3908 C   0  0  0  0  0  0  0  0  0  0  0  0
    7.9054  -16.7793   25.4545 O   0  0  0  0  0  0  0  0  0  0  0  0
    9.9616  -15.8556   25.7580 N   0  0  0  0  0  0  0  0  0  0  0  0
   10.4842  -17.1786   26.1349 C   0  0  1  0  0  0  0  0  0  0  0  0
   11.5548  -17.5897   25.1311 C   0  0  0  0  0  0  0  0  0  0  0  0
   12.3570  -16.4344   24.6123 C   0  0  0  0  0  0  0  0  0  0  0  0
   13.7671  -16.8740   24.4832 C   0  0  0  0  0  0  0  0  0  0  0  0
   14.1044  -18.0421   24.7422 O   0  0  0  0  0  0  0  0  0  0  0  0
   10.9464  -17.1633   27.5206 C   0  0  0  0  0  0  0  0  0  0  0  0
   11.4949  -18.2557   28.1744 O   0  0  0  0  0  0  0  0  0  0  0  0
   14.7127  -15.9582   24.0655 O   0  0  0  0  0  0  0  0  0  0  0  0
   10.8527  -16.1037   28.1907 O   0  0  0  0  0  0  0  0  0  0  0  0
  2  3  1  0
  2  1  1  0
  3  4  1  1
  5  6  1  6
  5  3  1  0
  7  5  1  0
  8  7  2  0
 10 12  1  0
 10  9  1  1
 11 10  1  0
 13 12  1  1
 13 15  1  0
 13 14  1  0
 14  7  1  0
 15 16  2  0
 17 18  1  0
 17 15  1  0
 19 20  1  0
 18 19  1  6
 20 21  1  0
 21 25  1  0
 21 22  2  0
 23 24  1  0
 23 18  1  0
 26 23  2  0
M  END
$$$$
