ILE.pdb
     RDKit          3D

 26 25  0  0  1  0  0  0  0  0999 V2000
    6.9541  -16.7958   17.3742 C   0  0  0  0  0  0  0  0  0  0  0  0
    7.2319  -17.2284   18.7736 C   0  0  0  0  0  0  0  0  0  0  0  0
    7.5963  -16.1341   19.7277 C   0  0  2  0  0  0  0  0  0  0  0  0
    8.8211  -15.3515   19.2814 C   0  0  0  0  0  0  0  0  0  0  0  0
    7.9553  -16.6712   21.1051 C   0  0  2  0  0  0  0  0  0  0  0  0
    6.7380  -17.2973   21.6154 N   0  0  0  0  0  0  0  0  0  0  0  0
    8.3746  -15.5932   22.0216 C   0  0  0  0  0  0  0  0  0  0  0  0
    9.5027  -15.0623   21.8107 O   0  0  0  0  0  0  0  0  0  0  0  0
    5.5198  -12.2100   26.1140 C   0  0  0  0  0  0  0  0  0  0  0  0
    7.0051  -12.4968   25.7223 C   0  0  1  0  0  0  0  0  0  0  0  0
    7.6608  -12.8264   27.0289 C   0  0  0  0  0  0  0  0  0  0  0  0
    6.9317  -13.5628   24.7183 C   0  0  0  0  0  0  0  0  0  0  0  0
    8.1281  -14.1685   24.1132 C   0  0  2  0  0  0  0  0  0  0  0  0
    7.5820  -15.1403   23.1016 N   0  0  0  0  0  0  0  0  0  0  0  0
    9.1334  -14.8235   24.9050 C   0  0  0  0  0  0  0  0  0  0  0  0
    9.7908  -14.1022   25.7424 O   0  0  0  0  0  0  0  0  0  0  0  0
    9.4989  -16.1927   24.8949 N   0  0  0  0  0  0  0  0  0  0  0  0
   10.6204  -16.6698   25.7196 C   0  0  1  0  0  0  0  0  0  0  0  0
   10.1932  -17.9404   26.4446 C   0  0  0  0  0  0  0  0  0  0  0  0
   11.2675  -18.5151   27.3181 C   0  0  0  0  0  0  0  0  0  0  0  0
   10.6927  -19.6630   28.0601 C   0  0  0  0  0  0  0  0  0  0  0  0
   10.7041  -19.6982   29.3026 O   0  0  0  0  0  0  0  0  0  0  0  0
   11.8183  -16.8305   24.8991 C   0  0  0  0  0  0  0  0  0  0  0  0
   11.8344  -16.7555   23.5149 O   0  0  0  0  0  0  0  0  0  0  0  0
   10.1368  -20.7051   27.3443 O   0  0  0  0  0  0  0  0  0  0  0  0
   12.9228  -17.0537   25.4566 O   0  0  0  0  0  0  0  0  0  0  0  0
  2  3  1  0
  2  1  1  0
  3  4  1  6
  5  6  1  1
  5  3  1  0
  7  5  1  0
  8  7  2  0
 10 12  1  0
 10  9  1  1
 11 10  1  0
 13 12  1  1
 13 15  1  0
 13 14  1  0
 14  7  1  0
 15 16  2  0
 17 18  1  0
 17 15  1  0
 19 20  1  0
 18 19  1  6
 20 21  1  0
 21 25  1  0
 21 22  2  0
 23 24  1  0
 23 18  1  0
 26 23  2  0
M  END
$$$$
