ILE.pdb
     RDKit          3D

 26 25  0  0  1  0  0  0  0  0999 V2000
    8.5706  -18.5480   20.4663 C   0  0  0  0  0  0  0  0  0  0  0  0
    8.5304  -17.0965   20.8042 C   0  0  0  0  0  0  0  0  0  0  0  0
    7.1634  -16.5089   20.9674 C   0  0  2  0  0  0  0  0  0  0  0  0
    6.3257  -16.6142   19.7030 C   0  0  0  0  0  0  0  0  0  0  0  0
    7.2133  -15.0211   21.2813 C   0  0  2  0  0  0  0  0  0  0  0  0
    7.9227  -14.4042   20.1632 N   0  0  0  0  0  0  0  0  0  0  0  0
    7.9423  -14.7496   22.5354 C   0  0  0  0  0  0  0  0  0  0  0  0
    9.1949  -14.5977   22.4538 O   0  0  0  0  0  0  0  0  0  0  0  0
    5.7289  -12.2428   27.0795 C   0  0  0  0  0  0  0  0  0  0  0  0
    6.6869  -12.4600   25.8642 C   0  0  1  0  0  0  0  0  0  0  0  0
    7.7038  -11.3694   26.0129 C   0  0  0  0  0  0  0  0  0  0  0  0
    7.1578  -13.8421   25.9969 C   0  0  0  0  0  0  0  0  0  0  0  0
    8.1096  -14.4515   25.0550 C   0  0  2  0  0  0  0  0  0  0  0  0
    7.3092  -14.6542   23.7963 N   0  0  0  0  0  0  0  0  0  0  0  0
    8.8190  -15.6625   25.3658 C   0  0  0  0  0  0  0  0  0  0  0  0
    8.1411  -16.7548   25.3969 O   0  0  0  0  0  0  0  0  0  0  0  0
   10.2008  -15.8205   25.6383 N   0  0  0  0  0  0  0  0  0  0  0  0
   10.7640  -17.1588   25.8772 C   0  0  1  0  0  0  0  0  0  0  0  0
   12.1904  -17.1958   25.3419 C   0  0  0  0  0  0  0  0  0  0  0  0
   12.2728  -16.9994   23.8579 C   0  0  0  0  0  0  0  0  0  0  0  0
   13.7037  -17.0188   23.4697 C   0  0  0  0  0  0  0  0  0  0  0  0
   14.4721  -17.9036   23.8843 O   0  0  0  0  0  0  0  0  0  0  0  0
   10.6531  -17.5085   27.2913 C   0  0  0  0  0  0  0  0  0  0  0  0
   10.9713  -18.7510   27.8172 O   0  0  0  0  0  0  0  0  0  0  0  0
   14.1775  -16.0296   22.6304 O   0  0  0  0  0  0  0  0  0  0  0  0
   10.2437  -16.6466   28.1099 O   0  0  0  0  0  0  0  0  0  0  0  0
  2  3  1  0
  2  1  1  0
  3  4  1  6
  5  6  1  6
  5  3  1  0
  7  5  1  0
  8  7  2  0
 10 12  1  0
 10  9  1  1
 11 10  1  0
 13 12  1  1
 13 15  1  0
 13 14  1  0
 14  7  1  0
 15 16  2  0
 17 18  1  0
 17 15  1  0
 19 20  1  0
 18 19  1  1
 20 21  1  0
 21 25  1  0
 21 22  2  0
 23 24  1  0
 23 18  1  0
 26 23  2  0
M  END
$$$$
