ILE.pdb
     RDKit          3D

 26 25  0  0  1  0  0  0  0  0999 V2000
    5.1482  -17.1667   20.1975 C   0  0  0  0  0  0  0  0  0  0  0  0
    6.4442  -17.2723   20.9268 C   0  0  0  0  0  0  0  0  0  0  0  0
    7.6330  -16.7035   20.2171 C   0  0  2  0  0  0  0  0  0  0  0  0
    8.9427  -17.3219   20.6796 C   0  0  0  0  0  0  0  0  0  0  0  0
    7.7927  -15.2121   20.4720 C   0  0  2  0  0  0  0  0  0  0  0  0
    8.8445  -14.7654   19.5619 N   0  0  0  0  0  0  0  0  0  0  0  0
    8.1966  -14.9340   21.8639 C   0  0  0  0  0  0  0  0  0  0  0  0
    9.4044  -15.1508   22.1688 O   0  0  0  0  0  0  0  0  0  0  0  0
    7.7269  -11.9035   26.4091 C   0  0  0  0  0  0  0  0  0  0  0  0
    6.6538  -13.0315   26.2756 C   0  0  1  0  0  0  0  0  0  0  0  0
    5.4029  -12.3973   26.8037 C   0  0  0  0  0  0  0  0  0  0  0  0
    6.6725  -13.4045   24.8578 C   0  0  0  0  0  0  0  0  0  0  0  0
    7.7740  -14.1683   24.2514 C   0  0  2  0  0  0  0  0  0  0  0  0
    7.3062  -14.4451   22.8476 N   0  0  0  0  0  0  0  0  0  0  0  0
    8.2684  -15.3855   24.8349 C   0  0  0  0  0  0  0  0  0  0  0  0
    7.7287  -16.4880   24.4517 O   0  0  0  0  0  0  0  0  0  0  0  0
    9.3035  -15.5390   25.7907 N   0  0  0  0  0  0  0  0  0  0  0  0
   10.0380  -16.8098   25.8947 C   0  0  1  0  0  0  0  0  0  0  0  0
   11.1587  -16.8171   24.8620 C   0  0  0  0  0  0  0  0  0  0  0  0
   12.0174  -18.0444   24.9265 C   0  0  0  0  0  0  0  0  0  0  0  0
   13.0480  -17.9415   23.8654 C   0  0  0  0  0  0  0  0  0  0  0  0
   13.3205  -18.9101   23.1355 O   0  0  0  0  0  0  0  0  0  0  0  0
   10.4955  -17.0181   27.2664 C   0  0  0  0  0  0  0  0  0  0  0  0
   11.0213  -16.0227   28.0753 O   0  0  0  0  0  0  0  0  0  0  0  0
   13.7089  -16.7408   23.6958 O   0  0  0  0  0  0  0  0  0  0  0  0
   10.4210  -18.1657   27.7742 O   0  0  0  0  0  0  0  0  0  0  0  0
  2  3  1  0
  2  1  1  0
  3  4  1  1
  5  6  1  6
  5  3  1  0
  7  5  1  0
  8  7  2  0
 10 12  1  0
 10  9  1  6
 11 10  1  0
 13 12  1  1
 13 15  1  0
 13 14  1  0
 14  7  1  0
 15 16  2  0
 17 18  1  0
 17 15  1  0
 19 20  1  0
 18 19  1  6
 20 21  1  0
 21 25  1  0
 21 22  2  0
 23 24  1  0
 23 18  1  0
 26 23  2  0
M  END
$$$$
