ILE.pdb
     RDKit          3D

 26 25  0  0  1  0  0  0  0  0999 V2000
    5.1521  -22.1312   24.7297 C   0  0  0  0  0  0  0  0  0  0  0  0
    4.8059  -20.7496   24.2895 C   0  0  0  0  0  0  0  0  0  0  0  0
    5.9654  -19.8217   24.1021 C   0  0  2  0  0  0  0  0  0  0  0  0
    6.8301  -19.7056   25.3473 C   0  0  0  0  0  0  0  0  0  0  0  0
    5.5178  -18.3989   23.8021 C   0  0  2  0  0  0  0  0  0  0  0  0
    4.8093  -18.4675   22.5264 N   0  0  0  0  0  0  0  0  0  0  0  0
    6.6644  -17.4781   23.6784 C   0  0  0  0  0  0  0  0  0  0  0  0
    7.5127  -17.7305   22.7753 O   0  0  0  0  0  0  0  0  0  0  0  0
    8.2676  -12.8987   26.7349 C   0  0  0  0  0  0  0  0  0  0  0  0
    7.1706  -13.8704   26.1924 C   0  0  1  0  0  0  0  0  0  0  0  0
    5.8892  -13.1322   26.4355 C   0  0  0  0  0  0  0  0  0  0  0  0
    7.5471  -14.1243   24.7983 C   0  0  0  0  0  0  0  0  0  0  0  0
    8.0281  -15.4337   24.3308 C   0  0  2  0  0  0  0  0  0  0  0  0
    6.8473  -16.3498   24.5109 N   0  0  0  0  0  0  0  0  0  0  0  0
    9.1998  -16.0563   24.8838 C   0  0  0  0  0  0  0  0  0  0  0  0
    9.0248  -16.9279   25.8130 O   0  0  0  0  0  0  0  0  0  0  0  0
   10.5544  -15.8420   24.5266 N   0  0  0  0  0  0  0  0  0  0  0  0
   11.4980  -16.9700   24.4754 C   0  0  1  0  0  0  0  0  0  0  0  0
   12.5411  -16.6914   23.3997 C   0  0  0  0  0  0  0  0  0  0  0  0
   13.6054  -17.7440   23.3181 C   0  0  0  0  0  0  0  0  0  0  0  0
   14.5956  -17.3195   22.2993 C   0  0  0  0  0  0  0  0  0  0  0  0
   15.3085  -16.3159   22.4722 O   0  0  0  0  0  0  0  0  0  0  0  0
   12.0641  -17.2157   25.7995 C   0  0  0  0  0  0  0  0  0  0  0  0
   12.7413  -18.3707   26.1588 O   0  0  0  0  0  0  0  0  0  0  0  0
   14.7179  -18.0630   21.1419 O   0  0  0  0  0  0  0  0  0  0  0  0
   11.9444  -16.3404   26.6940 O   0  0  0  0  0  0  0  0  0  0  0  0
  2  3  1  0
  2  1  1  0
  3  4  1  1
  5  6  1  6
  5  3  1  0
  7  5  1  0
  8  7  2  0
 10 12  1  0
 10  9  1  6
 11 10  1  0
 13 12  1  1
 13 15  1  0
 13 14  1  0
 14  7  1  0
 15 16  2  0
 17 18  1  0
 17 15  1  0
 19 20  1  0
 18 19  1  6
 20 21  1  0
 21 25  1  0
 21 22  2  0
 23 24  1  0
 23 18  1  0
 26 23  2  0
M  END
$$$$
