QKY.pdb
     RDKit          3D

 31 31  0  0  1  0  0  0  0  0999 V2000
    8.7518  -12.8122   16.9279 N   0  0  0  0  0  0  0  0  0  0  0  0
    7.7991  -13.8685   16.9743 C   0  0  0  0  0  0  0  0  0  0  0  0
    7.4635  -14.3786   15.8932 O   0  0  0  0  0  0  0  0  0  0  0  0
    7.2577  -14.3024   18.2641 C   0  0  0  0  0  0  0  0  0  0  0  0
    7.6334  -13.4950   19.4576 C   0  0  0  0  0  0  0  0  0  0  0  0
    8.5535  -14.2365   20.3598 C   0  0  2  0  0  0  0  0  0  0  0  0
    9.3295  -15.1989   19.6242 N   0  0  0  0  0  0  0  0  0  0  0  0
    7.8359  -14.9773   21.4272 C   0  0  0  0  0  0  0  0  0  0  0  0
    6.9777  -14.4236   22.1400 O   0  0  0  0  0  0  0  0  0  0  0  0
    8.1416  -16.3459   21.6317 N   0  0  0  0  0  0  0  0  0  0  0  0
    7.4849  -17.1543   22.6245 C   0  0  1  0  0  0  0  0  0  0  0  0
    7.2603  -18.5675   22.2840 C   0  0  0  0  0  0  0  0  0  0  0  0
    6.6554  -19.5209   23.2034 C   0  0  0  0  0  0  0  0  0  0  0  0
    6.5699  -20.9555   22.7768 C   0  0  0  0  0  0  0  0  0  0  0  0
    5.8560  -21.8252   23.7916 C   0  0  0  0  0  0  0  0  0  0  0  0
    5.8670  -23.2148   23.3546 N   0  0  0  0  0  0  0  0  0  0  0  0
    8.1284  -16.9337   23.9409 C   0  0  0  0  0  0  0  0  0  0  0  0
    9.3797  -16.8696   23.9904 O   0  0  0  0  0  0  0  0  0  0  0  0
    6.8168  -10.2807   25.3319 O   0  0  0  0  0  0  0  0  0  0  0  0
    6.9454  -11.5753   25.8145 C   0  0  0  0  0  0  0  0  0  0  0  0
    8.1490  -12.1457   26.1603 C   0  0  0  0  0  0  0  0  0  0  0  0
    8.2524  -13.4320   26.6372 C   0  0  0  0  0  0  0  0  0  0  0  0
    7.1165  -14.1997   26.7830 C   0  0  0  0  0  0  0  0  0  0  0  0
    7.1520  -15.5967   27.2716 C   0  0  0  0  0  0  0  0  0  0  0  0
    8.0406  -16.4378   26.4285 C   0  0  2  0  0  0  0  0  0  0  0  0
    7.4135  -16.7902   25.1528 N   0  0  0  0  0  0  0  0  0  0  0  0
    8.4676  -17.6948   27.0743 C   0  0  0  0  0  0  0  0  0  0  0  0
    7.9095  -18.8004   26.7920 O   0  0  0  0  0  0  0  0  0  0  0  0
    5.9042  -13.6169   26.4314 C   0  0  0  0  0  0  0  0  0  0  0  0
    5.8112  -12.3468   25.9616 C   0  0  0  0  0  0  0  0  0  0  0  0
    9.4915  -17.7795   28.0213 O   0  0  0  0  0  0  0  0  0  0  0  0
  2  1  1  0
  2  4  1  0
  3  2  2  0
  5  4  1  0
  6  5  1  0
  6  7  1  6
  8  6  1  0
  8  9  2  0
 10  8  1  0
 11 10  1  0
 11 12  1  6
 13 12  1  0
 14 13  1  0
 15 14  1  0
 16 15  1  0
 17 11  1  0
 17 26  1  0
 18 17  2  0
 19 20  1  0
 20 30  2  0
 20 21  1  0
 21 22  2  0
 22 23  1  0
 23 24  1  0
 25 24  1  1
 25 26  1  0
 25 27  1  0
 27 28  2  0
 27 31  1  0
 29 23  2  0
 30 29  1  0
M  END
$$$$
