QKY.pdb
     RDKit          3D

 31 31  0  0  1  0  0  0  0  0999 V2000
   12.3497  -15.0030   17.4768 N   0  0  0  0  0  0  0  0  0  0  0  0
   12.1253  -13.9737   18.4339 C   0  0  0  0  0  0  0  0  0  0  0  0
   13.1260  -13.4340   18.9327 O   0  0  0  0  0  0  0  0  0  0  0  0
   10.7550  -13.6005   18.7915 C   0  0  0  0  0  0  0  0  0  0  0  0
    9.6565  -14.3345   18.1046 C   0  0  0  0  0  0  0  0  0  0  0  0
    8.3274  -14.0151   18.6894 C   0  0  2  0  0  0  0  0  0  0  0  0
    8.0418  -12.6094   18.5790 N   0  0  0  0  0  0  0  0  0  0  0  0
    8.2344  -14.3686   20.1279 C   0  0  0  0  0  0  0  0  0  0  0  0
    8.0661  -13.4983   21.0028 O   0  0  0  0  0  0  0  0  0  0  0  0
    8.3404  -15.7308   20.5040 N   0  0  0  0  0  0  0  0  0  0  0  0
    8.0995  -16.1931   21.8453 C   0  0  1  0  0  0  0  0  0  0  0  0
    7.5366  -17.5445   21.9880 C   0  0  0  0  0  0  0  0  0  0  0  0
    7.3197  -18.1837   23.2783 C   0  0  0  0  0  0  0  0  0  0  0  0
    6.8159  -19.5955   23.2903 C   0  0  0  0  0  0  0  0  0  0  0  0
    6.5050  -20.0930   24.6874 C   0  0  0  0  0  0  0  0  0  0  0  0
    6.0943  -21.4899   24.6406 N   0  0  0  0  0  0  0  0  0  0  0  0
    9.2993  -15.9357   22.6759 C   0  0  0  0  0  0  0  0  0  0  0  0
   10.2582  -16.7405   22.6052 O   0  0  0  0  0  0  0  0  0  0  0  0
   10.4950  -15.9023   31.2098 O   0  0  0  0  0  0  0  0  0  0  0  0
   10.0919  -15.6133   29.9139 C   0  0  0  0  0  0  0  0  0  0  0  0
   10.2342  -14.3766   29.3274 C   0  0  0  0  0  0  0  0  0  0  0  0
    9.8270  -14.1130   28.0400 C   0  0  0  0  0  0  0  0  0  0  0  0
    9.2500  -15.1140   27.2877 C   0  0  0  0  0  0  0  0  0  0  0  0
    8.7706  -14.8998   25.9036 C   0  0  0  0  0  0  0  0  0  0  0  0
    9.8955  -14.9411   24.9336 C   0  0  2  0  0  0  0  0  0  0  0  0
    9.4301  -14.8310   23.5493 N   0  0  0  0  0  0  0  0  0  0  0  0
   10.7241  -16.1594   25.0267 C   0  0  0  0  0  0  0  0  0  0  0  0
   11.9778  -16.0874   25.2190 O   0  0  0  0  0  0  0  0  0  0  0  0
    9.1092  -16.3606   27.8869 C   0  0  0  0  0  0  0  0  0  0  0  0
    9.5138  -16.6121   29.1580 C   0  0  0  0  0  0  0  0  0  0  0  0
   10.2211  -17.4583   24.9175 O   0  0  0  0  0  0  0  0  0  0  0  0
  2  1  1  0
  2  4  1  0
  3  2  2  0
  5  4  1  0
  6  5  1  0
  6  7  1  1
  8  6  1  0
  8  9  2  0
 10  8  1  0
 11 10  1  0
 11 12  1  6
 13 12  1  0
 14 13  1  0
 15 14  1  0
 16 15  1  0
 17 11  1  0
 17 26  1  0
 18 17  2  0
 19 20  1  0
 20 30  2  0
 20 21  1  0
 21 22  2  0
 22 23  1  0
 23 24  1  0
 25 24  1  1
 25 26  1  0
 25 27  1  0
 27 28  2  0
 27 31  1  0
 29 23  2  0
 30 29  1  0
M  END
$$$$
