QKY.pdb
     RDKit          3D

 31 31  0  0  1  0  0  0  0  0999 V2000
   13.4655  -19.0985   16.5731 N   0  0  0  0  0  0  0  0  0  0  0  0
   12.1641  -19.6718   16.5129 C   0  0  0  0  0  0  0  0  0  0  0  0
   11.9488  -20.4986   15.6121 O   0  0  0  0  0  0  0  0  0  0  0  0
   11.1483  -19.2717   17.4892 C   0  0  0  0  0  0  0  0  0  0  0  0
   11.5670  -18.2991   18.5361 C   0  0  0  0  0  0  0  0  0  0  0  0
   10.6479  -18.3141   19.7046 C   0  0  2  0  0  0  0  0  0  0  0  0
    9.2881  -18.5272   19.2860 N   0  0  0  0  0  0  0  0  0  0  0  0
   10.6753  -17.0436   20.4716 C   0  0  0  0  0  0  0  0  0  0  0  0
   11.7486  -16.5139   20.8158 O   0  0  0  0  0  0  0  0  0  0  0  0
    9.4463  -16.4272   20.8148 N   0  0  0  0  0  0  0  0  0  0  0  0
    9.3674  -15.2176   21.5902 C   0  0  1  0  0  0  0  0  0  0  0  0
    8.1803  -14.3744   21.3817 C   0  0  0  0  0  0  0  0  0  0  0  0
    8.0230  -13.4919   20.2343 C   0  0  0  0  0  0  0  0  0  0  0  0
    7.2411  -13.9958   19.0587 C   0  0  0  0  0  0  0  0  0  0  0  0
    7.2666  -13.0369   17.8857 C   0  0  0  0  0  0  0  0  0  0  0  0
    6.5015  -13.5863   16.7744 N   0  0  0  0  0  0  0  0  0  0  0  0
    9.6623  -15.5245   23.0095 C   0  0  0  0  0  0  0  0  0  0  0  0
    9.0449  -16.4687   23.5568 O   0  0  0  0  0  0  0  0  0  0  0  0
   10.2300  -15.5510   31.5349 O   0  0  0  0  0  0  0  0  0  0  0  0
   10.0369  -15.3919   30.1701 C   0  0  0  0  0  0  0  0  0  0  0  0
    9.6494  -16.4103   29.3296 C   0  0  0  0  0  0  0  0  0  0  0  0
    9.4637  -16.2292   27.9785 C   0  0  0  0  0  0  0  0  0  0  0  0
    9.6687  -14.9846   27.4218 C   0  0  0  0  0  0  0  0  0  0  0  0
    9.5070  -14.7188   25.9744 C   0  0  0  0  0  0  0  0  0  0  0  0
   10.7648  -14.9970   25.2339 C   0  0  2  0  0  0  0  0  0  0  0  0
   10.6032  -14.8131   23.7900 N   0  0  0  0  0  0  0  0  0  0  0  0
   11.3010  -16.3555   25.4501 C   0  0  0  0  0  0  0  0  0  0  0  0
   10.7119  -17.3767   24.9770 O   0  0  0  0  0  0  0  0  0  0  0  0
   10.0603  -13.9608   28.2769 C   0  0  0  0  0  0  0  0  0  0  0  0
   10.2411  -14.1482   29.6091 C   0  0  0  0  0  0  0  0  0  0  0  0
   12.4670  -16.6314   26.1689 O   0  0  0  0  0  0  0  0  0  0  0  0
  2  1  1  0
  2  4  1  0
  3  2  2  0
  5  4  1  0
  6  5  1  0
  6  7  1  6
  8  6  1  0
  8  9  2  0
 10  8  1  0
 11 10  1  0
 11 12  1  1
 13 12  1  0
 14 13  1  0
 15 14  1  0
 16 15  1  0
 17 11  1  0
 17 26  1  0
 18 17  2  0
 19 20  1  0
 20 30  2  0
 20 21  1  0
 21 22  2  0
 22 23  1  0
 23 24  1  0
 25 24  1  1
 25 26  1  0
 25 27  1  0
 27 28  2  0
 27 31  1  0
 29 23  2  0
 30 29  1  0
M  END
$$$$
