QKY.pdb
     RDKit          3D

 31 31  0  0  1  0  0  0  0  0999 V2000
   14.3323  -13.3647   19.3907 N   0  0  0  0  0  0  0  0  0  0  0  0
   13.8540  -13.8093   18.1260 C   0  0  0  0  0  0  0  0  0  0  0  0
   14.6884  -13.9341   17.2151 O   0  0  0  0  0  0  0  0  0  0  0  0
   12.4282  -14.0919   17.9471 C   0  0  0  0  0  0  0  0  0  0  0  0
   11.6458  -14.4092   19.1736 C   0  0  0  0  0  0  0  0  0  0  0  0
   10.2213  -14.6989   18.8617 C   0  0  2  0  0  0  0  0  0  0  0  0
    9.5059  -13.4888   18.5559 N   0  0  0  0  0  0  0  0  0  0  0  0
    9.5101  -15.3547   19.9874 C   0  0  0  0  0  0  0  0  0  0  0  0
    8.7186  -14.7241   20.7133 O   0  0  0  0  0  0  0  0  0  0  0  0
    9.7438  -16.7307   20.2330 N   0  0  0  0  0  0  0  0  0  0  0  0
    9.3072  -17.3966   21.4316 C   0  0  1  0  0  0  0  0  0  0  0  0
    9.1876  -18.8613   21.3684 C   0  0  0  0  0  0  0  0  0  0  0  0
    8.4576  -19.5552   20.3168 C   0  0  0  0  0  0  0  0  0  0  0  0
    8.5129  -21.0530   20.2901 C   0  0  0  0  0  0  0  0  0  0  0  0
    7.6481  -21.6501   19.1984 C   0  0  0  0  0  0  0  0  0  0  0  0
    7.6143  -23.1010   19.3251 N   0  0  0  0  0  0  0  0  0  0  0  0
   10.0884  -16.8925   22.5854 C   0  0  0  0  0  0  0  0  0  0  0  0
   11.1593  -16.2807   22.3596 O   0  0  0  0  0  0  0  0  0  0  0  0
    6.4345  -10.9456   27.5659 O   0  0  0  0  0  0  0  0  0  0  0  0
    6.8709  -12.0028   26.7803 C   0  0  0  0  0  0  0  0  0  0  0  0
    7.3909  -13.1702   27.2907 C   0  0  0  0  0  0  0  0  0  0  0  0
    7.8175  -14.2059   26.4920 C   0  0  0  0  0  0  0  0  0  0  0  0
    7.7298  -14.0917   25.1207 C   0  0  0  0  0  0  0  0  0  0  0  0
    8.1861  -15.1558   24.1982 C   0  0  0  0  0  0  0  0  0  0  0  0
    9.2823  -15.9563   24.8025 C   0  0  2  0  0  0  0  0  0  0  0  0
    9.6979  -17.0602   23.9344 N   0  0  0  0  0  0  0  0  0  0  0  0
    8.9498  -16.5308   26.1212 C   0  0  0  0  0  0  0  0  0  0  0  0
    8.9543  -15.8136   27.1696 O   0  0  0  0  0  0  0  0  0  0  0  0
    7.2037  -12.9094   24.6123 C   0  0  0  0  0  0  0  0  0  0  0  0
    6.7851  -11.8924   25.4078 C   0  0  0  0  0  0  0  0  0  0  0  0
    8.6093  -17.8700   26.3280 O   0  0  0  0  0  0  0  0  0  0  0  0
  2  1  1  0
  2  4  1  0
  3  2  2  0
  5  4  1  0
  6  5  1  0
  6  7  1  1
  8  6  1  0
  8  9  2  0
 10  8  1  0
 11 10  1  0
 11 12  1  6
 13 12  1  0
 14 13  1  0
 15 14  1  0
 16 15  1  0
 17 11  1  0
 17 26  1  0
 18 17  2  0
 19 20  1  0
 20 30  2  0
 20 21  1  0
 21 22  2  0
 22 23  1  0
 23 24  1  0
 25 24  1  6
 25 26  1  0
 25 27  1  0
 27 28  2  0
 27 31  1  0
 29 23  2  0
 30 29  1  0
M  END
$$$$
