QKY.pdb
     RDKit          3D

 31 31  0  0  1  0  0  0  0  0999 V2000
    8.7174  -21.4061   17.1311 N   0  0  0  0  0  0  0  0  0  0  0  0
    9.8407  -20.8428   17.7995 C   0  0  0  0  0  0  0  0  0  0  0  0
   10.8883  -20.7197   17.1446 O   0  0  0  0  0  0  0  0  0  0  0  0
    9.7250  -20.4429   19.2037 C   0  0  0  0  0  0  0  0  0  0  0  0
   10.2321  -19.0895   19.5620 C   0  0  0  0  0  0  0  0  0  0  0  0
   10.1069  -18.8196   21.0187 C   0  0  2  0  0  0  0  0  0  0  0  0
    8.7835  -19.1330   21.4876 N   0  0  0  0  0  0  0  0  0  0  0  0
   10.3679  -17.3995   21.3629 C   0  0  0  0  0  0  0  0  0  0  0  0
   11.4667  -16.8634   21.1259 O   0  0  0  0  0  0  0  0  0  0  0  0
    9.3361  -16.6451   21.9747 N   0  0  0  0  0  0  0  0  0  0  0  0
    9.4686  -15.2463   22.2855 C   0  0  1  0  0  0  0  0  0  0  0  0
    8.6475  -14.3132   21.4989 C   0  0  0  0  0  0  0  0  0  0  0  0
    8.4866  -14.4177   20.0555 C   0  0  0  0  0  0  0  0  0  0  0  0
    7.9523  -13.2274   19.3173 C   0  0  0  0  0  0  0  0  0  0  0  0
    7.7942  -13.4836   17.8323 C   0  0  0  0  0  0  0  0  0  0  0  0
    7.1352  -12.3504   17.1970 N   0  0  0  0  0  0  0  0  0  0  0  0
    9.3778  -15.0589   23.7526 C   0  0  0  0  0  0  0  0  0  0  0  0
    8.8271  -14.0203   24.1888 O   0  0  0  0  0  0  0  0  0  0  0  0
    5.8598  -10.8051   26.1237 O   0  0  0  0  0  0  0  0  0  0  0  0
    6.3728  -12.0936   26.1656 C   0  0  0  0  0  0  0  0  0  0  0  0
    5.6864  -13.2037   25.7294 C   0  0  0  0  0  0  0  0  0  0  0  0
    6.2156  -14.4726   25.7804 C   0  0  0  0  0  0  0  0  0  0  0  0
    7.4842  -14.6637   26.2854 C   0  0  0  0  0  0  0  0  0  0  0  0
    8.1113  -16.0007   26.3891 C   0  0  0  0  0  0  0  0  0  0  0  0
    9.5725  -15.9299   26.1286 C   0  0  2  0  0  0  0  0  0  0  0  0
    9.8775  -15.9855   24.6973 N   0  0  0  0  0  0  0  0  0  0  0  0
   10.3525  -16.9950   26.7894 C   0  0  0  0  0  0  0  0  0  0  0  0
   10.3297  -17.1386   28.0514 O   0  0  0  0  0  0  0  0  0  0  0  0
    8.1715  -13.5377   26.7244 C   0  0  0  0  0  0  0  0  0  0  0  0
    7.6417  -12.2891   26.6703 C   0  0  0  0  0  0  0  0  0  0  0  0
   11.1579  -17.9120   26.1091 O   0  0  0  0  0  0  0  0  0  0  0  0
  2  1  1  0
  2  4  1  0
  3  2  2  0
  5  4  1  0
  6  5  1  0
  6  7  1  6
  8  6  1  0
  8  9  2  0
 10  8  1  0
 11 10  1  0
 11 12  1  6
 13 12  1  0
 14 13  1  0
 15 14  1  0
 16 15  1  0
 17 11  1  0
 17 26  1  0
 18 17  2  0
 19 20  1  0
 20 30  2  0
 20 21  1  0
 21 22  2  0
 22 23  1  0
 23 24  1  0
 25 24  1  6
 25 26  1  0
 25 27  1  0
 27 28  2  0
 27 31  1  0
 29 23  2  0
 30 29  1  0
M  END
$$$$
