QKY.pdb
     RDKit          3D

 31 31  0  0  1  0  0  0  0  0999 V2000
    9.0474  -12.4773   17.1876 N   0  0  0  0  0  0  0  0  0  0  0  0
    8.3129  -13.3729   16.3604 C   0  0  0  0  0  0  0  0  0  0  0  0
    8.7109  -13.5248   15.1942 O   0  0  0  0  0  0  0  0  0  0  0  0
    7.1390  -14.0628   16.8998 C   0  0  0  0  0  0  0  0  0  0  0  0
    7.0289  -14.1450   18.3825 C   0  0  0  0  0  0  0  0  0  0  0  0
    7.9735  -15.1413   18.9531 C   0  0  2  0  0  0  0  0  0  0  0  0
    8.0840  -16.2931   18.0982 N   0  0  0  0  0  0  0  0  0  0  0  0
    7.5538  -15.6282   20.2909 C   0  0  0  0  0  0  0  0  0  0  0  0
    7.2482  -14.8392   21.2047 O   0  0  0  0  0  0  0  0  0  0  0  0
    7.5028  -17.0253   20.5233 N   0  0  0  0  0  0  0  0  0  0  0  0
    6.9625  -17.5988   21.7274 C   0  0  1  0  0  0  0  0  0  0  0  0
    6.5849  -19.0193   21.6718 C   0  0  0  0  0  0  0  0  0  0  0  0
    6.1291  -19.7674   22.8350 C   0  0  0  0  0  0  0  0  0  0  0  0
    5.8181  -21.2233   22.6599 C   0  0  0  0  0  0  0  0  0  0  0  0
    5.3541  -21.8802   23.9442 C   0  0  0  0  0  0  0  0  0  0  0  0
    5.1729  -23.3107   23.7367 N   0  0  0  0  0  0  0  0  0  0  0  0
    7.8279  -17.2369   22.8745 C   0  0  0  0  0  0  0  0  0  0  0  0
    9.0058  -17.6663   22.8925 O   0  0  0  0  0  0  0  0  0  0  0  0
   10.7813  -14.0971   30.5433 O   0  0  0  0  0  0  0  0  0  0  0  0
   10.1278  -14.2318   29.3267 C   0  0  0  0  0  0  0  0  0  0  0  0
    8.8316  -13.8254   29.1067 C   0  0  0  0  0  0  0  0  0  0  0  0
    8.2037  -13.9689   27.8910 C   0  0  0  0  0  0  0  0  0  0  0  0
    8.8817  -14.5407   26.8354 C   0  0  0  0  0  0  0  0  0  0  0  0
    8.2654  -14.7449   25.5049 C   0  0  0  0  0  0  0  0  0  0  0  0
    8.2139  -16.1876   25.1530 C   0  0  2  0  0  0  0  0  0  0  0  0
    7.4042  -16.4317   23.9574 N   0  0  0  0  0  0  0  0  0  0  0  0
    7.6861  -17.0496   26.2290 C   0  0  0  0  0  0  0  0  0  0  0  0
    8.4652  -17.7277   26.9686 O   0  0  0  0  0  0  0  0  0  0  0  0
   10.1906  -14.9490   27.0652 C   0  0  0  0  0  0  0  0  0  0  0  0
   10.8026  -14.8036   28.2680 C   0  0  0  0  0  0  0  0  0  0  0  0
    6.3275  -17.1912   26.5229 O   0  0  0  0  0  0  0  0  0  0  0  0
  2  1  1  0
  2  4  1  0
  3  2  2  0
  5  4  1  0
  6  5  1  0
  6  7  1  6
  8  6  1  0
  8  9  2  0
 10  8  1  0
 11 10  1  0
 11 12  1  6
 13 12  1  0
 14 13  1  0
 15 14  1  0
 16 15  1  0
 17 11  1  0
 17 26  1  0
 18 17  2  0
 19 20  1  0
 20 30  2  0
 20 21  1  0
 21 22  2  0
 22 23  1  0
 23 24  1  0
 25 24  1  1
 25 26  1  0
 25 27  1  0
 27 28  2  0
 27 31  1  0
 29 23  2  0
 30 29  1  0
M  END
$$$$
