QKY.pdb
     RDKit          3D

 31 31  0  0  1  0  0  0  0  0999 V2000
   11.1814  -20.8675   21.1108 N   0  0  0  0  0  0  0  0  0  0  0  0
   11.6404  -19.8387   20.2409 C   0  0  0  0  0  0  0  0  0  0  0  0
   12.5981  -20.1082   19.4981 O   0  0  0  0  0  0  0  0  0  0  0  0
   10.9857  -18.5287   20.2562 C   0  0  0  0  0  0  0  0  0  0  0  0
    9.8735  -18.3434   21.2289 C   0  0  0  0  0  0  0  0  0  0  0  0
    9.2364  -17.0071   21.0928 C   0  0  2  0  0  0  0  0  0  0  0  0
    9.7775  -16.2919   19.9680 N   0  0  0  0  0  0  0  0  0  0  0  0
    9.4346  -16.1531   22.2905 C   0  0  0  0  0  0  0  0  0  0  0  0
   10.5613  -15.9919   22.7961 O   0  0  0  0  0  0  0  0  0  0  0  0
    8.3093  -15.5105   22.8641 N   0  0  0  0  0  0  0  0  0  0  0  0
    8.3969  -14.6738   24.0316 C   0  0  1  0  0  0  0  0  0  0  0  0
    7.2580  -13.7801   24.2919 C   0  0  0  0  0  0  0  0  0  0  0  0
    7.2080  -12.8639   25.4226 C   0  0  0  0  0  0  0  0  0  0  0  0
    5.9809  -12.0198   25.5928 C   0  0  0  0  0  0  0  0  0  0  0  0
    6.0770  -11.0818   26.7789 C   0  0  0  0  0  0  0  0  0  0  0  0
    4.8804  -10.2550   26.8604 N   0  0  0  0  0  0  0  0  0  0  0  0
    8.8128  -15.4944   25.1932 C   0  0  0  0  0  0  0  0  0  0  0  0
    8.8595  -16.7401   25.0580 O   0  0  0  0  0  0  0  0  0  0  0  0
   12.2048  -21.6237   27.4051 O   0  0  0  0  0  0  0  0  0  0  0  0
   11.9945  -20.2551   27.3147 C   0  0  0  0  0  0  0  0  0  0  0  0
   11.9704  -19.4124   28.4024 C   0  0  0  0  0  0  0  0  0  0  0  0
   11.7602  -18.0576   28.2887 C   0  0  0  0  0  0  0  0  0  0  0  0
   11.5633  -17.4991   27.0436 C   0  0  0  0  0  0  0  0  0  0  0  0
   11.3125  -16.0536   26.8454 C   0  0  0  0  0  0  0  0  0  0  0  0
   10.0062  -15.6507   27.4277 C   0  0  2  0  0  0  0  0  0  0  0  0
    9.1626  -14.9554   26.4532 N   0  0  0  0  0  0  0  0  0  0  0  0
   10.1208  -14.7808   28.6150 C   0  0  0  0  0  0  0  0  0  0  0  0
    9.9986  -13.5200   28.5191 O   0  0  0  0  0  0  0  0  0  0  0  0
   11.5887  -18.3566   25.9495 C   0  0  0  0  0  0  0  0  0  0  0  0
   11.7968  -19.6925   26.0707 C   0  0  0  0  0  0  0  0  0  0  0  0
   10.3639  -15.2499   29.9084 O   0  0  0  0  0  0  0  0  0  0  0  0
  2  1  1  0
  2  4  1  0
  3  2  2  0
  5  4  1  0
  6  5  1  0
  6  7  1  6
  8  6  1  0
  8  9  2  0
 10  8  1  0
 11 10  1  0
 11 12  1  1
 13 12  1  0
 14 13  1  0
 15 14  1  0
 16 15  1  0
 17 11  1  0
 17 26  1  0
 18 17  2  0
 19 20  1  0
 20 30  2  0
 20 21  1  0
 21 22  2  0
 22 23  1  0
 23 24  1  0
 25 24  1  6
 25 26  1  0
 25 27  1  0
 27 28  2  0
 27 31  1  0
 29 23  2  0
 30 29  1  0
M  END
$$$$
