QKK.pdb
     RDKit          3D

 28 27  0  0  1  0  0  0  0  0999 V2000
    8.1402  -13.4469   15.6813 N   0  0  0  0  0  0  0  0  0  0  0  0
    7.1296  -13.4686   16.7099 C   0  0  0  0  0  0  0  0  0  0  0  0
    5.9593  -13.2798   16.3308 O   0  0  0  0  0  0  0  0  0  0  0  0
    7.5374  -13.7090   18.1088 C   0  0  0  0  0  0  0  0  0  0  0  0
    9.0023  -13.9109   18.2856 C   0  0  0  0  0  0  0  0  0  0  0  0
    9.2774  -15.2207   18.9470 C   0  0  2  0  0  0  0  0  0  0  0  0
    8.0598  -16.0276   18.8410 N   0  0  0  0  0  0  0  0  0  0  0  0
    9.5857  -15.0712   20.3911 C   0  0  0  0  0  0  0  0  0  0  0  0
   10.7971  -14.9713   20.7554 O   0  0  0  0  0  0  0  0  0  0  0  0
    8.5352  -15.0430   21.3268 N   0  0  0  0  0  0  0  0  0  0  0  0
    8.8766  -14.8873   22.7716 C   0  0  1  0  0  0  0  0  0  0  0  0
    7.5970  -14.4843   23.4610 C   0  0  0  0  0  0  0  0  0  0  0  0
    7.7683  -13.4717   24.5298 C   0  0  0  0  0  0  0  0  0  0  0  0
    6.4752  -13.1640   25.2379 C   0  0  0  0  0  0  0  0  0  0  0  0
    6.6544  -12.1501   26.3360 C   0  0  0  0  0  0  0  0  0  0  0  0
    5.4357  -11.8720   27.0391 N   0  0  0  0  0  0  0  0  0  0  0  0
    9.4484  -16.1635   23.2118 C   0  0  0  0  0  0  0  0  0  0  0  0
    8.9676  -17.2420   22.7590 O   0  0  0  0  0  0  0  0  0  0  0  0
   10.5141  -16.2815   24.1122 N   0  0  0  0  0  0  0  0  0  0  0  0
   10.9529  -17.5814   24.6329 C   0  0  1  0  0  0  0  0  0  0  0  0
   12.3218  -17.8199   24.0542 C   0  0  0  0  0  0  0  0  0  0  0  0
   13.0206  -19.0169   24.6309 C   0  0  0  0  0  0  0  0  0  0  0  0
   14.3467  -19.2496   23.9617 C   0  0  0  0  0  0  0  0  0  0  0  0
   15.0117  -20.5166   24.4578 C   0  0  0  0  0  0  0  0  0  0  0  0
   16.1604  -20.8215   23.6355 N   0  0  0  0  0  0  0  0  0  0  0  0
   10.9265  -17.5188   26.0972 C   0  0  0  0  0  0  0  0  0  0  0  0
   10.5690  -16.3432   26.7269 O   0  0  0  0  0  0  0  0  0  0  0  0
   11.2224  -18.5118   26.7845 O   0  0  0  0  0  0  0  0  0  0  0  0
  2  1  1  0
  3  2  2  0
  4  2  1  0
  5  4  1  0
  6  8  1  0
  6  5  1  0
  6  7  1  1
  8  9  2  0
 10 11  1  0
 10  8  1  0
 12 13  1  0
 11 12  1  1
 13 14  1  0
 14 15  1  0
 15 16  1  0
 17 18  2  0
 17 11  1  0
 19 17  1  0
 20 26  1  0
 20 19  1  0
 20 21  1  1
 22 21  1  0
 23 24  1  0
 23 22  1  0
 25 24  1  0
 26 27  1  0
 28 26  2  0
M  END
$$$$
