QKK.pdb
     RDKit          3D

 28 27  0  0  1  0  0  0  0  0999 V2000
    4.6732  -20.9506   19.1036 N   0  0  0  0  0  0  0  0  0  0  0  0
    3.8252  -19.7845   19.1322 C   0  0  0  0  0  0  0  0  0  0  0  0
    3.5566  -19.2765   18.0281 O   0  0  0  0  0  0  0  0  0  0  0  0
    3.3417  -19.2829   20.4343 C   0  0  0  0  0  0  0  0  0  0  0  0
    3.8021  -20.0863   21.6007 C   0  0  0  0  0  0  0  0  0  0  0  0
    4.2314  -19.1943   22.7182 C   0  0  2  0  0  0  0  0  0  0  0  0
    3.2017  -18.1648   22.8753 N   0  0  0  0  0  0  0  0  0  0  0  0
    5.5111  -18.5006   22.4282 C   0  0  0  0  0  0  0  0  0  0  0  0
    6.5329  -19.1916   22.1303 O   0  0  0  0  0  0  0  0  0  0  0  0
    5.5694  -17.0960   22.4881 N   0  0  0  0  0  0  0  0  0  0  0  0
    6.8617  -16.4253   22.1586 C   0  0  1  0  0  0  0  0  0  0  0  0
    6.4969  -15.1334   21.4708 C   0  0  0  0  0  0  0  0  0  0  0  0
    7.3637  -14.7848   20.3201 C   0  0  0  0  0  0  0  0  0  0  0  0
    6.9349  -13.5070   19.6483 C   0  0  0  0  0  0  0  0  0  0  0  0
    7.6701  -13.2681   18.3566 C   0  0  0  0  0  0  0  0  0  0  0  0
    7.2616  -12.0599   17.7005 N   0  0  0  0  0  0  0  0  0  0  0  0
    7.5954  -16.2767   23.4191 C   0  0  0  0  0  0  0  0  0  0  0  0
    6.9497  -16.0643   24.4857 O   0  0  0  0  0  0  0  0  0  0  0  0
    8.9882  -16.3588   23.5354 N   0  0  0  0  0  0  0  0  0  0  0  0
    9.6676  -16.2710   24.8331 C   0  0  1  0  0  0  0  0  0  0  0  0
    9.3424  -17.5486   25.5594 C   0  0  0  0  0  0  0  0  0  0  0  0
   10.0316  -17.6805   26.8866 C   0  0  0  0  0  0  0  0  0  0  0  0
    9.6250  -18.9460   27.5892 C   0  0  0  0  0  0  0  0  0  0  0  0
   10.1889  -19.0151   28.9931 C   0  0  0  0  0  0  0  0  0  0  0  0
    9.5900  -20.1193   29.7080 N   0  0  0  0  0  0  0  0  0  0  0  0
   11.0988  -16.0723   24.5864 C   0  0  0  0  0  0  0  0  0  0  0  0
   11.5948  -16.1811   23.3025 O   0  0  0  0  0  0  0  0  0  0  0  0
   11.8770  -15.8063   25.5189 O   0  0  0  0  0  0  0  0  0  0  0  0
  2  1  1  0
  3  2  2  0
  4  2  1  0
  5  4  1  0
  6  8  1  0
  6  5  1  0
  6  7  1  6
  8  9  2  0
 10 11  1  0
 10  8  1  0
 12 13  1  0
 11 12  1  1
 13 14  1  0
 14 15  1  0
 15 16  1  0
 17 18  2  0
 17 11  1  0
 19 17  1  0
 20 26  1  0
 20 19  1  0
 20 21  1  6
 22 21  1  0
 23 24  1  0
 23 22  1  0
 25 24  1  0
 26 27  1  0
 28 26  2  0
M  END
$$$$
