QKK.pdb
     RDKit          3D

 28 27  0  0  1  0  0  0  0  0999 V2000
    8.3751  -12.7140   17.3136 N   0  0  0  0  0  0  0  0  0  0  0  0
    8.4562  -14.1458   17.1613 C   0  0  0  0  0  0  0  0  0  0  0  0
    8.7851  -14.5581   16.0339 O   0  0  0  0  0  0  0  0  0  0  0  0
    8.1538  -15.0072   18.3221 C   0  0  0  0  0  0  0  0  0  0  0  0
    9.2841  -15.1480   19.2816 C   0  0  0  0  0  0  0  0  0  0  0  0
    8.8961  -16.0221   20.4279 C   0  0  2  0  0  0  0  0  0  0  0  0
    7.4448  -16.2081   20.3635 N   0  0  0  0  0  0  0  0  0  0  0  0
    9.2058  -15.4034   21.7410 C   0  0  0  0  0  0  0  0  0  0  0  0
   10.4089  -15.1060   22.0135 O   0  0  0  0  0  0  0  0  0  0  0  0
    8.1658  -15.1584   22.6564 N   0  0  0  0  0  0  0  0  0  0  0  0
    8.5153  -14.5857   23.9899 C   0  0  1  0  0  0  0  0  0  0  0  0
    7.3443  -13.7249   24.3935 C   0  0  0  0  0  0  0  0  0  0  0  0
    7.4932  -13.0654   25.7126 C   0  0  0  0  0  0  0  0  0  0  0  0
    6.3406  -12.1484   26.0263 C   0  0  0  0  0  0  0  0  0  0  0  0
    6.5038  -11.4628   27.3565 C   0  0  0  0  0  0  0  0  0  0  0  0
    5.4011  -10.6037   27.6773 N   0  0  0  0  0  0  0  0  0  0  0  0
    8.7934  -15.7187   24.8779 C   0  0  0  0  0  0  0  0  0  0  0  0
    7.9758  -16.6827   24.9200 O   0  0  0  0  0  0  0  0  0  0  0  0
    9.9238  -15.8192   25.6978 N   0  0  0  0  0  0  0  0  0  0  0  0
   10.1912  -17.0102   26.5124 C   0  0  1  0  0  0  0  0  0  0  0  0
   11.5895  -17.4456   26.1647 C   0  0  0  0  0  0  0  0  0  0  0  0
   12.1062  -18.5609   27.0267 C   0  0  0  0  0  0  0  0  0  0  0  0
   12.6801  -19.6733   26.1938 C   0  0  0  0  0  0  0  0  0  0  0  0
   13.1861  -20.8139   27.0519 C   0  0  0  0  0  0  0  0  0  0  0  0
   13.7588  -21.8418   26.2127 N   0  0  0  0  0  0  0  0  0  0  0  0
   10.0116  -16.6489   27.9216 C   0  0  0  0  0  0  0  0  0  0  0  0
   10.2517  -15.3531   28.3332 O   0  0  0  0  0  0  0  0  0  0  0  0
    9.6449  -17.4946   28.7561 O   0  0  0  0  0  0  0  0  0  0  0  0
  2  1  1  0
  3  2  2  0
  4  2  1  0
  5  4  1  0
  6  8  1  0
  6  5  1  0
  6  7  1  1
  8  9  2  0
 10 11  1  0
 10  8  1  0
 12 13  1  0
 11 12  1  1
 13 14  1  0
 14 15  1  0
 15 16  1  0
 17 18  2  0
 17 11  1  0
 19 17  1  0
 20 26  1  0
 20 19  1  0
 20 21  1  1
 22 21  1  0
 23 24  1  0
 23 22  1  0
 25 24  1  0
 26 27  1  0
 28 26  2  0
M  END
$$$$
