QKK.pdb
     RDKit          3D

 28 27  0  0  1  0  0  0  0  0999 V2000
   13.0179  -16.8183   14.6137 N   0  0  0  0  0  0  0  0  0  0  0  0
   14.1507  -17.7085   14.5490 C   0  0  0  0  0  0  0  0  0  0  0  0
   15.0890  -17.3470   13.8155 O   0  0  0  0  0  0  0  0  0  0  0  0
   14.1258  -18.9570   15.3374 C   0  0  0  0  0  0  0  0  0  0  0  0
   12.8668  -19.1619   16.1060 C   0  0  0  0  0  0  0  0  0  0  0  0
   12.9302  -20.4293   16.8924 C   0  0  2  0  0  0  0  0  0  0  0  0
   12.3805  -21.4939   16.0501 N   0  0  0  0  0  0  0  0  0  0  0  0
   12.1072  -20.3709   18.1263 C   0  0  0  0  0  0  0  0  0  0  0  0
   12.4097  -19.5327   19.0296 O   0  0  0  0  0  0  0  0  0  0  0  0
   11.0115  -21.2414   18.2726 N   0  0  0  0  0  0  0  0  0  0  0  0
   10.1671  -21.1186   19.4975 C   0  0  1  0  0  0  0  0  0  0  0  0
    8.8511  -21.7757   19.1639 C   0  0  0  0  0  0  0  0  0  0  0  0
    8.0601  -21.0732   18.1258 C   0  0  0  0  0  0  0  0  0  0  0  0
    6.7831  -21.7984   17.7921 C   0  0  0  0  0  0  0  0  0  0  0  0
    5.9962  -21.1001   16.7155 C   0  0  0  0  0  0  0  0  0  0  0  0
    4.7479  -21.7471   16.4321 N   0  0  0  0  0  0  0  0  0  0  0  0
   10.9166  -21.7415   20.5929 C   0  0  0  0  0  0  0  0  0  0  0  0
   11.8174  -22.5862   20.3199 O   0  0  0  0  0  0  0  0  0  0  0  0
   10.7096  -21.4621   21.9491 N   0  0  0  0  0  0  0  0  0  0  0  0
   11.5373  -22.0609   23.0025 C   0  0  1  0  0  0  0  0  0  0  0  0
   11.4435  -21.1316   24.1829 C   0  0  0  0  0  0  0  0  0  0  0  0
   12.2380  -21.5857   25.3731 C   0  0  0  0  0  0  0  0  0  0  0  0
   12.2030  -20.5634   26.4749 C   0  0  0  0  0  0  0  0  0  0  0  0
   12.9597  -21.0319   27.7002 C   0  0  0  0  0  0  0  0  0  0  0  0
   13.0702  -19.9495   28.6515 N   0  0  0  0  0  0  0  0  0  0  0  0
   11.0341  -23.4123   23.2653 C   0  0  0  0  0  0  0  0  0  0  0  0
   11.9103  -24.4073   23.6508 O   0  0  0  0  0  0  0  0  0  0  0  0
    9.8254  -23.6784   23.1460 O   0  0  0  0  0  0  0  0  0  0  0  0
  2  1  1  0
  3  2  2  0
  4  2  1  0
  5  4  1  0
  6  8  1  0
  6  5  1  0
  6  7  1  6
  8  9  2  0
 10 11  1  0
 10  8  1  0
 12 13  1  0
 11 12  1  6
 13 14  1  0
 14 15  1  0
 15 16  1  0
 17 18  2  0
 17 11  1  0
 19 17  1  0
 20 26  1  0
 20 19  1  0
 20 21  1  1
 22 21  1  0
 23 24  1  0
 23 22  1  0
 25 24  1  0
 26 27  1  0
 28 26  2  0
M  END
$$$$
