QKK.pdb
     RDKit          3D

 28 27  0  0  1  0  0  0  0  0999 V2000
    6.0377  -19.4278   19.6394 N   0  0  0  0  0  0  0  0  0  0  0  0
    7.0586  -19.0529   18.6924 C   0  0  0  0  0  0  0  0  0  0  0  0
    7.3648  -19.9149   17.8484 O   0  0  0  0  0  0  0  0  0  0  0  0
    7.6575  -17.7059   18.7814 C   0  0  0  0  0  0  0  0  0  0  0  0
    7.1043  -16.8696   19.8825 C   0  0  0  0  0  0  0  0  0  0  0  0
    7.7422  -15.5199   19.8902 C   0  0  2  0  0  0  0  0  0  0  0  0
    8.8454  -15.5528   18.9275 N   0  0  0  0  0  0  0  0  0  0  0  0
    8.3190  -15.1745   21.2135 C   0  0  0  0  0  0  0  0  0  0  0  0
    9.5296  -15.4691   21.4538 O   0  0  0  0  0  0  0  0  0  0  0  0
    7.5179  -14.5300   22.1740 N   0  0  0  0  0  0  0  0  0  0  0  0
    8.1351  -14.1669   23.4838 C   0  0  1  0  0  0  0  0  0  0  0  0
    7.1411  -13.2700   24.1784 C   0  0  0  0  0  0  0  0  0  0  0  0
    7.5463  -12.8422   25.5385 C   0  0  0  0  0  0  0  0  0  0  0  0
    6.5266  -11.9392   26.1809 C   0  0  0  0  0  0  0  0  0  0  0  0
    6.9408  -11.5032   27.5609 C   0  0  0  0  0  0  0  0  0  0  0  0
    5.9364  -10.7203   28.2207 N   0  0  0  0  0  0  0  0  0  0  0  0
    8.4315  -15.4251   24.1758 C   0  0  0  0  0  0  0  0  0  0  0  0
    7.5190  -16.2929   24.2927 O   0  0  0  0  0  0  0  0  0  0  0  0
    9.6781  -15.7483   24.7251 N   0  0  0  0  0  0  0  0  0  0  0  0
    9.9143  -17.0147   25.4280 C   0  0  1  0  0  0  0  0  0  0  0  0
   11.0122  -17.7117   24.6701 C   0  0  0  0  0  0  0  0  0  0  0  0
   11.4783  -18.9839   25.3167 C   0  0  0  0  0  0  0  0  0  0  0  0
   12.5205  -19.6717   24.4793 C   0  0  0  0  0  0  0  0  0  0  0  0
   13.0513  -20.9185   25.1554 C   0  0  0  0  0  0  0  0  0  0  0  0
   14.0364  -21.5531   24.3094 N   0  0  0  0  0  0  0  0  0  0  0  0
   10.2526  -16.7073   26.8207 C   0  0  0  0  0  0  0  0  0  0  0  0
   10.7444  -15.4593   27.1475 O   0  0  0  0  0  0  0  0  0  0  0  0
   10.1033  -17.5564   27.7168 O   0  0  0  0  0  0  0  0  0  0  0  0
  2  1  1  0
  3  2  2  0
  4  2  1  0
  5  4  1  0
  6  8  1  0
  6  5  1  0
  6  7  1  6
  8  9  2  0
 10 11  1  0
 10  8  1  0
 12 13  1  0
 11 12  1  1
 13 14  1  0
 14 15  1  0
 15 16  1  0
 17 18  2  0
 17 11  1  0
 19 17  1  0
 20 26  1  0
 20 19  1  0
 20 21  1  6
 22 21  1  0
 23 24  1  0
 23 22  1  0
 25 24  1  0
 26 27  1  0
 28 26  2  0
M  END
$$$$
