QKK.pdb
     RDKit          3D

 28 27  0  0  1  0  0  0  0  0999 V2000
   12.6989  -19.2274   15.5110 N   0  0  0  0  0  0  0  0  0  0  0  0
   11.4653  -19.9586   15.3581 C   0  0  0  0  0  0  0  0  0  0  0  0
   11.4693  -20.8655   14.5056 O   0  0  0  0  0  0  0  0  0  0  0  0
   10.3087  -19.5952   16.2013 C   0  0  0  0  0  0  0  0  0  0  0  0
   10.6021  -18.5363   17.2067 C   0  0  0  0  0  0  0  0  0  0  0  0
   10.1794  -18.9731   18.5702 C   0  0  2  0  0  0  0  0  0  0  0  0
    8.7221  -19.1177   18.5503 N   0  0  0  0  0  0  0  0  0  0  0  0
   10.5111  -17.9705   19.6132 C   0  0  0  0  0  0  0  0  0  0  0  0
   11.7123  -17.8677   20.0092 O   0  0  0  0  0  0  0  0  0  0  0  0
    9.4935  -17.1555   20.1424 N   0  0  0  0  0  0  0  0  0  0  0  0
    9.8503  -16.1852   21.2192 C   0  0  1  0  0  0  0  0  0  0  0  0
    8.7643  -15.1385   21.2134 C   0  0  0  0  0  0  0  0  0  0  0  0
    8.7483  -14.2774   20.0071 C   0  0  0  0  0  0  0  0  0  0  0  0
    7.5680  -13.3423   19.9882 C   0  0  0  0  0  0  0  0  0  0  0  0
    7.5239  -12.5060   18.7373 C   0  0  0  0  0  0  0  0  0  0  0  0
    6.4204  -11.5900   18.7205 N   0  0  0  0  0  0  0  0  0  0  0  0
    9.9694  -16.9553   22.4611 C   0  0  0  0  0  0  0  0  0  0  0  0
    9.0849  -17.8156   22.7389 O   0  0  0  0  0  0  0  0  0  0  0  0
   11.0144  -16.8109   23.3816 N   0  0  0  0  0  0  0  0  0  0  0  0
   11.1652  -17.7057   24.5349 C   0  0  1  0  0  0  0  0  0  0  0  0
   11.8712  -18.9313   24.0200 C   0  0  0  0  0  0  0  0  0  0  0  0
   12.1923  -19.9362   25.0881 C   0  0  0  0  0  0  0  0  0  0  0  0
   12.9607  -21.1010   24.5284 C   0  0  0  0  0  0  0  0  0  0  0  0
   13.3371  -22.0958   25.6063 C   0  0  0  0  0  0  0  0  0  0  0  0
   14.1151  -23.1699   25.0319 N   0  0  0  0  0  0  0  0  0  0  0  0
   11.9024  -16.9860   25.5775 C   0  0  0  0  0  0  0  0  0  0  0  0
   12.7367  -15.9419   25.2308 O   0  0  0  0  0  0  0  0  0  0  0  0
   11.7882  -17.3021   26.7746 O   0  0  0  0  0  0  0  0  0  0  0  0
  2  1  1  0
  3  2  2  0
  4  2  1  0
  5  4  1  0
  6  8  1  0
  6  5  1  0
  6  7  1  6
  8  9  2  0
 10 11  1  0
 10  8  1  0
 12 13  1  0
 11 12  1  1
 13 14  1  0
 14 15  1  0
 15 16  1  0
 17 18  2  0
 17 11  1  0
 19 17  1  0
 20 26  1  0
 20 19  1  0
 20 21  1  6
 22 21  1  0
 23 24  1  0
 23 22  1  0
 25 24  1  0
 26 27  1  0
 28 26  2  0
M  END
$$$$
