QKK.pdb
     RDKit          3D

 28 27  0  0  1  0  0  0  0  0999 V2000
   14.4926  -15.8775   18.3432 N   0  0  0  0  0  0  0  0  0  0  0  0
   14.0496  -14.5315   18.6108 C   0  0  0  0  0  0  0  0  0  0  0  0
   14.9095  -13.7519   19.0603 O   0  0  0  0  0  0  0  0  0  0  0  0
   12.6426  -14.1738   18.3397 C   0  0  0  0  0  0  0  0  0  0  0  0
   11.7533  -14.2728   19.5302 C   0  0  0  0  0  0  0  0  0  0  0  0
   11.7394  -15.6674   20.0627 C   0  0  2  0  0  0  0  0  0  0  0  0
   11.4497  -16.5610   18.9391 N   0  0  0  0  0  0  0  0  0  0  0  0
   10.6773  -15.8742   21.0787 C   0  0  0  0  0  0  0  0  0  0  0  0
   10.6255  -15.0994   22.0823 O   0  0  0  0  0  0  0  0  0  0  0  0
    9.7510  -16.9201   20.9128 N   0  0  0  0  0  0  0  0  0  0  0  0
    8.6940  -17.1025   21.9511 C   0  0  1  0  0  0  0  0  0  0  0  0
    7.8738  -18.2878   21.5068 C   0  0  0  0  0  0  0  0  0  0  0  0
    6.8433  -18.7205   22.4804 C   0  0  0  0  0  0  0  0  0  0  0  0
    6.0515  -19.9026   21.9867 C   0  0  0  0  0  0  0  0  0  0  0  0
    5.0100  -20.3451   22.9794 C   0  0  0  0  0  0  0  0  0  0  0  0
    4.2149  -21.4383   22.4999 N   0  0  0  0  0  0  0  0  0  0  0  0
    9.3843  -17.2659   23.2342 C   0  0  0  0  0  0  0  0  0  0  0  0
   10.3460  -18.0832   23.3159 O   0  0  0  0  0  0  0  0  0  0  0  0
    9.0555  -16.5661   24.4013 N   0  0  0  0  0  0  0  0  0  0  0  0
    9.7446  -16.8078   25.6742 C   0  0  1  0  0  0  0  0  0  0  0  0
    9.3672  -15.6622   26.5747 C   0  0  0  0  0  0  0  0  0  0  0  0
    9.8215  -15.8361   27.9950 C   0  0  0  0  0  0  0  0  0  0  0  0
   10.1449  -14.5125   28.6305 C   0  0  0  0  0  0  0  0  0  0  0  0
   10.6865  -14.6809   30.0347 C   0  0  0  0  0  0  0  0  0  0  0  0
   11.0513  -13.3919   30.5771 N   0  0  0  0  0  0  0  0  0  0  0  0
    9.3310  -18.1219   26.1748 C   0  0  0  0  0  0  0  0  0  0  0  0
    8.0582  -18.5869   25.9099 O   0  0  0  0  0  0  0  0  0  0  0  0
   10.1112  -18.8278   26.8373 O   0  0  0  0  0  0  0  0  0  0  0  0
  2  1  1  0
  3  2  2  0
  4  2  1  0
  5  4  1  0
  6  8  1  0
  6  5  1  0
  6  7  1  6
  8  9  2  0
 10 11  1  0
 10  8  1  0
 12 13  1  0
 11 12  1  6
 13 14  1  0
 14 15  1  0
 15 16  1  0
 17 18  2  0
 17 11  1  0
 19 17  1  0
 20 26  1  0
 20 19  1  0
 20 21  1  1
 22 21  1  0
 23 24  1  0
 23 22  1  0
 25 24  1  0
 26 27  1  0
 28 26  2  0
M  END
$$$$
