QKK.pdb
     RDKit          3D

 28 27  0  0  1  0  0  0  0  0999 V2000
    6.6941  -13.4521   16.4216 N   0  0  0  0  0  0  0  0  0  0  0  0
    7.8911  -14.0624   15.8978 C   0  0  0  0  0  0  0  0  0  0  0  0
    7.9100  -14.2633   14.6696 O   0  0  0  0  0  0  0  0  0  0  0  0
    8.9885  -14.3988   16.8270 C   0  0  0  0  0  0  0  0  0  0  0  0
    8.5383  -14.6768   18.2192 C   0  0  0  0  0  0  0  0  0  0  0  0
    9.7081  -14.7727   19.1417 C   0  0  2  0  0  0  0  0  0  0  0  0
   10.6899  -15.6581   18.5114 N   0  0  0  0  0  0  0  0  0  0  0  0
    9.3479  -15.3713   20.4513 C   0  0  0  0  0  0  0  0  0  0  0  0
    8.3999  -14.8602   21.1224 O   0  0  0  0  0  0  0  0  0  0  0  0
   10.0597  -16.4891   20.9239 N   0  0  0  0  0  0  0  0  0  0  0  0
    9.6211  -17.1197   22.2039 C   0  0  1  0  0  0  0  0  0  0  0  0
   10.4706  -18.3546   22.3724 C   0  0  0  0  0  0  0  0  0  0  0  0
   10.1722  -19.1430   23.5916 C   0  0  0  0  0  0  0  0  0  0  0  0
   10.9697  -20.4188   23.6564 C   0  0  0  0  0  0  0  0  0  0  0  0
   10.7022  -21.1943   24.9186 C   0  0  0  0  0  0  0  0  0  0  0  0
    9.4941  -21.9644   24.8515 N   0  0  0  0  0  0  0  0  0  0  0  0
    9.7777  -16.1057   23.2512 C   0  0  0  0  0  0  0  0  0  0  0  0
   10.9267  -15.6289   23.4791 O   0  0  0  0  0  0  0  0  0  0  0  0
    8.7270  -15.6102   24.0326 N   0  0  0  0  0  0  0  0  0  0  0  0
    8.9591  -14.7139   25.1711 C   0  0  1  0  0  0  0  0  0  0  0  0
    7.6989  -13.9056   25.3268 C   0  0  0  0  0  0  0  0  0  0  0  0
    7.6853  -13.0393   26.5529 C   0  0  0  0  0  0  0  0  0  0  0  0
    6.4733  -12.1500   26.5792 C   0  0  0  0  0  0  0  0  0  0  0  0
    6.4100  -11.3241   27.8470 C   0  0  0  0  0  0  0  0  0  0  0  0
    5.1500  -10.6190   27.9103 N   0  0  0  0  0  0  0  0  0  0  0  0
    9.2893  -15.5357   26.3390 C   0  0  0  0  0  0  0  0  0  0  0  0
    9.9002  -14.9573   27.4338 O   0  0  0  0  0  0  0  0  0  0  0  0
    9.0272  -16.7510   26.3598 O   0  0  0  0  0  0  0  0  0  0  0  0
  2  1  1  0
  3  2  2  0
  4  2  1  0
  5  4  1  0
  6  8  1  0
  6  5  1  0
  6  7  1  6
  8  9  2  0
 10 11  1  0
 10  8  1  0
 12 13  1  0
 11 12  1  1
 13 14  1  0
 14 15  1  0
 15 16  1  0
 17 18  2  0
 17 11  1  0
 19 17  1  0
 20 26  1  0
 20 19  1  0
 20 21  1  1
 22 21  1  0
 23 24  1  0
 23 22  1  0
 25 24  1  0
 26 27  1  0
 28 26  2  0
M  END
$$$$
