YFT.pdb
     RDKit          3D

 31 32  0  0  1  0  0  0  0  0999 V2000
    7.7491  -13.7919   15.9878 O   0  0  0  0  0  0  0  0  0  0  0  0
    8.0142  -13.7497   17.3371 C   0  0  0  0  0  0  0  0  0  0  0  0
    8.9957  -14.5416   17.8643 C   0  0  0  0  0  0  0  0  0  0  0  0
    9.2521  -14.4920   19.2112 C   0  0  0  0  0  0  0  0  0  0  0  0
    8.5378  -13.6539   20.0618 C   0  0  0  0  0  0  0  0  0  0  0  0
    8.8221  -13.6099   21.5112 C   0  0  0  0  0  0  0  0  0  0  0  0
    8.9502  -15.0548   21.9797 C   0  0  2  0  0  0  0  0  0  0  0  0
    7.7123  -15.7142   21.6197 N   0  0  0  0  0  0  0  0  0  0  0  0
    9.1554  -15.1680   23.4204 C   0  0  0  0  0  0  0  0  0  0  0  0
   10.1812  -14.6369   23.9053 O   0  0  0  0  0  0  0  0  0  0  0  0
    7.5514  -12.8577   19.5327 C   0  0  0  0  0  0  0  0  0  0  0  0
    7.2854  -12.9039   18.1601 C   0  0  0  0  0  0  0  0  0  0  0  0
    8.2132  -15.8589   24.2213 N   0  0  0  0  0  0  0  0  0  0  0  0
    8.4310  -15.9062   25.6455 C   0  0  1  0  0  0  0  0  0  0  0  0
    7.1407  -15.6193   26.3573 C   0  0  0  0  0  0  0  0  0  0  0  0
    6.9737  -14.1799   26.6230 C   0  0  0  0  0  0  0  0  0  0  0  0
    8.0350  -13.4587   27.1144 C   0  0  0  0  0  0  0  0  0  0  0  0
    7.8547  -12.1233   27.3609 C   0  0  0  0  0  0  0  0  0  0  0  0
    6.6515  -11.5058   27.1286 C   0  0  0  0  0  0  0  0  0  0  0  0
    5.5761  -12.2116   26.6366 C   0  0  0  0  0  0  0  0  0  0  0  0
    5.7709  -13.5693   26.3896 C   0  0  0  0  0  0  0  0  0  0  0  0
    8.9722  -17.2544   25.9940 C   0  0  0  0  0  0  0  0  0  0  0  0
    9.0240  -17.7268   27.1516 O   0  0  0  0  0  0  0  0  0  0  0  0
   11.0651  -21.4962   24.4510 C   0  0  0  0  0  0  0  0  0  0  0  0
   10.4364  -20.1884   24.0760 C   0  0  1  0  0  0  0  0  0  0  0  0
    9.2399  -20.3743   23.3626 O   0  0  0  0  0  0  0  0  0  0  0  0
   10.1367  -19.3575   25.3082 C   0  0  2  0  0  0  0  0  0  0  0  0
    9.4842  -18.1102   24.9514 N   0  0  0  0  0  0  0  0  0  0  0  0
   11.4204  -19.0947   26.0160 C   0  0  0  0  0  0  0  0  0  0  0  0
   11.8619  -17.9111   26.0375 O   0  0  0  0  0  0  0  0  0  0  0  0
   12.1216  -20.0885   26.6334 O   0  0  0  0  0  0  0  0  0  0  0  0
  2 12  2  0
  2  1  1  0
  3  2  1  0
  4  5  1  0
  4  3  2  0
  5 11  2  0
  6  5  1  0
  6  7  1  0
  7  8  1  1
  9  7  1  0
  9 13  1  0
 10  9  2  0
 11 12  1  0
 13 14  1  0
 15 16  1  0
 14 15  1  1
 16 17  2  0
 17 18  1  0
 19 18  2  0
 20 19  1  0
 21 20  2  0
 21 16  1  0
 22 23  2  0
 22 14  1  0
 25 24  1  1
 25 27  1  0
 26 25  1  0
 27 28  1  6
 27 29  1  0
 28 22  1  0
 29 31  1  0
 30 29  2  0
M  END
$$$$
