YFT.pdb
     RDKit          3D

 31 32  0  0  1  0  0  0  0  0999 V2000
    6.7674  -20.2728   15.7357 O   0  0  0  0  0  0  0  0  0  0  0  0
    7.2390  -19.8054   16.9405 C   0  0  0  0  0  0  0  0  0  0  0  0
    6.3613  -19.3716   17.8943 C   0  0  0  0  0  0  0  0  0  0  0  0
    6.8419  -18.9072   19.0926 C   0  0  0  0  0  0  0  0  0  0  0  0
    8.2054  -18.8646   19.3672 C   0  0  0  0  0  0  0  0  0  0  0  0
    8.7114  -18.3612   20.6610 C   0  0  0  0  0  0  0  0  0  0  0  0
    8.9583  -16.8671   20.4869 C   0  0  2  0  0  0  0  0  0  0  0  0
   10.1671  -16.7399   19.6999 N   0  0  0  0  0  0  0  0  0  0  0  0
    9.1344  -16.1695   21.7569 C   0  0  0  0  0  0  0  0  0  0  0  0
   10.2742  -16.1858   22.2765 O   0  0  0  0  0  0  0  0  0  0  0  0
    9.0880  -19.3005   18.4092 C   0  0  0  0  0  0  0  0  0  0  0  0
    8.6039  -19.7751   17.1855 C   0  0  0  0  0  0  0  0  0  0  0  0
    8.0395  -15.5042   22.3611 N   0  0  0  0  0  0  0  0  0  0  0  0
    8.2592  -14.8245   23.6132 C   0  0  1  0  0  0  0  0  0  0  0  0
    7.1911  -13.7886   23.8128 C   0  0  0  0  0  0  0  0  0  0  0  0
    7.2183  -13.2342   25.1775 C   0  0  0  0  0  0  0  0  0  0  0  0
    6.0347  -13.0324   25.8456 C   0  0  0  0  0  0  0  0  0  0  0  0
    6.0836  -12.5091   27.1107 C   0  0  0  0  0  0  0  0  0  0  0  0
    7.2757  -12.1890   27.7102 C   0  0  0  0  0  0  0  0  0  0  0  0
    8.4723  -12.3838   27.0568 C   0  0  0  0  0  0  0  0  0  0  0  0
    8.4106  -12.9166   25.7704 C   0  0  0  0  0  0  0  0  0  0  0  0
    8.2602  -15.8423   24.7069 C   0  0  0  0  0  0  0  0  0  0  0  0
    7.2478  -16.4539   25.1155 O   0  0  0  0  0  0  0  0  0  0  0  0
    9.3295  -19.1286   24.8072 C   0  0  0  0  0  0  0  0  0  0  0  0
   10.1667  -18.4786   25.8668 C   0  0  1  0  0  0  0  0  0  0  0  0
   11.4444  -18.1451   25.3856 O   0  0  0  0  0  0  0  0  0  0  0  0
    9.5039  -17.2170   26.3840 C   0  0  2  0  0  0  0  0  0  0  0  0
    9.4968  -16.1772   25.3703 N   0  0  0  0  0  0  0  0  0  0  0  0
   10.2442  -16.7649   27.5946 C   0  0  0  0  0  0  0  0  0  0  0  0
   10.8235  -15.6426   27.5591 O   0  0  0  0  0  0  0  0  0  0  0  0
   10.3109  -17.5239   28.7261 O   0  0  0  0  0  0  0  0  0  0  0  0
  2 12  2  0
  2  1  1  0
  3  2  1  0
  4  5  1  0
  4  3  2  0
  5 11  2  0
  6  5  1  0
  6  7  1  0
  7  8  1  6
  9  7  1  0
  9 13  1  0
 10  9  2  0
 11 12  1  0
 13 14  1  0
 15 16  1  0
 14 15  1  1
 16 17  2  0
 17 18  1  0
 19 18  2  0
 20 19  1  0
 21 20  2  0
 21 16  1  0
 22 23  2  0
 22 14  1  0
 25 24  1  6
 25 27  1  0
 26 25  1  0
 27 28  1  6
 27 29  1  0
 28 22  1  0
 29 31  1  0
 30 29  2  0
M  END
$$$$
