YFT.pdb
     RDKit          3D

 31 32  0  0  1  0  0  0  0  0999 V2000
    7.7273  -13.6938   15.6400 O   0  0  0  0  0  0  0  0  0  0  0  0
    7.8901  -13.6206   17.0041 C   0  0  0  0  0  0  0  0  0  0  0  0
    9.1391  -13.4538   17.5338 C   0  0  0  0  0  0  0  0  0  0  0  0
    9.2906  -13.3822   18.8955 C   0  0  0  0  0  0  0  0  0  0  0  0
    8.2033  -13.4749   19.7588 C   0  0  0  0  0  0  0  0  0  0  0  0
    8.3789  -13.3976   21.2239 C   0  0  0  0  0  0  0  0  0  0  0  0
    8.9649  -14.7326   21.6691 C   0  0  2  0  0  0  0  0  0  0  0  0
    8.0043  -15.7485   21.2922 N   0  0  0  0  0  0  0  0  0  0  0  0
    9.1966  -14.7986   23.1086 C   0  0  0  0  0  0  0  0  0  0  0  0
   10.0601  -14.0320   23.5946 O   0  0  0  0  0  0  0  0  0  0  0  0
    6.9478  -13.6425   19.2272 C   0  0  0  0  0  0  0  0  0  0  0  0
    6.7870  -13.7162   17.8395 C   0  0  0  0  0  0  0  0  0  0  0  0
    8.4582  -15.7059   23.9074 N   0  0  0  0  0  0  0  0  0  0  0  0
    8.6545  -15.6758   25.3352 C   0  0  1  0  0  0  0  0  0  0  0  0
    7.3282  -15.5052   26.0177 C   0  0  0  0  0  0  0  0  0  0  0  0
    7.0561  -14.0923   26.3338 C   0  0  0  0  0  0  0  0  0  0  0  0
    5.8863  -13.5183   25.8978 C   0  0  0  0  0  0  0  0  0  0  0  0
    5.6577  -12.2012   26.1971 C   0  0  0  0  0  0  0  0  0  0  0  0
    6.5633  -11.4594   26.9130 C   0  0  0  0  0  0  0  0  0  0  0  0
    7.7413  -12.0167   27.3584 C   0  0  0  0  0  0  0  0  0  0  0  0
    7.9634  -13.3571   27.0482 C   0  0  0  0  0  0  0  0  0  0  0  0
    9.3329  -16.9427   25.7435 C   0  0  0  0  0  0  0  0  0  0  0  0
    9.2219  -17.4835   26.8665 O   0  0  0  0  0  0  0  0  0  0  0  0
    9.3969  -20.4729   24.0855 C   0  0  0  0  0  0  0  0  0  0  0  0
   10.7852  -19.9132   24.1602 C   0  0  1  0  0  0  0  0  0  0  0  0
   11.1888  -19.3625   22.9318 O   0  0  0  0  0  0  0  0  0  0  0  0
   10.8796  -18.8364   25.2234 C   0  0  2  0  0  0  0  0  0  0  0  0
   10.1892  -17.6288   24.8067 N   0  0  0  0  0  0  0  0  0  0  0  0
   12.3204  -18.5568   25.4761 C   0  0  0  0  0  0  0  0  0  0  0  0
   12.7579  -17.3968   25.2325 O   0  0  0  0  0  0  0  0  0  0  0  0
   13.1678  -19.5109   25.9580 O   0  0  0  0  0  0  0  0  0  0  0  0
  2 12  2  0
  2  1  1  0
  3  2  1  0
  4  5  1  0
  4  3  2  0
  5 11  2  0
  6  5  1  0
  6  7  1  0
  7  8  1  1
  9  7  1  0
  9 13  1  0
 10  9  2  0
 11 12  1  0
 13 14  1  0
 15 16  1  0
 14 15  1  1
 16 17  2  0
 17 18  1  0
 19 18  2  0
 20 19  1  0
 21 20  2  0
 21 16  1  0
 22 23  2  0
 22 14  1  0
 25 24  1  6
 25 27  1  0
 26 25  1  0
 27 28  1  6
 27 29  1  0
 28 22  1  0
 29 31  1  0
 30 29  2  0
M  END
$$$$
