YFT.pdb
     RDKit          3D

 31 32  0  0  1  0  0  0  0  0999 V2000
    8.5206  -19.7644   14.9802 O   0  0  0  0  0  0  0  0  0  0  0  0
    8.6968  -19.3187   16.2698 C   0  0  0  0  0  0  0  0  0  0  0  0
    9.9590  -19.1354   16.7614 C   0  0  0  0  0  0  0  0  0  0  0  0
   10.1237  -18.6907   18.0488 C   0  0  0  0  0  0  0  0  0  0  0  0
    9.0368  -18.4190   18.8740 C   0  0  0  0  0  0  0  0  0  0  0  0
    9.2267  -17.9415   20.2595 C   0  0  0  0  0  0  0  0  0  0  0  0
    9.3396  -16.4229   20.1911 C   0  0  2  0  0  0  0  0  0  0  0  0
   10.5320  -16.1343   19.4218 N   0  0  0  0  0  0  0  0  0  0  0  0
    9.4535  -15.8027   21.5075 C   0  0  0  0  0  0  0  0  0  0  0  0
   10.5985  -15.7006   22.0054 O   0  0  0  0  0  0  0  0  0  0  0  0
    7.7682  -18.6028   18.3806 C   0  0  0  0  0  0  0  0  0  0  0  0
    7.5938  -19.0561   17.0687 C   0  0  0  0  0  0  0  0  0  0  0  0
    8.2951  -15.3399   22.1787 N   0  0  0  0  0  0  0  0  0  0  0  0
    8.4574  -14.7010   23.4607 C   0  0  1  0  0  0  0  0  0  0  0  0
    7.3358  -13.7269   23.6782 C   0  0  0  0  0  0  0  0  0  0  0  0
    7.3589  -13.1652   25.0399 C   0  0  0  0  0  0  0  0  0  0  0  0
    8.3460  -12.2731   25.3833 C   0  0  0  0  0  0  0  0  0  0  0  0
    8.3521  -11.7692   26.6571 C   0  0  0  0  0  0  0  0  0  0  0  0
    7.4042  -12.1354   27.5792 C   0  0  0  0  0  0  0  0  0  0  0  0
    6.4071  -13.0282   27.2542 C   0  0  0  0  0  0  0  0  0  0  0  0
    6.4107  -13.5344   25.9557 C   0  0  0  0  0  0  0  0  0  0  0  0
    8.4880  -15.7604   24.5136 C   0  0  0  0  0  0  0  0  0  0  0  0
    7.5063  -16.4564   24.8565 O   0  0  0  0  0  0  0  0  0  0  0  0
   10.3608  -18.8193   24.3482 C   0  0  0  0  0  0  0  0  0  0  0  0
   10.8009  -18.1912   25.6358 C   0  0  1  0  0  0  0  0  0  0  0  0
   12.0455  -17.5522   25.5019 O   0  0  0  0  0  0  0  0  0  0  0  0
    9.7869  -17.1718   26.1167 C   0  0  2  0  0  0  0  0  0  0  0  0
    9.7188  -16.0364   25.2140 N   0  0  0  0  0  0  0  0  0  0  0  0
   10.1810  -16.7325   27.4841 C   0  0  0  0  0  0  0  0  0  0  0  0
   10.2118  -17.5961   28.4058 O   0  0  0  0  0  0  0  0  0  0  0  0
   10.5052  -15.4369   27.7613 O   0  0  0  0  0  0  0  0  0  0  0  0
  2 12  2  0
  2  1  1  0
  3  2  1  0
  4  5  1  0
  4  3  2  0
  5 11  2  0
  6  5  1  0
  6  7  1  0
  7  8  1  6
  9  7  1  0
  9 13  1  0
 10  9  2  0
 11 12  1  0
 13 14  1  0
 15 16  1  0
 14 15  1  1
 16 17  2  0
 17 18  1  0
 19 18  2  0
 20 19  1  0
 21 20  2  0
 21 16  1  0
 22 23  2  0
 22 14  1  0
 25 24  1  6
 25 27  1  0
 26 25  1  0
 27 28  1  6
 27 29  1  0
 28 22  1  0
 29 31  1  0
 30 29  2  0
M  END
$$$$
