YFT.pdb
     RDKit          3D

 31 32  0  0  1  0  0  0  0  0999 V2000
    7.6783  -14.5484   14.3594 O   0  0  0  0  0  0  0  0  0  0  0  0
    7.6503  -14.8828   15.6936 C   0  0  0  0  0  0  0  0  0  0  0  0
    7.7232  -13.9028   16.6438 C   0  0  0  0  0  0  0  0  0  0  0  0
    7.6946  -14.2470   17.9716 C   0  0  0  0  0  0  0  0  0  0  0  0
    7.5928  -15.5726   18.3822 C   0  0  0  0  0  0  0  0  0  0  0  0
    7.5641  -15.9312   19.8153 C   0  0  0  0  0  0  0  0  0  0  0  0
    8.8418  -15.3764   20.4346 C   0  0  2  0  0  0  0  0  0  0  0  0
    9.9158  -16.2511   20.0124 N   0  0  0  0  0  0  0  0  0  0  0  0
    8.7956  -15.3392   21.8930 C   0  0  0  0  0  0  0  0  0  0  0  0
    9.5570  -16.1124   22.5191 O   0  0  0  0  0  0  0  0  0  0  0  0
    7.5194  -16.5578   17.4278 C   0  0  0  0  0  0  0  0  0  0  0  0
    7.5481  -16.2131   16.0723 C   0  0  0  0  0  0  0  0  0  0  0  0
    7.9124  -14.4512   22.5546 N   0  0  0  0  0  0  0  0  0  0  0  0
    8.0414  -14.2960   23.9819 C   0  0  1  0  0  0  0  0  0  0  0  0
    7.2273  -13.1173   24.4313 C   0  0  0  0  0  0  0  0  0  0  0  0
    7.3741  -12.8734   25.8768 C   0  0  0  0  0  0  0  0  0  0  0  0
    6.2758  -12.4940   26.6102 C   0  0  0  0  0  0  0  0  0  0  0  0
    6.4373  -12.2655   27.9512 C   0  0  0  0  0  0  0  0  0  0  0  0
    7.6576  -12.4071   28.5623 C   0  0  0  0  0  0  0  0  0  0  0  0
    8.7700  -12.7862   27.8443 C   0  0  0  0  0  0  0  0  0  0  0  0
    8.5942  -13.0160   26.4810 C   0  0  0  0  0  0  0  0  0  0  0  0
    7.5952  -15.5634   24.6350 C   0  0  0  0  0  0  0  0  0  0  0  0
    6.4108  -15.9646   24.6832 O   0  0  0  0  0  0  0  0  0  0  0  0
    7.3283  -18.8542   23.9930 C   0  0  0  0  0  0  0  0  0  0  0  0
    8.2873  -18.8490   25.1448 C   0  0  1  0  0  0  0  0  0  0  0  0
    9.6217  -18.9126   24.7083 O   0  0  0  0  0  0  0  0  0  0  0  0
    8.1165  -17.6002   25.9873 C   0  0  2  0  0  0  0  0  0  0  0  0
    8.5666  -16.4204   25.2702 N   0  0  0  0  0  0  0  0  0  0  0  0
    8.8932  -17.7779   27.2456 C   0  0  0  0  0  0  0  0  0  0  0  0
    9.8837  -17.0208   27.4509 O   0  0  0  0  0  0  0  0  0  0  0  0
    8.5648  -18.7261   28.1696 O   0  0  0  0  0  0  0  0  0  0  0  0
  2 12  2  0
  2  1  1  0
  3  2  1  0
  4  5  1  0
  4  3  2  0
  5 11  2  0
  6  5  1  0
  6  7  1  0
  7  8  1  1
  9  7  1  0
  9 13  1  0
 10  9  2  0
 11 12  1  0
 13 14  1  0
 15 16  1  0
 14 15  1  1
 16 17  2  0
 17 18  1  0
 19 18  2  0
 20 19  1  0
 21 20  2  0
 21 16  1  0
 22 23  2  0
 22 14  1  0
 25 24  1  6
 25 27  1  0
 26 25  1  0
 27 28  1  6
 27 29  1  0
 28 22  1  0
 29 31  1  0
 30 29  2  0
M  END
$$$$
