YFT.pdb
     RDKit          3D

 31 32  0  0  1  0  0  0  0  0999 V2000
   11.0718  -20.8788   13.4193 O   0  0  0  0  0  0  0  0  0  0  0  0
   11.1342  -20.3860   14.7022 C   0  0  0  0  0  0  0  0  0  0  0  0
   10.0901  -20.5867   15.5612 C   0  0  0  0  0  0  0  0  0  0  0  0
   10.1623  -20.0909   16.8385 C   0  0  0  0  0  0  0  0  0  0  0  0
   11.2741  -19.3854   17.2880 C   0  0  0  0  0  0  0  0  0  0  0  0
   11.3400  -18.8551   18.6657 C   0  0  0  0  0  0  0  0  0  0  0  0
   10.3888  -17.6655   18.7265 C   0  0  2  0  0  0  0  0  0  0  0  0
   10.8755  -16.7013   17.7619 N   0  0  0  0  0  0  0  0  0  0  0  0
   10.3406  -17.0446   20.0465 C   0  0  0  0  0  0  0  0  0  0  0  0
   11.2651  -16.2565   20.3528 O   0  0  0  0  0  0  0  0  0  0  0  0
   12.3238  -19.1835   16.4253 C   0  0  0  0  0  0  0  0  0  0  0  0
   12.2560  -19.6865   15.1217 C   0  0  0  0  0  0  0  0  0  0  0  0
    9.2754  -17.3384   20.9327 N   0  0  0  0  0  0  0  0  0  0  0  0
    9.2551  -16.6850   22.2175 C   0  0  1  0  0  0  0  0  0  0  0  0
    7.9165  -16.0386   22.4275 C   0  0  0  0  0  0  0  0  0  0  0  0
    7.7841  -14.7951   21.6487 C   0  0  0  0  0  0  0  0  0  0  0  0
    8.1424  -13.5996   22.2235 C   0  0  0  0  0  0  0  0  0  0  0  0
    8.0040  -12.4553   21.4833 C   0  0  0  0  0  0  0  0  0  0  0  0
    7.5213  -12.4842   20.1991 C   0  0  0  0  0  0  0  0  0  0  0  0
    7.1567  -13.6724   19.6057 C   0  0  0  0  0  0  0  0  0  0  0  0
    7.3017  -14.8301   20.3680 C   0  0  0  0  0  0  0  0  0  0  0  0
    9.5530  -17.7044   23.2683 C   0  0  0  0  0  0  0  0  0  0  0  0
    8.7641  -18.6031   23.6369 O   0  0  0  0  0  0  0  0  0  0  0  0
   12.6399  -19.9602   23.3696 C   0  0  0  0  0  0  0  0  0  0  0  0
   12.5328  -19.2770   24.6992 C   0  0  1  0  0  0  0  0  0  0  0  0
   13.4559  -18.2237   24.8165 O   0  0  0  0  0  0  0  0  0  0  0  0
   11.1389  -18.7199   24.9123 C   0  0  2  0  0  0  0  0  0  0  0  0
   10.8325  -17.6906   23.9349 N   0  0  0  0  0  0  0  0  0  0  0  0
   11.0634  -18.1706   26.2945 C   0  0  0  0  0  0  0  0  0  0  0  0
   11.1908  -18.9694   27.2651 O   0  0  0  0  0  0  0  0  0  0  0  0
   10.8626  -16.8428   26.5343 O   0  0  0  0  0  0  0  0  0  0  0  0
  2 12  2  0
  2  1  1  0
  3  2  1  0
  4  5  1  0
  4  3  2  0
  5 11  2  0
  6  5  1  0
  6  7  1  0
  7  8  1  6
  9  7  1  0
  9 13  1  0
 10  9  2  0
 11 12  1  0
 13 14  1  0
 15 16  1  0
 14 15  1  1
 16 17  2  0
 17 18  1  0
 19 18  2  0
 20 19  1  0
 21 20  2  0
 21 16  1  0
 22 23  2  0
 22 14  1  0
 25 24  1  6
 25 27  1  0
 26 25  1  0
 27 28  1  6
 27 29  1  0
 28 22  1  0
 29 31  1  0
 30 29  2  0
M  END
$$$$
