YFT.pdb
     RDKit          3D

 31 32  0  0  1  0  0  0  0  0999 V2000
    7.8227  -12.8756   15.8747 O   0  0  0  0  0  0  0  0  0  0  0  0
    7.5025  -13.2954   17.1452 C   0  0  0  0  0  0  0  0  0  0  0  0
    6.7975  -14.4528   17.3234 C   0  0  0  0  0  0  0  0  0  0  0  0
    6.4832  -14.8626   18.5945 C   0  0  0  0  0  0  0  0  0  0  0  0
    6.8634  -14.1300   19.7147 C   0  0  0  0  0  0  0  0  0  0  0  0
    6.5182  -14.5808   21.0789 C   0  0  0  0  0  0  0  0  0  0  0  0
    7.7682  -15.2340   21.6573 C   0  0  2  0  0  0  0  0  0  0  0  0
    8.0586  -16.3783   20.8187 N   0  0  0  0  0  0  0  0  0  0  0  0
    7.5894  -15.6795   23.0356 C   0  0  0  0  0  0  0  0  0  0  0  0
    6.4810  -15.4628   23.5779 O   0  0  0  0  0  0  0  0  0  0  0  0
    7.5721  -12.9669   19.5363 C   0  0  0  0  0  0  0  0  0  0  0  0
    7.8955  -12.5439   18.2427 C   0  0  0  0  0  0  0  0  0  0  0  0
    8.6470  -16.3321   23.7155 N   0  0  0  0  0  0  0  0  0  0  0  0
    9.2611  -15.6577   24.8317 C   0  0  1  0  0  0  0  0  0  0  0  0
    8.3034  -15.6324   25.9877 C   0  0  0  0  0  0  0  0  0  0  0  0
    8.8776  -14.9419   27.1556 C   0  0  0  0  0  0  0  0  0  0  0  0
    9.7525  -15.6160   27.9729 C   0  0  0  0  0  0  0  0  0  0  0  0
   10.2683  -14.9564   29.0571 C   0  0  0  0  0  0  0  0  0  0  0  0
    9.9304  -13.6557   29.3344 C   0  0  0  0  0  0  0  0  0  0  0  0
    9.0551  -12.9634   28.5273 C   0  0  0  0  0  0  0  0  0  0  0  0
    8.5366  -13.6442   27.4273 C   0  0  0  0  0  0  0  0  0  0  0  0
   10.5284  -16.3714   25.1731 C   0  0  0  0  0  0  0  0  0  0  0  0
   11.1539  -16.2430   26.2493 O   0  0  0  0  0  0  0  0  0  0  0  0
   11.2915  -20.2734   24.9218 C   0  0  0  0  0  0  0  0  0  0  0  0
   12.2312  -19.4589   24.0853 C   0  0  1  0  0  0  0  0  0  0  0  0
   11.8381  -19.4376   22.7361 O   0  0  0  0  0  0  0  0  0  0  0  0
   12.3044  -18.0300   24.5868 C   0  0  2  0  0  0  0  0  0  0  0  0
   11.1116  -17.2864   24.2222 N   0  0  0  0  0  0  0  0  0  0  0  0
   13.5183  -17.3938   24.0039 C   0  0  0  0  0  0  0  0  0  0  0  0
   13.3718  -16.3532   23.3024 O   0  0  0  0  0  0  0  0  0  0  0  0
   14.7681  -17.9012   24.2068 O   0  0  0  0  0  0  0  0  0  0  0  0
  2 12  2  0
  2  1  1  0
  3  2  1  0
  4  5  1  0
  4  3  2  0
  5 11  2  0
  6  5  1  0
  6  7  1  0
  7  8  1  6
  9  7  1  0
  9 13  1  0
 10  9  2  0
 11 12  1  0
 13 14  1  0
 15 16  1  0
 14 15  1  1
 16 17  2  0
 17 18  1  0
 19 18  2  0
 20 19  1  0
 21 20  2  0
 21 16  1  0
 22 23  2  0
 22 14  1  0
 25 24  1  1
 25 27  1  0
 26 25  1  0
 27 28  1  6
 27 29  1  0
 28 22  1  0
 29 31  1  0
 30 29  2  0
M  END
$$$$
