YFT.pdb
     RDKit          3D

 31 32  0  0  1  0  0  0  0  0999 V2000
    7.5450  -14.7809   13.9771 O   0  0  0  0  0  0  0  0  0  0  0  0
    7.9126  -15.0463   15.2760 C   0  0  0  0  0  0  0  0  0  0  0  0
    7.8142  -16.3186   15.7660 C   0  0  0  0  0  0  0  0  0  0  0  0
    8.1833  -16.5726   17.0628 C   0  0  0  0  0  0  0  0  0  0  0  0
    8.6578  -15.5669   17.8992 C   0  0  0  0  0  0  0  0  0  0  0  0
    9.0512  -15.8524   19.2946 C   0  0  0  0  0  0  0  0  0  0  0  0
    9.4863  -14.5274   19.9101 C   0  0  2  0  0  0  0  0  0  0  0  0
   10.8357  -14.2825   19.4453 N   0  0  0  0  0  0  0  0  0  0  0  0
    9.4757  -14.5492   21.3694 C   0  0  0  0  0  0  0  0  0  0  0  0
   10.5469  -14.8310   21.9548 O   0  0  0  0  0  0  0  0  0  0  0  0
    8.7570  -14.2882   17.4073 C   0  0  0  0  0  0  0  0  0  0  0  0
    8.3822  -14.0230   16.0859 C   0  0  0  0  0  0  0  0  0  0  0  0
    8.2836  -14.2581   22.0769 N   0  0  0  0  0  0  0  0  0  0  0  0
    8.3630  -14.0771   23.5048 C   0  0  1  0  0  0  0  0  0  0  0  0
    7.3061  -13.1055   23.9442 C   0  0  0  0  0  0  0  0  0  0  0  0
    7.2889  -12.9450   25.4085 C   0  0  0  0  0  0  0  0  0  0  0  0
    8.3017  -12.2472   26.0210 C   0  0  0  0  0  0  0  0  0  0  0  0
    8.2690  -12.1167   27.3843 C   0  0  0  0  0  0  0  0  0  0  0  0
    7.2580  -12.6628   28.1342 C   0  0  0  0  0  0  0  0  0  0  0  0
    6.2342  -13.3658   27.5389 C   0  0  0  0  0  0  0  0  0  0  0  0
    6.2777  -13.4922   26.1516 C   0  0  0  0  0  0  0  0  0  0  0  0
    8.2002  -15.4110   24.1577 C   0  0  0  0  0  0  0  0  0  0  0  0
    7.1838  -16.1348   24.0621 O   0  0  0  0  0  0  0  0  0  0  0  0
    9.3353  -18.5470   23.4591 C   0  0  0  0  0  0  0  0  0  0  0  0
    9.9200  -18.2995   24.8166 C   0  0  1  0  0  0  0  0  0  0  0  0
   11.2530  -17.8617   24.7347 O   0  0  0  0  0  0  0  0  0  0  0  0
    9.1178  -17.2574   25.5712 C   0  0  2  0  0  0  0  0  0  0  0  0
    9.2678  -15.9450   24.9681 N   0  0  0  0  0  0  0  0  0  0  0  0
    9.5869  -17.2425   26.9846 C   0  0  0  0  0  0  0  0  0  0  0  0
   10.1237  -16.1878   27.4272 O   0  0  0  0  0  0  0  0  0  0  0  0
    9.4525  -18.3263   27.8019 O   0  0  0  0  0  0  0  0  0  0  0  0
  2 12  2  0
  2  1  1  0
  3  2  1  0
  4  5  1  0
  4  3  2  0
  5 11  2  0
  6  5  1  0
  6  7  1  0
  7  8  1  1
  9  7  1  0
  9 13  1  0
 10  9  2  0
 11 12  1  0
 13 14  1  0
 15 16  1  0
 14 15  1  1
 16 17  2  0
 17 18  1  0
 19 18  2  0
 20 19  1  0
 21 20  2  0
 21 16  1  0
 22 23  2  0
 22 14  1  0
 25 24  1  6
 25 27  1  0
 26 25  1  0
 27 28  1  6
 27 29  1  0
 28 22  1  0
 29 31  1  0
 30 29  2  0
M  END
$$$$
