YFT.pdb
     RDKit          3D

 31 32  0  0  1  0  0  0  0  0999 V2000
    6.8612  -20.0288   15.6537 O   0  0  0  0  0  0  0  0  0  0  0  0
    7.2567  -19.5511   16.8817 C   0  0  0  0  0  0  0  0  0  0  0  0
    7.0477  -20.3018   18.0048 C   0  0  0  0  0  0  0  0  0  0  0  0
    7.4457  -19.8162   19.2247 C   0  0  0  0  0  0  0  0  0  0  0  0
    8.0597  -18.5742   19.3533 C   0  0  0  0  0  0  0  0  0  0  0  0
    8.4830  -18.0612   20.6727 C   0  0  0  0  0  0  0  0  0  0  0  0
    8.9907  -16.6409   20.4516 C   0  0  2  0  0  0  0  0  0  0  0  0
   10.2661  -16.7615   19.7766 N   0  0  0  0  0  0  0  0  0  0  0  0
    9.1727  -15.9032   21.6978 C   0  0  0  0  0  0  0  0  0  0  0  0
   10.3110  -15.9167   22.2210 O   0  0  0  0  0  0  0  0  0  0  0  0
    8.2701  -17.8194   18.2251 C   0  0  0  0  0  0  0  0  0  0  0  0
    7.8665  -18.3091   16.9784 C   0  0  0  0  0  0  0  0  0  0  0  0
    8.0852  -15.2037   22.2761 N   0  0  0  0  0  0  0  0  0  0  0  0
    8.2709  -14.6031   23.5733 C   0  0  1  0  0  0  0  0  0  0  0  0
    7.2194  -13.5542   23.7928 C   0  0  0  0  0  0  0  0  0  0  0  0
    7.3030  -12.9738   25.1442 C   0  0  0  0  0  0  0  0  0  0  0  0
    8.3882  -12.2002   25.4786 C   0  0  0  0  0  0  0  0  0  0  0  0
    8.4484  -11.6768   26.7431 C   0  0  0  0  0  0  0  0  0  0  0  0
    7.4588  -11.9094   27.6647 C   0  0  0  0  0  0  0  0  0  0  0  0
    6.3634  -12.6821   27.3488 C   0  0  0  0  0  0  0  0  0  0  0  0
    6.3127  -13.2094   26.0597 C   0  0  0  0  0  0  0  0  0  0  0  0
    8.2061  -15.6820   24.6047 C   0  0  0  0  0  0  0  0  0  0  0  0
    7.2641  -16.4962   24.7296 O   0  0  0  0  0  0  0  0  0  0  0  0
    9.1003  -18.6915   24.6533 C   0  0  0  0  0  0  0  0  0  0  0  0
    9.9442  -18.1808   25.7816 C   0  0  1  0  0  0  0  0  0  0  0  0
   11.2272  -17.8112   25.3430 O   0  0  0  0  0  0  0  0  0  0  0  0
    9.2976  -16.9790   26.4420 C   0  0  2  0  0  0  0  0  0  0  0  0
    9.2869  -15.8345   25.5482 N   0  0  0  0  0  0  0  0  0  0  0  0
   10.0557  -16.6670   27.6853 C   0  0  0  0  0  0  0  0  0  0  0  0
   10.6203  -15.5404   27.7768 O   0  0  0  0  0  0  0  0  0  0  0  0
   10.1537  -17.5572   28.7143 O   0  0  0  0  0  0  0  0  0  0  0  0
  2 12  2  0
  2  1  1  0
  3  2  1  0
  4  5  1  0
  4  3  2  0
  5 11  2  0
  6  5  1  0
  6  7  1  0
  7  8  1  1
  9  7  1  0
  9 13  1  0
 10  9  2  0
 11 12  1  0
 13 14  1  0
 15 16  1  0
 14 15  1  1
 16 17  2  0
 17 18  1  0
 19 18  2  0
 20 19  1  0
 21 20  2  0
 21 16  1  0
 22 23  2  0
 22 14  1  0
 25 24  1  6
 25 27  1  0
 26 25  1  0
 27 28  1  6
 27 29  1  0
 28 22  1  0
 29 31  1  0
 30 29  2  0
M  END
$$$$
