YFT.pdb
     RDKit          3D

 31 32  0  0  1  0  0  0  0  0999 V2000
    7.1623  -14.6986   14.7373 O   0  0  0  0  0  0  0  0  0  0  0  0
    7.8732  -14.6530   15.9143 C   0  0  0  0  0  0  0  0  0  0  0  0
    7.5513  -13.7301   16.8698 C   0  0  0  0  0  0  0  0  0  0  0  0
    8.2665  -13.6930   18.0401 C   0  0  0  0  0  0  0  0  0  0  0  0
    9.3165  -14.5727   18.2845 C   0  0  0  0  0  0  0  0  0  0  0  0
   10.0804  -14.5224   19.5483 C   0  0  0  0  0  0  0  0  0  0  0  0
    9.5697  -15.6652   20.4182 C   0  0  2  0  0  0  0  0  0  0  0  0
    8.2238  -15.9535   19.9685 N   0  0  0  0  0  0  0  0  0  0  0  0
    9.5417  -15.3285   21.8382 C   0  0  0  0  0  0  0  0  0  0  0  0
   10.6340  -15.0783   22.3984 O   0  0  0  0  0  0  0  0  0  0  0  0
    9.6404  -15.5005   17.3247 C   0  0  0  0  0  0  0  0  0  0  0  0
    8.9148  -15.5432   16.1294 C   0  0  0  0  0  0  0  0  0  0  0  0
    8.3100  -15.2921   22.5368 N   0  0  0  0  0  0  0  0  0  0  0  0
    8.3185  -14.8729   23.9160 C   0  0  1  0  0  0  0  0  0  0  0  0
    7.1919  -13.9089   24.1515 C   0  0  0  0  0  0  0  0  0  0  0  0
    7.2248  -13.3558   25.5165 C   0  0  0  0  0  0  0  0  0  0  0  0
    8.2169  -12.4693   25.8597 C   0  0  0  0  0  0  0  0  0  0  0  0
    8.2321  -11.9734   27.1366 C   0  0  0  0  0  0  0  0  0  0  0  0
    7.2883  -12.3422   28.0619 C   0  0  0  0  0  0  0  0  0  0  0  0
    6.2864  -13.2295   27.7372 C   0  0  0  0  0  0  0  0  0  0  0  0
    6.2806  -13.7276   26.4355 C   0  0  0  0  0  0  0  0  0  0  0  0
    8.2022  -16.0878   24.7776 C   0  0  0  0  0  0  0  0  0  0  0  0
    7.2883  -16.9386   24.6946 O   0  0  0  0  0  0  0  0  0  0  0  0
    9.0631  -18.9577   24.4133 C   0  0  0  0  0  0  0  0  0  0  0  0
    9.8429  -18.6972   25.6663 C   0  0  1  0  0  0  0  0  0  0  0  0
   11.1629  -18.3063   25.3834 O   0  0  0  0  0  0  0  0  0  0  0  0
    9.1880  -17.6111   26.4971 C   0  0  2  0  0  0  0  0  0  0  0  0
    9.1941  -16.3404   25.7944 N   0  0  0  0  0  0  0  0  0  0  0  0
    9.9263  -17.5020   27.7859 C   0  0  0  0  0  0  0  0  0  0  0  0
   10.5283  -16.4212   28.0425 O   0  0  0  0  0  0  0  0  0  0  0  0
    9.9675  -18.5277   28.6841 O   0  0  0  0  0  0  0  0  0  0  0  0
  2 12  2  0
  2  1  1  0
  3  2  1  0
  4  5  1  0
  4  3  2  0
  5 11  2  0
  6  5  1  0
  6  7  1  0
  7  8  1  6
  9  7  1  0
  9 13  1  0
 10  9  2  0
 11 12  1  0
 13 14  1  0
 15 16  1  0
 14 15  1  6
 16 17  2  0
 17 18  1  0
 19 18  2  0
 20 19  1  0
 21 20  2  0
 21 16  1  0
 22 23  2  0
 22 14  1  0
 25 24  1  6
 25 27  1  0
 26 25  1  0
 27 28  1  6
 27 29  1  0
 28 22  1  0
 29 31  1  0
 30 29  2  0
M  END
$$$$
