SFC.pdb
     RDKit          3D

 24 24  0  0  1  0  0  0  0  0999 V2000
   23.6644  -20.9683  -17.7034 O   0  0  0  0  0  0  0  0  0  0  0  0
   24.3706  -21.2912  -18.8484 C   0  0  0  0  0  0  0  0  0  0  0  0
   25.5298  -22.1876  -18.5017 C   0  0  2  0  0  0  0  0  0  0  0  0
   26.3321  -22.5522  -19.6261 N   0  0  0  0  0  0  0  0  0  0  0  0
   24.9811  -23.4190  -17.8855 C   0  0  0  0  0  0  0  0  0  0  0  0
   24.4849  -24.3320  -18.5800 O   0  0  0  0  0  0  0  0  0  0  0  0
   25.0032  -23.5984  -16.4824 N   0  0  0  0  0  0  0  0  0  0  0  0
   24.4223  -24.7826  -15.8312 C   0  0  1  0  0  0  0  0  0  0  0  0
   25.5047  -25.2953  -14.9056 C   0  0  0  0  0  0  0  0  0  0  0  0
   26.6016  -25.9475  -15.6371 C   0  0  0  0  0  0  0  0  0  0  0  0
   26.5607  -27.3310  -15.7667 C   0  0  0  0  0  0  0  0  0  0  0  0
   27.5841  -27.9493  -16.4542 C   0  0  0  0  0  0  0  0  0  0  0  0
   28.5963  -27.1864  -16.9808 C   0  0  0  0  0  0  0  0  0  0  0  0
   28.6321  -25.8194  -16.8499 C   0  0  0  0  0  0  0  0  0  0  0  0
   27.6069  -25.1873  -16.1598 C   0  0  0  0  0  0  0  0  0  0  0  0
   23.1966  -24.3772  -15.1378 C   0  0  0  0  0  0  0  0  0  0  0  0
   23.0333  -23.2386  -14.6306 O   0  0  0  0  0  0  0  0  0  0  0  0
   22.0807  -25.2801  -14.9931 N   0  0  0  0  0  0  0  0  0  0  0  0
   20.8292  -24.8431  -14.4032 C   0  0  1  0  0  0  0  0  0  0  0  0
   20.2542  -23.6653  -15.2001 C   0  0  0  0  0  0  0  0  0  0  0  0
   18.6802  -23.1999  -14.4586 S   0  0  0  0  0  0  0  0  0  0  0  0
   19.8282  -25.9155  -14.3528 C   0  0  0  0  0  0  0  0  0  0  0  0
   19.8123  -26.8417  -15.3853 O   0  0  0  0  0  0  0  0  0  0  0  0
   19.0005  -26.0224  -13.4248 O   0  0  0  0  0  0  0  0  0  0  0  0
  1  2  1  0
  2  3  1  0
  3  5  1  0
  3  4  1  6
  5  6  2  0
  7  8  1  0
  7  5  1  0
  9 10  1  0
  8  9  1  1
 10 11  2  0
 11 12  1  0
 13 12  2  0
 14 13  1  0
 15 14  2  0
 15 10  1  0
 16  8  1  0
 16 17  2  0
 18 16  1  0
 19 18  1  0
 19 22  1  0
 19 20  1  6
 21 20  1  0
 22 23  1  0
 24 22  2  0
M  END
$$$$
