SFC.pdb
     RDKit          3D

 24 24  0  0  1  0  0  0  0  0999 V2000
   23.9903  -21.1104  -15.4729 O   0  0  0  0  0  0  0  0  0  0  0  0
   25.3204  -20.7567  -15.6140 C   0  0  0  0  0  0  0  0  0  0  0  0
   26.2026  -21.8379  -15.0481 C   0  0  2  0  0  0  0  0  0  0  0  0
   25.9616  -23.1296  -15.6085 N   0  0  0  0  0  0  0  0  0  0  0  0
   25.9639  -21.8979  -13.5864 C   0  0  0  0  0  0  0  0  0  0  0  0
   25.4050  -22.8816  -13.0554 O   0  0  0  0  0  0  0  0  0  0  0  0
   26.3648  -20.8352  -12.7430 N   0  0  0  0  0  0  0  0  0  0  0  0
   26.2272  -20.8970  -11.2797 C   0  0  1  0  0  0  0  0  0  0  0  0
   27.3685  -20.0618  -10.7400 C   0  0  0  0  0  0  0  0  0  0  0  0
   27.3704  -20.0028   -9.2703 C   0  0  0  0  0  0  0  0  0  0  0  0
   28.0468  -21.0041   -8.5831 C   0  0  0  0  0  0  0  0  0  0  0  0
   28.0558  -20.9536   -7.2048 C   0  0  0  0  0  0  0  0  0  0  0  0
   27.4042  -19.9282   -6.5662 C   0  0  0  0  0  0  0  0  0  0  0  0
   26.7372  -18.9409   -7.2499 C   0  0  0  0  0  0  0  0  0  0  0  0
   26.7221  -18.9826   -8.6374 C   0  0  0  0  0  0  0  0  0  0  0  0
   24.9015  -20.3897  -10.9159 C   0  0  0  0  0  0  0  0  0  0  0  0
   24.7168  -19.2874  -10.3406 O   0  0  0  0  0  0  0  0  0  0  0  0
   23.7039  -21.1414  -11.2026 N   0  0  0  0  0  0  0  0  0  0  0  0
   22.4167  -20.4856  -11.3384 C   0  0  1  0  0  0  0  0  0  0  0  0
   22.4967  -19.3837  -12.4026 C   0  0  0  0  0  0  0  0  0  0  0  0
   21.1622  -18.2125  -12.1004 S   0  0  0  0  0  0  0  0  0  0  0  0
   21.3463  -21.4212  -11.7036 C   0  0  0  0  0  0  0  0  0  0  0  0
   20.1266  -21.3024  -11.0538 O   0  0  0  0  0  0  0  0  0  0  0  0
   21.4928  -22.3094  -12.5681 O   0  0  0  0  0  0  0  0  0  0  0  0
  1  2  1  0
  2  3  1  0
  3  5  1  0
  3  4  1  6
  5  6  2  0
  7  8  1  0
  7  5  1  0
  9 10  1  0
  8  9  1  1
 10 11  2  0
 11 12  1  0
 13 12  2  0
 14 13  1  0
 15 14  2  0
 15 10  1  0
 16  8  1  0
 16 17  2  0
 18 16  1  0
 19 18  1  0
 19 22  1  0
 19 20  1  6
 21 20  1  0
 22 23  1  0
 24 22  2  0
M  END
$$$$
