SFC.pdb
     RDKit          3D

 24 24  0  0  1  0  0  0  0  0999 V2000
   18.5929  -11.2197  -20.4487 O   0  0  0  0  0  0  0  0  0  0  0  0
   19.9424  -11.1891  -20.1453 C   0  0  0  0  0  0  0  0  0  0  0  0
   20.2330  -12.1228  -19.0001 C   0  0  2  0  0  0  0  0  0  0  0  0
   19.3818  -13.2694  -18.9619 N   0  0  0  0  0  0  0  0  0  0  0  0
   20.0656  -11.3598  -17.7404 C   0  0  0  0  0  0  0  0  0  0  0  0
   19.1377  -11.6120  -16.9421 O   0  0  0  0  0  0  0  0  0  0  0  0
   20.9583  -10.3157  -17.4023 N   0  0  0  0  0  0  0  0  0  0  0  0
   20.7510   -9.4521  -16.2296 C   0  0  1  0  0  0  0  0  0  0  0  0
   22.1412   -9.1361  -15.7210 C   0  0  0  0  0  0  0  0  0  0  0  0
   22.1197   -8.2196  -14.5707 C   0  0  0  0  0  0  0  0  0  0  0  0
   22.3265   -6.8671  -14.8166 C   0  0  0  0  0  0  0  0  0  0  0  0
   22.3044   -6.0012  -13.7433 C   0  0  0  0  0  0  0  0  0  0  0  0
   22.0816   -6.4987  -12.4837 C   0  0  0  0  0  0  0  0  0  0  0  0
   21.8777   -7.8362  -12.2459 C   0  0  0  0  0  0  0  0  0  0  0  0
   21.8980   -8.7161  -13.3193 C   0  0  0  0  0  0  0  0  0  0  0  0
   19.9942   -8.2701  -16.6510 C   0  0  0  0  0  0  0  0  0  0  0  0
   20.1783   -7.6863  -17.7489 O   0  0  0  0  0  0  0  0  0  0  0  0
   18.9710   -7.6940  -15.8127 N   0  0  0  0  0  0  0  0  0  0  0  0
   18.2562   -6.4959  -16.2114 C   0  0  1  0  0  0  0  0  0  0  0  0
   16.7698   -6.8137  -16.4180 C   0  0  0  0  0  0  0  0  0  0  0  0
   15.8957   -5.2625  -16.6891 S   0  0  0  0  0  0  0  0  0  0  0  0
   18.3776   -5.4159  -15.2248 C   0  0  0  0  0  0  0  0  0  0  0  0
   18.7392   -4.1559  -15.6785 O   0  0  0  0  0  0  0  0  0  0  0  0
   18.1696   -5.5888  -14.0064 O   0  0  0  0  0  0  0  0  0  0  0  0
  1  2  1  0
  2  3  1  0
  3  5  1  0
  3  4  1  1
  5  6  2  0
  7  8  1  0
  7  5  1  0
  9 10  1  0
  8  9  1  6
 10 11  2  0
 11 12  1  0
 13 12  2  0
 14 13  1  0
 15 14  2  0
 15 10  1  0
 16  8  1  0
 16 17  2  0
 18 16  1  0
 19 18  1  0
 19 22  1  0
 19 20  1  1
 21 20  1  0
 22 23  1  0
 24 22  2  0
M  END
$$$$
