SFC.pdb
     RDKit          3D

 24 24  0  0  1  0  0  0  0  0999 V2000
   23.9448   -6.1096  -18.8978 O   0  0  0  0  0  0  0  0  0  0  0  0
   24.8884   -6.7721  -18.1330 C   0  0  0  0  0  0  0  0  0  0  0  0
   24.4655   -8.2015  -17.9197 C   0  0  2  0  0  0  0  0  0  0  0  0
   24.1541   -8.8962  -19.1284 N   0  0  0  0  0  0  0  0  0  0  0  0
   23.2658   -8.1934  -17.0493 C   0  0  0  0  0  0  0  0  0  0  0  0
   22.1157   -8.3254  -17.5204 O   0  0  0  0  0  0  0  0  0  0  0  0
   23.3883   -8.0346  -15.6488 N   0  0  0  0  0  0  0  0  0  0  0  0
   22.2191   -7.9801  -14.7578 C   0  0  1  0  0  0  0  0  0  0  0  0
   22.5073   -8.9879  -13.6657 C   0  0  0  0  0  0  0  0  0  0  0  0
   22.4102  -10.3747  -14.1463 C   0  0  0  0  0  0  0  0  0  0  0  0
   21.1510  -10.8549  -14.4876 C   0  0  0  0  0  0  0  0  0  0  0  0
   21.0525  -12.1532  -14.9423 C   0  0  0  0  0  0  0  0  0  0  0  0
   22.1879  -12.9180  -15.0411 C   0  0  0  0  0  0  0  0  0  0  0  0
   23.4300  -12.4388  -14.7026 C   0  0  0  0  0  0  0  0  0  0  0  0
   23.5401  -11.1333  -14.2440 C   0  0  0  0  0  0  0  0  0  0  0  0
   22.0712   -6.6066  -14.2688 C   0  0  0  0  0  0  0  0  0  0  0  0
   22.7213   -6.1448  -13.2971 O   0  0  0  0  0  0  0  0  0  0  0  0
   21.1510   -5.6833  -14.8870 N   0  0  0  0  0  0  0  0  0  0  0  0
   21.0531   -4.3056  -14.4426 C   0  0  1  0  0  0  0  0  0  0  0  0
   21.7121   -3.3735  -15.4673 C   0  0  0  0  0  0  0  0  0  0  0  0
   23.4917   -3.6455  -15.4118 S   0  0  0  0  0  0  0  0  0  0  0  0
   19.6634   -3.8794  -14.2385 C   0  0  0  0  0  0  0  0  0  0  0  0
   19.4387   -2.6939  -13.5543 O   0  0  0  0  0  0  0  0  0  0  0  0
   18.6881   -4.5381  -14.6539 O   0  0  0  0  0  0  0  0  0  0  0  0
  1  2  1  0
  2  3  1  0
  3  5  1  0
  3  4  1  6
  5  6  2  0
  7  8  1  0
  7  5  1  0
  9 10  1  0
  8  9  1  1
 10 11  2  0
 11 12  1  0
 13 12  2  0
 14 13  1  0
 15 14  2  0
 15 10  1  0
 16  8  1  0
 16 17  2  0
 18 16  1  0
 19 18  1  0
 19 22  1  0
 19 20  1  6
 21 20  1  0
 22 23  1  0
 24 22  2  0
M  END
$$$$
