SFC.pdb
     RDKit          3D

 24 24  0  0  1  0  0  0  0  0999 V2000
   25.5719  -19.6721  -13.5078 O   0  0  0  0  0  0  0  0  0  0  0  0
   26.9160  -19.6171  -13.1845 C   0  0  0  0  0  0  0  0  0  0  0  0
   27.4184  -20.9941  -12.8394 C   0  0  2  0  0  0  0  0  0  0  0  0
   26.8434  -22.0326  -13.6340 N   0  0  0  0  0  0  0  0  0  0  0  0
   27.0987  -21.2484  -11.4146 C   0  0  0  0  0  0  0  0  0  0  0  0
   26.2124  -22.0633  -11.0791 O   0  0  0  0  0  0  0  0  0  0  0  0
   27.7928  -20.5710  -10.3846 N   0  0  0  0  0  0  0  0  0  0  0  0
   27.4310  -20.7140   -8.9659 C   0  0  1  0  0  0  0  0  0  0  0  0
   28.4660  -19.9076   -8.2111 C   0  0  0  0  0  0  0  0  0  0  0  0
   28.2082  -19.8844   -6.7632 C   0  0  0  0  0  0  0  0  0  0  0  0
   28.6904  -20.9436   -6.0027 C   0  0  0  0  0  0  0  0  0  0  0  0
   28.4555  -20.9272   -4.6438 C   0  0  0  0  0  0  0  0  0  0  0  0
   27.7616  -19.8777   -4.0949 C   0  0  0  0  0  0  0  0  0  0  0  0
   27.2873  -18.8334   -4.8507 C   0  0  0  0  0  0  0  0  0  0  0  0
   27.5184  -18.8403   -6.2195 C   0  0  0  0  0  0  0  0  0  0  0  0
   26.0596  -20.2302   -8.7851 C   0  0  0  0  0  0  0  0  0  0  0  0
   25.6438  -19.1397   -9.2521 O   0  0  0  0  0  0  0  0  0  0  0  0
   25.0845  -20.9933   -8.0446 N   0  0  0  0  0  0  0  0  0  0  0  0
   23.6891  -20.5976   -8.0060 C   0  0  1  0  0  0  0  0  0  0  0  0
   23.0849  -20.6595   -9.4146 C   0  0  0  0  0  0  0  0  0  0  0  0
   21.3137  -20.3616   -9.2802 S   0  0  0  0  0  0  0  0  0  0  0  0
   22.8909  -21.4430   -7.1100 C   0  0  0  0  0  0  0  0  0  0  0  0
   23.4773  -22.5945   -6.6058 O   0  0  0  0  0  0  0  0  0  0  0  0
   21.7170  -21.1658   -6.7893 O   0  0  0  0  0  0  0  0  0  0  0  0
  1  2  1  0
  2  3  1  0
  3  5  1  0
  3  4  1  6
  5  6  2  0
  7  8  1  0
  7  5  1  0
  9 10  1  0
  8  9  1  1
 10 11  2  0
 11 12  1  0
 13 12  2  0
 14 13  1  0
 15 14  2  0
 15 10  1  0
 16  8  1  0
 16 17  2  0
 18 16  1  0
 19 18  1  0
 19 22  1  0
 19 20  1  6
 21 20  1  0
 22 23  1  0
 24 22  2  0
M  END
$$$$
