SFC.pdb
     RDKit          3D

 24 24  0  0  1  0  0  0  0  0999 V2000
   26.1842  -20.8018  -18.1681 O   0  0  0  0  0  0  0  0  0  0  0  0
   27.4334  -20.4737  -17.6720 C   0  0  0  0  0  0  0  0  0  0  0  0
   27.9637  -21.6021  -16.8276 C   0  0  2  0  0  0  0  0  0  0  0  0
   28.1720  -22.8151  -17.5527 N   0  0  0  0  0  0  0  0  0  0  0  0
   26.9853  -21.8543  -15.7431 C   0  0  0  0  0  0  0  0  0  0  0  0
   26.2139  -22.8372  -15.7746 O   0  0  0  0  0  0  0  0  0  0  0  0
   26.8952  -20.9832  -14.6321 N   0  0  0  0  0  0  0  0  0  0  0  0
   25.9510  -21.2118  -13.5274 C   0  0  1  0  0  0  0  0  0  0  0  0
   26.4825  -20.3852  -12.3761 C   0  0  0  0  0  0  0  0  0  0  0  0
   25.6588  -20.5206  -11.1650 C   0  0  0  0  0  0  0  0  0  0  0  0
   24.3766  -19.9842  -11.1909 C   0  0  0  0  0  0  0  0  0  0  0  0
   23.5970  -20.1102  -10.0601 C   0  0  0  0  0  0  0  0  0  0  0  0
   24.1080  -20.7534   -8.9605 C   0  0  0  0  0  0  0  0  0  0  0  0
   25.3758  -21.2818   -8.9400 C   0  0  0  0  0  0  0  0  0  0  0  0
   26.1686  -21.1604  -10.0730 C   0  0  0  0  0  0  0  0  0  0  0  0
   24.6122  -20.8137  -13.9707 C   0  0  0  0  0  0  0  0  0  0  0  0
   24.3790  -19.7484  -14.5959 O   0  0  0  0  0  0  0  0  0  0  0  0
   23.4576  -21.6387  -13.7103 N   0  0  0  0  0  0  0  0  0  0  0  0
   22.1222  -21.2023  -14.0730 C   0  0  1  0  0  0  0  0  0  0  0  0
   21.8225  -21.5790  -15.5296 C   0  0  0  0  0  0  0  0  0  0  0  0
   20.1063  -21.1578  -15.8774 S   0  0  0  0  0  0  0  0  0  0  0  0
   21.0878  -21.7852  -13.2099 C   0  0  0  0  0  0  0  0  0  0  0  0
   19.8844  -21.1069  -13.0851 O   0  0  0  0  0  0  0  0  0  0  0  0
   21.2507  -22.8569  -12.5915 O   0  0  0  0  0  0  0  0  0  0  0  0
  1  2  1  0
  2  3  1  0
  3  5  1  0
  3  4  1  6
  5  6  2  0
  7  8  1  0
  7  5  1  0
  9 10  1  0
  8  9  1  1
 10 11  2  0
 11 12  1  0
 13 12  2  0
 14 13  1  0
 15 14  2  0
 15 10  1  0
 16  8  1  0
 16 17  2  0
 18 16  1  0
 19 18  1  0
 19 22  1  0
 19 20  1  6
 21 20  1  0
 22 23  1  0
 24 22  2  0
M  END
$$$$
