AIH.pdb
     RDKit          3D

 24 24  0  0  1  0  0  0  0  0999 V2000
    9.5473  -18.9344   17.2379 C   0  0  0  0  0  0  0  0  0  0  0  0
    9.6355  -17.5044   16.7694 C   0  0  2  0  0  0  0  0  0  0  0  0
   10.5350  -17.4417   15.6598 N   0  0  0  0  0  0  0  0  0  0  0  0
   10.1155  -16.6402   17.9122 C   0  0  0  0  0  0  0  0  0  0  0  0
   11.3438  -16.4591   18.0970 O   0  0  0  0  0  0  0  0  0  0  0  0
    6.9176  -12.3101   19.6463 C   0  0  0  0  0  0  0  0  0  0  0  0
    8.0983  -13.2050   19.3031 C   0  0  0  0  0  0  0  0  0  0  0  0
    8.3295  -14.2769   20.2906 C   0  0  2  0  0  0  0  0  0  0  0  0
    8.6520  -13.6039   21.6369 C   0  0  0  0  0  0  0  0  0  0  0  0
    9.4035  -15.2761   19.9421 C   0  0  2  0  0  0  0  0  0  0  0  0
    9.1523  -16.0462   18.7604 N   0  0  0  0  0  0  0  0  0  0  0  0
    9.7312  -16.1694   21.0670 C   0  0  0  0  0  0  0  0  0  0  0  0
    8.9509  -17.0815   21.4390 O   0  0  0  0  0  0  0  0  0  0  0  0
   10.9585  -15.9959   21.7478 N   0  0  0  0  0  0  0  0  0  0  0  0
   11.3259  -16.9600   22.7800 C   0  0  1  0  0  0  0  0  0  0  0  0
   12.8224  -17.2022   22.7263 C   0  0  0  0  0  0  0  0  0  0  0  0
   13.1666  -18.0614   21.5737 C   0  0  0  0  0  0  0  0  0  0  0  0
   12.3939  -18.8641   20.7724 C   0  0  0  0  0  0  0  0  0  0  0  0
   13.1741  -19.4665   19.8494 N   0  0  0  0  0  0  0  0  0  0  0  0
   14.4416  -19.0523   20.0576 C   0  0  0  0  0  0  0  0  0  0  0  0
   14.4300  -18.2106   21.0922 N   0  0  0  0  0  0  0  0  0  0  0  0
   10.8541  -16.5104   24.1027 C   0  0  0  0  0  0  0  0  0  0  0  0
   10.5386  -15.2839   24.2693 O   0  0  0  0  0  0  0  0  0  0  0  0
   10.7281  -17.3447   25.1922 O   0  0  0  0  0  0  0  0  0  0  0  0
  2  4  1  0
  2  1  1  1
  2  3  1  0
  4  5  2  0
  6  7  1  0
  7  8  1  0
  8 10  1  0
  8  9  1  1
 10 12  1  0
 10 11  1  6
 11  4  1  0
 12 13  2  0
 12 14  1  0
 14 15  1  0
 15 22  1  0
 15 16  1  1
 17 16  1  0
 17 18  2  0
 19 18  1  0
 20 19  1  0
 21 20  2  0
 21 17  1  0
 22 23  2  0
 22 24  1  0
M  END
$$$$
