AIH.pdb
     RDKit          3D

 24 24  0  0  1  0  0  0  0  0999 V2000
    7.5908  -19.4531   18.2234 C   0  0  0  0  0  0  0  0  0  0  0  0
    8.0768  -18.1163   17.7247 C   0  0  2  0  0  0  0  0  0  0  0  0
    8.9122  -18.3302   16.5843 N   0  0  0  0  0  0  0  0  0  0  0  0
    8.8325  -17.4218   18.8338 C   0  0  0  0  0  0  0  0  0  0  0  0
   10.0355  -17.7046   19.0544 O   0  0  0  0  0  0  0  0  0  0  0  0
    6.8526  -12.2791   20.1773 C   0  0  0  0  0  0  0  0  0  0  0  0
    7.8398  -13.3996   19.8894 C   0  0  0  0  0  0  0  0  0  0  0  0
    7.9309  -14.3953   20.9747 C   0  0  2  0  0  0  0  0  0  0  0  0
    8.5433  -13.6907   22.1986 C   0  0  0  0  0  0  0  0  0  0  0  0
    8.7070  -15.6486   20.6582 C   0  0  2  0  0  0  0  0  0  0  0  0
    8.1542  -16.4533   19.6095 N   0  0  0  0  0  0  0  0  0  0  0  0
    8.9563  -16.4758   21.8516 C   0  0  0  0  0  0  0  0  0  0  0  0
    8.0266  -17.0696   22.4534 O   0  0  0  0  0  0  0  0  0  0  0  0
   10.2793  -16.6057   22.3340 N   0  0  0  0  0  0  0  0  0  0  0  0
   10.5276  -17.5062   23.4553 C   0  0  1  0  0  0  0  0  0  0  0  0
   11.7101  -18.3978   23.1265 C   0  0  0  0  0  0  0  0  0  0  0  0
   12.0574  -19.2455   24.2867 C   0  0  0  0  0  0  0  0  0  0  0  0
   11.4658  -19.3947   25.5160 C   0  0  0  0  0  0  0  0  0  0  0  0
   12.1656  -20.2874   26.2489 N   0  0  0  0  0  0  0  0  0  0  0  0
   13.2014  -20.7088   25.4933 C   0  0  0  0  0  0  0  0  0  0  0  0
   13.1306  -20.0805   24.3189 N   0  0  0  0  0  0  0  0  0  0  0  0
   10.7007  -16.7440   24.7056 C   0  0  0  0  0  0  0  0  0  0  0  0
   11.2477  -15.5905   24.6630 O   0  0  0  0  0  0  0  0  0  0  0  0
   10.3017  -17.2044   25.9416 O   0  0  0  0  0  0  0  0  0  0  0  0
  2  4  1  0
  2  1  1  1
  2  3  1  0
  4  5  2  0
  6  7  1  0
  7  8  1  0
  8 10  1  0
  8  9  1  1
 10 12  1  0
 10 11  1  6
 11  4  1  0
 12 13  2  0
 12 14  1  0
 14 15  1  0
 15 22  1  0
 15 16  1  6
 17 16  1  0
 17 18  2  0
 19 18  1  0
 20 19  1  0
 21 20  2  0
 21 17  1  0
 22 23  2  0
 22 24  1  0
M  END
$$$$
