AIH.pdb
     RDKit          3D

 24 24  0  0  1  0  0  0  0  0999 V2000
    7.7969  -17.3365   21.5368 C   0  0  0  0  0  0  0  0  0  0  0  0
    7.8958  -15.8404   21.6920 C   0  0  2  0  0  0  0  0  0  0  0  0
    8.6009  -15.3099   20.5670 N   0  0  0  0  0  0  0  0  0  0  0  0
    8.6122  -15.5255   22.9847 C   0  0  0  0  0  0  0  0  0  0  0  0
    9.8648  -15.4481   23.0122 O   0  0  0  0  0  0  0  0  0  0  0  0
    5.7541  -12.2411   26.3572 C   0  0  0  0  0  0  0  0  0  0  0  0
    6.9399  -12.8785   25.6496 C   0  0  0  0  0  0  0  0  0  0  0  0
    7.3966  -14.1314   26.2815 C   0  0  2  0  0  0  0  0  0  0  0  0
    8.0670  -13.7587   27.6161 C   0  0  0  0  0  0  0  0  0  0  0  0
    8.3260  -14.9864   25.4577 C   0  0  2  0  0  0  0  0  0  0  0  0
    7.8405  -15.3220   24.1522 N   0  0  0  0  0  0  0  0  0  0  0  0
    8.7509  -16.2055   26.1675 C   0  0  0  0  0  0  0  0  0  0  0  0
    7.9242  -17.0652   26.5630 O   0  0  0  0  0  0  0  0  0  0  0  0
   10.1282  -16.4147   26.4107 N   0  0  0  0  0  0  0  0  0  0  0  0
   10.5262  -17.5517   27.2347 C   0  0  1  0  0  0  0  0  0  0  0  0
   11.8080  -18.1445   26.6809 C   0  0  0  0  0  0  0  0  0  0  0  0
   11.5614  -18.7735   25.3661 C   0  0  0  0  0  0  0  0  0  0  0  0
   10.4346  -19.3375   24.8225 C   0  0  0  0  0  0  0  0  0  0  0  0
   10.7112  -19.7945   23.5822 N   0  0  0  0  0  0  0  0  0  0  0  0
   12.0096  -19.5250   23.3312 C   0  0  0  0  0  0  0  0  0  0  0  0
   12.5131  -18.9133   24.4042 N   0  0  0  0  0  0  0  0  0  0  0  0
   10.6301  -17.1560   28.6513 C   0  0  0  0  0  0  0  0  0  0  0  0
   10.6593  -15.9149   28.9524 O   0  0  0  0  0  0  0  0  0  0  0  0
   10.6978  -18.0563   29.6923 O   0  0  0  0  0  0  0  0  0  0  0  0
  2  4  1  0
  2  1  1  6
  2  3  1  0
  4  5  2  0
  6  7  1  0
  7  8  1  0
  8 10  1  0
  8  9  1  1
 10 12  1  0
 10 11  1  6
 11  4  1  0
 12 13  2  0
 12 14  1  0
 14 15  1  0
 15 22  1  0
 15 16  1  6
 17 16  1  0
 17 18  2  0
 19 18  1  0
 20 19  1  0
 21 20  2  0
 21 17  1  0
 22 23  2  0
 22 24  1  0
M  END
$$$$
