AIH.pdb
     RDKit          3D

 24 24  0  0  1  0  0  0  0  0999 V2000
    8.1138  -19.1076   17.5313 C   0  0  0  0  0  0  0  0  0  0  0  0
    8.3778  -17.6876   17.1002 C   0  0  2  0  0  0  0  0  0  0  0  0
    9.1996  -17.7105   15.9305 N   0  0  0  0  0  0  0  0  0  0  0  0
    9.0550  -16.9474   18.2302 C   0  0  0  0  0  0  0  0  0  0  0  0
   10.3077  -16.8998   18.2953 O   0  0  0  0  0  0  0  0  0  0  0  0
    6.6938  -12.2366   20.1230 C   0  0  0  0  0  0  0  0  0  0  0  0
    7.6993  -13.3088   19.7332 C   0  0  0  0  0  0  0  0  0  0  0  0
    7.8028  -14.4029   20.7181 C   0  0  2  0  0  0  0  0  0  0  0  0
    8.2808  -13.7868   22.0452 C   0  0  0  0  0  0  0  0  0  0  0  0
    8.6944  -15.5563   20.3333 C   0  0  2  0  0  0  0  0  0  0  0  0
    8.2469  -16.3154   19.2035 N   0  0  0  0  0  0  0  0  0  0  0  0
    8.9767  -16.4551   21.4660 C   0  0  0  0  0  0  0  0  0  0  0  0
    8.0638  -17.0850   22.0567 O   0  0  0  0  0  0  0  0  0  0  0  0
   10.3128  -16.6139   21.9013 N   0  0  0  0  0  0  0  0  0  0  0  0
   10.5732  -17.4659   23.0573 C   0  0  1  0  0  0  0  0  0  0  0  0
   11.7515  -18.3718   22.7538 C   0  0  0  0  0  0  0  0  0  0  0  0
   11.3943  -19.3523   21.7068 C   0  0  0  0  0  0  0  0  0  0  0  0
   10.2971  -20.1621   21.5528 C   0  0  0  0  0  0  0  0  0  0  0  0
   10.4341  -20.9001   20.4301 N   0  0  0  0  0  0  0  0  0  0  0  0
   11.6138  -20.5653   19.8665 C   0  0  0  0  0  0  0  0  0  0  0  0
   12.1839  -19.6374   20.6365 N   0  0  0  0  0  0  0  0  0  0  0  0
   10.7606  -16.6511   24.2718 C   0  0  0  0  0  0  0  0  0  0  0  0
   10.9352  -17.2349   25.3945 O   0  0  0  0  0  0  0  0  0  0  0  0
   10.7607  -15.2731   24.2741 O   0  0  0  0  0  0  0  0  0  0  0  0
  2  4  1  0
  2  1  1  1
  2  3  1  0
  4  5  2  0
  6  7  1  0
  7  8  1  0
  8 10  1  0
  8  9  1  1
 10 12  1  0
 10 11  1  6
 11  4  1  0
 12 13  2  0
 12 14  1  0
 14 15  1  0
 15 22  1  0
 15 16  1  6
 17 16  1  0
 17 18  2  0
 19 18  1  0
 20 19  1  0
 21 20  2  0
 21 17  1  0
 22 23  2  0
 22 24  1  0
M  END
$$$$
