HCQ.pdb
     RDKit          3D

 26 26  0  0  1  0  0  0  0  0999 V2000
   21.6516  -14.1767  -16.4356 N   0  0  0  0  0  0  0  0  0  0  0  0
   21.5307  -12.8438  -16.9697 C   0  0  1  0  0  0  0  0  0  0  0  0
   20.0890  -12.3979  -16.7320 C   0  0  0  0  0  0  0  0  0  0  0  0
   19.1475  -13.2632  -17.4824 C   0  0  0  0  0  0  0  0  0  0  0  0
   17.9882  -13.8253  -16.9952 C   0  0  0  0  0  0  0  0  0  0  0  0
   17.3833  -14.5487  -17.9466 N   0  0  0  0  0  0  0  0  0  0  0  0
   18.1510  -14.4537  -19.0461 C   0  0  0  0  0  0  0  0  0  0  0  0
   19.2341  -13.6681  -18.7714 N   0  0  0  0  0  0  0  0  0  0  0  0
   22.4889  -11.9357  -16.3194 C   0  0  0  0  0  0  0  0  0  0  0  0
   22.5236  -11.8596  -15.0551 O   0  0  0  0  0  0  0  0  0  0  0  0
   23.3981  -11.1211  -17.0533 N   0  0  0  0  0  0  0  0  0  0  0  0
   24.2249  -10.1297  -16.4428 C   0  0  1  0  0  0  0  0  0  0  0  0
   25.6827  -10.4743  -16.6298 C   0  0  0  0  0  0  0  0  0  0  0  0
   26.6609   -9.1907  -15.7987 S   0  0  0  0  0  0  0  0  0  0  0  0
   23.9091   -8.7557  -16.8993 C   0  0  0  0  0  0  0  0  0  0  0  0
   23.7957   -8.5266  -18.1103 O   0  0  0  0  0  0  0  0  0  0  0  0
   19.7156   -6.5658  -18.8674 N   0  0  0  0  0  0  0  0  0  0  0  0
   20.2210   -5.3194  -18.4291 C   0  0  0  0  0  0  0  0  0  0  0  0
   19.5830   -4.2769  -18.7943 O   0  0  0  0  0  0  0  0  0  0  0  0
   21.4185   -5.1677  -17.5846 C   0  0  0  0  0  0  0  0  0  0  0  0
   22.1022   -6.4307  -17.1988 C   0  0  0  0  0  0  0  0  0  0  0  0
   23.2999   -6.3584  -16.3348 C   0  0  2  0  0  0  0  0  0  0  0  0
   23.7382   -7.7116  -15.9590 N   0  0  0  0  0  0  0  0  0  0  0  0
   23.3118   -5.4365  -15.2271 C   0  0  0  0  0  0  0  0  0  0  0  0
   23.5692   -5.8087  -14.0565 O   0  0  0  0  0  0  0  0  0  0  0  0
   23.0417   -4.0637  -15.3537 O   0  0  0  0  0  0  0  0  0  0  0  0
  2  1  1  1
  3  2  1  0
  4  8  1  0
  4  3  1  0
  5  4  2  0
  6  5  1  0
  6  7  1  0
  7  8  2  0
  9 10  2  0
  9  2  1  0
 11  9  1  0
 12 11  1  0
 12 13  1  6
 14 13  1  0
 15 12  1  0
 16 15  2  0
 17 18  1  0
 18 20  1  0
 19 18  2  0
 21 20  1  0
 22 21  1  1
 22 23  1  0
 23 15  1  0
 24 22  1  0
 24 26  1  0
 25 24  2  0
M  END
$$$$
