HCQ.pdb
     RDKit          3D

 26 26  0  0  1  0  0  0  0  0999 V2000
   27.5485   -9.2214  -16.8132 N   0  0  0  0  0  0  0  0  0  0  0  0
   26.2384   -9.6737  -16.4187 C   0  0  1  0  0  0  0  0  0  0  0  0
   26.4421  -10.7998  -15.4067 C   0  0  0  0  0  0  0  0  0  0  0  0
   27.0519  -11.9821  -16.0614 C   0  0  0  0  0  0  0  0  0  0  0  0
   28.3416  -12.4356  -15.8927 C   0  0  0  0  0  0  0  0  0  0  0  0
   28.5543  -13.5285  -16.6375 N   0  0  0  0  0  0  0  0  0  0  0  0
   27.4038  -13.7799  -17.2859 C   0  0  0  0  0  0  0  0  0  0  0  0
   26.4776  -12.8378  -16.9392 N   0  0  0  0  0  0  0  0  0  0  0  0
   25.4594   -8.5663  -15.8418 C   0  0  0  0  0  0  0  0  0  0  0  0
   25.9474   -7.8822  -14.8936 O   0  0  0  0  0  0  0  0  0  0  0  0
   24.1583   -8.2169  -16.3042 N   0  0  0  0  0  0  0  0  0  0  0  0
   23.4795   -7.0277  -15.8988 C   0  0  1  0  0  0  0  0  0  0  0  0
   24.3403   -5.8161  -16.1633 C   0  0  0  0  0  0  0  0  0  0  0  0
   23.4411   -4.3611  -15.5552 S   0  0  0  0  0  0  0  0  0  0  0  0
   22.1309   -6.9011  -16.4998 C   0  0  0  0  0  0  0  0  0  0  0  0
   22.0015   -6.9763  -17.7284 O   0  0  0  0  0  0  0  0  0  0  0  0
   17.5090  -10.4097  -15.6635 N   0  0  0  0  0  0  0  0  0  0  0  0
   16.8617   -9.2984  -16.2524 C   0  0  0  0  0  0  0  0  0  0  0  0
   15.6604   -9.4712  -16.6452 O   0  0  0  0  0  0  0  0  0  0  0  0
   17.4894   -7.9770  -16.4260 C   0  0  0  0  0  0  0  0  0  0  0  0
   18.9037   -7.8691  -15.9796 C   0  0  0  0  0  0  0  0  0  0  0  0
   19.6288   -6.6006  -16.2066 C   0  0  2  0  0  0  0  0  0  0  0  0
   20.9979   -6.6956  -15.6766 N   0  0  0  0  0  0  0  0  0  0  0  0
   18.9841   -5.3547  -15.8763 C   0  0  0  0  0  0  0  0  0  0  0  0
   19.3247   -4.6755  -14.8775 O   0  0  0  0  0  0  0  0  0  0  0  0
   17.9358   -4.7974  -16.6273 O   0  0  0  0  0  0  0  0  0  0  0  0
  2  1  1  1
  3  2  1  0
  4  8  1  0
  4  3  1  0
  5  4  2  0
  6  5  1  0
  6  7  1  0
  7  8  2  0
  9 10  2  0
  9  2  1  0
 11  9  1  0
 12 11  1  0
 12 13  1  6
 14 13  1  0
 15 12  1  0
 16 15  2  0
 17 18  1  0
 18 20  1  0
 19 18  2  0
 21 20  1  0
 22 21  1  1
 22 23  1  0
 23 15  1  0
 24 22  1  0
 24 26  1  0
 25 24  2  0
M  END
$$$$
