HCQ.pdb
     RDKit          3D

 26 26  0  0  1  0  0  0  0  0999 V2000
   30.6452  -10.7151  -19.3777 N   0  0  0  0  0  0  0  0  0  0  0  0
   29.8420  -10.4546  -18.2100 C   0  0  1  0  0  0  0  0  0  0  0  0
   29.3017   -9.0325  -18.3492 C   0  0  0  0  0  0  0  0  0  0  0  0
   30.3987   -8.0446  -18.2116 C   0  0  0  0  0  0  0  0  0  0  0  0
   30.7349   -7.0645  -19.1191 C   0  0  0  0  0  0  0  0  0  0  0  0
   31.7771   -6.3512  -18.6726 N   0  0  0  0  0  0  0  0  0  0  0  0
   32.1129   -6.8700  -17.4788 C   0  0  0  0  0  0  0  0  0  0  0  0
   31.2740   -7.9080  -17.1879 N   0  0  0  0  0  0  0  0  0  0  0  0
   28.7511  -11.4365  -18.1015 C   0  0  0  0  0  0  0  0  0  0  0  0
   28.1045  -11.7742  -19.1374 O   0  0  0  0  0  0  0  0  0  0  0  0
   28.3770  -12.0390  -16.8663 N   0  0  0  0  0  0  0  0  0  0  0  0
   27.2597  -12.9185  -16.7340 C   0  0  1  0  0  0  0  0  0  0  0  0
   27.3608  -13.7059  -15.4500 C   0  0  0  0  0  0  0  0  0  0  0  0
   25.9961  -14.9027  -15.4315 S   0  0  0  0  0  0  0  0  0  0  0  0
   25.9589  -12.2207  -16.8645 C   0  0  0  0  0  0  0  0  0  0  0  0
   25.8554  -11.0477  -16.4836 O   0  0  0  0  0  0  0  0  0  0  0  0
   24.4163   -8.6273  -20.1808 N   0  0  0  0  0  0  0  0  0  0  0  0
   23.0875   -8.9954  -19.8650 C   0  0  0  0  0  0  0  0  0  0  0  0
   22.1587   -8.2407  -20.3067 O   0  0  0  0  0  0  0  0  0  0  0  0
   22.7288  -10.1850  -19.0735 C   0  0  0  0  0  0  0  0  0  0  0  0
   23.8698  -10.9943  -18.5689 C   0  0  0  0  0  0  0  0  0  0  0  0
   23.5871  -12.2027  -17.7651 C   0  0  2  0  0  0  0  0  0  0  0  0
   24.8419  -12.8891  -17.4204 N   0  0  0  0  0  0  0  0  0  0  0  0
   22.5526  -13.1078  -18.1982 C   0  0  0  0  0  0  0  0  0  0  0  0
   22.8030  -14.1093  -18.9118 O   0  0  0  0  0  0  0  0  0  0  0  0
   21.1958  -12.9548  -17.8678 O   0  0  0  0  0  0  0  0  0  0  0  0
  2  1  1  6
  3  2  1  0
  4  8  1  0
  4  3  1  0
  5  4  2  0
  6  5  1  0
  6  7  1  0
  7  8  2  0
  9 10  2  0
  9  2  1  0
 11  9  1  0
 12 11  1  0
 12 13  1  1
 14 13  1  0
 15 12  1  0
 16 15  2  0
 17 18  1  0
 18 20  1  0
 19 18  2  0
 21 20  1  0
 22 21  1  6
 22 23  1  0
 23 15  1  0
 24 22  1  0
 24 26  1  0
 25 24  2  0
M  END
$$$$
