HCQ.pdb
     RDKit          3D

 26 26  0  0  1  0  0  0  0  0999 V2000
   28.3278  -22.7975  -16.8974 N   0  0  0  0  0  0  0  0  0  0  0  0
   29.0768  -22.8095  -18.1285 C   0  0  1  0  0  0  0  0  0  0  0  0
   29.6509  -21.4061  -18.3142 C   0  0  0  0  0  0  0  0  0  0  0  0
   28.5609  -20.4026  -18.3705 C   0  0  0  0  0  0  0  0  0  0  0  0
   28.2297  -19.4990  -17.3850 C   0  0  0  0  0  0  0  0  0  0  0  0
   27.1933  -18.7438  -17.7719 N   0  0  0  0  0  0  0  0  0  0  0  0
   26.8560  -19.1592  -19.0052 C   0  0  0  0  0  0  0  0  0  0  0  0
   27.6884  -20.1752  -19.3803 N   0  0  0  0  0  0  0  0  0  0  0  0
   30.1417  -23.8240  -18.0776 C   0  0  0  0  0  0  0  0  0  0  0  0
   31.0344  -23.8434  -18.9765 O   0  0  0  0  0  0  0  0  0  0  0  0
   30.2220  -24.8056  -17.0486 N   0  0  0  0  0  0  0  0  0  0  0  0
   31.3151  -25.7159  -16.9222 C   0  0  1  0  0  0  0  0  0  0  0  0
   31.6408  -25.9460  -15.4663 C   0  0  0  0  0  0  0  0  0  0  0  0
   31.6929  -24.3240  -14.6528 S   0  0  0  0  0  0  0  0  0  0  0  0
   31.0960  -26.9843  -17.6564 C   0  0  0  0  0  0  0  0  0  0  0  0
   29.9421  -27.3401  -17.9278 O   0  0  0  0  0  0  0  0  0  0  0  0
   35.6012  -31.3154  -19.0177 N   0  0  0  0  0  0  0  0  0  0  0  0
   34.5559  -31.6001  -19.9273 C   0  0  0  0  0  0  0  0  0  0  0  0
   34.6329  -32.6996  -20.5697 O   0  0  0  0  0  0  0  0  0  0  0  0
   33.4035  -30.7127  -20.1610 C   0  0  0  0  0  0  0  0  0  0  0  0
   33.3499  -29.4872  -19.3204 C   0  0  0  0  0  0  0  0  0  0  0  0
   32.0473  -29.0564  -18.7692 C   0  0  2  0  0  0  0  0  0  0  0  0
   32.1970  -27.7844  -18.0453 N   0  0  0  0  0  0  0  0  0  0  0  0
   31.2337  -30.0127  -18.0615 C   0  0  0  0  0  0  0  0  0  0  0  0
   31.2596  -30.1093  -16.8106 O   0  0  0  0  0  0  0  0  0  0  0  0
   30.3545  -30.9068  -18.6949 O   0  0  0  0  0  0  0  0  0  0  0  0
  2  1  1  1
  3  2  1  0
  4  8  1  0
  4  3  1  0
  5  4  2  0
  6  5  1  0
  6  7  1  0
  7  8  2  0
  9 10  2  0
  9  2  1  0
 11  9  1  0
 12 11  1  0
 12 13  1  1
 14 13  1  0
 15 12  1  0
 16 15  2  0
 17 18  1  0
 18 20  1  0
 19 18  2  0
 21 20  1  0
 22 21  1  1
 22 23  1  0
 23 15  1  0
 24 22  1  0
 24 26  1  0
 25 24  2  0
M  END
$$$$
