HCQ.pdb
     RDKit          3D

 26 26  0  0  1  0  0  0  0  0999 V2000
   22.9279  -19.2102  -19.1323 N   0  0  0  0  0  0  0  0  0  0  0  0
   23.2991  -18.3585  -18.0308 C   0  0  1  0  0  0  0  0  0  0  0  0
   22.0048  -17.9386  -17.3366 C   0  0  0  0  0  0  0  0  0  0  0  0
   21.3035  -16.9006  -18.1297 C   0  0  0  0  0  0  0  0  0  0  0  0
   21.8458  -16.1396  -19.1417 C   0  0  0  0  0  0  0  0  0  0  0  0
   20.9278  -15.3007  -19.6395 N   0  0  0  0  0  0  0  0  0  0  0  0
   19.7948  -15.5199  -18.9499 C   0  0  0  0  0  0  0  0  0  0  0  0
   20.0153  -16.4983  -18.0227 N   0  0  0  0  0  0  0  0  0  0  0  0
   24.1993  -19.0678  -17.1074 C   0  0  0  0  0  0  0  0  0  0  0  0
   24.0085  -20.2965  -16.8640 O   0  0  0  0  0  0  0  0  0  0  0  0
   25.2965  -18.4308  -16.4600 N   0  0  0  0  0  0  0  0  0  0  0  0
   26.0515  -19.0475  -15.4164 C   0  0  1  0  0  0  0  0  0  0  0  0
   27.3878  -18.3629  -15.2606 C   0  0  0  0  0  0  0  0  0  0  0  0
   27.5167  -17.7962  -13.5408 S   0  0  0  0  0  0  0  0  0  0  0  0
   25.3078  -19.1264  -14.1371 C   0  0  0  0  0  0  0  0  0  0  0  0
   24.2176  -18.5507  -14.0291 O   0  0  0  0  0  0  0  0  0  0  0  0
   23.8377  -24.4039  -13.6671 N   0  0  0  0  0  0  0  0  0  0  0  0
   23.0252  -23.8092  -12.6735 C   0  0  0  0  0  0  0  0  0  0  0  0
   22.1805  -24.5658  -12.0892 O   0  0  0  0  0  0  0  0  0  0  0  0
   23.1076  -22.3912  -12.2829 C   0  0  0  0  0  0  0  0  0  0  0  0
   24.1553  -21.5907  -12.9707 C   0  0  0  0  0  0  0  0  0  0  0  0
   25.0126  -20.6951  -12.1650 C   0  0  2  0  0  0  0  0  0  0  0  0
   25.8388  -19.8544  -13.0454 N   0  0  0  0  0  0  0  0  0  0  0  0
   25.7519  -21.2420  -11.0553 C   0  0  0  0  0  0  0  0  0  0  0  0
   26.8692  -21.7925  -11.2089 O   0  0  0  0  0  0  0  0  0  0  0  0
   25.2984  -21.2098   -9.7261 O   0  0  0  0  0  0  0  0  0  0  0  0
  2  1  1  6
  3  2  1  0
  4  8  1  0
  4  3  1  0
  5  4  2  0
  6  5  1  0
  6  7  1  0
  7  8  2  0
  9 10  2  0
  9  2  1  0
 11  9  1  0
 12 11  1  0
 12 13  1  1
 14 13  1  0
 15 12  1  0
 16 15  2  0
 17 18  1  0
 18 20  1  0
 19 18  2  0
 21 20  1  0
 22 21  1  6
 22 23  1  0
 23 15  1  0
 24 22  1  0
 24 26  1  0
 25 24  2  0
M  END
$$$$
