HCQ.pdb
     RDKit          3D

 26 26  0  0  1  0  0  0  0  0999 V2000
   22.5227  -15.1612  -17.3312 N   0  0  0  0  0  0  0  0  0  0  0  0
   22.6306  -13.9978  -18.1747 C   0  0  1  0  0  0  0  0  0  0  0  0
   21.2486  -13.7563  -18.7793 C   0  0  0  0  0  0  0  0  0  0  0  0
   20.8847  -14.8601  -19.6999 C   0  0  0  0  0  0  0  0  0  0  0  0
   21.1272  -14.9082  -21.0549 C   0  0  0  0  0  0  0  0  0  0  0  0
   20.6638  -16.0534  -21.5727 N   0  0  0  0  0  0  0  0  0  0  0  0
   20.1230  -16.7433  -20.5535 C   0  0  0  0  0  0  0  0  0  0  0  0
   20.2536  -16.0202  -19.4021 N   0  0  0  0  0  0  0  0  0  0  0  0
   23.0887  -12.8349  -17.3978 C   0  0  0  0  0  0  0  0  0  0  0  0
   22.4180  -12.4448  -16.3961 O   0  0  0  0  0  0  0  0  0  0  0  0
   24.2717  -12.1103  -17.7207 N   0  0  0  0  0  0  0  0  0  0  0  0
   24.7331  -10.9919  -16.9621 C   0  0  1  0  0  0  0  0  0  0  0  0
   26.2417  -10.9818  -16.9067 C   0  0  0  0  0  0  0  0  0  0  0  0
   26.7622  -12.3822  -15.8755 S   0  0  0  0  0  0  0  0  0  0  0  0
   24.1797   -9.7034  -17.4409 C   0  0  0  0  0  0  0  0  0  0  0  0
   23.9563   -9.5468  -18.6481 O   0  0  0  0  0  0  0  0  0  0  0  0
   21.3755   -5.4871  -13.4522 N   0  0  0  0  0  0  0  0  0  0  0  0
   21.6213   -4.7518  -14.6353 C   0  0  0  0  0  0  0  0  0  0  0  0
   21.2651   -3.5268  -14.6384 O   0  0  0  0  0  0  0  0  0  0  0  0
   22.2602   -5.3153  -15.8371 C   0  0  0  0  0  0  0  0  0  0  0  0
   22.6231   -6.7555  -15.7617 C   0  0  0  0  0  0  0  0  0  0  0  0
   23.2841   -7.3865  -16.9241 C   0  0  2  0  0  0  0  0  0  0  0  0
   23.9077   -8.6582  -16.5259 N   0  0  0  0  0  0  0  0  0  0  0  0
   24.1330   -6.5853  -17.7692 C   0  0  0  0  0  0  0  0  0  0  0  0
   23.6800   -5.9442  -18.7483 O   0  0  0  0  0  0  0  0  0  0  0  0
   25.5183   -6.4512  -17.5782 O   0  0  0  0  0  0  0  0  0  0  0  0
  2  1  1  1
  3  2  1  0
  4  8  1  0
  4  3  1  0
  5  4  2  0
  6  5  1  0
  6  7  1  0
  7  8  2  0
  9 10  2  0
  9  2  1  0
 11  9  1  0
 12 11  1  0
 12 13  1  6
 14 13  1  0
 15 12  1  0
 16 15  2  0
 17 18  1  0
 18 20  1  0
 19 18  2  0
 21 20  1  0
 22 21  1  1
 22 23  1  0
 23 15  1  0
 24 22  1  0
 24 26  1  0
 25 24  2  0
M  END
$$$$
