HCQ.pdb
     RDKit          3D

 26 26  0  0  1  0  0  0  0  0999 V2000
   17.1994  -12.7003  -16.0660 N   0  0  0  0  0  0  0  0  0  0  0  0
   18.4412  -11.9882  -16.2320 C   0  0  1  0  0  0  0  0  0  0  0  0
   18.9491  -12.3006  -17.6385 C   0  0  0  0  0  0  0  0  0  0  0  0
   19.2693  -13.7426  -17.7664 C   0  0  0  0  0  0  0  0  0  0  0  0
   20.3335  -14.3983  -17.1878 C   0  0  0  0  0  0  0  0  0  0  0  0
   20.3164  -15.6972  -17.5147 N   0  0  0  0  0  0  0  0  0  0  0  0
   19.2428  -15.8796  -18.3031 C   0  0  0  0  0  0  0  0  0  0  0  0
   18.5951  -14.6876  -18.4629 N   0  0  0  0  0  0  0  0  0  0  0  0
   18.2395  -10.5429  -16.0415 C   0  0  0  0  0  0  0  0  0  0  0  0
   17.1492  -10.0077  -16.4024 O   0  0  0  0  0  0  0  0  0  0  0  0
   19.2273   -9.6973  -15.4601 N   0  0  0  0  0  0  0  0  0  0  0  0
   19.0009   -8.3172  -15.1712 C   0  0  1  0  0  0  0  0  0  0  0  0
   17.7230   -8.1483  -14.3855 C   0  0  0  0  0  0  0  0  0  0  0  0
   17.5646   -6.3890  -13.9673 S   0  0  0  0  0  0  0  0  0  0  0  0
   20.1577   -7.6702  -14.5086 C   0  0  0  0  0  0  0  0  0  0  0  0
   20.6003   -8.1446  -13.4547 O   0  0  0  0  0  0  0  0  0  0  0  0
   24.7478   -7.0875  -18.5671 N   0  0  0  0  0  0  0  0  0  0  0  0
   24.3193   -6.2335  -17.5241 C   0  0  0  0  0  0  0  0  0  0  0  0
   24.7949   -5.0498  -17.5146 O   0  0  0  0  0  0  0  0  0  0  0  0
   23.3665   -6.6314  -16.4734 C   0  0  0  0  0  0  0  0  0  0  0  0
   22.9135   -5.5441  -15.5656 C   0  0  0  0  0  0  0  0  0  0  0  0
   21.9391   -5.8637  -14.5004 C   0  0  2  0  0  0  0  0  0  0  0  0
   20.7534   -6.5180  -15.0754 N   0  0  0  0  0  0  0  0  0  0  0  0
   21.6066   -4.8539  -13.5273 C   0  0  0  0  0  0  0  0  0  0  0  0
   22.4466   -4.4305  -12.6967 O   0  0  0  0  0  0  0  0  0  0  0  0
   20.3365   -4.2629  -13.4215 O   0  0  0  0  0  0  0  0  0  0  0  0
  2  1  1  6
  3  2  1  0
  4  8  1  0
  4  3  1  0
  5  4  2  0
  6  5  1  0
  6  7  1  0
  7  8  2  0
  9 10  2  0
  9  2  1  0
 11  9  1  0
 12 11  1  0
 12 13  1  1
 14 13  1  0
 15 12  1  0
 16 15  2  0
 17 18  1  0
 18 20  1  0
 19 18  2  0
 21 20  1  0
 22 21  1  6
 22 23  1  0
 23 15  1  0
 24 22  1  0
 24 26  1  0
 25 24  2  0
M  END
$$$$
