HCQ.pdb
     RDKit          3D

 26 26  0  0  1  0  0  0  0  0999 V2000
   24.0400  -13.8328  -19.6719 N   0  0  0  0  0  0  0  0  0  0  0  0
   23.2695  -14.0848  -18.4805 C   0  0  1  0  0  0  0  0  0  0  0  0
   23.6244  -15.4943  -18.0104 C   0  0  0  0  0  0  0  0  0  0  0  0
   23.3786  -16.4793  -19.0910 C   0  0  0  0  0  0  0  0  0  0  0  0
   23.6510  -17.8287  -19.0448 C   0  0  0  0  0  0  0  0  0  0  0  0
   23.3019  -18.4161  -20.1969 N   0  0  0  0  0  0  0  0  0  0  0  0
   22.8049  -17.4474  -20.9854 C   0  0  0  0  0  0  0  0  0  0  0  0
   22.8479  -16.2573  -20.3165 N   0  0  0  0  0  0  0  0  0  0  0  0
   23.5698  -13.0813  -17.4468 C   0  0  0  0  0  0  0  0  0  0  0  0
   23.0119  -13.1618  -16.3121 O   0  0  0  0  0  0  0  0  0  0  0  0
   24.4741  -12.0019  -17.6608 N   0  0  0  0  0  0  0  0  0  0  0  0
   24.6932  -10.9659  -16.7026 C   0  0  1  0  0  0  0  0  0  0  0  0
   26.1588  -10.6095  -16.6409 C   0  0  0  0  0  0  0  0  0  0  0  0
   26.3648   -9.3583  -15.3419 S   0  0  0  0  0  0  0  0  0  0  0  0
   23.8353   -9.7794  -16.9309 C   0  0  0  0  0  0  0  0  0  0  0  0
   23.6123   -9.4019  -18.0883 O   0  0  0  0  0  0  0  0  0  0  0  0
   18.9171   -9.1386  -18.4742 N   0  0  0  0  0  0  0  0  0  0  0  0
   19.0384   -7.8136  -17.9942 C   0  0  0  0  0  0  0  0  0  0  0  0
   18.1100   -6.9977  -18.3101 O   0  0  0  0  0  0  0  0  0  0  0  0
   20.1562   -7.3392  -17.1601 C   0  0  0  0  0  0  0  0  0  0  0  0
   21.2222   -8.3372  -16.8788 C   0  0  0  0  0  0  0  0  0  0  0  0
   22.3434   -7.9534  -15.9945 C   0  0  2  0  0  0  0  0  0  0  0  0
   23.2741   -9.0815  -15.8347 N   0  0  0  0  0  0  0  0  0  0  0  0
   22.0591   -7.2797  -14.7526 C   0  0  0  0  0  0  0  0  0  0  0  0
   22.2429   -7.8320  -13.6408 O   0  0  0  0  0  0  0  0  0  0  0  0
   21.5601   -5.9688  -14.6744 O   0  0  0  0  0  0  0  0  0  0  0  0
  2  1  1  6
  3  2  1  0
  4  8  1  0
  4  3  1  0
  5  4  2  0
  6  5  1  0
  6  7  1  0
  7  8  2  0
  9 10  2  0
  9  2  1  0
 11  9  1  0
 12 11  1  0
 12 13  1  6
 14 13  1  0
 15 12  1  0
 16 15  2  0
 17 18  1  0
 18 20  1  0
 19 18  2  0
 21 20  1  0
 22 21  1  1
 22 23  1  0
 23 15  1  0
 24 22  1  0
 24 26  1  0
 25 24  2  0
M  END
$$$$
