SFE.pdb
     RDKit          3D

 27 27  0  0  1  0  0  0  0  0999 V2000
    8.9112  -18.6858   20.0817 O   0  0  0  0  0  0  0  0  0  0  0  0
    7.7549  -17.9850   19.6874 C   0  0  0  0  0  0  0  0  0  0  0  0
    8.1845  -16.5508   19.4855 C   0  0  2  0  0  0  0  0  0  0  0  0
    9.3019  -16.5541   18.5587 N   0  0  0  0  0  0  0  0  0  0  0  0
    8.6050  -15.8666   20.7162 C   0  0  0  0  0  0  0  0  0  0  0  0
    9.8151  -15.7211   21.0284 O   0  0  0  0  0  0  0  0  0  0  0  0
    7.6592  -15.3230   21.6377 N   0  0  0  0  0  0  0  0  0  0  0  0
    8.0098  -14.7414   22.9128 C   0  0  1  0  0  0  0  0  0  0  0  0
    6.7727  -14.1028   23.4917 C   0  0  0  0  0  0  0  0  0  0  0  0
    7.0072  -13.4226   24.7648 C   0  0  0  0  0  0  0  0  0  0  0  0
    6.4038  -13.8951   25.9046 C   0  0  0  0  0  0  0  0  0  0  0  0
    6.5949  -13.3072   27.1511 C   0  0  0  0  0  0  0  0  0  0  0  0
    7.4088  -12.2194   27.2594 C   0  0  0  0  0  0  0  0  0  0  0  0
    8.0249  -11.7288   26.1172 C   0  0  0  0  0  0  0  0  0  0  0  0
    7.8272  -12.3212   24.8902 C   0  0  0  0  0  0  0  0  0  0  0  0
    8.5963  -15.7861   23.7721 C   0  0  0  0  0  0  0  0  0  0  0  0
    8.0382  -16.9040   23.8850 O   0  0  0  0  0  0  0  0  0  0  0  0
    9.7976  -15.5616   24.4908 N   0  0  0  0  0  0  0  0  0  0  0  0
   10.4795  -16.6694   25.1882 C   0  0  1  0  0  0  0  0  0  0  0  0
   11.9429  -16.5272   24.8859 C   0  0  0  0  0  0  0  0  0  0  0  0
   12.8309  -17.5215   25.5520 C   0  0  0  0  0  0  0  0  0  0  0  0
   14.2676  -17.2783   25.1962 C   0  0  0  0  0  0  0  0  0  0  0  0
   15.0252  -16.6810   26.0171 O   0  0  0  0  0  0  0  0  0  0  0  0
   10.2770  -16.5526   26.6485 C   0  0  0  0  0  0  0  0  0  0  0  0
   10.7369  -17.5010   27.3757 O   0  0  0  0  0  0  0  0  0  0  0  0
   14.7564  -17.7103   23.9712 O   0  0  0  0  0  0  0  0  0  0  0  0
    9.6496  -15.5330   27.2987 O   0  0  0  0  0  0  0  0  0  0  0  0
  2  1  1  0
  3  2  1  0
  3  4  1  6
  5  3  1  0
  5  6  2  0
  7  5  1  0
  8  7  1  0
  8  9  1  1
 10  9  1  0
 10 15  2  0
 11 10  1  0
 12 11  2  0
 12 13  1  0
 13 14  2  0
 14 15  1  0
 16  8  1  0
 17 16  2  0
 18 16  1  0
 19 24  1  0
 19 18  1  0
 19 20  1  1
 21 20  1  0
 21 22  1  0
 22 23  2  0
 24 27  1  0
 25 24  2  0
 26 22  1  0
M  END
$$$$
