SFE.pdb
     RDKit          3D

 27 27  0  0  1  0  0  0  0  0999 V2000
    7.2527  -18.3820   20.7535 O   0  0  0  0  0  0  0  0  0  0  0  0
    8.2941  -18.1676   19.8299 C   0  0  0  0  0  0  0  0  0  0  0  0
    8.4559  -16.6695   19.7235 C   0  0  2  0  0  0  0  0  0  0  0  0
    9.5139  -16.4097   18.7640 N   0  0  0  0  0  0  0  0  0  0  0  0
    8.8045  -16.0076   20.9885 C   0  0  0  0  0  0  0  0  0  0  0  0
    9.9765  -15.9994   21.4459 O   0  0  0  0  0  0  0  0  0  0  0  0
    7.8273  -15.3304   21.7796 N   0  0  0  0  0  0  0  0  0  0  0  0
    8.0939  -14.7444   23.0729 C   0  0  1  0  0  0  0  0  0  0  0  0
    6.9172  -13.8786   23.4458 C   0  0  0  0  0  0  0  0  0  0  0  0
    7.0333  -13.2742   24.7722 C   0  0  0  0  0  0  0  0  0  0  0  0
    8.1027  -12.4591   25.0522 C   0  0  0  0  0  0  0  0  0  0  0  0
    8.2678  -11.8389   26.2866 C   0  0  0  0  0  0  0  0  0  0  0  0
    7.3408  -12.0403   27.2652 C   0  0  0  0  0  0  0  0  0  0  0  0
    6.2552  -12.8621   26.9990 C   0  0  0  0  0  0  0  0  0  0  0  0
    6.1042  -13.4687   25.7723 C   0  0  0  0  0  0  0  0  0  0  0  0
    8.3685  -15.8221   24.0410 C   0  0  0  0  0  0  0  0  0  0  0  0
    7.5634  -16.7744   24.1777 O   0  0  0  0  0  0  0  0  0  0  0  0
    9.5398  -15.8152   24.8398 N   0  0  0  0  0  0  0  0  0  0  0  0
    9.9599  -17.0237   25.5758 C   0  0  1  0  0  0  0  0  0  0  0  0
   11.3927  -17.2729   25.2041 C   0  0  0  0  0  0  0  0  0  0  0  0
   12.0524  -18.3969   25.9270 C   0  0  0  0  0  0  0  0  0  0  0  0
   13.4553  -18.5981   25.4359 C   0  0  0  0  0  0  0  0  0  0  0  0
   14.3570  -18.9670   26.2455 O   0  0  0  0  0  0  0  0  0  0  0  0
    9.8758  -16.7867   27.0332 C   0  0  0  0  0  0  0  0  0  0  0  0
   10.0664  -17.7966   27.7971 O   0  0  0  0  0  0  0  0  0  0  0  0
   13.7547  -18.3803   24.0983 O   0  0  0  0  0  0  0  0  0  0  0  0
    9.6166  -15.5976   27.6453 O   0  0  0  0  0  0  0  0  0  0  0  0
  2  1  1  0
  3  2  1  0
  3  4  1  6
  5  3  1  0
  5  6  2  0
  7  5  1  0
  8  7  1  0
  8  9  1  1
 10  9  1  0
 10 15  2  0
 11 10  1  0
 12 11  2  0
 12 13  1  0
 13 14  2  0
 14 15  1  0
 16  8  1  0
 17 16  2  0
 18 16  1  0
 19 24  1  0
 19 18  1  0
 19 20  1  1
 21 20  1  0
 21 22  1  0
 22 23  2  0
 24 27  1  0
 25 24  2  0
 26 22  1  0
M  END
$$$$
