SFE.pdb
     RDKit          3D

 27 27  0  0  1  0  0  0  0  0999 V2000
    7.6380  -18.3992   20.9135 O   0  0  0  0  0  0  0  0  0  0  0  0
    8.3857  -17.9442   19.8102 C   0  0  0  0  0  0  0  0  0  0  0  0
    8.1731  -16.4498   19.7494 C   0  0  2  0  0  0  0  0  0  0  0  0
    8.9676  -15.9382   18.6474 N   0  0  0  0  0  0  0  0  0  0  0  0
    8.5614  -15.7336   20.9725 C   0  0  0  0  0  0  0  0  0  0  0  0
    9.7635  -15.5324   21.2847 O   0  0  0  0  0  0  0  0  0  0  0  0
    7.5913  -15.2204   21.8862 N   0  0  0  0  0  0  0  0  0  0  0  0
    7.9153  -14.5870   23.1436 C   0  0  1  0  0  0  0  0  0  0  0  0
    6.7128  -13.7959   23.5924 C   0  0  0  0  0  0  0  0  0  0  0  0
    6.8792  -13.1741   24.9054 C   0  0  0  0  0  0  0  0  0  0  0  0
    6.0246  -13.5120   25.9264 C   0  0  0  0  0  0  0  0  0  0  0  0
    6.1347  -12.9719   27.2038 C   0  0  0  0  0  0  0  0  0  0  0  0
    7.1231  -12.0709   27.4658 C   0  0  0  0  0  0  0  0  0  0  0  0
    7.9939  -11.7179   26.4451 C   0  0  0  0  0  0  0  0  0  0  0  0
    7.8736  -12.2610   25.1857 C   0  0  0  0  0  0  0  0  0  0  0  0
    8.3396  -15.6199   24.1063 C   0  0  0  0  0  0  0  0  0  0  0  0
    7.6118  -16.6167   24.3314 O   0  0  0  0  0  0  0  0  0  0  0  0
    9.5714  -15.5194   24.8009 N   0  0  0  0  0  0  0  0  0  0  0  0
   10.1002  -16.6619   25.5714 C   0  0  1  0  0  0  0  0  0  0  0  0
   11.5619  -16.7575   25.2436 C   0  0  0  0  0  0  0  0  0  0  0  0
   12.3204  -17.7879   26.0077 C   0  0  0  0  0  0  0  0  0  0  0  0
   13.7616  -17.8081   25.5926 C   0  0  0  0  0  0  0  0  0  0  0  0
   14.1641  -17.0231   24.6835 O   0  0  0  0  0  0  0  0  0  0  0  0
    9.9484  -16.4117   27.0212 C   0  0  0  0  0  0  0  0  0  0  0  0
    9.7698  -15.1969   27.3847 O   0  0  0  0  0  0  0  0  0  0  0  0
   14.6435  -18.6853   26.2083 O   0  0  0  0  0  0  0  0  0  0  0  0
    9.9781  -17.3477   28.0105 O   0  0  0  0  0  0  0  0  0  0  0  0
  2  1  1  0
  3  2  1  0
  3  4  1  6
  5  3  1  0
  5  6  2  0
  7  5  1  0
  8  7  1  0
  8  9  1  1
 10  9  1  0
 10 15  2  0
 11 10  1  0
 12 11  2  0
 12 13  1  0
 13 14  2  0
 14 15  1  0
 16  8  1  0
 17 16  2  0
 18 16  1  0
 19 24  1  0
 19 18  1  0
 19 20  1  1
 21 20  1  0
 21 22  1  0
 22 23  2  0
 24 27  1  0
 25 24  2  0
 26 22  1  0
M  END
$$$$
