SFE.pdb
     RDKit          3D

 27 27  0  0  1  0  0  0  0  0999 V2000
    8.8011  -19.4411   19.3358 O   0  0  0  0  0  0  0  0  0  0  0  0
    8.8588  -18.7406   20.5562 C   0  0  0  0  0  0  0  0  0  0  0  0
    8.5104  -17.3070   20.2316 C   0  0  2  0  0  0  0  0  0  0  0  0
    9.2621  -16.9302   19.0482 N   0  0  0  0  0  0  0  0  0  0  0  0
    8.8230  -16.3512   21.3032 C   0  0  0  0  0  0  0  0  0  0  0  0
    9.8842  -15.6754   21.3173 O   0  0  0  0  0  0  0  0  0  0  0  0
    7.9356  -16.1313   22.4002 N   0  0  0  0  0  0  0  0  0  0  0  0
    8.2437  -15.2981   23.5395 C   0  0  1  0  0  0  0  0  0  0  0  0
    6.9463  -14.7707   24.0979 C   0  0  0  0  0  0  0  0  0  0  0  0
    7.1234  -13.8654   25.2326 C   0  0  0  0  0  0  0  0  0  0  0  0
    7.1200  -14.3729   26.5089 C   0  0  0  0  0  0  0  0  0  0  0  0
    7.2988  -13.5724   27.6328 C   0  0  0  0  0  0  0  0  0  0  0  0
    7.4844  -12.2314   27.4757 C   0  0  0  0  0  0  0  0  0  0  0  0
    7.4892  -11.7027   26.1931 C   0  0  0  0  0  0  0  0  0  0  0  0
    7.3119  -12.5070   25.0898 C   0  0  0  0  0  0  0  0  0  0  0  0
    9.0322  -16.0816   24.5082 C   0  0  0  0  0  0  0  0  0  0  0  0
    8.6865  -17.2483   24.8138 O   0  0  0  0  0  0  0  0  0  0  0  0
   10.1941  -15.5457   25.1186 N   0  0  0  0  0  0  0  0  0  0  0  0
   11.0742  -16.3951   25.9448 C   0  0  1  0  0  0  0  0  0  0  0  0
   12.4666  -15.8616   25.7721 C   0  0  0  0  0  0  0  0  0  0  0  0
   13.1030  -16.1550   24.4568 C   0  0  0  0  0  0  0  0  0  0  0  0
   14.5368  -15.7147   24.4466 C   0  0  0  0  0  0  0  0  0  0  0  0
   15.3196  -16.1038   25.3633 O   0  0  0  0  0  0  0  0  0  0  0  0
   10.6923  -16.2890   27.3696 C   0  0  0  0  0  0  0  0  0  0  0  0
    9.8726  -15.3563   27.6826 O   0  0  0  0  0  0  0  0  0  0  0  0
   14.9955  -14.8856   23.4324 O   0  0  0  0  0  0  0  0  0  0  0  0
   11.1259  -17.0878   28.3845 O   0  0  0  0  0  0  0  0  0  0  0  0
  2  1  1  0
  3  2  1  0
  3  4  1  6
  5  3  1  0
  5  6  2  0
  7  5  1  0
  8  7  1  0
  8  9  1  1
 10  9  1  0
 10 15  2  0
 11 10  1  0
 12 11  2  0
 12 13  1  0
 13 14  2  0
 14 15  1  0
 16  8  1  0
 17 16  2  0
 18 16  1  0
 19 24  1  0
 19 18  1  0
 19 20  1  1
 21 20  1  0
 21 22  1  0
 22 23  2  0
 24 27  1  0
 25 24  2  0
 26 22  1  0
M  END
$$$$
