SFE.pdb
     RDKit          3D

 27 27  0  0  1  0  0  0  0  0999 V2000
    8.7215  -18.4656   19.8199 O   0  0  0  0  0  0  0  0  0  0  0  0
    7.5049  -17.8703   19.4343 C   0  0  0  0  0  0  0  0  0  0  0  0
    7.7936  -16.3961   19.2746 C   0  0  2  0  0  0  0  0  0  0  0  0
    8.8207  -16.2580   18.2580 N   0  0  0  0  0  0  0  0  0  0  0  0
    8.2630  -15.7356   20.5006 C   0  0  0  0  0  0  0  0  0  0  0  0
    9.4767  -15.4750   20.7052 O   0  0  0  0  0  0  0  0  0  0  0  0
    7.3638  -15.3483   21.5401 N   0  0  0  0  0  0  0  0  0  0  0  0
    7.7738  -14.7301   22.7799 C   0  0  1  0  0  0  0  0  0  0  0  0
    6.5439  -14.1824   23.4587 C   0  0  0  0  0  0  0  0  0  0  0  0
    6.8130  -13.5953   24.7706 C   0  0  0  0  0  0  0  0  0  0  0  0
    7.3395  -12.3290   24.8492 C   0  0  0  0  0  0  0  0  0  0  0  0
    7.6054  -11.7033   26.0630 C   0  0  0  0  0  0  0  0  0  0  0  0
    7.3391  -12.3610   27.2266 C   0  0  0  0  0  0  0  0  0  0  0  0
    6.8084  -13.6413   27.1647 C   0  0  0  0  0  0  0  0  0  0  0  0
    6.5496  -14.2481   25.9562 C   0  0  0  0  0  0  0  0  0  0  0  0
    8.5082  -15.7193   23.5898 C   0  0  0  0  0  0  0  0  0  0  0  0
    8.0734  -16.8898   23.7119 O   0  0  0  0  0  0  0  0  0  0  0  0
    9.7168  -15.3815   24.2494 N   0  0  0  0  0  0  0  0  0  0  0  0
   10.5605  -16.4256   24.8631 C   0  0  1  0  0  0  0  0  0  0  0  0
   11.9851  -16.0243   24.6132 C   0  0  0  0  0  0  0  0  0  0  0  0
   13.0143  -16.9451   25.1734 C   0  0  0  0  0  0  0  0  0  0  0  0
   14.3905  -16.5368   24.7385 C   0  0  0  0  0  0  0  0  0  0  0  0
   14.6240  -15.3259   24.4490 O   0  0  0  0  0  0  0  0  0  0  0  0
   10.3249  -16.4775   26.3223 C   0  0  0  0  0  0  0  0  0  0  0  0
    9.8052  -15.4396   26.8633 O   0  0  0  0  0  0  0  0  0  0  0  0
   15.3980  -17.4880   24.6579 O   0  0  0  0  0  0  0  0  0  0  0  0
   10.6050  -17.5227   27.1498 O   0  0  0  0  0  0  0  0  0  0  0  0
  2  1  1  0
  3  2  1  0
  3  4  1  6
  5  3  1  0
  5  6  2  0
  7  5  1  0
  8  7  1  0
  8  9  1  1
 10  9  1  0
 10 15  2  0
 11 10  1  0
 12 11  2  0
 12 13  1  0
 13 14  2  0
 14 15  1  0
 16  8  1  0
 17 16  2  0
 18 16  1  0
 19 24  1  0
 19 18  1  0
 19 20  1  1
 21 20  1  0
 21 22  1  0
 22 23  2  0
 24 27  1  0
 25 24  2  0
 26 22  1  0
M  END
$$$$
