SFE.pdb
     RDKit          3D

 27 27  0  0  1  0  0  0  0  0999 V2000
   10.4080  -18.7154   20.9896 O   0  0  0  0  0  0  0  0  0  0  0  0
    9.2894  -18.2109   20.2984 C   0  0  0  0  0  0  0  0  0  0  0  0
    9.5337  -16.7292   20.1338 C   0  0  2  0  0  0  0  0  0  0  0  0
   10.7812  -16.5684   19.4091 N   0  0  0  0  0  0  0  0  0  0  0  0
    9.6338  -15.9887   21.3992 C   0  0  0  0  0  0  0  0  0  0  0  0
   10.7387  -15.6729   21.9114 O   0  0  0  0  0  0  0  0  0  0  0  0
    8.4755  -15.5812   22.1282 N   0  0  0  0  0  0  0  0  0  0  0  0
    8.5157  -14.8702   23.3852 C   0  0  1  0  0  0  0  0  0  0  0  0
    7.1763  -14.2095   23.5921 C   0  0  0  0  0  0  0  0  0  0  0  0
    7.0694  -13.4895   24.8603 C   0  0  0  0  0  0  0  0  0  0  0  0
    7.7447  -12.3046   25.0237 C   0  0  0  0  0  0  0  0  0  0  0  0
    7.6755  -11.5596   26.1967 C   0  0  0  0  0  0  0  0  0  0  0  0
    6.9130  -12.0119   27.2318 C   0  0  0  0  0  0  0  0  0  0  0  0
    6.2256  -13.2077   27.0835 C   0  0  0  0  0  0  0  0  0  0  0  0
    6.3027  -13.9342   25.9165 C   0  0  0  0  0  0  0  0  0  0  0  0
    8.8852  -15.8119   24.4579 C   0  0  0  0  0  0  0  0  0  0  0  0
    8.2517  -16.8842   24.6088 O   0  0  0  0  0  0  0  0  0  0  0  0
    9.9576  -15.5371   25.3436 N   0  0  0  0  0  0  0  0  0  0  0  0
   10.4264  -16.5568   26.3022 C   0  0  1  0  0  0  0  0  0  0  0  0
   11.9247  -16.5691   26.2131 C   0  0  0  0  0  0  0  0  0  0  0  0
   12.4803  -16.8259   24.8543 C   0  0  0  0  0  0  0  0  0  0  0  0
   13.9789  -16.7650   24.8691 C   0  0  0  0  0  0  0  0  0  0  0  0
   14.5602  -15.6622   25.0940 O   0  0  0  0  0  0  0  0  0  0  0  0
   10.0300  -16.1829   27.6771 C   0  0  0  0  0  0  0  0  0  0  0  0
   10.3396  -17.0004   28.6128 O   0  0  0  0  0  0  0  0  0  0  0  0
   14.7174  -17.9171   24.6377 O   0  0  0  0  0  0  0  0  0  0  0  0
    9.3679  -15.0516   28.0482 O   0  0  0  0  0  0  0  0  0  0  0  0
  2  1  1  0
  3  2  1  0
  3  4  1  1
  5  3  1  0
  5  6  2  0
  7  5  1  0
  8  7  1  0
  8  9  1  1
 10  9  1  0
 10 15  2  0
 11 10  1  0
 12 11  2  0
 12 13  1  0
 13 14  2  0
 14 15  1  0
 16  8  1  0
 17 16  2  0
 18 16  1  0
 19 24  1  0
 19 18  1  0
 19 20  1  1
 21 20  1  0
 21 22  1  0
 22 23  2  0
 24 27  1  0
 25 24  2  0
 26 22  1  0
M  END
$$$$
