GNM.pdb
     RDKit          3D

 21 20  0  0  1  0  0  0  0  0999 V2000
    8.3723  -15.5752   17.6387 N   0  0  0  0  0  0  0  0  0  0  0  0
    8.7716  -16.4720   18.6811 C   0  0  0  0  0  0  0  0  0  0  0  0
    7.9477  -16.2639   19.9086 C   0  0  0  0  0  0  0  0  0  0  0  0
    7.1481  -15.2954   19.9967 O   0  0  0  0  0  0  0  0  0  0  0  0
    4.3052  -18.7406   22.9533 N   0  0  0  0  0  0  0  0  0  0  0  0
    5.7067  -18.8159   23.3686 C   0  0  0  0  0  0  0  0  0  0  0  0
    5.8484  -19.1722   24.5380 O   0  0  0  0  0  0  0  0  0  0  0  0
    6.6551  -18.4629   22.3432 C   0  0  0  0  0  0  0  0  0  0  0  0
    7.1146  -17.0598   22.1755 C   0  0  2  0  0  0  0  0  0  0  0  0
    8.0493  -17.1546   21.0027 N   0  0  0  0  0  0  0  0  0  0  0  0
    7.9262  -16.5153   23.2850 C   0  0  0  0  0  0  0  0  0  0  0  0
    9.2104  -16.6749   23.2835 O   0  0  0  0  0  0  0  0  0  0  0  0
    6.1152  -10.9265   27.3110 C   0  0  0  0  0  0  0  0  0  0  0  0
    6.1744  -11.9948   25.8218 S   0  0  0  0  0  0  0  0  0  0  0  0
    7.7532  -12.8655   25.7822 C   0  0  0  0  0  0  0  0  0  0  0  0
    7.7060  -14.2643   26.2883 C   0  0  0  0  0  0  0  0  0  0  0  0
    8.3588  -15.2907   25.4235 C   0  0  2  0  0  0  0  0  0  0  0  0
    7.4372  -15.7976   24.4047 N   0  0  0  0  0  0  0  0  0  0  0  0
    8.8055  -16.4692   26.1990 C   0  0  0  0  0  0  0  0  0  0  0  0
    9.9970  -16.4606   26.9446 O   0  0  0  0  0  0  0  0  0  0  0  0
    8.1486  -17.5496   26.2371 O   0  0  0  0  0  0  0  0  0  0  0  0
  1  2  1  0
  2  3  1  0
  3  4  2  0
  5  6  1  0
  6  8  1  0
  7  6  2  0
  9  8  1  1
  9 11  1  0
 10  3  1  0
 10  9  1  0
 11 12  2  0
 13 14  1  0
 14 15  1  0
 15 16  1  0
 17 16  1  1
 17 19  1  0
 18 11  1  0
 18 17  1  0
 19 21  2  0
 19 20  1  0
M  END
$$$$
