GNM.pdb
     RDKit          3D

 21 20  0  0  1  0  0  0  0  0999 V2000
   12.5832  -16.6546   19.0299 N   0  0  0  0  0  0  0  0  0  0  0  0
   12.3574  -16.6463   20.4438 C   0  0  0  0  0  0  0  0  0  0  0  0
   10.9139  -16.4225   20.7523 C   0  0  0  0  0  0  0  0  0  0  0  0
   10.3081  -15.4069   20.3203 O   0  0  0  0  0  0  0  0  0  0  0  0
    7.6976  -18.0463   19.4662 N   0  0  0  0  0  0  0  0  0  0  0  0
    7.5876  -18.9656   20.5999 C   0  0  0  0  0  0  0  0  0  0  0  0
    7.0104  -20.0157   20.3197 O   0  0  0  0  0  0  0  0  0  0  0  0
    8.1691  -18.4784   21.8247 C   0  0  0  0  0  0  0  0  0  0  0  0
    8.7557  -17.1155   21.9048 C   0  0  2  0  0  0  0  0  0  0  0  0
   10.1942  -17.3513   21.5396 N   0  0  0  0  0  0  0  0  0  0  0  0
    8.7841  -16.5093   23.2530 C   0  0  0  0  0  0  0  0  0  0  0  0
    9.7637  -16.7707   24.0572 O   0  0  0  0  0  0  0  0  0  0  0  0
    7.1182  -10.5210   26.3683 C   0  0  0  0  0  0  0  0  0  0  0  0
    6.1126  -11.9080   27.0221 S   0  0  0  0  0  0  0  0  0  0  0  0
    7.0241  -13.4495   26.8096 C   0  0  0  0  0  0  0  0  0  0  0  0
    7.0115  -13.9948   25.4248 C   0  0  0  0  0  0  0  0  0  0  0  0
    7.9479  -15.1273   25.1637 C   0  0  2  0  0  0  0  0  0  0  0  0
    7.8167  -15.6259   23.7932 N   0  0  0  0  0  0  0  0  0  0  0  0
    7.6847  -16.2826   26.0501 C   0  0  0  0  0  0  0  0  0  0  0  0
    8.4111  -16.4912   27.2352 O   0  0  0  0  0  0  0  0  0  0  0  0
    6.7977  -17.1484   25.7972 O   0  0  0  0  0  0  0  0  0  0  0  0
  1  2  1  0
  2  3  1  0
  3  4  2  0
  5  6  1  0
  6  8  1  0
  7  6  2  0
  9  8  1  1
  9 11  1  0
 10  3  1  0
 10  9  1  0
 11 12  2  0
 13 14  1  0
 14 15  1  0
 15 16  1  0
 17 16  1  1
 17 19  1  0
 18 11  1  0
 18 17  1  0
 19 21  2  0
 19 20  1  0
M  END
$$$$
