GNM.pdb
     RDKit          3D

 21 20  0  0  1  0  0  0  0  0999 V2000
   13.7707  -17.4059   20.2233 N   0  0  0  0  0  0  0  0  0  0  0  0
   12.5273  -17.8964   20.7368 C   0  0  0  0  0  0  0  0  0  0  0  0
   11.5868  -16.7723   21.0211 C   0  0  0  0  0  0  0  0  0  0  0  0
   11.9667  -15.5743   20.9473 O   0  0  0  0  0  0  0  0  0  0  0  0
    7.1249  -13.9554   21.1856 N   0  0  0  0  0  0  0  0  0  0  0  0
    6.9044  -15.4023   21.2088 C   0  0  0  0  0  0  0  0  0  0  0  0
    5.7265  -15.7115   21.3861 O   0  0  0  0  0  0  0  0  0  0  0  0
    8.0943  -16.1926   21.0217 C   0  0  0  0  0  0  0  0  0  0  0  0
    9.3237  -15.9245   21.8122 C   0  0  2  0  0  0  0  0  0  0  0  0
   10.2436  -17.0316   21.3807 N   0  0  0  0  0  0  0  0  0  0  0  0
    9.1873  -16.0719   23.2771 C   0  0  0  0  0  0  0  0  0  0  0  0
    8.6012  -17.1158   23.7685 O   0  0  0  0  0  0  0  0  0  0  0  0
    7.1848  -11.2355   27.3889 C   0  0  0  0  0  0  0  0  0  0  0  0
    6.0102  -12.2713   26.4350 S   0  0  0  0  0  0  0  0  0  0  0  0
    6.6798  -13.9392   26.2866 C   0  0  0  0  0  0  0  0  0  0  0  0
    7.6234  -14.1331   25.1521 C   0  0  0  0  0  0  0  0  0  0  0  0
    8.8656  -14.8994   25.4638 C   0  0  2  0  0  0  0  0  0  0  0  0
    9.6521  -15.1591   24.2561 N   0  0  0  0  0  0  0  0  0  0  0  0
    8.5693  -16.2228   26.0557 C   0  0  0  0  0  0  0  0  0  0  0  0
    8.9721  -16.5613   27.3591 O   0  0  0  0  0  0  0  0  0  0  0  0
    7.9416  -17.1251   25.4296 O   0  0  0  0  0  0  0  0  0  0  0  0
  1  2  1  0
  2  3  1  0
  3  4  2  0
  5  6  1  0
  6  8  1  0
  7  6  2  0
  9  8  1  6
  9 11  1  0
 10  3  1  0
 10  9  1  0
 11 12  2  0
 13 14  1  0
 14 15  1  0
 15 16  1  0
 17 16  1  6
 17 19  1  0
 18 11  1  0
 18 17  1  0
 19 21  2  0
 19 20  1  0
M  END
$$$$
