GNM.pdb
     RDKit          3D

 21 20  0  0  1  0  0  0  0  0999 V2000
    6.4285  -19.2662   20.5466 N   0  0  0  0  0  0  0  0  0  0  0  0
    6.1417  -17.8794   20.7581 C   0  0  0  0  0  0  0  0  0  0  0  0
    7.4007  -17.0909   20.9068 C   0  0  0  0  0  0  0  0  0  0  0  0
    8.5130  -17.6645   21.0443 O   0  0  0  0  0  0  0  0  0  0  0  0
    6.7054  -12.7985   18.7638 N   0  0  0  0  0  0  0  0  0  0  0  0
    7.9396  -13.5291   19.0557 C   0  0  0  0  0  0  0  0  0  0  0  0
    8.4821  -13.9877   18.0508 O   0  0  0  0  0  0  0  0  0  0  0  0
    8.2908  -13.5777   20.4521 C   0  0  0  0  0  0  0  0  0  0  0  0
    8.6161  -14.8670   21.1154 C   0  0  2  0  0  0  0  0  0  0  0  0
    7.3694  -15.6768   20.8961 N   0  0  0  0  0  0  0  0  0  0  0  0
    8.7946  -14.8050   22.5819 C   0  0  0  0  0  0  0  0  0  0  0  0
    9.5427  -13.8862   23.1022 O   0  0  0  0  0  0  0  0  0  0  0  0
    7.2216  -10.9869   27.2158 C   0  0  0  0  0  0  0  0  0  0  0  0
    6.1761  -12.4906   27.1254 S   0  0  0  0  0  0  0  0  0  0  0  0
    7.2199  -13.9140   26.7557 C   0  0  0  0  0  0  0  0  0  0  0  0
    7.2832  -14.2828   25.3152 C   0  0  0  0  0  0  0  0  0  0  0  0
    8.2559  -15.3581   24.9618 C   0  0  2  0  0  0  0  0  0  0  0  0
    8.2076  -15.6759   23.5331 N   0  0  0  0  0  0  0  0  0  0  0  0
    7.9711  -16.6227   25.6756 C   0  0  0  0  0  0  0  0  0  0  0  0
    8.2128  -16.7699   27.0524 O   0  0  0  0  0  0  0  0  0  0  0  0
    7.4979  -17.6421   25.0951 O   0  0  0  0  0  0  0  0  0  0  0  0
  1  2  1  0
  2  3  1  0
  3  4  2  0
  5  6  1  0
  6  8  1  0
  7  6  2  0
  9  8  1  1
  9 11  1  0
 10  3  1  0
 10  9  1  0
 11 12  2  0
 13 14  1  0
 14 15  1  0
 15 16  1  0
 17 16  1  6
 17 19  1  0
 18 11  1  0
 18 17  1  0
 19 21  2  0
 19 20  1  0
M  END
$$$$
