GNM.pdb
     RDKit          3D

 21 20  0  0  1  0  0  0  0  0999 V2000
    7.3409  -12.3893   18.7323 N   0  0  0  0  0  0  0  0  0  0  0  0
    8.5387  -13.0593   19.1406 C   0  0  0  0  0  0  0  0  0  0  0  0
    8.2234  -14.2438   19.9929 C   0  0  0  0  0  0  0  0  0  0  0  0
    7.0398  -14.4969   20.3396 O   0  0  0  0  0  0  0  0  0  0  0  0
    9.6885  -19.7121   20.7824 N   0  0  0  0  0  0  0  0  0  0  0  0
   10.0483  -18.5514   21.5985 C   0  0  0  0  0  0  0  0  0  0  0  0
   10.3835  -18.8484   22.7447 O   0  0  0  0  0  0  0  0  0  0  0  0
    9.9455  -17.2857   20.9180 C   0  0  0  0  0  0  0  0  0  0  0  0
    8.9655  -16.2583   21.3560 C   0  0  2  0  0  0  0  0  0  0  0  0
    9.2527  -15.1098   20.4303 N   0  0  0  0  0  0  0  0  0  0  0  0
    9.1640  -15.7253   22.7208 C   0  0  0  0  0  0  0  0  0  0  0  0
   10.2133  -15.0176   22.9905 O   0  0  0  0  0  0  0  0  0  0  0  0
    6.5265  -10.5452   26.9568 C   0  0  0  0  0  0  0  0  0  0  0  0
    6.1069  -12.2871   26.5665 S   0  0  0  0  0  0  0  0  0  0  0  0
    7.5968  -13.1457   26.0229 C   0  0  0  0  0  0  0  0  0  0  0  0
    7.3969  -14.5777   25.6701 C   0  0  0  0  0  0  0  0  0  0  0  0
    8.5896  -15.2829   25.1154 C   0  0  2  0  0  0  0  0  0  0  0  0
    8.2918  -15.9040   23.8232 N   0  0  0  0  0  0  0  0  0  0  0  0
    9.0523  -16.3744   26.0010 C   0  0  0  0  0  0  0  0  0  0  0  0
    9.8356  -16.1252   27.1412 O   0  0  0  0  0  0  0  0  0  0  0  0
    8.7753  -17.5901   25.7873 O   0  0  0  0  0  0  0  0  0  0  0  0
  1  2  1  0
  2  3  1  0
  3  4  2  0
  5  6  1  0
  6  8  1  0
  7  6  2  0
  9  8  1  6
  9 11  1  0
 10  3  1  0
 10  9  1  0
 11 12  2  0
 13 14  1  0
 14 15  1  0
 15 16  1  0
 17 16  1  1
 17 19  1  0
 18 11  1  0
 18 17  1  0
 19 21  2  0
 19 20  1  0
M  END
$$$$
