GNM.pdb
     RDKit          3D

 21 20  0  0  1  0  0  0  0  0999 V2000
    6.8378  -14.9865   19.2380 N   0  0  0  0  0  0  0  0  0  0  0  0
    8.2082  -14.9365   19.6499 C   0  0  0  0  0  0  0  0  0  0  0  0
    8.4162  -15.7146   20.9070 C   0  0  0  0  0  0  0  0  0  0  0  0
    7.4430  -16.0434   21.6349 O   0  0  0  0  0  0  0  0  0  0  0  0
   12.1926  -18.6209   20.1780 N   0  0  0  0  0  0  0  0  0  0  0  0
   11.2055  -18.7578   21.2501 C   0  0  0  0  0  0  0  0  0  0  0  0
   10.5375  -19.7880   21.1670 O   0  0  0  0  0  0  0  0  0  0  0  0
   11.1960  -17.6725   22.1976 C   0  0  0  0  0  0  0  0  0  0  0  0
    9.9378  -16.9529   22.5250 C   0  0  2  0  0  0  0  0  0  0  0  0
    9.7168  -16.1001   21.3075 N   0  0  0  0  0  0  0  0  0  0  0  0
   10.0174  -16.0088   23.6600 C   0  0  0  0  0  0  0  0  0  0  0  0
   10.9749  -15.1397   23.7102 O   0  0  0  0  0  0  0  0  0  0  0  0
    5.4869  -12.3684   26.3623 C   0  0  0  0  0  0  0  0  0  0  0  0
    7.0634  -11.7381   27.0551 S   0  0  0  0  0  0  0  0  0  0  0  0
    8.2619  -13.0843   27.1152 C   0  0  0  0  0  0  0  0  0  0  0  0
    8.1885  -14.0352   25.9726 C   0  0  0  0  0  0  0  0  0  0  0  0
    9.3384  -14.9766   25.8357 C   0  0  2  0  0  0  0  0  0  0  0  0
    9.1183  -15.9376   24.7529 N   0  0  0  0  0  0  0  0  0  0  0  0
    9.5506  -15.7779   27.0616 C   0  0  0  0  0  0  0  0  0  0  0  0
    9.4409  -17.1792   27.0621 O   0  0  0  0  0  0  0  0  0  0  0  0
    9.8399  -15.2553   28.1767 O   0  0  0  0  0  0  0  0  0  0  0  0
  1  2  1  0
  2  3  1  0
  3  4  2  0
  5  6  1  0
  6  8  1  0
  7  6  2  0
  9  8  1  6
  9 11  1  0
 10  3  1  0
 10  9  1  0
 11 12  2  0
 13 14  1  0
 14 15  1  0
 15 16  1  0
 17 16  1  1
 17 19  1  0
 18 11  1  0
 18 17  1  0
 19 21  2  0
 19 20  1  0
M  END
$$$$
