SIM.pdb
     RDKit          3D

 23 22  0  0  1  0  0  0  0  0999 V2000
   25.2085  -25.0641  -16.8921 O   0  0  0  0  0  0  0  0  0  0  0  0
   25.4515  -23.9956  -16.0546 C   0  0  0  0  0  0  0  0  0  0  0  0
   26.7264  -23.2875  -16.4735 C   0  0  2  0  0  0  0  0  0  0  0  0
   27.7798  -24.1971  -16.7912 N   0  0  0  0  0  0  0  0  0  0  0  0
   27.0834  -22.3506  -15.3725 C   0  0  0  0  0  0  0  0  0  0  0  0
   28.2571  -22.4527  -14.9278 O   0  0  0  0  0  0  0  0  0  0  0  0
   26.7633  -17.2844  -15.9644 C   0  0  0  0  0  0  0  0  0  0  0  0
   27.2284  -18.6914  -15.5340 C   0  0  0  0  0  0  0  0  0  0  0  0
   26.3712  -19.0282  -14.3424 C   0  0  2  0  0  0  0  0  0  0  0  0
   26.7695  -18.0489  -13.2373 C   0  0  0  0  0  0  0  0  0  0  0  0
   26.5436  -20.4387  -13.8580 C   0  0  2  0  0  0  0  0  0  0  0  0
   26.1740  -21.4024  -14.8502 N   0  0  0  0  0  0  0  0  0  0  0  0
   25.9096  -20.7380  -12.5756 C   0  0  0  0  0  0  0  0  0  0  0  0
   24.7019  -21.0533  -12.4794 O   0  0  0  0  0  0  0  0  0  0  0  0
   28.8591  -20.5230   -5.8555 C   0  0  0  0  0  0  0  0  0  0  0  0
   27.4618  -19.4677   -6.3165 S   0  0  0  0  0  0  0  0  0  0  0  0
   26.4292  -20.0921   -7.5888 C   0  0  0  0  0  0  0  0  0  0  0  0
   26.8271  -20.1855   -8.9810 C   0  0  0  0  0  0  0  0  0  0  0  0
   25.9824  -20.6885  -10.0535 C   0  0  2  0  0  0  0  0  0  0  0  0
   26.6491  -20.6836  -11.3569 N   0  0  0  0  0  0  0  0  0  0  0  0
   24.6248  -20.1593  -10.1769 C   0  0  0  0  0  0  0  0  0  0  0  0
   24.2227  -19.0819  -10.6250 O   0  0  0  0  0  0  0  0  0  0  0  0
   23.5395  -20.9889   -9.7154 O   0  0  0  0  0  0  0  0  0  0  0  0
  2  1  1  0
  3  4  1  1
  3  2  1  0
  5  3  1  0
  6  5  2  0
  8  7  1  0
  9  8  1  0
  9 11  1  0
  9 10  1  1
 11 13  1  0
 11 12  1  6
 12  5  1  0
 13 20  1  0
 14 13  2  0
 15 16  1  0
 17 16  1  0
 18 17  1  0
 19 18  1  1
 19 21  1  0
 20 19  1  0
 21 22  2  0
 21 23  1  0
M  END
$$$$
