SIM.pdb
     RDKit          3D

 23 22  0  0  1  0  0  0  0  0999 V2000
   28.2283  -18.7817  -16.0799 O   0  0  0  0  0  0  0  0  0  0  0  0
   27.1540  -19.4970  -15.5936 C   0  0  0  0  0  0  0  0  0  0  0  0
   27.6440  -20.6752  -14.7726 C   0  0  2  0  0  0  0  0  0  0  0  0
   28.2062  -21.7099  -15.5795 N   0  0  0  0  0  0  0  0  0  0  0  0
   26.4911  -21.1419  -13.9538 C   0  0  0  0  0  0  0  0  0  0  0  0
   25.8068  -22.0727  -14.4550 O   0  0  0  0  0  0  0  0  0  0  0  0
   26.3787  -20.5530   -8.4476 C   0  0  0  0  0  0  0  0  0  0  0  0
   26.2952  -21.2480   -9.8227 C   0  0  0  0  0  0  0  0  0  0  0  0
   25.1117  -20.6098  -10.5011 C   0  0  2  0  0  0  0  0  0  0  0  0
   23.8716  -21.1065   -9.7566 C   0  0  0  0  0  0  0  0  0  0  0  0
   24.9995  -20.9503  -11.9590 C   0  0  2  0  0  0  0  0  0  0  0  0
   26.1733  -20.5856  -12.6934 N   0  0  0  0  0  0  0  0  0  0  0  0
   23.7934  -20.4584  -12.6218 C   0  0  0  0  0  0  0  0  0  0  0  0
   23.6032  -19.2438  -12.8581 O   0  0  0  0  0  0  0  0  0  0  0  0
   22.0382  -21.0760  -18.5712 C   0  0  0  0  0  0  0  0  0  0  0  0
   20.4355  -21.1949  -17.7372 S   0  0  0  0  0  0  0  0  0  0  0  0
   20.4436  -20.8181  -16.0246 C   0  0  0  0  0  0  0  0  0  0  0  0
   21.5261  -21.1684  -15.1243 C   0  0  0  0  0  0  0  0  0  0  0  0
   21.5495  -20.8725  -13.7000 C   0  0  2  0  0  0  0  0  0  0  0  0
   22.7624  -21.3532  -13.0357 N   0  0  0  0  0  0  0  0  0  0  0  0
   20.3699  -21.2018  -12.9011 C   0  0  0  0  0  0  0  0  0  0  0  0
   19.2188  -20.7594  -12.9521 O   0  0  0  0  0  0  0  0  0  0  0  0
   20.5176  -22.1999  -11.8710 O   0  0  0  0  0  0  0  0  0  0  0  0
  2  1  1  0
  3  4  1  6
  3  2  1  0
  5  3  1  0
  6  5  2  0
  8  7  1  0
  9  8  1  0
  9 11  1  0
  9 10  1  1
 11 13  1  0
 11 12  1  6
 12  5  1  0
 13 20  1  0
 14 13  2  0
 15 16  1  0
 17 16  1  0
 18 17  1  0
 19 18  1  6
 19 21  1  0
 20 19  1  0
 21 22  2  0
 21 23  1  0
M  END
$$$$
