SIM.pdb
     RDKit          3D

 23 22  0  0  1  0  0  0  0  0999 V2000
   15.5846   -7.7494  -15.4558 O   0  0  0  0  0  0  0  0  0  0  0  0
   15.4415   -9.0919  -15.7375 C   0  0  0  0  0  0  0  0  0  0  0  0
   16.7663   -9.8064  -15.5454 C   0  0  2  0  0  0  0  0  0  0  0  0
   16.6972  -11.1908  -15.8866 N   0  0  0  0  0  0  0  0  0  0  0  0
   17.1807   -9.5784  -14.1334 C   0  0  0  0  0  0  0  0  0  0  0  0
   16.6509  -10.3374  -13.2796 O   0  0  0  0  0  0  0  0  0  0  0  0
   22.3215   -8.8664  -12.7630 C   0  0  0  0  0  0  0  0  0  0  0  0
   20.8538   -9.3187  -12.9120 C   0  0  0  0  0  0  0  0  0  0  0  0
   20.0455   -8.1852  -12.3374 C   0  0  2  0  0  0  0  0  0  0  0  0
   20.4743   -8.0509  -10.8757 C   0  0  0  0  0  0  0  0  0  0  0  0
   18.5625   -8.4061  -12.4138 C   0  0  2  0  0  0  0  0  0  0  0  0
   18.1080   -8.5783  -13.7606 N   0  0  0  0  0  0  0  0  0  0  0  0
   17.7491   -7.4172  -11.7092 C   0  0  0  0  0  0  0  0  0  0  0  0
   17.5822   -6.2535  -12.1394 O   0  0  0  0  0  0  0  0  0  0  0  0
   11.5285   -6.4631   -6.7750 C   0  0  0  0  0  0  0  0  0  0  0  0
   12.7225   -7.5539   -7.5891 S   0  0  0  0  0  0  0  0  0  0  0  0
   14.0764   -6.7512   -8.3622 C   0  0  0  0  0  0  0  0  0  0  0  0
   15.0931   -7.4416   -9.1336 C   0  0  0  0  0  0  0  0  0  0  0  0
   16.2000   -6.7909   -9.8179 C   0  0  2  0  0  0  0  0  0  0  0  0
   17.0987   -7.7378  -10.4807 N   0  0  0  0  0  0  0  0  0  0  0  0
   16.9718   -5.7834   -9.0916 C   0  0  0  0  0  0  0  0  0  0  0  0
   18.0266   -5.8850   -8.4588 O   0  0  0  0  0  0  0  0  0  0  0  0
   16.4646   -4.4337   -9.0792 O   0  0  0  0  0  0  0  0  0  0  0  0
  2  1  1  0
  3  4  1  1
  3  2  1  0
  5  3  1  0
  6  5  2  0
  8  7  1  0
  9  8  1  0
  9 11  1  0
  9 10  1  1
 11 13  1  0
 11 12  1  6
 12  5  1  0
 13 20  1  0
 14 13  2  0
 15 16  1  0
 17 16  1  0
 18 17  1  0
 19 18  1  1
 19 21  1  0
 20 19  1  0
 21 22  2  0
 21 23  1  0
M  END
$$$$
