SIM.pdb
     RDKit          3D

 23 22  0  0  1  0  0  0  0  0999 V2000
   22.5714  -21.6269   -4.0661 O   0  0  0  0  0  0  0  0  0  0  0  0
   23.5880  -21.3136   -3.1883 C   0  0  0  0  0  0  0  0  0  0  0  0
   23.9475  -19.8448   -3.3137 C   0  0  2  0  0  0  0  0  0  0  0  0
   22.8121  -18.9894   -3.1837 N   0  0  0  0  0  0  0  0  0  0  0  0
   24.6496  -19.6804   -4.6166 C   0  0  0  0  0  0  0  0  0  0  0  0
   24.0158  -19.0484   -5.5024 O   0  0  0  0  0  0  0  0  0  0  0  0
   29.5907  -19.7590   -4.0294 C   0  0  0  0  0  0  0  0  0  0  0  0
   28.6951  -19.0010   -5.0315 C   0  0  0  0  0  0  0  0  0  0  0  0
   28.1304  -20.0737   -5.9253 C   0  0  2  0  0  0  0  0  0  0  0  0
   28.8137  -19.9041   -7.2829 C   0  0  0  0  0  0  0  0  0  0  0  0
   26.6406  -19.9934   -6.0925 C   0  0  2  0  0  0  0  0  0  0  0  0
   25.9441  -20.1951   -4.8580 N   0  0  0  0  0  0  0  0  0  0  0  0
   26.0870  -20.8368   -7.1499 C   0  0  0  0  0  0  0  0  0  0  0  0
   25.4869  -21.9090   -6.9104 O   0  0  0  0  0  0  0  0  0  0  0  0
   20.5961  -18.7183   -9.1937 C   0  0  0  0  0  0  0  0  0  0  0  0
   21.5416  -19.6437  -10.4298 S   0  0  0  0  0  0  0  0  0  0  0  0
   22.6257  -20.8665   -9.7938 C   0  0  0  0  0  0  0  0  0  0  0  0
   23.8310  -20.5679   -9.0433 C   0  0  0  0  0  0  0  0  0  0  0  0
   25.1843  -20.8335   -9.5066 C   0  0  2  0  0  0  0  0  0  0  0  0
   26.2070  -20.4712   -8.5236 N   0  0  0  0  0  0  0  0  0  0  0  0
   25.5700  -20.3622  -10.8360 C   0  0  0  0  0  0  0  0  0  0  0  0
   26.2352  -19.3796  -11.1758 O   0  0  0  0  0  0  0  0  0  0  0  0
   25.1288  -21.1324  -11.9723 O   0  0  0  0  0  0  0  0  0  0  0  0
  2  1  1  0
  3  4  1  6
  3  2  1  0
  5  3  1  0
  6  5  2  0
  8  7  1  0
  9  8  1  0
  9 11  1  0
  9 10  1  6
 11 13  1  0
 11 12  1  1
 12  5  1  0
 13 20  1  0
 14 13  2  0
 15 16  1  0
 17 16  1  0
 18 17  1  0
 19 18  1  1
 19 21  1  0
 20 19  1  0
 21 22  2  0
 21 23  1  0
M  END
$$$$
