SIM.pdb
     RDKit          3D

 23 22  0  0  1  0  0  0  0  0999 V2000
   24.6704  -18.5147  -16.8337 O   0  0  0  0  0  0  0  0  0  0  0  0
   24.9522  -18.6051  -15.4866 C   0  0  0  0  0  0  0  0  0  0  0  0
   25.8268  -19.8159  -15.2197 C   0  0  2  0  0  0  0  0  0  0  0  0
   26.1062  -20.5624  -16.4040 N   0  0  0  0  0  0  0  0  0  0  0  0
   25.1400  -20.6245  -14.1747 C   0  0  0  0  0  0  0  0  0  0  0  0
   24.7216  -21.7530  -14.5449 O   0  0  0  0  0  0  0  0  0  0  0  0
   26.2173  -20.4434   -8.7696 C   0  0  0  0  0  0  0  0  0  0  0  0
   25.9264  -21.0236  -10.1695 C   0  0  0  0  0  0  0  0  0  0  0  0
   24.5254  -20.5707  -10.4862 C   0  0  2  0  0  0  0  0  0  0  0  0
   23.6033  -21.3301   -9.5313 C   0  0  0  0  0  0  0  0  0  0  0  0
   24.1154  -20.8347  -11.9061 C   0  0  2  0  0  0  0  0  0  0  0  0
   24.9620  -20.1677  -12.8486 N   0  0  0  0  0  0  0  0  0  0  0  0
   22.7056  -20.5883  -12.2027 C   0  0  0  0  0  0  0  0  0  0  0  0
   22.2184  -19.4359  -12.2446 O   0  0  0  0  0  0  0  0  0  0  0  0
   19.3795  -22.4600  -17.3957 C   0  0  0  0  0  0  0  0  0  0  0  0
   18.1146  -22.4801  -16.1002 S   0  0  0  0  0  0  0  0  0  0  0  0
   18.6109  -21.8332  -14.5478 C   0  0  0  0  0  0  0  0  0  0  0  0
   19.9652  -21.9137  -14.0333 C   0  0  0  0  0  0  0  0  0  0  0  0
   20.3861  -21.4337  -12.7259 C   0  0  2  0  0  0  0  0  0  0  0  0
   21.8073  -21.6657  -12.4617 N   0  0  0  0  0  0  0  0  0  0  0  0
   19.5869  -21.8028  -11.5583 C   0  0  0  0  0  0  0  0  0  0  0  0
   19.8310  -22.5850  -10.6353 O   0  0  0  0  0  0  0  0  0  0  0  0
   18.2937  -21.1825  -11.4103 O   0  0  0  0  0  0  0  0  0  0  0  0
  2  1  1  0
  3  4  1  6
  3  2  1  0
  5  3  1  0
  6  5  2  0
  8  7  1  0
  9  8  1  0
  9 11  1  0
  9 10  1  1
 11 13  1  0
 11 12  1  6
 12  5  1  0
 13 20  1  0
 14 13  2  0
 15 16  1  0
 17 16  1  0
 18 17  1  0
 19 18  1  6
 19 21  1  0
 20 19  1  0
 21 22  2  0
 21 23  1  0
M  END
$$$$
