SIM.pdb
     RDKit          3D

 23 22  0  0  1  0  0  0  0  0999 V2000
   22.4196  -23.0793  -14.6612 O   0  0  0  0  0  0  0  0  0  0  0  0
   23.5147  -23.7232  -14.1241 C   0  0  0  0  0  0  0  0  0  0  0  0
   24.7928  -23.1324  -14.6896 C   0  0  2  0  0  0  0  0  0  0  0  0
   24.6605  -21.7486  -15.0144 N   0  0  0  0  0  0  0  0  0  0  0  0
   25.1746  -23.9678  -15.8617 C   0  0  0  0  0  0  0  0  0  0  0  0
   24.7740  -23.5533  -16.9813 O   0  0  0  0  0  0  0  0  0  0  0  0
   30.0999  -25.9595  -16.5382 C   0  0  0  0  0  0  0  0  0  0  0  0
   28.7310  -25.2718  -16.7231 C   0  0  0  0  0  0  0  0  0  0  0  0
   27.7415  -26.4052  -16.7934 C   0  0  2  0  0  0  0  0  0  0  0  0
   28.0962  -27.2067  -18.0466 C   0  0  0  0  0  0  0  0  0  0  0  0
   26.3125  -25.9510  -16.8681 C   0  0  2  0  0  0  0  0  0  0  0  0
   25.9371  -25.1522  -15.7406 N   0  0  0  0  0  0  0  0  0  0  0  0
   25.3347  -27.0105  -17.1079 C   0  0  0  0  0  0  0  0  0  0  0  0
   25.3746  -28.1104  -16.5115 O   0  0  0  0  0  0  0  0  0  0  0  0
   21.2658  -31.3571  -17.2674 C   0  0  0  0  0  0  0  0  0  0  0  0
   20.3129  -29.8209  -17.1640 S   0  0  0  0  0  0  0  0  0  0  0  0
   20.8526  -28.5234  -18.2128 C   0  0  0  0  0  0  0  0  0  0  0  0
   21.9913  -27.6713  -17.9254 C   0  0  0  0  0  0  0  0  0  0  0  0
   23.3521  -27.9258  -18.3728 C   0  0  2  0  0  0  0  0  0  0  0  0
   24.2747  -26.8368  -18.0466 N   0  0  0  0  0  0  0  0  0  0  0  0
   23.5603  -28.3707  -19.7501 C   0  0  0  0  0  0  0  0  0  0  0  0
   23.6313  -29.5088  -20.2223 O   0  0  0  0  0  0  0  0  0  0  0  0
   23.7140  -27.3570  -20.7639 O   0  0  0  0  0  0  0  0  0  0  0  0
  2  1  1  0
  3  4  1  6
  3  2  1  0
  5  3  1  0
  6  5  2  0
  8  7  1  0
  9  8  1  0
  9 11  1  0
  9 10  1  6
 11 13  1  0
 11 12  1  1
 12  5  1  0
 13 20  1  0
 14 13  2  0
 15 16  1  0
 17 16  1  0
 18 17  1  0
 19 18  1  6
 19 21  1  0
 20 19  1  0
 21 22  2  0
 21 23  1  0
M  END
$$$$
