SIM.pdb
     RDKit          3D

 23 22  0  0  1  0  0  0  0  0999 V2000
   29.8150  -21.8950  -14.1232 O   0  0  0  0  0  0  0  0  0  0  0  0
   28.9703  -22.7210  -14.8349 C   0  0  0  0  0  0  0  0  0  0  0  0
   28.2456  -21.9249  -15.9041 C   0  0  2  0  0  0  0  0  0  0  0  0
   29.1410  -21.2945  -16.8198 N   0  0  0  0  0  0  0  0  0  0  0  0
   27.3624  -20.9556  -15.1986 C   0  0  0  0  0  0  0  0  0  0  0  0
   27.7339  -19.7529  -15.2335 O   0  0  0  0  0  0  0  0  0  0  0  0
   24.0026  -19.0233  -16.2460 C   0  0  0  0  0  0  0  0  0  0  0  0
   23.6770  -20.5066  -15.9723 C   0  0  0  0  0  0  0  0  0  0  0  0
   23.8418  -20.6645  -14.4836 C   0  0  2  0  0  0  0  0  0  0  0  0
   22.8772  -19.6690  -13.8377 C   0  0  0  0  0  0  0  0  0  0  0  0
   25.2398  -20.4026  -14.0030 C   0  0  2  0  0  0  0  0  0  0  0  0
   26.1801  -21.3458  -14.5286 N   0  0  0  0  0  0  0  0  0  0  0  0
   25.3851  -20.2699  -12.5548 C   0  0  0  0  0  0  0  0  0  0  0  0
   25.3689  -19.1601  -11.9758 O   0  0  0  0  0  0  0  0  0  0  0  0
   29.6376  -19.8368   -8.3025 C   0  0  0  0  0  0  0  0  0  0  0  0
   28.0421  -19.5472   -7.4968 S   0  0  0  0  0  0  0  0  0  0  0  0
   26.6680  -20.3568   -8.2259 C   0  0  0  0  0  0  0  0  0  0  0  0
   26.5632  -20.6563   -9.6417 C   0  0  0  0  0  0  0  0  0  0  0  0
   25.4357  -21.3315  -10.2659 C   0  0  2  0  0  0  0  0  0  0  0  0
   25.5546  -21.4161  -11.7226 N   0  0  0  0  0  0  0  0  0  0  0  0
   24.0835  -20.9201   -9.8910 C   0  0  0  0  0  0  0  0  0  0  0  0
   23.2360  -20.2828  -10.5227 O   0  0  0  0  0  0  0  0  0  0  0  0
   23.6106  -21.2924   -8.5807 O   0  0  0  0  0  0  0  0  0  0  0  0
  2  1  1  0
  3  4  1  1
  3  2  1  0
  5  3  1  0
  6  5  2  0
  8  7  1  0
  9  8  1  0
  9 11  1  0
  9 10  1  1
 11 13  1  0
 11 12  1  1
 12  5  1  0
 13 20  1  0
 14 13  2  0
 15 16  1  0
 17 16  1  0
 18 17  1  0
 19 18  1  6
 19 21  1  0
 20 19  1  0
 21 22  2  0
 21 23  1  0
M  END
$$$$
