SIM.pdb
     RDKit          3D

 23 22  0  0  1  0  0  0  0  0999 V2000
   29.5425  -22.0554  -15.3541 O   0  0  0  0  0  0  0  0  0  0  0  0
   29.2484  -20.9777  -14.5453 C   0  0  0  0  0  0  0  0  0  0  0  0
   27.9735  -20.3054  -15.0199 C   0  0  2  0  0  0  0  0  0  0  0  0
   28.2253  -19.2211  -15.9135 N   0  0  0  0  0  0  0  0  0  0  0  0
   27.2239  -19.8896  -13.8022 C   0  0  0  0  0  0  0  0  0  0  0  0
   27.4317  -18.7116  -13.4089 O   0  0  0  0  0  0  0  0  0  0  0  0
   21.6653  -19.9145  -12.1356 C   0  0  0  0  0  0  0  0  0  0  0  0
   23.0557  -19.8241  -11.4725 C   0  0  0  0  0  0  0  0  0  0  0  0
   24.0079  -20.3602  -12.5090 C   0  0  2  0  0  0  0  0  0  0  0  0
   23.6043  -21.8155  -12.7499 C   0  0  0  0  0  0  0  0  0  0  0  0
   25.4486  -20.2947  -12.0920 C   0  0  2  0  0  0  0  0  0  0  0  0
   26.3330  -20.7509  -13.1214 N   0  0  0  0  0  0  0  0  0  0  0  0
   25.7564  -20.9358  -10.8152 C   0  0  0  0  0  0  0  0  0  0  0  0
   25.7701  -22.1795  -10.6728 O   0  0  0  0  0  0  0  0  0  0  0  0
   29.5350  -18.6624   -5.5510 C   0  0  0  0  0  0  0  0  0  0  0  0
   28.0289  -19.3856   -4.8532 S   0  0  0  0  0  0  0  0  0  0  0  0
   27.0498  -20.3186   -5.9693 C   0  0  0  0  0  0  0  0  0  0  0  0
   26.8812  -19.9852   -7.3713 C   0  0  0  0  0  0  0  0  0  0  0  0
   26.0998  -20.7624   -8.3210 C   0  0  2  0  0  0  0  0  0  0  0  0
   26.0598  -20.1621   -9.6558 N   0  0  0  0  0  0  0  0  0  0  0  0
   24.7640  -21.2065   -7.9250 C   0  0  0  0  0  0  0  0  0  0  0  0
   23.6527  -20.7424   -8.1952 O   0  0  0  0  0  0  0  0  0  0  0  0
   24.6699  -22.3718   -7.0812 O   0  0  0  0  0  0  0  0  0  0  0  0
  2  1  1  0
  3  4  1  6
  3  2  1  0
  5  3  1  0
  6  5  2  0
  8  7  1  0
  9  8  1  0
  9 11  1  0
  9 10  1  1
 11 13  1  0
 11 12  1  6
 12  5  1  0
 13 20  1  0
 14 13  2  0
 15 16  1  0
 17 16  1  0
 18 17  1  0
 19 18  1  1
 19 21  1  0
 20 19  1  0
 21 22  2  0
 21 23  1  0
M  END
$$$$
