PIR.pdb
     RDKit          3D

 27 27  0  0  1  0  0  0  0  0999 V2000
   25.5340  -19.8520  -14.7949 N   0  0  0  0  0  0  0  0  0  0  0  0
   26.6025  -19.2127  -15.5002 C   0  0  0  0  0  0  0  0  0  0  0  0
   27.4622  -20.3114  -16.0598 C   0  0  0  0  0  0  0  0  0  0  0  0
   27.3167  -21.3940  -14.9957 C   0  0  0  0  0  0  0  0  0  0  0  0
   25.8525  -21.2379  -14.6483 C   0  0  1  0  0  0  0  0  0  0  0  0
   25.5607  -21.7640  -13.2845 C   0  0  0  0  0  0  0  0  0  0  0  0
   25.7847  -22.9439  -12.9452 O   0  0  0  0  0  0  0  0  0  0  0  0
   25.9597  -19.7527   -7.6112 C   0  0  0  0  0  0  0  0  0  0  0  0
   25.2865  -20.6831   -8.5771 C   0  0  0  0  0  0  0  0  0  0  0  0
   25.4697  -20.2514  -10.0156 C   0  0  2  0  0  0  0  0  0  0  0  0
   24.8351  -18.8614  -10.1209 C   0  0  0  0  0  0  0  0  0  0  0  0
   24.7787  -21.2217  -10.9449 C   0  0  2  0  0  0  0  0  0  0  0  0
   24.9992  -20.8864  -12.3159 N   0  0  0  0  0  0  0  0  0  0  0  0
   23.3157  -21.2644  -10.7125 C   0  0  0  0  0  0  0  0  0  0  0  0
   22.5767  -20.5504  -11.4338 O   0  0  0  0  0  0  0  0  0  0  0  0
   16.6396  -25.0439   -7.8487 N   0  0  0  0  0  0  0  0  0  0  0  0
   17.8883  -25.6897   -7.6086 C   0  0  0  0  0  0  0  0  0  0  0  0
   17.9971  -26.9382   -7.8626 N   0  0  0  0  0  0  0  0  0  0  0  0
   19.0024  -24.9869   -7.1000 N   0  0  0  0  0  0  0  0  0  0  0  0
   18.9522  -23.5462   -6.7945 C   0  0  0  0  0  0  0  0  0  0  0  0
   19.3788  -22.7610   -7.9843 C   0  0  0  0  0  0  0  0  0  0  0  0
   20.8233  -22.7120   -8.2823 C   0  0  0  0  0  0  0  0  0  0  0  0
   21.2637  -21.9898   -9.5038 C   0  0  2  0  0  0  0  0  0  0  0  0
   22.6973  -22.0664   -9.7203 N   0  0  0  0  0  0  0  0  0  0  0  0
   20.7763  -20.5979   -9.6272 C   0  0  0  0  0  0  0  0  0  0  0  0
   19.7163  -20.2925  -10.4905 O   0  0  0  0  0  0  0  0  0  0  0  0
   21.2697  -19.6387   -8.9836 O   0  0  0  0  0  0  0  0  0  0  0  0
  1  5  1  0
  2  3  1  0
  2  1  1  0
  3  4  1  0
  5  4  1  0
  5  6  1  1
  6 13  1  0
  6  7  2  0
  9 10  1  0
  9  8  1  0
 10 12  1  0
 10 11  1  1
 12 14  1  0
 12 13  1  6
 14 15  2  0
 14 24  1  0
 16 17  1  0
 17 19  1  0
 18 17  2  0
 19 20  1  0
 21 20  1  0
 22 21  1  0
 23 25  1  0
 23 22  1  1
 24 23  1  0
 25 26  1  0
 27 25  2  0
M  END
$$$$
