PIR.pdb
     RDKit          3D

 27 27  0  0  1  0  0  0  0  0999 V2000
   16.0806  -26.2787    0.0364 N   0  0  0  0  0  0  0  0  0  0  0  0
   15.9591  -27.6830   -0.2105 C   0  0  0  0  0  0  0  0  0  0  0  0
   14.5052  -28.0226   -0.0368 C   0  0  0  0  0  0  0  0  0  0  0  0
   14.0827  -27.0390    1.0492 C   0  0  0  0  0  0  0  0  0  0  0  0
   14.8633  -25.8145    0.6248 C   0  0  1  0  0  0  0  0  0  0  0  0
   15.0840  -24.8887    1.7721 C   0  0  0  0  0  0  0  0  0  0  0  0
   14.1590  -24.4615    2.4927 O   0  0  0  0  0  0  0  0  0  0  0  0
   20.1781  -25.2253    3.9666 C   0  0  0  0  0  0  0  0  0  0  0  0
   18.6953  -25.1135    3.7649 C   0  0  0  0  0  0  0  0  0  0  0  0
   18.2625  -23.6996    3.4445 C   0  0  2  0  0  0  0  0  0  0  0  0
   18.6192  -22.8621    4.6764 C   0  0  0  0  0  0  0  0  0  0  0  0
   16.7749  -23.6541    3.1849 C   0  0  2  0  0  0  0  0  0  0  0  0
   16.4097  -24.4660    2.0677 N   0  0  0  0  0  0  0  0  0  0  0  0
   16.3002  -22.2746    2.9245 C   0  0  0  0  0  0  0  0  0  0  0  0
   16.7989  -21.6451    1.9596 O   0  0  0  0  0  0  0  0  0  0  0  0
   10.3978  -17.4987   -0.3008 N   0  0  0  0  0  0  0  0  0  0  0  0
   10.8836  -16.6444    0.7327 C   0  0  0  0  0  0  0  0  0  0  0  0
   10.5047  -15.4234    0.7542 N   0  0  0  0  0  0  0  0  0  0  0  0
   11.7686  -17.1124    1.7286 N   0  0  0  0  0  0  0  0  0  0  0  0
   12.1565  -18.5301    1.8344 C   0  0  0  0  0  0  0  0  0  0  0  0
   12.8534  -18.7694    3.1271 C   0  0  0  0  0  0  0  0  0  0  0  0
   13.4105  -20.1164    3.3581 C   0  0  0  0  0  0  0  0  0  0  0  0
   14.8880  -20.2726    3.3667 C   0  0  2  0  0  0  0  0  0  0  0  0
   15.3123  -21.6198    3.7027 N   0  0  0  0  0  0  0  0  0  0  0  0
   15.6272  -19.2644    4.1585 C   0  0  0  0  0  0  0  0  0  0  0  0
   16.0157  -18.0516    3.5754 O   0  0  0  0  0  0  0  0  0  0  0  0
   15.9389  -19.4326    5.3637 O   0  0  0  0  0  0  0  0  0  0  0  0
  1  5  1  0
  2  3  1  0
  2  1  1  0
  3  4  1  0
  5  4  1  0
  5  6  1  1
  6 13  1  0
  6  7  2  0
  9 10  1  0
  9  8  1  0
 10 12  1  0
 10 11  1  1
 12 14  1  0
 12 13  1  6
 14 15  2  0
 14 24  1  0
 16 17  1  0
 17 19  1  0
 18 17  2  0
 19 20  1  0
 21 20  1  0
 22 21  1  0
 23 25  1  0
 23 22  1  1
 24 23  1  0
 25 26  1  0
 27 25  2  0
M  END
$$$$
