PIR.pdb
     RDKit          3D

 27 27  0  0  1  0  0  0  0  0999 V2000
   28.7041  -21.8316  -13.6649 N   0  0  0  0  0  0  0  0  0  0  0  0
   28.5979  -21.3774  -15.0178 C   0  0  0  0  0  0  0  0  0  0  0  0
   28.4698  -19.8810  -14.9568 C   0  0  0  0  0  0  0  0  0  0  0  0
   27.7078  -19.6862  -13.6503 C   0  0  0  0  0  0  0  0  0  0  0  0
   28.3589  -20.7509  -12.7952 C   0  0  1  0  0  0  0  0  0  0  0  0
   27.4679  -21.1643  -11.6739 C   0  0  0  0  0  0  0  0  0  0  0  0
   26.6620  -22.1137  -11.7562 O   0  0  0  0  0  0  0  0  0  0  0  0
   27.1568  -20.4417   -5.5288 C   0  0  0  0  0  0  0  0  0  0  0  0
   26.5093  -20.7473   -6.8475 C   0  0  0  0  0  0  0  0  0  0  0  0
   27.3762  -20.3475   -8.0214 C   0  0  2  0  0  0  0  0  0  0  0  0
   27.5799  -18.8346   -7.8968 C   0  0  0  0  0  0  0  0  0  0  0  0
   26.6839  -20.6841   -9.3214 C   0  0  2  0  0  0  0  0  0  0  0  0
   27.5318  -20.4479  -10.4466 N   0  0  0  0  0  0  0  0  0  0  0  0
   25.4430  -19.8958   -9.5082 C   0  0  0  0  0  0  0  0  0  0  0  0
   25.5430  -18.7193   -9.9347 O   0  0  0  0  0  0  0  0  0  0  0  0
   22.5894  -20.1764  -15.9729 N   0  0  0  0  0  0  0  0  0  0  0  0
   21.2194  -20.2027  -15.5775 C   0  0  0  0  0  0  0  0  0  0  0  0
   20.3427  -19.6863  -16.3519 N   0  0  0  0  0  0  0  0  0  0  0  0
   20.8096  -20.7830  -14.3572 N   0  0  0  0  0  0  0  0  0  0  0  0
   21.7718  -21.3091  -13.3729 C   0  0  0  0  0  0  0  0  0  0  0  0
   22.3589  -20.1886  -12.5894 C   0  0  0  0  0  0  0  0  0  0  0  0
   23.3385  -20.5340  -11.5412 C   0  0  0  0  0  0  0  0  0  0  0  0
   23.0466  -20.1205  -10.1443 C   0  0  2  0  0  0  0  0  0  0  0  0
   24.1438  -20.3922   -9.2330 N   0  0  0  0  0  0  0  0  0  0  0  0
   21.7609  -20.6057   -9.5954 C   0  0  0  0  0  0  0  0  0  0  0  0
   20.5501  -20.0566  -10.0365 O   0  0  0  0  0  0  0  0  0  0  0  0
   21.6832  -21.5115   -8.7285 O   0  0  0  0  0  0  0  0  0  0  0  0
  1  5  1  0
  2  3  1  0
  2  1  1  0
  3  4  1  0
  5  4  1  0
  5  6  1  1
  6 13  1  0
  6  7  2  0
  9 10  1  0
  9  8  1  0
 10 12  1  0
 10 11  1  6
 12 14  1  0
 12 13  1  6
 14 15  2  0
 14 24  1  0
 16 17  1  0
 17 19  1  0
 18 17  2  0
 19 20  1  0
 21 20  1  0
 22 21  1  0
 23 25  1  0
 23 22  1  6
 24 23  1  0
 25 26  1  0
 27 25  2  0
M  END
$$$$
