PIR.pdb
     RDKit          3D

 27 27  0  0  1  0  0  0  0  0999 V2000
   31.1512  -20.6770   -9.8881 N   0  0  0  0  0  0  0  0  0  0  0  0
   32.5131  -21.0752   -9.7020 C   0  0  0  0  0  0  0  0  0  0  0  0
   32.5920  -22.5235  -10.0962 C   0  0  0  0  0  0  0  0  0  0  0  0
   31.2138  -23.0333   -9.6885 C   0  0  0  0  0  0  0  0  0  0  0  0
   30.3585  -21.8502  -10.0855 C   0  0  1  0  0  0  0  0  0  0  0  0
   29.0787  -21.8267   -9.3215 C   0  0  0  0  0  0  0  0  0  0  0  0
   28.2634  -22.7716   -9.3256 O   0  0  0  0  0  0  0  0  0  0  0  0
   29.0097  -19.4078   -4.4445 C   0  0  0  0  0  0  0  0  0  0  0  0
   28.7694  -20.2429   -5.6679 C   0  0  0  0  0  0  0  0  0  0  0  0
   27.7565  -19.6180   -6.6021 C   0  0  2  0  0  0  0  0  0  0  0  0
   26.4592  -19.4998   -5.7964 C   0  0  0  0  0  0  0  0  0  0  0  0
   27.5501  -20.4971   -7.8134 C   0  0  2  0  0  0  0  0  0  0  0  0
   28.7624  -20.6759   -8.5476 N   0  0  0  0  0  0  0  0  0  0  0  0
   26.5331  -19.9391   -8.7356 C   0  0  0  0  0  0  0  0  0  0  0  0
   26.6508  -18.7433   -9.0995 O   0  0  0  0  0  0  0  0  0  0  0  0
   25.4173  -24.4714  -14.1701 N   0  0  0  0  0  0  0  0  0  0  0  0
   24.3968  -23.7113  -14.8143 C   0  0  0  0  0  0  0  0  0  0  0  0
   23.4457  -24.3292  -15.4047 N   0  0  0  0  0  0  0  0  0  0  0  0
   24.4111  -22.2993  -14.8155 N   0  0  0  0  0  0  0  0  0  0  0  0
   25.2980  -21.5199  -13.9337 C   0  0  0  0  0  0  0  0  0  0  0  0
   24.6567  -21.3374  -12.6035 C   0  0  0  0  0  0  0  0  0  0  0  0
   25.2998  -20.3990  -11.6635 C   0  0  0  0  0  0  0  0  0  0  0  0
   24.6497  -20.1681  -10.3476 C   0  0  2  0  0  0  0  0  0  0  0  0
   25.4301  -20.6773   -9.2342 N   0  0  0  0  0  0  0  0  0  0  0  0
   23.2373  -20.5997  -10.2543 C   0  0  0  0  0  0  0  0  0  0  0  0
   22.2918  -20.1336  -11.1766 O   0  0  0  0  0  0  0  0  0  0  0  0
   22.8172  -21.3861   -9.3694 O   0  0  0  0  0  0  0  0  0  0  0  0
  1  5  1  0
  2  3  1  0
  2  1  1  0
  3  4  1  0
  5  4  1  0
  5  6  1  1
  6 13  1  0
  6  7  2  0
  9 10  1  0
  9  8  1  0
 10 12  1  0
 10 11  1  1
 12 14  1  0
 12 13  1  6
 14 15  2  0
 14 24  1  0
 16 17  1  0
 17 19  1  0
 18 17  2  0
 19 20  1  0
 21 20  1  0
 22 21  1  0
 23 25  1  0
 23 22  1  6
 24 23  1  0
 25 26  1  0
 27 25  2  0
M  END
$$$$
