PIR.pdb
     RDKit          3D

 27 27  0  0  1  0  0  0  0  0999 V2000
   27.5410  -19.4547  -14.8718 N   0  0  0  0  0  0  0  0  0  0  0  0
   28.9541  -19.2309  -14.9023 C   0  0  0  0  0  0  0  0  0  0  0  0
   29.5714  -20.4773  -15.4720 C   0  0  0  0  0  0  0  0  0  0  0  0
   28.6224  -21.5566  -14.9620 C   0  0  0  0  0  0  0  0  0  0  0  0
   27.2964  -20.8431  -15.1083 C   0  0  1  0  0  0  0  0  0  0  0  0
   26.2680  -21.4196  -14.1962 C   0  0  0  0  0  0  0  0  0  0  0  0
   25.8389  -22.5868  -14.3013 O   0  0  0  0  0  0  0  0  0  0  0  0
   26.6073  -20.5394   -8.9353 C   0  0  0  0  0  0  0  0  0  0  0  0
   26.2451  -21.1090  -10.2756 C   0  0  0  0  0  0  0  0  0  0  0  0
   24.9870  -20.4896  -10.8438 C   0  0  2  0  0  0  0  0  0  0  0  0
   23.8544  -20.8948   -9.8956 C   0  0  0  0  0  0  0  0  0  0  0  0
   24.7273  -21.0165  -12.2357 C   0  0  2  0  0  0  0  0  0  0  0  0
   25.7440  -20.6076  -13.1523 N   0  0  0  0  0  0  0  0  0  0  0  0
   23.4209  -20.5599  -12.7658 C   0  0  0  0  0  0  0  0  0  0  0  0
   23.2060  -19.3251  -12.8384 O   0  0  0  0  0  0  0  0  0  0  0  0
   20.5559  -18.2891  -17.7109 N   0  0  0  0  0  0  0  0  0  0  0  0
   19.2330  -18.6738  -18.0795 C   0  0  0  0  0  0  0  0  0  0  0  0
   18.4429  -17.7895  -18.5577 N   0  0  0  0  0  0  0  0  0  0  0  0
   18.7768  -20.0018  -17.9302 N   0  0  0  0  0  0  0  0  0  0  0  0
   19.5971  -21.0500  -17.2979 C   0  0  0  0  0  0  0  0  0  0  0  0
   19.7342  -20.7765  -15.8418 C   0  0  0  0  0  0  0  0  0  0  0  0
   20.9945  -21.1838  -15.1908 C   0  0  0  0  0  0  0  0  0  0  0  0
   21.1563  -20.9068  -13.7401 C   0  0  2  0  0  0  0  0  0  0  0  0
   22.3943  -21.4372  -13.1977 N   0  0  0  0  0  0  0  0  0  0  0  0
   19.9996  -21.2718  -12.8924 C   0  0  0  0  0  0  0  0  0  0  0  0
   18.7878  -20.5793  -13.0112 O   0  0  0  0  0  0  0  0  0  0  0  0
   20.0361  -22.1966  -12.0431 O   0  0  0  0  0  0  0  0  0  0  0  0
  1  5  1  0
  2  3  1  0
  2  1  1  0
  3  4  1  0
  5  4  1  0
  5  6  1  1
  6 13  1  0
  6  7  2  0
  9 10  1  0
  9  8  1  0
 10 12  1  0
 10 11  1  1
 12 14  1  0
 12 13  1  6
 14 15  2  0
 14 24  1  0
 16 17  1  0
 17 19  1  0
 18 17  2  0
 19 20  1  0
 21 20  1  0
 22 21  1  0
 23 25  1  0
 23 22  1  6
 24 23  1  0
 25 26  1  0
 27 25  2  0
M  END
$$$$
