GAR.pdb
     RDKit          3D

 21 20  0  0  1  0  0  0  0  0999 V2000
    5.2098  -20.2714   23.8211 N   0  0  0  0  0  0  0  0  0  0  0  0
    5.9185  -19.6726   24.9208 C   0  0  0  0  0  0  0  0  0  0  0  0
    6.6017  -18.4021   24.5386 C   0  0  0  0  0  0  0  0  0  0  0  0
    6.7009  -18.1388   23.3269 O   0  0  0  0  0  0  0  0  0  0  0  0
    7.9433  -15.3186   26.2445 C   0  0  0  0  0  0  0  0  0  0  0  0
    7.7959  -16.2724   25.0675 C   0  0  2  0  0  0  0  0  0  0  0  0
    7.1342  -17.4959   25.4782 N   0  0  0  0  0  0  0  0  0  0  0  0
    9.1240  -16.5801   24.4628 C   0  0  0  0  0  0  0  0  0  0  0  0
    9.8275  -17.5163   24.9628 O   0  0  0  0  0  0  0  0  0  0  0  0
    7.2175  -14.3849   16.4387 N   0  0  0  0  0  0  0  0  0  0  0  0
    8.2502  -14.1418   17.3842 C   0  0  0  0  0  0  0  0  0  0  0  0
    8.9700  -13.0569   17.2402 N   0  0  0  0  0  0  0  0  0  0  0  0
    8.5052  -15.0390   18.4574 N   0  0  0  0  0  0  0  0  0  0  0  0
    9.6121  -14.7573   19.3588 C   0  0  0  0  0  0  0  0  0  0  0  0
    9.9039  -15.7885   20.3492 C   0  0  0  0  0  0  0  0  0  0  0  0
   10.9601  -15.7183   21.3343 C   0  0  0  0  0  0  0  0  0  0  0  0
   10.9027  -16.2821   22.6884 C   0  0  2  0  0  0  0  0  0  0  0  0
    9.6539  -15.8942   23.3638 N   0  0  0  0  0  0  0  0  0  0  0  0
   12.0017  -15.9206   23.5504 C   0  0  0  0  0  0  0  0  0  0  0  0
   11.9258  -15.2578   24.5781 O   0  0  0  0  0  0  0  0  0  0  0  0
   13.3071  -16.3543   23.2103 O   0  0  0  0  0  0  0  0  0  0  0  0
  2  3  1  0
  2  1  1  0
  3  4  2  0
  6  5  1  1
  6  8  1  0
  7  6  1  0
  7  3  1  0
  8  9  2  0
  8 18  1  0
 10 11  1  0
 11 12  2  0
 13 14  1  0
 13 11  1  0
 14 15  1  0
 17 16  1  6
 16 15  1  0
 17 19  1  0
 18 17  1  0
 19 20  2  0
 19 21  1  0
M  END
$$$$
