GAR.pdb
     RDKit          3D

 21 20  0  0  1  0  0  0  0  0999 V2000
   -0.2380  -19.6657   18.7009 N   0  0  0  0  0  0  0  0  0  0  0  0
    0.8460  -19.5963   17.7573 C   0  0  0  0  0  0  0  0  0  0  0  0
    1.9530  -20.5416   18.0855 C   0  0  0  0  0  0  0  0  0  0  0  0
    1.9098  -21.1268   19.1824 O   0  0  0  0  0  0  0  0  0  0  0  0
    4.8965  -22.1376   16.3674 C   0  0  0  0  0  0  0  0  0  0  0  0
    4.1204  -21.6833   17.5956 C   0  0  2  0  0  0  0  0  0  0  0  0
    3.0343  -20.7993   17.2183 N   0  0  0  0  0  0  0  0  0  0  0  0
    5.0211  -21.0083   18.5740 C   0  0  0  0  0  0  0  0  0  0  0  0
    5.2933  -19.7749   18.4129 O   0  0  0  0  0  0  0  0  0  0  0  0
    3.9145  -23.2547   25.0400 N   0  0  0  0  0  0  0  0  0  0  0  0
    5.2500  -23.6541   25.3165 C   0  0  0  0  0  0  0  0  0  0  0  0
    5.4363  -24.8230   25.8777 N   0  0  0  0  0  0  0  0  0  0  0  0
    6.3582  -22.8218   24.9996 N   0  0  0  0  0  0  0  0  0  0  0  0
    6.1115  -21.4365   24.6293 C   0  0  0  0  0  0  0  0  0  0  0  0
    6.5762  -21.0401   23.3040 C   0  0  0  0  0  0  0  0  0  0  0  0
    5.9495  -21.4186   22.0569 C   0  0  0  0  0  0  0  0  0  0  0  0
    6.3537  -20.9554   20.7240 C   0  0  2  0  0  0  0  0  0  0  0  0
    5.5948  -21.6549   19.6749 N   0  0  0  0  0  0  0  0  0  0  0  0
    7.7576  -21.0997   20.4241 C   0  0  0  0  0  0  0  0  0  0  0  0
    8.2758  -22.0337   19.8240 O   0  0  0  0  0  0  0  0  0  0  0  0
    8.6535  -20.0863   20.8469 O   0  0  0  0  0  0  0  0  0  0  0  0
  2  3  1  0
  2  1  1  0
  3  4  2  0
  6  5  1  6
  6  8  1  0
  7  6  1  0
  7  3  1  0
  8  9  2  0
  8 18  1  0
 10 11  1  0
 11 12  2  0
 13 14  1  0
 13 11  1  0
 14 15  1  0
 17 16  1  1
 16 15  1  0
 17 19  1  0
 18 17  1  0
 19 20  2  0
 19 21  1  0
M  END
$$$$
