GAR.pdb
     RDKit          3D

 21 20  0  0  1  0  0  0  0  0999 V2000
   -3.9825  -24.4983   19.6933 N   0  0  0  0  0  0  0  0  0  0  0  0
   -2.5691  -24.5077   19.4240 C   0  0  0  0  0  0  0  0  0  0  0  0
   -1.7791  -25.1244   20.5296 C   0  0  0  0  0  0  0  0  0  0  0  0
   -1.9239  -24.6603   21.6746 O   0  0  0  0  0  0  0  0  0  0  0  0
    0.5726  -28.0388   21.0217 C   0  0  0  0  0  0  0  0  0  0  0  0
   -0.0824  -26.7250   21.4243 C   0  0  2  0  0  0  0  0  0  0  0  0
   -0.8855  -26.1978   20.3378 N   0  0  0  0  0  0  0  0  0  0  0  0
    0.9429  -25.7258   21.8421 C   0  0  0  0  0  0  0  0  0  0  0  0
    1.4419  -24.9499   20.9644 O   0  0  0  0  0  0  0  0  0  0  0  0
   -0.2991  -19.5541   22.5493 N   0  0  0  0  0  0  0  0  0  0  0  0
   -1.1843  -20.0713   23.5334 C   0  0  0  0  0  0  0  0  0  0  0  0
   -2.3045  -19.4275   23.7491 N   0  0  0  0  0  0  0  0  0  0  0  0
   -0.8768  -21.2491   24.2681 N   0  0  0  0  0  0  0  0  0  0  0  0
    0.4301  -21.8641   24.0922 C   0  0  0  0  0  0  0  0  0  0  0  0
    0.6949  -23.0409   24.9134 C   0  0  0  0  0  0  0  0  0  0  0  0
    1.8685  -23.8792   24.8090 C   0  0  0  0  0  0  0  0  0  0  0  0
    2.3402  -24.5379   23.5850 C   0  0  2  0  0  0  0  0  0  0  0  0
    1.3982  -25.5850   23.1582 N   0  0  0  0  0  0  0  0  0  0  0  0
    3.6513  -25.1335   23.6752 C   0  0  0  0  0  0  0  0  0  0  0  0
    3.8946  -26.3251   23.8236 O   0  0  0  0  0  0  0  0  0  0  0  0
    4.7897  -24.2942   23.5882 O   0  0  0  0  0  0  0  0  0  0  0  0
  2  3  1  0
  2  1  1  0
  3  4  2  0
  6  5  1  6
  6  8  1  0
  7  6  1  0
  7  3  1  0
  8  9  2  0
  8 18  1  0
 10 11  1  0
 11 12  2  0
 13 14  1  0
 13 11  1  0
 14 15  1  0
 17 16  1  1
 16 15  1  0
 17 19  1  0
 18 17  1  0
 19 20  2  0
 19 21  1  0
M  END
$$$$
