GAR.pdb
     RDKit          3D

 21 20  0  0  1  0  0  0  0  0999 V2000
   10.3346  -16.8857   16.9042 N   0  0  0  0  0  0  0  0  0  0  0  0
    9.0528  -16.3861   17.3256 C   0  0  0  0  0  0  0  0  0  0  0  0
    9.1610  -15.3935   18.4347 C   0  0  0  0  0  0  0  0  0  0  0  0
   10.2755  -15.2344   18.9639 O   0  0  0  0  0  0  0  0  0  0  0  0
    6.9705  -12.7503   20.0102 C   0  0  0  0  0  0  0  0  0  0  0  0
    8.2388  -13.5833   19.8886 C   0  0  2  0  0  0  0  0  0  0  0  0
    8.0692  -14.6358   18.9054 N   0  0  0  0  0  0  0  0  0  0  0  0
    8.6220  -14.1640   21.2078 C   0  0  0  0  0  0  0  0  0  0  0  0
    8.9262  -13.3786   22.1627 O   0  0  0  0  0  0  0  0  0  0  0  0
    5.3756  -20.3323   22.2887 N   0  0  0  0  0  0  0  0  0  0  0  0
    4.6971  -19.0849   22.2306 C   0  0  0  0  0  0  0  0  0  0  0  0
    3.8669  -18.8846   21.2373 N   0  0  0  0  0  0  0  0  0  0  0  0
    4.9031  -18.0773   23.2123 N   0  0  0  0  0  0  0  0  0  0  0  0
    6.1450  -17.3195   23.1895 C   0  0  0  0  0  0  0  0  0  0  0  0
    7.3586  -18.0946   22.9531 C   0  0  0  0  0  0  0  0  0  0  0  0
    8.6877  -17.5386   22.8287 C   0  0  0  0  0  0  0  0  0  0  0  0
    9.0128  -16.1080   22.7791 C   0  0  2  0  0  0  0  0  0  0  0  0
    8.6690  -15.5388   21.4662 N   0  0  0  0  0  0  0  0  0  0  0  0
   10.3912  -15.7824   23.0543 C   0  0  0  0  0  0  0  0  0  0  0  0
   11.2456  -15.4969   22.2240 O   0  0  0  0  0  0  0  0  0  0  0  0
   10.8369  -15.7820   24.3995 O   0  0  0  0  0  0  0  0  0  0  0  0
  2  3  1  0
  2  1  1  0
  3  4  2  0
  6  5  1  1
  6  8  1  0
  7  6  1  0
  7  3  1  0
  8  9  2  0
  8 18  1  0
 10 11  1  0
 11 12  2  0
 13 14  1  0
 13 11  1  0
 14 15  1  0
 17 16  1  6
 16 15  1  0
 17 19  1  0
 18 17  1  0
 19 20  2  0
 19 21  1  0
M  END
$$$$
