GAR.pdb
     RDKit          3D

 21 20  0  0  1  0  0  0  0  0999 V2000
    5.2310  -18.2365   18.7579 N   0  0  0  0  0  0  0  0  0  0  0  0
    5.1058  -16.9785   19.4448 C   0  0  0  0  0  0  0  0  0  0  0  0
    6.4277  -16.3964   19.8200 C   0  0  0  0  0  0  0  0  0  0  0  0
    7.4349  -17.1154   19.6936 O   0  0  0  0  0  0  0  0  0  0  0  0
    7.7884  -13.0135   20.8115 C   0  0  0  0  0  0  0  0  0  0  0  0
    7.8968  -14.5065   20.5351 C   0  0  2  0  0  0  0  0  0  0  0  0
    6.5855  -15.0824   20.3060 N   0  0  0  0  0  0  0  0  0  0  0  0
    8.5806  -15.2073   21.6601 C   0  0  0  0  0  0  0  0  0  0  0  0
    7.9177  -15.4758   22.7136 O   0  0  0  0  0  0  0  0  0  0  0  0
   11.5348  -21.9211   22.9374 N   0  0  0  0  0  0  0  0  0  0  0  0
   12.9171  -21.6757   23.1581 C   0  0  0  0  0  0  0  0  0  0  0  0
   13.5677  -22.4975   23.9438 N   0  0  0  0  0  0  0  0  0  0  0  0
   13.5856  -20.5770   22.5519 N   0  0  0  0  0  0  0  0  0  0  0  0
   12.8157  -19.6525   21.7337 C   0  0  0  0  0  0  0  0  0  0  0  0
   12.0446  -18.6499   22.4614 C   0  0  0  0  0  0  0  0  0  0  0  0
   11.2572  -17.6028   21.8492 C   0  0  0  0  0  0  0  0  0  0  0  0
   10.5137  -16.5623   22.5698 C   0  0  2  0  0  0  0  0  0  0  0  0
    9.9253  -15.5943   21.6304 N   0  0  0  0  0  0  0  0  0  0  0  0
   11.2805  -15.8232   23.5431 C   0  0  0  0  0  0  0  0  0  0  0  0
   11.6373  -16.2306   24.6421 O   0  0  0  0  0  0  0  0  0  0  0  0
   11.6774  -14.4980   23.2358 O   0  0  0  0  0  0  0  0  0  0  0  0
  2  3  1  0
  2  1  1  0
  3  4  2  0
  6  5  1  1
  6  8  1  0
  7  6  1  0
  7  3  1  0
  8  9  2  0
  8 18  1  0
 10 11  1  0
 11 12  2  0
 13 14  1  0
 13 11  1  0
 14 15  1  0
 17 16  1  6
 16 15  1  0
 17 19  1  0
 18 17  1  0
 19 20  2  0
 19 21  1  0
M  END
$$$$
