GAR.pdb
     RDKit          3D

 21 20  0  0  1  0  0  0  0  0999 V2000
    8.1005  -16.0689   15.4638 N   0  0  0  0  0  0  0  0  0  0  0  0
    7.3092  -15.6029   16.5715 C   0  0  0  0  0  0  0  0  0  0  0  0
    8.1328  -14.9438   17.6270 C   0  0  0  0  0  0  0  0  0  0  0  0
    9.3693  -15.0595   17.5543 O   0  0  0  0  0  0  0  0  0  0  0  0
    7.6357  -12.6462   20.5770 C   0  0  0  0  0  0  0  0  0  0  0  0
    8.4023  -13.6815   19.7660 C   0  0  2  0  0  0  0  0  0  0  0  0
    7.5795  -14.2038   18.6919 N   0  0  0  0  0  0  0  0  0  0  0  0
    8.8808  -14.7924   20.6385 C   0  0  0  0  0  0  0  0  0  0  0  0
    8.0356  -15.6327   21.0868 O   0  0  0  0  0  0  0  0  0  0  0  0
    9.9447  -20.1889   16.9746 N   0  0  0  0  0  0  0  0  0  0  0  0
    9.8249  -20.9006   18.1987 C   0  0  0  0  0  0  0  0  0  0  0  0
    9.3329  -22.1139   18.1567 N   0  0  0  0  0  0  0  0  0  0  0  0
   10.2224  -20.3265   19.4373 N   0  0  0  0  0  0  0  0  0  0  0  0
   10.6368  -18.9320   19.4629 C   0  0  0  0  0  0  0  0  0  0  0  0
   11.0669  -18.4202   20.7599 C   0  0  0  0  0  0  0  0  0  0  0  0
   11.4559  -17.0529   21.0254 C   0  0  0  0  0  0  0  0  0  0  0  0
   10.6951  -16.0907   21.8317 C   0  0  2  0  0  0  0  0  0  0  0  0
   10.2206  -14.9722   21.0012 N   0  0  0  0  0  0  0  0  0  0  0  0
   11.4071  -15.5346   22.9566 C   0  0  0  0  0  0  0  0  0  0  0  0
   11.9958  -14.4604   22.9794 O   0  0  0  0  0  0  0  0  0  0  0  0
   11.4523  -16.2701   24.1670 O   0  0  0  0  0  0  0  0  0  0  0  0
  2  3  1  0
  2  1  1  0
  3  4  2  0
  6  5  1  1
  6  8  1  0
  7  6  1  0
  7  3  1  0
  8  9  2  0
  8 18  1  0
 10 11  1  0
 11 12  2  0
 13 14  1  0
 13 11  1  0
 14 15  1  0
 17 16  1  6
 16 15  1  0
 17 19  1  0
 18 17  1  0
 19 20  2  0
 19 21  1  0
M  END
$$$$
