GAR.pdb
     RDKit          3D

 21 20  0  0  1  0  0  0  0  0999 V2000
    7.8498  -12.2131   18.9865 N   0  0  0  0  0  0  0  0  0  0  0  0
    8.7562  -13.2725   18.6311 C   0  0  0  0  0  0  0  0  0  0  0  0
    8.7419  -14.3935   19.6159 C   0  0  0  0  0  0  0  0  0  0  0  0
    8.2778  -14.1656   20.7473 O   0  0  0  0  0  0  0  0  0  0  0  0
    9.4583  -18.1029   19.6188 C   0  0  0  0  0  0  0  0  0  0  0  0
    9.1068  -16.7754   20.2755 C   0  0  2  0  0  0  0  0  0  0  0  0
    9.2254  -15.6857   19.3258 N   0  0  0  0  0  0  0  0  0  0  0  0
    9.9732  -16.5237   21.4630 C   0  0  0  0  0  0  0  0  0  0  0  0
   11.1180  -15.9935   21.2902 O   0  0  0  0  0  0  0  0  0  0  0  0
    5.1640  -13.4977   26.5227 N   0  0  0  0  0  0  0  0  0  0  0  0
    6.2631  -12.5979   26.4815 C   0  0  0  0  0  0  0  0  0  0  0  0
    6.0376  -11.3412   26.7744 N   0  0  0  0  0  0  0  0  0  0  0  0
    7.5713  -13.0337   26.1349 N   0  0  0  0  0  0  0  0  0  0  0  0
    7.7615  -14.4121   25.7096 C   0  0  0  0  0  0  0  0  0  0  0  0
    9.1397  -14.8111   25.4435 C   0  0  0  0  0  0  0  0  0  0  0  0
    9.5641  -16.1487   25.0946 C   0  0  0  0  0  0  0  0  0  0  0  0
   10.4171  -16.5027   23.9537 C   0  0  2  0  0  0  0  0  0  0  0  0
    9.6018  -16.8382   22.7753 N   0  0  0  0  0  0  0  0  0  0  0  0
   11.3290  -17.5965   24.1857 C   0  0  0  0  0  0  0  0  0  0  0  0
   12.4410  -17.5145   24.6934 O   0  0  0  0  0  0  0  0  0  0  0  0
   10.9377  -18.9040   23.8043 O   0  0  0  0  0  0  0  0  0  0  0  0
  2  3  1  0
  2  1  1  0
  3  4  2  0
  6  5  1  6
  6  8  1  0
  7  6  1  0
  7  3  1  0
  8  9  2  0
  8 18  1  0
 10 11  1  0
 11 12  2  0
 13 14  1  0
 13 11  1  0
 14 15  1  0
 17 16  1  1
 16 15  1  0
 17 19  1  0
 18 17  1  0
 19 20  2  0
 19 21  1  0
M  END
$$$$
