GAR.pdb
     RDKit          3D

 21 20  0  0  1  0  0  0  0  0999 V2000
    8.9100  -20.5442   17.4562 N   0  0  0  0  0  0  0  0  0  0  0  0
    9.8351  -21.1482   18.3778 C   0  0  0  0  0  0  0  0  0  0  0  0
    9.6303  -20.6851   19.7816 C   0  0  0  0  0  0  0  0  0  0  0  0
    8.8939  -19.6996   19.9655 O   0  0  0  0  0  0  0  0  0  0  0  0
   10.5408  -21.7687   23.2787 C   0  0  0  0  0  0  0  0  0  0  0  0
   10.1159  -20.7491   22.2313 C   0  0  2  0  0  0  0  0  0  0  0  0
   10.2270  -21.3070   20.8973 N   0  0  0  0  0  0  0  0  0  0  0  0
   10.9292  -19.5037   22.3409 C   0  0  0  0  0  0  0  0  0  0  0  0
   12.0663  -19.4572   21.7697 O   0  0  0  0  0  0  0  0  0  0  0  0
    7.1323  -12.3629   20.6829 N   0  0  0  0  0  0  0  0  0  0  0  0
    7.6512  -13.2054   19.6629 C   0  0  0  0  0  0  0  0  0  0  0  0
    7.3008  -12.9567   18.4254 N   0  0  0  0  0  0  0  0  0  0  0  0
    8.5238  -14.2875   19.9613 N   0  0  0  0  0  0  0  0  0  0  0  0
    8.9854  -14.4589   21.3305 C   0  0  0  0  0  0  0  0  0  0  0  0
    9.8344  -15.6204   21.5746 C   0  0  0  0  0  0  0  0  0  0  0  0
   10.4381  -15.9551   22.8453 C   0  0  0  0  0  0  0  0  0  0  0  0
   11.2948  -17.1190   23.1026 C   0  0  2  0  0  0  0  0  0  0  0  0
   10.5151  -18.3657   23.0427 N   0  0  0  0  0  0  0  0  0  0  0  0
   11.9968  -17.0972   24.3629 C   0  0  0  0  0  0  0  0  0  0  0  0
   11.6761  -17.7022   25.3789 O   0  0  0  0  0  0  0  0  0  0  0  0
   13.1724  -16.3141   24.4759 O   0  0  0  0  0  0  0  0  0  0  0  0
  2  3  1  0
  2  1  1  0
  3  4  2  0
  6  5  1  1
  6  8  1  0
  7  6  1  0
  7  3  1  0
  8  9  2  0
  8 18  1  0
 10 11  1  0
 11 12  2  0
 13 14  1  0
 13 11  1  0
 14 15  1  0
 17 16  1  1
 16 15  1  0
 17 19  1  0
 18 17  1  0
 19 20  2  0
 19 21  1  0
M  END
$$$$
