GAR.pdb
     RDKit          3D

 21 20  0  0  1  0  0  0  0  0999 V2000
    6.0850  -18.5938   18.7285 N   0  0  0  0  0  0  0  0  0  0  0  0
    6.1224  -18.0704   20.0682 C   0  0  0  0  0  0  0  0  0  0  0  0
    7.1235  -16.9753   20.2279 C   0  0  0  0  0  0  0  0  0  0  0  0
    7.8876  -16.7444   19.2738 O   0  0  0  0  0  0  0  0  0  0  0  0
    7.9321  -14.2660   22.7295 C   0  0  0  0  0  0  0  0  0  0  0  0
    8.2175  -15.1313   21.5102 C   0  0  2  0  0  0  0  0  0  0  0  0
    7.2417  -16.1984   21.3984 N   0  0  0  0  0  0  0  0  0  0  0  0
    9.5969  -15.6954   21.5695 C   0  0  0  0  0  0  0  0  0  0  0  0
    9.7607  -16.8800   22.0069 O   0  0  0  0  0  0  0  0  0  0  0  0
   16.5227  -12.9733   16.5752 N   0  0  0  0  0  0  0  0  0  0  0  0
   16.9315  -14.2386   17.0766 C   0  0  0  0  0  0  0  0  0  0  0  0
   18.0954  -14.7024   16.6942 N   0  0  0  0  0  0  0  0  0  0  0  0
   16.1136  -14.9883   17.9656 N   0  0  0  0  0  0  0  0  0  0  0  0
   14.8512  -14.4160   18.4082 C   0  0  0  0  0  0  0  0  0  0  0  0
   14.0747  -15.2305   19.3372 C   0  0  0  0  0  0  0  0  0  0  0  0
   12.7795  -14.8732   19.8720 C   0  0  0  0  0  0  0  0  0  0  0  0
   12.0284  -15.6408   20.8726 C   0  0  2  0  0  0  0  0  0  0  0  0
   10.7400  -14.9941   21.1687 N   0  0  0  0  0  0  0  0  0  0  0  0
   12.7140  -15.8530   22.1242 C   0  0  0  0  0  0  0  0  0  0  0  0
   13.7428  -16.4988   22.2837 O   0  0  0  0  0  0  0  0  0  0  0  0
   12.1780  -15.2762   23.3024 O   0  0  0  0  0  0  0  0  0  0  0  0
  2  3  1  0
  2  1  1  0
  3  4  2  0
  6  5  1  1
  6  8  1  0
  7  6  1  0
  7  3  1  0
  8  9  2  0
  8 18  1  0
 10 11  1  0
 11 12  2  0
 13 14  1  0
 13 11  1  0
 14 15  1  0
 17 16  1  6
 16 15  1  0
 17 19  1  0
 18 17  1  0
 19 20  2  0
 19 21  1  0
M  END
$$$$
