GAR.pdb
     RDKit          3D

 21 20  0  0  1  0  0  0  0  0999 V2000
    7.2764  -12.3792   18.5065 N   0  0  0  0  0  0  0  0  0  0  0  0
    8.5361  -13.0594   18.6503 C   0  0  0  0  0  0  0  0  0  0  0  0
    8.4636  -14.2043   19.6046 C   0  0  0  0  0  0  0  0  0  0  0  0
    7.8060  -14.0479   20.6490 O   0  0  0  0  0  0  0  0  0  0  0  0
    9.5222  -17.8285   19.7107 C   0  0  0  0  0  0  0  0  0  0  0  0
    8.9849  -16.5408   20.3191 C   0  0  2  0  0  0  0  0  0  0  0  0
    9.0995  -15.4422   19.3792 N   0  0  0  0  0  0  0  0  0  0  0  0
    9.6984  -16.2136   21.5872 C   0  0  0  0  0  0  0  0  0  0  0  0
   10.8072  -15.5902   21.5280 O   0  0  0  0  0  0  0  0  0  0  0  0
    6.5204  -12.8888   27.4866 N   0  0  0  0  0  0  0  0  0  0  0  0
    6.4668  -12.2454   26.2206 C   0  0  0  0  0  0  0  0  0  0  0  0
    6.5096  -10.9364   26.1961 N   0  0  0  0  0  0  0  0  0  0  0  0
    6.3697  -12.9862   25.0109 N   0  0  0  0  0  0  0  0  0  0  0  0
    6.8332  -14.3653   24.9941 C   0  0  0  0  0  0  0  0  0  0  0  0
    8.2591  -14.5599   25.2353 C   0  0  0  0  0  0  0  0  0  0  0  0
    8.9502  -15.8273   25.1500 C   0  0  0  0  0  0  0  0  0  0  0  0
    9.9123  -16.2061   24.1081 C   0  0  2  0  0  0  0  0  0  0  0  0
    9.2190  -16.5537   22.8574 N   0  0  0  0  0  0  0  0  0  0  0  0
   10.7852  -17.3032   24.4489 C   0  0  0  0  0  0  0  0  0  0  0  0
   10.7020  -18.4503   24.0268 O   0  0  0  0  0  0  0  0  0  0  0  0
   11.8511  -17.0718   25.3536 O   0  0  0  0  0  0  0  0  0  0  0  0
  2  3  1  0
  2  1  1  0
  3  4  2  0
  6  5  1  6
  6  8  1  0
  7  6  1  0
  7  3  1  0
  8  9  2  0
  8 18  1  0
 10 11  1  0
 11 12  2  0
 13 14  1  0
 13 11  1  0
 14 15  1  0
 17 16  1  1
 16 15  1  0
 17 19  1  0
 18 17  1  0
 19 20  2  0
 19 21  1  0
M  END
$$$$
