GAR.pdb
     RDKit          3D

 21 20  0  0  1  0  0  0  0  0999 V2000
    9.8187  -19.6905   17.5299 N   0  0  0  0  0  0  0  0  0  0  0  0
   10.5281  -20.5547   18.4355 C   0  0  0  0  0  0  0  0  0  0  0  0
   10.3841  -20.1341   19.8601 C   0  0  0  0  0  0  0  0  0  0  0  0
    9.6171  -19.1873   20.1105 O   0  0  0  0  0  0  0  0  0  0  0  0
   11.3973  -21.4485   23.2465 C   0  0  0  0  0  0  0  0  0  0  0  0
   10.8075  -20.4060   22.3071 C   0  0  2  0  0  0  0  0  0  0  0  0
   11.0704  -20.7543   20.9240 N   0  0  0  0  0  0  0  0  0  0  0  0
   11.3482  -19.0498   22.6112 C   0  0  0  0  0  0  0  0  0  0  0  0
   12.4814  -18.7165   22.1355 O   0  0  0  0  0  0  0  0  0  0  0  0
    6.7235  -13.0204   20.1816 N   0  0  0  0  0  0  0  0  0  0  0  0
    7.7443  -13.5526   19.3484 C   0  0  0  0  0  0  0  0  0  0  0  0
    7.6800  -13.3022   18.0642 N   0  0  0  0  0  0  0  0  0  0  0  0
    8.8077  -14.3338   19.8781 N   0  0  0  0  0  0  0  0  0  0  0  0
    8.8557  -14.5719   21.3127 C   0  0  0  0  0  0  0  0  0  0  0  0
    9.9595  -15.4026   21.7828 C   0  0  0  0  0  0  0  0  0  0  0  0
   10.2121  -15.7429   23.1654 C   0  0  0  0  0  0  0  0  0  0  0  0
   11.1792  -16.7424   23.6350 C   0  0  2  0  0  0  0  0  0  0  0  0
   10.6785  -18.1059   23.3984 N   0  0  0  0  0  0  0  0  0  0  0  0
   11.5396  -16.6398   25.0283 C   0  0  0  0  0  0  0  0  0  0  0  0
   11.1230  -17.3490   25.9363 O   0  0  0  0  0  0  0  0  0  0  0  0
   12.4596  -15.6369   25.4232 O   0  0  0  0  0  0  0  0  0  0  0  0
  2  3  1  0
  2  1  1  0
  3  4  2  0
  6  5  1  1
  6  8  1  0
  7  6  1  0
  7  3  1  0
  8  9  2  0
  8 18  1  0
 10 11  1  0
 11 12  2  0
 13 14  1  0
 13 11  1  0
 14 15  1  0
 17 16  1  1
 16 15  1  0
 17 19  1  0
 18 17  1  0
 19 20  2  0
 19 21  1  0
M  END
$$$$
