GAR.pdb
     RDKit          3D

 21 20  0  0  1  0  0  0  0  0999 V2000
    7.2431  -17.8872   18.0746 N   0  0  0  0  0  0  0  0  0  0  0  0
    6.5807  -16.7369   18.6298 C   0  0  0  0  0  0  0  0  0  0  0  0
    7.3963  -16.0563   19.6779 C   0  0  0  0  0  0  0  0  0  0  0  0
    8.3022  -16.7111   20.2239 O   0  0  0  0  0  0  0  0  0  0  0  0
    7.7257  -12.5930   21.1574 C   0  0  0  0  0  0  0  0  0  0  0  0
    8.0173  -14.0851   21.0815 C   0  0  2  0  0  0  0  0  0  0  0  0
    7.1892  -14.7191   20.0736 N   0  0  0  0  0  0  0  0  0  0  0  0
    7.8086  -14.7358   22.4071 C   0  0  0  0  0  0  0  0  0  0  0  0
    6.6281  -14.8108   22.8785 O   0  0  0  0  0  0  0  0  0  0  0  0
    6.6871  -21.5507   23.3496 N   0  0  0  0  0  0  0  0  0  0  0  0
    5.5807  -20.6792   23.1607 C   0  0  0  0  0  0  0  0  0  0  0  0
    4.6155  -21.0767   22.3693 N   0  0  0  0  0  0  0  0  0  0  0  0
    5.5102  -19.4131   23.8039 N   0  0  0  0  0  0  0  0  0  0  0  0
    6.5221  -18.4136   23.4974 C   0  0  0  0  0  0  0  0  0  0  0  0
    7.6459  -18.3412   24.4254 C   0  0  0  0  0  0  0  0  0  0  0  0
    8.7417  -17.4023   24.3307 C   0  0  0  0  0  0  0  0  0  0  0  0
    8.6313  -15.9453   24.4713 C   0  0  2  0  0  0  0  0  0  0  0  0
    8.8441  -15.2774   23.1773 N   0  0  0  0  0  0  0  0  0  0  0  0
    9.5328  -15.3514   25.4285 C   0  0  0  0  0  0  0  0  0  0  0  0
   10.6283  -14.8617   25.1815 O   0  0  0  0  0  0  0  0  0  0  0  0
    9.1508  -15.3117   26.7925 O   0  0  0  0  0  0  0  0  0  0  0  0
  2  3  1  0
  2  1  1  0
  3  4  2  0
  6  5  1  1
  6  8  1  0
  7  6  1  0
  7  3  1  0
  8  9  2  0
  8 18  1  0
 10 11  1  0
 11 12  2  0
 13 14  1  0
 13 11  1  0
 14 15  1  0
 17 16  1  6
 16 15  1  0
 17 19  1  0
 18 17  1  0
 19 20  2  0
 19 21  1  0
M  END
$$$$
