GAR.pdb
     RDKit          3D

 21 20  0  0  1  0  0  0  0  0999 V2000
   11.8288  -16.8090   16.3652 N   0  0  0  0  0  0  0  0  0  0  0  0
   12.8292  -17.1232   17.3504 C   0  0  0  0  0  0  0  0  0  0  0  0
   12.2405  -17.6422   18.6197 C   0  0  0  0  0  0  0  0  0  0  0  0
   11.0650  -17.3319   18.8831 O   0  0  0  0  0  0  0  0  0  0  0  0
   13.2000  -19.9948   21.4120 C   0  0  0  0  0  0  0  0  0  0  0  0
   12.3645  -18.8902   20.7803 C   0  0  2  0  0  0  0  0  0  0  0  0
   12.9482  -18.4596   19.5244 N   0  0  0  0  0  0  0  0  0  0  0  0
   12.2238  -17.7323   21.7097 C   0  0  0  0  0  0  0  0  0  0  0  0
   13.1692  -16.8825   21.7840 O   0  0  0  0  0  0  0  0  0  0  0  0
    9.1860  -12.7903   19.5212 N   0  0  0  0  0  0  0  0  0  0  0  0
    7.9538  -13.4399   19.2396 C   0  0  0  0  0  0  0  0  0  0  0  0
    7.1671  -12.8995   18.3424 N   0  0  0  0  0  0  0  0  0  0  0  0
    7.5741  -14.6389   19.9028 N   0  0  0  0  0  0  0  0  0  0  0  0
    7.8660  -14.7782   21.3214 C   0  0  0  0  0  0  0  0  0  0  0  0
    9.1659  -15.3544   21.6495 C   0  0  0  0  0  0  0  0  0  0  0  0
    9.6261  -15.6575   22.9865 C   0  0  0  0  0  0  0  0  0  0  0  0
   10.9003  -16.3032   23.3243 C   0  0  2  0  0  0  0  0  0  0  0  0
   11.1012  -17.5176   22.5176 N   0  0  0  0  0  0  0  0  0  0  0  0
   11.0559  -16.6643   24.7125 C   0  0  0  0  0  0  0  0  0  0  0  0
   10.9416  -17.7896   25.1833 O   0  0  0  0  0  0  0  0  0  0  0  0
   11.3709  -15.6499   25.6504 O   0  0  0  0  0  0  0  0  0  0  0  0
  2  3  1  0
  2  1  1  0
  3  4  2  0
  6  5  1  1
  6  8  1  0
  7  6  1  0
  7  3  1  0
  8  9  2  0
  8 18  1  0
 10 11  1  0
 11 12  2  0
 13 14  1  0
 13 11  1  0
 14 15  1  0
 17 16  1  1
 16 15  1  0
 17 19  1  0
 18 17  1  0
 19 20  2  0
 19 21  1  0
M  END
$$$$
