PVY.pdb
     RDKit          3D

 27 28  0  0  1  0  0  0  0  0999 V2000
    7.2245  -18.8110   21.0903 N   0  0  0  0  0  0  0  0  0  0  0  0
    6.3203  -19.8843   20.7099 C   0  0  0  0  0  0  0  0  0  0  0  0
    5.4263  -19.2382   19.6651 C   0  0  0  0  0  0  0  0  0  0  0  0
    6.1758  -17.9876   19.2201 C   0  0  0  0  0  0  0  0  0  0  0  0
    7.5332  -18.2173   19.8168 C   0  0  1  0  0  0  0  0  0  0  0  0
    8.3242  -17.0061   20.0085 C   0  0  0  0  0  0  0  0  0  0  0  0
    9.4530  -16.8030   19.4885 O   0  0  0  0  0  0  0  0  0  0  0  0
    7.3733  -13.6648   19.0065 C   0  0  0  0  0  0  0  0  0  0  0  0
    7.6985  -13.5811   20.4633 C   0  0  2  0  0  0  0  0  0  0  0  0
    8.3003  -12.2109   20.7098 C   0  0  0  0  0  0  0  0  0  0  0  0
    8.5429  -14.6886   20.9959 C   0  0  2  0  0  0  0  0  0  0  0  0
    7.8184  -15.9691   20.8283 N   0  0  0  0  0  0  0  0  0  0  0  0
    8.9541  -14.5806   22.4012 C   0  0  0  0  0  0  0  0  0  0  0  0
    8.4572  -13.6737   23.1100 O   0  0  0  0  0  0  0  0  0  0  0  0
    5.7056  -11.5659   27.0150 O   0  0  0  0  0  0  0  0  0  0  0  0
    6.3822  -12.6634   26.4998 C   0  0  0  0  0  0  0  0  0  0  0  0
    7.6662  -12.5047   26.0183 C   0  0  0  0  0  0  0  0  0  0  0  0
    8.3405  -13.5869   25.5076 C   0  0  0  0  0  0  0  0  0  0  0  0
    7.7405  -14.8452   25.4707 C   0  0  0  0  0  0  0  0  0  0  0  0
    8.5085  -15.9560   24.9053 C   0  0  0  0  0  0  0  0  0  0  0  0
    9.9047  -15.5466   24.4544 C   0  0  2  0  0  0  0  0  0  0  0  0
    9.8803  -15.4600   22.9806 N   0  0  0  0  0  0  0  0  0  0  0  0
   10.8700  -16.5889   24.8257 C   0  0  0  0  0  0  0  0  0  0  0  0
   11.3902  -16.6347   26.1012 O   0  0  0  0  0  0  0  0  0  0  0  0
    6.4556  -14.9912   25.9552 C   0  0  0  0  0  0  0  0  0  0  0  0
    5.7913  -13.9042   26.4631 C   0  0  0  0  0  0  0  0  0  0  0  0
   11.2572  -17.4672   24.0137 O   0  0  0  0  0  0  0  0  0  0  0  0
  1  2  1  0
  2  3  1  0
  4  3  1  0
  5  1  1  0
  5  4  1  0
  5  6  1  1
  7  6  2  0
  9 11  1  0
  9  8  1  6
 10  9  1  0
 11 12  1  1
 12  6  1  0
 13 11  1  0
 14 13  2  0
 16 15  1  0
 17 16  2  0
 18 17  1  0
 19 25  1  0
 19 18  2  0
 21 20  1  6
 20 19  1  0
 21 23  1  0
 21 22  1  0
 22 13  1  0
 23 24  1  0
 25 26  2  0
 26 16  1  0
 27 23  2  0
M  END
$$$$
