PVY.pdb
     RDKit          3D

 27 28  0  0  1  0  0  0  0  0999 V2000
    8.2916  -14.8849   17.9125 N   0  0  0  0  0  0  0  0  0  0  0  0
    8.5930  -14.1606   16.6883 C   0  0  0  0  0  0  0  0  0  0  0  0
    7.8547  -12.8447   16.8666 C   0  0  0  0  0  0  0  0  0  0  0  0
    7.5603  -12.7540   18.3595 C   0  0  0  0  0  0  0  0  0  0  0  0
    8.4214  -13.8539   18.9074 C   0  0  1  0  0  0  0  0  0  0  0  0
    8.0021  -14.3605   20.2100 C   0  0  0  0  0  0  0  0  0  0  0  0
    8.0177  -13.6879   21.2745 O   0  0  0  0  0  0  0  0  0  0  0  0
    5.4872  -18.1101   22.3984 C   0  0  0  0  0  0  0  0  0  0  0  0
    6.3130  -17.5381   21.2912 C   0  0  2  0  0  0  0  0  0  0  0  0
    7.3582  -18.5761   20.9297 C   0  0  0  0  0  0  0  0  0  0  0  0
    6.9004  -16.1940   21.5586 C   0  0  2  0  0  0  0  0  0  0  0  0
    7.5410  -15.6941   20.3206 N   0  0  0  0  0  0  0  0  0  0  0  0
    7.8864  -16.1144   22.6436 C   0  0  0  0  0  0  0  0  0  0  0  0
    9.1059  -16.1798   22.3601 O   0  0  0  0  0  0  0  0  0  0  0  0
   11.4770  -14.5863   30.5169 O   0  0  0  0  0  0  0  0  0  0  0  0
   10.6107  -14.6658   29.4347 C   0  0  0  0  0  0  0  0  0  0  0  0
    9.9409  -15.8472   29.1867 C   0  0  0  0  0  0  0  0  0  0  0  0
    9.0826  -15.9318   28.1178 C   0  0  0  0  0  0  0  0  0  0  0  0
    8.8808  -14.8354   27.2800 C   0  0  0  0  0  0  0  0  0  0  0  0
    7.9604  -14.9928   26.1523 C   0  0  0  0  0  0  0  0  0  0  0  0
    8.5875  -15.7169   24.9679 C   0  0  2  0  0  0  0  0  0  0  0  0
    7.5121  -15.9627   23.9866 N   0  0  0  0  0  0  0  0  0  0  0  0
    9.1039  -17.0210   25.4023 C   0  0  0  0  0  0  0  0  0  0  0  0
    8.2667  -18.1136   25.4739 O   0  0  0  0  0  0  0  0  0  0  0  0
    9.5567  -13.6592   27.5383 C   0  0  0  0  0  0  0  0  0  0  0  0
   10.4114  -13.5854   28.6083 C   0  0  0  0  0  0  0  0  0  0  0  0
   10.3073  -17.1954   25.7217 O   0  0  0  0  0  0  0  0  0  0  0  0
  1  2  1  0
  2  3  1  0
  4  3  1  0
  5  1  1  0
  5  4  1  0
  5  6  1  1
  7  6  2  0
  9 11  1  0
  9  8  1  1
 10  9  1  0
 11 12  1  6
 12  6  1  0
 13 11  1  0
 14 13  2  0
 16 15  1  0
 17 16  2  0
 18 17  1  0
 19 25  1  0
 19 18  2  0
 21 20  1  1
 20 19  1  0
 21 23  1  0
 21 22  1  0
 22 13  1  0
 23 24  1  0
 25 26  2  0
 26 16  1  0
 27 23  2  0
M  END
$$$$
