PVY.pdb
     RDKit          3D

 27 28  0  0  1  0  0  0  0  0999 V2000
    8.9624  -14.3181   19.8022 N   0  0  0  0  0  0  0  0  0  0  0  0
    8.9123  -13.2585   18.8077 C   0  0  0  0  0  0  0  0  0  0  0  0
    7.4492  -12.8492   18.8026 C   0  0  0  0  0  0  0  0  0  0  0  0
    6.8777  -13.4022   20.1030 C   0  0  0  0  0  0  0  0  0  0  0  0
    8.1242  -13.7876   20.8441 C   0  0  1  0  0  0  0  0  0  0  0  0
    7.9251  -14.7907   21.8850 C   0  0  0  0  0  0  0  0  0  0  0  0
    7.0331  -14.7296   22.7717 O   0  0  0  0  0  0  0  0  0  0  0  0
   10.6061  -18.2155   22.0347 C   0  0  0  0  0  0  0  0  0  0  0  0
    9.1661  -18.2551   22.4343 C   0  0  2  0  0  0  0  0  0  0  0  0
    8.3870  -18.7922   21.2489 C   0  0  0  0  0  0  0  0  0  0  0  0
    8.6114  -16.9745   22.9593 C   0  0  2  0  0  0  0  0  0  0  0  0
    8.7744  -15.9221   21.9304 N   0  0  0  0  0  0  0  0  0  0  0  0
    9.1893  -16.4761   24.2136 C   0  0  0  0  0  0  0  0  0  0  0  0
   10.1984  -15.7337   24.1629 O   0  0  0  0  0  0  0  0  0  0  0  0
    6.2466  -10.8637   25.7943 O   0  0  0  0  0  0  0  0  0  0  0  0
    6.7953  -12.0564   26.2463 C   0  0  0  0  0  0  0  0  0  0  0  0
    6.0208  -13.1991   26.2568 C   0  0  0  0  0  0  0  0  0  0  0  0
    6.5582  -14.3818   26.7028 C   0  0  0  0  0  0  0  0  0  0  0  0
    7.8793  -14.4398   27.1454 C   0  0  0  0  0  0  0  0  0  0  0  0
    8.3897  -15.7284   27.6173 C   0  0  0  0  0  0  0  0  0  0  0  0
    9.3963  -16.3566   26.6621 C   0  0  2  0  0  0  0  0  0  0  0  0
    8.6491  -16.7973   25.4673 N   0  0  0  0  0  0  0  0  0  0  0  0
    9.9909  -17.5472   27.2826 C   0  0  0  0  0  0  0  0  0  0  0  0
   10.8804  -17.4180   28.3276 O   0  0  0  0  0  0  0  0  0  0  0  0
    8.6440  -13.2901   27.1303 C   0  0  0  0  0  0  0  0  0  0  0  0
    8.0976  -12.1143   26.6829 C   0  0  0  0  0  0  0  0  0  0  0  0
    9.7211  -18.7128   26.8964 O   0  0  0  0  0  0  0  0  0  0  0  0
  1  2  1  0
  2  3  1  0
  4  3  1  0
  5  1  1  0
  5  4  1  0
  5  6  1  1
  7  6  2  0
  9 11  1  0
  9  8  1  6
 10  9  1  0
 11 12  1  6
 12  6  1  0
 13 11  1  0
 14 13  2  0
 16 15  1  0
 17 16  2  0
 18 17  1  0
 19 25  1  0
 19 18  2  0
 21 20  1  1
 20 19  1  0
 21 23  1  0
 21 22  1  0
 22 13  1  0
 23 24  1  0
 25 26  2  0
 26 16  1  0
 27 23  2  0
M  END
$$$$
