PVY.pdb
     RDKit          3D

 27 28  0  0  1  0  0  0  0  0999 V2000
    6.2419  -18.8281   21.8374 N   0  0  0  0  0  0  0  0  0  0  0  0
    4.9976  -19.5670   21.9783 C   0  0  0  0  0  0  0  0  0  0  0  0
    3.9321  -18.5149   21.7212 C   0  0  0  0  0  0  0  0  0  0  0  0
    4.6622  -17.3727   21.0240 C   0  0  0  0  0  0  0  0  0  0  0  0
    5.9748  -18.0140   20.6818 C   0  0  1  0  0  0  0  0  0  0  0  0
    7.0709  -17.0748   20.4678 C   0  0  0  0  0  0  0  0  0  0  0  0
    8.0560  -17.2898   19.7133 O   0  0  0  0  0  0  0  0  0  0  0  0
    7.4639  -12.4444   21.1690 C   0  0  0  0  0  0  0  0  0  0  0  0
    7.6736  -13.6438   20.3016 C   0  0  2  0  0  0  0  0  0  0  0  0
    6.3783  -13.8850   19.5502 C   0  0  0  0  0  0  0  0  0  0  0  0
    8.1719  -14.8620   21.0022 C   0  0  2  0  0  0  0  0  0  0  0  0
    7.0579  -15.8282   21.1380 N   0  0  0  0  0  0  0  0  0  0  0  0
    8.7601  -14.6580   22.3318 C   0  0  0  0  0  0  0  0  0  0  0  0
    8.2806  -13.7710   23.0770 O   0  0  0  0  0  0  0  0  0  0  0  0
   10.4236  -15.1547   30.5518 O   0  0  0  0  0  0  0  0  0  0  0  0
   10.1009  -15.2688   29.2061 C   0  0  0  0  0  0  0  0  0  0  0  0
    9.9608  -14.1275   28.4424 C   0  0  0  0  0  0  0  0  0  0  0  0
    9.6418  -14.2342   27.1107 C   0  0  0  0  0  0  0  0  0  0  0  0
    9.4578  -15.4850   26.5221 C   0  0  0  0  0  0  0  0  0  0  0  0
    9.1098  -15.5307   25.1008 C   0  0  0  0  0  0  0  0  0  0  0  0
   10.2823  -15.1929   24.1890 C   0  0  2  0  0  0  0  0  0  0  0  0
    9.8371  -15.4244   22.8003 N   0  0  0  0  0  0  0  0  0  0  0  0
   11.3989  -16.1073   24.4594 C   0  0  0  0  0  0  0  0  0  0  0  0
   11.6900  -17.1304   23.5829 O   0  0  0  0  0  0  0  0  0  0  0  0
    9.6004  -16.6193   27.2966 C   0  0  0  0  0  0  0  0  0  0  0  0
    9.9193  -16.5016   28.6253 C   0  0  0  0  0  0  0  0  0  0  0  0
   12.1236  -16.0003   25.4811 O   0  0  0  0  0  0  0  0  0  0  0  0
  1  2  1  0
  2  3  1  0
  4  3  1  0
  5  1  1  0
  5  4  1  0
  5  6  1  1
  7  6  2  0
  9 11  1  0
  9  8  1  1
 10  9  1  0
 11 12  1  1
 12  6  1  0
 13 11  1  0
 14 13  2  0
 16 15  1  0
 17 16  2  0
 18 17  1  0
 19 25  1  0
 19 18  2  0
 21 20  1  1
 20 19  1  0
 21 23  1  0
 21 22  1  0
 22 13  1  0
 23 24  1  0
 25 26  2  0
 26 16  1  0
 27 23  2  0
M  END
$$$$
