PVY.pdb
     RDKit          3D

 27 28  0  0  1  0  0  0  0  0999 V2000
    8.6115  -14.6908   19.4266 N   0  0  0  0  0  0  0  0  0  0  0  0
    8.9372  -13.7069   18.4068 C   0  0  0  0  0  0  0  0  0  0  0  0
    7.7711  -12.7350   18.4699 C   0  0  0  0  0  0  0  0  0  0  0  0
    7.1047  -13.0014   19.8147 C   0  0  0  0  0  0  0  0  0  0  0  0
    8.1284  -13.8603   20.4973 C   0  0  1  0  0  0  0  0  0  0  0  0
    7.6016  -14.6906   21.5754 C   0  0  0  0  0  0  0  0  0  0  0  0
    6.9524  -14.2509   22.5608 O   0  0  0  0  0  0  0  0  0  0  0  0
    6.2315  -18.4829   20.7524 C   0  0  0  0  0  0  0  0  0  0  0  0
    7.1018  -18.3616   21.9619 C   0  0  2  0  0  0  0  0  0  0  0  0
    6.6215  -19.3932   22.9647 C   0  0  0  0  0  0  0  0  0  0  0  0
    7.2034  -16.9924   22.5435 C   0  0  2  0  0  0  0  0  0  0  0  0
    7.8167  -16.0892   21.5430 N   0  0  0  0  0  0  0  0  0  0  0  0
    7.9626  -16.8668   23.7938 C   0  0  0  0  0  0  0  0  0  0  0  0
    9.2142  -16.8153   23.7402 O   0  0  0  0  0  0  0  0  0  0  0  0
    6.7795  -10.4380   25.9173 O   0  0  0  0  0  0  0  0  0  0  0  0
    6.9623  -11.7734   26.2510 C   0  0  0  0  0  0  0  0  0  0  0  0
    5.8713  -12.6182   26.2927 C   0  0  0  0  0  0  0  0  0  0  0  0
    6.0460  -13.9402   26.6220 C   0  0  0  0  0  0  0  0  0  0  0  0
    7.3154  -14.4378   26.9148 C   0  0  0  0  0  0  0  0  0  0  0  0
    7.4335  -15.8537   27.2678 C   0  0  0  0  0  0  0  0  0  0  0  0
    8.2049  -16.6634   26.2335 C   0  0  2  0  0  0  0  0  0  0  0  0
    7.3366  -16.7972   25.0468 N   0  0  0  0  0  0  0  0  0  0  0  0
    8.4634  -18.0121   26.7535 C   0  0  0  0  0  0  0  0  0  0  0  0
    9.5161  -18.2374   27.6142 O   0  0  0  0  0  0  0  0  0  0  0  0
    8.3989  -13.5828   26.8699 C   0  0  0  0  0  0  0  0  0  0  0  0
    8.2134  -12.2646   26.5398 C   0  0  0  0  0  0  0  0  0  0  0  0
    7.7514  -19.0006   26.4431 O   0  0  0  0  0  0  0  0  0  0  0  0
  1  2  1  0
  2  3  1  0
  4  3  1  0
  5  1  1  0
  5  4  1  0
  5  6  1  1
  7  6  2  0
  9 11  1  0
  9  8  1  6
 10  9  1  0
 11 12  1  6
 12  6  1  0
 13 11  1  0
 14 13  2  0
 16 15  1  0
 17 16  2  0
 18 17  1  0
 19 25  1  0
 19 18  2  0
 21 20  1  1
 20 19  1  0
 21 23  1  0
 21 22  1  0
 22 13  1  0
 23 24  1  0
 25 26  2  0
 26 16  1  0
 27 23  2  0
M  END
$$$$
