HKH.pdb
     RDKit          3D

 30 31  0  0  1  0  0  0  0  0999 V2000
    8.8069  -17.3180   16.8400 N   0  0  0  0  0  0  0  0  0  0  0  0
    9.5911  -16.8031   17.9097 C   0  0  1  0  0  0  0  0  0  0  0  0
    9.6840  -15.3013   17.9177 C   0  0  0  0  0  0  0  0  0  0  0  0
    8.9474  -14.7078   16.8053 C   0  0  0  0  0  0  0  0  0  0  0  0
    8.0624  -13.6369   16.9845 C   0  0  0  0  0  0  0  0  0  0  0  0
    7.5782  -13.3605   15.7714 N   0  0  0  0  0  0  0  0  0  0  0  0
    8.1173  -14.1997   14.8700 C   0  0  0  0  0  0  0  0  0  0  0  0
    8.9605  -15.0301   15.5040 N   0  0  0  0  0  0  0  0  0  0  0  0
    9.3101  -17.3206   19.2462 C   0  0  0  0  0  0  0  0  0  0  0  0
    8.1128  -17.2680   19.6374 O   0  0  0  0  0  0  0  0  0  0  0  0
   10.3548  -17.8470   20.0438 N   0  0  0  0  0  0  0  0  0  0  0  0
   10.1259  -18.5410   21.2515 C   0  0  1  0  0  0  0  0  0  0  0  0
   10.7645  -19.8656   21.4249 C   0  0  0  0  0  0  0  0  0  0  0  0
   10.0131  -21.0610   20.9666 C   0  0  0  0  0  0  0  0  0  0  0  0
   10.6759  -22.3805   21.1278 C   0  0  0  0  0  0  0  0  0  0  0  0
    9.7513  -23.4094   20.4489 C   0  0  0  0  0  0  0  0  0  0  0  0
   10.2809  -24.7338   20.6376 N   0  0  0  0  0  0  0  0  0  0  0  0
   10.4582  -17.6266   22.4120 C   0  0  0  0  0  0  0  0  0  0  0  0
   11.4735  -16.9036   22.3928 O   0  0  0  0  0  0  0  0  0  0  0  0
    9.6344  -17.5516   23.5655 N   0  0  0  0  0  0  0  0  0  0  0  0
    9.9810  -16.6503   24.6653 C   0  0  1  0  0  0  0  0  0  0  0  0
    8.8054  -15.8421   25.1056 C   0  0  0  0  0  0  0  0  0  0  0  0
    8.4378  -14.8795   24.0468 C   0  0  0  0  0  0  0  0  0  0  0  0
    9.0538  -14.6814   22.8266 C   0  0  0  0  0  0  0  0  0  0  0  0
    8.3800  -13.7005   22.1814 N   0  0  0  0  0  0  0  0  0  0  0  0
    7.3735  -13.2865   22.9556 C   0  0  0  0  0  0  0  0  0  0  0  0
    7.4208  -14.0079   24.0795 N   0  0  0  0  0  0  0  0  0  0  0  0
   10.6454  -17.4170   25.7185 C   0  0  0  0  0  0  0  0  0  0  0  0
   11.2064  -16.8673   26.8675 O   0  0  0  0  0  0  0  0  0  0  0  0
   10.7300  -18.6737   25.5998 O   0  0  0  0  0  0  0  0  0  0  0  0
  2  1  1  6
  2  3  1  0
  3  4  1  0
  4  5  2  0
  5  6  1  0
  7  6  1  0
  8  4  1  0
  8  7  2  0
  9 10  2  0
  9  2  1  0
 11  9  1  0
 12 11  1  0
 12 13  1  6
 14 13  1  0
 15 14  1  0
 16 15  1  0
 17 16  1  0
 18 12  1  0
 19 18  2  0
 20 18  1  0
 21 28  1  0
 21 20  1  0
 21 22  1  1
 23 22  1  0
 24 23  2  0
 25 24  1  0
 26 25  1  0
 26 27  2  0
 27 23  1  0
 28 29  1  0
 30 28  2  0
M  END
$$$$
