HKH.pdb
     RDKit          3D

 30 31  0  0  1  0  0  0  0  0999 V2000
   11.7702  -14.1315   18.2106 N   0  0  0  0  0  0  0  0  0  0  0  0
   12.1608  -14.9231   19.3265 C   0  0  1  0  0  0  0  0  0  0  0  0
   13.4311  -14.4526   19.9814 C   0  0  0  0  0  0  0  0  0  0  0  0
   14.5689  -14.5243   19.0690 C   0  0  0  0  0  0  0  0  0  0  0  0
   14.7842  -15.6262   18.2314 C   0  0  0  0  0  0  0  0  0  0  0  0
   15.8983  -15.3504   17.5494 N   0  0  0  0  0  0  0  0  0  0  0  0
   16.3692  -14.1482   17.9244 C   0  0  0  0  0  0  0  0  0  0  0  0
   15.5525  -13.6377   18.8598 N   0  0  0  0  0  0  0  0  0  0  0  0
   11.1333  -15.2185   20.3215 C   0  0  0  0  0  0  0  0  0  0  0  0
   10.4570  -14.2441   20.7487 O   0  0  0  0  0  0  0  0  0  0  0  0
   10.9319  -16.5465   20.7693 N   0  0  0  0  0  0  0  0  0  0  0  0
    9.9458  -16.8981   21.7162 C   0  0  1  0  0  0  0  0  0  0  0  0
    9.3335  -18.2425   21.6170 C   0  0  0  0  0  0  0  0  0  0  0  0
    8.3796  -18.4879   20.5064 C   0  0  0  0  0  0  0  0  0  0  0  0
    8.8751  -19.2774   19.3498 C   0  0  0  0  0  0  0  0  0  0  0  0
    7.6749  -19.4406   18.3975 C   0  0  0  0  0  0  0  0  0  0  0  0
    8.1075  -20.0691   17.1777 N   0  0  0  0  0  0  0  0  0  0  0  0
   10.4947  -16.6572   23.1069 C   0  0  0  0  0  0  0  0  0  0  0  0
   11.6876  -16.8953   23.3792 O   0  0  0  0  0  0  0  0  0  0  0  0
    9.6817  -16.1529   24.1555 N   0  0  0  0  0  0  0  0  0  0  0  0
   10.2358  -15.9661   25.4972 C   0  0  1  0  0  0  0  0  0  0  0  0
    9.4801  -14.9328   26.2656 C   0  0  0  0  0  0  0  0  0  0  0  0
   10.0277  -14.8299   27.6339 C   0  0  0  0  0  0  0  0  0  0  0  0
   11.0860  -15.5287   28.1810 C   0  0  0  0  0  0  0  0  0  0  0  0
   11.2347  -15.1123   29.4605 N   0  0  0  0  0  0  0  0  0  0  0  0
   10.3101  -14.1851   29.7233 C   0  0  0  0  0  0  0  0  0  0  0  0
    9.5880  -14.0248   28.6104 N   0  0  0  0  0  0  0  0  0  0  0  0
   10.3560  -17.2696   26.1489 C   0  0  0  0  0  0  0  0  0  0  0  0
   11.4247  -17.6618   26.9496 O   0  0  0  0  0  0  0  0  0  0  0  0
    9.4343  -18.1213   25.9883 O   0  0  0  0  0  0  0  0  0  0  0  0
  2  1  1  6
  2  3  1  0
  3  4  1  0
  4  5  2  0
  5  6  1  0
  7  6  1  0
  8  4  1  0
  8  7  2  0
  9 10  2  0
  9  2  1  0
 11  9  1  0
 12 11  1  0
 12 13  1  1
 14 13  1  0
 15 14  1  0
 16 15  1  0
 17 16  1  0
 18 12  1  0
 19 18  2  0
 20 18  1  0
 21 28  1  0
 21 20  1  0
 21 22  1  1
 23 22  1  0
 24 23  2  0
 25 24  1  0
 26 25  1  0
 26 27  2  0
 27 23  1  0
 28 29  1  0
 30 28  2  0
M  END
$$$$
