HKH.pdb
     RDKit          3D

 30 31  0  0  1  0  0  0  0  0999 V2000
   11.1404  -15.8220   13.7112 N   0  0  0  0  0  0  0  0  0  0  0  0
   11.9385  -16.7865   14.3875 C   0  0  1  0  0  0  0  0  0  0  0  0
   13.4068  -16.6740   14.0788 C   0  0  0  0  0  0  0  0  0  0  0  0
   13.6713  -16.8123   12.6494 C   0  0  0  0  0  0  0  0  0  0  0  0
   13.8883  -18.0591   12.0489 C   0  0  0  0  0  0  0  0  0  0  0  0
   14.0943  -17.8065   10.7543 N   0  0  0  0  0  0  0  0  0  0  0  0
   14.0149  -16.4822   10.5362 C   0  0  0  0  0  0  0  0  0  0  0  0
   13.7546  -15.8680   11.7014 N   0  0  0  0  0  0  0  0  0  0  0  0
   11.7124  -16.9457   15.8216 C   0  0  0  0  0  0  0  0  0  0  0  0
   11.9746  -15.9531   16.5533 O   0  0  0  0  0  0  0  0  0  0  0  0
   11.2246  -18.1707   16.3373 N   0  0  0  0  0  0  0  0  0  0  0  0
   10.9574  -18.3766   17.7080 C   0  0  1  0  0  0  0  0  0  0  0  0
   10.0544  -19.4889   18.0817 C   0  0  0  0  0  0  0  0  0  0  0  0
    8.6778  -19.4786   17.5263 C   0  0  0  0  0  0  0  0  0  0  0  0
    7.7720  -20.5806   17.9405 C   0  0  0  0  0  0  0  0  0  0  0  0
    6.4440  -20.3459   17.1950 C   0  0  0  0  0  0  0  0  0  0  0  0
    5.4964  -21.3639   17.5634 N   0  0  0  0  0  0  0  0  0  0  0  0
   12.2719  -18.4762   18.4533 C   0  0  0  0  0  0  0  0  0  0  0  0
   13.2648  -19.0268   17.9384 O   0  0  0  0  0  0  0  0  0  0  0  0
   12.4320  -17.9506   19.7621 N   0  0  0  0  0  0  0  0  0  0  0  0
   13.6863  -18.1470   20.4903 C   0  0  1  0  0  0  0  0  0  0  0  0
   14.4358  -16.8658   20.6508 C   0  0  0  0  0  0  0  0  0  0  0  0
   15.7099  -17.1186   21.3548 C   0  0  0  0  0  0  0  0  0  0  0  0
   16.7209  -17.9889   20.9969 C   0  0  0  0  0  0  0  0  0  0  0  0
   17.6951  -17.8925   21.9317 N   0  0  0  0  0  0  0  0  0  0  0  0
   17.3245  -16.9975   22.8512 C   0  0  0  0  0  0  0  0  0  0  0  0
   16.1229  -16.5382   22.4895 N   0  0  0  0  0  0  0  0  0  0  0  0
   13.4091  -18.8715   21.7300 C   0  0  0  0  0  0  0  0  0  0  0  0
   14.3801  -19.4105   22.5690 O   0  0  0  0  0  0  0  0  0  0  0  0
   12.2066  -19.0342   22.0879 O   0  0  0  0  0  0  0  0  0  0  0  0
  2  1  1  1
  2  3  1  0
  3  4  1  0
  4  5  2  0
  5  6  1  0
  7  6  1  0
  8  4  1  0
  8  7  2  0
  9 10  2  0
  9  2  1  0
 11  9  1  0
 12 11  1  0
 12 13  1  6
 14 13  1  0
 15 14  1  0
 16 15  1  0
 17 16  1  0
 18 12  1  0
 19 18  2  0
 20 18  1  0
 21 28  1  0
 21 20  1  0
 21 22  1  1
 23 22  1  0
 24 23  2  0
 25 24  1  0
 26 25  1  0
 26 27  2  0
 27 23  1  0
 28 29  1  0
 30 28  2  0
M  END
$$$$
