HKH.pdb
     RDKit          3D

 30 31  0  0  1  0  0  0  0  0999 V2000
   12.8181  -16.5833   13.8061 N   0  0  0  0  0  0  0  0  0  0  0  0
   13.7852  -16.8300   14.8201 C   0  0  1  0  0  0  0  0  0  0  0  0
   15.1637  -16.3410   14.4671 C   0  0  0  0  0  0  0  0  0  0  0  0
   15.7079  -17.0456   13.3097 C   0  0  0  0  0  0  0  0  0  0  0  0
   16.4030  -18.2555   13.4329 C   0  0  0  0  0  0  0  0  0  0  0  0
   16.7476  -18.6031   12.1908 N   0  0  0  0  0  0  0  0  0  0  0  0
   16.3026  -17.6763   11.3245 C   0  0  0  0  0  0  0  0  0  0  0  0
   15.6623  -16.7164   12.0109 N   0  0  0  0  0  0  0  0  0  0  0  0
   13.4258  -16.4529   16.1846 C   0  0  0  0  0  0  0  0  0  0  0  0
   12.9558  -15.2949   16.3504 O   0  0  0  0  0  0  0  0  0  0  0  0
   13.6117  -17.3650   17.2513 N   0  0  0  0  0  0  0  0  0  0  0  0
   13.1935  -17.0988   18.5730 C   0  0  1  0  0  0  0  0  0  0  0  0
   12.3514  -18.1089   19.2534 C   0  0  0  0  0  0  0  0  0  0  0  0
   11.1141  -18.5549   18.5650 C   0  0  0  0  0  0  0  0  0  0  0  0
   10.3386  -19.6477   19.2062 C   0  0  0  0  0  0  0  0  0  0  0  0
    9.1722  -19.9625   18.2500 C   0  0  0  0  0  0  0  0  0  0  0  0
    8.4133  -21.0724   18.7621 N   0  0  0  0  0  0  0  0  0  0  0  0
   14.4075  -16.7566   19.4111 C   0  0  0  0  0  0  0  0  0  0  0  0
   15.4578  -17.4226   19.3264 O   0  0  0  0  0  0  0  0  0  0  0  0
   14.4045  -15.6697   20.3241 N   0  0  0  0  0  0  0  0  0  0  0  0
   15.6081  -15.3434   21.0904 C   0  0  1  0  0  0  0  0  0  0  0  0
   15.8801  -13.8754   21.0888 C   0  0  0  0  0  0  0  0  0  0  0  0
   16.2824  -13.4447   19.7340 C   0  0  0  0  0  0  0  0  0  0  0  0
   16.8423  -14.2099   18.7297 C   0  0  0  0  0  0  0  0  0  0  0  0
   17.0458  -13.4015   17.6631 N   0  0  0  0  0  0  0  0  0  0  0  0
   16.6336  -12.1689   17.9704 C   0  0  0  0  0  0  0  0  0  0  0  0
   16.1748  -12.2101   19.2248 N   0  0  0  0  0  0  0  0  0  0  0  0
   15.5143  -15.9629   22.4117 C   0  0  0  0  0  0  0  0  0  0  0  0
   16.5388  -15.9839   23.3535 O   0  0  0  0  0  0  0  0  0  0  0  0
   14.4333  -16.5282   22.7471 O   0  0  0  0  0  0  0  0  0  0  0  0
  2  1  1  6
  2  3  1  0
  3  4  1  0
  4  5  2  0
  5  6  1  0
  7  6  1  0
  8  4  1  0
  8  7  2  0
  9 10  2  0
  9  2  1  0
 11  9  1  0
 12 11  1  0
 12 13  1  1
 14 13  1  0
 15 14  1  0
 16 15  1  0
 17 16  1  0
 18 12  1  0
 19 18  2  0
 20 18  1  0
 21 28  1  0
 21 20  1  0
 21 22  1  1
 23 22  1  0
 24 23  2  0
 25 24  1  0
 26 25  1  0
 26 27  2  0
 27 23  1  0
 28 29  1  0
 30 28  2  0
M  END
$$$$
