HKH.pdb
     RDKit          3D

 30 31  0  0  1  0  0  0  0  0999 V2000
   11.8401  -21.9350   15.6480 N   0  0  0  0  0  0  0  0  0  0  0  0
   12.9287  -21.1131   16.0527 C   0  0  1  0  0  0  0  0  0  0  0  0
   12.5528  -19.6685   16.2418 C   0  0  0  0  0  0  0  0  0  0  0  0
   11.8171  -19.1461   15.0938 C   0  0  0  0  0  0  0  0  0  0  0  0
   12.4580  -18.7699   13.9064 C   0  0  0  0  0  0  0  0  0  0  0  0
   11.4895  -18.3466   13.0907 N   0  0  0  0  0  0  0  0  0  0  0  0
   10.3021  -18.4443   13.7136 C   0  0  0  0  0  0  0  0  0  0  0  0
   10.5011  -18.9362   14.9469 N   0  0  0  0  0  0  0  0  0  0  0  0
   13.7454  -21.5947   17.1637 C   0  0  0  0  0  0  0  0  0  0  0  0
   13.1319  -22.0608   18.1615 O   0  0  0  0  0  0  0  0  0  0  0  0
   15.1579  -21.5247   17.0961 N   0  0  0  0  0  0  0  0  0  0  0  0
   16.0035  -22.0672   18.0877 C   0  0  1  0  0  0  0  0  0  0  0  0
   17.2937  -22.6530   17.6579 C   0  0  0  0  0  0  0  0  0  0  0  0
   18.1336  -23.3092   18.6911 C   0  0  0  0  0  0  0  0  0  0  0  0
   19.4899  -23.7537   18.2793 C   0  0  0  0  0  0  0  0  0  0  0  0
   19.7082  -25.1288   18.9392 C   0  0  0  0  0  0  0  0  0  0  0  0
   21.0147  -25.6263   18.5993 N   0  0  0  0  0  0  0  0  0  0  0  0
   16.2166  -21.0299   19.1703 C   0  0  0  0  0  0  0  0  0  0  0  0
   16.4144  -19.8325   18.8857 O   0  0  0  0  0  0  0  0  0  0  0  0
   16.2007  -21.3716   20.5479 N   0  0  0  0  0  0  0  0  0  0  0  0
   16.4075  -20.3428   21.5681 C   0  0  1  0  0  0  0  0  0  0  0  0
   15.6061  -20.6180   22.7974 C   0  0  0  0  0  0  0  0  0  0  0  0
   14.1737  -20.3844   22.5210 C   0  0  0  0  0  0  0  0  0  0  0  0
   13.6098  -19.4069   21.7246 C   0  0  0  0  0  0  0  0  0  0  0  0
   12.2666  -19.5710   21.7629 N   0  0  0  0  0  0  0  0  0  0  0  0
   11.9807  -20.6106   22.5511 C   0  0  0  0  0  0  0  0  0  0  0  0
   13.1429  -21.0921   23.0021 N   0  0  0  0  0  0  0  0  0  0  0  0
   17.8433  -20.1652   21.7817 C   0  0  0  0  0  0  0  0  0  0  0  0
   18.4594  -18.9506   22.0684 O   0  0  0  0  0  0  0  0  0  0  0  0
   18.6027  -21.1742   21.7049 O   0  0  0  0  0  0  0  0  0  0  0  0
  2  1  1  1
  2  3  1  0
  3  4  1  0
  4  5  2  0
  5  6  1  0
  7  6  1  0
  8  4  1  0
  8  7  2  0
  9 10  2  0
  9  2  1  0
 11  9  1  0
 12 11  1  0
 12 13  1  6
 14 13  1  0
 15 14  1  0
 16 15  1  0
 17 16  1  0
 18 12  1  0
 19 18  2  0
 20 18  1  0
 21 28  1  0
 21 20  1  0
 21 22  1  1
 23 22  1  0
 24 23  2  0
 25 24  1  0
 26 25  1  0
 26 27  2  0
 27 23  1  0
 28 29  1  0
 30 28  2  0
M  END
$$$$
