HKH.pdb
     RDKit          3D

 30 31  0  0  1  0  0  0  0  0999 V2000
    9.2880  -15.7670   19.9975 N   0  0  0  0  0  0  0  0  0  0  0  0
    8.1614  -15.2711   20.7111 C   0  0  1  0  0  0  0  0  0  0  0  0
    6.9459  -15.0673   19.8479 C   0  0  0  0  0  0  0  0  0  0  0  0
    7.2377  -14.2220   18.6936 C   0  0  0  0  0  0  0  0  0  0  0  0
    8.5285  -13.7505   18.4224 C   0  0  0  0  0  0  0  0  0  0  0  0
    8.4214  -13.0218   17.3089 N   0  0  0  0  0  0  0  0  0  0  0  0
    7.1436  -13.0245   16.8908 C   0  0  0  0  0  0  0  0  0  0  0  0
    6.4129  -13.7627   17.7416 N   0  0  0  0  0  0  0  0  0  0  0  0
    7.8148  -15.9500   21.9570 C   0  0  0  0  0  0  0  0  0  0  0  0
    6.7954  -15.5313   22.5693 O   0  0  0  0  0  0  0  0  0  0  0  0
    8.6079  -17.0223   22.4319 N   0  0  0  0  0  0  0  0  0  0  0  0
    8.3439  -17.6969   23.6434 C   0  0  1  0  0  0  0  0  0  0  0  0
    8.7060  -19.1296   23.7356 C   0  0  0  0  0  0  0  0  0  0  0  0
    8.0787  -20.0652   22.7688 C   0  0  0  0  0  0  0  0  0  0  0  0
    8.5844  -21.4618   22.7522 C   0  0  0  0  0  0  0  0  0  0  0  0
    7.6994  -22.2253   21.7482 C   0  0  0  0  0  0  0  0  0  0  0  0
    8.1789  -23.5747   21.6096 N   0  0  0  0  0  0  0  0  0  0  0  0
    8.9565  -16.9118   24.7843 C   0  0  0  0  0  0  0  0  0  0  0  0
   10.0710  -16.3660   24.6659 O   0  0  0  0  0  0  0  0  0  0  0  0
    8.2943  -16.7627   26.0309 N   0  0  0  0  0  0  0  0  0  0  0  0
    8.9464  -16.0587   27.1360 C   0  0  1  0  0  0  0  0  0  0  0  0
    7.9997  -15.1441   27.8407 C   0  0  0  0  0  0  0  0  0  0  0  0
    7.6837  -13.9901   26.9740 C   0  0  0  0  0  0  0  0  0  0  0  0
    8.2658  -13.6468   25.7694 C   0  0  0  0  0  0  0  0  0  0  0  0
    7.6638  -12.5166   25.3304 N   0  0  0  0  0  0  0  0  0  0  0  0
    6.7341  -12.1501   26.2165 C   0  0  0  0  0  0  0  0  0  0  0  0
    6.7576  -13.0498   27.2043 N   0  0  0  0  0  0  0  0  0  0  0  0
    9.6271  -17.0340   27.9867 C   0  0  0  0  0  0  0  0  0  0  0  0
    9.6499  -18.4070   27.7596 O   0  0  0  0  0  0  0  0  0  0  0  0
   10.2476  -16.6252   29.0107 O   0  0  0  0  0  0  0  0  0  0  0  0
  2  1  1  6
  2  3  1  0
  3  4  1  0
  4  5  2  0
  5  6  1  0
  7  6  1  0
  8  4  1  0
  8  7  2  0
  9 10  2  0
  9  2  1  0
 11  9  1  0
 12 11  1  0
 12 13  1  6
 14 13  1  0
 15 14  1  0
 16 15  1  0
 17 16  1  0
 18 12  1  0
 19 18  2  0
 20 18  1  0
 21 28  1  0
 21 20  1  0
 21 22  1  1
 23 22  1  0
 24 23  2  0
 25 24  1  0
 26 25  1  0
 26 27  2  0
 27 23  1  0
 28 29  1  0
 30 28  2  0
M  END
$$$$
