RKE.pdb
     RDKit          3D

 30 29  0  0  1  0  0  0  0  0999 V2000
    7.9660  -13.6853   14.6241 N   0  0  0  0  0  0  0  0  0  0  0  0
    8.1949  -13.5519   16.0350 C   0  0  0  0  0  0  0  0  0  0  0  0
    7.9669  -12.4312   16.5977 N   0  0  0  0  0  0  0  0  0  0  0  0
    8.6653  -14.6337   16.8047 N   0  0  0  0  0  0  0  0  0  0  0  0
    7.8500  -15.1382   17.9263 C   0  0  0  0  0  0  0  0  0  0  0  0
    7.5504  -13.9643   18.7949 C   0  0  0  0  0  0  0  0  0  0  0  0
    7.7248  -14.2058   20.2378 C   0  0  0  0  0  0  0  0  0  0  0  0
    8.1738  -15.5704   20.5841 C   0  0  2  0  0  0  0  0  0  0  0  0
    7.1013  -16.5129   20.5374 N   0  0  0  0  0  0  0  0  0  0  0  0
    8.8235  -15.5951   21.9505 C   0  0  0  0  0  0  0  0  0  0  0  0
    9.7975  -14.8115   22.1868 O   0  0  0  0  0  0  0  0  0  0  0  0
    8.1328  -12.2293   17.5949 N   0  0  0  0  0  0  0  0  0  0  0  0
    8.3055  -16.4956   22.8926 C   0  0  1  0  0  0  0  0  0  0  0  0
    8.9972  -16.6963   24.1646 C   0  0  0  0  0  0  0  0  0  0  0  0
    8.1374  -17.4947   25.0816 C   0  0  0  0  0  0  0  0  0  0  0  0
    8.7818  -17.8285   26.3736 C   0  0  0  0  0  0  0  0  0  0  0  0
    7.9095  -18.7588   27.2064 C   0  0  0  0  0  0  0  0  0  0  0  0
    8.5510  -19.1767   28.5005 N   0  0  0  0  0  0  0  0  0  0  0  0
    7.5713  -19.9993   29.2372 C   0  0  0  0  0  0  0  0  0  0  0  0
   10.3048  -17.3147   23.9629 O   0  0  0  0  0  0  0  0  0  0  0  0
   10.4386  -18.3596   23.3091 N   0  0  0  0  0  0  0  0  0  0  0  0
   11.5199  -16.7693   24.4981 C   0  0  1  0  0  0  0  0  0  0  0  0
   12.7933  -17.4714   24.4009 C   0  0  0  0  0  0  0  0  0  0  0  0
   13.7742  -16.4448   23.8752 C   0  0  0  0  0  0  0  0  0  0  0  0
   14.0537  -16.5356   22.4173 C   0  0  0  0  0  0  0  0  0  0  0  0
   15.1695  -15.7304   21.9295 O   0  0  0  0  0  0  0  0  0  0  0  0
   15.8660  -15.0622   22.7182 C   0  0  0  0  0  0  0  0  0  0  0  0
   13.2147  -17.9601   25.7355 O   0  0  0  0  0  0  0  0  0  0  0  0
   12.5992  -17.5427   26.7479 O   0  0  0  0  0  0  0  0  0  0  0  0
   15.4712  -15.6964   20.5850 O   0  0  0  0  0  0  0  0  0  0  0  0
  2  1  1  0
  2  4  1  0
  3  2  2  0
  5  4  1  0
  6  5  1  0
  7  6  1  0
  8  7  1  0
  8  9  1  1
 10  8  1  0
 10 11  2  0
 12 10  1  0
 13 12  1  0
 13 14  1  1
 15 14  1  0
 16 15  1  0
 17 16  1  0
 18 17  1  0
 19 13  1  0
 20 19  2  0
 21 19  1  0
 22 23  1  1
 22 21  1  0
 23 24  1  0
 24 25  1  0
 25 26  2  0
 25 29  1  0
 27 22  1  0
 28 27  2  0
 30 27  1  0
M  END
$$$$
