RKE.pdb
     RDKit          3D

 30 29  0  0  1  0  0  0  0  0999 V2000
    9.4853  -15.1203   14.5255 N   0  0  0  0  0  0  0  0  0  0  0  0
    8.0853  -14.8179   14.6218 C   0  0  0  0  0  0  0  0  0  0  0  0
    7.5089  -14.2292   13.6492 N   0  0  0  0  0  0  0  0  0  0  0  0
    7.3408  -15.1589   15.7678 N   0  0  0  0  0  0  0  0  0  0  0  0
    7.4708  -14.3426   16.9901 C   0  0  0  0  0  0  0  0  0  0  0  0
    8.9314  -14.1992   17.2514 C   0  0  0  0  0  0  0  0  0  0  0  0
    9.3684  -14.6685   18.5778 C   0  0  0  0  0  0  0  0  0  0  0  0
    8.2749  -14.8691   19.5513 C   0  0  2  0  0  0  0  0  0  0  0  0
    7.1016  -14.1366   19.1942 N   0  0  0  0  0  0  0  0  0  0  0  0
    8.7170  -14.4871   20.9471 C   0  0  0  0  0  0  0  0  0  0  0  0
    9.7389  -13.7431   21.0907 O   0  0  0  0  0  0  0  0  0  0  0  0
    6.5093  -13.9790   13.6223 N   0  0  0  0  0  0  0  0  0  0  0  0
    7.9618  -14.9840   22.0193 C   0  0  1  0  0  0  0  0  0  0  0  0
    8.3303  -14.6384   23.3910 C   0  0  0  0  0  0  0  0  0  0  0  0
    7.1409  -14.1023   24.1090 C   0  0  0  0  0  0  0  0  0  0  0  0
    7.4018  -13.7437   25.5230 C   0  0  0  0  0  0  0  0  0  0  0  0
    6.7395  -12.4231   25.8933 C   0  0  0  0  0  0  0  0  0  0  0  0
    6.9538  -12.0314   27.3292 N   0  0  0  0  0  0  0  0  0  0  0  0
    6.1298  -10.8350   27.5915 C   0  0  0  0  0  0  0  0  0  0  0  0
    8.9189  -15.7815   24.0837 O   0  0  0  0  0  0  0  0  0  0  0  0
    8.3339  -16.8723   24.1567 N   0  0  0  0  0  0  0  0  0  0  0  0
   10.2021  -15.7326   24.7251 C   0  0  1  0  0  0  0  0  0  0  0  0
   10.7884  -16.8976   25.3754 C   0  0  0  0  0  0  0  0  0  0  0  0
   12.2770  -16.7871   25.1222 C   0  0  0  0  0  0  0  0  0  0  0  0
   12.6529  -16.5163   23.7090 C   0  0  0  0  0  0  0  0  0  0  0  0
   14.0728  -16.2877   23.4582 O   0  0  0  0  0  0  0  0  0  0  0  0
   14.8937  -16.2877   24.3962 C   0  0  0  0  0  0  0  0  0  0  0  0
   10.5032  -16.8729   26.8299 O   0  0  0  0  0  0  0  0  0  0  0  0
   10.9442  -17.8085   27.5428 O   0  0  0  0  0  0  0  0  0  0  0  0
   14.5293  -16.0675   22.1764 O   0  0  0  0  0  0  0  0  0  0  0  0
  2  1  1  0
  2  4  1  0
  3  2  2  0
  5  4  1  0
  6  5  1  0
  7  6  1  0
  8  7  1  0
  8  9  1  6
 10  8  1  0
 10 11  2  0
 12 10  1  0
 13 12  1  0
 13 14  1  6
 15 14  1  0
 16 15  1  0
 17 16  1  0
 18 17  1  0
 19 13  1  0
 20 19  2  0
 21 19  1  0
 22 23  1  1
 22 21  1  0
 23 24  1  0
 24 25  1  0
 25 26  2  0
 25 29  1  0
 27 22  1  0
 28 27  2  0
 30 27  1  0
M  END
$$$$
