RKE.pdb
     RDKit          3D

 30 29  0  0  1  0  0  0  0  0999 V2000
    8.3944  -12.1431   19.3560 N   0  0  0  0  0  0  0  0  0  0  0  0
    7.5816  -13.2040   18.8320 C   0  0  0  0  0  0  0  0  0  0  0  0
    6.3387  -13.2308   19.1133 N   0  0  0  0  0  0  0  0  0  0  0  0
    8.1317  -14.2117   18.0159 N   0  0  0  0  0  0  0  0  0  0  0  0
    7.3127  -15.3851   17.6559 C   0  0  0  0  0  0  0  0  0  0  0  0
    7.2007  -16.2184   18.8868 C   0  0  0  0  0  0  0  0  0  0  0  0
    8.3284  -17.1395   19.1113 C   0  0  0  0  0  0  0  0  0  0  0  0
    8.9209  -17.0699   20.4633 C   0  0  2  0  0  0  0  0  0  0  0  0
    8.5445  -15.8750   21.1499 N   0  0  0  0  0  0  0  0  0  0  0  0
   10.4291  -17.1746   20.3984 C   0  0  0  0  0  0  0  0  0  0  0  0
   10.9565  -18.2396   19.9444 O   0  0  0  0  0  0  0  0  0  0  0  0
    5.6917  -13.9879   18.8473 N   0  0  0  0  0  0  0  0  0  0  0  0
   11.1701  -16.0730   20.8503 C   0  0  2  0  0  0  0  0  0  0  0  0
   12.6306  -16.1090   20.8020 C   0  0  0  0  0  0  0  0  0  0  0  0
   13.1367  -14.9188   20.0639 C   0  0  0  0  0  0  0  0  0  0  0  0
   14.6022  -14.9244   19.8441 C   0  0  0  0  0  0  0  0  0  0  0  0
   15.0538  -13.6913   19.0725 C   0  0  0  0  0  0  0  0  0  0  0  0
   16.5435  -13.6214   18.8806 N   0  0  0  0  0  0  0  0  0  0  0  0
   16.9453  -14.7994   18.0867 C   0  0  0  0  0  0  0  0  0  0  0  0
   13.2012  -16.2053   22.1430 O   0  0  0  0  0  0  0  0  0  0  0  0
   12.8881  -15.4129   23.0438 N   0  0  0  0  0  0  0  0  0  0  0  0
   14.1554  -17.2099   22.5178 C   0  0  1  0  0  0  0  0  0  0  0  0
   14.7664  -17.2434   23.8405 C   0  0  0  0  0  0  0  0  0  0  0  0
   14.2060  -18.4825   24.5060 C   0  0  0  0  0  0  0  0  0  0  0  0
   12.9882  -18.2544   25.3287 C   0  0  0  0  0  0  0  0  0  0  0  0
   12.4189  -19.4366   25.9685 O   0  0  0  0  0  0  0  0  0  0  0  0
   12.7855  -19.7833   27.1083 C   0  0  0  0  0  0  0  0  0  0  0  0
   16.2414  -17.3357   23.7237 O   0  0  0  0  0  0  0  0  0  0  0  0
   16.9331  -17.2199   24.7658 O   0  0  0  0  0  0  0  0  0  0  0  0
   11.4641  -20.1903   25.3204 O   0  0  0  0  0  0  0  0  0  0  0  0
  2  1  1  0
  2  4  1  0
  3  2  2  0
  5  4  1  0
  6  5  1  0
  7  6  1  0
  8  7  1  0
  8  9  1  6
 10  8  1  0
 10 11  2  0
 12 10  1  0
 13 12  1  0
 13 14  1  6
 15 14  1  0
 16 15  1  0
 17 16  1  0
 18 17  1  0
 19 13  1  0
 20 19  2  0
 21 19  1  0
 22 23  1  1
 22 21  1  0
 23 24  1  0
 24 25  1  0
 25 26  2  0
 25 29  1  0
 27 22  1  0
 28 27  2  0
 30 27  1  0
M  END
$$$$
