RKE.pdb
     RDKit          3D

 30 29  0  0  1  0  0  0  0  0999 V2000
    7.4252  -13.3100   16.5612 N   0  0  0  0  0  0  0  0  0  0  0  0
    7.8119  -14.4867   15.8355 C   0  0  0  0  0  0  0  0  0  0  0  0
    8.1063  -14.3851   14.5996 N   0  0  0  0  0  0  0  0  0  0  0  0
    7.8710  -15.7462   16.4632 N   0  0  0  0  0  0  0  0  0  0  0  0
    7.6388  -15.8469   17.9169 C   0  0  0  0  0  0  0  0  0  0  0  0
    8.8286  -15.2409   18.5798 C   0  0  0  0  0  0  0  0  0  0  0  0
    8.8400  -15.3555   20.0485 C   0  0  0  0  0  0  0  0  0  0  0  0
   10.0384  -14.7886   20.7013 C   0  0  2  0  0  0  0  0  0  0  0  0
   11.2289  -15.4841   20.3277 N   0  0  0  0  0  0  0  0  0  0  0  0
    9.8877  -14.7950   22.2070 C   0  0  0  0  0  0  0  0  0  0  0  0
   10.8389  -15.2448   22.9222 O   0  0  0  0  0  0  0  0  0  0  0  0
    8.3552  -15.1762   13.9873 N   0  0  0  0  0  0  0  0  0  0  0  0
    8.6880  -14.2965   22.7352 C   0  0  1  0  0  0  0  0  0  0  0  0
    8.5959  -13.9797   24.1593 C   0  0  0  0  0  0  0  0  0  0  0  0
    7.2957  -13.3103   24.4402 C   0  0  0  0  0  0  0  0  0  0  0  0
    7.3558  -12.3126   25.5343 C   0  0  0  0  0  0  0  0  0  0  0  0
    6.3962  -12.6663   26.6630 C   0  0  0  0  0  0  0  0  0  0  0  0
    6.4095  -11.6708   27.7898 N   0  0  0  0  0  0  0  0  0  0  0  0
    5.4005  -12.1029   28.7769 C   0  0  0  0  0  0  0  0  0  0  0  0
    8.7857  -15.1733   24.9792 O   0  0  0  0  0  0  0  0  0  0  0  0
    8.7424  -15.1281   26.2175 N   0  0  0  0  0  0  0  0  0  0  0  0
    9.0338  -16.4735   24.4240 C   0  0  2  0  0  0  0  0  0  0  0  0
    9.3873  -17.6169   25.2558 C   0  0  0  0  0  0  0  0  0  0  0  0
    9.9735  -18.6362   24.3020 C   0  0  0  0  0  0  0  0  0  0  0  0
   10.5464  -19.8447   24.9524 C   0  0  0  0  0  0  0  0  0  0  0  0
   11.0817  -20.8615   24.0521 O   0  0  0  0  0  0  0  0  0  0  0  0
   10.3534  -21.4044   23.1986 C   0  0  0  0  0  0  0  0  0  0  0  0
   10.3873  -17.2214   26.2761 O   0  0  0  0  0  0  0  0  0  0  0  0
   10.2337  -17.6280   27.4546 O   0  0  0  0  0  0  0  0  0  0  0  0
   12.4052  -21.2385   24.1320 O   0  0  0  0  0  0  0  0  0  0  0  0
  2  1  1  0
  2  4  1  0
  3  2  2  0
  5  4  1  0
  6  5  1  0
  7  6  1  0
  8  7  1  0
  8  9  1  1
 10  8  1  0
 10 11  2  0
 12 10  1  0
 13 12  1  0
 13 14  1  6
 15 14  1  0
 16 15  1  0
 17 16  1  0
 18 17  1  0
 19 13  1  0
 20 19  2  0
 21 19  1  0
 22 23  1  6
 22 21  1  0
 23 24  1  0
 24 25  1  0
 25 26  2  0
 25 29  1  0
 27 22  1  0
 28 27  2  0
 30 27  1  0
M  END
$$$$
