RKE.pdb
     RDKit          3D

 30 29  0  0  1  0  0  0  0  0999 V2000
    7.5124  -12.6958   18.1635 N   0  0  0  0  0  0  0  0  0  0  0  0
    7.5668  -13.7461   17.1864 C   0  0  0  0  0  0  0  0  0  0  0  0
    7.6230  -13.4414   15.9500 N   0  0  0  0  0  0  0  0  0  0  0  0
    7.5590  -15.1016   17.5689 N   0  0  0  0  0  0  0  0  0  0  0  0
    6.9871  -15.4867   18.8735 C   0  0  0  0  0  0  0  0  0  0  0  0
    8.1239  -15.9646   19.7110 C   0  0  0  0  0  0  0  0  0  0  0  0
    9.2966  -15.0729   19.7236 C   0  0  0  0  0  0  0  0  0  0  0  0
   10.4220  -15.5471   20.5557 C   0  0  2  0  0  0  0  0  0  0  0  0
   10.9094  -16.8174   20.1202 N   0  0  0  0  0  0  0  0  0  0  0  0
   10.0233  -15.6194   22.0136 C   0  0  0  0  0  0  0  0  0  0  0  0
   10.5411  -16.5158   22.7531 O   0  0  0  0  0  0  0  0  0  0  0  0
    7.6673  -14.1228   15.1778 N   0  0  0  0  0  0  0  0  0  0  0  0
    9.0903  -14.6783   22.4724 C   0  0  2  0  0  0  0  0  0  0  0  0
    8.8686  -14.5133   23.9079 C   0  0  0  0  0  0  0  0  0  0  0  0
    7.5899  -13.7851   24.1365 C   0  0  0  0  0  0  0  0  0  0  0  0
    7.2169  -13.6568   25.5649 C   0  0  0  0  0  0  0  0  0  0  0  0
    6.5329  -12.3247   25.8437 C   0  0  0  0  0  0  0  0  0  0  0  0
    6.0147  -12.2043   27.2501 N   0  0  0  0  0  0  0  0  0  0  0  0
    5.2742  -10.9306   27.3437 C   0  0  0  0  0  0  0  0  0  0  0  0
    8.8969  -15.8002   24.5980 O   0  0  0  0  0  0  0  0  0  0  0  0
    7.9613  -16.6090   24.5093 N   0  0  0  0  0  0  0  0  0  0  0  0
    9.9940  -16.2233   25.4211 C   0  0  1  0  0  0  0  0  0  0  0  0
    9.9760  -17.4871   26.1468 C   0  0  0  0  0  0  0  0  0  0  0  0
   11.1996  -18.2386   25.6666 C   0  0  0  0  0  0  0  0  0  0  0  0
   11.4212  -19.5560   26.3203 C   0  0  0  0  0  0  0  0  0  0  0  0
   12.5703  -20.3200   25.8442 O   0  0  0  0  0  0  0  0  0  0  0  0
   13.3175  -19.8617   24.9579 C   0  0  0  0  0  0  0  0  0  0  0  0
   10.0533  -17.2431   27.6070 O   0  0  0  0  0  0  0  0  0  0  0  0
    9.6612  -18.1464   28.3869 O   0  0  0  0  0  0  0  0  0  0  0  0
   12.8481  -21.5641   26.3687 O   0  0  0  0  0  0  0  0  0  0  0  0
  2  1  1  0
  2  4  1  0
  3  2  2  0
  5  4  1  0
  6  5  1  0
  7  6  1  0
  8  7  1  0
  8  9  1  6
 10  8  1  0
 10 11  2  0
 12 10  1  0
 13 12  1  0
 13 14  1  6
 15 14  1  0
 16 15  1  0
 17 16  1  0
 18 17  1  0
 19 13  1  0
 20 19  2  0
 21 19  1  0
 22 23  1  1
 22 21  1  0
 23 24  1  0
 24 25  1  0
 25 26  2  0
 25 29  1  0
 27 22  1  0
 28 27  2  0
 30 27  1  0
M  END
$$$$
