RKE.pdb
     RDKit          3D

 30 29  0  0  1  0  0  0  0  0999 V2000
    7.0523  -12.5351   19.9815 N   0  0  0  0  0  0  0  0  0  0  0  0
    8.0491  -12.6588   18.9560 C   0  0  0  0  0  0  0  0  0  0  0  0
    9.2037  -12.1545   19.1484 N   0  0  0  0  0  0  0  0  0  0  0  0
    7.7741  -13.3250   17.7458 N   0  0  0  0  0  0  0  0  0  0  0  0
    8.5734  -14.5061   17.3669 C   0  0  0  0  0  0  0  0  0  0  0  0
    8.1907  -15.5972   18.3078 C   0  0  0  0  0  0  0  0  0  0  0  0
    9.0530  -15.7155   19.4965 C   0  0  0  0  0  0  0  0  0  0  0  0
    9.7799  -16.9975   19.6050 C   0  0  2  0  0  0  0  0  0  0  0  0
    9.0775  -18.0649   18.9663 N   0  0  0  0  0  0  0  0  0  0  0  0
   10.0452  -17.3476   21.0530 C   0  0  0  0  0  0  0  0  0  0  0  0
   10.7022  -16.5329   21.7763 O   0  0  0  0  0  0  0  0  0  0  0  0
    9.9816  -12.1913   18.4730 N   0  0  0  0  0  0  0  0  0  0  0  0
    9.5428  -18.5704   21.5213 C   0  0  1  0  0  0  0  0  0  0  0  0
    9.9179  -19.0503   22.8501 C   0  0  0  0  0  0  0  0  0  0  0  0
    9.3114  -20.3894   23.0883 C   0  0  0  0  0  0  0  0  0  0  0  0
    9.6885  -20.9993   24.3852 C   0  0  0  0  0  0  0  0  0  0  0  0
    9.0901  -22.3914   24.5401 C   0  0  0  0  0  0  0  0  0  0  0  0
    9.3820  -23.0200   25.8745 N   0  0  0  0  0  0  0  0  0  0  0  0
    8.6624  -24.3079   25.9264 C   0  0  0  0  0  0  0  0  0  0  0  0
   11.3690  -19.0692   23.0147 O   0  0  0  0  0  0  0  0  0  0  0  0
   12.0964  -19.7849   22.3104 N   0  0  0  0  0  0  0  0  0  0  0  0
   12.0568  -18.2724   23.9905 C   0  0  1  0  0  0  0  0  0  0  0  0
   13.4718  -18.4591   24.2855 C   0  0  0  0  0  0  0  0  0  0  0  0
   14.1339  -17.1531   23.9003 C   0  0  0  0  0  0  0  0  0  0  0  0
   14.1812  -16.8829   22.4386 C   0  0  0  0  0  0  0  0  0  0  0  0
   14.8171  -15.6306   22.0407 O   0  0  0  0  0  0  0  0  0  0  0  0
   15.3379  -14.8821   22.8906 C   0  0  0  0  0  0  0  0  0  0  0  0
   13.6642  -18.7357   25.7292 O   0  0  0  0  0  0  0  0  0  0  0  0
   12.6803  -18.6089   26.4998 O   0  0  0  0  0  0  0  0  0  0  0  0
   14.8519  -15.2550   20.7150 O   0  0  0  0  0  0  0  0  0  0  0  0
  2  1  1  0
  2  4  1  0
  3  2  2  0
  5  4  1  0
  6  5  1  0
  7  6  1  0
  8  7  1  0
  8  9  1  1
 10  8  1  0
 10 11  2  0
 12 10  1  0
 13 12  1  0
 13 14  1  1
 15 14  1  0
 16 15  1  0
 17 16  1  0
 18 17  1  0
 19 13  1  0
 20 19  2  0
 21 19  1  0
 22 23  1  1
 22 21  1  0
 23 24  1  0
 24 25  1  0
 25 26  2  0
 25 29  1  0
 27 22  1  0
 28 27  2  0
 30 27  1  0
M  END
$$$$
