RKE.pdb
     RDKit          3D

 30 29  0  0  1  0  0  0  0  0999 V2000
    7.3173  -11.3128   19.1616 N   0  0  0  0  0  0  0  0  0  0  0  0
    7.7474  -12.6378   18.8148 C   0  0  0  0  0  0  0  0  0  0  0  0
    7.1265  -13.2726   17.9004 N   0  0  0  0  0  0  0  0  0  0  0  0
    8.8390  -13.2457   19.4650 N   0  0  0  0  0  0  0  0  0  0  0  0
    9.2314  -14.6202   19.0986 C   0  0  0  0  0  0  0  0  0  0  0  0
    8.2031  -15.5259   19.6853 C   0  0  0  0  0  0  0  0  0  0  0  0
    8.3129  -15.7204   21.1416 C   0  0  0  0  0  0  0  0  0  0  0  0
    9.0453  -16.9383   21.5468 C   0  0  2  0  0  0  0  0  0  0  0  0
    8.1587  -18.0025   21.8963 N   0  0  0  0  0  0  0  0  0  0  0  0
    9.9820  -16.6473   22.6990 C   0  0  0  0  0  0  0  0  0  0  0  0
   11.0581  -16.0067   22.4751 O   0  0  0  0  0  0  0  0  0  0  0  0
    7.3422  -14.2357   17.6028 N   0  0  0  0  0  0  0  0  0  0  0  0
    9.6030  -17.1087   23.9680 C   0  0  1  0  0  0  0  0  0  0  0  0
   10.5179  -16.9627   25.0987 C   0  0  0  0  0  0  0  0  0  0  0  0
    9.8478  -16.2025   26.1899 C   0  0  0  0  0  0  0  0  0  0  0  0
   10.6974  -15.9896   27.3853 C   0  0  0  0  0  0  0  0  0  0  0  0
    9.9567  -15.2074   28.4620 C   0  0  0  0  0  0  0  0  0  0  0  0
   10.7753  -14.9805   29.7028 N   0  0  0  0  0  0  0  0  0  0  0  0
    9.9289  -14.2496   30.6665 C   0  0  0  0  0  0  0  0  0  0  0  0
   11.0048  -18.2617   25.5552 O   0  0  0  0  0  0  0  0  0  0  0  0
   10.2300  -19.1538   25.9312 N   0  0  0  0  0  0  0  0  0  0  0  0
   12.3982  -18.6027   25.6040 C   0  0  1  0  0  0  0  0  0  0  0  0
   12.8633  -19.8950   26.0916 C   0  0  0  0  0  0  0  0  0  0  0  0
   14.2234  -20.0934   25.4567 C   0  0  0  0  0  0  0  0  0  0  0  0
   14.2057  -20.2614   23.9791 C   0  0  0  0  0  0  0  0  0  0  0  0
   15.3889  -19.7865   23.2680 O   0  0  0  0  0  0  0  0  0  0  0  0
   15.3302  -19.4933   22.0579 C   0  0  0  0  0  0  0  0  0  0  0  0
   12.9750  -19.8773   27.5697 O   0  0  0  0  0  0  0  0  0  0  0  0
   13.3946  -20.9089   28.1511 O   0  0  0  0  0  0  0  0  0  0  0  0
   16.5931  -19.6545   23.9255 O   0  0  0  0  0  0  0  0  0  0  0  0
  2  1  1  0
  2  4  1  0
  3  2  2  0
  5  4  1  0
  6  5  1  0
  7  6  1  0
  8  7  1  0
  8  9  1  1
 10  8  1  0
 10 11  2  0
 12 10  1  0
 13 12  1  0
 13 14  1  6
 15 14  1  0
 16 15  1  0
 17 16  1  0
 18 17  1  0
 19 13  1  0
 20 19  2  0
 21 19  1  0
 22 23  1  1
 22 21  1  0
 23 24  1  0
 24 25  1  0
 25 26  2  0
 25 29  1  0
 27 22  1  0
 28 27  2  0
 30 27  1  0
M  END
$$$$
