RKE.pdb
     RDKit          3D

 30 29  0  0  1  0  0  0  0  0999 V2000
    8.8191  -14.8617   15.4433 N   0  0  0  0  0  0  0  0  0  0  0  0
    8.4165  -13.7781   16.2945 C   0  0  0  0  0  0  0  0  0  0  0  0
    8.3785  -12.5962   15.8188 N   0  0  0  0  0  0  0  0  0  0  0  0
    8.0645  -13.9977   17.6405 N   0  0  0  0  0  0  0  0  0  0  0  0
    7.5255  -15.3097   18.0474 C   0  0  0  0  0  0  0  0  0  0  0  0
    8.6982  -16.2104   18.2362 C   0  0  0  0  0  0  0  0  0  0  0  0
    9.4940  -15.9394   19.4461 C   0  0  0  0  0  0  0  0  0  0  0  0
    9.1506  -16.7817   20.6106 C   0  0  2  0  0  0  0  0  0  0  0  0
    7.7895  -17.2139   20.5737 N   0  0  0  0  0  0  0  0  0  0  0  0
    9.4250  -16.0501   21.9065 C   0  0  0  0  0  0  0  0  0  0  0  0
   10.6168  -15.6972   22.1775 O   0  0  0  0  0  0  0  0  0  0  0  0
    8.0637  -11.7631   16.3381 N   0  0  0  0  0  0  0  0  0  0  0  0
    8.3310  -15.7997   22.7475 C   0  0  1  0  0  0  0  0  0  0  0  0
    8.5391  -15.1409   24.0357 C   0  0  0  0  0  0  0  0  0  0  0  0
    7.3422  -14.3243   24.3795 C   0  0  0  0  0  0  0  0  0  0  0  0
    7.4184  -13.6739   25.7089 C   0  0  0  0  0  0  0  0  0  0  0  0
    6.2781  -12.6844   25.9103 C   0  0  0  0  0  0  0  0  0  0  0  0
    6.3135  -11.9993   27.2483 N   0  0  0  0  0  0  0  0  0  0  0  0
    5.0869  -11.1859   27.3640 C   0  0  0  0  0  0  0  0  0  0  0  0
    8.8584  -16.1111   25.0796 O   0  0  0  0  0  0  0  0  0  0  0  0
    8.0472  -16.9795   25.4336 N   0  0  0  0  0  0  0  0  0  0  0  0
   10.1178  -16.1351   25.7677 C   0  0  1  0  0  0  0  0  0  0  0  0
   10.4846  -17.2148   26.6754 C   0  0  0  0  0  0  0  0  0  0  0  0
   11.9268  -17.5377   26.3467 C   0  0  0  0  0  0  0  0  0  0  0  0
   12.5503  -18.5713   27.2155 C   0  0  0  0  0  0  0  0  0  0  0  0
   13.9549  -18.8667   26.9495 O   0  0  0  0  0  0  0  0  0  0  0  0
   14.5846  -18.2369   26.0774 C   0  0  0  0  0  0  0  0  0  0  0  0
   10.3576  -16.7687   28.0834 O   0  0  0  0  0  0  0  0  0  0  0  0
   10.2304  -15.5404   28.3135 O   0  0  0  0  0  0  0  0  0  0  0  0
   14.6089  -19.8497   27.6608 O   0  0  0  0  0  0  0  0  0  0  0  0
  2  1  1  0
  2  4  1  0
  3  2  2  0
  5  4  1  0
  6  5  1  0
  7  6  1  0
  8  7  1  0
  8  9  1  6
 10  8  1  0
 10 11  2  0
 12 10  1  0
 13 12  1  0
 13 14  1  1
 15 14  1  0
 16 15  1  0
 17 16  1  0
 18 17  1  0
 19 13  1  0
 20 19  2  0
 21 19  1  0
 22 23  1  1
 22 21  1  0
 23 24  1  0
 24 25  1  0
 25 26  2  0
 25 29  1  0
 27 22  1  0
 28 27  2  0
 30 27  1  0
M  END
$$$$
