RKE.pdb
     RDKit          3D

 30 29  0  0  1  0  0  0  0  0999 V2000
    7.8161  -12.9511   17.1254 N   0  0  0  0  0  0  0  0  0  0  0  0
    8.0830  -13.0758   18.5304 C   0  0  0  0  0  0  0  0  0  0  0  0
    7.9763  -12.0477   19.2762 N   0  0  0  0  0  0  0  0  0  0  0  0
    8.4594  -14.3094   19.0964 N   0  0  0  0  0  0  0  0  0  0  0  0
    7.4352  -15.3453   19.3318 C   0  0  0  0  0  0  0  0  0  0  0  0
    6.6191  -14.8799   20.4892 C   0  0  0  0  0  0  0  0  0  0  0  0
    7.2820  -15.0033   21.7991 C   0  0  0  0  0  0  0  0  0  0  0  0
    8.1035  -16.2209   21.9614 C   0  0  2  0  0  0  0  0  0  0  0  0
    7.7315  -17.2429   21.0353 N   0  0  0  0  0  0  0  0  0  0  0  0
    8.0133  -16.7490   23.3766 C   0  0  0  0  0  0  0  0  0  0  0  0
    8.0380  -15.9264   24.3469 O   0  0  0  0  0  0  0  0  0  0  0  0
    8.2997  -11.9940   20.2535 N   0  0  0  0  0  0  0  0  0  0  0  0
    7.9058  -18.1378   23.5390 C   0  0  1  0  0  0  0  0  0  0  0  0
    7.9112  -18.7162   24.8815 C   0  0  0  0  0  0  0  0  0  0  0  0
    7.5646  -20.1624   24.8049 C   0  0  0  0  0  0  0  0  0  0  0  0
    6.3173  -20.4442   24.0559 C   0  0  0  0  0  0  0  0  0  0  0  0
    6.1141  -21.9405   23.8565 C   0  0  0  0  0  0  0  0  0  0  0  0
    4.8893  -22.2728   23.0501 N   0  0  0  0  0  0  0  0  0  0  0  0
    4.8558  -23.7384   22.8758 C   0  0  0  0  0  0  0  0  0  0  0  0
    9.1921  -18.4945   25.5470 O   0  0  0  0  0  0  0  0  0  0  0  0
   10.2704  -18.7320   24.9828 N   0  0  0  0  0  0  0  0  0  0  0  0
    9.3018  -17.9917   26.8869 C   0  0  1  0  0  0  0  0  0  0  0  0
   10.5902  -17.8085   27.5430 C   0  0  0  0  0  0  0  0  0  0  0  0
   10.7704  -16.3092   27.6535 C   0  0  0  0  0  0  0  0  0  0  0  0
    9.6931  -15.6026   28.3965 C   0  0  0  0  0  0  0  0  0  0  0  0
    9.8841  -14.1680   28.5876 O   0  0  0  0  0  0  0  0  0  0  0  0
   10.6175  -13.7386   29.4995 C   0  0  0  0  0  0  0  0  0  0  0  0
   10.5765  -18.4328   28.8874 O   0  0  0  0  0  0  0  0  0  0  0  0
    9.5058  -18.9450   29.2991 O   0  0  0  0  0  0  0  0  0  0  0  0
    9.2544  -13.2630   27.7604 O   0  0  0  0  0  0  0  0  0  0  0  0
  2  1  1  0
  2  4  1  0
  3  2  2  0
  5  4  1  0
  6  5  1  0
  7  6  1  0
  8  7  1  0
  8  9  1  6
 10  8  1  0
 10 11  2  0
 12 10  1  0
 13 12  1  0
 13 14  1  1
 15 14  1  0
 16 15  1  0
 17 16  1  0
 18 17  1  0
 19 13  1  0
 20 19  2  0
 21 19  1  0
 22 23  1  1
 22 21  1  0
 23 24  1  0
 24 25  1  0
 25 26  2  0
 25 29  1  0
 27 22  1  0
 28 27  2  0
 30 27  1  0
M  END
$$$$
