RKE.pdb
     RDKit          3D

 30 29  0  0  1  0  0  0  0  0999 V2000
    7.9745  -17.3407   15.5551 N   0  0  0  0  0  0  0  0  0  0  0  0
    9.0194  -16.7167   14.7938 C   0  0  0  0  0  0  0  0  0  0  0  0
    9.1315  -16.9891   13.5537 N   0  0  0  0  0  0  0  0  0  0  0  0
    9.9190  -15.8126   15.3913 N   0  0  0  0  0  0  0  0  0  0  0  0
    9.7829  -15.4900   16.8247 C   0  0  0  0  0  0  0  0  0  0  0  0
    8.7272  -14.4425   16.9256 C   0  0  0  0  0  0  0  0  0  0  0  0
    7.6627  -14.7332   17.9019 C   0  0  0  0  0  0  0  0  0  0  0  0
    7.4780  -13.6966   18.9387 C   0  0  2  0  0  0  0  0  0  0  0  0
    7.7633  -12.3881   18.4418 N   0  0  0  0  0  0  0  0  0  0  0  0
    8.3353  -13.9865   20.1515 C   0  0  0  0  0  0  0  0  0  0  0  0
    9.5262  -13.5406   20.1884 O   0  0  0  0  0  0  0  0  0  0  0  0
    9.7997  -16.5389   12.9107 N   0  0  0  0  0  0  0  0  0  0  0  0
    7.7573  -14.7426   21.1815 C   0  0  2  0  0  0  0  0  0  0  0  0
    8.5658  -15.1445   22.3312 C   0  0  0  0  0  0  0  0  0  0  0  0
    7.7484  -15.9859   23.2485 C   0  0  0  0  0  0  0  0  0  0  0  0
    8.4933  -16.4934   24.4247 C   0  0  0  0  0  0  0  0  0  0  0  0
    7.6085  -17.3587   25.3126 C   0  0  0  0  0  0  0  0  0  0  0  0
    8.3089  -17.8570   26.5464 N   0  0  0  0  0  0  0  0  0  0  0  0
    7.3061  -18.5538   27.3761 C   0  0  0  0  0  0  0  0  0  0  0  0
    9.7867  -15.8243   21.9065 O   0  0  0  0  0  0  0  0  0  0  0  0
    9.9506  -16.2010   20.7366 N   0  0  0  0  0  0  0  0  0  0  0  0
   10.8765  -16.1057   22.7971 C   0  0  1  0  0  0  0  0  0  0  0  0
   12.1168  -16.7161   22.3355 C   0  0  0  0  0  0  0  0  0  0  0  0
   12.5860  -15.8450   21.1894 C   0  0  0  0  0  0  0  0  0  0  0  0
   12.6638  -16.5319   19.8726 C   0  0  0  0  0  0  0  0  0  0  0  0
   13.2681  -15.7655   18.7871 O   0  0  0  0  0  0  0  0  0  0  0  0
   13.6163  -16.3248   17.7289 C   0  0  0  0  0  0  0  0  0  0  0  0
   13.1209  -16.7291   23.4260 O   0  0  0  0  0  0  0  0  0  0  0  0
   12.9307  -15.9905   24.4242 O   0  0  0  0  0  0  0  0  0  0  0  0
   13.4639  -14.4072   18.9155 O   0  0  0  0  0  0  0  0  0  0  0  0
  2  1  1  0
  2  4  1  0
  3  2  2  0
  5  4  1  0
  6  5  1  0
  7  6  1  0
  8  7  1  0
  8  9  1  6
 10  8  1  0
 10 11  2  0
 12 10  1  0
 13 12  1  0
 13 14  1  6
 15 14  1  0
 16 15  1  0
 17 16  1  0
 18 17  1  0
 19 13  1  0
 20 19  2  0
 21 19  1  0
 22 23  1  1
 22 21  1  0
 23 24  1  0
 24 25  1  0
 25 26  2  0
 25 29  1  0
 27 22  1  0
 28 27  2  0
 30 27  1  0
M  END
$$$$
