RKE.pdb
     RDKit          3D

 30 29  0  0  1  0  0  0  0  0999 V2000
   20.6360  -15.9447   15.6211 N   0  0  0  0  0  0  0  0  0  0  0  0
   20.2568  -14.6672   15.0874 C   0  0  0  0  0  0  0  0  0  0  0  0
   21.1167  -13.7268   15.0578 N   0  0  0  0  0  0  0  0  0  0  0  0
   18.9564  -14.4361   14.5982 N   0  0  0  0  0  0  0  0  0  0  0  0
   17.9710  -13.7418   15.4492 C   0  0  0  0  0  0  0  0  0  0  0  0
   17.9690  -14.4502   16.7608 C   0  0  0  0  0  0  0  0  0  0  0  0
   16.6404  -14.8913   17.2202 C   0  0  0  0  0  0  0  0  0  0  0  0
   15.7775  -13.8095   17.7387 C   0  0  2  0  0  0  0  0  0  0  0  0
   16.5215  -12.8447   18.4846 N   0  0  0  0  0  0  0  0  0  0  0  0
   14.6602  -14.3709   18.5908 C   0  0  0  0  0  0  0  0  0  0  0  0
   14.8708  -14.5805   19.8278 O   0  0  0  0  0  0  0  0  0  0  0  0
   20.9121  -12.7509   14.7962 N   0  0  0  0  0  0  0  0  0  0  0  0
   13.4369  -14.6320   17.9565 C   0  0  2  0  0  0  0  0  0  0  0  0
   12.3318  -15.2123   18.7173 C   0  0  0  0  0  0  0  0  0  0  0  0
   11.1130  -15.2713   17.8638 C   0  0  0  0  0  0  0  0  0  0  0  0
    9.9816  -16.0044   18.4791 C   0  0  0  0  0  0  0  0  0  0  0  0
    8.8573  -16.2343   17.4776 C   0  0  0  0  0  0  0  0  0  0  0  0
    7.7047  -17.0156   18.0453 N   0  0  0  0  0  0  0  0  0  0  0  0
    6.6955  -17.1585   16.9774 C   0  0  0  0  0  0  0  0  0  0  0  0
   12.6899  -16.5233   19.2523 O   0  0  0  0  0  0  0  0  0  0  0  0
   13.3228  -17.3514   18.5808 N   0  0  0  0  0  0  0  0  0  0  0  0
   12.3420  -16.9497   20.5779 C   0  0  1  0  0  0  0  0  0  0  0  0
   12.7644  -18.2376   21.1136 C   0  0  0  0  0  0  0  0  0  0  0  0
   12.7195  -18.0763   22.6184 C   0  0  0  0  0  0  0  0  0  0  0  0
   13.1614  -19.2691   23.3890 C   0  0  0  0  0  0  0  0  0  0  0  0
   13.1485  -19.1314   24.8422 O   0  0  0  0  0  0  0  0  0  0  0  0
   12.8495  -18.0459   25.3770 C   0  0  0  0  0  0  0  0  0  0  0  0
   11.8356  -19.3067   20.6754 O   0  0  0  0  0  0  0  0  0  0  0  0
   12.1902  -20.5035   20.8172 O   0  0  0  0  0  0  0  0  0  0  0  0
   13.4676  -20.2030   25.6483 O   0  0  0  0  0  0  0  0  0  0  0  0
  2  1  1  0
  2  4  1  0
  3  2  2  0
  5  4  1  0
  6  5  1  0
  7  6  1  0
  8  7  1  0
  8  9  1  1
 10  8  1  0
 10 11  2  0
 12 10  1  0
 13 12  1  0
 13 14  1  6
 15 14  1  0
 16 15  1  0
 17 16  1  0
 18 17  1  0
 19 13  1  0
 20 19  2  0
 21 19  1  0
 22 23  1  6
 22 21  1  0
 23 24  1  0
 24 25  1  0
 25 26  2  0
 25 29  1  0
 27 22  1  0
 28 27  2  0
 30 27  1  0
M  END
$$$$
