RKE.pdb
     RDKit          3D

 30 29  0  0  1  0  0  0  0  0999 V2000
   10.8851  -24.1501   15.8541 N   0  0  0  0  0  0  0  0  0  0  0  0
   10.9855  -22.8738   15.2047 C   0  0  0  0  0  0  0  0  0  0  0  0
   11.0966  -22.8299   13.9357 N   0  0  0  0  0  0  0  0  0  0  0  0
   10.9637  -21.6743   15.9427 N   0  0  0  0  0  0  0  0  0  0  0  0
   10.7047  -21.7174   17.3947 C   0  0  0  0  0  0  0  0  0  0  0  0
    9.4042  -21.0228   17.6147 C   0  0  0  0  0  0  0  0  0  0  0  0
    8.9885  -20.9267   19.0249 C   0  0  0  0  0  0  0  0  0  0  0  0
    7.6220  -20.4028   19.2298 C   0  0  2  0  0  0  0  0  0  0  0  0
    7.4988  -19.0483   18.7929 N   0  0  0  0  0  0  0  0  0  0  0  0
    7.2119  -20.5160   20.6820 C   0  0  0  0  0  0  0  0  0  0  0  0
    7.5675  -19.6072   21.4981 O   0  0  0  0  0  0  0  0  0  0  0  0
   11.1394  -21.9636   13.3786 N   0  0  0  0  0  0  0  0  0  0  0  0
    6.4510  -21.6352   21.0498 C   0  0  2  0  0  0  0  0  0  0  0  0
    6.1421  -21.8742   22.4584 C   0  0  0  0  0  0  0  0  0  0  0  0
    4.8479  -22.6022   22.5706 C   0  0  0  0  0  0  0  0  0  0  0  0
    4.5197  -23.0388   23.9482 C   0  0  0  0  0  0  0  0  0  0  0  0
    3.1766  -23.7552   23.9996 C   0  0  0  0  0  0  0  0  0  0  0  0
    2.8227  -24.2595   25.3713 N   0  0  0  0  0  0  0  0  0  0  0  0
    1.5580  -25.0121   25.2558 C   0  0  0  0  0  0  0  0  0  0  0  0
    7.2301  -22.5856   23.1243 O   0  0  0  0  0  0  0  0  0  0  0  0
    7.6301  -23.6886   22.7236 N   0  0  0  0  0  0  0  0  0  0  0  0
    7.9114  -22.0712   24.2781 C   0  0  1  0  0  0  0  0  0  0  0  0
    8.9481  -22.8287   24.9678 C   0  0  0  0  0  0  0  0  0  0  0  0
   10.1946  -21.9745   24.8722 C   0  0  0  0  0  0  0  0  0  0  0  0
   10.1300  -20.6879   25.6154 C   0  0  0  0  0  0  0  0  0  0  0  0
   11.3739  -19.9271   25.6845 O   0  0  0  0  0  0  0  0  0  0  0  0
   12.4197  -20.3670   25.1681 C   0  0  0  0  0  0  0  0  0  0  0  0
    8.5709  -23.0445   26.3851 O   0  0  0  0  0  0  0  0  0  0  0  0
    9.2755  -23.8169   27.0815 O   0  0  0  0  0  0  0  0  0  0  0  0
   11.4118  -18.7066   26.3240 O   0  0  0  0  0  0  0  0  0  0  0  0
  2  1  1  0
  2  4  1  0
  3  2  2  0
  5  4  1  0
  6  5  1  0
  7  6  1  0
  8  7  1  0
  8  9  1  1
 10  8  1  0
 10 11  2  0
 12 10  1  0
 13 12  1  0
 13 14  1  6
 15 14  1  0
 16 15  1  0
 17 16  1  0
 18 17  1  0
 19 13  1  0
 20 19  2  0
 21 19  1  0
 22 23  1  1
 22 21  1  0
 23 24  1  0
 24 25  1  0
 25 26  2  0
 25 29  1  0
 27 22  1  0
 28 27  2  0
 30 27  1  0
M  END
$$$$
