RKE.pdb
     RDKit          3D

 30 29  0  0  1  0  0  0  0  0999 V2000
    8.3730  -11.9178   17.4171 N   0  0  0  0  0  0  0  0  0  0  0  0
    8.5616  -13.3136   17.1400 C   0  0  0  0  0  0  0  0  0  0  0  0
    9.1701  -13.6583   16.0744 N   0  0  0  0  0  0  0  0  0  0  0  0
    8.0876  -14.3045   18.0216 N   0  0  0  0  0  0  0  0  0  0  0  0
    8.5074  -15.7067   17.8346 C   0  0  0  0  0  0  0  0  0  0  0  0
    7.7735  -16.5091   18.8543 C   0  0  0  0  0  0  0  0  0  0  0  0
    7.7598  -15.9228   20.2058 C   0  0  0  0  0  0  0  0  0  0  0  0
    8.6840  -16.5634   21.1645 C   0  0  2  0  0  0  0  0  0  0  0  0
    8.2075  -17.8400   21.5932 N   0  0  0  0  0  0  0  0  0  0  0  0
    8.9220  -15.6719   22.3638 C   0  0  0  0  0  0  0  0  0  0  0  0
    9.6655  -14.6476   22.2357 O   0  0  0  0  0  0  0  0  0  0  0  0
    9.3229  -14.6322   15.7732 N   0  0  0  0  0  0  0  0  0  0  0  0
    8.2986  -16.0329   23.5671 C   0  0  1  0  0  0  0  0  0  0  0  0
    8.5682  -15.2694   24.7841 C   0  0  0  0  0  0  0  0  0  0  0  0
    7.3478  -14.5144   25.1821 C   0  0  0  0  0  0  0  0  0  0  0  0
    7.5274  -13.6716   26.3877 C   0  0  0  0  0  0  0  0  0  0  0  0
    6.3073  -12.7956   26.6408 C   0  0  0  0  0  0  0  0  0  0  0  0
    6.4431  -11.9225   27.8574 N   0  0  0  0  0  0  0  0  0  0  0  0
    5.1620  -11.2120   28.0401 C   0  0  0  0  0  0  0  0  0  0  0  0
    9.0494  -16.1368   25.8561 O   0  0  0  0  0  0  0  0  0  0  0  0
    8.3804  -17.0951   26.2701 N   0  0  0  0  0  0  0  0  0  0  0  0
   10.3161  -15.9507   26.5050 C   0  0  1  0  0  0  0  0  0  0  0  0
   10.7650  -16.8133   27.5905 C   0  0  0  0  0  0  0  0  0  0  0  0
   12.1949  -17.1733   27.2469 C   0  0  0  0  0  0  0  0  0  0  0  0
   12.3759  -17.8188   25.9193 C   0  0  0  0  0  0  0  0  0  0  0  0
   13.7548  -18.0876   25.5225 O   0  0  0  0  0  0  0  0  0  0  0  0
   14.7056  -17.7571   26.2577 C   0  0  0  0  0  0  0  0  0  0  0  0
   10.7054  -16.0882   28.8821 O   0  0  0  0  0  0  0  0  0  0  0  0
   11.0680  -16.6893   29.9238 O   0  0  0  0  0  0  0  0  0  0  0  0
   14.0278  -18.7130   24.3249 O   0  0  0  0  0  0  0  0  0  0  0  0
  2  1  1  0
  2  4  1  0
  3  2  2  0
  5  4  1  0
  6  5  1  0
  7  6  1  0
  8  7  1  0
  8  9  1  1
 10  8  1  0
 10 11  2  0
 12 10  1  0
 13 12  1  0
 13 14  1  1
 15 14  1  0
 16 15  1  0
 17 16  1  0
 18 17  1  0
 19 13  1  0
 20 19  2  0
 21 19  1  0
 22 23  1  1
 22 21  1  0
 23 24  1  0
 24 25  1  0
 25 26  2  0
 25 29  1  0
 27 22  1  0
 28 27  2  0
 30 27  1  0
M  END
$$$$
