RKE.pdb
     RDKit          3D

 30 29  0  0  1  0  0  0  0  0999 V2000
    7.7672  -13.0327   18.1452 N   0  0  0  0  0  0  0  0  0  0  0  0
    8.5150  -13.4758   17.0027 C   0  0  0  0  0  0  0  0  0  0  0  0
    8.1857  -13.0573   15.8447 N   0  0  0  0  0  0  0  0  0  0  0  0
    9.6016  -14.3616   17.1390 N   0  0  0  0  0  0  0  0  0  0  0  0
    9.3478  -15.7867   17.4253 C   0  0  0  0  0  0  0  0  0  0  0  0
   10.6811  -16.4249   17.6183 C   0  0  0  0  0  0  0  0  0  0  0  0
   11.4452  -15.9178   18.7713 C   0  0  0  0  0  0  0  0  0  0  0  0
   11.4309  -16.8008   19.9561 C   0  0  2  0  0  0  0  0  0  0  0  0
   10.4247  -17.8100   19.8573 N   0  0  0  0  0  0  0  0  0  0  0  0
   11.2355  -15.9996   21.2249 C   0  0  0  0  0  0  0  0  0  0  0  0
   12.0516  -15.0622   21.4967 O   0  0  0  0  0  0  0  0  0  0  0  0
    8.6555  -13.3248   14.9671 N   0  0  0  0  0  0  0  0  0  0  0  0
   10.1479  -16.3429   22.0410 C   0  0  1  0  0  0  0  0  0  0  0  0
    9.8887  -15.5863   23.2646 C   0  0  0  0  0  0  0  0  0  0  0  0
    8.4411  -15.6648   23.6046 C   0  0  0  0  0  0  0  0  0  0  0  0
    7.5409  -15.2282   22.5114 C   0  0  0  0  0  0  0  0  0  0  0  0
    6.7041  -16.3863   21.9837 C   0  0  0  0  0  0  0  0  0  0  0  0
    5.7102  -15.9729   20.9339 N   0  0  0  0  0  0  0  0  0  0  0  0
    4.9823  -17.1849   20.5089 C   0  0  0  0  0  0  0  0  0  0  0  0
   10.7348  -16.0495   24.3613 O   0  0  0  0  0  0  0  0  0  0  0  0
   10.5276  -15.7071   25.5348 N   0  0  0  0  0  0  0  0  0  0  0  0
   11.8563  -16.9245   24.1694 C   0  0  1  0  0  0  0  0  0  0  0  0
   12.6410  -17.4350   25.2863 C   0  0  0  0  0  0  0  0  0  0  0  0
   11.6812  -18.2867   26.0900 C   0  0  0  0  0  0  0  0  0  0  0  0
   11.9004  -18.2583   27.5607 C   0  0  0  0  0  0  0  0  0  0  0  0
   11.0413  -19.1343   28.3516 O   0  0  0  0  0  0  0  0  0  0  0  0
   11.1376  -19.1693   29.5939 C   0  0  0  0  0  0  0  0  0  0  0  0
   13.7730  -18.2527   24.7887 O   0  0  0  0  0  0  0  0  0  0  0  0
   13.7599  -18.6271   23.5897 O   0  0  0  0  0  0  0  0  0  0  0  0
   10.1074  -19.9392   27.7352 O   0  0  0  0  0  0  0  0  0  0  0  0
  2  1  1  0
  2  4  1  0
  3  2  2  0
  5  4  1  0
  6  5  1  0
  7  6  1  0
  8  7  1  0
  8  9  1  6
 10  8  1  0
 10 11  2  0
 12 10  1  0
 13 12  1  0
 13 14  1  1
 15 14  1  0
 16 15  1  0
 17 16  1  0
 18 17  1  0
 19 13  1  0
 20 19  2  0
 21 19  1  0
 22 23  1  1
 22 21  1  0
 23 24  1  0
 24 25  1  0
 25 26  2  0
 25 29  1  0
 27 22  1  0
 28 27  2  0
 30 27  1  0
M  END
$$$$
