YKE.pdb
     RDKit          3D

 31 31  0  0  1  0  0  0  0  0999 V2000
    5.8465  -10.0723   27.4089 O   0  0  0  0  0  0  0  0  0  0  0  0
    6.3206  -11.2966   26.9445 C   0  0  0  0  0  0  0  0  0  0  0  0
    6.3513  -12.3635   27.8179 C   0  0  0  0  0  0  0  0  0  0  0  0
    6.8175  -13.6017   27.3925 C   0  0  0  0  0  0  0  0  0  0  0  0
    7.2584  -13.8016   26.1022 C   0  0  0  0  0  0  0  0  0  0  0  0
    7.7504  -15.1323   25.6763 C   0  0  0  0  0  0  0  0  0  0  0  0
    6.7326  -15.6986   24.7139 C   0  0  2  0  0  0  0  0  0  0  0  0
    6.2809  -16.9574   25.2612 N   0  0  0  0  0  0  0  0  0  0  0  0
    7.2759  -15.9161   23.3692 C   0  0  0  0  0  0  0  0  0  0  0  0
    7.8570  -16.9598   22.9858 O   0  0  0  0  0  0  0  0  0  0  0  0
    7.2264  -12.7344   25.2330 C   0  0  0  0  0  0  0  0  0  0  0  0
    6.7563  -11.4881   25.6639 C   0  0  0  0  0  0  0  0  0  0  0  0
    7.1413  -14.8631   22.4029 N   0  0  0  0  0  0  0  0  0  0  0  0
    7.8998  -14.8833   21.1987 C   0  0  1  0  0  0  0  0  0  0  0  0
    7.7258  -13.7512   20.2572 C   0  0  0  0  0  0  0  0  0  0  0  0
    8.5277  -13.7210   19.0212 C   0  0  0  0  0  0  0  0  0  0  0  0
    7.9894  -14.6419   17.9762 C   0  0  0  0  0  0  0  0  0  0  0  0
    8.8757  -14.5193   16.7320 C   0  0  0  0  0  0  0  0  0  0  0  0
    8.3319  -15.4490   15.7552 N   0  0  0  0  0  0  0  0  0  0  0  0
    9.3793  -15.0366   21.5076 C   0  0  0  0  0  0  0  0  0  0  0  0
    9.8661  -14.5426   22.5528 O   0  0  0  0  0  0  0  0  0  0  0  0
   10.2618  -15.7337   20.6425 N   0  0  0  0  0  0  0  0  0  0  0  0
   11.6633  -15.9102   20.8638 C   0  0  1  0  0  0  0  0  0  0  0  0
   11.9738  -16.6925   22.1165 C   0  0  0  0  0  0  0  0  0  0  0  0
   11.4891  -18.1021   22.0677 C   0  0  0  0  0  0  0  0  0  0  0  0
   11.9530  -18.8195   23.2643 C   0  0  0  0  0  0  0  0  0  0  0  0
   11.4506  -19.9111   23.5784 O   0  0  0  0  0  0  0  0  0  0  0  0
   12.3511  -16.5491   19.7112 C   0  0  0  0  0  0  0  0  0  0  0  0
   13.6149  -16.5666   19.7350 O   0  0  0  0  0  0  0  0  0  0  0  0
   12.9499  -18.2794   24.0418 O   0  0  0  0  0  0  0  0  0  0  0  0
   11.7017  -17.1077   18.6475 O   0  0  0  0  0  0  0  0  0  0  0  0
  2  1  1  0
  3  2  2  0
  4  3  1  0
  5  4  2  0
  5 11  1  0
  6  5  1  0
  7  6  1  0
  7  8  1  1
  9  7  1  0
  9 10  2  0
 11 12  2  0
 12  2  1  0
 13  9  1  0
 14 13  1  0
 14 15  1  1
 16 15  1  0
 17 16  1  0
 18 17  1  0
 19 18  1  0
 20 14  1  0
 20 21  2  0
 22 20  1  0
 23 22  1  0
 23 28  1  0
 23 24  1  1
 25 26  1  0
 25 24  1  0
 26 27  2  0
 28 29  2  0
 28 31  1  0
 30 26  1  0
M  END
$$$$
