YKE.pdb
     RDKit          3D

 31 31  0  0  1  0  0  0  0  0999 V2000
    5.1538  -10.4727   28.4976 O   0  0  0  0  0  0  0  0  0  0  0  0
    5.8737  -11.4436   27.8059 C   0  0  0  0  0  0  0  0  0  0  0  0
    5.4673  -11.7796   26.5315 C   0  0  0  0  0  0  0  0  0  0  0  0
    6.1595  -12.7439   25.8088 C   0  0  0  0  0  0  0  0  0  0  0  0
    7.2593  -13.3871   26.3340 C   0  0  0  0  0  0  0  0  0  0  0  0
    7.9779  -14.4113   25.5408 C   0  0  0  0  0  0  0  0  0  0  0  0
    6.9370  -15.3428   24.9650 C   0  0  2  0  0  0  0  0  0  0  0  0
    6.7095  -16.3847   25.9400 N   0  0  0  0  0  0  0  0  0  0  0  0
    7.3488  -15.9443   23.6925 C   0  0  0  0  0  0  0  0  0  0  0  0
    7.8316  -17.0949   23.5611 O   0  0  0  0  0  0  0  0  0  0  0  0
    7.6623  -13.0492   27.6064 C   0  0  0  0  0  0  0  0  0  0  0  0
    6.9633  -12.0776   28.3324 C   0  0  0  0  0  0  0  0  0  0  0  0
    7.1946  -15.1707   22.4932 N   0  0  0  0  0  0  0  0  0  0  0  0
    8.0105  -15.4273   21.3554 C   0  0  1  0  0  0  0  0  0  0  0  0
    7.9078  -14.4911   20.2102 C   0  0  0  0  0  0  0  0  0  0  0  0
    8.6816  -14.7713   18.9878 C   0  0  0  0  0  0  0  0  0  0  0  0
    8.2123  -13.9612   17.8244 C   0  0  0  0  0  0  0  0  0  0  0  0
    9.0262  -14.3788   16.5949 C   0  0  0  0  0  0  0  0  0  0  0  0
    8.5738  -13.5309   15.5037 N   0  0  0  0  0  0  0  0  0  0  0  0
    9.4694  -15.5381   21.7645 C   0  0  0  0  0  0  0  0  0  0  0  0
    9.9850  -14.6816   22.5221 O   0  0  0  0  0  0  0  0  0  0  0  0
   10.2999  -16.5973   21.3156 N   0  0  0  0  0  0  0  0  0  0  0  0
   11.7119  -16.6818   21.5243 C   0  0  1  0  0  0  0  0  0  0  0  0
   12.1176  -17.8582   22.3782 C   0  0  0  0  0  0  0  0  0  0  0  0
   11.3231  -17.9776   23.6347 C   0  0  0  0  0  0  0  0  0  0  0  0
   11.7659  -19.1643   24.3814 C   0  0  0  0  0  0  0  0  0  0  0  0
   10.9355  -19.9257   24.9039 O   0  0  0  0  0  0  0  0  0  0  0  0
   12.4796  -16.7194   20.2520 C   0  0  0  0  0  0  0  0  0  0  0  0
   11.8164  -16.8639   19.1856 O   0  0  0  0  0  0  0  0  0  0  0  0
   13.1085  -19.4340   24.5026 O   0  0  0  0  0  0  0  0  0  0  0  0
   13.8387  -16.6082   20.1758 O   0  0  0  0  0  0  0  0  0  0  0  0
  2  1  1  0
  3  2  2  0
  4  3  1  0
  5  4  2  0
  5 11  1  0
  6  5  1  0
  7  6  1  0
  7  8  1  1
  9  7  1  0
  9 10  2  0
 11 12  2  0
 12  2  1  0
 13  9  1  0
 14 13  1  0
 14 15  1  6
 16 15  1  0
 17 16  1  0
 18 17  1  0
 19 18  1  0
 20 14  1  0
 20 21  2  0
 22 20  1  0
 23 22  1  0
 23 28  1  0
 23 24  1  6
 25 26  1  0
 25 24  1  0
 26 27  2  0
 28 29  2  0
 28 31  1  0
 30 26  1  0
M  END
$$$$
