YKE.pdb
     RDKit          3D

 31 31  0  0  1  0  0  0  0  0999 V2000
    5.3623  -10.3614   27.6893 O   0  0  0  0  0  0  0  0  0  0  0  0
    5.9961  -11.5060   27.2124 C   0  0  0  0  0  0  0  0  0  0  0  0
    5.9331  -11.7777   25.8617 C   0  0  0  0  0  0  0  0  0  0  0  0
    6.5528  -12.9101   25.3471 C   0  0  0  0  0  0  0  0  0  0  0  0
    7.2411  -13.7866   26.1577 C   0  0  0  0  0  0  0  0  0  0  0  0
    7.8920  -14.9862   25.5816 C   0  0  0  0  0  0  0  0  0  0  0  0
    6.8806  -15.6543   24.6797 C   0  0  2  0  0  0  0  0  0  0  0  0
    6.3958  -16.8250   25.3743 N   0  0  0  0  0  0  0  0  0  0  0  0
    7.4429  -16.0511   23.3846 C   0  0  0  0  0  0  0  0  0  0  0  0
    7.7548  -17.2227   23.0620 O   0  0  0  0  0  0  0  0  0  0  0  0
    7.3021  -13.5124   27.5055 C   0  0  0  0  0  0  0  0  0  0  0  0
    6.6769  -12.3710   28.0215 C   0  0  0  0  0  0  0  0  0  0  0  0
    7.6603  -15.0324   22.3969 N   0  0  0  0  0  0  0  0  0  0  0  0
    8.1423  -15.3707   21.1010 C   0  0  1  0  0  0  0  0  0  0  0  0
    7.8358  -14.4396   19.9886 C   0  0  0  0  0  0  0  0  0  0  0  0
    8.2719  -14.7888   18.6249 C   0  0  0  0  0  0  0  0  0  0  0  0
    8.1703  -13.6320   17.6860 C   0  0  0  0  0  0  0  0  0  0  0  0
    8.4203  -14.1494   16.2653 C   0  0  0  0  0  0  0  0  0  0  0  0
    8.3699  -12.9846   15.3964 N   0  0  0  0  0  0  0  0  0  0  0  0
    9.6425  -15.6065   21.1393 C   0  0  0  0  0  0  0  0  0  0  0  0
   10.3408  -15.4335   20.1117 O   0  0  0  0  0  0  0  0  0  0  0  0
   10.3100  -16.0258   22.3192 N   0  0  0  0  0  0  0  0  0  0  0  0
   11.7181  -16.2451   22.4351 C   0  0  1  0  0  0  0  0  0  0  0  0
   12.1541  -16.5808   23.8403 C   0  0  0  0  0  0  0  0  0  0  0  0
   11.3174  -17.6355   24.4820 C   0  0  0  0  0  0  0  0  0  0  0  0
   11.8868  -17.9799   25.7931 C   0  0  0  0  0  0  0  0  0  0  0  0
   13.0221  -17.5879   26.1092 O   0  0  0  0  0  0  0  0  0  0  0  0
   12.2138  -17.2977   21.5098 C   0  0  0  0  0  0  0  0  0  0  0  0
   11.3433  -17.9881   20.9070 O   0  0  0  0  0  0  0  0  0  0  0  0
   11.1583  -18.7411   26.6763 O   0  0  0  0  0  0  0  0  0  0  0  0
   13.5358  -17.5533   21.2810 O   0  0  0  0  0  0  0  0  0  0  0  0
  2  1  1  0
  3  2  2  0
  4  3  1  0
  5  4  2  0
  5 11  1  0
  6  5  1  0
  7  6  1  0
  7  8  1  1
  9  7  1  0
  9 10  2  0
 11 12  2  0
 12  2  1  0
 13  9  1  0
 14 13  1  0
 14 15  1  6
 16 15  1  0
 17 16  1  0
 18 17  1  0
 19 18  1  0
 20 14  1  0
 20 21  2  0
 22 20  1  0
 23 22  1  0
 23 28  1  0
 23 24  1  1
 25 26  1  0
 25 24  1  0
 26 27  2  0
 28 29  2  0
 28 31  1  0
 30 26  1  0
M  END
$$$$
