YKE.pdb
     RDKit          3D

 31 31  0  0  1  0  0  0  0  0999 V2000
    5.2904  -10.4070   28.0939 O   0  0  0  0  0  0  0  0  0  0  0  0
    6.0002  -11.4875   27.5760 C   0  0  0  0  0  0  0  0  0  0  0  0
    5.8542  -11.7891   26.2382 C   0  0  0  0  0  0  0  0  0  0  0  0
    6.5455  -12.8596   25.6837 C   0  0  0  0  0  0  0  0  0  0  0  0
    7.3878  -13.6441   26.4415 C   0  0  0  0  0  0  0  0  0  0  0  0
    8.1119  -14.7793   25.8239 C   0  0  0  0  0  0  0  0  0  0  0  0
    7.0931  -15.6046   25.0732 C   0  0  2  0  0  0  0  0  0  0  0  0
    6.8002  -16.7639   25.8846 N   0  0  0  0  0  0  0  0  0  0  0  0
    7.5668  -16.0370   23.7543 C   0  0  0  0  0  0  0  0  0  0  0  0
    8.0570  -17.1629   23.4972 O   0  0  0  0  0  0  0  0  0  0  0  0
    7.5312  -13.3402   27.7766 C   0  0  0  0  0  0  0  0  0  0  0  0
    6.8338  -12.2612   28.3328 C   0  0  0  0  0  0  0  0  0  0  0  0
    7.4697  -15.1127   22.6603 N   0  0  0  0  0  0  0  0  0  0  0  0
    8.0904  -15.3998   21.4119 C   0  0  1  0  0  0  0  0  0  0  0  0
    7.8279  -14.4735   20.2843 C   0  0  0  0  0  0  0  0  0  0  0  0
    8.3813  -14.7913   18.9560 C   0  0  0  0  0  0  0  0  0  0  0  0
    7.9361  -13.8209   17.9119 C   0  0  0  0  0  0  0  0  0  0  0  0
    8.4304  -14.3256   16.5519 C   0  0  0  0  0  0  0  0  0  0  0  0
    8.0904  -13.2907   15.5889 N   0  0  0  0  0  0  0  0  0  0  0  0
    9.5928  -15.5395   21.5876 C   0  0  0  0  0  0  0  0  0  0  0  0
   10.2378  -14.6927   22.2511 O   0  0  0  0  0  0  0  0  0  0  0  0
   10.3215  -16.6160   21.0188 N   0  0  0  0  0  0  0  0  0  0  0  0
   11.7404  -16.7781   21.0890 C   0  0  1  0  0  0  0  0  0  0  0  0
   12.1736  -17.7822   22.1291 C   0  0  0  0  0  0  0  0  0  0  0  0
   11.6622  -19.1590   21.8695 C   0  0  0  0  0  0  0  0  0  0  0  0
   12.2172  -20.0826   22.8699 C   0  0  0  0  0  0  0  0  0  0  0  0
   13.0468  -19.6836   23.7035 O   0  0  0  0  0  0  0  0  0  0  0  0
   12.3422  -17.1461   19.7805 C   0  0  0  0  0  0  0  0  0  0  0  0
   11.5474  -17.4912   18.8601 O   0  0  0  0  0  0  0  0  0  0  0  0
   11.8158  -21.3974   22.8836 O   0  0  0  0  0  0  0  0  0  0  0  0
   13.6838  -17.1313   19.5251 O   0  0  0  0  0  0  0  0  0  0  0  0
  2  1  1  0
  3  2  2  0
  4  3  1  0
  5  4  2  0
  5 11  1  0
  6  5  1  0
  7  6  1  0
  7  8  1  1
  9  7  1  0
  9 10  2  0
 11 12  2  0
 12  2  1  0
 13  9  1  0
 14 13  1  0
 14 15  1  6
 16 15  1  0
 17 16  1  0
 18 17  1  0
 19 18  1  0
 20 14  1  0
 20 21  2  0
 22 20  1  0
 23 22  1  0
 23 28  1  0
 23 24  1  1
 25 26  1  0
 25 24  1  0
 26 27  2  0
 28 29  2  0
 28 31  1  0
 30 26  1  0
M  END
$$$$
