YKE.pdb
     RDKit          3D

 31 31  0  0  1  0  0  0  0  0999 V2000
    7.0114  -16.0051   13.7939 O   0  0  0  0  0  0  0  0  0  0  0  0
    7.8955  -15.6154   14.7968 C   0  0  0  0  0  0  0  0  0  0  0  0
    7.7934  -14.3362   15.3022 C   0  0  0  0  0  0  0  0  0  0  0  0
    8.6573  -13.9096   16.3037 C   0  0  0  0  0  0  0  0  0  0  0  0
    9.6307  -14.7386   16.8177 C   0  0  0  0  0  0  0  0  0  0  0  0
   10.5381  -14.2569   17.8849 C   0  0  0  0  0  0  0  0  0  0  0  0
    9.7348  -14.2004   19.1634 C   0  0  2  0  0  0  0  0  0  0  0  0
    9.8368  -12.8521   19.6731 N   0  0  0  0  0  0  0  0  0  0  0  0
   10.2094  -15.1453   20.1795 C   0  0  0  0  0  0  0  0  0  0  0  0
   11.0192  -14.8708   21.0977 O   0  0  0  0  0  0  0  0  0  0  0  0
    9.7298  -16.0149   16.3109 C   0  0  0  0  0  0  0  0  0  0  0  0
    8.8584  -16.4423   15.3021 C   0  0  0  0  0  0  0  0  0  0  0  0
    9.7199  -16.4939   20.1356 N   0  0  0  0  0  0  0  0  0  0  0  0
   10.1190  -17.4422   21.1192 C   0  0  1  0  0  0  0  0  0  0  0  0
    9.3872  -18.7308   21.1691 C   0  0  0  0  0  0  0  0  0  0  0  0
    9.7977  -19.7470   22.1542 C   0  0  0  0  0  0  0  0  0  0  0  0
    8.9931  -20.9999   22.0416 C   0  0  0  0  0  0  0  0  0  0  0  0
    9.4223  -21.9437   23.1702 C   0  0  0  0  0  0  0  0  0  0  0  0
    8.5954  -23.1325   23.0393 N   0  0  0  0  0  0  0  0  0  0  0  0
   11.6059  -17.7309   21.0033 C   0  0  0  0  0  0  0  0  0  0  0  0
   12.1152  -18.0124   19.8921 O   0  0  0  0  0  0  0  0  0  0  0  0
   12.4707  -17.6957   22.1277 N   0  0  0  0  0  0  0  0  0  0  0  0
   13.8604  -17.3621   22.0876 C   0  0  1  0  0  0  0  0  0  0  0  0
   14.1392  -16.0594   21.3784 C   0  0  0  0  0  0  0  0  0  0  0  0
   14.7543  -16.2401   20.0318 C   0  0  0  0  0  0  0  0  0  0  0  0
   15.4760  -15.0154   19.6564 C   0  0  0  0  0  0  0  0  0  0  0  0
   16.6086  -14.7872   20.1120 O   0  0  0  0  0  0  0  0  0  0  0  0
   14.4806  -17.3205   23.4379 C   0  0  0  0  0  0  0  0  0  0  0  0
   15.1448  -18.3348   23.7958 O   0  0  0  0  0  0  0  0  0  0  0  0
   14.8942  -14.1158   18.7949 O   0  0  0  0  0  0  0  0  0  0  0  0
   14.3726  -16.2639   24.2965 O   0  0  0  0  0  0  0  0  0  0  0  0
  2  1  1  0
  3  2  2  0
  4  3  1  0
  5  4  2  0
  5 11  1  0
  6  5  1  0
  7  6  1  0
  7  8  1  1
  9  7  1  0
  9 10  2  0
 11 12  2  0
 12  2  1  0
 13  9  1  0
 14 13  1  0
 14 15  1  6
 16 15  1  0
 17 16  1  0
 18 17  1  0
 19 18  1  0
 20 14  1  0
 20 21  2  0
 22 20  1  0
 23 22  1  0
 23 28  1  0
 23 24  1  1
 25 26  1  0
 25 24  1  0
 26 27  2  0
 28 29  2  0
 28 31  1  0
 30 26  1  0
M  END
$$$$
