TEW.pdb
     RDKit          3D

 31 32  0  0  1  0  0  0  0  0999 V2000
   27.9004  -22.6828  -15.1248 C   0  0  0  0  0  0  0  0  0  0  0  0
   28.6387  -21.6307  -15.8845 C   0  0  1  0  0  0  0  0  0  0  0  0
   29.5825  -22.1997  -16.7237 O   0  0  0  0  0  0  0  0  0  0  0  0
   27.7618  -20.7146  -16.6892 C   0  0  2  0  0  0  0  0  0  0  0  0
   28.5065  -19.7365  -17.4382 N   0  0  0  0  0  0  0  0  0  0  0  0
   26.7721  -20.0236  -15.8030 C   0  0  0  0  0  0  0  0  0  0  0  0
   27.0908  -18.9877  -15.1592 O   0  0  0  0  0  0  0  0  0  0  0  0
   25.4388  -20.4844  -15.6364 N   0  0  0  0  0  0  0  0  0  0  0  0
   24.5185  -19.8172  -14.7463 C   0  0  1  0  0  0  0  0  0  0  0  0
   23.2299  -19.5104  -15.4359 C   0  0  0  0  0  0  0  0  0  0  0  0
   22.2577  -18.7593  -14.5702 C   0  0  0  0  0  0  0  0  0  0  0  0
   20.9848  -18.6201  -15.3277 C   0  0  0  0  0  0  0  0  0  0  0  0
   20.4772  -19.5549  -15.9873 O   0  0  0  0  0  0  0  0  0  0  0  0
   24.2524  -20.6184  -13.5248 C   0  0  0  0  0  0  0  0  0  0  0  0
   23.9431  -21.8261  -13.6690 O   0  0  0  0  0  0  0  0  0  0  0  0
   20.3062  -17.4013  -15.3183 O   0  0  0  0  0  0  0  0  0  0  0  0
   24.3319  -20.0845  -12.2140 N   0  0  0  0  0  0  0  0  0  0  0  0
   24.0632  -20.9517  -11.0383 C   0  0  1  0  0  0  0  0  0  0  0  0
   24.6725  -20.2889   -9.8350 C   0  0  0  0  0  0  0  0  0  0  0  0
   26.0925  -20.5224   -9.5986 C   0  0  0  0  0  0  0  0  0  0  0  0
   26.9552  -21.2079  -10.4532 C   0  0  0  0  0  0  0  0  0  0  0  0
   28.1734  -21.2464   -9.8827 N   0  0  0  0  0  0  0  0  0  0  0  0
   28.1741  -20.6312   -8.7076 C   0  0  0  0  0  0  0  0  0  0  0  0
   29.1440  -20.3837   -7.7550 C   0  0  0  0  0  0  0  0  0  0  0  0
   28.8794  -19.6880   -6.6023 C   0  0  0  0  0  0  0  0  0  0  0  0
   27.6072  -19.2278   -6.3994 C   0  0  0  0  0  0  0  0  0  0  0  0
   26.6403  -19.4723   -7.3435 C   0  0  0  0  0  0  0  0  0  0  0  0
   26.8673  -20.1717   -8.5205 C   0  0  0  0  0  0  0  0  0  0  0  0
   22.6111  -21.1280  -10.9803 C   0  0  0  0  0  0  0  0  0  0  0  0
   21.7616  -20.2897  -11.4016 O   0  0  0  0  0  0  0  0  0  0  0  0
   22.0255  -22.2874  -10.4308 O   0  0  0  0  0  0  0  0  0  0  0  0
  2  1  1  6
  3  2  1  0
  4  2  1  0
  4  5  1  1
  6  4  1  0
  6  7  2  0
  8  6  1  0
  9  8  1  0
  9 10  1  6
 11 10  1  0
 12 11  1  0
 13 12  2  0
 14  9  1  0
 15 14  2  0
 16 12  1  0
 17 14  1  0
 18 17  1  0
 18 19  1  1
 20 28  1  0
 20 19  1  0
 21 20  2  0
 22 21  1  0
 22 23  1  0
 23 28  2  0
 24 23  1  0
 24 25  2  0
 25 26  1  0
 26 27  2  0
 28 27  1  0
 29 18  1  0
 30 29  2  0
 31 29  1  0
M  END
$$$$
