TEW.pdb
     RDKit          3D

 31 32  0  0  1  0  0  0  0  0999 V2000
   19.1699  -18.0211  -12.9628 C   0  0  0  0  0  0  0  0  0  0  0  0
   20.3712  -18.7837  -12.5109 C   0  0  1  0  0  0  0  0  0  0  0  0
   20.7059  -18.4495  -11.2088 O   0  0  0  0  0  0  0  0  0  0  0  0
   20.2333  -20.2760  -12.6096 C   0  0  2  0  0  0  0  0  0  0  0  0
   19.2379  -20.8099  -11.7171 N   0  0  0  0  0  0  0  0  0  0  0  0
   21.5494  -20.9425  -12.3525 C   0  0  0  0  0  0  0  0  0  0  0  0
   21.8045  -21.4639  -11.2335 O   0  0  0  0  0  0  0  0  0  0  0  0
   22.5718  -21.0263  -13.3351 N   0  0  0  0  0  0  0  0  0  0  0  0
   23.8357  -21.6639  -13.0523 C   0  0  1  0  0  0  0  0  0  0  0  0
   24.5652  -21.9952  -14.3126 C   0  0  0  0  0  0  0  0  0  0  0  0
   25.8554  -22.7287  -14.0763 C   0  0  0  0  0  0  0  0  0  0  0  0
   26.4297  -23.0817  -15.4026 C   0  0  0  0  0  0  0  0  0  0  0  0
   25.9181  -22.7199  -16.4861 O   0  0  0  0  0  0  0  0  0  0  0  0
   24.6971  -20.8222  -12.1837 C   0  0  0  0  0  0  0  0  0  0  0  0
   24.7492  -19.5911  -12.4225 O   0  0  0  0  0  0  0  0  0  0  0  0
   27.5916  -23.8509  -15.4687 O   0  0  0  0  0  0  0  0  0  0  0  0
   25.4564  -21.3425  -11.1057 N   0  0  0  0  0  0  0  0  0  0  0  0
   26.3209  -20.4426  -10.2999 C   0  0  1  0  0  0  0  0  0  0  0  0
   26.0723  -20.7505   -8.8502 C   0  0  0  0  0  0  0  0  0  0  0  0
   26.7697  -19.9267   -7.8695 C   0  0  0  0  0  0  0  0  0  0  0  0
   26.7965  -18.5326   -7.8533 C   0  0  0  0  0  0  0  0  0  0  0  0
   27.5648  -18.1362   -6.8219 N   0  0  0  0  0  0  0  0  0  0  0  0
   28.0476  -19.1757   -6.1543 C   0  0  0  0  0  0  0  0  0  0  0  0
   28.8533  -19.3095   -5.0397 C   0  0  0  0  0  0  0  0  0  0  0  0
   29.1990  -20.5345   -4.5273 C   0  0  0  0  0  0  0  0  0  0  0  0
   28.7234  -21.6561   -5.1497 C   0  0  0  0  0  0  0  0  0  0  0  0
   27.9229  -21.5273   -6.2581 C   0  0  0  0  0  0  0  0  0  0  0  0
   27.5517  -20.3079   -6.8069 C   0  0  0  0  0  0  0  0  0  0  0  0
   27.6927  -20.6728  -10.7562 C   0  0  0  0  0  0  0  0  0  0  0  0
   28.0942  -21.7166  -11.3488 O   0  0  0  0  0  0  0  0  0  0  0  0
   28.7096  -19.7145  -10.5639 O   0  0  0  0  0  0  0  0  0  0  0  0
  2  1  1  1
  3  2  1  0
  4  2  1  0
  4  5  1  1
  6  4  1  0
  6  7  2  0
  8  6  1  0
  9  8  1  0
  9 10  1  6
 11 10  1  0
 12 11  1  0
 13 12  2  0
 14  9  1  0
 15 14  2  0
 16 12  1  0
 17 14  1  0
 18 17  1  0
 18 19  1  1
 20 28  1  0
 20 19  1  0
 21 20  2  0
 22 21  1  0
 22 23  1  0
 23 28  2  0
 24 23  1  0
 24 25  2  0
 25 26  1  0
 26 27  2  0
 28 27  1  0
 29 18  1  0
 30 29  2  0
 31 29  1  0
M  END
$$$$
