TEW.pdb
     RDKit          3D

 31 32  0  0  1  0  0  0  0  0999 V2000
   19.7826  -11.7536  -18.1621 C   0  0  0  0  0  0  0  0  0  0  0  0
   19.2206  -12.0206  -16.8049 C   0  0  1  0  0  0  0  0  0  0  0  0
   19.3402  -13.3612  -16.4771 O   0  0  0  0  0  0  0  0  0  0  0  0
   19.8287  -11.1955  -15.7071 C   0  0  2  0  0  0  0  0  0  0  0  0
   19.3910  -11.5937  -14.3949 N   0  0  0  0  0  0  0  0  0  0  0  0
   19.5326   -9.7428  -15.9175 C   0  0  0  0  0  0  0  0  0  0  0  0
   18.3508   -9.3409  -16.0940 O   0  0  0  0  0  0  0  0  0  0  0  0
   20.5459   -8.7473  -15.9309 N   0  0  0  0  0  0  0  0  0  0  0  0
   20.2368   -7.3636  -16.2030 C   0  0  1  0  0  0  0  0  0  0  0  0
   21.1107   -6.4506  -15.4075 C   0  0  0  0  0  0  0  0  0  0  0  0
   20.7814   -6.4424  -13.9411 C   0  0  0  0  0  0  0  0  0  0  0  0
   21.7574   -5.5505  -13.2588 C   0  0  0  0  0  0  0  0  0  0  0  0
   22.8253   -5.9657  -12.7551 O   0  0  0  0  0  0  0  0  0  0  0  0
   20.3636   -7.0429  -17.6472 C   0  0  0  0  0  0  0  0  0  0  0  0
   21.3549   -7.5000  -18.2666 O   0  0  0  0  0  0  0  0  0  0  0  0
   21.4932   -4.1841  -13.1626 O   0  0  0  0  0  0  0  0  0  0  0  0
   19.4229   -6.2504  -18.3518 N   0  0  0  0  0  0  0  0  0  0  0  0
   19.5922   -6.0102  -19.8078 C   0  0  1  0  0  0  0  0  0  0  0  0
   18.8758   -7.1116  -20.5372 C   0  0  0  0  0  0  0  0  0  0  0  0
   18.8030   -7.0054  -21.9899 C   0  0  0  0  0  0  0  0  0  0  0  0
   19.7177   -7.5508  -22.8900 C   0  0  0  0  0  0  0  0  0  0  0  0
   19.3353   -7.2170  -24.1363 N   0  0  0  0  0  0  0  0  0  0  0  0
   18.2277   -6.4872  -24.1205 C   0  0  0  0  0  0  0  0  0  0  0  0
   17.4387   -5.9200  -25.1028 C   0  0  0  0  0  0  0  0  0  0  0  0
   16.3022   -5.2087  -24.8111 C   0  0  0  0  0  0  0  0  0  0  0  0
   15.9472   -5.0623  -23.4980 C   0  0  0  0  0  0  0  0  0  0  0  0
   16.7292   -5.6240  -22.5187 C   0  0  0  0  0  0  0  0  0  0  0  0
   17.8849   -6.3491  -22.7724 C   0  0  0  0  0  0  0  0  0  0  0  0
   19.0820   -4.6623  -20.0645 C   0  0  0  0  0  0  0  0  0  0  0  0
   18.2205   -4.0657  -19.3547 O   0  0  0  0  0  0  0  0  0  0  0  0
   19.5271   -3.8968  -21.1623 O   0  0  0  0  0  0  0  0  0  0  0  0
  2  1  1  6
  3  2  1  0
  4  2  1  0
  4  5  1  1
  6  4  1  0
  6  7  2  0
  8  6  1  0
  9  8  1  0
  9 10  1  1
 11 10  1  0
 12 11  1  0
 13 12  2  0
 14  9  1  0
 15 14  2  0
 16 12  1  0
 17 14  1  0
 18 17  1  0
 18 19  1  6
 20 28  1  0
 20 19  1  0
 21 20  2  0
 22 21  1  0
 22 23  1  0
 23 28  2  0
 24 23  1  0
 24 25  2  0
 25 26  1  0
 26 27  2  0
 28 27  1  0
 29 18  1  0
 30 29  2  0
 31 29  1  0
M  END
$$$$
