TEW.pdb
     RDKit          3D

 31 32  0  0  1  0  0  0  0  0999 V2000
   27.4687  -20.5836  -15.6637 C   0  0  0  0  0  0  0  0  0  0  0  0
   27.9924  -21.1582  -16.9383 C   0  0  1  0  0  0  0  0  0  0  0  0
   29.3668  -21.0052  -17.0197 O   0  0  0  0  0  0  0  0  0  0  0  0
   27.6506  -22.6046  -17.1546 C   0  0  2  0  0  0  0  0  0  0  0  0
   28.1029  -23.1062  -18.4258 N   0  0  0  0  0  0  0  0  0  0  0  0
   26.1743  -22.8197  -17.0249 C   0  0  0  0  0  0  0  0  0  0  0  0
   25.3828  -22.4489  -17.9333 O   0  0  0  0  0  0  0  0  0  0  0  0
   25.5863  -23.4426  -15.8917 N   0  0  0  0  0  0  0  0  0  0  0  0
   24.1533  -23.5211  -15.7360 C   0  0  1  0  0  0  0  0  0  0  0  0
   23.7438  -24.8470  -15.1842 C   0  0  0  0  0  0  0  0  0  0  0  0
   22.2587  -24.9778  -14.9944 C   0  0  0  0  0  0  0  0  0  0  0  0
   21.9825  -26.3471  -14.4824 C   0  0  0  0  0  0  0  0  0  0  0  0
   21.8846  -27.3478  -15.2278 O   0  0  0  0  0  0  0  0  0  0  0  0
   23.6317  -22.4361  -14.8668 C   0  0  0  0  0  0  0  0  0  0  0  0
   24.1290  -22.3095  -13.7214 O   0  0  0  0  0  0  0  0  0  0  0  0
   21.8211  -26.5517  -13.1119 O   0  0  0  0  0  0  0  0  0  0  0  0
   22.6061  -21.5443  -15.2695 N   0  0  0  0  0  0  0  0  0  0  0  0
   22.2313  -20.3984  -14.4018 C   0  0  1  0  0  0  0  0  0  0  0  0
   23.0231  -19.2049  -14.8568 C   0  0  0  0  0  0  0  0  0  0  0  0
   22.7271  -18.6816  -16.1855 C   0  0  0  0  0  0  0  0  0  0  0  0
   21.5704  -17.9916  -16.5465 C   0  0  0  0  0  0  0  0  0  0  0  0
   21.6442  -17.6993  -17.8580 N   0  0  0  0  0  0  0  0  0  0  0  0
   22.7734  -18.1496  -18.3886 C   0  0  0  0  0  0  0  0  0  0  0  0
   23.3255  -18.0991  -19.6543 C   0  0  0  0  0  0  0  0  0  0  0  0
   24.5523  -18.6424  -19.9416 C   0  0  0  0  0  0  0  0  0  0  0  0
   25.2445  -19.2530  -18.9317 C   0  0  0  0  0  0  0  0  0  0  0  0
   24.6988  -19.3057  -17.6726 C   0  0  0  0  0  0  0  0  0  0  0  0
   23.4621  -18.7696  -17.3422 C   0  0  0  0  0  0  0  0  0  0  0  0
   20.7784  -20.2571  -14.5117 C   0  0  0  0  0  0  0  0  0  0  0  0
   20.0706  -19.4773  -13.8098 O   0  0  0  0  0  0  0  0  0  0  0  0
   20.0280  -21.0061  -15.4419 O   0  0  0  0  0  0  0  0  0  0  0  0
  2  1  1  1
  3  2  1  0
  4  2  1  0
  4  5  1  6
  6  4  1  0
  6  7  2  0
  8  6  1  0
  9  8  1  0
  9 10  1  1
 11 10  1  0
 12 11  1  0
 13 12  2  0
 14  9  1  0
 15 14  2  0
 16 12  1  0
 17 14  1  0
 18 17  1  0
 18 19  1  6
 20 28  1  0
 20 19  1  0
 21 20  2  0
 22 21  1  0
 22 23  1  0
 23 28  2  0
 24 23  1  0
 24 25  2  0
 25 26  1  0
 26 27  2  0
 28 27  1  0
 29 18  1  0
 30 29  2  0
 31 29  1  0
M  END
$$$$
