TEW.pdb
     RDKit          3D

 31 32  0  0  1  0  0  0  0  0999 V2000
   29.7418  -17.7902  -15.8232 C   0  0  0  0  0  0  0  0  0  0  0  0
   28.6205  -18.2008  -14.9270 C   0  0  1  0  0  0  0  0  0  0  0  0
   27.8249  -17.1138  -14.6035 O   0  0  0  0  0  0  0  0  0  0  0  0
   27.7504  -19.2926  -15.4805 C   0  0  2  0  0  0  0  0  0  0  0  0
   27.1766  -18.9620  -16.7587 N   0  0  0  0  0  0  0  0  0  0  0  0
   26.6603  -19.6358  -14.5129 C   0  0  0  0  0  0  0  0  0  0  0  0
   25.6424  -18.9014  -14.3957 O   0  0  0  0  0  0  0  0  0  0  0  0
   26.7055  -20.7880  -13.6832 N   0  0  0  0  0  0  0  0  0  0  0  0
   25.6175  -21.1166  -12.7931 C   0  0  1  0  0  0  0  0  0  0  0  0
   24.9879  -22.4172  -13.1702 C   0  0  0  0  0  0  0  0  0  0  0  0
   23.7915  -22.7634  -12.3289 C   0  0  0  0  0  0  0  0  0  0  0  0
   23.2385  -24.0507  -12.8293 C   0  0  0  0  0  0  0  0  0  0  0  0
   22.2179  -24.5895  -12.3448 O   0  0  0  0  0  0  0  0  0  0  0  0
   26.0590  -21.1680  -11.3764 C   0  0  0  0  0  0  0  0  0  0  0  0
   27.0684  -21.8606  -11.0994 O   0  0  0  0  0  0  0  0  0  0  0  0
   23.8684  -24.7078  -13.8864 O   0  0  0  0  0  0  0  0  0  0  0  0
   25.3972  -20.4755  -10.3315 N   0  0  0  0  0  0  0  0  0  0  0  0
   25.8214  -20.6713   -8.9215 C   0  0  1  0  0  0  0  0  0  0  0  0
   26.3105  -19.3474   -8.4052 C   0  0  0  0  0  0  0  0  0  0  0  0
   27.5978  -19.3388   -7.7199 C   0  0  0  0  0  0  0  0  0  0  0  0
   28.8382  -19.1427   -8.3260 C   0  0  0  0  0  0  0  0  0  0  0  0
   29.7906  -19.2348   -7.3798 N   0  0  0  0  0  0  0  0  0  0  0  0
   29.2625  -19.4782   -6.1876 C   0  0  0  0  0  0  0  0  0  0  0  0
   29.7891  -19.6416   -4.9206 C   0  0  0  0  0  0  0  0  0  0  0  0
   28.9995  -19.8716   -3.8222 C   0  0  0  0  0  0  0  0  0  0  0  0
   27.6447  -19.9395   -3.9994 C   0  0  0  0  0  0  0  0  0  0  0  0
   27.1176  -19.7782   -5.2572 C   0  0  0  0  0  0  0  0  0  0  0  0
   27.8814  -19.5450   -6.3922 C   0  0  0  0  0  0  0  0  0  0  0  0
   24.6630  -21.2222   -8.2161 C   0  0  0  0  0  0  0  0  0  0  0  0
   23.4753  -21.2109   -8.6530 O   0  0  0  0  0  0  0  0  0  0  0  0
   24.7856  -21.8302   -6.9494 O   0  0  0  0  0  0  0  0  0  0  0  0
  2  1  1  6
  3  2  1  0
  4  2  1  0
  4  5  1  6
  6  4  1  0
  6  7  2  0
  8  6  1  0
  9  8  1  0
  9 10  1  6
 11 10  1  0
 12 11  1  0
 13 12  2  0
 14  9  1  0
 15 14  2  0
 16 12  1  0
 17 14  1  0
 18 17  1  0
 18 19  1  1
 20 28  1  0
 20 19  1  0
 21 20  2  0
 22 21  1  0
 22 23  1  0
 23 28  2  0
 24 23  1  0
 24 25  2  0
 25 26  1  0
 26 27  2  0
 28 27  1  0
 29 18  1  0
 30 29  2  0
 31 29  1  0
M  END
$$$$
