TEW.pdb
     RDKit          3D

 31 32  0  0  1  0  0  0  0  0999 V2000
   17.5249  -10.6915  -16.1343 C   0  0  0  0  0  0  0  0  0  0  0  0
   17.3226  -10.6201  -17.6118 C   0  0  1  0  0  0  0  0  0  0  0  0
   16.5444  -11.6772  -18.0543 O   0  0  0  0  0  0  0  0  0  0  0  0
   16.7155   -9.3339  -18.0945 C   0  0  2  0  0  0  0  0  0  0  0  0
   16.4418   -9.3359  -19.5077 N   0  0  0  0  0  0  0  0  0  0  0  0
   17.6019   -8.1757  -17.7549 C   0  0  0  0  0  0  0  0  0  0  0  0
   18.7807   -8.1099  -18.1969 O   0  0  0  0  0  0  0  0  0  0  0  0
   17.1770   -7.1006  -16.9294 N   0  0  0  0  0  0  0  0  0  0  0  0
   18.1024   -6.0896  -16.4761 C   0  0  1  0  0  0  0  0  0  0  0  0
   17.3906   -4.9938  -15.7532 C   0  0  0  0  0  0  0  0  0  0  0  0
   18.3069   -3.8980  -15.2860 C   0  0  0  0  0  0  0  0  0  0  0  0
   17.4804   -2.8805  -14.5824 C   0  0  0  0  0  0  0  0  0  0  0  0
   17.1528   -1.7896  -15.1013 O   0  0  0  0  0  0  0  0  0  0  0  0
   19.1590   -6.6597  -15.6024 C   0  0  0  0  0  0  0  0  0  0  0  0
   18.8676   -7.6600  -14.9027 O   0  0  0  0  0  0  0  0  0  0  0  0
   17.0376   -3.1297  -13.2832 O   0  0  0  0  0  0  0  0  0  0  0  0
   20.4713   -6.1293  -15.5242 N   0  0  0  0  0  0  0  0  0  0  0  0
   21.5213   -6.8476  -14.7575 C   0  0  1  0  0  0  0  0  0  0  0  0
   21.7531   -8.1703  -15.4321 C   0  0  0  0  0  0  0  0  0  0  0  0
   22.8854   -8.9620  -14.9654 C   0  0  0  0  0  0  0  0  0  0  0  0
   22.9054   -9.7495  -13.8148 C   0  0  0  0  0  0  0  0  0  0  0  0
   24.1283  -10.2992  -13.6996 N   0  0  0  0  0  0  0  0  0  0  0  0
   24.9187   -9.9280  -14.6981 C   0  0  0  0  0  0  0  0  0  0  0  0
   26.2249  -10.2155  -15.0452 C   0  0  0  0  0  0  0  0  0  0  0  0
   26.8147   -9.7007  -16.1720 C   0  0  0  0  0  0  0  0  0  0  0  0
   26.0741   -8.8749  -16.9728 C   0  0  0  0  0  0  0  0  0  0  0  0
   24.7757   -8.5863  -16.6308 C   0  0  0  0  0  0  0  0  0  0  0  0
   24.1440   -9.0857  -15.5006 C   0  0  0  0  0  0  0  0  0  0  0  0
   22.6839   -5.9587  -14.7200 C   0  0  0  0  0  0  0  0  0  0  0  0
   23.5906   -5.9877  -13.8375 O   0  0  0  0  0  0  0  0  0  0  0  0
   22.8908   -4.9654  -15.6997 O   0  0  0  0  0  0  0  0  0  0  0  0
  2  1  1  1
  3  2  1  0
  4  2  1  0
  4  5  1  6
  6  4  1  0
  6  7  2  0
  8  6  1  0
  9  8  1  0
  9 10  1  1
 11 10  1  0
 12 11  1  0
 13 12  2  0
 14  9  1  0
 15 14  2  0
 16 12  1  0
 17 14  1  0
 18 17  1  0
 18 19  1  6
 20 28  1  0
 20 19  1  0
 21 20  2  0
 22 21  1  0
 22 23  1  0
 23 28  2  0
 24 23  1  0
 24 25  2  0
 25 26  1  0
 26 27  2  0
 28 27  1  0
 29 18  1  0
 30 29  2  0
 31 29  1  0
M  END
$$$$
