TVF.pdb
     RDKit          3D

 26 26  0  0  1  0  0  0  0  0999 V2000
   25.3902  -14.3325  -15.7265 C   0  0  0  0  0  0  0  0  0  0  0  0
   24.9730  -12.9428  -16.1862 C   0  0  1  0  0  0  0  0  0  0  0  0
   26.0198  -12.4426  -16.9338 O   0  0  0  0  0  0  0  0  0  0  0  0
   23.6988  -13.1038  -16.9575 C   0  0  2  0  0  0  0  0  0  0  0  0
   23.9408  -13.9492  -18.1047 N   0  0  0  0  0  0  0  0  0  0  0  0
   23.0385  -11.8404  -17.3153 C   0  0  0  0  0  0  0  0  0  0  0  0
   23.3676  -11.2505  -18.3780 O   0  0  0  0  0  0  0  0  0  0  0  0
   19.6512  -11.4256  -17.6371 C   0  0  0  0  0  0  0  0  0  0  0  0
   20.0746  -10.0236  -17.3512 C   0  0  1  0  0  0  0  0  0  0  0  0
   19.0501   -9.3715  -16.4511 C   0  0  0  0  0  0  0  0  0  0  0  0
   21.4661   -9.9445  -16.7527 C   0  0  2  0  0  0  0  0  0  0  0  0
   22.0379  -11.2382  -16.5222 N   0  0  0  0  0  0  0  0  0  0  0  0
   21.3305   -9.2365  -15.4541 C   0  0  0  0  0  0  0  0  0  0  0  0
   20.9038   -9.8485  -14.4459 O   0  0  0  0  0  0  0  0  0  0  0  0
   21.6658   -7.8671  -15.2831 N   0  0  0  0  0  0  0  0  0  0  0  0
   21.5656   -7.1706  -14.0164 C   0  0  1  0  0  0  0  0  0  0  0  0
   22.7404   -6.2133  -13.9707 C   0  0  0  0  0  0  0  0  0  0  0  0
   22.4672   -4.9047  -14.5796 C   0  0  0  0  0  0  0  0  0  0  0  0
   21.9459   -3.8801  -13.8291 C   0  0  0  0  0  0  0  0  0  0  0  0
   21.6781   -2.6268  -14.3672 C   0  0  0  0  0  0  0  0  0  0  0  0
   21.9599   -2.4470  -15.7057 C   0  0  0  0  0  0  0  0  0  0  0  0
   22.4880   -3.4657  -16.4913 C   0  0  0  0  0  0  0  0  0  0  0  0
   22.7398   -4.7006  -15.9132 C   0  0  0  0  0  0  0  0  0  0  0  0
   20.2762   -6.4863  -13.9376 C   0  0  0  0  0  0  0  0  0  0  0  0
   19.7622   -6.1408  -12.6910 O   0  0  0  0  0  0  0  0  0  0  0  0
   19.5886   -6.1860  -14.9735 O   0  0  0  0  0  0  0  0  0  0  0  0
  2  1  1  6
  3  2  1  0
  4  2  1  0
  4  6  1  0
  4  5  1  6
  6  7  2  0
  9  8  1  1
  9 11  1  0
 10  9  1  0
 12  6  1  0
 11 12  1  1
 13 11  1  0
 13 14  2  0
 15 13  1  0
 16 15  1  0
 16 24  1  0
 16 17  1  6
 18 23  2  0
 18 17  1  0
 19 18  1  0
 20 21  1  0
 20 19  2  0
 21 22  2  0
 22 23  1  0
 24 26  2  0
 24 25  1  0
M  END
$$$$
