TVF.pdb
     RDKit          3D

 26 26  0  0  1  0  0  0  0  0999 V2000
   19.9726  -17.8204  -12.9504 C   0  0  0  0  0  0  0  0  0  0  0  0
   20.8806  -18.6771  -12.0793 C   0  0  1  0  0  0  0  0  0  0  0  0
   20.2114  -18.8791  -10.8893 O   0  0  0  0  0  0  0  0  0  0  0  0
   21.1546  -19.9364  -12.8430 C   0  0  2  0  0  0  0  0  0  0  0  0
   19.9148  -20.6529  -13.0394 N   0  0  0  0  0  0  0  0  0  0  0  0
   22.2109  -20.7811  -12.2676 C   0  0  0  0  0  0  0  0  0  0  0  0
   21.9279  -21.5702  -11.3279 O   0  0  0  0  0  0  0  0  0  0  0  0
   26.2784  -20.7443  -13.8603 C   0  0  0  0  0  0  0  0  0  0  0  0
   25.6645  -21.9158  -13.1694 C   0  0  1  0  0  0  0  0  0  0  0  0
   26.7591  -22.7521  -12.5468 C   0  0  0  0  0  0  0  0  0  0  0  0
   24.6270  -21.5089  -12.1404 C   0  0  2  0  0  0  0  0  0  0  0  0
   23.5495  -20.7591  -12.7153 N   0  0  0  0  0  0  0  0  0  0  0  0
   25.3282  -20.6617  -11.1421 C   0  0  0  0  0  0  0  0  0  0  0  0
   25.4397  -19.4271  -11.3329 O   0  0  0  0  0  0  0  0  0  0  0  0
   25.8959  -21.1838   -9.9497 N   0  0  0  0  0  0  0  0  0  0  0  0
   26.8443  -20.4572   -9.1297 C   0  0  1  0  0  0  0  0  0  0  0  0
   26.3114  -20.5259   -7.7121 C   0  0  0  0  0  0  0  0  0  0  0  0
   27.2149  -19.9505   -6.7069 C   0  0  0  0  0  0  0  0  0  0  0  0
   27.8845  -20.7609   -5.8239 C   0  0  0  0  0  0  0  0  0  0  0  0
   28.7512  -20.2554   -4.8619 C   0  0  0  0  0  0  0  0  0  0  0  0
   28.9166  -18.8862   -4.8262 C   0  0  0  0  0  0  0  0  0  0  0  0
   28.2521  -18.0399   -5.7071 C   0  0  0  0  0  0  0  0  0  0  0  0
   27.3967  -18.5873   -6.6511 C   0  0  0  0  0  0  0  0  0  0  0  0
   28.1685  -21.0617   -9.2652 C   0  0  0  0  0  0  0  0  0  0  0  0
   29.3006  -20.2687   -9.1009 O   0  0  0  0  0  0  0  0  0  0  0  0
   28.3385  -22.3013   -9.5311 O   0  0  0  0  0  0  0  0  0  0  0  0
  2  1  1  6
  3  2  1  0
  4  2  1  0
  4  6  1  0
  4  5  1  1
  6  7  2  0
  9  8  1  1
  9 11  1  0
 10  9  1  0
 12  6  1  0
 11 12  1  6
 13 11  1  0
 13 14  2  0
 15 13  1  0
 16 15  1  0
 16 24  1  0
 16 17  1  1
 18 23  2  0
 18 17  1  0
 19 18  1  0
 20 21  1  0
 20 19  2  0
 21 22  2  0
 22 23  1  0
 24 26  2  0
 24 25  1  0
M  END
$$$$
