TVF.pdb
     RDKit          3D

 26 26  0  0  1  0  0  0  0  0999 V2000
   23.3988   -2.5201  -17.2649 C   0  0  0  0  0  0  0  0  0  0  0  0
   23.0806   -1.2843  -18.0947 C   0  0  1  0  0  0  0  0  0  0  0  0
   24.2486   -0.9286  -18.7383 O   0  0  0  0  0  0  0  0  0  0  0  0
   21.9658   -1.6584  -19.0228 C   0  0  2  0  0  0  0  0  0  0  0  0
   21.5282   -0.4818  -19.7392 N   0  0  0  0  0  0  0  0  0  0  0  0
   20.8545   -2.3767  -18.3829 C   0  0  0  0  0  0  0  0  0  0  0  0
   20.0184   -1.7344  -17.6945 O   0  0  0  0  0  0  0  0  0  0  0  0
   17.7861   -4.0557  -19.5396 C   0  0  0  0  0  0  0  0  0  0  0  0
   18.6422   -5.0971  -18.8998 C   0  0  1  0  0  0  0  0  0  0  0  0
   19.3732   -5.8662  -19.9765 C   0  0  0  0  0  0  0  0  0  0  0  0
   19.6070   -4.5164  -17.8837 C   0  0  2  0  0  0  0  0  0  0  0  0
   20.6662   -3.7711  -18.4973 N   0  0  0  0  0  0  0  0  0  0  0  0
   20.1887   -5.6660  -17.1447 C   0  0  0  0  0  0  0  0  0  0  0  0
   21.3900   -5.9820  -17.3181 O   0  0  0  0  0  0  0  0  0  0  0  0
   19.4417   -6.4506  -16.2265 N   0  0  0  0  0  0  0  0  0  0  0  0
   20.0024   -7.5572  -15.4777 C   0  0  1  0  0  0  0  0  0  0  0  0
   21.0746   -6.9601  -14.5875 C   0  0  0  0  0  0  0  0  0  0  0  0
   21.6801   -7.9215  -13.6565 C   0  0  0  0  0  0  0  0  0  0  0  0
   21.1500   -8.1102  -12.4042 C   0  0  0  0  0  0  0  0  0  0  0  0
   21.6910   -9.0135  -11.4967 C   0  0  0  0  0  0  0  0  0  0  0  0
   22.7991   -9.7254  -11.9074 C   0  0  0  0  0  0  0  0  0  0  0  0
   23.3585   -9.5560  -13.1691 C   0  0  0  0  0  0  0  0  0  0  0  0
   22.7862   -8.6439  -14.0428 C   0  0  0  0  0  0  0  0  0  0  0  0
   18.9423   -8.2187  -14.7190 C   0  0  0  0  0  0  0  0  0  0  0  0
   18.9837   -9.5999  -14.5506 O   0  0  0  0  0  0  0  0  0  0  0  0
   17.9654   -7.5803  -14.1955 O   0  0  0  0  0  0  0  0  0  0  0  0
  2  1  1  1
  3  2  1  0
  4  2  1  0
  4  6  1  0
  4  5  1  1
  6  7  2  0
  9  8  1  6
  9 11  1  0
 10  9  1  0
 12  6  1  0
 11 12  1  6
 13 11  1  0
 13 14  2  0
 15 13  1  0
 16 15  1  0
 16 24  1  0
 16 17  1  1
 18 23  2  0
 18 17  1  0
 19 18  1  0
 20 21  1  0
 20 19  2  0
 21 22  2  0
 22 23  1  0
 24 26  2  0
 24 25  1  0
M  END
$$$$
