TVF.pdb
     RDKit          3D

 26 26  0  0  1  0  0  0  0  0999 V2000
   29.0256  -20.9706  -13.7287 C   0  0  0  0  0  0  0  0  0  0  0  0
   28.6665  -20.1073  -14.9299 C   0  0  1  0  0  0  0  0  0  0  0  0
   29.3489  -20.6291  -16.0101 O   0  0  0  0  0  0  0  0  0  0  0  0
   27.1760  -20.1574  -15.0718 C   0  0  2  0  0  0  0  0  0  0  0  0
   26.7904  -19.4733  -16.2853 N   0  0  0  0  0  0  0  0  0  0  0  0
   26.4349  -19.6820  -13.8948 C   0  0  0  0  0  0  0  0  0  0  0  0
   26.2605  -18.4456  -13.7323 O   0  0  0  0  0  0  0  0  0  0  0  0
   22.9111  -20.0512  -12.7147 C   0  0  0  0  0  0  0  0  0  0  0  0
   23.7889  -20.6513  -11.6678 C   0  0  1  0  0  0  0  0  0  0  0  0
   23.7482  -22.1573  -11.7924 C   0  0  0  0  0  0  0  0  0  0  0  0
   25.2119  -20.1300  -11.7298 C   0  0  2  0  0  0  0  0  0  0  0  0
   25.8971  -20.5471  -12.9174 N   0  0  0  0  0  0  0  0  0  0  0  0
   25.9180  -20.6802  -10.5446 C   0  0  0  0  0  0  0  0  0  0  0  0
   26.4109  -21.8328  -10.5854 O   0  0  0  0  0  0  0  0  0  0  0  0
   26.0719  -19.9556   -9.3330 N   0  0  0  0  0  0  0  0  0  0  0  0
   26.7551  -20.4802   -8.1678 C   0  0  1  0  0  0  0  0  0  0  0  0
   27.6127  -19.3470   -7.6395 C   0  0  0  0  0  0  0  0  0  0  0  0
   28.2608  -19.6391   -6.3540 C   0  0  0  0  0  0  0  0  0  0  0  0
   29.3949  -20.4110   -6.3028 C   0  0  0  0  0  0  0  0  0  0  0  0
   30.0397  -20.7057   -5.1072 C   0  0  0  0  0  0  0  0  0  0  0  0
   29.4890  -20.1854   -3.9543 C   0  0  0  0  0  0  0  0  0  0  0  0
   28.3413  -19.4005   -3.9744 C   0  0  0  0  0  0  0  0  0  0  0  0
   27.7304  -19.1314   -5.1898 C   0  0  0  0  0  0  0  0  0  0  0  0
   25.7693  -20.9441   -7.1930 C   0  0  0  0  0  0  0  0  0  0  0  0
   26.1491  -21.8716   -6.2270 O   0  0  0  0  0  0  0  0  0  0  0  0
   24.5582  -20.5328   -7.1854 O   0  0  0  0  0  0  0  0  0  0  0  0
  2  1  1  1
  3  2  1  0
  4  2  1  0
  4  6  1  0
  4  5  1  6
  6  7  2  0
  9  8  1  6
  9 11  1  0
 10  9  1  0
 12  6  1  0
 11 12  1  6
 13 11  1  0
 13 14  2  0
 15 13  1  0
 16 15  1  0
 16 24  1  0
 16 17  1  1
 18 23  2  0
 18 17  1  0
 19 18  1  0
 20 21  1  0
 20 19  2  0
 21 22  2  0
 22 23  1  0
 24 26  2  0
 24 25  1  0
M  END
$$$$
