TVF.pdb
     RDKit          3D

 26 26  0  0  1  0  0  0  0  0999 V2000
   20.7422  -18.8579  -12.0091 C   0  0  0  0  0  0  0  0  0  0  0  0
   19.4571  -19.6735  -11.9939 C   0  0  1  0  0  0  0  0  0  0  0  0
   18.4176  -18.7762  -12.1321 O   0  0  0  0  0  0  0  0  0  0  0  0
   19.5570  -20.6640  -13.1133 C   0  0  2  0  0  0  0  0  0  0  0  0
   18.3102  -21.3873  -13.2211 N   0  0  0  0  0  0  0  0  0  0  0  0
   20.7231  -21.5554  -13.0368 C   0  0  0  0  0  0  0  0  0  0  0  0
   20.6624  -22.5928  -12.3255 O   0  0  0  0  0  0  0  0  0  0  0  0
   23.4178  -22.1482  -16.1286 C   0  0  0  0  0  0  0  0  0  0  0  0
   23.3212  -22.9676  -14.8853 C   0  0  1  0  0  0  0  0  0  0  0  0
   24.5589  -23.8267  -14.7619 C   0  0  0  0  0  0  0  0  0  0  0  0
   23.1093  -22.1223  -13.6439 C   0  0  2  0  0  0  0  0  0  0  0  0
   21.9302  -21.3120  -13.7272 N   0  0  0  0  0  0  0  0  0  0  0  0
   24.2969  -21.2384  -13.5239 C   0  0  0  0  0  0  0  0  0  0  0  0
   24.3146  -20.1269  -14.1047 O   0  0  0  0  0  0  0  0  0  0  0  0
   25.4467  -21.5892  -12.7678 N   0  0  0  0  0  0  0  0  0  0  0  0
   26.5977  -20.7228  -12.6125 C   0  0  1  0  0  0  0  0  0  0  0  0
   27.3074  -21.1899  -11.3569 C   0  0  0  0  0  0  0  0  0  0  0  0
   26.6726  -20.7402  -10.1109 C   0  0  0  0  0  0  0  0  0  0  0  0
   26.2897  -19.4310   -9.9549 C   0  0  0  0  0  0  0  0  0  0  0  0
   25.6822  -18.9680   -8.7935 C   0  0  0  0  0  0  0  0  0  0  0  0
   25.4747  -19.8876   -7.7863 C   0  0  0  0  0  0  0  0  0  0  0  0
   25.8517  -21.2199   -7.9150 C   0  0  0  0  0  0  0  0  0  0  0  0
   26.4548  -21.6387   -9.0912 C   0  0  0  0  0  0  0  0  0  0  0  0
   27.4397  -20.8135  -13.8041 C   0  0  0  0  0  0  0  0  0  0  0  0
   27.4879  -22.0086  -14.5162 O   0  0  0  0  0  0  0  0  0  0  0  0
   28.1438  -19.8339  -14.2292 O   0  0  0  0  0  0  0  0  0  0  0  0
  2  1  1  6
  3  2  1  0
  4  2  1  0
  4  6  1  0
  4  5  1  1
  6  7  2  0
  9  8  1  6
  9 11  1  0
 10  9  1  0
 12  6  1  0
 11 12  1  6
 13 11  1  0
 13 14  2  0
 15 13  1  0
 16 15  1  0
 16 24  1  0
 16 17  1  1
 18 23  2  0
 18 17  1  0
 19 18  1  0
 20 21  1  0
 20 19  2  0
 21 22  2  0
 22 23  1  0
 24 26  2  0
 24 25  1  0
M  END
$$$$
