TVF.pdb
     RDKit          3D

 26 26  0  0  1  0  0  0  0  0999 V2000
   27.6041  -27.3631  -17.8773 C   0  0  0  0  0  0  0  0  0  0  0  0
   27.2517  -26.2202  -16.9358 C   0  0  1  0  0  0  0  0  0  0  0  0
   27.2442  -26.7467  -15.6600 O   0  0  0  0  0  0  0  0  0  0  0  0
   28.2800  -25.1511  -17.1452 C   0  0  2  0  0  0  0  0  0  0  0  0
   29.5969  -25.7114  -16.9420 N   0  0  0  0  0  0  0  0  0  0  0  0
   28.0582  -23.9290  -16.3594 C   0  0  0  0  0  0  0  0  0  0  0  0
   28.8632  -23.6323  -15.4376 O   0  0  0  0  0  0  0  0  0  0  0  0
   28.3857  -20.3902  -16.9875 C   0  0  0  0  0  0  0  0  0  0  0  0
   26.9460  -20.6000  -16.6562 C   0  0  1  0  0  0  0  0  0  0  0  0
   26.1419  -20.6194  -17.9361 C   0  0  0  0  0  0  0  0  0  0  0  0
   26.7121  -21.8554  -15.8377 C   0  0  2  0  0  0  0  0  0  0  0  0
   26.9747  -23.0517  -16.5818 N   0  0  0  0  0  0  0  0  0  0  0  0
   25.2827  -21.8397  -15.4345 C   0  0  0  0  0  0  0  0  0  0  0  0
   24.4278  -22.4430  -16.1260 O   0  0  0  0  0  0  0  0  0  0  0  0
   24.8146  -21.1615  -14.2779 N   0  0  0  0  0  0  0  0  0  0  0  0
   23.4160  -21.0826  -13.9073 C   0  0  1  0  0  0  0  0  0  0  0  0
   23.3785  -21.1613  -12.3938 C   0  0  0  0  0  0  0  0  0  0  0  0
   22.0464  -20.9346  -11.8177 C   0  0  0  0  0  0  0  0  0  0  0  0
   21.1341  -21.9578  -11.7432 C   0  0  0  0  0  0  0  0  0  0  0  0
   19.8659  -21.7846  -11.2011 C   0  0  0  0  0  0  0  0  0  0  0  0
   19.5521  -20.5253  -10.7330 C   0  0  0  0  0  0  0  0  0  0  0  0
   20.4548  -19.4694  -10.7950 C   0  0  0  0  0  0  0  0  0  0  0  0
   21.7094  -19.6870  -11.3439 C   0  0  0  0  0  0  0  0  0  0  0  0
   22.8452  -19.8392  -14.4225 C   0  0  0  0  0  0  0  0  0  0  0  0
   21.5116  -19.8141  -14.8207 O   0  0  0  0  0  0  0  0  0  0  0  0
   23.5220  -18.7588  -14.5261 O   0  0  0  0  0  0  0  0  0  0  0  0
  2  1  1  6
  3  2  1  0
  4  2  1  0
  4  6  1  0
  4  5  1  1
  6  7  2  0
  9  8  1  6
  9 11  1  0
 10  9  1  0
 12  6  1  0
 11 12  1  6
 13 11  1  0
 13 14  2  0
 15 13  1  0
 16 15  1  0
 16 24  1  0
 16 17  1  1
 18 23  2  0
 18 17  1  0
 19 18  1  0
 20 21  1  0
 20 19  2  0
 21 22  2  0
 22 23  1  0
 24 26  2  0
 24 25  1  0
M  END
$$$$
