TVF.pdb
     RDKit          3D

 26 26  0  0  1  0  0  0  0  0999 V2000
   26.3405  -23.6775  -19.1422 C   0  0  0  0  0  0  0  0  0  0  0  0
   26.7031  -23.4902  -17.6758 C   0  0  1  0  0  0  0  0  0  0  0  0
   27.2386  -24.6870  -17.2447 O   0  0  0  0  0  0  0  0  0  0  0  0
   27.6583  -22.3382  -17.6074 C   0  0  2  0  0  0  0  0  0  0  0  0
   28.8636  -22.6761  -18.3301 N   0  0  0  0  0  0  0  0  0  0  0  0
   27.9319  -21.8524  -16.2474 C   0  0  0  0  0  0  0  0  0  0  0  0
   28.9173  -22.3132  -15.6131 O   0  0  0  0  0  0  0  0  0  0  0  0
   28.6543  -18.3682  -15.0088 C   0  0  0  0  0  0  0  0  0  0  0  0
   27.4817  -18.8709  -14.2348 C   0  0  1  0  0  0  0  0  0  0  0  0
   26.2265  -18.2051  -14.7509 C   0  0  0  0  0  0  0  0  0  0  0  0
   27.3613  -20.3824  -14.2733 C   0  0  2  0  0  0  0  0  0  0  0  0
   27.1393  -20.8810  -15.5984 N   0  0  0  0  0  0  0  0  0  0  0  0
   26.1980  -20.7378  -13.4209 C   0  0  0  0  0  0  0  0  0  0  0  0
   25.0503  -20.8091  -13.9215 O   0  0  0  0  0  0  0  0  0  0  0  0
   26.3137  -21.0095  -12.0318 N   0  0  0  0  0  0  0  0  0  0  0  0
   25.2014  -21.4277  -11.2026 C   0  0  1  0  0  0  0  0  0  0  0  0
   25.8134  -22.0154   -9.9461 C   0  0  0  0  0  0  0  0  0  0  0  0
   26.5105  -21.0322   -9.1064 C   0  0  0  0  0  0  0  0  0  0  0  0
   27.8822  -20.9838   -9.0797 C   0  0  0  0  0  0  0  0  0  0  0  0
   28.5783  -20.0656   -8.3022 C   0  0  0  0  0  0  0  0  0  0  0  0
   27.8275  -19.1899   -7.5453 C   0  0  0  0  0  0  0  0  0  0  0  0
   26.4372  -19.2149   -7.5514 C   0  0  0  0  0  0  0  0  0  0  0  0
   25.7836  -20.1478   -8.3421 C   0  0  0  0  0  0  0  0  0  0  0  0
   24.3403  -20.2790  -10.9273 C   0  0  0  0  0  0  0  0  0  0  0  0
   23.0258  -20.4930  -10.5224 O   0  0  0  0  0  0  0  0  0  0  0  0
   24.7426  -19.0702  -11.0423 O   0  0  0  0  0  0  0  0  0  0  0  0
  2  1  1  6
  3  2  1  0
  4  2  1  0
  4  6  1  0
  4  5  1  1
  6  7  2  0
  9  8  1  6
  9 11  1  0
 10  9  1  0
 12  6  1  0
 11 12  1  6
 13 11  1  0
 13 14  2  0
 15 13  1  0
 16 15  1  0
 16 24  1  0
 16 17  1  1
 18 23  2  0
 18 17  1  0
 19 18  1  0
 20 21  1  0
 20 19  2  0
 21 22  2  0
 22 23  1  0
 24 26  2  0
 24 25  1  0
M  END
$$$$
