TDM.pdb
     RDKit          3D

 24 23  0  0  1  0  0  0  0  0999 V2000
   20.7465   -9.7443  -15.2744 C   0  0  0  0  0  0  0  0  0  0  0  0
   19.4747   -9.2776  -14.6256 C   0  0  1  0  0  0  0  0  0  0  0  0
   18.9716   -8.1714  -15.2937 O   0  0  0  0  0  0  0  0  0  0  0  0
   18.4437  -10.3941  -14.5458 C   0  0  2  0  0  0  0  0  0  0  0  0
   18.0723  -10.7690  -15.8964 N   0  0  0  0  0  0  0  0  0  0  0  0
   17.2931  -10.0222  -13.7224 C   0  0  0  0  0  0  0  0  0  0  0  0
   16.3083   -9.4897  -14.3329 O   0  0  0  0  0  0  0  0  0  0  0  0
   17.1904  -10.2062  -12.3175 N   0  0  0  0  0  0  0  0  0  0  0  0
   16.0403   -9.7434  -11.6175 C   0  0  1  0  0  0  0  0  0  0  0  0
   15.2892  -10.8565  -10.9157 C   0  0  0  0  0  0  0  0  0  0  0  0
   14.0679  -10.3850  -10.2576 C   0  0  0  0  0  0  0  0  0  0  0  0
   13.6956   -9.1901  -10.3870 O   0  0  0  0  0  0  0  0  0  0  0  0
   16.3414   -8.6213  -10.6827 C   0  0  0  0  0  0  0  0  0  0  0  0
   17.2090   -8.8271   -9.8003 O   0  0  0  0  0  0  0  0  0  0  0  0
   13.2608  -11.1936   -9.4708 O   0  0  0  0  0  0  0  0  0  0  0  0
   15.9237   -0.7865   -9.4184 C   0  0  0  0  0  0  0  0  0  0  0  0
   15.4302   -2.1987  -10.4069 S   0  0  0  0  0  0  0  0  0  0  0  0
   15.9834   -3.7637   -9.6719 C   0  0  0  0  0  0  0  0  0  0  0  0
   15.6074   -4.9465  -10.5059 C   0  0  0  0  0  0  0  0  0  0  0  0
   16.0767   -6.2207   -9.9050 C   0  0  2  0  0  0  0  0  0  0  0  0
   15.7038   -7.3647  -10.7486 N   0  0  0  0  0  0  0  0  0  0  0  0
   15.5981   -6.3878   -8.5412 C   0  0  0  0  0  0  0  0  0  0  0  0
   16.1638   -5.7491   -7.4707 O   0  0  0  0  0  0  0  0  0  0  0  0
   14.6204   -7.1585   -8.3354 O   0  0  0  0  0  0  0  0  0  0  0  0
  2  1  1  6
  3  2  1  0
  4  2  1  0
  4  6  1  0
  4  5  1  6
  6  7  2  0
  8  6  1  0
  8  9  1  0
  9 10  1  1
 10 11  1  0
 11 12  2  0
 13  9  1  0
 13 21  1  0
 14 13  2  0
 15 11  1  0
 16 17  1  0
 18 17  1  0
 19 18  1  0
 20 21  1  0
 20 19  1  6
 22 20  1  0
 23 22  1  0
 24 22  2  0
M  END
$$$$
