TDM.pdb
     RDKit          3D

 24 23  0  0  1  0  0  0  0  0999 V2000
   24.5079  -25.0895  -15.9375 C   0  0  0  0  0  0  0  0  0  0  0  0
   25.7531  -24.7640  -16.7119 C   0  0  1  0  0  0  0  0  0  0  0  0
   26.1499  -25.8577  -17.4667 O   0  0  0  0  0  0  0  0  0  0  0  0
   25.5660  -23.5286  -17.5807 C   0  0  2  0  0  0  0  0  0  0  0  0
   26.8011  -23.2864  -18.3008 N   0  0  0  0  0  0  0  0  0  0  0  0
   25.1255  -22.3708  -16.8024 C   0  0  0  0  0  0  0  0  0  0  0  0
   25.9757  -21.8779  -15.9899 O   0  0  0  0  0  0  0  0  0  0  0  0
   23.8438  -21.7633  -16.8815 N   0  0  0  0  0  0  0  0  0  0  0  0
   23.5053  -20.6908  -16.0085 C   0  0  1  0  0  0  0  0  0  0  0  0
   22.4835  -19.7445  -16.6052 C   0  0  0  0  0  0  0  0  0  0  0  0
   23.0943  -18.7147  -17.4498 C   0  0  0  0  0  0  0  0  0  0  0  0
   24.0651  -18.0363  -17.0251 O   0  0  0  0  0  0  0  0  0  0  0  0
   23.0872  -21.1537  -14.6540 C   0  0  0  0  0  0  0  0  0  0  0  0
   22.2973  -22.1267  -14.5990 O   0  0  0  0  0  0  0  0  0  0  0  0
   22.6617  -18.4223  -18.7350 O   0  0  0  0  0  0  0  0  0  0  0  0
   26.4895  -20.4197   -8.8643 C   0  0  0  0  0  0  0  0  0  0  0  0
   24.7568  -20.2705   -8.4278 S   0  0  0  0  0  0  0  0  0  0  0  0
   23.6752  -20.9586   -9.7130 C   0  0  0  0  0  0  0  0  0  0  0  0
   24.0607  -20.5017  -11.0837 C   0  0  0  0  0  0  0  0  0  0  0  0
   23.1289  -21.0119  -12.1211 C   0  0  2  0  0  0  0  0  0  0  0  0
   23.5341  -20.5548  -13.4576 N   0  0  0  0  0  0  0  0  0  0  0  0
   21.7476  -20.6564  -11.8339 C   0  0  0  0  0  0  0  0  0  0  0  0
   20.9294  -21.4240  -11.0497 O   0  0  0  0  0  0  0  0  0  0  0  0
   21.2819  -19.5951  -12.3330 O   0  0  0  0  0  0  0  0  0  0  0  0
  2  1  1  6
  3  2  1  0
  4  2  1  0
  4  6  1  0
  4  5  1  1
  6  7  2  0
  8  6  1  0
  8  9  1  0
  9 10  1  6
 10 11  1  0
 11 12  2  0
 13  9  1  0
 13 21  1  0
 14 13  2  0
 15 11  1  0
 16 17  1  0
 18 17  1  0
 19 18  1  0
 20 21  1  0
 20 19  1  1
 22 20  1  0
 23 22  1  0
 24 22  2  0
M  END
$$$$
