TDM.pdb
     RDKit          3D

 24 23  0  0  1  0  0  0  0  0999 V2000
   17.3349  -12.2735  -18.0907 C   0  0  0  0  0  0  0  0  0  0  0  0
   18.1247  -13.2505  -18.9139 C   0  0  1  0  0  0  0  0  0  0  0  0
   17.3647  -14.3794  -19.1811 O   0  0  0  0  0  0  0  0  0  0  0  0
   18.6423  -12.6138  -20.1956 C   0  0  2  0  0  0  0  0  0  0  0  0
   19.3981  -13.6118  -20.9274 N   0  0  0  0  0  0  0  0  0  0  0  0
   19.4118  -11.3975  -19.9334 C   0  0  0  0  0  0  0  0  0  0  0  0
   20.5807  -11.5600  -19.4506 O   0  0  0  0  0  0  0  0  0  0  0  0
   18.9637  -10.0708  -20.1720 N   0  0  0  0  0  0  0  0  0  0  0  0
   19.7959   -8.9641  -19.8408 C   0  0  1  0  0  0  0  0  0  0  0  0
   19.2578   -7.6456  -20.3582 C   0  0  0  0  0  0  0  0  0  0  0  0
   17.9750   -7.2826  -19.7501 C   0  0  0  0  0  0  0  0  0  0  0  0
   16.9026   -7.7789  -20.1822 O   0  0  0  0  0  0  0  0  0  0  0  0
   20.1076   -8.8866  -18.3846 C   0  0  0  0  0  0  0  0  0  0  0  0
   19.2186   -9.2695  -17.5867 O   0  0  0  0  0  0  0  0  0  0  0  0
   17.8534   -6.3957  -18.6905 O   0  0  0  0  0  0  0  0  0  0  0  0
   23.4470  -10.8247  -12.3513 C   0  0  0  0  0  0  0  0  0  0  0  0
   23.1565  -10.7696  -14.1198 S   0  0  0  0  0  0  0  0  0  0  0  0
   23.3805   -9.0971  -14.7889 C   0  0  0  0  0  0  0  0  0  0  0  0
   23.0279   -9.0145  -16.2398 C   0  0  0  0  0  0  0  0  0  0  0  0
   21.6830   -8.4214  -16.4508 C   0  0  2  0  0  0  0  0  0  0  0  0
   21.3352   -8.4103  -17.8785 N   0  0  0  0  0  0  0  0  0  0  0  0
   21.5767   -7.0927  -15.8676 C   0  0  0  0  0  0  0  0  0  0  0  0
   21.2881   -6.8811  -14.5464 O   0  0  0  0  0  0  0  0  0  0  0  0
   21.7550   -6.0907  -16.6137 O   0  0  0  0  0  0  0  0  0  0  0  0
  2  1  1  6
  3  2  1  0
  4  2  1  0
  4  6  1  0
  4  5  1  1
  6  7  2  0
  8  6  1  0
  8  9  1  0
  9 10  1  1
 10 11  1  0
 11 12  2  0
 13  9  1  0
 13 21  1  0
 14 13  2  0
 15 11  1  0
 16 17  1  0
 18 17  1  0
 19 18  1  0
 20 21  1  0
 20 19  1  6
 22 20  1  0
 23 22  1  0
 24 22  2  0
M  END
$$$$
