TDM.pdb
     RDKit          3D

 24 23  0  0  1  0  0  0  0  0999 V2000
   13.5515  -10.9888  -14.1070 C   0  0  0  0  0  0  0  0  0  0  0  0
   14.2776  -12.2950  -13.9558 C   0  0  1  0  0  0  0  0  0  0  0  0
   13.6224  -13.2939  -14.6602 O   0  0  0  0  0  0  0  0  0  0  0  0
   15.7340  -12.1792  -14.3819 C   0  0  2  0  0  0  0  0  0  0  0  0
   16.3582  -13.4791  -14.2297 N   0  0  0  0  0  0  0  0  0  0  0  0
   16.4372  -11.1224  -13.6547 C   0  0  0  0  0  0  0  0  0  0  0  0
   16.6142  -11.3150  -12.4067 O   0  0  0  0  0  0  0  0  0  0  0  0
   16.9302   -9.9176  -14.2234 N   0  0  0  0  0  0  0  0  0  0  0  0
   17.4945   -8.9111  -13.3892 C   0  0  1  0  0  0  0  0  0  0  0  0
   18.3833   -7.9464  -14.1474 C   0  0  0  0  0  0  0  0  0  0  0  0
   18.9431   -6.9006  -13.2872 C   0  0  0  0  0  0  0  0  0  0  0  0
   19.7298   -7.1990  -12.3518 O   0  0  0  0  0  0  0  0  0  0  0  0
   16.4722   -8.1844  -12.5826 C   0  0  0  0  0  0  0  0  0  0  0  0
   15.4698   -7.7408  -13.1925 O   0  0  0  0  0  0  0  0  0  0  0  0
   18.6562   -5.5515  -13.4361 O   0  0  0  0  0  0  0  0  0  0  0  0
   12.0127   -7.3936   -6.3158 C   0  0  0  0  0  0  0  0  0  0  0  0
   13.3383   -8.2542   -7.1626 S   0  0  0  0  0  0  0  0  0  0  0  0
   14.0287   -7.2636   -8.5180 C   0  0  0  0  0  0  0  0  0  0  0  0
   15.1012   -7.9916   -9.2637 C   0  0  0  0  0  0  0  0  0  0  0  0
   15.6192   -7.1974  -10.4064 C   0  0  2  0  0  0  0  0  0  0  0  0
   16.5842   -7.9796  -11.1914 N   0  0  0  0  0  0  0  0  0  0  0  0
   16.1886   -5.9301   -9.9745 C   0  0  0  0  0  0  0  0  0  0  0  0
   17.5229   -5.6414  -10.0745 O   0  0  0  0  0  0  0  0  0  0  0  0
   15.4187   -5.0596   -9.4825 O   0  0  0  0  0  0  0  0  0  0  0  0
  2  1  1  6
  3  2  1  0
  4  2  1  0
  4  6  1  0
  4  5  1  1
  6  7  2  0
  8  6  1  0
  8  9  1  0
  9 10  1  6
 10 11  1  0
 11 12  2  0
 13  9  1  0
 13 21  1  0
 14 13  2  0
 15 11  1  0
 16 17  1  0
 18 17  1  0
 19 18  1  0
 20 21  1  0
 20 19  1  1
 22 20  1  0
 23 22  1  0
 24 22  2  0
M  END
$$$$
