TDM.pdb
     RDKit          3D

 24 23  0  0  1  0  0  0  0  0999 V2000
   14.9420  -12.1486  -15.8020 C   0  0  0  0  0  0  0  0  0  0  0  0
   15.6978  -13.4254  -15.5681 C   0  0  1  0  0  0  0  0  0  0  0  0
   15.1112  -14.4673  -16.2706 O   0  0  0  0  0  0  0  0  0  0  0  0
   17.1707  -13.2776  -15.9214 C   0  0  2  0  0  0  0  0  0  0  0  0
   17.8300  -14.5436  -15.6663 N   0  0  0  0  0  0  0  0  0  0  0  0
   17.7958  -12.1589  -15.2156 C   0  0  0  0  0  0  0  0  0  0  0  0
   18.0917  -12.3563  -13.9911 O   0  0  0  0  0  0  0  0  0  0  0  0
   18.0938  -10.8903  -15.7811 N   0  0  0  0  0  0  0  0  0  0  0  0
   18.5731   -9.8338  -14.9557 C   0  0  1  0  0  0  0  0  0  0  0  0
   19.5069   -8.8911  -15.6870 C   0  0  0  0  0  0  0  0  0  0  0  0
   20.0000   -7.8091  -14.8307 C   0  0  0  0  0  0  0  0  0  0  0  0
   20.5305   -8.0680  -13.7196 O   0  0  0  0  0  0  0  0  0  0  0  0
   17.4778   -9.0876  -14.2722 C   0  0  0  0  0  0  0  0  0  0  0  0
   16.5107   -8.7141  -14.9787 O   0  0  0  0  0  0  0  0  0  0  0  0
   19.9206   -6.4665  -15.1707 O   0  0  0  0  0  0  0  0  0  0  0  0
   13.3737   -7.7077   -7.6979 C   0  0  0  0  0  0  0  0  0  0  0  0
   14.6532   -8.6217   -8.5594 S   0  0  0  0  0  0  0  0  0  0  0  0
   15.0783   -7.8536  -10.1482 C   0  0  0  0  0  0  0  0  0  0  0  0
   16.1874   -8.5727  -10.8475 C   0  0  0  0  0  0  0  0  0  0  0  0
   16.4117   -8.0475  -12.2182 C   0  0  2  0  0  0  0  0  0  0  0  0
   17.4847   -8.7906  -12.8933 N   0  0  0  0  0  0  0  0  0  0  0  0
   16.6760   -6.6168  -12.2161 C   0  0  0  0  0  0  0  0  0  0  0  0
   15.7001   -5.6801  -12.0068 O   0  0  0  0  0  0  0  0  0  0  0  0
   17.8570   -6.2215  -12.4200 O   0  0  0  0  0  0  0  0  0  0  0  0
  2  1  1  6
  3  2  1  0
  4  2  1  0
  4  6  1  0
  4  5  1  1
  6  7  2  0
  8  6  1  0
  8  9  1  0
  9 10  1  6
 10 11  1  0
 11 12  2  0
 13  9  1  0
 13 21  1  0
 14 13  2  0
 15 11  1  0
 16 17  1  0
 18 17  1  0
 19 18  1  0
 20 21  1  0
 20 19  1  1
 22 20  1  0
 23 22  1  0
 24 22  2  0
M  END
$$$$
