TDM.pdb
     RDKit          3D

 24 23  0  0  1  0  0  0  0  0999 V2000
   16.7955  -12.3381  -17.7720 C   0  0  0  0  0  0  0  0  0  0  0  0
   17.8220  -13.3909  -17.4658 C   0  0  1  0  0  0  0  0  0  0  0  0
   17.6265  -14.5024  -18.2718 O   0  0  0  0  0  0  0  0  0  0  0  0
   19.2379  -12.8494  -17.6010 C   0  0  2  0  0  0  0  0  0  0  0  0
   20.1668  -13.9345  -17.3516 N   0  0  0  0  0  0  0  0  0  0  0  0
   19.4691  -11.6929  -16.7353 C   0  0  0  0  0  0  0  0  0  0  0  0
   19.4140  -11.9057  -15.4793 O   0  0  0  0  0  0  0  0  0  0  0  0
   19.7462  -10.3724  -17.1798 N   0  0  0  0  0  0  0  0  0  0  0  0
   19.8379   -9.3059  -16.2410 C   0  0  1  0  0  0  0  0  0  0  0  0
   20.3765   -8.0278  -16.8507 C   0  0  0  0  0  0  0  0  0  0  0  0
   20.4628   -6.9330  -15.8807 C   0  0  0  0  0  0  0  0  0  0  0  0
   19.8269   -5.8638  -16.0691 O   0  0  0  0  0  0  0  0  0  0  0  0
   18.5596   -9.0609  -15.5132 C   0  0  0  0  0  0  0  0  0  0  0  0
   17.4986   -9.1283  -16.1791 O   0  0  0  0  0  0  0  0  0  0  0  0
   21.2258   -6.9932  -14.7237 O   0  0  0  0  0  0  0  0  0  0  0  0
   13.7908   -9.7920   -9.4570 C   0  0  0  0  0  0  0  0  0  0  0  0
   15.3264  -10.1935  -10.2911 S   0  0  0  0  0  0  0  0  0  0  0  0
   15.6937   -9.0235  -11.6294 C   0  0  0  0  0  0  0  0  0  0  0  0
   16.9532   -9.3707  -12.3570 C   0  0  0  0  0  0  0  0  0  0  0  0
   17.2531   -8.4009  -13.4407 C   0  0  2  0  0  0  0  0  0  0  0  0
   18.4962   -8.7624  -14.1360 N   0  0  0  0  0  0  0  0  0  0  0  0
   17.2978   -7.0322  -12.9491 C   0  0  0  0  0  0  0  0  0  0  0  0
   16.1892   -6.3661  -12.5009 O   0  0  0  0  0  0  0  0  0  0  0  0
   18.4074   -6.4313  -12.9388 O   0  0  0  0  0  0  0  0  0  0  0  0
  2  1  1  6
  3  2  1  0
  4  2  1  0
  4  6  1  0
  4  5  1  1
  6  7  2  0
  8  6  1  0
  8  9  1  0
  9 10  1  6
 10 11  1  0
 11 12  2  0
 13  9  1  0
 13 21  1  0
 14 13  2  0
 15 11  1  0
 16 17  1  0
 18 17  1  0
 19 18  1  0
 20 21  1  0
 20 19  1  1
 22 20  1  0
 23 22  1  0
 24 22  2  0
M  END
$$$$
