PKK.pdb
     RDKit          3D

 26 26  0  0  1  0  0  0  0  0999 V2000
    8.4263  -14.9616   18.0864 N   0  0  0  0  0  0  0  0  0  0  0  0
    8.5304  -14.0951   16.9033 C   0  0  0  0  0  0  0  0  0  0  0  0
    7.9867  -12.7582   17.2977 C   0  0  0  0  0  0  0  0  0  0  0  0
    7.6210  -12.9257   18.7697 C   0  0  0  0  0  0  0  0  0  0  0  0
    8.5895  -14.0016   19.1959 C   0  0  1  0  0  0  0  0  0  0  0  0
    8.2238  -14.6482   20.4873 C   0  0  0  0  0  0  0  0  0  0  0  0
    8.2602  -13.9772   21.5391 O   0  0  0  0  0  0  0  0  0  0  0  0
    7.8421  -15.9879   20.5482 N   0  0  0  0  0  0  0  0  0  0  0  0
    7.3398  -16.7298   21.6664 C   0  0  1  0  0  0  0  0  0  0  0  0
    6.7411  -18.0480   21.3867 C   0  0  0  0  0  0  0  0  0  0  0  0
    6.3271  -18.7483   22.6848 C   0  0  0  0  0  0  0  0  0  0  0  0
    5.7927  -20.1105   22.3219 C   0  0  0  0  0  0  0  0  0  0  0  0
    5.3151  -20.8137   23.5995 C   0  0  0  0  0  0  0  0  0  0  0  0
    4.8425  -22.1276   23.1617 N   0  0  0  0  0  0  0  0  0  0  0  0
    8.3520  -16.6913   22.7512 C   0  0  0  0  0  0  0  0  0  0  0  0
    9.5302  -17.0337   22.5008 O   0  0  0  0  0  0  0  0  0  0  0  0
    8.0741  -16.2945   24.0716 N   0  0  0  0  0  0  0  0  0  0  0  0
    9.1070  -16.1415   25.0579 C   0  0  1  0  0  0  0  0  0  0  0  0
    8.6944  -15.3362   26.2740 C   0  0  0  0  0  0  0  0  0  0  0  0
    9.8164  -15.2331   27.2512 C   0  0  0  0  0  0  0  0  0  0  0  0
    9.4800  -14.4145   28.4402 C   0  0  0  0  0  0  0  0  0  0  0  0
   10.5164  -14.2225   29.4847 C   0  0  0  0  0  0  0  0  0  0  0  0
   10.1326  -13.4053   30.6021 N   0  0  0  0  0  0  0  0  0  0  0  0
    9.5393  -17.5204   25.4983 C   0  0  0  0  0  0  0  0  0  0  0  0
   10.8686  -17.8109   25.7711 O   0  0  0  0  0  0  0  0  0  0  0  0
    8.7137  -18.4448   25.6317 O   0  0  0  0  0  0  0  0  0  0  0  0
  1  2  1  0
  3  2  1  0
  4  5  1  0
  4  3  1  0
  5  1  1  0
  6  8  1  0
  5  6  1  1
  7  6  2  0
  9 15  1  0
  9  8  1  0
  9 10  1  6
 11 10  1  0
 12 11  1  0
 13 12  1  0
 14 13  1  0
 15 17  1  0
 16 15  2  0
 17 18  1  0
 18 24  1  0
 18 19  1  1
 20 19  1  0
 21 20  1  0
 22 21  1  0
 23 22  1  0
 24 25  1  0
 26 24  2  0
M  END
$$$$
