PKK.pdb
     RDKit          3D

 26 26  0  0  1  0  0  0  0  0999 V2000
    8.7567  -14.6738   17.7531 N   0  0  0  0  0  0  0  0  0  0  0  0
    8.5208  -13.7938   16.5992 C   0  0  0  0  0  0  0  0  0  0  0  0
    7.6240  -12.6932   17.0715 C   0  0  0  0  0  0  0  0  0  0  0  0
    7.4177  -12.9925   18.5535 C   0  0  0  0  0  0  0  0  0  0  0  0
    8.6905  -13.7313   18.8873 C   0  0  1  0  0  0  0  0  0  0  0  0
    8.6177  -14.4834   20.1714 C   0  0  0  0  0  0  0  0  0  0  0  0
    8.4335  -13.8591   21.2362 O   0  0  0  0  0  0  0  0  0  0  0  0
    8.7521  -15.8707   20.2109 N   0  0  0  0  0  0  0  0  0  0  0  0
    8.5242  -16.7652   21.3069 C   0  0  1  0  0  0  0  0  0  0  0  0
    8.3382  -18.1922   20.9849 C   0  0  0  0  0  0  0  0  0  0  0  0
    9.5962  -18.7752   20.3335 C   0  0  0  0  0  0  0  0  0  0  0  0
    9.2820  -20.1877   19.9102 C   0  0  0  0  0  0  0  0  0  0  0  0
   10.5538  -20.8307   19.3410 C   0  0  0  0  0  0  0  0  0  0  0  0
   10.1869  -22.2172   19.0502 N   0  0  0  0  0  0  0  0  0  0  0  0
    9.5079  -16.4618   22.3760 C   0  0  0  0  0  0  0  0  0  0  0  0
   10.6776  -16.1460   22.0592 O   0  0  0  0  0  0  0  0  0  0  0  0
    9.2146  -16.5109   23.7506 N   0  0  0  0  0  0  0  0  0  0  0  0
   10.1455  -16.0614   24.7480 C   0  0  1  0  0  0  0  0  0  0  0  0
    9.5080  -15.6762   26.0682 C   0  0  0  0  0  0  0  0  0  0  0  0
   10.5386  -15.2202   27.0451 C   0  0  0  0  0  0  0  0  0  0  0  0
    9.9642  -14.8070   28.3475 C   0  0  0  0  0  0  0  0  0  0  0  0
   10.8791  -14.2801   29.3904 C   0  0  0  0  0  0  0  0  0  0  0  0
   10.2461  -13.7478   30.5650 N   0  0  0  0  0  0  0  0  0  0  0  0
   11.1468  -17.1678   24.9837 C   0  0  0  0  0  0  0  0  0  0  0  0
   10.7678  -18.5027   24.9750 O   0  0  0  0  0  0  0  0  0  0  0  0
   12.3497  -16.9170   25.1940 O   0  0  0  0  0  0  0  0  0  0  0  0
  1  2  1  0
  3  2  1  0
  4  5  1  0
  4  3  1  0
  5  1  1  0
  6  8  1  0
  5  6  1  1
  7  6  2  0
  9 15  1  0
  9  8  1  0
  9 10  1  6
 11 10  1  0
 12 11  1  0
 13 12  1  0
 14 13  1  0
 15 17  1  0
 16 15  2  0
 17 18  1  0
 18 24  1  0
 18 19  1  1
 20 19  1  0
 21 20  1  0
 22 21  1  0
 23 22  1  0
 24 25  1  0
 26 24  2  0
M  END
$$$$
