PKK.pdb
     RDKit          3D

 26 26  0  0  1  0  0  0  0  0999 V2000
    8.7636  -14.8518   18.6039 N   0  0  0  0  0  0  0  0  0  0  0  0
    8.5798  -13.9802   17.4342 C   0  0  0  0  0  0  0  0  0  0  0  0
    7.7306  -12.8320   17.8801 C   0  0  0  0  0  0  0  0  0  0  0  0
    7.4965  -13.0978   19.3644 C   0  0  0  0  0  0  0  0  0  0  0  0
    8.7303  -13.8893   19.7227 C   0  0  1  0  0  0  0  0  0  0  0  0
    8.6104  -14.6168   21.0173 C   0  0  0  0  0  0  0  0  0  0  0  0
    8.3220  -13.9807   22.0518 O   0  0  0  0  0  0  0  0  0  0  0  0
    8.8144  -15.9936   21.1002 N   0  0  0  0  0  0  0  0  0  0  0  0
    8.7138  -16.8501   22.2445 C   0  0  1  0  0  0  0  0  0  0  0  0
    8.9729  -18.2867   22.0361 C   0  0  0  0  0  0  0  0  0  0  0  0
    8.0505  -18.8585   20.9549 C   0  0  0  0  0  0  0  0  0  0  0  0
    8.4296  -20.3024   20.7439 C   0  0  0  0  0  0  0  0  0  0  0  0
    7.5336  -20.8968   19.6490 C   0  0  0  0  0  0  0  0  0  0  0  0
    7.9247  -22.3036   19.5534 N   0  0  0  0  0  0  0  0  0  0  0  0
    9.4374  -16.2152   23.3741 C   0  0  0  0  0  0  0  0  0  0  0  0
   10.6487  -15.9269   23.2398 O   0  0  0  0  0  0  0  0  0  0  0  0
    8.8476  -15.9132   24.6147 N   0  0  0  0  0  0  0  0  0  0  0  0
    9.5868  -15.3042   25.6852 C   0  0  1  0  0  0  0  0  0  0  0  0
    9.1310  -13.9028   26.0401 C   0  0  0  0  0  0  0  0  0  0  0  0
    7.6513  -13.8529   26.2202 C   0  0  0  0  0  0  0  0  0  0  0  0
    7.1542  -12.5055   26.5868 C   0  0  0  0  0  0  0  0  0  0  0  0
    5.6973  -12.3217   26.8011 C   0  0  0  0  0  0  0  0  0  0  0  0
    5.2925  -11.0202   27.2549 N   0  0  0  0  0  0  0  0  0  0  0  0
    9.4612  -16.1907   26.9020 C   0  0  0  0  0  0  0  0  0  0  0  0
   10.1933  -15.9470   28.0554 O   0  0  0  0  0  0  0  0  0  0  0  0
    8.6934  -17.1728   26.9097 O   0  0  0  0  0  0  0  0  0  0  0  0
  1  2  1  0
  3  2  1  0
  4  5  1  0
  4  3  1  0
  5  1  1  0
  6  8  1  0
  5  6  1  1
  7  6  2  0
  9 15  1  0
  9  8  1  0
  9 10  1  6
 11 10  1  0
 12 11  1  0
 13 12  1  0
 14 13  1  0
 15 17  1  0
 16 15  2  0
 17 18  1  0
 18 24  1  0
 18 19  1  1
 20 19  1  0
 21 20  1  0
 22 21  1  0
 23 22  1  0
 24 25  1  0
 26 24  2  0
M  END
$$$$
