PKK.pdb
     RDKit          3D

 26 26  0  0  1  0  0  0  0  0999 V2000
    7.7170  -15.1059   18.7418 N   0  0  0  0  0  0  0  0  0  0  0  0
    7.3878  -14.2053   17.6272 C   0  0  0  0  0  0  0  0  0  0  0  0
    7.4134  -12.8131   18.1746 C   0  0  0  0  0  0  0  0  0  0  0  0
    7.8167  -12.9958   19.6350 C   0  0  0  0  0  0  0  0  0  0  0  0
    8.6164  -14.2736   19.5648 C   0  0  1  0  0  0  0  0  0  0  0  0
    8.8276  -14.9123   20.8941 C   0  0  0  0  0  0  0  0  0  0  0  0
    9.6562  -14.4175   21.6856 O   0  0  0  0  0  0  0  0  0  0  0  0
    8.1208  -16.0524   21.2744 N   0  0  0  0  0  0  0  0  0  0  0  0
    8.1827  -16.7790   22.5078 C   0  0  1  0  0  0  0  0  0  0  0  0
    7.1156  -17.7639   22.7644 C   0  0  0  0  0  0  0  0  0  0  0  0
    7.5442  -18.7687   23.8384 C   0  0  0  0  0  0  0  0  0  0  0  0
    6.4767  -19.8295   23.9274 C   0  0  0  0  0  0  0  0  0  0  0  0
    6.8995  -20.8742   24.9688 C   0  0  0  0  0  0  0  0  0  0  0  0
    5.7859  -21.8210   25.0381 N   0  0  0  0  0  0  0  0  0  0  0  0
    9.5732  -17.2600   22.7027 C   0  0  0  0  0  0  0  0  0  0  0  0
   10.1119  -17.9523   21.8089 O   0  0  0  0  0  0  0  0  0  0  0  0
   10.3439  -16.9926   23.8484 N   0  0  0  0  0  0  0  0  0  0  0  0
   11.6741  -17.5090   24.0133 C   0  0  1  0  0  0  0  0  0  0  0  0
   12.7733  -16.5167   23.6898 C   0  0  0  0  0  0  0  0  0  0  0  0
   14.1161  -17.1595   23.7815 C   0  0  0  0  0  0  0  0  0  0  0  0
   15.2277  -16.2364   23.4513 C   0  0  0  0  0  0  0  0  0  0  0  0
   16.6137  -16.7667   23.4536 C   0  0  0  0  0  0  0  0  0  0  0  0
   17.6302  -15.8586   22.9999 N   0  0  0  0  0  0  0  0  0  0  0  0
   11.8228  -17.9660   25.4455 C   0  0  0  0  0  0  0  0  0  0  0  0
   12.7843  -18.8965   25.8136 O   0  0  0  0  0  0  0  0  0  0  0  0
   11.0847  -17.5206   26.3460 O   0  0  0  0  0  0  0  0  0  0  0  0
  1  2  1  0
  3  2  1  0
  4  5  1  0
  4  3  1  0
  5  1  1  0
  6  8  1  0
  5  6  1  1
  7  6  2  0
  9 15  1  0
  9  8  1  0
  9 10  1  6
 11 10  1  0
 12 11  1  0
 13 12  1  0
 14 13  1  0
 15 17  1  0
 16 15  2  0
 17 18  1  0
 18 24  1  0
 18 19  1  1
 20 19  1  0
 21 20  1  0
 22 21  1  0
 23 22  1  0
 24 25  1  0
 26 24  2  0
M  END
$$$$
