PKK.pdb
     RDKit          3D

 26 26  0  0  1  0  0  0  0  0999 V2000
    8.8831  -14.4764   18.0683 N   0  0  0  0  0  0  0  0  0  0  0  0
    8.4120  -13.5060   17.0693 C   0  0  0  0  0  0  0  0  0  0  0  0
    7.3324  -12.7025   17.7231 C   0  0  0  0  0  0  0  0  0  0  0  0
    7.2682  -13.2540   19.1445 C   0  0  0  0  0  0  0  0  0  0  0  0
    8.6814  -13.7473   19.3359 C   0  0  1  0  0  0  0  0  0  0  0  0
    8.8310  -14.6788   20.4890 C   0  0  0  0  0  0  0  0  0  0  0  0
    8.4818  -14.3040   21.6272 O   0  0  0  0  0  0  0  0  0  0  0  0
    9.3541  -15.9609   20.3259 N   0  0  0  0  0  0  0  0  0  0  0  0
    9.3911  -17.0430   21.2644 C   0  0  1  0  0  0  0  0  0  0  0  0
    9.5900  -18.3996   20.7216 C   0  0  0  0  0  0  0  0  0  0  0  0
    9.5941  -19.4432   21.8431 C   0  0  0  0  0  0  0  0  0  0  0  0
    9.7294  -20.8026   21.2054 C   0  0  0  0  0  0  0  0  0  0  0  0
    9.7724  -21.8676   22.3094 C   0  0  0  0  0  0  0  0  0  0  0  0
    9.8600  -23.1477   21.6059 N   0  0  0  0  0  0  0  0  0  0  0  0
   10.2734  -16.6578   22.3940 C   0  0  0  0  0  0  0  0  0  0  0  0
   11.3777  -16.1194   22.1515 O   0  0  0  0  0  0  0  0  0  0  0  0
    9.9526  -16.8650   23.7476 N   0  0  0  0  0  0  0  0  0  0  0  0
   10.7058  -16.2641   24.8130 C   0  0  1  0  0  0  0  0  0  0  0  0
    9.8746  -15.8607   26.0146 C   0  0  0  0  0  0  0  0  0  0  0  0
   10.7431  -15.3701   27.1234 C   0  0  0  0  0  0  0  0  0  0  0  0
    9.9784  -14.9654   28.3269 C   0  0  0  0  0  0  0  0  0  0  0  0
   10.7271  -14.4739   29.5101 C   0  0  0  0  0  0  0  0  0  0  0  0
    9.9366  -14.1919   30.6760 N   0  0  0  0  0  0  0  0  0  0  0  0
   11.7644  -17.2497   25.2492 C   0  0  0  0  0  0  0  0  0  0  0  0
   11.7072  -18.5861   24.8797 O   0  0  0  0  0  0  0  0  0  0  0  0
   12.7268  -16.8935   25.9570 O   0  0  0  0  0  0  0  0  0  0  0  0
  1  2  1  0
  3  2  1  0
  4  5  1  0
  4  3  1  0
  5  1  1  0
  6  8  1  0
  5  6  1  1
  7  6  2  0
  9 15  1  0
  9  8  1  0
  9 10  1  6
 11 10  1  0
 12 11  1  0
 13 12  1  0
 14 13  1  0
 15 17  1  0
 16 15  2  0
 17 18  1  0
 18 24  1  0
 18 19  1  1
 20 19  1  0
 21 20  1  0
 22 21  1  0
 23 22  1  0
 24 25  1  0
 26 24  2  0
M  END
$$$$
