PKK.pdb
     RDKit          3D

 26 26  0  0  1  0  0  0  0  0999 V2000
    9.9403  -18.7531   18.6303 N   0  0  0  0  0  0  0  0  0  0  0  0
   10.3422  -19.3309   17.3395 C   0  0  0  0  0  0  0  0  0  0  0  0
   11.2507  -18.3381   16.6857 C   0  0  0  0  0  0  0  0  0  0  0  0
   11.3599  -17.2076   17.7048 C   0  0  0  0  0  0  0  0  0  0  0  0
   11.1224  -17.9489   18.9976 C   0  0  1  0  0  0  0  0  0  0  0  0
   10.7936  -17.0523   20.1411 C   0  0  0  0  0  0  0  0  0  0  0  0
   11.6667  -16.2761   20.5803 O   0  0  0  0  0  0  0  0  0  0  0  0
    9.5314  -17.0612   20.7335 N   0  0  0  0  0  0  0  0  0  0  0  0
    8.9731  -16.1357   21.6742 C   0  0  1  0  0  0  0  0  0  0  0  0
    7.5269  -15.8648   21.5762 C   0  0  0  0  0  0  0  0  0  0  0  0
    7.2665  -14.3906   21.2511 C   0  0  0  0  0  0  0  0  0  0  0  0
    7.5401  -14.1886   19.7823 C   0  0  0  0  0  0  0  0  0  0  0  0
    7.2973  -12.7151   19.4294 C   0  0  0  0  0  0  0  0  0  0  0  0
    7.6913  -12.5855   18.0261 N   0  0  0  0  0  0  0  0  0  0  0  0
    9.4822  -16.4731   23.0268 C   0  0  0  0  0  0  0  0  0  0  0  0
    9.9096  -17.6291   23.2488 O   0  0  0  0  0  0  0  0  0  0  0  0
    9.5135  -15.5681   24.1030 N   0  0  0  0  0  0  0  0  0  0  0  0
    9.9638  -15.9513   25.4121 C   0  0  1  0  0  0  0  0  0  0  0  0
   10.0579  -14.8054   26.3999 C   0  0  0  0  0  0  0  0  0  0  0  0
   10.6078  -15.2709   27.7058 C   0  0  0  0  0  0  0  0  0  0  0  0
   10.7859  -14.1743   28.6870 C   0  0  0  0  0  0  0  0  0  0  0  0
   11.4154  -14.4879   29.9937 C   0  0  0  0  0  0  0  0  0  0  0  0
   11.5123  -13.3929   30.9186 N   0  0  0  0  0  0  0  0  0  0  0  0
    9.0087  -16.9920   25.9477 C   0  0  0  0  0  0  0  0  0  0  0  0
    7.6996  -17.0761   25.4950 O   0  0  0  0  0  0  0  0  0  0  0  0
    9.3665  -17.8118   26.8160 O   0  0  0  0  0  0  0  0  0  0  0  0
  1  2  1  0
  3  2  1  0
  4  5  1  0
  4  3  1  0
  5  1  1  0
  6  8  1  0
  5  6  1  1
  7  6  2  0
  9 15  1  0
  9  8  1  0
  9 10  1  1
 11 10  1  0
 12 11  1  0
 13 12  1  0
 14 13  1  0
 15 17  1  0
 16 15  2  0
 17 18  1  0
 18 24  1  0
 18 19  1  1
 20 19  1  0
 21 20  1  0
 22 21  1  0
 23 22  1  0
 24 25  1  0
 26 24  2  0
M  END
$$$$
