PKK.pdb
     RDKit          3D

 26 26  0  0  1  0  0  0  0  0999 V2000
    8.3056  -14.9525   18.4651 N   0  0  0  0  0  0  0  0  0  0  0  0
    8.3682  -14.0812   17.2826 C   0  0  0  0  0  0  0  0  0  0  0  0
    7.8032  -12.7573   17.6909 C   0  0  0  0  0  0  0  0  0  0  0  0
    7.4694  -12.9362   19.1691 C   0  0  0  0  0  0  0  0  0  0  0  0
    8.4690  -13.9917   19.5738 C   0  0  1  0  0  0  0  0  0  0  0  0
    8.1421  -14.6490   20.8703 C   0  0  0  0  0  0  0  0  0  0  0  0
    8.1918  -13.9818   21.9239 O   0  0  0  0  0  0  0  0  0  0  0  0
    7.7825  -15.9946   20.9338 N   0  0  0  0  0  0  0  0  0  0  0  0
    7.3315  -16.7525   22.0632 C   0  0  1  0  0  0  0  0  0  0  0  0
    6.7203  -18.0668   21.7924 C   0  0  0  0  0  0  0  0  0  0  0  0
    6.4179  -18.8097   23.0976 C   0  0  0  0  0  0  0  0  0  0  0  0
    5.7908  -20.1329   22.7387 C   0  0  0  0  0  0  0  0  0  0  0  0
    5.3165  -20.8234   24.0244 C   0  0  0  0  0  0  0  0  0  0  0  0
    4.7954  -22.1214   23.5943 N   0  0  0  0  0  0  0  0  0  0  0  0
    8.3922  -16.7290   23.1010 C   0  0  0  0  0  0  0  0  0  0  0  0
    9.5746  -16.9789   22.7729 O   0  0  0  0  0  0  0  0  0  0  0  0
    8.1572  -16.4457   24.4585 N   0  0  0  0  0  0  0  0  0  0  0  0
    9.2218  -16.1291   25.3694 C   0  0  1  0  0  0  0  0  0  0  0  0
    8.8362  -15.1564   26.4660 C   0  0  0  0  0  0  0  0  0  0  0  0
    9.7677  -15.2640   27.6260 C   0  0  0  0  0  0  0  0  0  0  0  0
    9.4496  -14.3141   28.7185 C   0  0  0  0  0  0  0  0  0  0  0  0
   10.3577  -14.2523   29.8906 C   0  0  0  0  0  0  0  0  0  0  0  0
    9.9612  -13.3558   30.9408 N   0  0  0  0  0  0  0  0  0  0  0  0
    9.6999  -17.4188   25.9943 C   0  0  0  0  0  0  0  0  0  0  0  0
   10.9752  -17.5364   26.5287 O   0  0  0  0  0  0  0  0  0  0  0  0
    8.9621  -18.4221   26.0508 O   0  0  0  0  0  0  0  0  0  0  0  0
  1  2  1  0
  3  2  1  0
  4  5  1  0
  4  3  1  0
  5  1  1  0
  6  8  1  0
  5  6  1  1
  7  6  2  0
  9 15  1  0
  9  8  1  0
  9 10  1  6
 11 10  1  0
 12 11  1  0
 13 12  1  0
 14 13  1  0
 15 17  1  0
 16 15  2  0
 17 18  1  0
 18 24  1  0
 18 19  1  1
 20 19  1  0
 21 20  1  0
 22 21  1  0
 23 22  1  0
 24 25  1  0
 26 24  2  0
M  END
$$$$
