LPI.pdb
     RDKit          3D

 24 24  0  0  1  0  0  0  0  0999 V2000
   23.8245  -18.9134  -15.2626 C   0  0  0  0  0  0  0  0  0  0  0  0
   22.9852  -19.5153  -14.1815 C   0  0  2  0  0  0  0  0  0  0  0  0
   21.8797  -18.5382  -13.8399 C   0  0  0  0  0  0  0  0  0  0  0  0
   23.7450  -19.7994  -12.9229 C   0  0  0  0  0  0  0  0  0  0  0  0
   24.6471  -21.0174  -13.0552 C   0  0  2  0  0  0  0  0  0  0  0  0
   23.9862  -22.0426  -13.7507 N   0  0  0  0  0  0  0  0  0  0  0  0
   25.3207  -21.3218  -11.7913 C   0  0  0  0  0  0  0  0  0  0  0  0
   24.4886  -21.4573  -10.8094 O   0  0  0  0  0  0  0  0  0  0  0  0
   26.6709  -21.4813  -11.5008 N   0  0  0  0  0  0  0  0  0  0  0  0
   27.6518  -22.1095  -12.4337 C   0  0  0  0  0  0  0  0  0  0  0  0
   28.7561  -21.0643  -12.3987 C   0  0  0  0  0  0  0  0  0  0  0  0
   28.5466  -20.2609  -11.1332 C   0  0  0  0  0  0  0  0  0  0  0  0
   27.5368  -21.1863  -10.3950 C   0  0  1  0  0  0  0  0  0  0  0  0
   27.0613  -20.5578   -9.2089 C   0  0  0  0  0  0  0  0  0  0  0  0
   26.1288  -19.7589   -9.0991 O   0  0  0  0  0  0  0  0  0  0  0  0
   28.8402  -22.3652   -3.9707 C   0  0  0  0  0  0  0  0  0  0  0  0
   27.9386  -21.8494   -5.0433 C   0  0  0  0  0  0  0  0  0  0  0  0
   28.3293  -20.5516   -5.6201 C   0  0  2  0  0  0  0  0  0  0  0  0
   28.3689  -19.5010   -4.4989 C   0  0  0  0  0  0  0  0  0  0  0  0
   27.6229  -20.0368   -6.8082 C   0  0  2  0  0  0  0  0  0  0  0  0
   27.7445  -20.8856   -7.9744 N   0  0  0  0  0  0  0  0  0  0  0  0
   28.0355  -18.6688   -7.1583 C   0  0  0  0  0  0  0  0  0  0  0  0
   29.1689  -18.3695   -7.9214 O   0  0  0  0  0  0  0  0  0  0  0  0
   27.3345  -17.6748   -6.7519 O   0  0  0  0  0  0  0  0  0  0  0  0
  2  1  1  6
  2  3  1  0
  4  2  1  0
  5  6  1  1
  5  4  1  0
  5  7  1  0
  7  8  2  0
  9  7  1  0
  9 10  1  0
 11 10  1  0
 12 13  1  0
 12 11  1  0
 13  9  1  0
 13 14  1  1
 15 14  2  0
 17 16  1  0
 17 18  1  0
 18 20  1  0
 18 19  1  1
 20 22  1  0
 20 21  1  6
 21 14  1  0
 22 23  1  0
 24 22  2  0
M  END
$$$$
