LPI.pdb
     RDKit          3D

 24 24  0  0  1  0  0  0  0  0999 V2000
   22.9446  -22.1350  -12.0407 C   0  0  0  0  0  0  0  0  0  0  0  0
   23.1817  -21.5518  -10.6846 C   0  0  2  0  0  0  0  0  0  0  0  0
   21.9247  -20.8244  -10.2549 C   0  0  0  0  0  0  0  0  0  0  0  0
   24.3108  -20.5690  -10.6455 C   0  0  0  0  0  0  0  0  0  0  0  0
   25.5089  -21.0329  -11.4605 C   0  0  2  0  0  0  0  0  0  0  0  0
   26.3739  -21.8014  -10.6650 N   0  0  0  0  0  0  0  0  0  0  0  0
   26.0539  -19.9445  -12.2742 C   0  0  0  0  0  0  0  0  0  0  0  0
   25.5208  -18.8004  -11.9878 O   0  0  0  0  0  0  0  0  0  0  0  0
   27.0229  -19.9573  -13.2709 N   0  0  0  0  0  0  0  0  0  0  0  0
   28.3561  -20.6118  -13.1237 C   0  0  0  0  0  0  0  0  0  0  0  0
   28.3974  -21.4192  -14.4119 C   0  0  0  0  0  0  0  0  0  0  0  0
   27.3959  -20.7814  -15.3505 C   0  0  0  0  0  0  0  0  0  0  0  0
   27.1489  -19.4390  -14.6033 C   0  0  1  0  0  0  0  0  0  0  0  0
   26.1023  -18.7053  -15.2313 C   0  0  0  0  0  0  0  0  0  0  0  0
   24.9370  -19.0615  -15.4183 O   0  0  0  0  0  0  0  0  0  0  0  0
   24.0929  -13.0300  -15.3869 C   0  0  0  0  0  0  0  0  0  0  0  0
   24.3210  -14.2430  -16.2272 C   0  0  0  0  0  0  0  0  0  0  0  0
   25.2300  -15.2459  -15.6463 C   0  0  2  0  0  0  0  0  0  0  0  0
   26.5784  -14.5754  -15.3382 C   0  0  0  0  0  0  0  0  0  0  0  0
   25.4219  -16.5404  -16.3268 C   0  0  2  0  0  0  0  0  0  0  0  0
   26.4298  -17.3794  -15.7140 N   0  0  0  0  0  0  0  0  0  0  0  0
   25.7252  -16.3836  -17.7577 C   0  0  0  0  0  0  0  0  0  0  0  0
   27.0230  -16.3418  -18.2777 O   0  0  0  0  0  0  0  0  0  0  0  0
   24.7630  -16.2749  -18.5985 O   0  0  0  0  0  0  0  0  0  0  0  0
  2  1  1  6
  2  3  1  0
  4  2  1  0
  5  6  1  1
  5  4  1  0
  5  7  1  0
  7  8  2  0
  9  7  1  0
  9 10  1  0
 11 10  1  0
 12 13  1  0
 12 11  1  0
 13  9  1  0
 13 14  1  6
 15 14  2  0
 17 16  1  0
 17 18  1  0
 18 20  1  0
 18 19  1  6
 20 22  1  0
 20 21  1  1
 21 14  1  0
 22 23  1  0
 24 22  2  0
M  END
$$$$
