LPI.pdb
     RDKit          3D

 24 24  0  0  1  0  0  0  0  0999 V2000
   22.7788  -18.9609  -15.2961 C   0  0  0  0  0  0  0  0  0  0  0  0
   22.0377  -19.1686  -14.0144 C   0  0  2  0  0  0  0  0  0  0  0  0
   21.2582  -17.9068  -13.7075 C   0  0  0  0  0  0  0  0  0  0  0  0
   22.9311  -19.4460  -12.8452 C   0  0  0  0  0  0  0  0  0  0  0  0
   23.3391  -20.9095  -12.7645 C   0  0  2  0  0  0  0  0  0  0  0  0
   22.2352  -21.7399  -13.0160 N   0  0  0  0  0  0  0  0  0  0  0  0
   24.1812  -21.1644  -11.5941 C   0  0  0  0  0  0  0  0  0  0  0  0
   23.5189  -21.0899  -10.4847 O   0  0  0  0  0  0  0  0  0  0  0  0
   25.5356  -21.4640  -11.5015 N   0  0  0  0  0  0  0  0  0  0  0  0
   26.2662  -22.3160  -12.4853 C   0  0  0  0  0  0  0  0  0  0  0  0
   27.4673  -21.4260  -12.7647 C   0  0  0  0  0  0  0  0  0  0  0  0
   27.5686  -20.4638  -11.6006 C   0  0  0  0  0  0  0  0  0  0  0  0
   26.6065  -21.1606  -10.5956 C   0  0  1  0  0  0  0  0  0  0  0  0
   26.4146  -20.3452   -9.4439 C   0  0  0  0  0  0  0  0  0  0  0  0
   25.7260  -19.3274   -9.3453 O   0  0  0  0  0  0  0  0  0  0  0  0
   27.9969  -22.0553   -4.0510 C   0  0  0  0  0  0  0  0  0  0  0  0
   27.2438  -21.5140   -5.2213 C   0  0  0  0  0  0  0  0  0  0  0  0
   27.9139  -20.4213   -5.9468 C   0  0  2  0  0  0  0  0  0  0  0  0
   28.3338  -19.3395   -4.9389 C   0  0  0  0  0  0  0  0  0  0  0  0
   27.2671  -19.8245   -7.1304 C   0  0  2  0  0  0  0  0  0  0  0  0
   27.1041  -20.7461   -8.2347 N   0  0  0  0  0  0  0  0  0  0  0  0
   27.9640  -18.6184   -7.6035 C   0  0  0  0  0  0  0  0  0  0  0  0
   27.5639  -17.3153   -7.2896 O   0  0  0  0  0  0  0  0  0  0  0  0
   28.9999  -18.7399   -8.3496 O   0  0  0  0  0  0  0  0  0  0  0  0
  2  1  1  6
  2  3  1  0
  4  2  1  0
  5  6  1  1
  5  4  1  0
  5  7  1  0
  7  8  2  0
  9  7  1  0
  9 10  1  0
 11 10  1  0
 12 13  1  0
 12 11  1  0
 13  9  1  0
 13 14  1  1
 15 14  2  0
 17 16  1  0
 17 18  1  0
 18 20  1  0
 18 19  1  1
 20 22  1  0
 20 21  1  6
 21 14  1  0
 22 23  1  0
 24 22  2  0
M  END
$$$$
