LPI.pdb
     RDKit          3D

 24 24  0  0  1  0  0  0  0  0999 V2000
   27.2406  -25.4216  -17.2488 C   0  0  0  0  0  0  0  0  0  0  0  0
   28.6457  -24.9136  -17.1952 C   0  0  2  0  0  0  0  0  0  0  0  0
   29.5604  -26.0806  -16.8867 C   0  0  0  0  0  0  0  0  0  0  0  0
   28.8657  -23.8733  -16.1409 C   0  0  0  0  0  0  0  0  0  0  0  0
   28.0232  -22.6279  -16.3736 C   0  0  2  0  0  0  0  0  0  0  0  0
   28.3398  -22.0472  -17.6122 N   0  0  0  0  0  0  0  0  0  0  0  0
   27.9714  -21.7877  -15.1756 C   0  0  0  0  0  0  0  0  0  0  0  0
   28.7423  -22.2256  -14.2327 O   0  0  0  0  0  0  0  0  0  0  0  0
   27.2448  -20.6324  -14.9110 N   0  0  0  0  0  0  0  0  0  0  0  0
   27.1897  -19.4580  -15.8304 C   0  0  0  0  0  0  0  0  0  0  0  0
   25.6861  -19.2361  -15.8853 C   0  0  0  0  0  0  0  0  0  0  0  0
   25.1068  -19.9175  -14.6643 C   0  0  0  0  0  0  0  0  0  0  0  0
   26.4102  -20.1516  -13.8471 C   0  0  1  0  0  0  0  0  0  0  0  0
   26.1372  -20.9328  -12.6882 C   0  0  0  0  0  0  0  0  0  0  0  0
   25.8477  -22.1300  -12.6353 O   0  0  0  0  0  0  0  0  0  0  0  0
   27.8303  -19.4298   -7.4389 C   0  0  0  0  0  0  0  0  0  0  0  0
   27.4526  -20.2037   -8.6588 C   0  0  0  0  0  0  0  0  0  0  0  0
   26.0128  -20.2210   -8.9690 C   0  0  2  0  0  0  0  0  0  0  0  0
   25.2540  -20.8204   -7.7743 C   0  0  0  0  0  0  0  0  0  0  0  0
   25.5459  -20.8013  -10.2421 C   0  0  2  0  0  0  0  0  0  0  0  0
   26.2036  -20.2545  -11.4100 N   0  0  0  0  0  0  0  0  0  0  0  0
   24.0885  -20.6904  -10.4093 C   0  0  0  0  0  0  0  0  0  0  0  0
   23.1889  -21.7124  -10.0890 O   0  0  0  0  0  0  0  0  0  0  0  0
   23.5875  -19.6057  -10.8752 O   0  0  0  0  0  0  0  0  0  0  0  0
  2  1  1  1
  2  3  1  0
  4  2  1  0
  5  6  1  6
  5  4  1  0
  5  7  1  0
  7  8  2  0
  9  7  1  0
  9 10  1  0
 11 10  1  0
 12 13  1  0
 12 11  1  0
 13  9  1  0
 13 14  1  1
 15 14  2  0
 17 16  1  0
 17 18  1  0
 18 20  1  0
 18 19  1  1
 20 22  1  0
 20 21  1  6
 21 14  1  0
 22 23  1  0
 24 22  2  0
M  END
$$$$
