KHG.pdb
     RDKit          3D

 24 24  0  0  1  0  0  0  0  0999 V2000
   12.0119  -16.8605   17.4454 N   0  0  0  0  0  0  0  0  0  0  0  0
   11.1407  -17.3436   18.4362 C   0  0  1  0  0  0  0  0  0  0  0  0
   11.3743  -18.6693   19.0455 C   0  0  0  0  0  0  0  0  0  0  0  0
   11.3544  -19.9095   18.2927 C   0  0  0  0  0  0  0  0  0  0  0  0
   10.5158  -21.0663   18.5261 C   0  0  0  0  0  0  0  0  0  0  0  0
   10.5903  -22.3155   17.7546 C   0  0  0  0  0  0  0  0  0  0  0  0
    9.6807  -23.2667   18.4994 N   0  0  0  0  0  0  0  0  0  0  0  0
   11.0210  -16.2716   19.5062 C   0  0  0  0  0  0  0  0  0  0  0  0
   11.9894  -15.5029   19.6570 O   0  0  0  0  0  0  0  0  0  0  0  0
    9.8734  -16.1257   20.3131 N   0  0  0  0  0  0  0  0  0  0  0  0
    9.7547  -15.0401   21.3011 C   0  0  1  0  0  0  0  0  0  0  0  0
    8.4127  -14.4217   21.0572 C   0  0  0  0  0  0  0  0  0  0  0  0
    8.1418  -13.8963   19.7261 C   0  0  0  0  0  0  0  0  0  0  0  0
    8.5516  -12.7017   19.1320 C   0  0  0  0  0  0  0  0  0  0  0  0
    8.0167  -12.6368   17.8987 N   0  0  0  0  0  0  0  0  0  0  0  0
    7.2844  -13.7355   17.6796 C   0  0  0  0  0  0  0  0  0  0  0  0
    7.3620  -14.4848   18.7739 N   0  0  0  0  0  0  0  0  0  0  0  0
    9.9183  -15.5398   22.6607 C   0  0  0  0  0  0  0  0  0  0  0  0
    9.7222  -14.8410   23.6976 O   0  0  0  0  0  0  0  0  0  0  0  0
   10.3156  -16.8894   22.8728 N   0  0  0  0  0  0  0  0  0  0  0  0
   10.5320  -17.4317   24.1938 C   0  0  0  0  0  0  0  0  0  0  0  0
   11.9353  -17.3725   24.6474 C   0  0  0  0  0  0  0  0  0  0  0  0
   12.8131  -16.8931   23.8942 O   0  0  0  0  0  0  0  0  0  0  0  0
   12.2824  -17.8460   25.9040 O   0  0  0  0  0  0  0  0  0  0  0  0
  2  1  1  6
  3  2  1  0
  4  3  1  0
  5  6  1  0
  5  4  1  0
  6  7  1  0
  8  2  1  0
  9  8  2  0
 10  8  1  0
 11 10  1  0
 11 12  1  1
 12 13  1  0
 13 14  2  0
 15 14  1  0
 16 15  1  0
 17 16  2  0
 17 13  1  0
 18 11  1  0
 19 18  2  0
 20 18  1  0
 21 20  1  0
 22 24  1  0
 22 21  1  0
 23 22  2  0
M  END
$$$$
