KHG.pdb
     RDKit          3D

 24 24  0  0  1  0  0  0  0  0999 V2000
    7.9471  -12.5398   19.7392 N   0  0  0  0  0  0  0  0  0  0  0  0
    7.7914  -13.8961   20.0709 C   0  0  1  0  0  0  0  0  0  0  0  0
    8.3122  -14.9438   19.1686 C   0  0  0  0  0  0  0  0  0  0  0  0
    7.6227  -15.3803   17.9689 C   0  0  0  0  0  0  0  0  0  0  0  0
    8.0501  -16.3954   17.0292 C   0  0  0  0  0  0  0  0  0  0  0  0
    7.2690  -16.8277   15.8612 C   0  0  0  0  0  0  0  0  0  0  0  0
    8.1446  -17.8628   15.1915 N   0  0  0  0  0  0  0  0  0  0  0  0
    8.3199  -14.0883   21.4824 C   0  0  0  0  0  0  0  0  0  0  0  0
    9.2863  -13.3847   21.8324 O   0  0  0  0  0  0  0  0  0  0  0  0
    7.7613  -15.0172   22.3850 N   0  0  0  0  0  0  0  0  0  0  0  0
    8.4225  -15.3543   23.6570 C   0  0  1  0  0  0  0  0  0  0  0  0
    7.3580  -15.2398   24.7042 C   0  0  0  0  0  0  0  0  0  0  0  0
    6.9696  -13.9024   25.1305 C   0  0  0  0  0  0  0  0  0  0  0  0
    7.4769  -12.6577   24.7547 C   0  0  0  0  0  0  0  0  0  0  0  0
    6.8240  -11.7072   25.4485 N   0  0  0  0  0  0  0  0  0  0  0  0
    5.9236  -12.2892   26.2498 C   0  0  0  0  0  0  0  0  0  0  0  0
    6.0143  -13.6005   26.0564 N   0  0  0  0  0  0  0  0  0  0  0  0
    9.0348  -16.6761   23.6025 C   0  0  0  0  0  0  0  0  0  0  0  0
    8.4313  -17.7176   23.2115 O   0  0  0  0  0  0  0  0  0  0  0  0
   10.3910  -16.8419   23.9996 N   0  0  0  0  0  0  0  0  0  0  0  0
   11.0790  -18.1066   23.8871 C   0  0  0  0  0  0  0  0  0  0  0  0
   12.4540  -18.0950   24.4237 C   0  0  0  0  0  0  0  0  0  0  0  0
   13.3467  -17.4452   23.8334 O   0  0  0  0  0  0  0  0  0  0  0  0
   12.7579  -18.8011   25.5781 O   0  0  0  0  0  0  0  0  0  0  0  0
  2  1  1  6
  3  2  1  0
  4  3  1  0
  5  6  1  0
  5  4  1  0
  6  7  1  0
  8  2  1  0
  9  8  2  0
 10  8  1  0
 11 10  1  0
 11 12  1  1
 12 13  1  0
 13 14  2  0
 15 14  1  0
 16 15  1  0
 17 16  2  0
 17 13  1  0
 18 11  1  0
 19 18  2  0
 20 18  1  0
 21 20  1  0
 22 24  1  0
 22 21  1  0
 23 22  2  0
M  END
$$$$
