KHG.pdb
     RDKit          3D

 24 24  0  0  1  0  0  0  0  0999 V2000
    6.0613  -17.9830   23.8124 N   0  0  0  0  0  0  0  0  0  0  0  0
    6.7269  -16.7459   23.8365 C   0  0  1  0  0  0  0  0  0  0  0  0
    7.1601  -16.1629   25.1232 C   0  0  0  0  0  0  0  0  0  0  0  0
    7.5358  -16.9602   26.2757 C   0  0  0  0  0  0  0  0  0  0  0  0
    8.8537  -17.4589   26.6080 C   0  0  0  0  0  0  0  0  0  0  0  0
    9.1438  -18.3479   27.7423 C   0  0  0  0  0  0  0  0  0  0  0  0
   10.6347  -18.5851   27.6564 N   0  0  0  0  0  0  0  0  0  0  0  0
    7.8908  -16.8305   22.8635 C   0  0  0  0  0  0  0  0  0  0  0  0
    7.9737  -17.8537   22.1581 O   0  0  0  0  0  0  0  0  0  0  0  0
    8.8555  -15.8090   22.7393 N   0  0  0  0  0  0  0  0  0  0  0  0
    9.7729  -15.7464   21.5890 C   0  0  1  0  0  0  0  0  0  0  0  0
    9.6903  -14.3378   21.0872 C   0  0  0  0  0  0  0  0  0  0  0  0
    8.6213  -14.0141   20.1525 C   0  0  0  0  0  0  0  0  0  0  0  0
    7.7303  -14.8536   19.4823 C   0  0  0  0  0  0  0  0  0  0  0  0
    6.9474  -14.0959   18.6922 N   0  0  0  0  0  0  0  0  0  0  0  0
    7.2989  -12.8116   18.8281 C   0  0  0  0  0  0  0  0  0  0  0  0
    8.2991  -12.7676   19.7013 N   0  0  0  0  0  0  0  0  0  0  0  0
   11.1240  -16.1437   21.9656 C   0  0  0  0  0  0  0  0  0  0  0  0
   12.1177  -16.0944   21.1834 O   0  0  0  0  0  0  0  0  0  0  0  0
   11.3788  -16.6146   23.2838 N   0  0  0  0  0  0  0  0  0  0  0  0
   12.6954  -17.0198   23.7175 C   0  0  0  0  0  0  0  0  0  0  0  0
   12.7712  -17.3977   25.1423 C   0  0  0  0  0  0  0  0  0  0  0  0
   11.7252  -17.4517   25.8283 O   0  0  0  0  0  0  0  0  0  0  0  0
   13.9966  -17.6924   25.7213 O   0  0  0  0  0  0  0  0  0  0  0  0
  2  1  1  1
  3  2  1  0
  4  3  1  0
  5  6  1  0
  5  4  1  0
  6  7  1  0
  8  2  1  0
  9  8  2  0
 10  8  1  0
 11 10  1  0
 11 12  1  1
 12 13  1  0
 13 14  2  0
 15 14  1  0
 16 15  1  0
 17 16  2  0
 17 13  1  0
 18 11  1  0
 19 18  2  0
 20 18  1  0
 21 20  1  0
 22 24  1  0
 22 21  1  0
 23 22  2  0
M  END
$$$$
