KHG.pdb
     RDKit          3D

 24 24  0  0  1  0  0  0  0  0999 V2000
    8.9494  -18.7177   19.1510 N   0  0  0  0  0  0  0  0  0  0  0  0
    9.6296  -18.0329   18.1300 C   0  0  1  0  0  0  0  0  0  0  0  0
    8.9201  -17.6588   16.8890 C   0  0  0  0  0  0  0  0  0  0  0  0
    7.9465  -18.5139   16.2364 C   0  0  0  0  0  0  0  0  0  0  0  0
    7.1431  -18.2029   15.0728 C   0  0  0  0  0  0  0  0  0  0  0  0
    6.0670  -19.0593   14.5534 C   0  0  0  0  0  0  0  0  0  0  0  0
    5.4406  -18.2391   13.4481 N   0  0  0  0  0  0  0  0  0  0  0  0
   10.2985  -16.8205   18.7554 C   0  0  0  0  0  0  0  0  0  0  0  0
   11.0090  -16.1138   18.0157 O   0  0  0  0  0  0  0  0  0  0  0  0
   10.1417  -16.4811   20.1154 N   0  0  0  0  0  0  0  0  0  0  0  0
   10.7527  -15.2688   20.6861 C   0  0  1  0  0  0  0  0  0  0  0  0
    9.6077  -14.3652   21.0258 C   0  0  0  0  0  0  0  0  0  0  0  0
    8.7605  -13.9068   19.9334 C   0  0  0  0  0  0  0  0  0  0  0  0
    8.9605  -12.8759   19.0141 C   0  0  0  0  0  0  0  0  0  0  0  0
    7.8787  -12.8039   18.2167 N   0  0  0  0  0  0  0  0  0  0  0  0
    6.9982  -13.7419   18.5858 C   0  0  0  0  0  0  0  0  0  0  0  0
    7.5292  -14.3982   19.6116 N   0  0  0  0  0  0  0  0  0  0  0  0
   11.5926  -15.5880   21.8341 C   0  0  0  0  0  0  0  0  0  0  0  0
   12.1667  -14.7180   22.5519 O   0  0  0  0  0  0  0  0  0  0  0  0
   11.7971  -16.9471   22.2019 N   0  0  0  0  0  0  0  0  0  0  0  0
   12.5458  -17.3241   23.3779 C   0  0  0  0  0  0  0  0  0  0  0  0
   11.8762  -18.3336   24.2212 C   0  0  0  0  0  0  0  0  0  0  0  0
   10.7502  -18.7713   23.8922 O   0  0  0  0  0  0  0  0  0  0  0  0
   12.4909  -18.7971   25.3749 O   0  0  0  0  0  0  0  0  0  0  0  0
  2  1  1  1
  3  2  1  0
  4  3  1  0
  5  6  1  0
  5  4  1  0
  6  7  1  0
  8  2  1  0
  9  8  2  0
 10  8  1  0
 11 10  1  0
 11 12  1  1
 12 13  1  0
 13 14  2  0
 15 14  1  0
 16 15  1  0
 17 16  2  0
 17 13  1  0
 18 11  1  0
 19 18  2  0
 20 18  1  0
 21 20  1  0
 22 24  1  0
 22 21  1  0
 23 22  2  0
M  END
$$$$
