KHG.pdb
     RDKit          3D

 24 24  0  0  1  0  0  0  0  0999 V2000
    6.2356  -18.2742   20.1272 N   0  0  0  0  0  0  0  0  0  0  0  0
    7.1016  -17.1688   20.1754 C   0  0  1  0  0  0  0  0  0  0  0  0
    6.6622  -15.9111   20.8144 C   0  0  0  0  0  0  0  0  0  0  0  0
    7.4386  -14.6858   20.7843 C   0  0  0  0  0  0  0  0  0  0  0  0
    7.5549  -13.7452   19.6898 C   0  0  0  0  0  0  0  0  0  0  0  0
    8.3664  -12.5201   19.7302 C   0  0  0  0  0  0  0  0  0  0  0  0
    8.1997  -11.9188   18.3527 N   0  0  0  0  0  0  0  0  0  0  0  0
    8.4193  -17.6420   20.7654 C   0  0  0  0  0  0  0  0  0  0  0  0
    8.3673  -18.4955   21.6710 O   0  0  0  0  0  0  0  0  0  0  0  0
    9.6685  -17.1546   20.3276 N   0  0  0  0  0  0  0  0  0  0  0  0
   10.9332  -17.6291   20.9141 C   0  0  1  0  0  0  0  0  0  0  0  0
   11.8194  -17.9488   19.7499 C   0  0  0  0  0  0  0  0  0  0  0  0
   11.4044  -19.0236   18.8590 C   0  0  0  0  0  0  0  0  0  0  0  0
   11.0643  -18.9870   17.5059 C   0  0  0  0  0  0  0  0  0  0  0  0
   10.7076  -20.2276   17.1252 N   0  0  0  0  0  0  0  0  0  0  0  0
   10.8046  -21.0534   18.1741 C   0  0  0  0  0  0  0  0  0  0  0  0
   11.2211  -20.3298   19.2074 N   0  0  0  0  0  0  0  0  0  0  0  0
   11.5052  -16.6366   21.8158 C   0  0  0  0  0  0  0  0  0  0  0  0
   11.5696  -15.3999   21.5542 O   0  0  0  0  0  0  0  0  0  0  0  0
   12.0263  -17.0452   23.0750 N   0  0  0  0  0  0  0  0  0  0  0  0
   12.5463  -16.1026   24.0377 C   0  0  0  0  0  0  0  0  0  0  0  0
   13.2136  -16.7292   25.1956 C   0  0  0  0  0  0  0  0  0  0  0  0
   13.1924  -17.9741   25.3272 O   0  0  0  0  0  0  0  0  0  0  0  0
   13.8625  -15.9430   26.1359 O   0  0  0  0  0  0  0  0  0  0  0  0
  2  1  1  1
  3  2  1  0
  4  3  1  0
  5  6  1  0
  5  4  1  0
  6  7  1  0
  8  2  1  0
  9  8  2  0
 10  8  1  0
 11 10  1  0
 11 12  1  6
 12 13  1  0
 13 14  2  0
 15 14  1  0
 16 15  1  0
 17 16  2  0
 17 13  1  0
 18 11  1  0
 19 18  2  0
 20 18  1  0
 21 20  1  0
 22 24  1  0
 22 21  1  0
 23 22  2  0
M  END
$$$$
