KHG.pdb
     RDKit          3D

 24 24  0  0  1  0  0  0  0  0999 V2000
    0.6007  -22.6565   21.4483 N   0  0  0  0  0  0  0  0  0  0  0  0
    1.3445  -21.9976   22.4416 C   0  0  1  0  0  0  0  0  0  0  0  0
    1.2202  -22.4091   23.8553 C   0  0  0  0  0  0  0  0  0  0  0  0
    0.4827  -23.5828   24.2840 C   0  0  0  0  0  0  0  0  0  0  0  0
    0.2674  -24.0387   25.6412 C   0  0  0  0  0  0  0  0  0  0  0  0
   -0.4536  -25.2686   25.9997 C   0  0  0  0  0  0  0  0  0  0  0  0
   -0.3318  -25.3450   27.5050 N   0  0  0  0  0  0  0  0  0  0  0  0
    2.7998  -22.0007   22.0049 C   0  0  0  0  0  0  0  0  0  0  0  0
    3.2633  -23.0703   21.5660 O   0  0  0  0  0  0  0  0  0  0  0  0
    3.6201  -20.8557   22.0803 N   0  0  0  0  0  0  0  0  0  0  0  0
    5.0215  -20.8764   21.6281 C   0  0  1  0  0  0  0  0  0  0  0  0
    5.2106  -19.6093   20.8524 C   0  0  0  0  0  0  0  0  0  0  0  0
    6.5210  -19.3644   20.2658 C   0  0  0  0  0  0  0  0  0  0  0  0
    7.7764  -19.2936   20.8713 C   0  0  0  0  0  0  0  0  0  0  0  0
    8.6878  -19.0053   19.9240 N   0  0  0  0  0  0  0  0  0  0  0  0
    8.0705  -18.8888   18.7421 C   0  0  0  0  0  0  0  0  0  0  0  0
    6.7764  -19.1041   18.9512 N   0  0  0  0  0  0  0  0  0  0  0  0
    5.9400  -21.0037   22.7529 C   0  0  0  0  0  0  0  0  0  0  0  0
    7.1757  -21.2486   22.6304 O   0  0  0  0  0  0  0  0  0  0  0  0
    5.4550  -20.8442   24.0809 N   0  0  0  0  0  0  0  0  0  0  0  0
    6.3225  -20.9168   25.2332 C   0  0  0  0  0  0  0  0  0  0  0  0
    7.2549  -19.7795   25.3588 C   0  0  0  0  0  0  0  0  0  0  0  0
    7.2811  -18.8956   24.4724 O   0  0  0  0  0  0  0  0  0  0  0  0
    8.1002  -19.6886   26.4546 O   0  0  0  0  0  0  0  0  0  0  0  0
  2  1  1  6
  3  2  1  0
  4  3  1  0
  5  6  1  0
  5  4  1  0
  6  7  1  0
  8  2  1  0
  9  8  2  0
 10  8  1  0
 11 10  1  0
 11 12  1  1
 12 13  1  0
 13 14  2  0
 15 14  1  0
 16 15  1  0
 17 16  2  0
 17 13  1  0
 18 11  1  0
 19 18  2  0
 20 18  1  0
 21 20  1  0
 22 24  1  0
 22 21  1  0
 23 22  2  0
M  END
$$$$
