KHG.pdb
     RDKit          3D

 24 24  0  0  1  0  0  0  0  0999 V2000
    5.7546  -18.9719   20.2592 N   0  0  0  0  0  0  0  0  0  0  0  0
    5.7772  -18.0376   21.3083 C   0  0  1  0  0  0  0  0  0  0  0  0
    5.4824  -18.4687   22.6905 C   0  0  0  0  0  0  0  0  0  0  0  0
    6.0635  -19.6500   23.3003 C   0  0  0  0  0  0  0  0  0  0  0  0
    6.8067  -19.7240   24.5405 C   0  0  0  0  0  0  0  0  0  0  0  0
    7.4826  -20.9331   25.0330 C   0  0  0  0  0  0  0  0  0  0  0  0
    8.1167  -20.4996   26.3355 N   0  0  0  0  0  0  0  0  0  0  0  0
    7.1068  -17.3052   21.2437 C   0  0  0  0  0  0  0  0  0  0  0  0
    8.0835  -17.9311   20.7901 O   0  0  0  0  0  0  0  0  0  0  0  0
    7.2626  -15.9703   21.6718 N   0  0  0  0  0  0  0  0  0  0  0  0
    8.5784  -15.3088   21.6807 C   0  0  1  0  0  0  0  0  0  0  0  0
    8.3213  -13.9003   21.2414 C   0  0  0  0  0  0  0  0  0  0  0  0
    8.0286  -13.6738   19.8327 C   0  0  0  0  0  0  0  0  0  0  0  0
    6.9583  -13.0075   19.2342 C   0  0  0  0  0  0  0  0  0  0  0  0
    7.0994  -13.0936   17.8985 N   0  0  0  0  0  0  0  0  0  0  0  0
    8.2108  -13.7847   17.6184 C   0  0  0  0  0  0  0  0  0  0  0  0
    8.7625  -14.1292   18.7767 N   0  0  0  0  0  0  0  0  0  0  0  0
    9.2068  -15.3954   22.9932 C   0  0  0  0  0  0  0  0  0  0  0  0
    8.6070  -15.1496   24.0802 O   0  0  0  0  0  0  0  0  0  0  0  0
   10.5723  -15.7813   23.0970 N   0  0  0  0  0  0  0  0  0  0  0  0
   11.2078  -16.0357   24.3687 C   0  0  0  0  0  0  0  0  0  0  0  0
   12.6386  -16.3842   24.2688 C   0  0  0  0  0  0  0  0  0  0  0  0
   13.1937  -16.4191   23.1470 O   0  0  0  0  0  0  0  0  0  0  0  0
   13.3676  -16.6724   25.4129 O   0  0  0  0  0  0  0  0  0  0  0  0
  2  1  1  6
  3  2  1  0
  4  3  1  0
  5  6  1  0
  5  4  1  0
  6  7  1  0
  8  2  1  0
  9  8  2  0
 10  8  1  0
 11 10  1  0
 11 12  1  1
 12 13  1  0
 13 14  2  0
 15 14  1  0
 16 15  1  0
 17 16  2  0
 17 13  1  0
 18 11  1  0
 19 18  2  0
 20 18  1  0
 21 20  1  0
 22 24  1  0
 22 21  1  0
 23 22  2  0
M  END
$$$$
