KHG.pdb
     RDKit          3D

 24 24  0  0  1  0  0  0  0  0999 V2000
    8.0407  -19.3585   20.2725 N   0  0  0  0  0  0  0  0  0  0  0  0
    8.9165  -18.8885   19.2796 C   0  0  1  0  0  0  0  0  0  0  0  0
    8.4058  -18.5774   17.9284 C   0  0  0  0  0  0  0  0  0  0  0  0
    7.2863  -19.2697   17.3182 C   0  0  0  0  0  0  0  0  0  0  0  0
    7.1202  -19.6129   15.9215 C   0  0  0  0  0  0  0  0  0  0  0  0
    5.9092  -20.2238   15.3546 C   0  0  0  0  0  0  0  0  0  0  0  0
    6.1822  -20.2791   13.8683 N   0  0  0  0  0  0  0  0  0  0  0  0
    9.6730  -17.7038   19.8564 C   0  0  0  0  0  0  0  0  0  0  0  0
   10.5648  -17.1957   19.1507 O   0  0  0  0  0  0  0  0  0  0  0  0
    9.4009  -17.1762   21.1359 N   0  0  0  0  0  0  0  0  0  0  0  0
   10.2081  -16.0875   21.7119 C   0  0  1  0  0  0  0  0  0  0  0  0
    9.2286  -15.0191   22.0888 C   0  0  0  0  0  0  0  0  0  0  0  0
    8.6047  -14.2629   21.0116 C   0  0  0  0  0  0  0  0  0  0  0  0
    8.9415  -14.1820   19.6596 C   0  0  0  0  0  0  0  0  0  0  0  0
    8.0956  -13.3216   19.0633 N   0  0  0  0  0  0  0  0  0  0  0  0
    7.2351  -12.8503   19.9736 C   0  0  0  0  0  0  0  0  0  0  0  0
    7.5430  -13.4152   21.1359 N   0  0  0  0  0  0  0  0  0  0  0  0
   11.0068  -16.5574   22.8373 C   0  0  0  0  0  0  0  0  0  0  0  0
   11.8039  -15.8238   23.4918 O   0  0  0  0  0  0  0  0  0  0  0  0
   10.9058  -17.9134   23.2561 N   0  0  0  0  0  0  0  0  0  0  0  0
   11.6553  -18.4331   24.3758 C   0  0  0  0  0  0  0  0  0  0  0  0
   11.0278  -18.1854   25.6886 C   0  0  0  0  0  0  0  0  0  0  0  0
    9.9240  -17.5976   25.7497 O   0  0  0  0  0  0  0  0  0  0  0  0
   11.6574  -18.6019   26.8521 O   0  0  0  0  0  0  0  0  0  0  0  0
  2  1  1  1
  3  2  1  0
  4  3  1  0
  5  6  1  0
  5  4  1  0
  6  7  1  0
  8  2  1  0
  9  8  2  0
 10  8  1  0
 11 10  1  0
 11 12  1  1
 12 13  1  0
 13 14  2  0
 15 14  1  0
 16 15  1  0
 17 16  2  0
 17 13  1  0
 18 11  1  0
 19 18  2  0
 20 18  1  0
 21 20  1  0
 22 24  1  0
 22 21  1  0
 23 22  2  0
M  END
$$$$
