KHG.pdb
     RDKit          3D

 24 24  0  0  1  0  0  0  0  0999 V2000
    8.5994  -20.3356   19.8410 N   0  0  0  0  0  0  0  0  0  0  0  0
    9.3052  -20.7394   20.9868 C   0  0  1  0  0  0  0  0  0  0  0  0
    9.5369  -22.1754   21.2462 C   0  0  0  0  0  0  0  0  0  0  0  0
    8.4664  -23.1418   21.4048 C   0  0  0  0  0  0  0  0  0  0  0  0
    7.0691  -22.8705   21.6694 C   0  0  0  0  0  0  0  0  0  0  0  0
    6.0416  -23.9063   21.8500 C   0  0  0  0  0  0  0  0  0  0  0  0
    5.6245  -24.2651   20.4415 N   0  0  0  0  0  0  0  0  0  0  0  0
   10.6136  -19.9676   21.0171 C   0  0  0  0  0  0  0  0  0  0  0  0
   11.4634  -20.2478   20.1507 O   0  0  0  0  0  0  0  0  0  0  0  0
   10.8864  -18.9681   21.9742 N   0  0  0  0  0  0  0  0  0  0  0  0
   12.1988  -18.3040   22.0475 C   0  0  1  0  0  0  0  0  0  0  0  0
   11.9219  -16.8464   21.8433 C   0  0  0  0  0  0  0  0  0  0  0  0
   13.0580  -15.9711   21.5894 C   0  0  0  0  0  0  0  0  0  0  0  0
   13.6065  -15.5400   20.3807 C   0  0  0  0  0  0  0  0  0  0  0  0
   14.6774  -14.7713   20.6518 N   0  0  0  0  0  0  0  0  0  0  0  0
   14.8367  -14.6930   21.9784 C   0  0  0  0  0  0  0  0  0  0  0  0
   13.8672  -15.4112   22.5343 N   0  0  0  0  0  0  0  0  0  0  0  0
   12.8684  -18.5901   23.3104 C   0  0  0  0  0  0  0  0  0  0  0  0
   12.3103  -18.4941   24.4423 O   0  0  0  0  0  0  0  0  0  0  0  0
   14.2278  -19.0096   23.3085 N   0  0  0  0  0  0  0  0  0  0  0  0
   14.9822  -19.1878   24.5271 C   0  0  0  0  0  0  0  0  0  0  0  0
   16.4034  -18.8044   24.4180 C   0  0  0  0  0  0  0  0  0  0  0  0
   16.8552  -18.3946   23.3246 O   0  0  0  0  0  0  0  0  0  0  0  0
   17.2373  -18.8972   25.5223 O   0  0  0  0  0  0  0  0  0  0  0  0
  2  1  1  6
  3  2  1  0
  4  3  1  0
  5  6  1  0
  5  4  1  0
  6  7  1  0
  8  2  1  0
  9  8  2  0
 10  8  1  0
 11 10  1  0
 11 12  1  1
 12 13  1  0
 13 14  2  0
 15 14  1  0
 16 15  1  0
 17 16  2  0
 17 13  1  0
 18 11  1  0
 19 18  2  0
 20 18  1  0
 21 20  1  0
 22 24  1  0
 22 21  1  0
 23 22  2  0
M  END
$$$$
