YCL.pdb
     RDKit          3D

 27 27  0  0  1  0  0  0  0  0999 V2000
   30.3941  -16.4879  -19.0796 O   0  0  0  0  0  0  0  0  0  0  0  0
   29.4831  -17.1811  -18.3023 C   0  0  0  0  0  0  0  0  0  0  0  0
   29.2162  -16.8120  -17.0086 C   0  0  0  0  0  0  0  0  0  0  0  0
   28.3059  -17.5254  -16.2703 C   0  0  0  0  0  0  0  0  0  0  0  0
   27.6382  -18.6188  -16.7915 C   0  0  0  0  0  0  0  0  0  0  0  0
   26.6457  -19.4033  -15.9988 C   0  0  0  0  0  0  0  0  0  0  0  0
   27.4118  -20.4217  -15.1846 C   0  0  2  0  0  0  0  0  0  0  0  0
   27.7994  -21.4857  -16.1229 N   0  0  0  0  0  0  0  0  0  0  0  0
   26.5281  -21.0373  -14.1805 C   0  0  0  0  0  0  0  0  0  0  0  0
   25.7376  -22.0030  -14.4530 O   0  0  0  0  0  0  0  0  0  0  0  0
   27.8949  -19.0000  -18.0848 C   0  0  0  0  0  0  0  0  0  0  0  0
   28.8148  -18.2709  -18.8156 C   0  0  0  0  0  0  0  0  0  0  0  0
   26.5035  -20.5863  -12.8328 N   0  0  0  0  0  0  0  0  0  0  0  0
   25.4893  -20.9871  -11.8916 C   0  0  1  0  0  0  0  0  0  0  0  0
   25.7823  -20.4980  -10.4924 C   0  0  0  0  0  0  0  0  0  0  0  0
   24.4419  -20.9834   -9.3786 S   0  0  0  0  0  0  0  0  0  0  0  0
   24.1428  -20.5780  -12.3523 C   0  0  0  0  0  0  0  0  0  0  0  0
   23.9881  -19.3812  -12.7028 O   0  0  0  0  0  0  0  0  0  0  0  0
   21.4642  -21.5662  -16.6583 C   0  0  0  0  0  0  0  0  0  0  0  0
   21.7369  -20.8428  -15.3427 C   0  0  1  0  0  0  0  0  0  0  0  0
   20.8791  -19.5706  -15.4250 C   0  0  0  0  0  0  0  0  0  0  0  0
   21.3469  -21.6726  -14.1655 C   0  0  0  0  0  0  0  0  0  0  0  0
   21.6957  -21.0056  -12.8864 C   0  0  2  0  0  0  0  0  0  0  0  0
   23.0339  -21.4387  -12.4217 N   0  0  0  0  0  0  0  0  0  0  0  0
   20.6929  -21.2692  -11.8559 C   0  0  0  0  0  0  0  0  0  0  0  0
   20.9101  -22.3635  -10.9857 O   0  0  0  0  0  0  0  0  0  0  0  0
   19.6477  -20.6256  -11.6542 O   0  0  0  0  0  0  0  0  0  0  0  0
  2  3  2  0
  2  1  1  0
  4  3  1  0
  5 11  1  0
  5  4  2  0
  6  5  1  0
  7  9  1  0
  7  6  1  0
  7  8  1  6
  9 10  2  0
 11 12  2  0
 12  2  1  0
 13 14  1  0
 13  9  1  0
 14 15  1  1
 15 16  1  0
 17 24  1  0
 17 14  1  0
 18 17  2  0
 20 19  1  6
 21 20  1  0
 23 22  1  6
 22 20  1  0
 23 24  1  0
 25 23  1  0
 25 26  1  0
 27 25  2  0
M  END
$$$$
