YCL.pdb
     RDKit          3D

 27 27  0  0  1  0  0  0  0  0999 V2000
   36.7384  -31.0669  -18.8945 O   0  0  0  0  0  0  0  0  0  0  0  0
   35.5237  -30.4330  -18.7014 C   0  0  0  0  0  0  0  0  0  0  0  0
   34.3800  -31.1405  -18.4316 C   0  0  0  0  0  0  0  0  0  0  0  0
   33.1945  -30.4749  -18.2463 C   0  0  0  0  0  0  0  0  0  0  0  0
   33.1105  -29.0965  -18.3229 C   0  0  0  0  0  0  0  0  0  0  0  0
   31.8270  -28.3603  -18.1235 C   0  0  0  0  0  0  0  0  0  0  0  0
   31.0653  -28.4055  -19.4291 C   0  0  2  0  0  0  0  0  0  0  0  0
   31.6652  -27.3724  -20.2870 N   0  0  0  0  0  0  0  0  0  0  0  0
   29.6613  -28.0188  -19.2112 C   0  0  0  0  0  0  0  0  0  0  0  0
   29.2573  -26.8090  -19.2823 O   0  0  0  0  0  0  0  0  0  0  0  0
   34.2467  -28.3751  -18.5923 C   0  0  0  0  0  0  0  0  0  0  0  0
   35.4333  -29.0605  -18.7765 C   0  0  0  0  0  0  0  0  0  0  0  0
   28.6620  -28.9820  -18.9053 N   0  0  0  0  0  0  0  0  0  0  0  0
   27.2627  -28.6542  -18.8071 C   0  0  1  0  0  0  0  0  0  0  0  0
   26.7545  -27.9415  -20.0386 C   0  0  0  0  0  0  0  0  0  0  0  0
   24.9976  -27.5562  -19.8444 S   0  0  0  0  0  0  0  0  0  0  0  0
   26.4553  -29.8533  -18.4866 C   0  0  0  0  0  0  0  0  0  0  0  0
   26.6740  -30.8956  -19.1536 O   0  0  0  0  0  0  0  0  0  0  0  0
   24.4865  -33.6731  -15.4118 C   0  0  0  0  0  0  0  0  0  0  0  0
   23.6134  -32.4220  -15.3866 C   0  0  1  0  0  0  0  0  0  0  0  0
   23.0888  -32.3550  -13.9438 C   0  0  0  0  0  0  0  0  0  0  0  0
   24.3946  -31.1969  -15.7264 C   0  0  0  0  0  0  0  0  0  0  0  0
   24.6767  -31.1139  -17.1811 C   0  0  2  0  0  0  0  0  0  0  0  0
   25.4658  -29.8987  -17.4894 N   0  0  0  0  0  0  0  0  0  0  0  0
   23.4436  -31.1287  -17.9659 C   0  0  0  0  0  0  0  0  0  0  0  0
   23.0299  -32.3606  -18.5255 O   0  0  0  0  0  0  0  0  0  0  0  0
   22.7014  -30.1587  -18.2019 O   0  0  0  0  0  0  0  0  0  0  0  0
  2  3  2  0
  2  1  1  0
  4  3  1  0
  5 11  1  0
  5  4  2  0
  6  5  1  0
  7  9  1  0
  7  6  1  0
  7  8  1  6
  9 10  2  0
 11 12  2  0
 12  2  1  0
 13 14  1  0
 13  9  1  0
 14 15  1  6
 15 16  1  0
 17 24  1  0
 17 14  1  0
 18 17  2  0
 20 19  1  1
 21 20  1  0
 23 22  1  1
 22 20  1  0
 23 24  1  0
 25 23  1  0
 25 26  1  0
 27 25  2  0
M  END
$$$$
