YCL.pdb
     RDKit          3D

 27 27  0  0  1  0  0  0  0  0999 V2000
   17.5616  -12.6388  -20.8159 O   0  0  0  0  0  0  0  0  0  0  0  0
   17.6390  -11.6862  -19.8153 C   0  0  0  0  0  0  0  0  0  0  0  0
   18.6711  -10.7846  -19.7613 C   0  0  0  0  0  0  0  0  0  0  0  0
   18.7122   -9.8551  -18.7528 C   0  0  0  0  0  0  0  0  0  0  0  0
   17.7360   -9.7940  -17.7749 C   0  0  0  0  0  0  0  0  0  0  0  0
   17.7691   -8.7878  -16.6724 C   0  0  0  0  0  0  0  0  0  0  0  0
   18.9221   -9.1443  -15.7612 C   0  0  2  0  0  0  0  0  0  0  0  0
   18.4239  -10.2009  -14.8676 N   0  0  0  0  0  0  0  0  0  0  0  0
   19.2714   -7.9940  -14.9109 C   0  0  0  0  0  0  0  0  0  0  0  0
   18.5987   -7.6694  -13.8746 O   0  0  0  0  0  0  0  0  0  0  0  0
   16.6969  -10.6898  -17.8159 C   0  0  0  0  0  0  0  0  0  0  0  0
   16.6700  -11.6201  -18.8384 C   0  0  0  0  0  0  0  0  0  0  0  0
   20.3918   -7.1680  -15.1983 N   0  0  0  0  0  0  0  0  0  0  0  0
   20.6961   -5.9742  -14.4517 C   0  0  1  0  0  0  0  0  0  0  0  0
   22.1785   -5.8156  -14.2061 C   0  0  0  0  0  0  0  0  0  0  0  0
   22.4905   -4.2810  -13.3003 S   0  0  0  0  0  0  0  0  0  0  0  0
   20.1091   -4.7777  -15.0969 C   0  0  0  0  0  0  0  0  0  0  0  0
   20.2031   -4.6873  -16.3468 O   0  0  0  0  0  0  0  0  0  0  0  0
   15.4610   -0.9847  -15.2122 C   0  0  0  0  0  0  0  0  0  0  0  0
   16.9669   -1.1058  -15.4263 C   0  0  1  0  0  0  0  0  0  0  0  0
   17.5333    0.2190  -14.8921 C   0  0  0  0  0  0  0  0  0  0  0  0
   17.5383   -2.2669  -14.6836 C   0  0  0  0  0  0  0  0  0  0  0  0
   18.9519   -2.5157  -15.0610 C   0  0  2  0  0  0  0  0  0  0  0  0
   19.4575   -3.7432  -14.4036 N   0  0  0  0  0  0  0  0  0  0  0  0
   19.8028   -1.3754  -14.7256 C   0  0  0  0  0  0  0  0  0  0  0  0
   20.2636   -0.5591  -15.7854 O   0  0  0  0  0  0  0  0  0  0  0  0
   20.1751   -1.0352  -13.5885 O   0  0  0  0  0  0  0  0  0  0  0  0
  2  3  2  0
  2  1  1  0
  4  3  1  0
  5 11  1  0
  5  4  2  0
  6  5  1  0
  7  9  1  0
  7  6  1  0
  7  8  1  1
  9 10  2  0
 11 12  2  0
 12  2  1  0
 13 14  1  0
 13  9  1  0
 14 15  1  6
 15 16  1  0
 17 24  1  0
 17 14  1  0
 18 17  2  0
 20 19  1  1
 21 20  1  0
 23 22  1  1
 22 20  1  0
 23 24  1  0
 25 23  1  0
 25 26  1  0
 27 25  2  0
M  END
$$$$
