YCL.pdb
     RDKit          3D

 27 27  0  0  1  0  0  0  0  0999 V2000
   22.1176  -23.6002  -14.5643 O   0  0  0  0  0  0  0  0  0  0  0  0
   23.3231  -23.9859  -15.1234 C   0  0  0  0  0  0  0  0  0  0  0  0
   24.0408  -25.0422  -14.6230 C   0  0  0  0  0  0  0  0  0  0  0  0
   25.2324  -25.3936  -15.2055 C   0  0  0  0  0  0  0  0  0  0  0  0
   25.7429  -24.7111  -16.2948 C   0  0  0  0  0  0  0  0  0  0  0  0
   27.0379  -25.0832  -16.9376 C   0  0  0  0  0  0  0  0  0  0  0  0
   28.0778  -24.0823  -16.4863 C   0  0  2  0  0  0  0  0  0  0  0  0
   27.8095  -22.8480  -17.2398 N   0  0  0  0  0  0  0  0  0  0  0  0
   29.4229  -24.5375  -16.8754 C   0  0  0  0  0  0  0  0  0  0  0  0
   29.9759  -24.2018  -17.9768 O   0  0  0  0  0  0  0  0  0  0  0  0
   25.0358  -23.6518  -16.8065 C   0  0  0  0  0  0  0  0  0  0  0  0
   23.8370  -23.3102  -16.2083 C   0  0  0  0  0  0  0  0  0  0  0  0
   30.1934  -25.3879  -16.0366 N   0  0  0  0  0  0  0  0  0  0  0  0
   31.5267  -25.8183  -16.3713 C   0  0  1  0  0  0  0  0  0  0  0  0
   32.5311  -25.4510  -15.3040 C   0  0  0  0  0  0  0  0  0  0  0  0
   34.1790  -26.0178  -15.7899 S   0  0  0  0  0  0  0  0  0  0  0  0
   31.5565  -27.2646  -16.6876 C   0  0  0  0  0  0  0  0  0  0  0  0
   30.5371  -27.9421  -16.4030 O   0  0  0  0  0  0  0  0  0  0  0  0
   29.3046  -29.9664  -19.8812 C   0  0  0  0  0  0  0  0  0  0  0  0
   30.3601  -30.0602  -18.7833 C   0  0  1  0  0  0  0  0  0  0  0  0
   30.7938  -31.5343  -18.7995 C   0  0  0  0  0  0  0  0  0  0  0  0
   31.5196  -29.1611  -19.0542 C   0  0  0  0  0  0  0  0  0  0  0  0
   32.5306  -29.2302  -17.9698 C   0  0  2  0  0  0  0  0  0  0  0  0
   32.6464  -27.9231  -17.2825 N   0  0  0  0  0  0  0  0  0  0  0  0
   33.8342  -29.6499  -18.4810 C   0  0  0  0  0  0  0  0  0  0  0  0
   34.2535  -30.9751  -18.2166 O   0  0  0  0  0  0  0  0  0  0  0  0
   34.6333  -28.9576  -19.1364 O   0  0  0  0  0  0  0  0  0  0  0  0
  2  3  2  0
  2  1  1  0
  4  3  1  0
  5 11  1  0
  5  4  2  0
  6  5  1  0
  7  9  1  0
  7  6  1  0
  7  8  1  6
  9 10  2  0
 11 12  2  0
 12  2  1  0
 13 14  1  0
 13  9  1  0
 14 15  1  1
 15 16  1  0
 17 24  1  0
 17 14  1  0
 18 17  2  0
 20 19  1  6
 21 20  1  0
 23 22  1  6
 22 20  1  0
 23 24  1  0
 25 23  1  0
 25 26  1  0
 27 25  2  0
M  END
$$$$
