YCL.pdb
     RDKit          3D

 27 27  0  0  1  0  0  0  0  0999 V2000
   12.5162  -11.1761  -18.0693 O   0  0  0  0  0  0  0  0  0  0  0  0
   13.0475  -10.9258  -16.8164 C   0  0  0  0  0  0  0  0  0  0  0  0
   13.9294  -11.7935  -16.2246 C   0  0  0  0  0  0  0  0  0  0  0  0
   14.4342  -11.5095  -14.9807 C   0  0  0  0  0  0  0  0  0  0  0  0
   14.0805  -10.3631  -14.2926 C   0  0  0  0  0  0  0  0  0  0  0  0
   14.6223  -10.0425  -12.9389 C   0  0  0  0  0  0  0  0  0  0  0  0
   15.7746   -9.0806  -13.1226 C   0  0  2  0  0  0  0  0  0  0  0  0
   16.9266   -9.8980  -13.5322 N   0  0  0  0  0  0  0  0  0  0  0  0
   16.1269   -8.4589  -11.8351 C   0  0  0  0  0  0  0  0  0  0  0  0
   16.9995   -8.9527  -11.0436 O   0  0  0  0  0  0  0  0  0  0  0  0
   13.1988   -9.4852  -14.8722 C   0  0  0  0  0  0  0  0  0  0  0  0
   12.6992   -9.7858  -16.1260 C   0  0  0  0  0  0  0  0  0  0  0  0
   15.5083   -7.2580  -11.3934 N   0  0  0  0  0  0  0  0  0  0  0  0
   15.8873   -6.5831  -10.1785 C   0  0  1  0  0  0  0  0  0  0  0  0
   17.3618   -6.2558  -10.1423 C   0  0  0  0  0  0  0  0  0  0  0  0
   17.7736   -5.4479   -8.5769 S   0  0  0  0  0  0  0  0  0  0  0  0
   15.0470   -5.3857   -9.9493 C   0  0  0  0  0  0  0  0  0  0  0  0
   14.9934   -4.5297  -10.8677 O   0  0  0  0  0  0  0  0  0  0  0  0
   10.7787   -5.2069   -6.2278 C   0  0  0  0  0  0  0  0  0  0  0  0
   11.6063   -5.0409   -7.4989 C   0  0  1  0  0  0  0  0  0  0  0  0
   10.5936   -4.5622   -8.5508 C   0  0  0  0  0  0  0  0  0  0  0  0
   12.6996   -4.0415   -7.3190 C   0  0  0  0  0  0  0  0  0  0  0  0
   13.5286   -3.9112   -8.5432 C   0  0  2  0  0  0  0  0  0  0  0  0
   14.3100   -5.1479   -8.7764 N   0  0  0  0  0  0  0  0  0  0  0  0
   14.4215   -2.7565   -8.4630 C   0  0  0  0  0  0  0  0  0  0  0  0
   13.8500   -1.4682   -8.5875 O   0  0  0  0  0  0  0  0  0  0  0  0
   15.6536   -2.7803   -8.2940 O   0  0  0  0  0  0  0  0  0  0  0  0
  2  3  2  0
  2  1  1  0
  4  3  1  0
  5 11  1  0
  5  4  2  0
  6  5  1  0
  7  9  1  0
  7  6  1  0
  7  8  1  1
  9 10  2  0
 11 12  2  0
 12  2  1  0
 13 14  1  0
 13  9  1  0
 14 15  1  6
 15 16  1  0
 17 24  1  0
 17 14  1  0
 18 17  2  0
 20 19  1  1
 21 20  1  0
 23 22  1  1
 22 20  1  0
 23 24  1  0
 25 23  1  0
 25 26  1  0
 27 25  2  0
M  END
$$$$
