YCL.pdb
     RDKit          3D

 27 27  0  0  1  0  0  0  0  0999 V2000
   28.5747  -36.0073   -7.2927 O   0  0  0  0  0  0  0  0  0  0  0  0
   28.0704  -35.2947   -6.2191 C   0  0  0  0  0  0  0  0  0  0  0  0
   27.6207  -34.0068   -6.3603 C   0  0  0  0  0  0  0  0  0  0  0  0
   27.1276  -33.3336   -5.2711 C   0  0  0  0  0  0  0  0  0  0  0  0
   27.0671  -33.9158   -4.0179 C   0  0  0  0  0  0  0  0  0  0  0  0
   26.5332  -33.1943   -2.8249 C   0  0  0  0  0  0  0  0  0  0  0  0
   25.0751  -33.5676   -2.6784 C   0  0  2  0  0  0  0  0  0  0  0  0
   24.3526  -32.7994   -3.7035 N   0  0  0  0  0  0  0  0  0  0  0  0
   24.5659  -33.1212   -1.3708 C   0  0  0  0  0  0  0  0  0  0  0  0
   24.2697  -31.9038   -1.1220 O   0  0  0  0  0  0  0  0  0  0  0  0
   27.5135  -35.2042   -3.8612 C   0  0  0  0  0  0  0  0  0  0  0  0
   28.0074  -35.8689   -4.9685 C   0  0  0  0  0  0  0  0  0  0  0  0
   24.3722  -34.0313   -0.2964 N   0  0  0  0  0  0  0  0  0  0  0  0
   23.8587  -33.6284    0.9878 C   0  0  1  0  0  0  0  0  0  0  0  0
   22.5132  -34.2479    1.2856 C   0  0  0  0  0  0  0  0  0  0  0  0
   21.9070  -33.6606    2.8857 S   0  0  0  0  0  0  0  0  0  0  0  0
   24.8422  -33.8938    2.0624 C   0  0  0  0  0  0  0  0  0  0  0  0
   25.3505  -35.0419    2.1135 O   0  0  0  0  0  0  0  0  0  0  0  0
   29.8171  -32.1451    4.6671 C   0  0  0  0  0  0  0  0  0  0  0  0
   28.4582  -32.7642    4.9805 C   0  0  1  0  0  0  0  0  0  0  0  0
   28.0476  -32.1216    6.3146 C   0  0  0  0  0  0  0  0  0  0  0  0
   27.4568  -32.4658    3.9154 C   0  0  0  0  0  0  0  0  0  0  0  0
   26.2080  -33.2451    4.1046 C   0  0  2  0  0  0  0  0  0  0  0  0
   25.2405  -32.9481    3.0229 N   0  0  0  0  0  0  0  0  0  0  0  0
   25.6050  -32.9789    5.4094 C   0  0  0  0  0  0  0  0  0  0  0  0
   25.9006  -33.8688    6.4690 O   0  0  0  0  0  0  0  0  0  0  0  0
   24.8448  -32.0377    5.6986 O   0  0  0  0  0  0  0  0  0  0  0  0
  2  3  2  0
  2  1  1  0
  4  3  1  0
  5 11  1  0
  5  4  2  0
  6  5  1  0
  7  9  1  0
  7  6  1  0
  7  8  1  6
  9 10  2  0
 11 12  2  0
 12  2  1  0
 13 14  1  0
 13  9  1  0
 14 15  1  1
 15 16  1  0
 17 24  1  0
 17 14  1  0
 18 17  2  0
 20 19  1  6
 21 20  1  0
 23 22  1  6
 22 20  1  0
 23 24  1  0
 25 23  1  0
 25 26  1  0
 27 25  2  0
M  END
$$$$
