YCL.pdb
     RDKit          3D

 27 27  0  0  1  0  0  0  0  0999 V2000
   30.5178  -20.9414  -10.5686 O   0  0  0  0  0  0  0  0  0  0  0  0
   29.2920  -20.6904  -11.1595 C   0  0  0  0  0  0  0  0  0  0  0  0
   29.1986  -20.1322  -12.4088 C   0  0  0  0  0  0  0  0  0  0  0  0
   27.9641  -19.8988  -12.9605 C   0  0  0  0  0  0  0  0  0  0  0  0
   26.7941  -20.2107  -12.2923 C   0  0  0  0  0  0  0  0  0  0  0  0
   25.4450  -19.9617  -12.8812 C   0  0  0  0  0  0  0  0  0  0  0  0
   24.7792  -21.3041  -13.0853 C   0  0  2  0  0  0  0  0  0  0  0  0
   25.5247  -21.9688  -14.1648 N   0  0  0  0  0  0  0  0  0  0  0  0
   23.4006  -21.1187  -13.5681 C   0  0  0  0  0  0  0  0  0  0  0  0
   23.0941  -21.1285  -14.8082 O   0  0  0  0  0  0  0  0  0  0  0  0
   26.8718  -20.7698  -11.0411 C   0  0  0  0  0  0  0  0  0  0  0  0
   28.1230  -20.9987  -10.4991 C   0  0  0  0  0  0  0  0  0  0  0  0
   22.3176  -20.9155  -12.6704 N   0  0  0  0  0  0  0  0  0  0  0  0
   20.9380  -21.0154  -13.0727 C   0  0  1  0  0  0  0  0  0  0  0  0
   20.0464  -21.4837  -11.9465 C   0  0  0  0  0  0  0  0  0  0  0  0
   18.3262  -21.5331  -12.5047 S   0  0  0  0  0  0  0  0  0  0  0  0
   20.4623  -19.7449  -13.6660 C   0  0  0  0  0  0  0  0  0  0  0  0
   20.6580  -18.6898  -13.0120 O   0  0  0  0  0  0  0  0  0  0  0  0
   19.7771  -15.9928  -17.4517 C   0  0  0  0  0  0  0  0  0  0  0  0
   18.7238  -17.0967  -17.4649 C   0  0  1  0  0  0  0  0  0  0  0  0
   18.3554  -17.2511  -18.9487 C   0  0  0  0  0  0  0  0  0  0  0  0
   19.2581  -18.3759  -16.9131 C   0  0  0  0  0  0  0  0  0  0  0  0
   19.2434  -18.3801  -15.4290 C   0  0  2  0  0  0  0  0  0  0  0  0
   19.8097  -19.6454  -14.9068 N   0  0  0  0  0  0  0  0  0  0  0  0
   17.8928  -18.1774  -14.9077 C   0  0  0  0  0  0  0  0  0  0  0  0
   17.5359  -16.8760  -14.4826 O   0  0  0  0  0  0  0  0  0  0  0  0
   17.0033  -19.0394  -14.7936 O   0  0  0  0  0  0  0  0  0  0  0  0
  2  3  2  0
  2  1  1  0
  4  3  1  0
  5 11  1  0
  5  4  2  0
  6  5  1  0
  7  9  1  0
  7  6  1  0
  7  8  1  6
  9 10  2  0
 11 12  2  0
 12  2  1  0
 13 14  1  0
 13  9  1  0
 14 15  1  1
 15 16  1  0
 17 24  1  0
 17 14  1  0
 18 17  2  0
 20 19  1  6
 21 20  1  0
 23 22  1  6
 22 20  1  0
 23 24  1  0
 25 23  1  0
 25 26  1  0
 27 25  2  0
M  END
$$$$
