YCL.pdb
     RDKit          3D

 27 27  0  0  1  0  0  0  0  0999 V2000
   15.7407  -23.5289    0.4965 O   0  0  0  0  0  0  0  0  0  0  0  0
   16.2909  -22.4587    1.1796 C   0  0  0  0  0  0  0  0  0  0  0  0
   16.3743  -22.4476    2.5486 C   0  0  0  0  0  0  0  0  0  0  0  0
   16.9269  -21.3673    3.1891 C   0  0  0  0  0  0  0  0  0  0  0  0
   17.4098  -20.2736    2.4936 C   0  0  0  0  0  0  0  0  0  0  0  0
   18.0131  -19.0921    3.1784 C   0  0  0  0  0  0  0  0  0  0  0  0
   16.8895  -18.3156    3.8275 C   0  0  2  0  0  0  0  0  0  0  0  0
   16.1538  -17.6691    2.7304 N   0  0  0  0  0  0  0  0  0  0  0  0
   17.4370  -17.2385    4.6690 C   0  0  0  0  0  0  0  0  0  0  0  0
   17.9227  -16.1607    4.1850 O   0  0  0  0  0  0  0  0  0  0  0  0
   17.3331  -20.2704    1.1232 C   0  0  0  0  0  0  0  0  0  0  0  0
   16.7736  -21.3665    0.4928 C   0  0  0  0  0  0  0  0  0  0  0  0
   17.4568  -17.3374    6.0868 N   0  0  0  0  0  0  0  0  0  0  0  0
   17.9128  -16.2699    6.9397 C   0  0  1  0  0  0  0  0  0  0  0  0
   16.7679  -15.5273    7.5881 C   0  0  0  0  0  0  0  0  0  0  0  0
   17.4092  -14.1689    8.5964 S   0  0  0  0  0  0  0  0  0  0  0  0
   18.8896  -16.7642    7.9367 C   0  0  0  0  0  0  0  0  0  0  0  0
   18.6317  -17.8508    8.5127 O   0  0  0  0  0  0  0  0  0  0  0  0
   23.8620  -17.8487    9.9220 C   0  0  0  0  0  0  0  0  0  0  0  0
   23.2720  -16.4796   10.2473 C   0  0  1  0  0  0  0  0  0  0  0  0
   24.4951  -15.5557   10.3546 C   0  0  0  0  0  0  0  0  0  0  0  0
   22.3429  -16.0109    9.1780 C   0  0  0  0  0  0  0  0  0  0  0  0
   20.9686  -16.5338    9.3794 C   0  0  2  0  0  0  0  0  0  0  0  0
   20.0797  -16.0985    8.2772 N   0  0  0  0  0  0  0  0  0  0  0  0
   20.4204  -16.1126   10.6674 C   0  0  0  0  0  0  0  0  0  0  0  0
   20.5081  -17.0173   11.7517 O   0  0  0  0  0  0  0  0  0  0  0  0
   19.8737  -15.0247   10.9223 O   0  0  0  0  0  0  0  0  0  0  0  0
  2  3  2  0
  2  1  1  0
  4  3  1  0
  5 11  1  0
  5  4  2  0
  6  5  1  0
  7  9  1  0
  7  6  1  0
  7  8  1  6
  9 10  2  0
 11 12  2  0
 12  2  1  0
 13 14  1  0
 13  9  1  0
 14 15  1  1
 15 16  1  0
 17 24  1  0
 17 14  1  0
 18 17  2  0
 20 19  1  6
 21 20  1  0
 23 22  1  6
 22 20  1  0
 23 24  1  0
 25 23  1  0
 25 26  1  0
 27 25  2  0
M  END
$$$$
