ICV.pdb
     RDKit          3D

 22 21  0  0  1  0  0  0  0  0999 V2000
    8.0646  -19.8015   29.2356 C   0  0  0  0  0  0  0  0  0  0  0  0
    7.3794  -19.9075   27.9031 C   0  0  0  0  0  0  0  0  0  0  0  0
    7.8139  -18.8695   26.9029 C   0  0  2  0  0  0  0  0  0  0  0  0
    7.4929  -17.4727   27.4073 C   0  0  0  0  0  0  0  0  0  0  0  0
    7.1493  -19.1443   25.5795 C   0  0  2  0  0  0  0  0  0  0  0  0
    7.5030  -20.5051   25.1930 N   0  0  0  0  0  0  0  0  0  0  0  0
    7.6303  -18.2329   24.4896 C   0  0  0  0  0  0  0  0  0  0  0  0
    8.8546  -18.3279   24.1257 O   0  0  0  0  0  0  0  0  0  0  0  0
    6.8470  -17.2813   23.8308 N   0  0  0  0  0  0  0  0  0  0  0  0
    7.4819  -16.3232   22.9101 C   0  0  1  0  0  0  0  0  0  0  0  0
    6.3091  -15.7391   22.1213 C   0  0  0  0  0  0  0  0  0  0  0  0
    6.7756  -14.4424   20.9896 S   0  0  0  0  0  0  0  0  0  0  0  0
    8.1073  -15.2223   23.6738 C   0  0  0  0  0  0  0  0  0  0  0  0
    9.0850  -14.5953   23.1413 O   0  0  0  0  0  0  0  0  0  0  0  0
    6.5050  -13.3147   27.1849 C   0  0  0  0  0  0  0  0  0  0  0  0
    7.4274  -12.7153   26.1538 C   0  0  2  0  0  0  0  0  0  0  0  0
    6.6495  -12.1617   24.9985 C   0  0  0  0  0  0  0  0  0  0  0  0
    8.4355  -13.7573   25.6949 C   0  0  2  0  0  0  0  0  0  0  0  0
    7.7255  -14.7861   24.9544 N   0  0  0  0  0  0  0  0  0  0  0  0
    9.0489  -14.3371   26.9193 C   0  0  0  0  0  0  0  0  0  0  0  0
    9.7817  -13.5652   27.7987 O   0  0  0  0  0  0  0  0  0  0  0  0
    8.9125  -15.5587   27.1851 O   0  0  0  0  0  0  0  0  0  0  0  0
  2  1  1  0
  3  4  1  1
  3  2  1  0
  3  5  1  0
  5  6  1  6
  7  5  1  0
  7  8  2  0
  9  7  1  0
 10  9  1  0
 10 13  1  0
 10 11  1  6
 12 11  1  0
 13 19  1  0
 13 14  2  0
 16 15  1  1
 16 17  1  0
 18 16  1  0
 18 19  1  1
 20 18  1  0
 20 21  1  0
 22 20  2  0
M  END
$$$$
