ICV.pdb
     RDKit          3D

 22 21  0  0  1  0  0  0  0  0999 V2000
    5.5906  -11.6608   26.8424 C   0  0  0  0  0  0  0  0  0  0  0  0
    5.4653  -12.9040   26.0088 C   0  0  0  0  0  0  0  0  0  0  0  0
    6.7711  -13.6083   25.7530 C   0  0  2  0  0  0  0  0  0  0  0  0
    7.7719  -12.6633   25.1095 C   0  0  0  0  0  0  0  0  0  0  0  0
    6.5236  -14.8192   24.8921 C   0  0  2  0  0  0  0  0  0  0  0  0
    5.4956  -15.6153   25.5521 N   0  0  0  0  0  0  0  0  0  0  0  0
    7.7380  -15.6882   24.7521 C   0  0  0  0  0  0  0  0  0  0  0  0
    7.9161  -16.6134   25.6196 O   0  0  0  0  0  0  0  0  0  0  0  0
    8.6993  -15.5732   23.7442 N   0  0  0  0  0  0  0  0  0  0  0  0
    9.8529  -16.4884   23.7270 C   0  0  1  0  0  0  0  0  0  0  0  0
   10.5785  -16.1408   22.4264 C   0  0  0  0  0  0  0  0  0  0  0  0
    9.6909  -16.6183   20.9554 S   0  0  0  0  0  0  0  0  0  0  0  0
   10.7636  -16.1798   24.8503 C   0  0  0  0  0  0  0  0  0  0  0  0
   11.6826  -15.3120   24.6636 O   0  0  0  0  0  0  0  0  0  0  0  0
   11.3673  -14.1211   28.7030 C   0  0  0  0  0  0  0  0  0  0  0  0
   10.6232  -14.8653   27.6234 C   0  0  2  0  0  0  0  0  0  0  0  0
    9.2027  -15.1168   28.0297 C   0  0  0  0  0  0  0  0  0  0  0  0
   11.3454  -16.1639   27.2997 C   0  0  2  0  0  0  0  0  0  0  0  0
   10.7184  -16.7573   26.1311 N   0  0  0  0  0  0  0  0  0  0  0  0
   11.1830  -17.0566   28.4780 C   0  0  0  0  0  0  0  0  0  0  0  0
   10.4214  -18.2067   28.4172 O   0  0  0  0  0  0  0  0  0  0  0  0
   11.7423  -16.7812   29.5702 O   0  0  0  0  0  0  0  0  0  0  0  0
  2  1  1  0
  3  4  1  6
  3  2  1  0
  3  5  1  0
  5  6  1  1
  7  5  1  0
  7  8  2  0
  9  7  1  0
 10  9  1  0
 10 13  1  0
 10 11  1  6
 12 11  1  0
 13 19  1  0
 13 14  2  0
 16 15  1  1
 16 17  1  0
 18 16  1  0
 18 19  1  6
 20 18  1  0
 20 21  1  0
 22 20  2  0
M  END
$$$$
