ICV.pdb
     RDKit          3D

 22 21  0  0  1  0  0  0  0  0999 V2000
    5.6314  -11.0229   26.1152 C   0  0  0  0  0  0  0  0  0  0  0  0
    5.4443  -12.4195   25.5950 C   0  0  0  0  0  0  0  0  0  0  0  0
    6.7143  -13.2249   25.5222 C   0  0  2  0  0  0  0  0  0  0  0  0
    7.7346  -12.5360   24.6317 C   0  0  0  0  0  0  0  0  0  0  0  0
    6.3969  -14.6115   25.0269 C   0  0  2  0  0  0  0  0  0  0  0  0
    5.3958  -15.1727   25.9263 N   0  0  0  0  0  0  0  0  0  0  0  0
    7.5864  -15.5245   25.0596 C   0  0  0  0  0  0  0  0  0  0  0  0
    7.9056  -16.0529   26.1818 O   0  0  0  0  0  0  0  0  0  0  0  0
    8.3819  -15.8513   23.9580 N   0  0  0  0  0  0  0  0  0  0  0  0
    9.5210  -16.7693   24.1261 C   0  0  1  0  0  0  0  0  0  0  0  0
   10.1807  -16.7930   22.7466 C   0  0  0  0  0  0  0  0  0  0  0  0
   11.6549  -17.7933   22.6691 S   0  0  0  0  0  0  0  0  0  0  0  0
   10.4942  -16.2020   25.0840 C   0  0  0  0  0  0  0  0  0  0  0  0
   11.1876  -15.1936   24.7167 O   0  0  0  0  0  0  0  0  0  0  0  0
   10.1171  -16.3085   29.1397 C   0  0  0  0  0  0  0  0  0  0  0  0
   11.0091  -15.3530   28.3884 C   0  0  2  0  0  0  0  0  0  0  0  0
   10.2222  -14.1941   27.8556 C   0  0  0  0  0  0  0  0  0  0  0  0
   11.7329  -16.0912   27.2730 C   0  0  2  0  0  0  0  0  0  0  0  0
   10.7379  -16.6704   26.3867 N   0  0  0  0  0  0  0  0  0  0  0  0
   12.5371  -17.1656   27.9137 C   0  0  0  0  0  0  0  0  0  0  0  0
   13.6604  -16.8812   28.6644 O   0  0  0  0  0  0  0  0  0  0  0  0
   12.2086  -18.3727   27.7848 O   0  0  0  0  0  0  0  0  0  0  0  0
  2  1  1  0
  3  4  1  6
  3  2  1  0
  3  5  1  0
  5  6  1  1
  7  5  1  0
  7  8  2  0
  9  7  1  0
 10  9  1  0
 10 13  1  0
 10 11  1  6
 12 11  1  0
 13 19  1  0
 13 14  2  0
 16 15  1  6
 16 17  1  0
 18 16  1  0
 18 19  1  6
 20 18  1  0
 20 21  1  0
 22 20  2  0
M  END
$$$$
