ICV.pdb
     RDKit          3D

 22 21  0  0  1  0  0  0  0  0999 V2000
    5.8067  -10.9466   26.2594 C   0  0  0  0  0  0  0  0  0  0  0  0
    5.5739  -12.3324   25.7287 C   0  0  0  0  0  0  0  0  0  0  0  0
    6.8062  -13.1970   25.7029 C   0  0  2  0  0  0  0  0  0  0  0  0
    7.9107  -12.5308   24.8999 C   0  0  0  0  0  0  0  0  0  0  0  0
    6.4540  -14.5491   25.1404 C   0  0  2  0  0  0  0  0  0  0  0  0
    5.4749  -15.1490   26.0391 N   0  0  0  0  0  0  0  0  0  0  0  0
    7.6313  -15.4765   25.0819 C   0  0  0  0  0  0  0  0  0  0  0  0
    7.8359  -16.2492   26.0826 O   0  0  0  0  0  0  0  0  0  0  0  0
    8.5310  -15.5704   24.0166 N   0  0  0  0  0  0  0  0  0  0  0  0
    9.6173  -16.5636   24.0630 C   0  0  1  0  0  0  0  0  0  0  0  0
   10.3451  -16.3750   22.7313 C   0  0  0  0  0  0  0  0  0  0  0  0
    9.2999  -16.5856   21.3019 S   0  0  0  0  0  0  0  0  0  0  0  0
   10.5648  -16.2304   25.1483 C   0  0  0  0  0  0  0  0  0  0  0  0
   11.2970  -15.1919   25.0150 O   0  0  0  0  0  0  0  0  0  0  0  0
    9.4804  -15.9136   28.7245 C   0  0  0  0  0  0  0  0  0  0  0  0
   10.7614  -15.3647   28.1493 C   0  0  2  0  0  0  0  0  0  0  0  0
   10.4829  -14.2290   27.2120 C   0  0  0  0  0  0  0  0  0  0  0  0
   11.5352  -16.4767   27.4583 C   0  0  2  0  0  0  0  0  0  0  0  0
   10.7442  -16.9570   26.3382 N   0  0  0  0  0  0  0  0  0  0  0  0
   11.7217  -17.5621   28.4576 C   0  0  0  0  0  0  0  0  0  0  0  0
   12.5536  -17.4084   29.5488 O   0  0  0  0  0  0  0  0  0  0  0  0
   11.1186  -18.6583   28.3304 O   0  0  0  0  0  0  0  0  0  0  0  0
  2  1  1  0
  3  4  1  6
  3  2  1  0
  3  5  1  0
  5  6  1  1
  7  5  1  0
  7  8  2  0
  9  7  1  0
 10  9  1  0
 10 13  1  0
 10 11  1  6
 12 11  1  0
 13 19  1  0
 13 14  2  0
 16 15  1  6
 16 17  1  0
 18 16  1  0
 18 19  1  6
 20 18  1  0
 20 21  1  0
 22 20  2  0
M  END
$$$$
