ICV.pdb
     RDKit          3D

 22 21  0  0  1  0  0  0  0  0999 V2000
    7.4503  -12.3703   18.5772 C   0  0  0  0  0  0  0  0  0  0  0  0
    7.3058  -13.6144   19.4063 C   0  0  0  0  0  0  0  0  0  0  0  0
    8.1046  -13.6003   20.6824 C   0  0  2  0  0  0  0  0  0  0  0  0
    9.5770  -13.3655   20.3897 C   0  0  0  0  0  0  0  0  0  0  0  0
    7.8886  -14.8961   21.4194 C   0  0  2  0  0  0  0  0  0  0  0  0
    6.4484  -15.0951   21.5299 N   0  0  0  0  0  0  0  0  0  0  0  0
    8.4424  -14.8689   22.8130 C   0  0  0  0  0  0  0  0  0  0  0  0
    9.7099  -14.9843   22.9566 O   0  0  0  0  0  0  0  0  0  0  0  0
    7.6847  -14.7250   23.9785 N   0  0  0  0  0  0  0  0  0  0  0  0
    8.3465  -14.7880   25.2926 C   0  0  1  0  0  0  0  0  0  0  0  0
    7.3192  -14.1839   26.2509 C   0  0  0  0  0  0  0  0  0  0  0  0
    5.6722  -14.8363   26.0476 S   0  0  0  0  0  0  0  0  0  0  0  0
    8.5604  -16.1970   25.6871 C   0  0  0  0  0  0  0  0  0  0  0  0
    7.5822  -17.0115   25.5774 O   0  0  0  0  0  0  0  0  0  0  0  0
   12.3207  -17.9539   26.0521 C   0  0  0  0  0  0  0  0  0  0  0  0
   11.0588  -18.7340   25.7835 C   0  0  2  0  0  0  0  0  0  0  0  0
   10.7574  -18.7739   24.3159 C   0  0  0  0  0  0  0  0  0  0  0  0
    9.9038  -18.1344   26.5704 C   0  0  2  0  0  0  0  0  0  0  0  0
    9.7583  -16.7423   26.1807 N   0  0  0  0  0  0  0  0  0  0  0  0
   10.2636  -18.2293   28.0103 C   0  0  0  0  0  0  0  0  0  0  0  0
   10.3699  -19.4469   28.6526 O   0  0  0  0  0  0  0  0  0  0  0  0
   10.4820  -17.1902   28.6841 O   0  0  0  0  0  0  0  0  0  0  0  0
  2  1  1  0
  3  4  1  6
  3  2  1  0
  3  5  1  0
  5  6  1  1
  7  5  1  0
  7  8  2  0
  9  7  1  0
 10  9  1  0
 10 13  1  0
 10 11  1  1
 12 11  1  0
 13 19  1  0
 13 14  2  0
 16 15  1  6
 16 17  1  0
 18 16  1  0
 18 19  1  6
 20 18  1  0
 20 21  1  0
 22 20  2  0
M  END
$$$$
