ICV.pdb
     RDKit          3D

 22 21  0  0  1  0  0  0  0  0999 V2000
    7.7693  -12.6971   17.4423 C   0  0  0  0  0  0  0  0  0  0  0  0
    8.1939  -14.0093   18.0375 C   0  0  0  0  0  0  0  0  0  0  0  0
    7.6501  -14.2639   19.4181 C   0  0  2  0  0  0  0  0  0  0  0  0
    8.1009  -13.1774   20.3798 C   0  0  0  0  0  0  0  0  0  0  0  0
    8.0888  -15.6281   19.8823 C   0  0  2  0  0  0  0  0  0  0  0  0
    7.4755  -16.6054   18.9908 N   0  0  0  0  0  0  0  0  0  0  0  0
    7.6259  -15.9429   21.2738 C   0  0  0  0  0  0  0  0  0  0  0  0
    6.6154  -16.7182   21.4081 O   0  0  0  0  0  0  0  0  0  0  0  0
    8.2111  -15.4582   22.4466 N   0  0  0  0  0  0  0  0  0  0  0  0
    7.6170  -15.7927   23.7519 C   0  0  1  0  0  0  0  0  0  0  0  0
    7.8409  -17.2999   23.8823 C   0  0  0  0  0  0  0  0  0  0  0  0
    9.5592  -17.7768   23.8788 S   0  0  0  0  0  0  0  0  0  0  0  0
    8.3681  -15.1275   24.8380 C   0  0  0  0  0  0  0  0  0  0  0  0
    9.6416  -15.0740   24.7487 O   0  0  0  0  0  0  0  0  0  0  0  0
    6.4110  -12.9966   27.8707 C   0  0  0  0  0  0  0  0  0  0  0  0
    7.7493  -12.5441   27.3442 C   0  0  2  0  0  0  0  0  0  0  0  0
    7.5790  -11.5876   26.2030 C   0  0  0  0  0  0  0  0  0  0  0  0
    8.5787  -13.7518   26.9360 C   0  0  2  0  0  0  0  0  0  0  0  0
    7.8097  -14.5344   25.9836 N   0  0  0  0  0  0  0  0  0  0  0  0
    8.8276  -14.5446   28.1693 C   0  0  0  0  0  0  0  0  0  0  0  0
    9.6823  -14.0991   29.1579 O   0  0  0  0  0  0  0  0  0  0  0  0
    8.2585  -15.6527   28.3423 O   0  0  0  0  0  0  0  0  0  0  0  0
  2  1  1  0
  3  4  1  1
  3  2  1  0
  3  5  1  0
  5  6  1  6
  7  5  1  0
  7  8  2  0
  9  7  1  0
 10  9  1  0
 10 13  1  0
 10 11  1  1
 12 11  1  0
 13 19  1  0
 13 14  2  0
 16 15  1  6
 16 17  1  0
 18 16  1  0
 18 19  1  6
 20 18  1  0
 20 21  1  0
 22 20  2  0
M  END
$$$$
