QHF.pdb
     RDKit          3D

 31 32  0  0  1  0  0  0  0  0999 V2000
    2.9140  -18.8850   22.5419 N   0  0  0  0  0  0  0  0  0  0  0  0
    3.8874  -19.5692   23.3101 C   0  0  0  0  0  0  0  0  0  0  0  0
    3.5477  -20.3928   24.1872 O   0  0  0  0  0  0  0  0  0  0  0  0
    5.2980  -19.2924   23.0554 C   0  0  0  0  0  0  0  0  0  0  0  0
    5.5924  -18.1304   22.1774 C   0  0  0  0  0  0  0  0  0  0  0  0
    6.3381  -18.4393   20.9198 C   0  0  2  0  0  0  0  0  0  0  0  0
    6.6456  -19.8718   20.8395 N   0  0  0  0  0  0  0  0  0  0  0  0
    7.6504  -17.7005   20.8966 C   0  0  0  0  0  0  0  0  0  0  0  0
    8.7199  -18.2708   21.2315 O   0  0  0  0  0  0  0  0  0  0  0  0
    7.7378  -16.3468   20.5013 N   0  0  0  0  0  0  0  0  0  0  0  0
    8.9639  -15.6151   20.4448 C   0  0  1  0  0  0  0  0  0  0  0  0
    8.9939  -14.5683   19.3609 C   0  0  0  0  0  0  0  0  0  0  0  0
    8.8819  -15.1638   18.0064 C   0  0  0  0  0  0  0  0  0  0  0  0
    9.9545  -15.6842   17.3165 C   0  0  0  0  0  0  0  0  0  0  0  0
    9.5340  -16.1402   16.1380 N   0  0  0  0  0  0  0  0  0  0  0  0
    8.2133  -15.9134   16.0786 C   0  0  0  0  0  0  0  0  0  0  0  0
    7.8141  -15.3203   17.2123 N   0  0  0  0  0  0  0  0  0  0  0  0
    9.1803  -14.8995   21.7402 C   0  0  0  0  0  0  0  0  0  0  0  0
    9.4487  -13.6685   21.7580 O   0  0  0  0  0  0  0  0  0  0  0  0
    9.0945  -15.5658   22.9935 N   0  0  0  0  0  0  0  0  0  0  0  0
    8.8512  -14.8461   24.2391 C   0  0  1  0  0  0  0  0  0  0  0  0
    7.6213  -13.9638   24.1149 C   0  0  0  0  0  0  0  0  0  0  0  0
    7.4615  -13.2360   25.3993 C   0  0  0  0  0  0  0  0  0  0  0  0
    6.5267  -13.7070   26.3169 C   0  0  0  0  0  0  0  0  0  0  0  0
    6.3547  -13.0586   27.5017 C   0  0  0  0  0  0  0  0  0  0  0  0
    7.1163  -11.9404   27.7695 C   0  0  0  0  0  0  0  0  0  0  0  0
    8.0454  -11.4619   26.8718 C   0  0  0  0  0  0  0  0  0  0  0  0
    8.2292  -12.1207   25.6526 C   0  0  0  0  0  0  0  0  0  0  0  0
    8.7268  -15.8559   25.3131 C   0  0  0  0  0  0  0  0  0  0  0  0
    8.4691  -17.2061   25.0698 O   0  0  0  0  0  0  0  0  0  0  0  0
    8.8481  -15.5509   26.5413 O   0  0  0  0  0  0  0  0  0  0  0  0
  2  3  2  0
  2  1  1  0
  4  2  1  0
  5  4  1  0
  6  5  1  0
  6  7  1  1
  8  6  1  0
  8  9  2  0
 10  8  1  0
 11 10  1  0
 11 12  1  6
 13 14  2  0
 13 12  1  0
 15 14  1  0
 16 17  2  0
 16 15  1  0
 17 13  1  0
 18 20  1  0
 18 11  1  0
 19 18  2  0
 21 20  1  0
 21 29  1  0
 21 22  1  6
 23 28  1  0
 23 22  1  0
 24 23  2  0
 25 26  2  0
 25 24  1  0
 26 27  1  0
 27 28  2  0
 29 30  1  0
 31 29  2  0
M  END
$$$$
