QHF.pdb
     RDKit          3D

 31 32  0  0  1  0  0  0  0  0999 V2000
    5.1211  -20.2801   24.5010 N   0  0  0  0  0  0  0  0  0  0  0  0
    5.7117  -21.2528   23.6580 C   0  0  0  0  0  0  0  0  0  0  0  0
    5.3424  -22.4464   23.7010 O   0  0  0  0  0  0  0  0  0  0  0  0
    6.7622  -20.8314   22.7358 C   0  0  0  0  0  0  0  0  0  0  0  0
    7.0630  -19.3768   22.7014 C   0  0  0  0  0  0  0  0  0  0  0  0
    7.4043  -18.8158   21.3590 C   0  0  2  0  0  0  0  0  0  0  0  0
    8.0726  -19.8263   20.5311 N   0  0  0  0  0  0  0  0  0  0  0  0
    8.3570  -17.6584   21.5043 C   0  0  0  0  0  0  0  0  0  0  0  0
    9.6000  -17.8291   21.4199 O   0  0  0  0  0  0  0  0  0  0  0  0
    7.9013  -16.3417   21.7395 N   0  0  0  0  0  0  0  0  0  0  0  0
    8.7707  -15.2202   21.9072 C   0  0  1  0  0  0  0  0  0  0  0  0
    8.1987  -13.9281   21.3829 C   0  0  0  0  0  0  0  0  0  0  0  0
    8.1954  -13.8802   19.8998 C   0  0  0  0  0  0  0  0  0  0  0  0
    8.7479  -14.8631   19.1088 C   0  0  0  0  0  0  0  0  0  0  0  0
    8.5865  -14.5333   17.8287 N   0  0  0  0  0  0  0  0  0  0  0  0
    7.9408  -13.3579   17.8052 C   0  0  0  0  0  0  0  0  0  0  0  0
    7.7017  -12.9584   19.0620 N   0  0  0  0  0  0  0  0  0  0  0  0
    9.0431  -15.0109   23.3628 C   0  0  0  0  0  0  0  0  0  0  0  0
    9.8384  -14.1116   23.7457 O   0  0  0  0  0  0  0  0  0  0  0  0
    8.4261  -15.8057   24.3676 N   0  0  0  0  0  0  0  0  0  0  0  0
    8.7213  -15.6296   25.7856 C   0  0  1  0  0  0  0  0  0  0  0  0
    7.4436  -15.3932   26.5719 C   0  0  0  0  0  0  0  0  0  0  0  0
    7.1814  -13.9317   26.5701 C   0  0  0  0  0  0  0  0  0  0  0  0
    5.8662  -13.4937   26.4425 C   0  0  0  0  0  0  0  0  0  0  0  0
    5.5946  -12.1595   26.4336 C   0  0  0  0  0  0  0  0  0  0  0  0
    6.6365  -11.2637   26.5521 C   0  0  0  0  0  0  0  0  0  0  0  0
    7.9432  -11.6813   26.6791 C   0  0  0  0  0  0  0  0  0  0  0  0
    8.2321  -13.0490   26.6892 C   0  0  0  0  0  0  0  0  0  0  0  0
    9.4570  -16.8322   26.2341 C   0  0  0  0  0  0  0  0  0  0  0  0
    9.7899  -17.8885   25.3844 O   0  0  0  0  0  0  0  0  0  0  0  0
    9.8357  -16.9794   27.4387 O   0  0  0  0  0  0  0  0  0  0  0  0
  2  3  2  0
  2  1  1  0
  4  2  1  0
  5  4  1  0
  6  5  1  0
  6  7  1  6
  8  6  1  0
  8  9  2  0
 10  8  1  0
 11 10  1  0
 11 12  1  1
 13 14  2  0
 13 12  1  0
 15 14  1  0
 16 17  2  0
 16 15  1  0
 17 13  1  0
 18 20  1  0
 18 11  1  0
 19 18  2  0
 21 20  1  0
 21 29  1  0
 21 22  1  1
 23 28  1  0
 23 22  1  0
 24 23  2  0
 25 26  2  0
 25 24  1  0
 26 27  1  0
 27 28  2  0
 29 30  1  0
 31 29  2  0
M  END
$$$$
