QHF.pdb
     RDKit          3D

 31 32  0  0  1  0  0  0  0  0999 V2000
    7.2741  -12.8156   16.7083 N   0  0  0  0  0  0  0  0  0  0  0  0
    7.7172  -14.1550   16.8326 C   0  0  0  0  0  0  0  0  0  0  0  0
    7.2736  -15.0485   16.0790 O   0  0  0  0  0  0  0  0  0  0  0  0
    8.7049  -14.4706   17.8603 C   0  0  0  0  0  0  0  0  0  0  0  0
    9.0918  -13.3572   18.7650 C   0  0  0  0  0  0  0  0  0  0  0  0
   10.0265  -13.7168   19.8741 C   0  0  2  0  0  0  0  0  0  0  0  0
   11.1073  -14.5780   19.3808 N   0  0  0  0  0  0  0  0  0  0  0  0
    9.2962  -14.4871   20.9426 C   0  0  0  0  0  0  0  0  0  0  0  0
    8.2912  -13.9989   21.5196 O   0  0  0  0  0  0  0  0  0  0  0  0
    9.7036  -15.7801   21.3409 N   0  0  0  0  0  0  0  0  0  0  0  0
    9.0308  -16.5511   22.3382 C   0  0  1  0  0  0  0  0  0  0  0  0
    9.0647  -18.0355   22.0798 C   0  0  0  0  0  0  0  0  0  0  0  0
    8.0612  -18.4491   21.0680 C   0  0  0  0  0  0  0  0  0  0  0  0
    7.1231  -17.5918   20.5370 C   0  0  0  0  0  0  0  0  0  0  0  0
    6.3721  -18.2571   19.6612 N   0  0  0  0  0  0  0  0  0  0  0  0
    6.8255  -19.5192   19.6352 C   0  0  0  0  0  0  0  0  0  0  0  0
    7.8517  -19.6391   20.4888 N   0  0  0  0  0  0  0  0  0  0  0  0
    9.6827  -16.3305   23.6661 C   0  0  0  0  0  0  0  0  0  0  0  0
   10.8969  -16.0017   23.7399 O   0  0  0  0  0  0  0  0  0  0  0  0
    8.9727  -16.4794   24.8890 N   0  0  0  0  0  0  0  0  0  0  0  0
    9.5823  -16.1820   26.1808 C   0  0  1  0  0  0  0  0  0  0  0  0
    9.8358  -14.6911   26.3213 C   0  0  0  0  0  0  0  0  0  0  0  0
    8.5158  -14.0110   26.3185 C   0  0  0  0  0  0  0  0  0  0  0  0
    7.9851  -13.5974   25.0999 C   0  0  0  0  0  0  0  0  0  0  0  0
    6.7785  -12.9676   25.0656 C   0  0  0  0  0  0  0  0  0  0  0  0
    6.1026  -12.7512   26.2481 C   0  0  0  0  0  0  0  0  0  0  0  0
    6.6145  -13.1544   27.4620 C   0  0  0  0  0  0  0  0  0  0  0  0
    7.8526  -13.8017   27.5075 C   0  0  0  0  0  0  0  0  0  0  0  0
    8.6786  -16.7113   27.2257 C   0  0  0  0  0  0  0  0  0  0  0  0
    9.0157  -16.7569   28.5796 O   0  0  0  0  0  0  0  0  0  0  0  0
    7.5232  -17.1644   26.9501 O   0  0  0  0  0  0  0  0  0  0  0  0
  2  3  2  0
  2  1  1  0
  4  2  1  0
  5  4  1  0
  6  5  1  0
  6  7  1  6
  8  6  1  0
  8  9  2  0
 10  8  1  0
 11 10  1  0
 11 12  1  6
 13 14  2  0
 13 12  1  0
 15 14  1  0
 16 17  2  0
 16 15  1  0
 17 13  1  0
 18 20  1  0
 18 11  1  0
 19 18  2  0
 21 20  1  0
 21 29  1  0
 21 22  1  1
 23 28  1  0
 23 22  1  0
 24 23  2  0
 25 26  2  0
 25 24  1  0
 26 27  1  0
 27 28  2  0
 29 30  1  0
 31 29  2  0
M  END
$$$$
