QHF.pdb
     RDKit          3D

 31 32  0  0  1  0  0  0  0  0999 V2000
    8.8756  -11.8959   19.1385 N   0  0  0  0  0  0  0  0  0  0  0  0
    9.2894  -13.1423   18.6082 C   0  0  0  0  0  0  0  0  0  0  0  0
   10.4711  -13.3214   18.2414 O   0  0  0  0  0  0  0  0  0  0  0  0
    8.3055  -14.2153   18.4993 C   0  0  0  0  0  0  0  0  0  0  0  0
    7.6577  -14.6450   19.7656 C   0  0  0  0  0  0  0  0  0  0  0  0
    7.6549  -16.1164   20.0268 C   0  0  2  0  0  0  0  0  0  0  0  0
    6.6876  -16.7943   19.1563 N   0  0  0  0  0  0  0  0  0  0  0  0
    7.2438  -16.3929   21.4491 C   0  0  0  0  0  0  0  0  0  0  0  0
    6.0633  -16.1908   21.8323 O   0  0  0  0  0  0  0  0  0  0  0  0
    8.1572  -16.8869   22.4074 N   0  0  0  0  0  0  0  0  0  0  0  0
    7.7897  -17.2486   23.7400 C   0  0  1  0  0  0  0  0  0  0  0  0
    7.9683  -18.7149   24.0396 C   0  0  0  0  0  0  0  0  0  0  0  0
    6.9927  -19.5577   23.3049 C   0  0  0  0  0  0  0  0  0  0  0  0
    6.0001  -19.0420   22.5013 C   0  0  0  0  0  0  0  0  0  0  0  0
    5.2930  -20.0455   21.9849 N   0  0  0  0  0  0  0  0  0  0  0  0
    5.8277  -21.1831   22.4530 C   0  0  0  0  0  0  0  0  0  0  0  0
    6.8606  -20.8901   23.2552 N   0  0  0  0  0  0  0  0  0  0  0  0
    8.6442  -16.5030   24.7151 C   0  0  0  0  0  0  0  0  0  0  0  0
    9.8038  -16.1260   24.3974 O   0  0  0  0  0  0  0  0  0  0  0  0
    8.1939  -16.1896   26.0270 N   0  0  0  0  0  0  0  0  0  0  0  0
    9.0390  -15.4932   26.9911 C   0  0  1  0  0  0  0  0  0  0  0  0
    8.1954  -14.6428   27.9248 C   0  0  0  0  0  0  0  0  0  0  0  0
    7.5371  -13.5955   27.1034 C   0  0  0  0  0  0  0  0  0  0  0  0
    6.2264  -13.8069   26.6848 C   0  0  0  0  0  0  0  0  0  0  0  0
    5.5975  -12.8665   25.9272 C   0  0  0  0  0  0  0  0  0  0  0  0
    6.2778  -11.7157   25.5882 C   0  0  0  0  0  0  0  0  0  0  0  0
    7.5750  -11.4918   25.9946 C   0  0  0  0  0  0  0  0  0  0  0  0
    8.2292  -12.4514   26.7726 C   0  0  0  0  0  0  0  0  0  0  0  0
    9.8283  -16.5201   27.7062 C   0  0  0  0  0  0  0  0  0  0  0  0
   10.9302  -16.2190   28.5085 O   0  0  0  0  0  0  0  0  0  0  0  0
    9.5473  -17.7577   27.6319 O   0  0  0  0  0  0  0  0  0  0  0  0
  2  3  2  0
  2  1  1  0
  4  2  1  0
  5  4  1  0
  6  5  1  0
  6  7  1  6
  8  6  1  0
  8  9  2  0
 10  8  1  0
 11 10  1  0
 11 12  1  6
 13 14  2  0
 13 12  1  0
 15 14  1  0
 16 17  2  0
 16 15  1  0
 17 13  1  0
 18 20  1  0
 18 11  1  0
 19 18  2  0
 21 20  1  0
 21 29  1  0
 21 22  1  1
 23 28  1  0
 23 22  1  0
 24 23  2  0
 25 26  2  0
 25 24  1  0
 26 27  1  0
 27 28  2  0
 29 30  1  0
 31 29  2  0
M  END
$$$$
