QHF.pdb
     RDKit          3D

 31 32  0  0  1  0  0  0  0  0999 V2000
   10.3194  -12.5303   20.2329 N   0  0  0  0  0  0  0  0  0  0  0  0
    9.0975  -12.7830   19.5629 C   0  0  0  0  0  0  0  0  0  0  0  0
    9.0035  -12.6348   18.3251 O   0  0  0  0  0  0  0  0  0  0  0  0
    7.9484  -13.2216   20.3494 C   0  0  0  0  0  0  0  0  0  0  0  0
    7.1901  -14.3826   19.8157 C   0  0  0  0  0  0  0  0  0  0  0  0
    7.8480  -15.7152   19.9723 C   0  0  2  0  0  0  0  0  0  0  0  0
    7.1129  -16.7452   19.2295 N   0  0  0  0  0  0  0  0  0  0  0  0
    7.8513  -16.1282   21.4207 C   0  0  0  0  0  0  0  0  0  0  0  0
    6.7745  -16.3032   22.0461 O   0  0  0  0  0  0  0  0  0  0  0  0
    9.0528  -16.3355   22.1349 N   0  0  0  0  0  0  0  0  0  0  0  0
    9.1219  -17.0163   23.3892 C   0  0  1  0  0  0  0  0  0  0  0  0
   10.1284  -18.1379   23.4138 C   0  0  0  0  0  0  0  0  0  0  0  0
    9.6527  -19.3312   22.6712 C   0  0  0  0  0  0  0  0  0  0  0  0
    8.4361  -19.3880   22.0279 C   0  0  0  0  0  0  0  0  0  0  0  0
    8.3009  -20.5839   21.4577 N   0  0  0  0  0  0  0  0  0  0  0  0
    9.4148  -21.2780   21.7339 C   0  0  0  0  0  0  0  0  0  0  0  0
   10.2382  -20.5197   22.4711 N   0  0  0  0  0  0  0  0  0  0  0  0
    9.5246  -16.0533   24.4603 C   0  0  0  0  0  0  0  0  0  0  0  0
   10.3136  -15.1037   24.2082 O   0  0  0  0  0  0  0  0  0  0  0  0
    9.0426  -16.1632   25.7936 N   0  0  0  0  0  0  0  0  0  0  0  0
    9.6059  -15.3806   26.8887 C   0  0  1  0  0  0  0  0  0  0  0  0
    8.5100  -14.9156   27.8318 C   0  0  0  0  0  0  0  0  0  0  0  0
    7.6724  -13.9354   27.0953 C   0  0  0  0  0  0  0  0  0  0  0  0
    8.0690  -12.6011   27.0825 C   0  0  0  0  0  0  0  0  0  0  0  0
    7.3194  -11.6783   26.4189 C   0  0  0  0  0  0  0  0  0  0  0  0
    6.1744  -12.0884   25.7686 C   0  0  0  0  0  0  0  0  0  0  0  0
    5.7686  -13.4050   25.7721 C   0  0  0  0  0  0  0  0  0  0  0  0
    6.5315  -14.3599   26.4507 C   0  0  0  0  0  0  0  0  0  0  0  0
   10.6183  -16.2265   27.5581 C   0  0  0  0  0  0  0  0  0  0  0  0
   10.8625  -17.5547   27.2047 O   0  0  0  0  0  0  0  0  0  0  0  0
   11.3377  -15.7891   28.5106 O   0  0  0  0  0  0  0  0  0  0  0  0
  2  3  2  0
  2  1  1  0
  4  2  1  0
  5  4  1  0
  6  5  1  0
  6  7  1  6
  8  6  1  0
  8  9  2  0
 10  8  1  0
 11 10  1  0
 11 12  1  6
 13 14  2  0
 13 12  1  0
 15 14  1  0
 16 17  2  0
 16 15  1  0
 17 13  1  0
 18 20  1  0
 18 11  1  0
 19 18  2  0
 21 20  1  0
 21 29  1  0
 21 22  1  1
 23 28  1  0
 23 22  1  0
 24 23  2  0
 25 26  2  0
 25 24  1  0
 26 27  1  0
 27 28  2  0
 29 30  1  0
 31 29  2  0
M  END
$$$$
