QHF.pdb
     RDKit          3D

 31 32  0  0  1  0  0  0  0  0999 V2000
    7.3614  -12.5418   16.5148 N   0  0  0  0  0  0  0  0  0  0  0  0
    7.7279  -13.9089   16.5639 C   0  0  0  0  0  0  0  0  0  0  0  0
    7.7549  -14.6023   15.5240 O   0  0  0  0  0  0  0  0  0  0  0  0
    8.0748  -14.4921   17.8566 C   0  0  0  0  0  0  0  0  0  0  0  0
    7.9043  -13.6128   19.0422 C   0  0  0  0  0  0  0  0  0  0  0  0
    8.9499  -13.7417   20.1020 C   0  0  2  0  0  0  0  0  0  0  0  0
   10.2233  -14.1823   19.5211 N   0  0  0  0  0  0  0  0  0  0  0  0
    8.5406  -14.7782   21.1152 C   0  0  0  0  0  0  0  0  0  0  0  0
    7.3929  -14.7632   21.6287 O   0  0  0  0  0  0  0  0  0  0  0  0
    9.4194  -15.8040   21.5301 N   0  0  0  0  0  0  0  0  0  0  0  0
    9.0663  -16.8159   22.4752 C   0  0  1  0  0  0  0  0  0  0  0  0
    9.8554  -18.0906   22.3192 C   0  0  0  0  0  0  0  0  0  0  0  0
    9.4309  -18.8678   21.1286 C   0  0  0  0  0  0  0  0  0  0  0  0
    8.3504  -18.5254   20.3461 C   0  0  0  0  0  0  0  0  0  0  0  0
    8.2283  -19.4128   19.3606 N   0  0  0  0  0  0  0  0  0  0  0  0
    9.2164  -20.3067   19.5135 C   0  0  0  0  0  0  0  0  0  0  0  0
    9.9489  -19.9785   20.5868 N   0  0  0  0  0  0  0  0  0  0  0  0
    9.3232  -16.3178   23.8618 C   0  0  0  0  0  0  0  0  0  0  0  0
   10.3112  -15.5750   24.1058 O   0  0  0  0  0  0  0  0  0  0  0  0
    8.4763  -16.6548   24.9532 N   0  0  0  0  0  0  0  0  0  0  0  0
    8.6936  -16.1256   26.2955 C   0  0  1  0  0  0  0  0  0  0  0  0
    7.3762  -15.7065   26.9242 C   0  0  0  0  0  0  0  0  0  0  0  0
    7.1516  -14.2791   26.5823 C   0  0  0  0  0  0  0  0  0  0  0  0
    5.9704  -13.9302   25.9335 C   0  0  0  0  0  0  0  0  0  0  0  0
    5.7377  -12.6299   25.6035 C   0  0  0  0  0  0  0  0  0  0  0  0
    6.6846  -11.6789   25.9215 C   0  0  0  0  0  0  0  0  0  0  0  0
    7.8584  -12.0083   26.5632 C   0  0  0  0  0  0  0  0  0  0  0  0
    8.1064  -13.3407   26.9061 C   0  0  0  0  0  0  0  0  0  0  0  0
    9.3931  -17.1721   27.0727 C   0  0  0  0  0  0  0  0  0  0  0  0
    9.6644  -18.4465   26.5718 O   0  0  0  0  0  0  0  0  0  0  0  0
    9.7952  -16.9719   28.2620 O   0  0  0  0  0  0  0  0  0  0  0  0
  2  3  2  0
  2  1  1  0
  4  2  1  0
  5  4  1  0
  6  5  1  0
  6  7  1  6
  8  6  1  0
  8  9  2  0
 10  8  1  0
 11 10  1  0
 11 12  1  6
 13 14  2  0
 13 12  1  0
 15 14  1  0
 16 17  2  0
 16 15  1  0
 17 13  1  0
 18 20  1  0
 18 11  1  0
 19 18  2  0
 21 20  1  0
 21 29  1  0
 21 22  1  1
 23 28  1  0
 23 22  1  0
 24 23  2  0
 25 26  2  0
 25 24  1  0
 26 27  1  0
 27 28  2  0
 29 30  1  0
 31 29  2  0
M  END
$$$$
