QHF.pdb
     RDKit          3D

 31 32  0  0  1  0  0  0  0  0999 V2000
    7.9952  -12.5447   17.1465 N   0  0  0  0  0  0  0  0  0  0  0  0
    7.9040  -13.8581   16.6244 C   0  0  0  0  0  0  0  0  0  0  0  0
    7.5212  -14.0552   15.4507 O   0  0  0  0  0  0  0  0  0  0  0  0
    8.2677  -14.9785   17.4869 C   0  0  0  0  0  0  0  0  0  0  0  0
    7.9607  -14.8228   18.9323 C   0  0  0  0  0  0  0  0  0  0  0  0
    8.9486  -15.4298   19.8750 C   0  0  2  0  0  0  0  0  0  0  0  0
    9.4326  -16.7155   19.3596 N   0  0  0  0  0  0  0  0  0  0  0  0
    8.3003  -15.7000   21.2073 C   0  0  0  0  0  0  0  0  0  0  0  0
    7.6663  -14.7986   21.8130 O   0  0  0  0  0  0  0  0  0  0  0  0
    8.3747  -16.9660   21.8304 N   0  0  0  0  0  0  0  0  0  0  0  0
    7.8777  -17.2338   23.1430 C   0  0  1  0  0  0  0  0  0  0  0  0
    7.4897  -18.6738   23.3605 C   0  0  0  0  0  0  0  0  0  0  0  0
    6.3538  -19.0823   22.4975 C   0  0  0  0  0  0  0  0  0  0  0  0
    5.1176  -18.4761   22.5349 C   0  0  0  0  0  0  0  0  0  0  0  0
    4.3175  -19.0645   21.6476 N   0  0  0  0  0  0  0  0  0  0  0  0
    5.0337  -20.0309   21.0543 C   0  0  0  0  0  0  0  0  0  0  0  0
    6.2714  -20.0443   21.5684 N   0  0  0  0  0  0  0  0  0  0  0  0
    8.9339  -16.9156   24.1530 C   0  0  0  0  0  0  0  0  0  0  0  0
   10.1337  -17.2455   23.9550 O   0  0  0  0  0  0  0  0  0  0  0  0
    8.6370  -16.2357   25.3662 N   0  0  0  0  0  0  0  0  0  0  0  0
    9.6774  -15.8508   26.3140 C   0  0  1  0  0  0  0  0  0  0  0  0
    9.8736  -14.3448   26.3095 C   0  0  0  0  0  0  0  0  0  0  0  0
    8.5431  -13.7200   26.5202 C   0  0  0  0  0  0  0  0  0  0  0  0
    7.7367  -13.4858   25.4100 C   0  0  0  0  0  0  0  0  0  0  0  0
    6.5132  -12.9107   25.5710 C   0  0  0  0  0  0  0  0  0  0  0  0
    6.0957  -12.5698   26.8405 C   0  0  0  0  0  0  0  0  0  0  0  0
    6.8820  -12.7950   27.9491 C   0  0  0  0  0  0  0  0  0  0  0  0
    8.1399  -13.3849   27.7940 C   0  0  0  0  0  0  0  0  0  0  0  0
    9.2797  -16.3737   27.6395 C   0  0  0  0  0  0  0  0  0  0  0  0
    8.1020  -17.0902   27.8592 O   0  0  0  0  0  0  0  0  0  0  0  0
    9.9966  -16.1992   28.6748 O   0  0  0  0  0  0  0  0  0  0  0  0
  2  3  2  0
  2  1  1  0
  4  2  1  0
  5  4  1  0
  6  5  1  0
  6  7  1  6
  8  6  1  0
  8  9  2  0
 10  8  1  0
 11 10  1  0
 11 12  1  6
 13 14  2  0
 13 12  1  0
 15 14  1  0
 16 17  2  0
 16 15  1  0
 17 13  1  0
 18 20  1  0
 18 11  1  0
 19 18  2  0
 21 20  1  0
 21 29  1  0
 21 22  1  1
 23 28  1  0
 23 22  1  0
 24 23  2  0
 25 26  2  0
 25 24  1  0
 26 27  1  0
 27 28  2  0
 29 30  1  0
 31 29  2  0
M  END
$$$$
