QHF.pdb
     RDKit          3D

 31 32  0  0  1  0  0  0  0  0999 V2000
   16.4607  -13.8058   18.9943 N   0  0  0  0  0  0  0  0  0  0  0  0
   15.7259  -14.7830   18.2794 C   0  0  0  0  0  0  0  0  0  0  0  0
   16.2394  -15.8856   17.9905 O   0  0  0  0  0  0  0  0  0  0  0  0
   14.3538  -14.4752   17.8870 C   0  0  0  0  0  0  0  0  0  0  0  0
   13.4025  -14.1870   18.9914 C   0  0  0  0  0  0  0  0  0  0  0  0
   12.9417  -15.3717   19.7771 C   0  0  2  0  0  0  0  0  0  0  0  0
   12.3256  -16.3694   18.8950 N   0  0  0  0  0  0  0  0  0  0  0  0
   11.8965  -14.9582   20.7797 C   0  0  0  0  0  0  0  0  0  0  0  0
   12.1368  -14.0686   21.6353 O   0  0  0  0  0  0  0  0  0  0  0  0
   10.6116  -15.5455   20.8035 N   0  0  0  0  0  0  0  0  0  0  0  0
    9.5472  -15.0899   21.6409 C   0  0  1  0  0  0  0  0  0  0  0  0
    8.1784  -15.2947   21.0443 C   0  0  0  0  0  0  0  0  0  0  0  0
    8.0322  -14.6121   19.7350 C   0  0  0  0  0  0  0  0  0  0  0  0
    7.7957  -13.2612   19.6071 C   0  0  0  0  0  0  0  0  0  0  0  0
    7.7148  -12.9542   18.3137 N   0  0  0  0  0  0  0  0  0  0  0  0
    7.8972  -14.0927   17.6285 C   0  0  0  0  0  0  0  0  0  0  0  0
    8.0903  -15.1019   18.4891 N   0  0  0  0  0  0  0  0  0  0  0  0
    9.5701  -15.8417   22.9336 C   0  0  0  0  0  0  0  0  0  0  0  0
   10.1318  -16.9668   23.0136 O   0  0  0  0  0  0  0  0  0  0  0  0
    8.9676  -15.3289   24.1152 N   0  0  0  0  0  0  0  0  0  0  0  0
    9.4131  -15.7244   25.4471 C   0  0  1  0  0  0  0  0  0  0  0  0
    9.7888  -14.5037   26.2690 C   0  0  0  0  0  0  0  0  0  0  0  0
    8.5929  -13.6262   26.3387 C   0  0  0  0  0  0  0  0  0  0  0  0
    8.0911  -13.2869   27.5920 C   0  0  0  0  0  0  0  0  0  0  0  0
    6.9934  -12.4871   27.6880 C   0  0  0  0  0  0  0  0  0  0  0  0
    6.3977  -12.0267   26.5326 C   0  0  0  0  0  0  0  0  0  0  0  0
    6.8823  -12.3535   25.2850 C   0  0  0  0  0  0  0  0  0  0  0  0
    8.0087  -13.1742   25.1761 C   0  0  0  0  0  0  0  0  0  0  0  0
    8.3222  -16.5145   26.0590 C   0  0  0  0  0  0  0  0  0  0  0  0
    8.4510  -17.1849   27.2766 O   0  0  0  0  0  0  0  0  0  0  0  0
    7.1844  -16.6334   25.5046 O   0  0  0  0  0  0  0  0  0  0  0  0
  2  3  2  0
  2  1  1  0
  4  2  1  0
  5  4  1  0
  6  5  1  0
  6  7  1  6
  8  6  1  0
  8  9  2  0
 10  8  1  0
 11 10  1  0
 11 12  1  6
 13 14  2  0
 13 12  1  0
 15 14  1  0
 16 17  2  0
 16 15  1  0
 17 13  1  0
 18 20  1  0
 18 11  1  0
 19 18  2  0
 21 20  1  0
 21 29  1  0
 21 22  1  1
 23 28  1  0
 23 22  1  0
 24 23  2  0
 25 26  2  0
 25 24  1  0
 26 27  1  0
 27 28  2  0
 29 30  1  0
 31 29  2  0
M  END
$$$$
