KCS.pdb
     RDKit          3D

 22 21  0  0  1  0  0  0  0  0999 V2000
   -1.4856  -26.4405   26.7952 N   0  0  0  0  0  0  0  0  0  0  0  0
   -2.4546  -26.5349   27.8848 C   0  0  1  0  0  0  0  0  0  0  0  0
   -1.8424  -25.9360   29.0918 C   0  0  0  0  0  0  0  0  0  0  0  0
   -0.8392  -26.7711   29.7729 C   0  0  0  0  0  0  0  0  0  0  0  0
   -1.0571  -28.1735   30.1156 C   0  0  0  0  0  0  0  0  0  0  0  0
   -0.0696  -28.9501   30.8975 C   0  0  0  0  0  0  0  0  0  0  0  0
    1.3029  -28.7218   30.3298 N   0  0  0  0  0  0  0  0  0  0  0  0
   -3.6568  -25.7269   27.4433 C   0  0  0  0  0  0  0  0  0  0  0  0
   -3.5066  -24.6681   26.7638 O   0  0  0  0  0  0  0  0  0  0  0  0
   -4.9442  -26.1487   27.7857 N   0  0  0  0  0  0  0  0  0  0  0  0
   -6.1557  -25.4436   27.3487 C   0  0  1  0  0  0  0  0  0  0  0  0
   -7.1265  -26.4450   26.7505 C   0  0  0  0  0  0  0  0  0  0  0  0
   -8.7082  -25.6488   26.4244 S   0  0  0  0  0  0  0  0  0  0  0  0
   -6.6844  -24.7652   28.5573 C   0  0  0  0  0  0  0  0  0  0  0  0
   -6.7832  -25.3941   29.6747 O   0  0  0  0  0  0  0  0  0  0  0  0
   -7.8848  -20.6405   30.8789 O   0  0  0  0  0  0  0  0  0  0  0  0
   -7.5192  -21.2973   29.7066 C   0  0  0  0  0  0  0  0  0  0  0  0
   -7.5683  -22.8055   29.8580 C   0  0  2  0  0  0  0  0  0  0  0  0
   -7.1164  -23.4136   28.6122 N   0  0  0  0  0  0  0  0  0  0  0  0
   -8.9449  -23.2740   30.2042 C   0  0  0  0  0  0  0  0  0  0  0  0
   -9.8951  -23.4017   29.2024 O   0  0  0  0  0  0  0  0  0  0  0  0
   -9.2681  -23.5553   31.3713 O   0  0  0  0  0  0  0  0  0  0  0  0
  2  1  1  6
  2  3  1  0
  2  8  1  0
  4  3  1  0
  5  4  1  0
  6  5  1  0
  6  7  1  0
  8  9  2  0
 10  8  1  0
 10 11  1  0
 11 12  1  1
 12 13  1  0
 14 11  1  0
 14 15  2  0
 17 16  1  0
 18 17  1  6
 18 19  1  0
 19 14  1  0
 20 18  1  0
 20 21  1  0
 22 20  2  0
M  END
$$$$
