KCS.pdb
     RDKit          3D

 22 21  0  0  1  0  0  0  0  0999 V2000
   11.2646  -25.4300   30.7590 N   0  0  0  0  0  0  0  0  0  0  0  0
   12.3194  -25.6064   29.7633 C   0  0  1  0  0  0  0  0  0  0  0  0
   11.6842  -26.0395   28.4987 C   0  0  0  0  0  0  0  0  0  0  0  0
   10.7229  -27.1480   28.6209 C   0  0  0  0  0  0  0  0  0  0  0  0
   10.0044  -27.7199   27.4858 C   0  0  0  0  0  0  0  0  0  0  0  0
    8.9762  -28.7697   27.6596 C   0  0  0  0  0  0  0  0  0  0  0  0
    8.3649  -29.0912   26.3251 N   0  0  0  0  0  0  0  0  0  0  0  0
   12.9638  -24.2465   29.5947 C   0  0  0  0  0  0  0  0  0  0  0  0
   13.8530  -24.0604   28.7117 O   0  0  0  0  0  0  0  0  0  0  0  0
   12.5775  -23.1852   30.4176 N   0  0  0  0  0  0  0  0  0  0  0  0
   13.1532  -21.8393   30.3041 C   0  0  1  0  0  0  0  0  0  0  0  0
   12.2123  -20.8389   30.9499 C   0  0  0  0  0  0  0  0  0  0  0  0
   13.0323  -19.2449   31.1206 S   0  0  0  0  0  0  0  0  0  0  0  0
   14.4777  -21.9110   30.9682 C   0  0  0  0  0  0  0  0  0  0  0  0
   15.3699  -21.0095   30.7555 O   0  0  0  0  0  0  0  0  0  0  0  0
   15.2837  -23.2740   34.7145 O   0  0  0  0  0  0  0  0  0  0  0  0
   16.0299  -22.3986   33.9296 C   0  0  0  0  0  0  0  0  0  0  0  0
   16.1954  -22.9046   32.5094 C   0  0  2  0  0  0  0  0  0  0  0  0
   14.8860  -22.9302   31.8686 N   0  0  0  0  0  0  0  0  0  0  0  0
   16.8215  -24.2617   32.4839 C   0  0  0  0  0  0  0  0  0  0  0  0
   18.1191  -24.4240   32.9447 O   0  0  0  0  0  0  0  0  0  0  0  0
   16.2110  -25.2580   32.0592 O   0  0  0  0  0  0  0  0  0  0  0  0
  2  1  1  1
  2  3  1  0
  2  8  1  0
  4  3  1  0
  5  4  1  0
  6  5  1  0
  6  7  1  0
  8  9  2  0
 10  8  1  0
 10 11  1  0
 11 12  1  1
 12 13  1  0
 14 11  1  0
 14 15  2  0
 17 16  1  0
 18 17  1  1
 18 19  1  0
 19 14  1  0
 20 18  1  0
 20 21  1  0
 22 20  2  0
M  END
$$$$
