KCS.pdb
     RDKit          3D

 22 21  0  0  1  0  0  0  0  0999 V2000
   10.4717  -17.0200   17.9967 N   0  0  0  0  0  0  0  0  0  0  0  0
    9.5190  -17.4751   19.0069 C   0  0  1  0  0  0  0  0  0  0  0  0
    9.4599  -18.9525   18.9442 C   0  0  0  0  0  0  0  0  0  0  0  0
   10.4970  -19.5927   18.1181 C   0  0  0  0  0  0  0  0  0  0  0  0
   10.5299  -21.0242   17.8330 C   0  0  0  0  0  0  0  0  0  0  0  0
   11.6323  -21.6435   17.0645 C   0  0  0  0  0  0  0  0  0  0  0  0
   11.4218  -23.1302   17.0054 N   0  0  0  0  0  0  0  0  0  0  0  0
   10.0781  -17.0227   20.3394 C   0  0  0  0  0  0  0  0  0  0  0  0
   11.3294  -16.9259   20.5133 O   0  0  0  0  0  0  0  0  0  0  0  0
    9.2106  -16.7084   21.3889 N   0  0  0  0  0  0  0  0  0  0  0  0
    9.6758  -16.1625   22.6700 C   0  0  1  0  0  0  0  0  0  0  0  0
    8.4848  -15.6347   23.4485 C   0  0  0  0  0  0  0  0  0  0  0  0
    9.0070  -15.1079   25.0893 S   0  0  0  0  0  0  0  0  0  0  0  0
   10.3741  -17.2788   23.3532 C   0  0  0  0  0  0  0  0  0  0  0  0
    9.9223  -18.4806   23.2799 O   0  0  0  0  0  0  0  0  0  0  0  0
   14.3684  -19.4051   24.7924 O   0  0  0  0  0  0  0  0  0  0  0  0
   13.6470  -18.3660   24.2100 C   0  0  0  0  0  0  0  0  0  0  0  0
   12.2174  -18.3111   24.7133 C   0  0  2  0  0  0  0  0  0  0  0  0
   11.5602  -17.1509   24.1234 N   0  0  0  0  0  0  0  0  0  0  0  0
   12.1673  -18.2432   26.2057 C   0  0  0  0  0  0  0  0  0  0  0  0
   12.6995  -19.2815   26.9549 O   0  0  0  0  0  0  0  0  0  0  0  0
   11.6595  -17.2776   26.8019 O   0  0  0  0  0  0  0  0  0  0  0  0
  2  1  1  6
  2  3  1  0
  2  8  1  0
  4  3  1  0
  5  4  1  0
  6  5  1  0
  6  7  1  0
  8  9  2  0
 10  8  1  0
 10 11  1  0
 11 12  1  1
 12 13  1  0
 14 11  1  0
 14 15  2  0
 17 16  1  0
 18 17  1  1
 18 19  1  0
 19 14  1  0
 20 18  1  0
 20 21  1  0
 22 20  2  0
M  END
$$$$
