KCS.pdb
     RDKit          3D

 22 21  0  0  1  0  0  0  0  0999 V2000
    8.9514  -16.6918   17.6913 N   0  0  0  0  0  0  0  0  0  0  0  0
    8.1366  -17.1587   18.8108 C   0  0  1  0  0  0  0  0  0  0  0  0
    8.2411  -18.6339   18.8659 C   0  0  0  0  0  0  0  0  0  0  0  0
    7.0884  -19.3705   18.3212 C   0  0  0  0  0  0  0  0  0  0  0  0
    6.4602  -19.0518   17.0424 C   0  0  0  0  0  0  0  0  0  0  0  0
    5.3337  -19.8464   16.5048 C   0  0  0  0  0  0  0  0  0  0  0  0
    4.9342  -19.2972   15.1643 N   0  0  0  0  0  0  0  0  0  0  0  0
    8.7410  -16.5374   20.0524 C   0  0  0  0  0  0  0  0  0  0  0  0
    9.9820  -16.6409   20.2855 O   0  0  0  0  0  0  0  0  0  0  0  0
    7.9270  -15.8432   20.9515 N   0  0  0  0  0  0  0  0  0  0  0  0
    8.4460  -15.2108   22.1706 C   0  0  1  0  0  0  0  0  0  0  0  0
    7.3412  -14.3968   22.8187 C   0  0  0  0  0  0  0  0  0  0  0  0
    7.8601  -13.8469   24.4529 S   0  0  0  0  0  0  0  0  0  0  0  0
    8.9327  -16.3220   23.0244 C   0  0  0  0  0  0  0  0  0  0  0  0
    8.2317  -17.3891   23.1784 O   0  0  0  0  0  0  0  0  0  0  0  0
   12.8450  -17.2679   23.7736 O   0  0  0  0  0  0  0  0  0  0  0  0
   11.7632  -18.1356   23.9011 C   0  0  0  0  0  0  0  0  0  0  0  0
   10.5677  -17.4661   24.5511 C   0  0  2  0  0  0  0  0  0  0  0  0
   10.1655  -16.3311   23.7291 N   0  0  0  0  0  0  0  0  0  0  0  0
   10.8816  -17.0232   25.9439 C   0  0  0  0  0  0  0  0  0  0  0  0
   10.7508  -15.6845   26.2808 O   0  0  0  0  0  0  0  0  0  0  0  0
   11.2595  -17.8232   26.8174 O   0  0  0  0  0  0  0  0  0  0  0  0
  2  1  1  6
  2  3  1  0
  2  8  1  0
  4  3  1  0
  5  4  1  0
  6  5  1  0
  6  7  1  0
  8  9  2  0
 10  8  1  0
 10 11  1  0
 11 12  1  1
 12 13  1  0
 14 11  1  0
 14 15  2  0
 17 16  1  0
 18 17  1  6
 18 19  1  0
 19 14  1  0
 20 18  1  0
 20 21  1  0
 22 20  2  0
M  END
$$$$
