KCS.pdb
     RDKit          3D

 22 21  0  0  1  0  0  0  0  0999 V2000
    8.4720  -17.0550   17.2768 N   0  0  0  0  0  0  0  0  0  0  0  0
    8.6837  -17.8806   18.4636 C   0  0  1  0  0  0  0  0  0  0  0  0
    9.6199  -18.9680   18.1010 C   0  0  0  0  0  0  0  0  0  0  0  0
    9.0367  -20.0698   17.3175 C   0  0  0  0  0  0  0  0  0  0  0  0
    8.6171  -21.3400   17.9024 C   0  0  0  0  0  0  0  0  0  0  0  0
    8.1190  -22.4575   17.0702 C   0  0  0  0  0  0  0  0  0  0  0  0
    7.8755  -23.6561   17.9433 N   0  0  0  0  0  0  0  0  0  0  0  0
    9.3062  -16.9681   19.4993 C   0  0  0  0  0  0  0  0  0  0  0  0
   10.4899  -16.5408   19.3528 O   0  0  0  0  0  0  0  0  0  0  0  0
    8.5729  -16.5916   20.6277 N   0  0  0  0  0  0  0  0  0  0  0  0
    9.1214  -15.7307   21.6830 C   0  0  1  0  0  0  0  0  0  0  0  0
    7.9883  -15.2414   22.5660 C   0  0  0  0  0  0  0  0  0  0  0  0
    6.6892  -14.5144   21.5531 S   0  0  0  0  0  0  0  0  0  0  0  0
   10.1112  -16.5642   22.4082 C   0  0  0  0  0  0  0  0  0  0  0  0
   10.1756  -17.8330   22.2080 O   0  0  0  0  0  0  0  0  0  0  0  0
   13.7706  -16.2684   22.3117 O   0  0  0  0  0  0  0  0  0  0  0  0
   13.0311  -17.3452   22.7943 C   0  0  0  0  0  0  0  0  0  0  0  0
   12.0899  -16.9369   23.9112 C   0  0  2  0  0  0  0  0  0  0  0  0
   11.0516  -16.0779   23.3546 N   0  0  0  0  0  0  0  0  0  0  0  0
   12.8208  -16.2357   25.0107 C   0  0  0  0  0  0  0  0  0  0  0  0
   13.8058  -16.9110   25.7152 O   0  0  0  0  0  0  0  0  0  0  0  0
   12.5717  -15.0567   25.3164 O   0  0  0  0  0  0  0  0  0  0  0  0
  2  1  1  6
  2  3  1  0
  2  8  1  0
  4  3  1  0
  5  4  1  0
  6  5  1  0
  6  7  1  0
  8  9  2  0
 10  8  1  0
 10 11  1  0
 11 12  1  1
 12 13  1  0
 14 11  1  0
 14 15  2  0
 17 16  1  0
 18 17  1  6
 18 19  1  0
 19 14  1  0
 20 18  1  0
 20 21  1  0
 22 20  2  0
M  END
$$$$
