KCS.pdb
     RDKit          3D

 22 21  0  0  1  0  0  0  0  0999 V2000
    7.6639  -12.8116   19.7485 N   0  0  0  0  0  0  0  0  0  0  0  0
    7.2675  -13.9294   20.6019 C   0  0  1  0  0  0  0  0  0  0  0  0
    7.5890  -15.1846   19.8868 C   0  0  0  0  0  0  0  0  0  0  0  0
    7.5317  -15.1081   18.4175 C   0  0  0  0  0  0  0  0  0  0  0  0
    7.6709  -16.2699   17.5444 C   0  0  0  0  0  0  0  0  0  0  0  0
    7.5945  -16.1547   16.0712 C   0  0  0  0  0  0  0  0  0  0  0  0
    7.7877  -17.5124   15.4567 N   0  0  0  0  0  0  0  0  0  0  0  0
    8.1007  -13.8076   21.8604 C   0  0  0  0  0  0  0  0  0  0  0  0
    9.2720  -13.3270   21.8131 O   0  0  0  0  0  0  0  0  0  0  0  0
    7.5776  -14.2276   23.0863 N   0  0  0  0  0  0  0  0  0  0  0  0
    8.3092  -14.0932   24.3521 C   0  0  1  0  0  0  0  0  0  0  0  0
    7.4070  -13.4383   25.3818 C   0  0  0  0  0  0  0  0  0  0  0  0
    5.7614  -14.1656   25.3089 S   0  0  0  0  0  0  0  0  0  0  0  0
    8.7230  -15.4678   24.7256 C   0  0  0  0  0  0  0  0  0  0  0  0
    7.9355  -16.4665   24.5355 O   0  0  0  0  0  0  0  0  0  0  0  0
   11.9168  -17.1560   23.8398 O   0  0  0  0  0  0  0  0  0  0  0  0
   11.7221  -17.4782   25.1805 C   0  0  0  0  0  0  0  0  0  0  0  0
   10.3028  -17.1969   25.6352 C   0  0  2  0  0  0  0  0  0  0  0  0
    9.9725  -15.8161   25.3034 N   0  0  0  0  0  0  0  0  0  0  0  0
   10.1421  -17.4397   27.1015 C   0  0  0  0  0  0  0  0  0  0  0  0
   10.3679  -18.7088   27.6124 O   0  0  0  0  0  0  0  0  0  0  0  0
    9.8097  -16.5328   27.8841 O   0  0  0  0  0  0  0  0  0  0  0  0
  2  1  1  6
  2  3  1  0
  2  8  1  0
  4  3  1  0
  5  4  1  0
  6  5  1  0
  6  7  1  0
  8  9  2  0
 10  8  1  0
 10 11  1  0
 11 12  1  1
 12 13  1  0
 14 11  1  0
 14 15  2  0
 17 16  1  0
 18 17  1  1
 18 19  1  0
 19 14  1  0
 20 18  1  0
 20 21  1  0
 22 20  2  0
M  END
$$$$
