KCS.pdb
     RDKit          3D

 22 21  0  0  1  0  0  0  0  0999 V2000
    8.3845  -15.4716   19.4428 N   0  0  0  0  0  0  0  0  0  0  0  0
    7.5660  -15.6860   20.6340 C   0  0  1  0  0  0  0  0  0  0  0  0
    7.1489  -17.1058   20.6506 C   0  0  0  0  0  0  0  0  0  0  0  0
    7.3510  -17.8392   19.3900 C   0  0  0  0  0  0  0  0  0  0  0  0
    6.9024  -19.2120   19.1759 C   0  0  0  0  0  0  0  0  0  0  0  0
    6.9772  -19.8612   17.8484 C   0  0  0  0  0  0  0  0  0  0  0  0
    6.3414  -21.2206   17.9244 N   0  0  0  0  0  0  0  0  0  0  0  0
    8.4636  -15.3830   21.8153 C   0  0  0  0  0  0  0  0  0  0  0  0
    9.7231  -15.4643   21.7045 O   0  0  0  0  0  0  0  0  0  0  0  0
    7.9027  -15.0104   23.0397 N   0  0  0  0  0  0  0  0  0  0  0  0
    8.7126  -14.6769   24.2180 C   0  0  1  0  0  0  0  0  0  0  0  0
    7.9333  -13.7231   25.1046 C   0  0  0  0  0  0  0  0  0  0  0  0
    6.3335  -14.4376   25.5198 S   0  0  0  0  0  0  0  0  0  0  0  0
    9.0178  -15.9709   24.8758 C   0  0  0  0  0  0  0  0  0  0  0  0
    8.1638  -16.9324   24.8643 O   0  0  0  0  0  0  0  0  0  0  0  0
   11.5720  -18.2243   24.0750 O   0  0  0  0  0  0  0  0  0  0  0  0
   11.6911  -18.1967   25.4622 C   0  0  0  0  0  0  0  0  0  0  0  0
   10.4686  -17.5954   26.1285 C   0  0  2  0  0  0  0  0  0  0  0  0
   10.2267  -16.2770   25.5550 N   0  0  0  0  0  0  0  0  0  0  0  0
   10.6462  -17.5014   27.6098 C   0  0  0  0  0  0  0  0  0  0  0  0
   10.8533  -18.6571   28.3476 O   0  0  0  0  0  0  0  0  0  0  0  0
   10.6140  -16.4113   28.2067 O   0  0  0  0  0  0  0  0  0  0  0  0
  2  1  1  6
  2  3  1  0
  2  8  1  0
  4  3  1  0
  5  4  1  0
  6  5  1  0
  6  7  1  0
  8  9  2  0
 10  8  1  0
 10 11  1  0
 11 12  1  1
 12 13  1  0
 14 11  1  0
 14 15  2  0
 17 16  1  0
 18 17  1  6
 18 19  1  0
 19 14  1  0
 20 18  1  0
 20 21  1  0
 22 20  2  0
M  END
$$$$
