DCG.pdb
     RDKit          3D

 19 18  0  0  1  0  0  0  0  0999 V2000
    8.0061  -16.7170   16.3078 N   0  0  0  0  0  0  0  0  0  0  0  0
    9.4163  -16.7131   16.4920 C   0  0  1  0  0  0  0  0  0  0  0  0
   10.1973  -16.2985   15.2757 C   0  0  0  0  0  0  0  0  0  0  0  0
    9.8938  -17.1981   14.1403 C   0  0  0  0  0  0  0  0  0  0  0  0
    8.9082  -16.9001   13.3991 O   0  0  0  0  0  0  0  0  0  0  0  0
    9.8414  -15.8814   17.6653 C   0  0  0  0  0  0  0  0  0  0  0  0
   11.0704  -15.6838   17.8861 O   0  0  0  0  0  0  0  0  0  0  0  0
   10.6073  -18.3277   13.8406 O   0  0  0  0  0  0  0  0  0  0  0  0
    8.9090  -15.3010   18.5471 N   0  0  0  0  0  0  0  0  0  0  0  0
    9.2552  -14.5418   19.7457 C   0  0  1  0  0  0  0  0  0  0  0  0
    8.0743  -13.6332   20.0170 C   0  0  0  0  0  0  0  0  0  0  0  0
    7.7803  -12.3769   18.7957 S   0  0  0  0  0  0  0  0  0  0  0  0
    9.6067  -15.4269   20.8609 C   0  0  0  0  0  0  0  0  0  0  0  0
    8.7313  -16.2741   21.2722 O   0  0  0  0  0  0  0  0  0  0  0  0
   10.8551  -15.4224   21.5306 N   0  0  0  0  0  0  0  0  0  0  0  0
   11.0557  -16.3109   22.6599 C   0  0  0  0  0  0  0  0  0  0  0  0
   12.4201  -16.2282   23.2066 C   0  0  0  0  0  0  0  0  0  0  0  0
   13.3047  -15.5596   22.6356 O   0  0  0  0  0  0  0  0  0  0  0  0
   12.7327  -16.8981   24.3685 O   0  0  0  0  0  0  0  0  0  0  0  0
  2  1  1  6
  2  3  1  0
  3  4  1  0
  4  8  1  0
  5  4  2  0
  6  2  1  0
  6  7  2  0
  9  6  1  0
 10  9  1  0
 10 11  1  1
 12 11  1  0
 13 10  1  0
 14 13  2  0
 15 13  1  0
 16 15  1  0
 17 16  1  0
 17 19  1  0
 18 17  2  0
M  END
$$$$
