DCG.pdb
     RDKit          3D

 19 18  0  0  1  0  0  0  0  0999 V2000
    8.1035  -18.0719   19.2394 N   0  0  0  0  0  0  0  0  0  0  0  0
    9.1998  -17.2545   18.8487 C   0  0  1  0  0  0  0  0  0  0  0  0
    8.9949  -16.5254   17.5497 C   0  0  0  0  0  0  0  0  0  0  0  0
    8.7414  -17.4891   16.4553 C   0  0  0  0  0  0  0  0  0  0  0  0
    9.7173  -18.1916   16.0505 O   0  0  0  0  0  0  0  0  0  0  0  0
    9.5960  -16.2753   19.9133 C   0  0  0  0  0  0  0  0  0  0  0  0
   10.4747  -15.3997   19.6693 O   0  0  0  0  0  0  0  0  0  0  0  0
    7.5244  -17.6695   15.8544 O   0  0  0  0  0  0  0  0  0  0  0  0
    9.0177  -16.2926   21.1974 N   0  0  0  0  0  0  0  0  0  0  0  0
    9.4959  -15.5159   22.3380 C   0  0  1  0  0  0  0  0  0  0  0  0
    8.2604  -15.1292   23.1241 C   0  0  0  0  0  0  0  0  0  0  0  0
    8.5627  -14.4563   24.7404 S   0  0  0  0  0  0  0  0  0  0  0  0
   10.4981  -16.2561   23.1114 C   0  0  0  0  0  0  0  0  0  0  0  0
   10.1241  -17.3004   23.7615 O   0  0  0  0  0  0  0  0  0  0  0  0
   11.8681  -15.9060   23.1989 N   0  0  0  0  0  0  0  0  0  0  0  0
   12.7402  -16.6720   24.0694 C   0  0  0  0  0  0  0  0  0  0  0  0
   14.1482  -16.2554   23.9646 C   0  0  0  0  0  0  0  0  0  0  0  0
   14.5026  -15.3762   23.1540 O   0  0  0  0  0  0  0  0  0  0  0  0
   15.0967  -16.8422   24.7724 O   0  0  0  0  0  0  0  0  0  0  0  0
  2  1  1  1
  2  3  1  0
  3  4  1  0
  4  8  1  0
  5  4  2  0
  6  2  1  0
  6  7  2  0
  9  6  1  0
 10  9  1  0
 10 11  1  1
 12 11  1  0
 13 10  1  0
 14 13  2  0
 15 13  1  0
 16 15  1  0
 17 16  1  0
 17 19  1  0
 18 17  2  0
M  END
$$$$
