DCG.pdb
     RDKit          3D

 19 18  0  0  1  0  0  0  0  0999 V2000
   10.3667  -15.9762   21.6512 N   0  0  0  0  0  0  0  0  0  0  0  0
   10.3704  -16.8268   22.7909 C   0  0  1  0  0  0  0  0  0  0  0  0
   11.2235  -18.0561   22.6419 C   0  0  0  0  0  0  0  0  0  0  0  0
   11.0137  -18.6675   21.3104 C   0  0  0  0  0  0  0  0  0  0  0  0
    9.8191  -18.7985   20.9035 O   0  0  0  0  0  0  0  0  0  0  0  0
   10.7526  -16.1037   24.0479 C   0  0  0  0  0  0  0  0  0  0  0  0
   11.9286  -15.6617   24.1885 O   0  0  0  0  0  0  0  0  0  0  0  0
   12.0239  -19.0989   20.4932 O   0  0  0  0  0  0  0  0  0  0  0  0
    9.8369  -15.8935   25.0973 N   0  0  0  0  0  0  0  0  0  0  0  0
   10.1551  -15.2389   26.3634 C   0  0  1  0  0  0  0  0  0  0  0  0
    9.2008  -14.0683   26.4767 C   0  0  0  0  0  0  0  0  0  0  0  0
    9.3457  -13.1055   27.9628 S   0  0  0  0  0  0  0  0  0  0  0  0
   10.0946  -16.1800   27.4864 C   0  0  0  0  0  0  0  0  0  0  0  0
    9.0802  -16.9649   27.5762 O   0  0  0  0  0  0  0  0  0  0  0  0
   11.0824  -16.2950   28.4954 N   0  0  0  0  0  0  0  0  0  0  0  0
   10.8600  -17.2052   29.6031 C   0  0  0  0  0  0  0  0  0  0  0  0
   11.2224  -18.5934   29.2733 C   0  0  0  0  0  0  0  0  0  0  0  0
   11.5835  -18.9101   28.1223 O   0  0  0  0  0  0  0  0  0  0  0  0
   11.1641  -19.5650   30.2475 O   0  0  0  0  0  0  0  0  0  0  0  0
  2  1  1  6
  2  3  1  0
  3  4  1  0
  4  8  1  0
  5  4  2  0
  6  2  1  0
  6  7  2  0
  9  6  1  0
 10  9  1  0
 10 11  1  1
 12 11  1  0
 13 10  1  0
 14 13  2  0
 15 13  1  0
 16 15  1  0
 17 16  1  0
 17 19  1  0
 18 17  2  0
M  END
$$$$
