DCG.pdb
     RDKit          3D

 19 18  0  0  1  0  0  0  0  0999 V2000
    7.0415  -15.8606   21.4854 N   0  0  0  0  0  0  0  0  0  0  0  0
    8.4396  -15.6681   21.6612 C   0  0  1  0  0  0  0  0  0  0  0  0
    9.1191  -14.9837   20.5074 C   0  0  0  0  0  0  0  0  0  0  0  0
    9.1119  -15.8604   19.3149 C   0  0  0  0  0  0  0  0  0  0  0  0
    9.4892  -17.0625   19.4647 O   0  0  0  0  0  0  0  0  0  0  0  0
    8.7656  -14.9437   22.9331 C   0  0  0  0  0  0  0  0  0  0  0  0
    9.9683  -14.6757   23.2158 O   0  0  0  0  0  0  0  0  0  0  0  0
    8.7250  -15.4573   18.0649 O   0  0  0  0  0  0  0  0  0  0  0  0
    7.7671  -14.5425   23.8419 N   0  0  0  0  0  0  0  0  0  0  0  0
    8.0210  -13.9951   25.1718 C   0  0  1  0  0  0  0  0  0  0  0  0
    6.8998  -13.0120   25.4369 C   0  0  0  0  0  0  0  0  0  0  0  0
    6.7779  -12.4248   27.1093 S   0  0  0  0  0  0  0  0  0  0  0  0
    8.1455  -15.0563   26.1763 C   0  0  0  0  0  0  0  0  0  0  0  0
    7.1905  -15.9097   26.2899 O   0  0  0  0  0  0  0  0  0  0  0  0
    9.2534  -15.2183   27.0442 N   0  0  0  0  0  0  0  0  0  0  0  0
    9.2640  -16.3279   27.9789 C   0  0  0  0  0  0  0  0  0  0  0  0
   10.4353  -16.3027   28.8702 C   0  0  0  0  0  0  0  0  0  0  0  0
   11.3052  -15.4147   28.7680 O   0  0  0  0  0  0  0  0  0  0  0  0
   10.5801  -17.2733   29.8364 O   0  0  0  0  0  0  0  0  0  0  0  0
  2  1  1  6
  2  3  1  0
  3  4  1  0
  4  8  1  0
  5  4  2  0
  6  2  1  0
  6  7  2  0
  9  6  1  0
 10  9  1  0
 10 11  1  1
 12 11  1  0
 13 10  1  0
 14 13  2  0
 15 13  1  0
 16 15  1  0
 17 16  1  0
 17 19  1  0
 18 17  2  0
M  END
$$$$
