SQQ.pdb
     RDKit          3D

 25 24  0  0  1  0  0  0  0  0999 V2000
    9.6994  -13.9215   19.5540 O   0  0  0  0  0  0  0  0  0  0  0  0
    8.5951  -14.5157   18.9376 C   0  0  0  0  0  0  0  0  0  0  0  0
    7.3232  -14.0858   19.6336 C   0  0  2  0  0  0  0  0  0  0  0  0
    7.1541  -12.6679   19.6266 N   0  0  0  0  0  0  0  0  0  0  0  0
    7.2289  -14.6224   20.9952 C   0  0  0  0  0  0  0  0  0  0  0  0
    7.4726  -13.8951   22.0178 O   0  0  0  0  0  0  0  0  0  0  0  0
    5.9390  -20.5256   22.2960 N   0  0  0  0  0  0  0  0  0  0  0  0
    6.0819  -20.0661   23.6224 C   0  0  0  0  0  0  0  0  0  0  0  0
    5.9182  -20.8054   24.6021 O   0  0  0  0  0  0  0  0  0  0  0  0
    6.4464  -18.6405   23.7915 C   0  0  0  0  0  0  0  0  0  0  0  0
    6.5260  -17.9190   22.5052 C   0  0  0  0  0  0  0  0  0  0  0  0
    6.8561  -16.4103   22.6670 C   0  0  2  0  0  0  0  0  0  0  0  0
    6.8634  -15.9700   21.2654 N   0  0  0  0  0  0  0  0  0  0  0  0
    8.2111  -16.3175   23.2644 C   0  0  0  0  0  0  0  0  0  0  0  0
    9.1068  -15.7979   22.5357 O   0  0  0  0  0  0  0  0  0  0  0  0
    5.6413  -12.8032   26.0504 N   0  0  0  0  0  0  0  0  0  0  0  0
    6.7524  -12.8411   26.9532 C   0  0  0  0  0  0  0  0  0  0  0  0
    6.7408  -12.0073   27.9066 O   0  0  0  0  0  0  0  0  0  0  0  0
    7.8743  -13.7820   26.8294 C   0  0  0  0  0  0  0  0  0  0  0  0
    7.7809  -14.7605   25.7090 C   0  0  0  0  0  0  0  0  0  0  0  0
    8.8798  -15.7978   25.6447 C   0  0  2  0  0  0  0  0  0  0  0  0
    8.5586  -16.7460   24.5514 N   0  0  0  0  0  0  0  0  0  0  0  0
    9.2764  -16.5126   26.8035 C   0  0  0  0  0  0  0  0  0  0  0  0
   10.0477  -16.1453   27.7449 O   0  0  0  0  0  0  0  0  0  0  0  0
    8.7807  -17.8278   26.9964 O   0  0  0  0  0  0  0  0  0  0  0  0
  2  1  1  0
  2  3  1  0
  3  4  1  1
  5  3  1  0
  5  6  2  0
  8  7  1  0
  8 10  1  0
  9  8  2  0
 11 10  1  0
 12 11  1  6
 13 12  1  0
 13  5  1  0
 14 15  2  0
 14 12  1  0
 16 17  1  0
 17 19  1  0
 18 17  2  0
 19 20  1  0
 21 20  1  1
 21 22  1  0
 21 23  1  0
 22 14  1  0
 23 25  1  0
 24 23  2  0
M  END
$$$$
