SQQ.pdb
     RDKit          3D

 25 24  0  0  1  0  0  0  0  0999 V2000
   -0.1132  -27.5984   26.6829 O   0  0  0  0  0  0  0  0  0  0  0  0
   -1.2050  -26.9635   27.2809 C   0  0  0  0  0  0  0  0  0  0  0  0
   -1.2102  -25.4956   26.9170 C   0  0  2  0  0  0  0  0  0  0  0  0
   -0.0123  -24.8325   27.3223 N   0  0  0  0  0  0  0  0  0  0  0  0
   -2.3969  -24.8027   27.4293 C   0  0  0  0  0  0  0  0  0  0  0  0
   -2.5477  -24.5705   28.6773 O   0  0  0  0  0  0  0  0  0  0  0  0
   -6.3970  -21.7766   23.8693 N   0  0  0  0  0  0  0  0  0  0  0  0
   -7.0468  -21.5573   25.1025 C   0  0  0  0  0  0  0  0  0  0  0  0
   -8.0467  -20.8344   25.2065 O   0  0  0  0  0  0  0  0  0  0  0  0
   -6.4731  -22.2447   26.2823 C   0  0  0  0  0  0  0  0  0  0  0  0
   -5.2392  -22.9900   25.9602 C   0  0  0  0  0  0  0  0  0  0  0  0
   -4.5654  -23.6290   27.2047 C   0  0  2  0  0  0  0  0  0  0  0  0
   -3.4450  -24.3474   26.5827 N   0  0  0  0  0  0  0  0  0  0  0  0
   -5.5434  -24.5738   27.7986 C   0  0  0  0  0  0  0  0  0  0  0  0
   -5.7713  -25.6289   27.1368 O   0  0  0  0  0  0  0  0  0  0  0  0
   -4.9205  -29.2659   30.0182 N   0  0  0  0  0  0  0  0  0  0  0  0
   -4.7720  -28.2098   30.9740 C   0  0  0  0  0  0  0  0  0  0  0  0
   -3.9918  -28.4279   31.9478 O   0  0  0  0  0  0  0  0  0  0  0  0
   -5.4625  -26.9163   30.8767 C   0  0  0  0  0  0  0  0  0  0  0  0
   -6.3135  -26.7236   29.6683 C   0  0  0  0  0  0  0  0  0  0  0  0
   -7.0886  -25.4263   29.6065 C   0  0  2  0  0  0  0  0  0  0  0  0
   -6.2095  -24.3888   29.0163 N   0  0  0  0  0  0  0  0  0  0  0  0
   -7.7403  -24.9109   30.7558 C   0  0  0  0  0  0  0  0  0  0  0  0
   -7.5756  -23.7906   31.3336 O   0  0  0  0  0  0  0  0  0  0  0  0
   -8.7208  -25.7091   31.3993 O   0  0  0  0  0  0  0  0  0  0  0  0
  2  1  1  0
  2  3  1  0
  3  4  1  1
  5  3  1  0
  5  6  2  0
  8  7  1  0
  8 10  1  0
  9  8  2  0
 11 10  1  0
 12 11  1  6
 13 12  1  0
 13  5  1  0
 14 15  2  0
 14 12  1  0
 16 17  1  0
 17 19  1  0
 18 17  2  0
 19 20  1  0
 21 20  1  1
 21 22  1  0
 21 23  1  0
 22 14  1  0
 23 25  1  0
 24 23  2  0
M  END
$$$$
