SQQ.pdb
     RDKit          3D

 25 24  0  0  1  0  0  0  0  0999 V2000
    6.1849  -19.1108   18.1337 O   0  0  0  0  0  0  0  0  0  0  0  0
    5.7585  -18.6099   19.3665 C   0  0  0  0  0  0  0  0  0  0  0  0
    6.9217  -17.9745   20.0948 C   0  0  2  0  0  0  0  0  0  0  0  0
    8.1039  -18.7724   20.0282 N   0  0  0  0  0  0  0  0  0  0  0  0
    6.5885  -17.6385   21.4828 C   0  0  0  0  0  0  0  0  0  0  0  0
    5.5931  -16.8886   21.7678 O   0  0  0  0  0  0  0  0  0  0  0  0
    7.3496  -21.1914   26.2180 N   0  0  0  0  0  0  0  0  0  0  0  0
    7.0548  -20.0317   26.9657 C   0  0  0  0  0  0  0  0  0  0  0  0
    6.9543  -20.0455   28.1999 O   0  0  0  0  0  0  0  0  0  0  0  0
    6.8734  -18.7789   26.1968 C   0  0  0  0  0  0  0  0  0  0  0  0
    7.0540  -18.9738   24.7440 C   0  0  0  0  0  0  0  0  0  0  0  0
    6.9588  -17.6543   23.9309 C   0  0  2  0  0  0  0  0  0  0  0  0
    7.3399  -18.1193   22.5905 N   0  0  0  0  0  0  0  0  0  0  0  0
    7.9734  -16.7228   24.4828 C   0  0  0  0  0  0  0  0  0  0  0  0
    9.1839  -17.0319   24.2772 O   0  0  0  0  0  0  0  0  0  0  0  0
    6.7914  -10.6854   26.2030 N   0  0  0  0  0  0  0  0  0  0  0  0
    6.0623  -11.9147   26.2936 C   0  0  0  0  0  0  0  0  0  0  0  0
    4.8144  -11.8240   26.4911 O   0  0  0  0  0  0  0  0  0  0  0  0
    6.6795  -13.2422   26.1670 C   0  0  0  0  0  0  0  0  0  0  0  0
    8.1349  -13.2540   25.8459 C   0  0  0  0  0  0  0  0  0  0  0  0
    8.7552  -14.6182   25.6417 C   0  0  2  0  0  0  0  0  0  0  0  0
    7.6921  -15.5479   25.1908 N   0  0  0  0  0  0  0  0  0  0  0  0
    9.5292  -15.2274   26.6620 C   0  0  0  0  0  0  0  0  0  0  0  0
    9.1603  -16.0370   27.5700 O   0  0  0  0  0  0  0  0  0  0  0  0
   10.9145  -14.9305   26.7363 O   0  0  0  0  0  0  0  0  0  0  0  0
  2  1  1  0
  2  3  1  0
  3  4  1  1
  5  3  1  0
  5  6  2  0
  8  7  1  0
  8 10  1  0
  9  8  2  0
 11 10  1  0
 12 11  1  1
 13 12  1  0
 13  5  1  0
 14 15  2  0
 14 12  1  0
 16 17  1  0
 17 19  1  0
 18 17  2  0
 19 20  1  0
 21 20  1  1
 21 22  1  0
 21 23  1  0
 22 14  1  0
 23 25  1  0
 24 23  2  0
M  END
$$$$
