SQQ.pdb
     RDKit          3D

 25 24  0  0  1  0  0  0  0  0999 V2000
    9.8873  -17.2190   18.4989 O   0  0  0  0  0  0  0  0  0  0  0  0
    9.4312  -16.9116   19.7835 C   0  0  0  0  0  0  0  0  0  0  0  0
    8.0984  -17.5820   20.0313 C   0  0  2  0  0  0  0  0  0  0  0  0
    7.1215  -17.2240   19.0533 N   0  0  0  0  0  0  0  0  0  0  0  0
    7.6006  -17.3388   21.3891 C   0  0  0  0  0  0  0  0  0  0  0  0
    6.6216  -16.5468   21.6093 O   0  0  0  0  0  0  0  0  0  0  0  0
    7.6271  -21.4590   25.7264 N   0  0  0  0  0  0  0  0  0  0  0  0
    7.2592  -20.3864   26.5661 C   0  0  0  0  0  0  0  0  0  0  0  0
    6.9623  -20.5477   27.7573 O   0  0  0  0  0  0  0  0  0  0  0  0
    7.2490  -19.0394   25.9502 C   0  0  0  0  0  0  0  0  0  0  0  0
    7.6468  -19.0630   24.5280 C   0  0  0  0  0  0  0  0  0  0  0  0
    7.5562  -17.6728   23.8420 C   0  0  2  0  0  0  0  0  0  0  0  0
    8.1654  -17.9608   22.5366 N   0  0  0  0  0  0  0  0  0  0  0  0
    8.3961  -16.7373   24.6300 C   0  0  0  0  0  0  0  0  0  0  0  0
    9.6485  -16.8609   24.4908 O   0  0  0  0  0  0  0  0  0  0  0  0
    5.7194  -10.9545   25.2389 N   0  0  0  0  0  0  0  0  0  0  0  0
    6.3828  -11.8684   26.1196 C   0  0  0  0  0  0  0  0  0  0  0  0
    6.1530  -11.7349   27.3581 O   0  0  0  0  0  0  0  0  0  0  0  0
    7.2913  -12.9295   25.6633 C   0  0  0  0  0  0  0  0  0  0  0  0
    8.0221  -13.6641   26.7344 C   0  0  0  0  0  0  0  0  0  0  0  0
    8.8106  -14.8742   26.2854 C   0  0  2  0  0  0  0  0  0  0  0  0
    7.9116  -15.7440   25.4898 N   0  0  0  0  0  0  0  0  0  0  0  0
    9.5397  -15.6562   27.2171 C   0  0  0  0  0  0  0  0  0  0  0  0
    9.3052  -16.8363   27.6274 O   0  0  0  0  0  0  0  0  0  0  0  0
   10.7009  -15.1002   27.8131 O   0  0  0  0  0  0  0  0  0  0  0  0
  2  1  1  0
  2  3  1  0
  3  4  1  6
  5  3  1  0
  5  6  2  0
  8  7  1  0
  8 10  1  0
  9  8  2  0
 11 10  1  0
 12 11  1  1
 13 12  1  0
 13  5  1  0
 14 15  2  0
 14 12  1  0
 16 17  1  0
 17 19  1  0
 18 17  2  0
 19 20  1  0
 21 20  1  1
 21 22  1  0
 21 23  1  0
 22 14  1  0
 23 25  1  0
 24 23  2  0
M  END
$$$$
