SQQ.pdb
     RDKit          3D

 25 24  0  0  1  0  0  0  0  0999 V2000
    4.4238  -18.5685   23.1578 O   0  0  0  0  0  0  0  0  0  0  0  0
    3.6035  -18.0440   22.1555 C   0  0  0  0  0  0  0  0  0  0  0  0
    4.3391  -18.0454   20.8342 C   0  0  2  0  0  0  0  0  0  0  0  0
    4.5281  -19.3643   20.3205 N   0  0  0  0  0  0  0  0  0  0  0  0
    5.6114  -17.3200   20.9084 C   0  0  0  0  0  0  0  0  0  0  0  0
    6.7319  -17.9354   20.9090 O   0  0  0  0  0  0  0  0  0  0  0  0
    7.7593  -13.1098   17.9585 N   0  0  0  0  0  0  0  0  0  0  0  0
    8.5212  -13.2505   19.1378 C   0  0  0  0  0  0  0  0  0  0  0  0
    9.7076  -13.6051   19.1231 O   0  0  0  0  0  0  0  0  0  0  0  0
    7.8291  -12.9458   20.4112 C   0  0  0  0  0  0  0  0  0  0  0  0
    6.6484  -13.8047   20.6347 C   0  0  0  0  0  0  0  0  0  0  0  0
    7.0138  -15.2799   20.9532 C   0  0  2  0  0  0  0  0  0  0  0  0
    5.6830  -15.9015   20.9822 N   0  0  0  0  0  0  0  0  0  0  0  0
    7.6423  -15.2976   22.2972 C   0  0  0  0  0  0  0  0  0  0  0  0
    7.0346  -14.6573   23.2049 O   0  0  0  0  0  0  0  0  0  0  0  0
    8.1917  -19.5764   26.1010 N   0  0  0  0  0  0  0  0  0  0  0  0
    7.2566  -18.7694   25.3762 C   0  0  0  0  0  0  0  0  0  0  0  0
    6.0610  -19.1849   25.3298 O   0  0  0  0  0  0  0  0  0  0  0  0
    7.6112  -17.5113   24.7047 C   0  0  0  0  0  0  0  0  0  0  0  0
    9.0550  -17.1429   24.7359 C   0  0  0  0  0  0  0  0  0  0  0  0
    9.4334  -15.8899   23.9778 C   0  0  2  0  0  0  0  0  0  0  0  0
    8.8282  -15.9653   22.6266 N   0  0  0  0  0  0  0  0  0  0  0  0
   10.7869  -15.4784   23.8789 C   0  0  0  0  0  0  0  0  0  0  0  0
   11.4845  -15.2671   22.8374 O   0  0  0  0  0  0  0  0  0  0  0  0
   11.5217  -15.2580   25.0723 O   0  0  0  0  0  0  0  0  0  0  0  0
  2  1  1  0
  2  3  1  0
  3  4  1  1
  5  3  1  0
  5  6  2  0
  8  7  1  0
  8 10  1  0
  9  8  2  0
 11 10  1  0
 12 11  1  1
 13 12  1  0
 13  5  1  0
 14 15  2  0
 14 12  1  0
 16 17  1  0
 17 19  1  0
 18 17  2  0
 19 20  1  0
 21 20  1  6
 21 22  1  0
 21 23  1  0
 22 14  1  0
 23 25  1  0
 24 23  2  0
M  END
$$$$
