SQQ.pdb
     RDKit          3D

 25 24  0  0  1  0  0  0  0  0999 V2000
    3.7658  -18.4608   23.1871 O   0  0  0  0  0  0  0  0  0  0  0  0
    4.0336  -17.2332   22.5758 C   0  0  0  0  0  0  0  0  0  0  0  0
    4.7618  -17.4562   21.2692 C   0  0  2  0  0  0  0  0  0  0  0  0
    4.8452  -18.8393   20.9244 N   0  0  0  0  0  0  0  0  0  0  0  0
    6.0872  -16.8285   21.2603 C   0  0  0  0  0  0  0  0  0  0  0  0
    7.1554  -17.5254   21.1733 O   0  0  0  0  0  0  0  0  0  0  0  0
    8.8982  -12.3367   18.1644 N   0  0  0  0  0  0  0  0  0  0  0  0
    8.3237  -13.4413   18.8281 C   0  0  0  0  0  0  0  0  0  0  0  0
    8.7640  -14.5921   18.7050 O   0  0  0  0  0  0  0  0  0  0  0  0
    7.1567  -13.1569   19.6946 C   0  0  0  0  0  0  0  0  0  0  0  0
    7.4354  -13.4101   21.1227 C   0  0  0  0  0  0  0  0  0  0  0  0
    7.6451  -14.9135   21.4501 C   0  0  2  0  0  0  0  0  0  0  0  0
    6.2704  -15.4207   21.3452 N   0  0  0  0  0  0  0  0  0  0  0  0
    8.1407  -14.9952   22.8463 C   0  0  0  0  0  0  0  0  0  0  0  0
    7.2737  -14.8371   23.7554 O   0  0  0  0  0  0  0  0  0  0  0  0
    7.6999  -19.5553   25.3324 N   0  0  0  0  0  0  0  0  0  0  0  0
    8.5058  -18.9299   26.3376 C   0  0  0  0  0  0  0  0  0  0  0  0
    8.5927  -19.5268   27.4514 O   0  0  0  0  0  0  0  0  0  0  0  0
    9.2214  -17.6619   26.1392 C   0  0  0  0  0  0  0  0  0  0  0  0
    8.9561  -16.9609   24.8510 C   0  0  0  0  0  0  0  0  0  0  0  0
    9.8329  -15.7638   24.5577 C   0  0  2  0  0  0  0  0  0  0  0  0
    9.4680  -15.2386   23.2203 N   0  0  0  0  0  0  0  0  0  0  0  0
   11.2437  -15.8470   24.6758 C   0  0  0  0  0  0  0  0  0  0  0  0
   12.1072  -16.1080   23.7802 O   0  0  0  0  0  0  0  0  0  0  0  0
   11.8363  -15.6212   25.9450 O   0  0  0  0  0  0  0  0  0  0  0  0
  2  1  1  0
  2  3  1  0
  3  4  1  1
  5  3  1  0
  5  6  2  0
  8  7  1  0
  8 10  1  0
  9  8  2  0
 11 10  1  0
 12 11  1  1
 13 12  1  0
 13  5  1  0
 14 15  2  0
 14 12  1  0
 16 17  1  0
 17 19  1  0
 18 17  2  0
 19 20  1  0
 21 20  1  6
 21 22  1  0
 21 23  1  0
 22 14  1  0
 23 25  1  0
 24 23  2  0
M  END
$$$$
