SQQ.pdb
     RDKit          3D

 25 24  0  0  1  0  0  0  0  0999 V2000
    7.7658  -16.3347   19.5736 O   0  0  0  0  0  0  0  0  0  0  0  0
    7.9861  -15.1142   18.9300 C   0  0  0  0  0  0  0  0  0  0  0  0
    7.5164  -13.9762   19.8084 C   0  0  2  0  0  0  0  0  0  0  0  0
    7.5773  -12.7154   19.1408 N   0  0  0  0  0  0  0  0  0  0  0  0
    8.2330  -13.9322   21.0872 C   0  0  0  0  0  0  0  0  0  0  0  0
    9.3775  -13.3723   21.1922 O   0  0  0  0  0  0  0  0  0  0  0  0
    5.7140  -13.4783   26.4904 N   0  0  0  0  0  0  0  0  0  0  0  0
    6.3411  -12.3673   25.8875 C   0  0  0  0  0  0  0  0  0  0  0  0
    6.0716  -11.2008   26.2035 O   0  0  0  0  0  0  0  0  0  0  0  0
    7.3539  -12.6645   24.8485 C   0  0  0  0  0  0  0  0  0  0  0  0
    7.4737  -14.1100   24.5702 C   0  0  0  0  0  0  0  0  0  0  0  0
    8.5398  -14.4412   23.4908 C   0  0  2  0  0  0  0  0  0  0  0  0
    7.7088  -14.5007   22.2807 N   0  0  0  0  0  0  0  0  0  0  0  0
    9.1013  -15.7743   23.8208 C   0  0  0  0  0  0  0  0  0  0  0  0
    8.3316  -16.7633   23.6400 O   0  0  0  0  0  0  0  0  0  0  0  0
   10.6485  -13.9692   29.0767 N   0  0  0  0  0  0  0  0  0  0  0  0
   10.8852  -15.3814   29.0507 C   0  0  0  0  0  0  0  0  0  0  0  0
   11.4814  -15.8780   30.0518 O   0  0  0  0  0  0  0  0  0  0  0  0
   10.4745  -16.2587   27.9456 C   0  0  0  0  0  0  0  0  0  0  0  0
   11.0946  -15.9693   26.6216 C   0  0  0  0  0  0  0  0  0  0  0  0
   10.6636  -16.8639   25.4807 C   0  0  2  0  0  0  0  0  0  0  0  0
   10.3963  -16.0107   24.2982 N   0  0  0  0  0  0  0  0  0  0  0  0
    9.6135  -17.8025   25.6468 C   0  0  0  0  0  0  0  0  0  0  0  0
    8.3733  -17.6664   25.4033 O   0  0  0  0  0  0  0  0  0  0  0  0
    9.9239  -19.0903   26.1548 O   0  0  0  0  0  0  0  0  0  0  0  0
  2  1  1  0
  2  3  1  0
  3  4  1  6
  5  3  1  0
  5  6  2  0
  8  7  1  0
  8 10  1  0
  9  8  2  0
 11 10  1  0
 12 11  1  1
 13 12  1  0
 13  5  1  0
 14 15  2  0
 14 12  1  0
 16 17  1  0
 17 19  1  0
 18 17  2  0
 19 20  1  0
 21 20  1  1
 21 22  1  0
 21 23  1  0
 22 14  1  0
 23 25  1  0
 24 23  2  0
M  END
$$$$
