SQQ.pdb
     RDKit          3D

 25 24  0  0  1  0  0  0  0  0999 V2000
   11.0846  -23.9478   13.7274 O   0  0  0  0  0  0  0  0  0  0  0  0
   10.7056  -23.8547   15.0691 C   0  0  0  0  0  0  0  0  0  0  0  0
   11.6721  -22.9637   15.8170 C   0  0  2  0  0  0  0  0  0  0  0  0
   13.0243  -23.4049   15.6910 N   0  0  0  0  0  0  0  0  0  0  0  0
   11.2984  -22.8015   17.2257 C   0  0  0  0  0  0  0  0  0  0  0  0
   11.9765  -22.0590   18.0152 O   0  0  0  0  0  0  0  0  0  0  0  0
    5.6547  -23.1544   19.2784 N   0  0  0  0  0  0  0  0  0  0  0  0
    6.2697  -22.9076   20.5240 C   0  0  0  0  0  0  0  0  0  0  0  0
    5.6200  -22.6383   21.5432 O   0  0  0  0  0  0  0  0  0  0  0  0
    7.7481  -22.9912   20.5585 C   0  0  0  0  0  0  0  0  0  0  0  0
    8.3335  -23.2372   19.2250 C   0  0  0  0  0  0  0  0  0  0  0  0
    9.8858  -23.2006   19.2197 C   0  0  2  0  0  0  0  0  0  0  0  0
   10.1703  -23.4497   17.8001 N   0  0  0  0  0  0  0  0  0  0  0  0
   10.3557  -24.3257   20.0653 C   0  0  0  0  0  0  0  0  0  0  0  0
   10.5678  -25.4214   19.4672 O   0  0  0  0  0  0  0  0  0  0  0  0
   16.5705  -24.6304   20.5870 N   0  0  0  0  0  0  0  0  0  0  0  0
   15.4731  -24.0951   21.3355 C   0  0  0  0  0  0  0  0  0  0  0  0
   15.5239  -22.8615   21.6181 O   0  0  0  0  0  0  0  0  0  0  0  0
   14.3186  -24.8906   21.7755 C   0  0  0  0  0  0  0  0  0  0  0  0
   12.9941  -24.4633   21.2422 C   0  0  0  0  0  0  0  0  0  0  0  0
   11.7921  -24.8414   22.0788 C   0  0  2  0  0  0  0  0  0  0  0  0
   10.5848  -24.2595   21.4451 N   0  0  0  0  0  0  0  0  0  0  0  0
   11.7700  -24.5973   23.4756 C   0  0  0  0  0  0  0  0  0  0  0  0
   11.9689  -25.4100   24.4327 O   0  0  0  0  0  0  0  0  0  0  0  0
   11.4894  -23.2844   23.9342 O   0  0  0  0  0  0  0  0  0  0  0  0
  2  1  1  0
  2  3  1  0
  3  4  1  1
  5  3  1  0
  5  6  2  0
  8  7  1  0
  8 10  1  0
  9  8  2  0
 11 10  1  0
 12 11  1  6
 13 12  1  0
 13  5  1  0
 14 15  2  0
 14 12  1  0
 16 17  1  0
 17 19  1  0
 18 17  2  0
 19 20  1  0
 21 20  1  6
 21 22  1  0
 21 23  1  0
 22 14  1  0
 23 25  1  0
 24 23  2  0
M  END
$$$$
