SQQ.pdb
     RDKit          3D

 25 24  0  0  1  0  0  0  0  0999 V2000
    4.9596  -19.8547   20.5368 O   0  0  0  0  0  0  0  0  0  0  0  0
    4.1412  -20.3401   21.5601 C   0  0  0  0  0  0  0  0  0  0  0  0
    3.4718  -19.1877   22.2751 C   0  0  2  0  0  0  0  0  0  0  0  0
    2.4942  -18.5392   21.4610 N   0  0  0  0  0  0  0  0  0  0  0  0
    4.4435  -18.2242   22.8025 C   0  0  0  0  0  0  0  0  0  0  0  0
    4.6059  -17.0766   22.2632 O   0  0  0  0  0  0  0  0  0  0  0  0
    7.8510  -19.1894   27.8521 N   0  0  0  0  0  0  0  0  0  0  0  0
    8.3225  -17.8923   27.5586 C   0  0  0  0  0  0  0  0  0  0  0  0
    9.1694  -17.3201   28.2575 O   0  0  0  0  0  0  0  0  0  0  0  0
    7.7537  -17.2395   26.3569 C   0  0  0  0  0  0  0  0  0  0  0  0
    6.6945  -18.0479   25.7199 C   0  0  0  0  0  0  0  0  0  0  0  0
    6.1936  -17.4540   24.3755 C   0  0  2  0  0  0  0  0  0  0  0  0
    5.2585  -18.4981   23.9353 N   0  0  0  0  0  0  0  0  0  0  0  0
    7.3649  -17.3675   23.4687 C   0  0  0  0  0  0  0  0  0  0  0  0
    7.7865  -18.4643   22.9970 O   0  0  0  0  0  0  0  0  0  0  0  0
    8.1567  -11.7668   19.8277 N   0  0  0  0  0  0  0  0  0  0  0  0
    8.3988  -13.1779   19.8619 C   0  0  0  0  0  0  0  0  0  0  0  0
    8.3684  -13.7885   18.7526 O   0  0  0  0  0  0  0  0  0  0  0  0
    8.6779  -13.9295   21.0934 C   0  0  0  0  0  0  0  0  0  0  0  0
    8.8012  -15.4068   20.9390 C   0  0  0  0  0  0  0  0  0  0  0  0
    9.1840  -16.1715   22.1866 C   0  0  2  0  0  0  0  0  0  0  0  0
    8.0158  -16.1840   23.0992 N   0  0  0  0  0  0  0  0  0  0  0  0
   10.3591  -15.8450   22.9102 C   0  0  0  0  0  0  0  0  0  0  0  0
   10.4775  -15.4893   24.1248 O   0  0  0  0  0  0  0  0  0  0  0  0
   11.6092  -15.9002   22.2415 O   0  0  0  0  0  0  0  0  0  0  0  0
  2  1  1  0
  2  3  1  0
  3  4  1  6
  5  3  1  0
  5  6  2  0
  8  7  1  0
  8 10  1  0
  9  8  2  0
 11 10  1  0
 12 11  1  1
 13 12  1  0
 13  5  1  0
 14 15  2  0
 14 12  1  0
 16 17  1  0
 17 19  1  0
 18 17  2  0
 19 20  1  0
 21 20  1  6
 21 22  1  0
 21 23  1  0
 22 14  1  0
 23 25  1  0
 24 23  2  0
M  END
$$$$
