FNV.pdb
     RDKit          3D

 27 27  0  0  1  0  0  0  0  0999 V2000
    5.9788  -18.1984   21.7722 N   0  0  0  0  0  0  0  0  0  0  0  0
    6.8876  -17.0668   21.7674 C   0  0  1  0  0  0  0  0  0  0  0  0
    5.9970  -15.8246   21.9022 C   0  0  0  0  0  0  0  0  0  0  0  0
    6.7967  -14.6140   21.6595 C   0  0  0  0  0  0  0  0  0  0  0  0
    7.1167  -13.7096   22.6453 C   0  0  0  0  0  0  0  0  0  0  0  0
    7.8701  -12.5834   22.3831 C   0  0  0  0  0  0  0  0  0  0  0  0
    8.3128  -12.3580   21.1059 C   0  0  0  0  0  0  0  0  0  0  0  0
    8.0067  -13.2435   20.1110 C   0  0  0  0  0  0  0  0  0  0  0  0
    7.2531  -14.3660   20.3838 C   0  0  0  0  0  0  0  0  0  0  0  0
    7.7650  -17.1216   22.9622 C   0  0  0  0  0  0  0  0  0  0  0  0
    7.2582  -17.3670   24.0854 O   0  0  0  0  0  0  0  0  0  0  0  0
   11.5513  -19.1978   21.5667 N   0  0  0  0  0  0  0  0  0  0  0  0
   11.2584  -18.9295   22.9147 C   0  0  0  0  0  0  0  0  0  0  0  0
   10.8747  -19.9330   23.6063 O   0  0  0  0  0  0  0  0  0  0  0  0
   11.3391  -17.6473   23.6202 C   0  0  0  0  0  0  0  0  0  0  0  0
   10.0229  -17.0817   24.0719 C   0  0  2  0  0  0  0  0  0  0  0  0
    9.1640  -16.9120   22.9250 N   0  0  0  0  0  0  0  0  0  0  0  0
   10.2750  -15.8198   24.8080 C   0  0  0  0  0  0  0  0  0  0  0  0
   11.1365  -14.9997   24.3976 O   0  0  0  0  0  0  0  0  0  0  0  0
    7.6088  -14.5487   27.7148 C   0  0  0  0  0  0  0  0  0  0  0  0
    8.8017  -13.7337   27.3175 C   0  0  2  0  0  0  0  0  0  0  0  0
    8.5212  -12.8961   26.0893 C   0  0  0  0  0  0  0  0  0  0  0  0
   10.0162  -14.5960   27.0041 C   0  0  2  0  0  0  0  0  0  0  0  0
    9.5497  -15.5314   25.9735 N   0  0  0  0  0  0  0  0  0  0  0  0
   10.3453  -15.3112   28.2636 C   0  0  0  0  0  0  0  0  0  0  0  0
   10.0359  -16.5398   28.3330 O   0  0  0  0  0  0  0  0  0  0  0  0
   10.9537  -14.7313   29.3378 O   0  0  0  0  0  0  0  0  0  0  0  0
  2  1  1  1
  3  4  1  0
  3  2  1  0
  4  9  2  0
  5  6  2  0
  5  4  1  0
  6  7  1  0
  7  8  2  0
  9  8  1  0
 10 11  2  0
 10  2  1  0
 12 13  1  0
 13 15  1  0
 13 14  2  0
 16 15  1  6
 16 18  1  0
 16 17  1  0
 17 10  1  0
 18 19  2  0
 21 20  1  6
 22 21  1  0
 23 21  1  0
 23 24  1  6
 24 18  1  0
 25 27  1  0
 25 23  1  0
 26 25  2  0
M  END
$$$$
