FNV.pdb
     RDKit          3D

 27 27  0  0  1  0  0  0  0  0999 V2000
    8.2121  -17.7691   26.9697 N   0  0  0  0  0  0  0  0  0  0  0  0
    7.4984  -16.9021   26.0502 C   0  0  1  0  0  0  0  0  0  0  0  0
    8.5293  -15.8687   25.5769 C   0  0  0  0  0  0  0  0  0  0  0  0
    8.6869  -14.8232   26.5997 C   0  0  0  0  0  0  0  0  0  0  0  0
    9.7013  -14.8219   27.5288 C   0  0  0  0  0  0  0  0  0  0  0  0
    9.8202  -13.8242   28.4750 C   0  0  0  0  0  0  0  0  0  0  0  0
    8.9034  -12.8059   28.4912 C   0  0  0  0  0  0  0  0  0  0  0  0
    7.8875  -12.7872   27.5774 C   0  0  0  0  0  0  0  0  0  0  0  0
    7.7777  -13.7891   26.6359 C   0  0  0  0  0  0  0  0  0  0  0  0
    7.0630  -17.6777   24.8632 C   0  0  0  0  0  0  0  0  0  0  0  0
    7.7770  -18.6274   24.4545 O   0  0  0  0  0  0  0  0  0  0  0  0
    4.2221  -19.5559   20.6893 N   0  0  0  0  0  0  0  0  0  0  0  0
    3.6199  -18.4832   21.3686 C   0  0  0  0  0  0  0  0  0  0  0  0
    2.4718  -18.1293   20.9334 O   0  0  0  0  0  0  0  0  0  0  0  0
    4.1441  -17.7255   22.5085 C   0  0  0  0  0  0  0  0  0  0  0  0
    5.5771  -18.0076   22.8596 C   0  0  2  0  0  0  0  0  0  0  0  0
    5.8735  -17.4172   24.1424 N   0  0  0  0  0  0  0  0  0  0  0  0
    6.4427  -17.5025   21.7672 C   0  0  0  0  0  0  0  0  0  0  0  0
    6.6546  -18.2012   20.7424 O   0  0  0  0  0  0  0  0  0  0  0  0
    8.1560  -13.5753   22.2086 C   0  0  0  0  0  0  0  0  0  0  0  0
    7.6500  -14.1561   20.9234 C   0  0  2  0  0  0  0  0  0  0  0  0
    6.1630  -13.9327   20.7573 C   0  0  0  0  0  0  0  0  0  0  0  0
    7.8911  -15.6561   20.8291 C   0  0  2  0  0  0  0  0  0  0  0  0
    7.0340  -16.2347   21.8707 N   0  0  0  0  0  0  0  0  0  0  0  0
    9.3277  -15.8596   21.1467 C   0  0  0  0  0  0  0  0  0  0  0  0
    9.6088  -16.3454   22.2847 O   0  0  0  0  0  0  0  0  0  0  0  0
   10.3509  -15.5584   20.2966 O   0  0  0  0  0  0  0  0  0  0  0  0
  2  1  1  1
  3  4  1  0
  3  2  1  0
  4  9  2  0
  5  6  2  0
  5  4  1  0
  6  7  1  0
  7  8  2  0
  9  8  1  0
 10 11  2  0
 10  2  1  0
 12 13  1  0
 13 15  1  0
 13 14  2  0
 16 15  1  6
 16 18  1  0
 16 17  1  0
 17 10  1  0
 18 19  2  0
 21 20  1  1
 22 21  1  0
 23 21  1  0
 23 24  1  1
 24 18  1  0
 25 27  1  0
 25 23  1  0
 26 25  2  0
M  END
$$$$
