FNV.pdb
     RDKit          3D

 27 27  0  0  1  0  0  0  0  0999 V2000
    5.5750  -17.5916   24.3868 N   0  0  0  0  0  0  0  0  0  0  0  0
    6.3921  -16.4157   24.6240 C   0  0  1  0  0  0  0  0  0  0  0  0
    6.2403  -16.1055   26.1191 C   0  0  0  0  0  0  0  0  0  0  0  0
    6.5275  -14.6831   26.3606 C   0  0  0  0  0  0  0  0  0  0  0  0
    7.7637  -14.1162   26.1540 C   0  0  0  0  0  0  0  0  0  0  0  0
    7.9987  -12.7769   26.3903 C   0  0  0  0  0  0  0  0  0  0  0  0
    6.9737  -11.9882   26.8433 C   0  0  0  0  0  0  0  0  0  0  0  0
    5.7374  -12.5306   27.0554 C   0  0  0  0  0  0  0  0  0  0  0  0
    5.5130  -13.8702   26.8161 C   0  0  0  0  0  0  0  0  0  0  0  0
    7.8187  -16.7362   24.3748 C   0  0  0  0  0  0  0  0  0  0  0  0
    8.2929  -17.8120   24.8180 O   0  0  0  0  0  0  0  0  0  0  0  0
    9.0412  -14.2085   20.5469 N   0  0  0  0  0  0  0  0  0  0  0  0
    9.6602  -15.3468   21.0912 C   0  0  0  0  0  0  0  0  0  0  0  0
    9.3876  -16.4529   20.5124 O   0  0  0  0  0  0  0  0  0  0  0  0
   10.5748  -15.4199   22.2341 C   0  0  0  0  0  0  0  0  0  0  0  0
   10.0819  -16.2331   23.3969 C   0  0  2  0  0  0  0  0  0  0  0  0
    8.7031  -15.8964   23.6570 N   0  0  0  0  0  0  0  0  0  0  0  0
   10.9733  -15.9933   24.5569 C   0  0  0  0  0  0  0  0  0  0  0  0
   12.2224  -16.0817   24.4343 O   0  0  0  0  0  0  0  0  0  0  0  0
    9.2384  -14.4537   28.1010 C   0  0  0  0  0  0  0  0  0  0  0  0
   10.6872  -14.3277   27.7402 C   0  0  2  0  0  0  0  0  0  0  0  0
   10.9330  -13.1523   26.8201 C   0  0  0  0  0  0  0  0  0  0  0  0
   11.2203  -15.5673   27.0358 C   0  0  2  0  0  0  0  0  0  0  0  0
   10.4255  -15.6644   25.8056 N   0  0  0  0  0  0  0  0  0  0  0  0
   10.9372  -16.7072   27.9450 C   0  0  0  0  0  0  0  0  0  0  0  0
   10.0480  -17.5355   27.5800 O   0  0  0  0  0  0  0  0  0  0  0  0
   11.5698  -16.9136   29.1356 O   0  0  0  0  0  0  0  0  0  0  0  0
  2  1  1  1
  3  4  1  0
  3  2  1  0
  4  9  2  0
  5  6  2  0
  5  4  1  0
  6  7  1  0
  7  8  2  0
  9  8  1  0
 10 11  2  0
 10  2  1  0
 12 13  1  0
 13 15  1  0
 13 14  2  0
 16 15  1  6
 16 18  1  0
 16 17  1  0
 17 10  1  0
 18 19  2  0
 21 20  1  6
 22 21  1  0
 23 21  1  0
 23 24  1  6
 24 18  1  0
 25 27  1  0
 25 23  1  0
 26 25  2  0
M  END
$$$$
