FNV.pdb
     RDKit          3D

 27 27  0  0  1  0  0  0  0  0999 V2000
    5.7088  -18.2082   20.7828 N   0  0  0  0  0  0  0  0  0  0  0  0
    6.6109  -17.1322   21.1499 C   0  0  1  0  0  0  0  0  0  0  0  0
    5.8014  -15.8404   20.9749 C   0  0  0  0  0  0  0  0  0  0  0  0
    6.6932  -14.6772   21.0993 C   0  0  0  0  0  0  0  0  0  0  0  0
    7.4829  -14.2171   20.0712 C   0  0  0  0  0  0  0  0  0  0  0  0
    8.3085  -13.1215   20.2219 C   0  0  0  0  0  0  0  0  0  0  0  0
    8.3442  -12.4725   21.4284 C   0  0  0  0  0  0  0  0  0  0  0  0
    7.5679  -12.9125   22.4635 C   0  0  0  0  0  0  0  0  0  0  0  0
    6.7462  -14.0084   22.3023 C   0  0  0  0  0  0  0  0  0  0  0  0
    6.9710  -17.2451   22.5844 C   0  0  0  0  0  0  0  0  0  0  0  0
    6.0609  -17.4110   23.4347 O   0  0  0  0  0  0  0  0  0  0  0  0
   11.0808  -19.1116   26.5775 N   0  0  0  0  0  0  0  0  0  0  0  0
    9.8000  -18.8373   26.0685 C   0  0  0  0  0  0  0  0  0  0  0  0
    8.8549  -18.8278   26.9284 O   0  0  0  0  0  0  0  0  0  0  0  0
    9.4179  -18.5622   24.6805 C   0  0  0  0  0  0  0  0  0  0  0  0
    8.6348  -17.2975   24.4712 C   0  0  2  0  0  0  0  0  0  0  0  0
    8.2972  -17.1777   23.0735 N   0  0  0  0  0  0  0  0  0  0  0  0
    9.4300  -16.1556   24.9827 C   0  0  0  0  0  0  0  0  0  0  0  0
   10.5943  -15.9431   24.5554 O   0  0  0  0  0  0  0  0  0  0  0  0
    7.4425  -13.5933   27.6064 C   0  0  0  0  0  0  0  0  0  0  0  0
    8.6667  -13.1331   26.8752 C   0  0  2  0  0  0  0  0  0  0  0  0
    8.3227  -12.5524   25.5212 C   0  0  0  0  0  0  0  0  0  0  0  0
    9.6610  -14.2612   26.6395 C   0  0  2  0  0  0  0  0  0  0  0  0
    8.8853  -15.3004   25.9519 N   0  0  0  0  0  0  0  0  0  0  0  0
   10.0874  -14.7179   27.9870 C   0  0  0  0  0  0  0  0  0  0  0  0
    9.6389  -15.8336   28.3921 O   0  0  0  0  0  0  0  0  0  0  0  0
   10.9233  -14.0165   28.8053 O   0  0  0  0  0  0  0  0  0  0  0  0
  2  1  1  1
  3  4  1  0
  3  2  1  0
  4  9  2  0
  5  6  2  0
  5  4  1  0
  6  7  1  0
  7  8  2  0
  9  8  1  0
 10 11  2  0
 10  2  1  0
 12 13  1  0
 13 15  1  0
 13 14  2  0
 16 15  1  6
 16 18  1  0
 16 17  1  0
 17 10  1  0
 18 19  2  0
 21 20  1  6
 22 21  1  0
 23 21  1  0
 23 24  1  1
 24 18  1  0
 25 27  1  0
 25 23  1  0
 26 25  2  0
M  END
$$$$
