FNV.pdb
     RDKit          3D

 27 27  0  0  1  0  0  0  0  0999 V2000
    6.7181  -18.2674   20.2465 N   0  0  0  0  0  0  0  0  0  0  0  0
    7.3907  -17.0349   20.6139 C   0  0  1  0  0  0  0  0  0  0  0  0
    6.3234  -15.9375   20.5074 C   0  0  0  0  0  0  0  0  0  0  0  0
    6.9330  -14.6268   20.7798 C   0  0  0  0  0  0  0  0  0  0  0  0
    6.8009  -13.9667   21.9795 C   0  0  0  0  0  0  0  0  0  0  0  0
    7.3871  -12.7372   22.2019 C   0  0  0  0  0  0  0  0  0  0  0  0
    8.1215  -12.1561   21.2014 C   0  0  0  0  0  0  0  0  0  0  0  0
    8.2658  -12.7942   20.0016 C   0  0  0  0  0  0  0  0  0  0  0  0
    7.6758  -14.0227   19.7896 C   0  0  0  0  0  0  0  0  0  0  0  0
    7.8252  -17.1022   22.0306 C   0  0  0  0  0  0  0  0  0  0  0  0
    6.9757  -17.3515   22.9222 O   0  0  0  0  0  0  0  0  0  0  0  0
   11.3630  -19.8523   22.4206 N   0  0  0  0  0  0  0  0  0  0  0  0
   10.8041  -19.1968   23.5309 C   0  0  0  0  0  0  0  0  0  0  0  0
   10.1450  -19.9389   24.3355 O   0  0  0  0  0  0  0  0  0  0  0  0
   10.8846  -17.7748   23.8770 C   0  0  0  0  0  0  0  0  0  0  0  0
    9.5806  -17.0306   23.8319 C   0  0  2  0  0  0  0  0  0  0  0  0
    9.1590  -16.9007   22.4580 N   0  0  0  0  0  0  0  0  0  0  0  0
    9.7523  -15.7280   24.5185 C   0  0  0  0  0  0  0  0  0  0  0  0
   10.7214  -14.9771   24.2352 O   0  0  0  0  0  0  0  0  0  0  0  0
    6.8477  -13.3336   25.5785 C   0  0  0  0  0  0  0  0  0  0  0  0
    7.6631  -13.7131   26.7769 C   0  0  2  0  0  0  0  0  0  0  0  0
    7.8328  -12.5488   27.7279 C   0  0  0  0  0  0  0  0  0  0  0  0
    9.0583  -14.1926   26.4021 C   0  0  2  0  0  0  0  0  0  0  0  0
    8.8295  -15.3229   25.4941 N   0  0  0  0  0  0  0  0  0  0  0  0
    9.6886  -14.6451   27.6687 C   0  0  0  0  0  0  0  0  0  0  0  0
    9.6234  -15.8827   27.9411 O   0  0  0  0  0  0  0  0  0  0  0  0
   10.3261  -13.8180   28.5460 O   0  0  0  0  0  0  0  0  0  0  0  0
  2  1  1  1
  3  4  1  0
  3  2  1  0
  4  9  2  0
  5  6  2  0
  5  4  1  0
  6  7  1  0
  7  8  2  0
  9  8  1  0
 10 11  2  0
 10  2  1  0
 12 13  1  0
 13 15  1  0
 13 14  2  0
 16 15  1  6
 16 18  1  0
 16 17  1  0
 17 10  1  0
 18 19  2  0
 21 20  1  6
 22 21  1  0
 23 21  1  0
 23 24  1  6
 24 18  1  0
 25 27  1  0
 25 23  1  0
 26 25  2  0
M  END
$$$$
