FNV.pdb
     RDKit          3D

 27 27  0  0  1  0  0  0  0  0999 V2000
    7.4612  -16.2679   21.3611 N   0  0  0  0  0  0  0  0  0  0  0  0
    7.8968  -15.4247   22.4591 C   0  0  1  0  0  0  0  0  0  0  0  0
    6.6558  -15.2230   23.3389 C   0  0  0  0  0  0  0  0  0  0  0  0
    6.8981  -14.1292   24.2923 C   0  0  0  0  0  0  0  0  0  0  0  0
    7.6065  -12.9935   23.9753 C   0  0  0  0  0  0  0  0  0  0  0  0
    7.8149  -11.9855   24.8946 C   0  0  0  0  0  0  0  0  0  0  0  0
    7.3027  -12.1175   26.1588 C   0  0  0  0  0  0  0  0  0  0  0  0
    6.5956  -13.2375   26.4954 C   0  0  0  0  0  0  0  0  0  0  0  0
    6.3931  -14.2391   25.5691 C   0  0  0  0  0  0  0  0  0  0  0  0
    8.9109  -16.1405   23.2711 C   0  0  0  0  0  0  0  0  0  0  0  0
    8.5711  -17.1655   23.9136 O   0  0  0  0  0  0  0  0  0  0  0  0
   11.2873  -17.8993   21.2660 N   0  0  0  0  0  0  0  0  0  0  0  0
   12.2437  -16.9887   21.7465 C   0  0  0  0  0  0  0  0  0  0  0  0
   12.9828  -16.4445   20.8575 O   0  0  0  0  0  0  0  0  0  0  0  0
   12.4956  -16.5890   23.1340 C   0  0  0  0  0  0  0  0  0  0  0  0
   11.2808  -16.5403   24.0162 C   0  0  2  0  0  0  0  0  0  0  0  0
   10.2644  -15.7411   23.3756 N   0  0  0  0  0  0  0  0  0  0  0  0
   11.6802  -16.0246   25.3474 C   0  0  0  0  0  0  0  0  0  0  0  0
   12.8661  -15.6653   25.5661 O   0  0  0  0  0  0  0  0  0  0  0  0
    8.7136  -15.0830   28.1003 C   0  0  0  0  0  0  0  0  0  0  0  0
   10.1566  -14.7702   28.3553 C   0  0  2  0  0  0  0  0  0  0  0  0
   10.5609  -13.4531   27.7304 C   0  0  0  0  0  0  0  0  0  0  0  0
   11.0894  -15.8359   27.7975 C   0  0  2  0  0  0  0  0  0  0  0  0
   10.7320  -15.9336   26.3771 N   0  0  0  0  0  0  0  0  0  0  0  0
   10.7544  -17.0901   28.5192 C   0  0  0  0  0  0  0  0  0  0  0  0
   10.0586  -17.9505   27.8982 O   0  0  0  0  0  0  0  0  0  0  0  0
   11.1465  -17.3682   29.7956 O   0  0  0  0  0  0  0  0  0  0  0  0
  2  1  1  6
  3  4  1  0
  3  2  1  0
  4  9  2  0
  5  6  2  0
  5  4  1  0
  6  7  1  0
  7  8  2  0
  9  8  1  0
 10 11  2  0
 10  2  1  0
 12 13  1  0
 13 15  1  0
 13 14  2  0
 16 15  1  6
 16 18  1  0
 16 17  1  0
 17 10  1  0
 18 19  2  0
 21 20  1  6
 22 21  1  0
 23 21  1  0
 23 24  1  6
 24 18  1  0
 25 27  1  0
 25 23  1  0
 26 25  2  0
M  END
$$$$
