MEP.pdb
     RDKit          3D

 25 25  0  0  1  0  0  0  0  0999 V2000
    8.6399  -11.4551   20.2930 C   0  0  0  0  0  0  0  0  0  0  0  0
    8.5488  -13.1197   19.5958 S   0  0  0  0  0  0  0  0  0  0  0  0
    6.9263  -13.8208   19.9934 C   0  0  0  0  0  0  0  0  0  0  0  0
    6.8246  -15.2553   19.4728 C   0  0  0  0  0  0  0  0  0  0  0  0
    7.5368  -16.1481   20.4227 C   0  0  2  0  0  0  0  0  0  0  0  0
    7.4819  -17.5156   19.9986 N   0  0  0  0  0  0  0  0  0  0  0  0
    7.1100  -15.9955   21.8304 C   0  0  0  0  0  0  0  0  0  0  0  0
    5.8912  -15.9441   22.1145 O   0  0  0  0  0  0  0  0  0  0  0  0
    8.0223  -15.9002   22.9178 N   0  0  0  0  0  0  0  0  0  0  0  0
    7.6317  -16.0231   24.3218 C   0  0  1  0  0  0  0  0  0  0  0  0
    7.4564  -17.4429   24.7032 C   0  0  0  0  0  0  0  0  0  0  0  0
    6.9434  -17.6485   26.0811 C   0  0  0  0  0  0  0  0  0  0  0  0
    6.7564  -19.0745   26.4001 C   0  0  0  0  0  0  0  0  0  0  0  0
    6.1407  -19.9217   25.7232 O   0  0  0  0  0  0  0  0  0  0  0  0
    8.4278  -15.2321   25.2468 C   0  0  0  0  0  0  0  0  0  0  0  0
    9.6920  -15.4922   25.2981 O   0  0  0  0  0  0  0  0  0  0  0  0
    7.3233  -19.5538   27.5888 O   0  0  0  0  0  0  0  0  0  0  0  0
    8.0109  -14.1945   26.1204 N   0  0  0  0  0  0  0  0  0  0  0  0
    6.6908  -13.6694   26.2222 C   0  0  0  0  0  0  0  0  0  0  0  0
    6.7484  -12.6485   27.3587 C   0  0  0  0  0  0  0  0  0  0  0  0
    8.2213  -12.2091   27.3276 C   0  0  0  0  0  0  0  0  0  0  0  0
    8.8736  -13.5257   27.0542 C   0  0  1  0  0  0  0  0  0  0  0  0
    9.0838  -14.3107   28.2926 C   0  0  0  0  0  0  0  0  0  0  0  0
    8.4501  -15.3690   28.4564 O   0  0  0  0  0  0  0  0  0  0  0  0
    9.9653  -13.8667   29.2344 O   0  0  0  0  0  0  0  0  0  0  0  0
  2  3  1  0
  2  1  1  0
  4  3  1  0
  5  7  1  0
  5  4  1  0
  5  6  1  6
  7  8  2  0
  9 10  1  0
  9  7  1  0
 10 11  1  1
 11 12  1  0
 12 13  1  0
 13 14  2  0
 15 18  1  0
 15 10  1  0
 16 15  2  0
 17 13  1  0
 18 19  1  0
 19 20  1  0
 21 20  1  0
 22 21  1  0
 22 18  1  0
 22 23  1  1
 24 23  2  0
 25 23  1  0
M  END
$$$$
