MEP.pdb
     RDKit          3D

 25 25  0  0  1  0  0  0  0  0999 V2000
    8.2406  -12.5410   17.9411 C   0  0  0  0  0  0  0  0  0  0  0  0
    6.6943  -12.6944   18.8636 S   0  0  0  0  0  0  0  0  0  0  0  0
    6.7177  -14.2648   19.7666 C   0  0  0  0  0  0  0  0  0  0  0  0
    7.9689  -14.3569   20.6413 C   0  0  0  0  0  0  0  0  0  0  0  0
    7.9406  -15.6560   21.3611 C   0  0  2  0  0  0  0  0  0  0  0  0
    6.8949  -15.6904   22.3400 N   0  0  0  0  0  0  0  0  0  0  0  0
    9.2423  -16.0549   21.9385 C   0  0  0  0  0  0  0  0  0  0  0  0
    9.6928  -15.4575   22.9430 O   0  0  0  0  0  0  0  0  0  0  0  0
   10.0421  -17.1065   21.4108 N   0  0  0  0  0  0  0  0  0  0  0  0
   11.4979  -17.1648   21.5377 C   0  0  1  0  0  0  0  0  0  0  0  0
   11.9434  -18.5183   21.9394 C   0  0  0  0  0  0  0  0  0  0  0  0
   11.4844  -18.9398   23.2870 C   0  0  0  0  0  0  0  0  0  0  0  0
   11.9540  -20.2908   23.6393 C   0  0  0  0  0  0  0  0  0  0  0  0
   12.9903  -20.8553   23.2361 O   0  0  0  0  0  0  0  0  0  0  0  0
   12.2299  -16.5821   20.4242 C   0  0  0  0  0  0  0  0  0  0  0  0
   11.7804  -16.8278   19.2384 O   0  0  0  0  0  0  0  0  0  0  0  0
   11.1668  -21.0423   24.5223 O   0  0  0  0  0  0  0  0  0  0  0  0
   13.3907  -15.7663   20.4494 N   0  0  0  0  0  0  0  0  0  0  0  0
   14.0832  -15.3363   21.6175 C   0  0  0  0  0  0  0  0  0  0  0  0
   15.3017  -14.5681   21.1053 C   0  0  0  0  0  0  0  0  0  0  0  0
   14.8164  -14.0625   19.7369 C   0  0  0  0  0  0  0  0  0  0  0  0
   14.0531  -15.2628   19.2784 C   0  0  1  0  0  0  0  0  0  0  0  0
   14.9322  -16.2738   18.6469 C   0  0  0  0  0  0  0  0  0  0  0  0
   15.4529  -16.0232   17.5449 O   0  0  0  0  0  0  0  0  0  0  0  0
   15.1596  -17.4620   19.2774 O   0  0  0  0  0  0  0  0  0  0  0  0
  2  3  1  0
  2  1  1  0
  4  3  1  0
  5  7  1  0
  5  4  1  0
  5  6  1  1
  7  8  2  0
  9 10  1  0
  9  7  1  0
 10 11  1  6
 11 12  1  0
 12 13  1  0
 13 14  2  0
 15 18  1  0
 15 10  1  0
 16 15  2  0
 17 13  1  0
 18 19  1  0
 19 20  1  0
 21 20  1  0
 22 21  1  0
 22 18  1  0
 22 23  1  1
 24 23  2  0
 25 23  1  0
M  END
$$$$
