MEP.pdb
     RDKit          3D

 25 25  0  0  1  0  0  0  0  0999 V2000
    8.4139  -11.6924   20.3451 C   0  0  0  0  0  0  0  0  0  0  0  0
    7.8208  -12.6778   18.9513 S   0  0  0  0  0  0  0  0  0  0  0  0
    7.3763  -14.3251   19.5606 C   0  0  0  0  0  0  0  0  0  0  0  0
    8.6189  -15.0570   20.0699 C   0  0  0  0  0  0  0  0  0  0  0  0
    8.1820  -16.3114   20.7349 C   0  0  2  0  0  0  0  0  0  0  0  0
    7.3596  -17.1043   19.8701 N   0  0  0  0  0  0  0  0  0  0  0  0
    7.5470  -16.1057   22.0546 C   0  0  0  0  0  0  0  0  0  0  0  0
    6.3999  -15.6080   22.1284 O   0  0  0  0  0  0  0  0  0  0  0  0
    8.1738  -16.4469   23.2853 N   0  0  0  0  0  0  0  0  0  0  0  0
    7.6340  -16.0971   24.5987 C   0  0  1  0  0  0  0  0  0  0  0  0
    7.3190  -17.3111   25.3852 C   0  0  0  0  0  0  0  0  0  0  0  0
    6.7713  -18.4351   24.5847 C   0  0  0  0  0  0  0  0  0  0  0  0
    6.6159  -19.6643   25.3816 C   0  0  0  0  0  0  0  0  0  0  0  0
    7.5186  -20.3120   25.9480 O   0  0  0  0  0  0  0  0  0  0  0  0
    8.3863  -15.0789   25.3147 C   0  0  0  0  0  0  0  0  0  0  0  0
    9.6743  -15.1498   25.2467 O   0  0  0  0  0  0  0  0  0  0  0  0
    5.3219  -20.1806   25.5335 O   0  0  0  0  0  0  0  0  0  0  0  0
    7.9031  -13.9962   26.0942 N   0  0  0  0  0  0  0  0  0  0  0  0
    6.5579  -13.5292   26.1307 C   0  0  0  0  0  0  0  0  0  0  0  0
    6.5438  -12.4190   27.1816 C   0  0  0  0  0  0  0  0  0  0  0  0
    7.9949  -11.9127   27.1401 C   0  0  0  0  0  0  0  0  0  0  0  0
    8.7138  -13.2137   26.9853 C   0  0  1  0  0  0  0  0  0  0  0  0
    8.9348  -13.8859   28.2865 C   0  0  0  0  0  0  0  0  0  0  0  0
    8.3586  -14.9639   28.5194 O   0  0  0  0  0  0  0  0  0  0  0  0
    9.7633  -13.3183   29.2098 O   0  0  0  0  0  0  0  0  0  0  0  0
  2  3  1  0
  2  1  1  0
  4  3  1  0
  5  7  1  0
  5  4  1  0
  5  6  1  6
  7  8  2  0
  9 10  1  0
  9  7  1  0
 10 11  1  1
 11 12  1  0
 12 13  1  0
 13 14  2  0
 15 18  1  0
 15 10  1  0
 16 15  2  0
 17 13  1  0
 18 19  1  0
 19 20  1  0
 21 20  1  0
 22 21  1  0
 22 18  1  0
 22 23  1  1
 24 23  2  0
 25 23  1  0
M  END
$$$$
