MEP.pdb
     RDKit          3D

 25 25  0  0  1  0  0  0  0  0999 V2000
    8.8952  -11.3114   19.9394 C   0  0  0  0  0  0  0  0  0  0  0  0
    8.5472  -12.9438   19.2469 S   0  0  0  0  0  0  0  0  0  0  0  0
    7.2060  -13.6990   20.2026 C   0  0  0  0  0  0  0  0  0  0  0  0
    6.8726  -15.0847   19.6479 C   0  0  0  0  0  0  0  0  0  0  0  0
    7.4734  -16.1040   20.5461 C   0  0  2  0  0  0  0  0  0  0  0  0
    7.2076  -17.4334   20.0826 N   0  0  0  0  0  0  0  0  0  0  0  0
    7.1133  -15.9405   21.9711 C   0  0  0  0  0  0  0  0  0  0  0  0
    5.9261  -15.7081   22.2957 O   0  0  0  0  0  0  0  0  0  0  0  0
    8.0573  -16.0328   23.0314 N   0  0  0  0  0  0  0  0  0  0  0  0
    7.6890  -16.1575   24.4412 C   0  0  1  0  0  0  0  0  0  0  0  0
    7.6185  -17.5789   24.8492 C   0  0  0  0  0  0  0  0  0  0  0  0
    7.1158  -17.7963   26.2292 C   0  0  0  0  0  0  0  0  0  0  0  0
    7.0774  -19.2238   26.5908 C   0  0  0  0  0  0  0  0  0  0  0  0
    7.0940  -20.1973   25.8118 O   0  0  0  0  0  0  0  0  0  0  0  0
    8.4352  -15.2953   25.3440 C   0  0  0  0  0  0  0  0  0  0  0  0
    9.7211  -15.4166   25.3365 O   0  0  0  0  0  0  0  0  0  0  0  0
    7.0154  -19.5471   27.9531 O   0  0  0  0  0  0  0  0  0  0  0  0
    7.9476  -14.3198   26.2519 N   0  0  0  0  0  0  0  0  0  0  0  0
    6.5783  -13.9953   26.4723 C   0  0  0  0  0  0  0  0  0  0  0  0
    6.5840  -12.9623   27.5992 C   0  0  0  0  0  0  0  0  0  0  0  0
    7.9662  -12.3094   27.4358 C   0  0  0  0  0  0  0  0  0  0  0  0
    8.7806  -13.5180   27.1045 C   0  0  1  0  0  0  0  0  0  0  0  0
    9.2150  -14.2466   28.3187 C   0  0  0  0  0  0  0  0  0  0  0  0
    8.7698  -15.3884   28.5343 O   0  0  0  0  0  0  0  0  0  0  0  0
   10.0936  -13.6605   29.1821 O   0  0  0  0  0  0  0  0  0  0  0  0
  2  3  1  0
  2  1  1  0
  4  3  1  0
  5  7  1  0
  5  4  1  0
  5  6  1  6
  7  8  2  0
  9 10  1  0
  9  7  1  0
 10 11  1  1
 11 12  1  0
 12 13  1  0
 13 14  2  0
 15 18  1  0
 15 10  1  0
 16 15  2  0
 17 13  1  0
 18 19  1  0
 19 20  1  0
 21 20  1  0
 22 21  1  0
 22 18  1  0
 22 23  1  1
 24 23  2  0
 25 23  1  0
M  END
$$$$
