MEP.pdb
     RDKit          3D

 25 25  0  0  1  0  0  0  0  0999 V2000
    7.7930  -11.1465   26.0325 C   0  0  0  0  0  0  0  0  0  0  0  0
    6.1477  -11.8480   25.7754 S   0  0  0  0  0  0  0  0  0  0  0  0
    6.2714  -13.1627   24.5350 C   0  0  0  0  0  0  0  0  0  0  0  0
    7.2821  -12.7795   23.4529 C   0  0  0  0  0  0  0  0  0  0  0  0
    7.3498  -13.8865   22.4646 C   0  0  2  0  0  0  0  0  0  0  0  0
    6.1182  -14.0234   21.7453 N   0  0  0  0  0  0  0  0  0  0  0  0
    7.7965  -15.1767   23.0327 C   0  0  0  0  0  0  0  0  0  0  0  0
    6.9536  -16.0065   23.4447 O   0  0  0  0  0  0  0  0  0  0  0  0
    9.1649  -15.5491   23.1457 N   0  0  0  0  0  0  0  0  0  0  0  0
    9.6163  -16.8674   23.5896 C   0  0  1  0  0  0  0  0  0  0  0  0
   10.8323  -17.2880   22.8573 C   0  0  0  0  0  0  0  0  0  0  0  0
   10.6315  -17.4894   21.4002 C   0  0  0  0  0  0  0  0  0  0  0  0
   11.8729  -17.8894   20.7156 C   0  0  0  0  0  0  0  0  0  0  0  0
   12.9970  -18.0507   21.2308 O   0  0  0  0  0  0  0  0  0  0  0  0
    9.6791  -17.0354   25.0329 C   0  0  0  0  0  0  0  0  0  0  0  0
   10.3544  -16.1546   25.6937 O   0  0  0  0  0  0  0  0  0  0  0  0
   11.8080  -18.1192   19.3346 O   0  0  0  0  0  0  0  0  0  0  0  0
    9.0955  -18.0468   25.8391 N   0  0  0  0  0  0  0  0  0  0  0  0
    8.3429  -19.1600   25.3666 C   0  0  0  0  0  0  0  0  0  0  0  0
    8.0233  -19.9891   26.6106 C   0  0  0  0  0  0  0  0  0  0  0  0
    8.0357  -18.9269   27.7221 C   0  0  0  0  0  0  0  0  0  0  0  0
    9.1964  -18.1006   27.2711 C   0  0  1  0  0  0  0  0  0  0  0  0
   10.4895  -18.6616   27.7263 C   0  0  0  0  0  0  0  0  0  0  0  0
   11.2713  -19.1452   26.8877 O   0  0  0  0  0  0  0  0  0  0  0  0
   10.8067  -18.6416   29.0530 O   0  0  0  0  0  0  0  0  0  0  0  0
  2  3  1  0
  2  1  1  0
  4  3  1  0
  5  7  1  0
  5  4  1  0
  5  6  1  1
  7  8  2  0
  9 10  1  0
  9  7  1  0
 10 11  1  6
 11 12  1  0
 12 13  1  0
 13 14  2  0
 15 18  1  0
 15 10  1  0
 16 15  2  0
 17 13  1  0
 18 19  1  0
 19 20  1  0
 21 20  1  0
 22 21  1  0
 22 18  1  0
 22 23  1  6
 24 23  2  0
 25 23  1  0
M  END
$$$$
