MEP.pdb
     RDKit          3D

 25 25  0  0  1  0  0  0  0  0999 V2000
    8.2209  -11.6568   19.8737 C   0  0  0  0  0  0  0  0  0  0  0  0
    8.4530  -12.8479   18.5347 S   0  0  0  0  0  0  0  0  0  0  0  0
    7.8302  -14.4580   19.0840 C   0  0  0  0  0  0  0  0  0  0  0  0
    7.6758  -14.4777   20.6055 C   0  0  0  0  0  0  0  0  0  0  0  0
    7.2938  -15.8527   21.0181 C   0  0  2  0  0  0  0  0  0  0  0  0
    6.0896  -16.2794   20.3694 N   0  0  0  0  0  0  0  0  0  0  0  0
    7.2231  -16.0460   22.4825 C   0  0  0  0  0  0  0  0  0  0  0  0
    6.1867  -15.7253   23.1085 O   0  0  0  0  0  0  0  0  0  0  0  0
    8.2893  -16.5898   23.2516 N   0  0  0  0  0  0  0  0  0  0  0  0
    8.3392  -16.5561   24.7128 C   0  0  1  0  0  0  0  0  0  0  0  0
    9.0154  -17.7585   25.2501 C   0  0  0  0  0  0  0  0  0  0  0  0
    9.0311  -17.8420   26.7324 C   0  0  0  0  0  0  0  0  0  0  0  0
    9.7803  -19.0139   27.2175 C   0  0  0  0  0  0  0  0  0  0  0  0
   10.1852  -19.2191   28.3790 O   0  0  0  0  0  0  0  0  0  0  0  0
    8.7894  -15.2938   25.2777 C   0  0  0  0  0  0  0  0  0  0  0  0
   10.0222  -14.9687   25.0701 O   0  0  0  0  0  0  0  0  0  0  0  0
   10.0825  -20.0208   26.2907 O   0  0  0  0  0  0  0  0  0  0  0  0
    8.0579  -14.3467   26.0403 N   0  0  0  0  0  0  0  0  0  0  0  0
    6.6483  -14.3501   26.2453 C   0  0  0  0  0  0  0  0  0  0  0  0
    6.3763  -13.1897   27.2025 C   0  0  0  0  0  0  0  0  0  0  0  0
    7.5489  -12.2407   26.9058 C   0  0  0  0  0  0  0  0  0  0  0  0
    8.6483  -13.2394   26.7395 C   0  0  1  0  0  0  0  0  0  0  0  0
    9.2380  -13.6397   28.0379 C   0  0  0  0  0  0  0  0  0  0  0  0
    9.0787  -14.8049   28.4445 O   0  0  0  0  0  0  0  0  0  0  0  0
    9.9453  -12.7309   28.7693 O   0  0  0  0  0  0  0  0  0  0  0  0
  2  3  1  0
  2  1  1  0
  4  3  1  0
  5  7  1  0
  5  4  1  0
  5  6  1  6
  7  8  2  0
  9 10  1  0
  9  7  1  0
 10 11  1  6
 11 12  1  0
 12 13  1  0
 13 14  2  0
 15 18  1  0
 15 10  1  0
 16 15  2  0
 17 13  1  0
 18 19  1  0
 19 20  1  0
 21 20  1  0
 22 21  1  0
 22 18  1  0
 22 23  1  1
 24 23  2  0
 25 23  1  0
M  END
$$$$
