MEP.pdb
     RDKit          3D

 25 25  0  0  1  0  0  0  0  0999 V2000
    8.5481  -11.0942   19.0015 C   0  0  0  0  0  0  0  0  0  0  0  0
    8.3203  -12.5514   20.0455 S   0  0  0  0  0  0  0  0  0  0  0  0
    7.0099  -13.5745   19.3257 C   0  0  0  0  0  0  0  0  0  0  0  0
    6.7453  -14.7969   20.2059 C   0  0  0  0  0  0  0  0  0  0  0  0
    7.5558  -15.9290   19.6881 C   0  0  2  0  0  0  0  0  0  0  0  0
    6.8634  -16.6402   18.6548 N   0  0  0  0  0  0  0  0  0  0  0  0
    8.0574  -16.8423   20.7376 C   0  0  0  0  0  0  0  0  0  0  0  0
    7.2603  -17.5821   21.3591 O   0  0  0  0  0  0  0  0  0  0  0  0
    9.4299  -16.9387   21.0992 N   0  0  0  0  0  0  0  0  0  0  0  0
    9.9157  -17.6812   22.2618 C   0  0  1  0  0  0  0  0  0  0  0  0
   11.2133  -18.3326   21.9730 C   0  0  0  0  0  0  0  0  0  0  0  0
   11.7617  -19.1318   23.0977 C   0  0  0  0  0  0  0  0  0  0  0  0
   13.0694  -19.7275   22.7737 C   0  0  0  0  0  0  0  0  0  0  0  0
   13.9967  -19.1996   22.1283 O   0  0  0  0  0  0  0  0  0  0  0  0
    9.8611  -16.9498   23.5177 C   0  0  0  0  0  0  0  0  0  0  0  0
   10.7607  -16.0415   23.7031 O   0  0  0  0  0  0  0  0  0  0  0  0
   13.3214  -21.0284   23.2300 O   0  0  0  0  0  0  0  0  0  0  0  0
    8.9457  -17.0907   24.5927 N   0  0  0  0  0  0  0  0  0  0  0  0
    7.8557  -18.0061   24.6460 C   0  0  0  0  0  0  0  0  0  0  0  0
    7.2449  -17.8267   26.0359 C   0  0  0  0  0  0  0  0  0  0  0  0
    7.6149  -16.3722   26.3692 C   0  0  0  0  0  0  0  0  0  0  0  0
    8.9994  -16.3272   25.8083 C   0  0  1  0  0  0  0  0  0  0  0  0
   10.0039  -16.8520   26.7621 C   0  0  0  0  0  0  0  0  0  0  0  0
   10.2421  -16.2163   27.8049 O   0  0  0  0  0  0  0  0  0  0  0  0
   10.6529  -18.0201   26.4875 O   0  0  0  0  0  0  0  0  0  0  0  0
  2  3  1  0
  2  1  1  0
  4  3  1  0
  5  7  1  0
  5  4  1  0
  5  6  1  6
  7  8  2  0
  9 10  1  0
  9  7  1  0
 10 11  1  6
 11 12  1  0
 12 13  1  0
 13 14  2  0
 15 18  1  0
 15 10  1  0
 16 15  2  0
 17 13  1  0
 18 19  1  0
 19 20  1  0
 21 20  1  0
 22 21  1  0
 22 18  1  0
 22 23  1  1
 24 23  2  0
 25 23  1  0
M  END
$$$$
