MEP.pdb
     RDKit          3D

 25 25  0  0  1  0  0  0  0  0999 V2000
    9.4369  -11.4795   18.9413 C   0  0  0  0  0  0  0  0  0  0  0  0
    8.6053  -12.7134   19.9667 S   0  0  0  0  0  0  0  0  0  0  0  0
    7.4152  -13.6093   18.9356 C   0  0  0  0  0  0  0  0  0  0  0  0
    6.4941  -14.4643   19.8071 C   0  0  0  0  0  0  0  0  0  0  0  0
    7.3305  -15.4376   20.5553 C   0  0  2  0  0  0  0  0  0  0  0  0
    7.3969  -16.6997   19.8804 N   0  0  0  0  0  0  0  0  0  0  0  0
    6.9475  -15.5971   21.9748 C   0  0  0  0  0  0  0  0  0  0  0  0
    5.7615  -15.4077   22.3299 O   0  0  0  0  0  0  0  0  0  0  0  0
    7.8677  -15.9632   22.9962 N   0  0  0  0  0  0  0  0  0  0  0  0
    7.4994  -16.1342   24.4011 C   0  0  1  0  0  0  0  0  0  0  0  0
    7.4741  -17.5666   24.7741 C   0  0  0  0  0  0  0  0  0  0  0  0
    6.9710  -17.8342   26.1452 C   0  0  0  0  0  0  0  0  0  0  0  0
    7.0515  -19.2615   26.5006 C   0  0  0  0  0  0  0  0  0  0  0  0
    7.2221  -19.7445   27.6376 O   0  0  0  0  0  0  0  0  0  0  0  0
    8.2142  -15.2704   25.3275 C   0  0  0  0  0  0  0  0  0  0  0  0
    9.5045  -15.3001   25.2751 O   0  0  0  0  0  0  0  0  0  0  0  0
    6.9253  -20.1969   25.4646 O   0  0  0  0  0  0  0  0  0  0  0  0
    7.6913  -14.3811   26.3018 N   0  0  0  0  0  0  0  0  0  0  0  0
    6.3184  -14.2444   26.6557 C   0  0  0  0  0  0  0  0  0  0  0  0
    6.2954  -13.2357   27.8041 C   0  0  0  0  0  0  0  0  0  0  0  0
    7.5586  -12.4029   27.5316 C   0  0  0  0  0  0  0  0  0  0  0  0
    8.4891  -13.4878   27.0949 C   0  0  1  0  0  0  0  0  0  0  0  0
    9.1281  -14.1692   28.2444 C   0  0  0  0  0  0  0  0  0  0  0  0
    8.8374  -15.3546   28.4865 O   0  0  0  0  0  0  0  0  0  0  0  0
   10.0234  -13.4928   29.0202 O   0  0  0  0  0  0  0  0  0  0  0  0
  2  3  1  0
  2  1  1  0
  4  3  1  0
  5  7  1  0
  5  4  1  0
  5  6  1  6
  7  8  2  0
  9 10  1  0
  9  7  1  0
 10 11  1  1
 11 12  1  0
 12 13  1  0
 13 14  2  0
 15 18  1  0
 15 10  1  0
 16 15  2  0
 17 13  1  0
 18 19  1  0
 19 20  1  0
 21 20  1  0
 22 21  1  0
 22 18  1  0
 22 23  1  1
 24 23  2  0
 25 23  1  0
M  END
$$$$
