MEP.pdb
     RDKit          3D

 25 25  0  0  1  0  0  0  0  0999 V2000
    9.3803  -13.3339   29.6166 C   0  0  0  0  0  0  0  0  0  0  0  0
    9.7809  -14.6008   28.3920 S   0  0  0  0  0  0  0  0  0  0  0  0
    8.4784  -15.8597   28.4208 C   0  0  0  0  0  0  0  0  0  0  0  0
    7.4136  -15.5476   27.3681 C   0  0  0  0  0  0  0  0  0  0  0  0
    7.6193  -16.4576   26.2122 C   0  0  2  0  0  0  0  0  0  0  0  0
    8.4587  -17.5655   26.5598 N   0  0  0  0  0  0  0  0  0  0  0  0
    8.0913  -15.7789   24.9859 C   0  0  0  0  0  0  0  0  0  0  0  0
    7.5890  -14.6843   24.6415 O   0  0  0  0  0  0  0  0  0  0  0  0
    9.1109  -16.3047   24.1447 N   0  0  0  0  0  0  0  0  0  0  0  0
    9.5605  -15.6619   22.9104 C   0  0  1  0  0  0  0  0  0  0  0  0
   10.8922  -16.1643   22.5031 C   0  0  0  0  0  0  0  0  0  0  0  0
   12.0209  -15.6287   23.3052 C   0  0  0  0  0  0  0  0  0  0  0  0
   13.3225  -16.1535   22.8573 C   0  0  0  0  0  0  0  0  0  0  0  0
   13.8423  -16.0141   21.7324 O   0  0  0  0  0  0  0  0  0  0  0  0
    8.5676  -15.6217   21.8483 C   0  0  0  0  0  0  0  0  0  0  0  0
    7.7651  -16.6301   21.7618 O   0  0  0  0  0  0  0  0  0  0  0  0
   14.0764  -16.8930   23.7787 O   0  0  0  0  0  0  0  0  0  0  0  0
    8.3467  -14.6161   20.8718 N   0  0  0  0  0  0  0  0  0  0  0  0
    9.0128  -13.3589   20.8030 C   0  0  0  0  0  0  0  0  0  0  0  0
    8.4879  -12.6925   19.5312 C   0  0  0  0  0  0  0  0  0  0  0  0
    7.0968  -13.3294   19.3799 C   0  0  0  0  0  0  0  0  0  0  0  0
    7.4143  -14.7324   19.7852 C   0  0  1  0  0  0  0  0  0  0  0  0
    7.9543  -15.5287   18.6591 C   0  0  0  0  0  0  0  0  0  0  0  0
    9.1527  -15.8636   18.6710 O   0  0  0  0  0  0  0  0  0  0  0  0
    7.1359  -15.8838   17.6270 O   0  0  0  0  0  0  0  0  0  0  0  0
  2  3  1  0
  2  1  1  0
  4  3  1  0
  5  7  1  0
  5  4  1  0
  5  6  1  1
  7  8  2  0
  9 10  1  0
  9  7  1  0
 10 11  1  6
 11 12  1  0
 12 13  1  0
 13 14  2  0
 15 18  1  0
 15 10  1  0
 16 15  2  0
 17 13  1  0
 18 19  1  0
 19 20  1  0
 21 20  1  0
 22 21  1  0
 22 18  1  0
 22 23  1  6
 24 23  2  0
 25 23  1  0
M  END
$$$$
