EYM.pdb
     RDKit          3D

 30 30  0  0  1  0  0  0  0  0999 V2000
   25.3620  -18.3691  -18.2014 N   0  0  0  0  0  0  0  0  0  0  0  0
   23.8924  -18.4865  -18.1284 C   0  0  1  0  0  0  0  0  0  0  0  0
   23.3495  -18.9544  -19.4386 C   0  0  0  0  0  0  0  0  0  0  0  0
   24.2340  -19.9569  -20.1146 C   0  0  0  0  0  0  0  0  0  0  0  0
   24.0360  -19.8523  -21.6053 C   0  0  0  0  0  0  0  0  0  0  0  0
   24.6944  -19.0301  -22.2923 O   0  0  0  0  0  0  0  0  0  0  0  0
   23.5969  -19.4646  -17.0725 C   0  0  0  0  0  0  0  0  0  0  0  0
   22.8711  -20.4490  -17.3211 O   0  0  0  0  0  0  0  0  0  0  0  0
   23.1210  -20.6645  -22.2464 O   0  0  0  0  0  0  0  0  0  0  0  0
   28.9522  -23.4241  -16.9317 O   0  0  0  0  0  0  0  0  0  0  0  0
   27.9609  -22.7407  -16.2099 C   0  0  0  0  0  0  0  0  0  0  0  0
   28.2175  -21.4521  -15.8192 C   0  0  0  0  0  0  0  0  0  0  0  0
   27.2684  -20.7404  -15.1054 C   0  0  0  0  0  0  0  0  0  0  0  0
   26.0510  -21.3570  -14.7926 C   0  0  0  0  0  0  0  0  0  0  0  0
   25.0795  -20.5851  -14.0029 C   0  0  0  0  0  0  0  0  0  0  0  0
   23.8114  -20.2884  -14.6944 C   0  0  2  0  0  0  0  0  0  0  0  0
   24.1137  -19.3226  -15.7741 N   0  0  0  0  0  0  0  0  0  0  0  0
   22.6876  -19.7629  -13.9406 C   0  0  0  0  0  0  0  0  0  0  0  0
   22.5585  -18.4789  -13.9316 O   0  0  0  0  0  0  0  0  0  0  0  0
   25.8382  -22.6561  -15.2074 C   0  0  0  0  0  0  0  0  0  0  0  0
   26.7744  -23.3615  -15.9127 C   0  0  0  0  0  0  0  0  0  0  0  0
   17.1830  -16.2294  -12.6914 C   0  0  0  0  0  0  0  0  0  0  0  0
   18.7604  -16.9313  -13.2477 S   0  0  0  0  0  0  0  0  0  0  0  0
   18.4763  -18.6802  -13.6342 C   0  0  0  0  0  0  0  0  0  0  0  0
   19.7804  -19.2812  -14.0326 C   0  0  0  0  0  0  0  0  0  0  0  0
   20.4827  -19.8463  -12.8345 C   0  0  2  0  0  0  0  0  0  0  0  0
   21.7165  -20.5086  -13.2202 N   0  0  0  0  0  0  0  0  0  0  0  0
   19.6015  -20.7804  -12.1177 C   0  0  0  0  0  0  0  0  0  0  0  0
   18.9469  -20.4662  -11.0902 O   0  0  0  0  0  0  0  0  0  0  0  0
   19.4936  -22.0895  -12.6183 O   0  0  0  0  0  0  0  0  0  0  0  0
  2  7  1  0
  2  3  1  0
  2  1  1  6
  3  4  1  0
  4  5  1  0
  5  6  2  0
  7  8  2  0
  9  5  1  0
 10 11  1  0
 11 21  2  0
 12 13  2  0
 12 11  1  0
 13 14  1  0
 14 15  1  0
 14 20  2  0
 16 15  1  1
 16 18  1  0
 17 16  1  0
 17  7  1  0
 18 19  2  0
 18 27  1  0
 21 20  1  0
 22 23  1  0
 23 24  1  0
 24 25  1  0
 26 25  1  6
 26 28  1  0
 27 26  1  0
 28 29  2  0
 28 30  1  0
M  END
$$$$
