EYM.pdb
     RDKit          3D

 30 30  0  0  1  0  0  0  0  0999 V2000
   22.5230  -12.9508  -19.0723 N   0  0  0  0  0  0  0  0  0  0  0  0
   23.5837  -12.4616  -18.1698 C   0  0  1  0  0  0  0  0  0  0  0  0
   24.9176  -12.5895  -18.8291 C   0  0  0  0  0  0  0  0  0  0  0  0
   24.8468  -13.2548  -20.1695 C   0  0  0  0  0  0  0  0  0  0  0  0
   26.2140  -13.2171  -20.8034 C   0  0  0  0  0  0  0  0  0  0  0  0
   27.1477  -13.9445  -20.3785 O   0  0  0  0  0  0  0  0  0  0  0  0
   23.2841  -11.0510  -17.8886 C   0  0  0  0  0  0  0  0  0  0  0  0
   24.0615  -10.3785  -17.1806 O   0  0  0  0  0  0  0  0  0  0  0  0
   26.4657  -12.3763  -21.8699 O   0  0  0  0  0  0  0  0  0  0  0  0
   18.7746   -3.4317  -18.6978 O   0  0  0  0  0  0  0  0  0  0  0  0
   19.3854   -4.6830  -18.8770 C   0  0  0  0  0  0  0  0  0  0  0  0
   18.6055   -5.8050  -18.7698 C   0  0  0  0  0  0  0  0  0  0  0  0
   19.1660   -7.0596  -18.9389 C   0  0  0  0  0  0  0  0  0  0  0  0
   20.5340   -7.1598  -19.2194 C   0  0  0  0  0  0  0  0  0  0  0  0
   21.1039   -8.5085  -19.3580 C   0  0  0  0  0  0  0  0  0  0  0  0
   21.8504   -8.9922  -18.1818 C   0  0  2  0  0  0  0  0  0  0  0  0
   22.1333  -10.4284  -18.3994 N   0  0  0  0  0  0  0  0  0  0  0  0
   21.2712   -8.8570  -16.8576 C   0  0  0  0  0  0  0  0  0  0  0  0
   20.3090   -9.6679  -16.5714 O   0  0  0  0  0  0  0  0  0  0  0  0
   21.2786   -6.0019  -19.3180 C   0  0  0  0  0  0  0  0  0  0  0  0
   20.7272   -4.7611  -19.1512 C   0  0  0  0  0  0  0  0  0  0  0  0
   22.6314  -10.9030  -11.7993 C   0  0  0  0  0  0  0  0  0  0  0  0
   21.9679   -9.4309  -10.9728 S   0  0  0  0  0  0  0  0  0  0  0  0
   21.0201   -8.4927  -12.2017 C   0  0  0  0  0  0  0  0  0  0  0  0
   21.7084   -8.6296  -13.5162 C   0  0  0  0  0  0  0  0  0  0  0  0
   20.9213   -7.9429  -14.5918 C   0  0  2  0  0  0  0  0  0  0  0  0
   21.6531   -7.9352  -15.8464 N   0  0  0  0  0  0  0  0  0  0  0  0
   20.5871   -6.5698  -14.1845 C   0  0  0  0  0  0  0  0  0  0  0  0
   21.2934   -5.5695  -14.4733 O   0  0  0  0  0  0  0  0  0  0  0  0
   19.4136   -6.3794  -13.4345 O   0  0  0  0  0  0  0  0  0  0  0  0
  2  7  1  0
  2  3  1  0
  2  1  1  6
  3  4  1  0
  4  5  1  0
  5  6  2  0
  7  8  2  0
  9  5  1  0
 10 11  1  0
 11 21  2  0
 12 13  2  0
 12 11  1  0
 13 14  1  0
 14 15  1  0
 14 20  2  0
 16 15  1  6
 16 18  1  0
 17 16  1  0
 17  7  1  0
 18 19  2  0
 18 27  1  0
 21 20  1  0
 22 23  1  0
 23 24  1  0
 24 25  1  0
 26 25  1  1
 26 28  1  0
 27 26  1  0
 28 29  2  0
 28 30  1  0
M  END
$$$$
