EYM.pdb
     RDKit          3D

 30 30  0  0  1  0  0  0  0  0999 V2000
   23.7144  -30.9260  -19.9054 N   0  0  0  0  0  0  0  0  0  0  0  0
   22.6984  -30.0790  -19.2505 C   0  0  1  0  0  0  0  0  0  0  0  0
   21.3728  -30.7667  -19.2611 C   0  0  0  0  0  0  0  0  0  0  0  0
   20.4691  -30.2794  -20.3521 C   0  0  0  0  0  0  0  0  0  0  0  0
   19.6019  -29.1735  -19.8069 C   0  0  0  0  0  0  0  0  0  0  0  0
   18.8742  -28.4838  -20.5661 O   0  0  0  0  0  0  0  0  0  0  0  0
   23.1524  -29.8626  -17.8700 C   0  0  0  0  0  0  0  0  0  0  0  0
   23.7406  -30.7772  -17.2574 O   0  0  0  0  0  0  0  0  0  0  0  0
   19.5921  -28.8971  -18.4536 O   0  0  0  0  0  0  0  0  0  0  0  0
   29.2597  -29.6137  -18.1909 O   0  0  0  0  0  0  0  0  0  0  0  0
   28.0886  -29.0373  -17.6742 C   0  0  0  0  0  0  0  0  0  0  0  0
   27.7573  -29.3028  -16.3709 C   0  0  0  0  0  0  0  0  0  0  0  0
   26.6111  -28.7555  -15.8200 C   0  0  0  0  0  0  0  0  0  0  0  0
   25.8032  -27.9319  -16.6131 C   0  0  0  0  0  0  0  0  0  0  0  0
   24.5747  -27.3959  -16.0075 C   0  0  0  0  0  0  0  0  0  0  0  0
   23.4784  -28.3708  -15.8580 C   0  0  2  0  0  0  0  0  0  0  0  0
   22.9412  -28.6407  -17.2102 N   0  0  0  0  0  0  0  0  0  0  0  0
   22.3532  -28.0601  -14.9951 C   0  0  0  0  0  0  0  0  0  0  0  0
   21.5743  -27.1118  -15.3943 O   0  0  0  0  0  0  0  0  0  0  0  0
   26.1777  -27.6934  -17.9200 C   0  0  0  0  0  0  0  0  0  0  0  0
   27.3096  -28.2331  -18.4667 C   0  0  0  0  0  0  0  0  0  0  0  0
   19.4393  -32.3724  -11.2003 C   0  0  0  0  0  0  0  0  0  0  0  0
   19.4876  -31.8862  -12.9472 S   0  0  0  0  0  0  0  0  0  0  0  0
   19.1592  -30.1045  -13.0297 C   0  0  0  0  0  0  0  0  0  0  0  0
   20.2346  -29.4028  -12.2736 C   0  0  0  0  0  0  0  0  0  0  0  0
   20.7991  -28.2792  -13.0901 C   0  0  2  0  0  0  0  0  0  0  0  0
   22.0169  -28.6899  -13.7669 N   0  0  0  0  0  0  0  0  0  0  0  0
   21.0552  -27.1068  -12.2401 C   0  0  0  0  0  0  0  0  0  0  0  0
   22.2043  -26.6383  -12.0326 O   0  0  0  0  0  0  0  0  0  0  0  0
   19.9489  -26.4861  -11.6346 O   0  0  0  0  0  0  0  0  0  0  0  0
  2  7  1  0
  2  3  1  0
  2  1  1  6
  3  4  1  0
  4  5  1  0
  5  6  2  0
  7  8  2  0
  9  5  1  0
 10 11  1  0
 11 21  2  0
 12 13  2  0
 12 11  1  0
 13 14  1  0
 14 15  1  0
 14 20  2  0
 16 15  1  6
 16 18  1  0
 17 16  1  0
 17  7  1  0
 18 19  2  0
 18 27  1  0
 21 20  1  0
 22 23  1  0
 23 24  1  0
 24 25  1  0
 26 25  1  1
 26 28  1  0
 27 26  1  0
 28 29  2  0
 28 30  1  0
M  END
$$$$
