EYM.pdb
     RDKit          3D

 30 30  0  0  1  0  0  0  0  0999 V2000
   22.4332   -9.5949  -15.6948 N   0  0  0  0  0  0  0  0  0  0  0  0
   21.4236   -8.8070  -16.4288 C   0  0  1  0  0  0  0  0  0  0  0  0
   20.1012   -8.8996  -15.7412 C   0  0  0  0  0  0  0  0  0  0  0  0
   19.4484  -10.2380  -15.9052 C   0  0  0  0  0  0  0  0  0  0  0  0
   18.1147  -10.2174  -15.2030 C   0  0  0  0  0  0  0  0  0  0  0  0
   18.0313   -9.9665  -13.9735 O   0  0  0  0  0  0  0  0  0  0  0  0
   21.8982   -7.4165  -16.4420 C   0  0  0  0  0  0  0  0  0  0  0  0
   22.4808   -6.9479  -15.4426 O   0  0  0  0  0  0  0  0  0  0  0  0
   16.9529  -10.4757  -15.9040 O   0  0  0  0  0  0  0  0  0  0  0  0
   27.9339   -7.7799  -18.7302 O   0  0  0  0  0  0  0  0  0  0  0  0
   26.6955   -7.1217  -18.7939 C   0  0  0  0  0  0  0  0  0  0  0  0
   26.5060   -6.0211  -17.9993 C   0  0  0  0  0  0  0  0  0  0  0  0
   25.3003   -5.3413  -18.0297 C   0  0  0  0  0  0  0  0  0  0  0  0
   24.2861   -5.7958  -18.8812 C   0  0  0  0  0  0  0  0  0  0  0  0
   23.0059   -5.0719  -18.8627 C   0  0  0  0  0  0  0  0  0  0  0  0
   22.2348   -5.2038  -17.6127 C   0  0  2  0  0  0  0  0  0  0  0  0
   21.7130   -6.5877  -17.5608 N   0  0  0  0  0  0  0  0  0  0  0  0
   21.1219   -4.3076  -17.3569 C   0  0  0  0  0  0  0  0  0  0  0  0
   19.9986   -4.6228  -17.9086 O   0  0  0  0  0  0  0  0  0  0  0  0
   24.5234   -6.9084  -19.6627 C   0  0  0  0  0  0  0  0  0  0  0  0
   25.7138   -7.5819  -19.6343 C   0  0  0  0  0  0  0  0  0  0  0  0
   17.4239    1.6346  -13.8498 C   0  0  0  0  0  0  0  0  0  0  0  0
   19.0129    0.7866  -14.0646 S   0  0  0  0  0  0  0  0  0  0  0  0
   18.7926   -0.4733  -15.3502 C   0  0  0  0  0  0  0  0  0  0  0  0
   20.0471   -1.2736  -15.4301 C   0  0  0  0  0  0  0  0  0  0  0  0
   19.9221   -2.3372  -16.4795 C   0  0  2  0  0  0  0  0  0  0  0  0
   21.1365   -3.1296  -16.5631 N   0  0  0  0  0  0  0  0  0  0  0  0
   19.6118   -1.7348  -17.7847 C   0  0  0  0  0  0  0  0  0  0  0  0
   18.4547   -1.7062  -18.2779 O   0  0  0  0  0  0  0  0  0  0  0  0
   20.6731   -1.1637  -18.5082 O   0  0  0  0  0  0  0  0  0  0  0  0
  2  7  1  0
  2  3  1  0
  2  1  1  1
  3  4  1  0
  4  5  1  0
  5  6  2  0
  7  8  2  0
  9  5  1  0
 10 11  1  0
 11 21  2  0
 12 13  2  0
 12 11  1  0
 13 14  1  0
 14 15  1  0
 14 20  2  0
 16 15  1  6
 16 18  1  0
 17 16  1  0
 17  7  1  0
 18 19  2  0
 18 27  1  0
 21 20  1  0
 22 23  1  0
 23 24  1  0
 24 25  1  0
 26 25  1  1
 26 28  1  0
 27 26  1  0
 28 29  2  0
 28 30  1  0
M  END
$$$$
