EYM.pdb
     RDKit          3D

 30 30  0  0  1  0  0  0  0  0999 V2000
   19.1869  -12.7231  -18.1870 N   0  0  0  0  0  0  0  0  0  0  0  0
   20.2536  -12.0923  -17.3851 C   0  0  1  0  0  0  0  0  0  0  0  0
   21.5882  -12.3775  -17.9916 C   0  0  0  0  0  0  0  0  0  0  0  0
   21.9305  -13.8360  -17.9942 C   0  0  0  0  0  0  0  0  0  0  0  0
   23.2446  -14.0253  -18.7082 C   0  0  0  0  0  0  0  0  0  0  0  0
   24.3380  -13.9201  -18.0958 O   0  0  0  0  0  0  0  0  0  0  0  0
   19.9878  -10.6473  -17.3874 C   0  0  0  0  0  0  0  0  0  0  0  0
   19.6688  -10.0745  -18.4495 O   0  0  0  0  0  0  0  0  0  0  0  0
   23.2696  -14.3198  -20.0574 O   0  0  0  0  0  0  0  0  0  0  0  0
   13.6679   -9.3783  -18.0951 O   0  0  0  0  0  0  0  0  0  0  0  0
   14.8719   -9.0863  -17.4348 C   0  0  0  0  0  0  0  0  0  0  0  0
   15.4984  -10.0978  -16.7543 C   0  0  0  0  0  0  0  0  0  0  0  0
   16.6879   -9.8549  -16.0887 C   0  0  0  0  0  0  0  0  0  0  0  0
   17.2344   -8.5664  -16.1237 C   0  0  0  0  0  0  0  0  0  0  0  0
   18.4800   -8.3343  -15.3767 C   0  0  0  0  0  0  0  0  0  0  0  0
   19.7146   -8.4482  -16.1751 C   0  0  2  0  0  0  0  0  0  0  0  0
   20.0835   -9.8808  -16.2142 N   0  0  0  0  0  0  0  0  0  0  0  0
   20.8966   -7.7035  -15.7810 C   0  0  0  0  0  0  0  0  0  0  0  0
   21.4702   -8.0822  -14.6887 O   0  0  0  0  0  0  0  0  0  0  0  0
   16.5674   -7.5803  -16.8220 C   0  0  0  0  0  0  0  0  0  0  0  0
   15.3919   -7.8178  -17.4803 C   0  0  0  0  0  0  0  0  0  0  0  0
   26.8005   -2.6627  -16.7780 C   0  0  0  0  0  0  0  0  0  0  0  0
   25.3845   -3.4905  -17.5527 S   0  0  0  0  0  0  0  0  0  0  0  0
   24.5441   -4.4563  -16.2682 C   0  0  0  0  0  0  0  0  0  0  0  0
   23.3855   -5.1501  -16.8981 C   0  0  0  0  0  0  0  0  0  0  0  0
   22.6532   -5.9725  -15.8807 C   0  0  2  0  0  0  0  0  0  0  0  0
   21.4892   -6.6113  -16.4695 N   0  0  0  0  0  0  0  0  0  0  0  0
   22.2563   -5.1376  -14.7369 C   0  0  0  0  0  0  0  0  0  0  0  0
   21.2127   -4.4350  -14.7201 O   0  0  0  0  0  0  0  0  0  0  0  0
   23.0957   -5.1345  -13.6093 O   0  0  0  0  0  0  0  0  0  0  0  0
  2  7  1  0
  2  3  1  0
  2  1  1  6
  3  4  1  0
  4  5  1  0
  5  6  2  0
  7  8  2  0
  9  5  1  0
 10 11  1  0
 11 21  2  0
 12 13  2  0
 12 11  1  0
 13 14  1  0
 14 15  1  0
 14 20  2  0
 16 15  1  1
 16 18  1  0
 17 16  1  0
 17  7  1  0
 18 19  2  0
 18 27  1  0
 21 20  1  0
 22 23  1  0
 23 24  1  0
 24 25  1  0
 26 25  1  6
 26 28  1  0
 27 26  1  0
 28 29  2  0
 28 30  1  0
M  END
$$$$
