EYM.pdb
     RDKit          3D

 30 30  0  0  1  0  0  0  0  0999 V2000
   25.0404  -18.9355  -16.4775 N   0  0  0  0  0  0  0  0  0  0  0  0
   26.1047  -19.0853  -15.4658 C   0  0  1  0  0  0  0  0  0  0  0  0
   27.0105  -17.8983  -15.4945 C   0  0  0  0  0  0  0  0  0  0  0  0
   28.4278  -18.2513  -15.8280 C   0  0  0  0  0  0  0  0  0  0  0  0
   28.6619  -17.9882  -17.2937 C   0  0  0  0  0  0  0  0  0  0  0  0
   28.8343  -18.9341  -18.1044 O   0  0  0  0  0  0  0  0  0  0  0  0
   25.4377  -19.1896  -14.1608 C   0  0  0  0  0  0  0  0  0  0  0  0
   24.8727  -18.1914  -13.6688 O   0  0  0  0  0  0  0  0  0  0  0  0
   28.6911  -16.6937  -17.7744 O   0  0  0  0  0  0  0  0  0  0  0  0
   18.3876  -19.6438  -11.3410 O   0  0  0  0  0  0  0  0  0  0  0  0
   19.6918  -20.1110  -11.5682 C   0  0  0  0  0  0  0  0  0  0  0  0
   20.2212  -19.9666  -12.8243 C   0  0  0  0  0  0  0  0  0  0  0  0
   21.5038  -20.4130  -13.0934 C   0  0  0  0  0  0  0  0  0  0  0  0
   22.2442  -21.0100  -12.0660 C   0  0  0  0  0  0  0  0  0  0  0  0
   23.5896  -21.5051  -12.3950 C   0  0  0  0  0  0  0  0  0  0  0  0
   24.6808  -20.5403  -12.1651 C   0  0  2  0  0  0  0  0  0  0  0  0
   25.4170  -20.3954  -13.4406 N   0  0  0  0  0  0  0  0  0  0  0  0
   25.6586  -20.7961  -11.1232 C   0  0  0  0  0  0  0  0  0  0  0  0
   26.2535  -21.9405  -11.1692 O   0  0  0  0  0  0  0  0  0  0  0  0
   21.6689  -21.1335  -10.8175 C   0  0  0  0  0  0  0  0  0  0  0  0
   20.4018  -20.6933  -10.5492 C   0  0  0  0  0  0  0  0  0  0  0  0
   28.8923  -19.6113   -4.1003 C   0  0  0  0  0  0  0  0  0  0  0  0
   28.4563  -18.8687   -5.6968 S   0  0  0  0  0  0  0  0  0  0  0  0
   27.4588  -20.0774   -6.6095 C   0  0  0  0  0  0  0  0  0  0  0  0
   27.1321  -19.4930   -7.9407 C   0  0  0  0  0  0  0  0  0  0  0  0
   26.4312  -20.5044   -8.7973 C   0  0  2  0  0  0  0  0  0  0  0  0
   26.0325  -19.9227  -10.0670 N   0  0  0  0  0  0  0  0  0  0  0  0
   25.2610  -21.0493   -8.0927 C   0  0  0  0  0  0  0  0  0  0  0  0
   24.1020  -20.5721   -8.2012 O   0  0  0  0  0  0  0  0  0  0  0  0
   25.4622  -22.1625   -7.2582 O   0  0  0  0  0  0  0  0  0  0  0  0
  2  7  1  0
  2  3  1  0
  2  1  1  6
  3  4  1  0
  4  5  1  0
  5  6  2  0
  7  8  2  0
  9  5  1  0
 10 11  1  0
 11 21  2  0
 12 13  2  0
 12 11  1  0
 13 14  1  0
 14 15  1  0
 14 20  2  0
 16 15  1  6
 16 18  1  0
 17 16  1  0
 17  7  1  0
 18 19  2  0
 18 27  1  0
 21 20  1  0
 22 23  1  0
 23 24  1  0
 24 25  1  0
 26 25  1  1
 26 28  1  0
 27 26  1  0
 28 29  2  0
 28 30  1  0
M  END
$$$$
