EYM.pdb
     RDKit          3D

 30 30  0  0  1  0  0  0  0  0999 V2000
   13.9804   -9.9885  -12.6082 N   0  0  0  0  0  0  0  0  0  0  0  0
   15.2151  -10.0330  -11.8005 C   0  0  1  0  0  0  0  0  0  0  0  0
   16.2968  -10.7337  -12.5549 C   0  0  0  0  0  0  0  0  0  0  0  0
   16.6834  -10.0256  -13.8172 C   0  0  0  0  0  0  0  0  0  0  0  0
   17.8134  -10.7797  -14.4707 C   0  0  0  0  0  0  0  0  0  0  0  0
   18.2906  -10.4084  -15.5734 O   0  0  0  0  0  0  0  0  0  0  0  0
   15.5970   -8.6398  -11.5324 C   0  0  0  0  0  0  0  0  0  0  0  0
   15.2250   -7.7326  -12.3047 O   0  0  0  0  0  0  0  0  0  0  0  0
   18.3477  -11.8997  -13.8641 O   0  0  0  0  0  0  0  0  0  0  0  0
   11.2049   -6.3801   -7.0447 O   0  0  0  0  0  0  0  0  0  0  0  0
   12.5440   -6.4137   -7.4648 C   0  0  0  0  0  0  0  0  0  0  0  0
   13.1108   -7.6347   -7.7229 C   0  0  0  0  0  0  0  0  0  0  0  0
   14.4287   -7.7150   -8.1395 C   0  0  0  0  0  0  0  0  0  0  0  0
   15.1658   -6.5343   -8.2910 C   0  0  0  0  0  0  0  0  0  0  0  0
   16.5730   -6.6577   -8.7006 C   0  0  0  0  0  0  0  0  0  0  0  0
   16.7831   -6.8975  -10.1404 C   0  0  2  0  0  0  0  0  0  0  0  0
   16.3790   -8.2938  -10.4181 N   0  0  0  0  0  0  0  0  0  0  0  0
   18.1008   -6.7014  -10.7169 C   0  0  0  0  0  0  0  0  0  0  0  0
   19.0618   -7.3786  -10.1845 O   0  0  0  0  0  0  0  0  0  0  0  0
   14.5522   -5.3283   -8.0193 C   0  0  0  0  0  0  0  0  0  0  0  0
   13.2502   -5.2463   -7.6075 C   0  0  0  0  0  0  0  0  0  0  0  0
   23.4004   -8.9837  -13.9606 C   0  0  0  0  0  0  0  0  0  0  0  0
   21.7872   -8.7228  -13.1733 S   0  0  0  0  0  0  0  0  0  0  0  0
   20.9161   -7.4438  -14.1188 C   0  0  0  0  0  0  0  0  0  0  0  0
   19.6008   -7.2012  -13.4617 C   0  0  0  0  0  0  0  0  0  0  0  0
   19.7073   -6.0715  -12.4816 C   0  0  2  0  0  0  0  0  0  0  0  0
   18.4421   -5.8518  -11.8030 N   0  0  0  0  0  0  0  0  0  0  0  0
   20.1447   -4.8431  -13.1616 C   0  0  0  0  0  0  0  0  0  0  0  0
   19.3569   -3.9281  -13.5152 O   0  0  0  0  0  0  0  0  0  0  0  0
   21.5180   -4.6962  -13.4232 O   0  0  0  0  0  0  0  0  0  0  0  0
  2  7  1  0
  2  3  1  0
  2  1  1  6
  3  4  1  0
  4  5  1  0
  5  6  2  0
  7  8  2  0
  9  5  1  0
 10 11  1  0
 11 21  2  0
 12 13  2  0
 12 11  1  0
 13 14  1  0
 14 15  1  0
 14 20  2  0
 16 15  1  1
 16 18  1  0
 17 16  1  0
 17  7  1  0
 18 19  2  0
 18 27  1  0
 21 20  1  0
 22 23  1  0
 23 24  1  0
 24 25  1  0
 26 25  1  6
 26 28  1  0
 27 26  1  0
 28 29  2  0
 28 30  1  0
M  END
$$$$
