AYV.pdb
     RDKit          3D

 25 25  0  0  1  0  0  0  0  0999 V2000
   24.9263   -9.3708  -20.2484 C   0  0  0  0  0  0  0  0  0  0  0  0
   24.6232  -10.5841  -19.4128 C   0  0  2  0  0  0  0  0  0  0  0  0
   24.1701  -11.7023  -20.1952 N   0  0  0  0  0  0  0  0  0  0  0  0
   23.6183  -10.2426  -18.3458 C   0  0  0  0  0  0  0  0  0  0  0  0
   22.3970  -10.2011  -18.6730 O   0  0  0  0  0  0  0  0  0  0  0  0
   22.4322  -16.0931  -16.0622 O   0  0  0  0  0  0  0  0  0  0  0  0
   22.6732  -14.7529  -15.7625 C   0  0  0  0  0  0  0  0  0  0  0  0
   21.6407  -13.8505  -15.6955 C   0  0  0  0  0  0  0  0  0  0  0  0
   21.9261  -12.5426  -15.3973 C   0  0  0  0  0  0  0  0  0  0  0  0
   23.2145  -12.0956  -15.1610 C   0  0  0  0  0  0  0  0  0  0  0  0
   23.4091  -10.6582  -14.8516 C   0  0  0  0  0  0  0  0  0  0  0  0
   23.0704   -9.7427  -16.0093 C   0  0  2  0  0  0  0  0  0  0  0  0
   24.0754   -9.9834  -17.0289 N   0  0  0  0  0  0  0  0  0  0  0  0
   23.1715   -8.3104  -15.6478 C   0  0  0  0  0  0  0  0  0  0  0  0
   24.2980   -7.7582  -15.4444 O   0  0  0  0  0  0  0  0  0  0  0  0
   24.2251  -13.0101  -15.2330 C   0  0  0  0  0  0  0  0  0  0  0  0
   23.9703  -14.3348  -15.5312 C   0  0  0  0  0  0  0  0  0  0  0  0
   21.4195   -5.3358  -17.4511 C   0  0  0  0  0  0  0  0  0  0  0  0
   21.1981   -5.2034  -15.9602 C   0  0  1  0  0  0  0  0  0  0  0  0
   19.7719   -5.5739  -15.6699 C   0  0  0  0  0  0  0  0  0  0  0  0
   22.1827   -6.0629  -15.1986 C   0  0  2  0  0  0  0  0  0  0  0  0
   22.0421   -7.4586  -15.5029 N   0  0  0  0  0  0  0  0  0  0  0  0
   22.0004   -5.7844  -13.7530 C   0  0  0  0  0  0  0  0  0  0  0  0
   22.3372   -4.5557  -13.2395 O   0  0  0  0  0  0  0  0  0  0  0  0
   21.5399   -6.6435  -12.9564 O   0  0  0  0  0  0  0  0  0  0  0  0
  2  1  1  6
  2  3  1  0
  4  5  2  0
  4  2  1  0
  6  7  1  0
  7 17  2  0
  8  9  2  0
  8  7  1  0
  9 10  1  0
 10 11  1  0
 10 16  2  0
 12 11  1  1
 12 13  1  0
 13  4  1  0
 14 12  1  0
 15 14  2  0
 17 16  1  0
 19 18  1  6
 19 21  1  0
 19 20  1  0
 21 23  1  0
 21 22  1  1
 22 14  1  0
 23 24  1  0
 25 23  2  0
M  END
$$$$
