AYV.pdb
     RDKit          3D

 25 25  0  0  1  0  0  0  0  0999 V2000
   28.8833  -21.8110  -14.9415 C   0  0  0  0  0  0  0  0  0  0  0  0
   27.4843  -21.5147  -15.4075 C   0  0  2  0  0  0  0  0  0  0  0  0
   27.4510  -20.7830  -16.6450 N   0  0  0  0  0  0  0  0  0  0  0  0
   26.7245  -20.7790  -14.3369 C   0  0  0  0  0  0  0  0  0  0  0  0
   26.8720  -19.5249  -14.2604 O   0  0  0  0  0  0  0  0  0  0  0  0
   21.5901  -18.3580  -17.3216 O   0  0  0  0  0  0  0  0  0  0  0  0
   22.0972  -19.0272  -16.2085 C   0  0  0  0  0  0  0  0  0  0  0  0
   22.5080  -20.3340  -16.3003 C   0  0  0  0  0  0  0  0  0  0  0  0
   23.0000  -20.9511  -15.1788 C   0  0  0  0  0  0  0  0  0  0  0  0
   23.0991  -20.3086  -13.9568 C   0  0  0  0  0  0  0  0  0  0  0  0
   23.6421  -21.0733  -12.8079 C   0  0  0  0  0  0  0  0  0  0  0  0
   25.0927  -20.7585  -12.5077 C   0  0  2  0  0  0  0  0  0  0  0  0
   25.8816  -21.5131  -13.4645 N   0  0  0  0  0  0  0  0  0  0  0  0
   25.5064  -21.2202  -11.1631 C   0  0  0  0  0  0  0  0  0  0  0  0
   25.3906  -22.4379  -10.8179 O   0  0  0  0  0  0  0  0  0  0  0  0
   22.6848  -19.0099  -13.8889 C   0  0  0  0  0  0  0  0  0  0  0  0
   22.1845  -18.3603  -15.0009 C   0  0  0  0  0  0  0  0  0  0  0  0
   26.3683  -18.5474   -7.7736 C   0  0  0  0  0  0  0  0  0  0  0  0
   27.1263  -19.8307   -8.0339 C   0  0  1  0  0  0  0  0  0  0  0  0
   27.5500  -20.3946   -6.7080 C   0  0  0  0  0  0  0  0  0  0  0  0
   26.2757  -20.7987   -8.8261 C   0  0  2  0  0  0  0  0  0  0  0  0
   26.0537  -20.3576  -10.1738 N   0  0  0  0  0  0  0  0  0  0  0  0
   25.0055  -20.9936   -8.0849 C   0  0  0  0  0  0  0  0  0  0  0  0
   24.9467  -21.8818   -7.0388 O   0  0  0  0  0  0  0  0  0  0  0  0
   23.9538  -20.3669   -8.3782 O   0  0  0  0  0  0  0  0  0  0  0  0
  2  1  1  1
  2  3  1  0
  4  5  2  0
  4  2  1  0
  6  7  1  0
  7 17  2  0
  8  9  2  0
  8  7  1  0
  9 10  1  0
 10 11  1  0
 10 16  2  0
 12 11  1  6
 12 13  1  0
 13  4  1  0
 14 12  1  0
 15 14  2  0
 17 16  1  0
 19 18  1  1
 19 21  1  0
 19 20  1  0
 21 23  1  0
 21 22  1  6
 22 14  1  0
 23 24  1  0
 25 23  2  0
M  END
$$$$
