AYV.pdb
     RDKit          3D

 25 25  0  0  1  0  0  0  0  0999 V2000
   28.1322  -21.2766  -17.9884 C   0  0  0  0  0  0  0  0  0  0  0  0
   28.4636  -22.2502  -16.8909 C   0  0  2  0  0  0  0  0  0  0  0  0
   28.6010  -23.6009  -17.3651 N   0  0  0  0  0  0  0  0  0  0  0  0
   27.4301  -22.1749  -15.7996 C   0  0  0  0  0  0  0  0  0  0  0  0
   26.4421  -22.9624  -15.8631 O   0  0  0  0  0  0  0  0  0  0  0  0
   23.9539  -20.3879   -7.9700 O   0  0  0  0  0  0  0  0  0  0  0  0
   24.8007  -20.4627   -9.0752 C   0  0  0  0  0  0  0  0  0  0  0  0
   24.3258  -20.8639  -10.2993 C   0  0  0  0  0  0  0  0  0  0  0  0
   25.1960  -20.9221  -11.3576 C   0  0  0  0  0  0  0  0  0  0  0  0
   26.5352  -20.5922  -11.2410 C   0  0  0  0  0  0  0  0  0  0  0  0
   27.3877  -20.6957  -12.4502 C   0  0  0  0  0  0  0  0  0  0  0  0
   26.6697  -21.2920  -13.6428 C   0  0  2  0  0  0  0  0  0  0  0  0
   27.6028  -21.2336  -14.7534 N   0  0  0  0  0  0  0  0  0  0  0  0
   25.4852  -20.5002  -14.0455 C   0  0  0  0  0  0  0  0  0  0  0  0
   25.5980  -19.2991  -14.4455 O   0  0  0  0  0  0  0  0  0  0  0  0
   26.9853  -20.1962  -10.0148 C   0  0  0  0  0  0  0  0  0  0  0  0
   26.1337  -20.1272   -8.9291 C   0  0  0  0  0  0  0  0  0  0  0  0
   23.3197  -20.5441  -16.8005 C   0  0  0  0  0  0  0  0  0  0  0  0
   22.3566  -20.6347  -15.6371 C   0  0  1  0  0  0  0  0  0  0  0  0
   21.8560  -22.0486  -15.5603 C   0  0  0  0  0  0  0  0  0  0  0  0
   23.0277  -20.1911  -14.3562 C   0  0  2  0  0  0  0  0  0  0  0  0
   24.1575  -21.0090  -14.0174 N   0  0  0  0  0  0  0  0  0  0  0  0
   21.9997  -20.1866  -13.2867 C   0  0  0  0  0  0  0  0  0  0  0  0
   21.0145  -19.2294  -13.2812 O   0  0  0  0  0  0  0  0  0  0  0  0
   21.9890  -21.0405  -12.3618 O   0  0  0  0  0  0  0  0  0  0  0  0
  2  1  1  6
  2  3  1  0
  4  5  2  0
  4  2  1  0
  6  7  1  0
  7 17  2  0
  8  9  2  0
  8  7  1  0
  9 10  1  0
 10 11  1  0
 10 16  2  0
 12 11  1  1
 12 13  1  0
 13  4  1  0
 14 12  1  0
 15 14  2  0
 17 16  1  0
 19 18  1  6
 19 21  1  0
 19 20  1  0
 21 23  1  0
 21 22  1  1
 22 14  1  0
 23 24  1  0
 25 23  2  0
M  END
$$$$
