AYV.pdb
     RDKit          3D

 25 25  0  0  1  0  0  0  0  0999 V2000
   28.1496  -21.1654  -18.4166 C   0  0  0  0  0  0  0  0  0  0  0  0
   28.8339  -21.7395  -17.2065 C   0  0  2  0  0  0  0  0  0  0  0  0
   29.5085  -22.9793  -17.4819 N   0  0  0  0  0  0  0  0  0  0  0  0
   27.8466  -21.9120  -16.0839 C   0  0  0  0  0  0  0  0  0  0  0  0
   27.2557  -23.0257  -15.9798 O   0  0  0  0  0  0  0  0  0  0  0  0
   24.2267  -20.6489   -8.1770 O   0  0  0  0  0  0  0  0  0  0  0  0
   24.9548  -20.5222   -9.3593 C   0  0  0  0  0  0  0  0  0  0  0  0
   26.1805  -21.1248   -9.4986 C   0  0  0  0  0  0  0  0  0  0  0  0
   26.8601  -20.9722  -10.6800 C   0  0  0  0  0  0  0  0  0  0  0  0
   26.3592  -20.2343  -11.7385 C   0  0  0  0  0  0  0  0  0  0  0  0
   27.1812  -20.1316  -12.9688 C   0  0  0  0  0  0  0  0  0  0  0  0
   26.7297  -21.0643  -14.0732 C   0  0  2  0  0  0  0  0  0  0  0  0
   27.6199  -20.8303  -15.1957 N   0  0  0  0  0  0  0  0  0  0  0  0
   25.3615  -20.7585  -14.5495 C   0  0  0  0  0  0  0  0  0  0  0  0
   25.1338  -19.7699  -15.3151 O   0  0  0  0  0  0  0  0  0  0  0  0
   25.1391  -19.6441  -11.5776 C   0  0  0  0  0  0  0  0  0  0  0  0
   24.4297  -19.7790  -10.3998 C   0  0  0  0  0  0  0  0  0  0  0  0
   22.2094  -23.5400  -14.8022 C   0  0  0  0  0  0  0  0  0  0  0  0
   22.2603  -22.2015  -15.5059 C   0  0  1  0  0  0  0  0  0  0  0  0
   20.8592  -21.8348  -15.9035 C   0  0  0  0  0  0  0  0  0  0  0  0
   22.8983  -21.1577  -14.6163 C   0  0  2  0  0  0  0  0  0  0  0  0
   24.2197  -21.5290  -14.1961 N   0  0  0  0  0  0  0  0  0  0  0  0
   21.9895  -20.9286  -13.4664 C   0  0  0  0  0  0  0  0  0  0  0  0
   20.8518  -20.1757  -13.6260 O   0  0  0  0  0  0  0  0  0  0  0  0
   22.2189  -21.4044  -12.3237 O   0  0  0  0  0  0  0  0  0  0  0  0
  2  1  1  6
  2  3  1  0
  4  5  2  0
  4  2  1  0
  6  7  1  0
  7 17  2  0
  8  9  2  0
  8  7  1  0
  9 10  1  0
 10 11  1  0
 10 16  2  0
 12 11  1  1
 12 13  1  0
 13  4  1  0
 14 12  1  0
 15 14  2  0
 17 16  1  0
 19 18  1  1
 19 21  1  0
 19 20  1  0
 21 23  1  0
 21 22  1  1
 22 14  1  0
 23 24  1  0
 25 23  2  0
M  END
$$$$
