AYV.pdb
     RDKit          3D

 25 25  0  0  1  0  0  0  0  0999 V2000
   28.2564  -21.6379  -18.7240 C   0  0  0  0  0  0  0  0  0  0  0  0
   29.0295  -22.0634  -17.5060 C   0  0  2  0  0  0  0  0  0  0  0  0
   29.7721  -23.2777  -17.7118 N   0  0  0  0  0  0  0  0  0  0  0  0
   28.1059  -22.2013  -16.3259 C   0  0  0  0  0  0  0  0  0  0  0  0
   27.5994  -23.3381  -16.0989 O   0  0  0  0  0  0  0  0  0  0  0  0
   24.4100  -20.4638   -8.5492 O   0  0  0  0  0  0  0  0  0  0  0  0
   25.1559  -20.4178   -9.7262 C   0  0  0  0  0  0  0  0  0  0  0  0
   26.3116  -21.1475   -9.8555 C   0  0  0  0  0  0  0  0  0  0  0  0
   27.0120  -21.0707  -11.0321 C   0  0  0  0  0  0  0  0  0  0  0  0
   26.6000  -20.2863  -12.0954 C   0  0  0  0  0  0  0  0  0  0  0  0
   27.4370  -20.2742  -13.3197 C   0  0  0  0  0  0  0  0  0  0  0  0
   26.9595  -21.2399  -14.3841 C   0  0  2  0  0  0  0  0  0  0  0  0
   27.8422  -21.0629  -15.5229 N   0  0  0  0  0  0  0  0  0  0  0  0
   25.5918  -20.9293  -14.8588 C   0  0  0  0  0  0  0  0  0  0  0  0
   25.3718  -19.9619  -15.6532 O   0  0  0  0  0  0  0  0  0  0  0  0
   25.4484  -19.5694  -11.9445 C   0  0  0  0  0  0  0  0  0  0  0  0
   24.7202  -19.6254  -10.7718 C   0  0  0  0  0  0  0  0  0  0  0  0
   23.1666  -22.3906  -17.0108 C   0  0  0  0  0  0  0  0  0  0  0  0
   22.4017  -22.2136  -15.7174 C   0  0  1  0  0  0  0  0  0  0  0  0
   22.2377  -23.5676  -15.0884 C   0  0  0  0  0  0  0  0  0  0  0  0
   23.1153  -21.2385  -14.8074 C   0  0  2  0  0  0  0  0  0  0  0  0
   24.4421  -21.6718  -14.4724 N   0  0  0  0  0  0  0  0  0  0  0  0
   22.2700  -21.0434  -13.6041 C   0  0  0  0  0  0  0  0  0  0  0  0
   22.6508  -21.5818  -12.3992 O   0  0  0  0  0  0  0  0  0  0  0  0
   21.1939  -20.3911  -13.6379 O   0  0  0  0  0  0  0  0  0  0  0  0
  2  1  1  6
  2  3  1  0
  4  5  2  0
  4  2  1  0
  6  7  1  0
  7 17  2  0
  8  9  2  0
  8  7  1  0
  9 10  1  0
 10 11  1  0
 10 16  2  0
 12 11  1  1
 12 13  1  0
 13  4  1  0
 14 12  1  0
 15 14  2  0
 17 16  1  0
 19 18  1  6
 19 21  1  0
 19 20  1  0
 21 23  1  0
 21 22  1  1
 22 14  1  0
 23 24  1  0
 25 23  2  0
M  END
$$$$
