AYV.pdb
     RDKit          3D

 25 25  0  0  1  0  0  0  0  0999 V2000
   21.1540  -13.9060  -18.9591 C   0  0  0  0  0  0  0  0  0  0  0  0
   21.6274  -12.8904  -19.9625 C   0  0  2  0  0  0  0  0  0  0  0  0
   22.8161  -13.3043  -20.6580 N   0  0  0  0  0  0  0  0  0  0  0  0
   21.8417  -11.5595  -19.2936 C   0  0  0  0  0  0  0  0  0  0  0  0
   23.0224  -11.2431  -18.9673 O   0  0  0  0  0  0  0  0  0  0  0  0
   22.3853   -6.5470  -24.0071 O   0  0  0  0  0  0  0  0  0  0  0  0
   21.8204   -7.0118  -22.8202 C   0  0  0  0  0  0  0  0  0  0  0  0
   21.9804   -6.3182  -21.6462 C   0  0  0  0  0  0  0  0  0  0  0  0
   21.4064   -6.8141  -20.5037 C   0  0  0  0  0  0  0  0  0  0  0  0
   20.6715   -7.9869  -20.4867 C   0  0  0  0  0  0  0  0  0  0  0  0
   20.0989   -8.4335  -19.1935 C   0  0  0  0  0  0  0  0  0  0  0  0
   20.9768   -9.4237  -18.4572 C   0  0  2  0  0  0  0  0  0  0  0  0
   20.7231  -10.7208  -19.0576 N   0  0  0  0  0  0  0  0  0  0  0  0
   20.6179   -9.5445  -17.0258 C   0  0  0  0  0  0  0  0  0  0  0  0
   19.5236  -10.0785  -16.6616 O   0  0  0  0  0  0  0  0  0  0  0  0
   20.5257   -8.6598  -21.6652 C   0  0  0  0  0  0  0  0  0  0  0  0
   21.0916   -8.1863  -22.8332 C   0  0  0  0  0  0  0  0  0  0  0  0
   22.2498  -11.3934  -14.3094 C   0  0  0  0  0  0  0  0  0  0  0  0
   22.0969   -9.9832  -13.7829 C   0  0  1  0  0  0  0  0  0  0  0  0
   23.4483   -9.3288  -13.8146 C   0  0  0  0  0  0  0  0  0  0  0  0
   21.0697   -9.2227  -14.5919 C   0  0  2  0  0  0  0  0  0  0  0  0
   21.4501   -9.0831  -15.9689 N   0  0  0  0  0  0  0  0  0  0  0  0
   20.8594   -7.9098  -13.9339 C   0  0  0  0  0  0  0  0  0  0  0  0
   20.2060   -7.8398  -12.7278 O   0  0  0  0  0  0  0  0  0  0  0  0
   21.2624   -6.8313  -14.4429 O   0  0  0  0  0  0  0  0  0  0  0  0
  2  1  1  1
  2  3  1  0
  4  5  2  0
  4  2  1  0
  6  7  1  0
  7 17  2  0
  8  9  2  0
  8  7  1  0
  9 10  1  0
 10 11  1  0
 10 16  2  0
 12 11  1  6
 12 13  1  0
 13  4  1  0
 14 12  1  0
 15 14  2  0
 17 16  1  0
 19 18  1  6
 19 21  1  0
 19 20  1  0
 21 23  1  0
 21 22  1  6
 22 14  1  0
 23 24  1  0
 25 23  2  0
M  END
$$$$
