HQP.pdb
     RDKit          3D

 27 28  0  0  1  0  0  0  0  0999 V2000
   29.2820  -12.8394  -20.4535 N   0  0  0  0  0  0  0  0  0  0  0  0
   27.9201  -12.7128  -20.0272 C   0  0  1  0  0  0  0  0  0  0  0  0
   27.4696  -13.8825  -19.1743 C   0  0  0  0  0  0  0  0  0  0  0  0
   27.3273  -15.0485  -20.0915 C   0  0  0  0  0  0  0  0  0  0  0  0
   28.2356  -16.0431  -20.3753 C   0  0  0  0  0  0  0  0  0  0  0  0
   27.6873  -16.8898  -21.2569 N   0  0  0  0  0  0  0  0  0  0  0  0
   26.4538  -16.4340  -21.5227 C   0  0  0  0  0  0  0  0  0  0  0  0
   26.2257  -15.3059  -20.8123 N   0  0  0  0  0  0  0  0  0  0  0  0
   27.7338  -11.4793  -19.1866 C   0  0  0  0  0  0  0  0  0  0  0  0
   28.6604  -11.0509  -18.4555 O   0  0  0  0  0  0  0  0  0  0  0  0
   27.6965   -6.7185  -21.4000 N   0  0  0  0  0  0  0  0  0  0  0  0
   27.3249   -6.1803  -20.1417 C   0  0  0  0  0  0  0  0  0  0  0  0
   27.4608   -4.9397  -19.9817 O   0  0  0  0  0  0  0  0  0  0  0  0
   26.7996   -7.0676  -19.0744 C   0  0  0  0  0  0  0  0  0  0  0  0
   26.7873   -8.4775  -19.5819 C   0  0  0  0  0  0  0  0  0  0  0  0
   26.3880   -9.4605  -18.4674 C   0  0  2  0  0  0  0  0  0  0  0  0
   26.5173  -10.7641  -19.1904 N   0  0  0  0  0  0  0  0  0  0  0  0
   25.0033   -9.1882  -18.1261 C   0  0  0  0  0  0  0  0  0  0  0  0
   24.2276   -9.0980  -19.1810 O   0  0  0  0  0  0  0  0  0  0  0  0
   24.3497   -9.0065  -16.9122 N   0  0  0  0  0  0  0  0  0  0  0  0
   24.9860   -9.5547  -15.6359 C   0  0  0  0  0  0  0  0  0  0  0  0
   25.0070   -8.2798  -14.8321 C   0  0  0  0  0  0  0  0  0  0  0  0
   23.8485   -7.4517  -15.3387 C   0  0  0  0  0  0  0  0  0  0  0  0
   23.1953   -8.4352  -16.3404 C   0  0  1  0  0  0  0  0  0  0  0  0
   22.1597   -7.8022  -17.0874 C   0  0  0  0  0  0  0  0  0  0  0  0
   20.8299   -8.2289  -16.8383 O   0  0  0  0  0  0  0  0  0  0  0  0
   22.2747   -6.9264  -17.9267 O   0  0  0  0  0  0  0  0  0  0  0  0
  2  3  1  0
  2  1  1  1
  4  3  1  0
  5  4  2  0
  6  7  1  0
  6  5  1  0
  7  8  2  0
  8  4  1  0
  9 10  2  0
  9  2  1  0
 12 11  1  0
 12 14  1  0
 13 12  2  0
 16 15  1  6
 15 14  1  0
 16 17  1  0
 17  9  1  0
 18 16  1  0
 19 18  2  0
 20 21  1  0
 20 18  1  0
 22 21  1  0
 23 22  1  0
 24 23  1  0
 24 20  1  0
 24 25  1  6
 26 25  1  0
 27 25  2  0
M  END
$$$$
