HQP.pdb
     RDKit          3D

 27 28  0  0  1  0  0  0  0  0999 V2000
   23.5189  -14.8259  -17.6009 N   0  0  0  0  0  0  0  0  0  0  0  0
   23.7064  -13.7631  -16.6585 C   0  0  1  0  0  0  0  0  0  0  0  0
   25.1492  -13.3034  -16.5843 C   0  0  0  0  0  0  0  0  0  0  0  0
   25.9385  -14.4589  -16.0717 C   0  0  0  0  0  0  0  0  0  0  0  0
   26.1778  -14.8347  -14.7693 C   0  0  0  0  0  0  0  0  0  0  0  0
   26.9386  -15.9374  -14.7710 N   0  0  0  0  0  0  0  0  0  0  0  0
   27.1734  -16.2494  -16.0546 C   0  0  0  0  0  0  0  0  0  0  0  0
   26.5639  -15.3480  -16.8578 N   0  0  0  0  0  0  0  0  0  0  0  0
   22.8964  -12.5556  -17.0439 C   0  0  0  0  0  0  0  0  0  0  0  0
   22.7524  -12.2332  -18.2489 O   0  0  0  0  0  0  0  0  0  0  0  0
   17.7294  -11.9523  -14.7367 N   0  0  0  0  0  0  0  0  0  0  0  0
   18.1596  -12.6220  -15.9103 C   0  0  0  0  0  0  0  0  0  0  0  0
   17.4258  -13.5446  -16.3502 O   0  0  0  0  0  0  0  0  0  0  0  0
   19.4285  -12.2301  -16.5725 C   0  0  0  0  0  0  0  0  0  0  0  0
   20.0447  -11.1005  -15.8043 C   0  0  0  0  0  0  0  0  0  0  0  0
   21.3539  -10.6348  -16.4651 C   0  0  2  0  0  0  0  0  0  0  0  0
   22.2732  -11.7471  -16.0697 N   0  0  0  0  0  0  0  0  0  0  0  0
   21.7397   -9.3879  -15.8292 C   0  0  0  0  0  0  0  0  0  0  0  0
   22.0631   -9.5398  -14.5662 O   0  0  0  0  0  0  0  0  0  0  0  0
   21.8308   -8.0807  -16.2948 N   0  0  0  0  0  0  0  0  0  0  0  0
   22.0666   -7.8370  -17.7845 C   0  0  0  0  0  0  0  0  0  0  0  0
   20.8875   -6.9370  -18.0524 C   0  0  0  0  0  0  0  0  0  0  0  0
   20.6026   -6.2286  -16.7480 C   0  0  0  0  0  0  0  0  0  0  0  0
   21.7724   -6.7380  -15.8709 C   0  0  1  0  0  0  0  0  0  0  0  0
   21.6176   -6.3316  -14.5137 C   0  0  0  0  0  0  0  0  0  0  0  0
   22.3851   -5.2198  -14.0805 O   0  0  0  0  0  0  0  0  0  0  0  0
   20.8974   -6.8270  -13.6649 O   0  0  0  0  0  0  0  0  0  0  0  0
  2  3  1  0
  2  1  1  6
  4  3  1  0
  5  4  2  0
  6  7  1  0
  6  5  1  0
  7  8  2  0
  8  4  1  0
  9 10  2  0
  9  2  1  0
 12 11  1  0
 12 14  1  0
 13 12  2  0
 16 15  1  1
 15 14  1  0
 16 17  1  0
 17  9  1  0
 18 16  1  0
 19 18  2  0
 20 21  1  0
 20 18  1  0
 22 21  1  0
 23 22  1  0
 24 23  1  0
 24 20  1  0
 24 25  1  1
 26 25  1  0
 27 25  2  0
M  END
$$$$
