HQP.pdb
     RDKit          3D

 27 28  0  0  1  0  0  0  0  0999 V2000
   20.0499  -20.4715  -13.3406 N   0  0  0  0  0  0  0  0  0  0  0  0
   20.8096  -19.3940  -13.9014 C   0  0  1  0  0  0  0  0  0  0  0  0
   20.5997  -18.0896  -13.1577 C   0  0  0  0  0  0  0  0  0  0  0  0
   19.2129  -17.6409  -13.4679 C   0  0  0  0  0  0  0  0  0  0  0  0
   18.0946  -17.6659  -12.6657 C   0  0  0  0  0  0  0  0  0  0  0  0
   17.0595  -17.1637  -13.3521 N   0  0  0  0  0  0  0  0  0  0  0  0
   17.5206  -16.8285  -14.5667 C   0  0  0  0  0  0  0  0  0  0  0  0
   18.8394  -17.1179  -14.6454 N   0  0  0  0  0  0  0  0  0  0  0  0
   22.2838  -19.6864  -13.8361 C   0  0  0  0  0  0  0  0  0  0  0  0
   22.9243  -19.5366  -12.7665 O   0  0  0  0  0  0  0  0  0  0  0  0
   25.1426  -22.6584  -11.9430 N   0  0  0  0  0  0  0  0  0  0  0  0
   25.1098  -23.1187  -13.2839 C   0  0  0  0  0  0  0  0  0  0  0  0
   26.0693  -23.8342  -13.6722 O   0  0  0  0  0  0  0  0  0  0  0  0
   23.9772  -22.7563  -14.1716 C   0  0  0  0  0  0  0  0  0  0  0  0
   24.4937  -21.8992  -15.2871 C   0  0  0  0  0  0  0  0  0  0  0  0
   24.4638  -20.4110  -14.8973 C   0  0  2  0  0  0  0  0  0  0  0  0
   22.9946  -20.1368  -14.9688 N   0  0  0  0  0  0  0  0  0  0  0  0
   25.1817  -19.6799  -15.9259 C   0  0  0  0  0  0  0  0  0  0  0  0
   24.5307  -19.6325  -17.0647 O   0  0  0  0  0  0  0  0  0  0  0  0
   26.4106  -19.0291  -15.9366 N   0  0  0  0  0  0  0  0  0  0  0  0
   26.9015  -18.3468  -14.6607 C   0  0  0  0  0  0  0  0  0  0  0  0
   28.2377  -19.0339  -14.5406 C   0  0  0  0  0  0  0  0  0  0  0  0
   28.6504  -19.3863  -15.9512 C   0  0  0  0  0  0  0  0  0  0  0  0
   27.5092  -18.7316  -16.7675 C   0  0  1  0  0  0  0  0  0  0  0  0
   27.5903  -19.0836  -18.1461 C   0  0  0  0  0  0  0  0  0  0  0  0
   28.4587  -18.3117  -18.9602 O   0  0  0  0  0  0  0  0  0  0  0  0
   26.9981  -19.9788  -18.7229 O   0  0  0  0  0  0  0  0  0  0  0  0
  2  3  1  0
  2  1  1  1
  4  3  1  0
  5  4  2  0
  6  7  1  0
  6  5  1  0
  7  8  2  0
  8  4  1  0
  9 10  2  0
  9  2  1  0
 12 11  1  0
 12 14  1  0
 13 12  2  0
 16 15  1  6
 15 14  1  0
 16 17  1  0
 17  9  1  0
 18 16  1  0
 19 18  2  0
 20 21  1  0
 20 18  1  0
 22 21  1  0
 23 22  1  0
 24 23  1  0
 24 20  1  0
 24 25  1  6
 26 25  1  0
 27 25  2  0
M  END
$$$$
