HQP.pdb
     RDKit          3D

 27 28  0  0  1  0  0  0  0  0999 V2000
   27.2689  -18.3212  -14.9103 N   0  0  0  0  0  0  0  0  0  0  0  0
   27.0484  -19.4542  -15.7590 C   0  0  1  0  0  0  0  0  0  0  0  0
   28.3313  -20.1962  -16.0785 C   0  0  0  0  0  0  0  0  0  0  0  0
   29.1705  -19.2672  -16.8870 C   0  0  0  0  0  0  0  0  0  0  0  0
   29.2978  -17.9007  -16.7811 C   0  0  0  0  0  0  0  0  0  0  0  0
   30.1616  -17.4741  -17.7121 N   0  0  0  0  0  0  0  0  0  0  0  0
   30.5705  -18.5560  -18.3921 C   0  0  0  0  0  0  0  0  0  0  0  0
   29.9675  -19.6588  -17.8925 N   0  0  0  0  0  0  0  0  0  0  0  0
   26.1364  -20.4507  -15.0970 C   0  0  0  0  0  0  0  0  0  0  0  0
   25.8793  -21.5519  -15.6429 O   0  0  0  0  0  0  0  0  0  0  0  0
   25.2001  -20.6316   -9.1209 N   0  0  0  0  0  0  0  0  0  0  0  0
   26.3167  -20.9803   -9.9224 C   0  0  0  0  0  0  0  0  0  0  0  0
   27.4353  -21.0583   -9.3513 O   0  0  0  0  0  0  0  0  0  0  0  0
   26.1445  -21.2376  -11.3737 C   0  0  0  0  0  0  0  0  0  0  0  0
   24.7427  -20.8796  -11.7640 C   0  0  0  0  0  0  0  0  0  0  0  0
   24.5147  -21.1073  -13.2687 C   0  0  2  0  0  0  0  0  0  0  0  0
   25.5411  -20.1841  -13.8457 N   0  0  0  0  0  0  0  0  0  0  0  0
   23.1710  -20.6517  -13.5765 C   0  0  0  0  0  0  0  0  0  0  0  0
   22.9103  -19.4647  -13.0807 O   0  0  0  0  0  0  0  0  0  0  0  0
   22.1208  -21.2239  -14.2859 N   0  0  0  0  0  0  0  0  0  0  0  0
   22.4260  -22.2992  -15.3276 C   0  0  0  0  0  0  0  0  0  0  0  0
   21.5233  -23.3843  -14.7987 C   0  0  0  0  0  0  0  0  0  0  0  0
   20.3863  -22.6737  -14.1013 C   0  0  0  0  0  0  0  0  0  0  0  0
   20.7183  -21.1956  -14.4210 C   0  0  1  0  0  0  0  0  0  0  0  0
   19.8620  -20.3064  -13.7088 C   0  0  0  0  0  0  0  0  0  0  0  0
   20.1093  -20.1437  -12.3213 O   0  0  0  0  0  0  0  0  0  0  0  0
   18.9291  -19.6578  -14.1488 O   0  0  0  0  0  0  0  0  0  0  0  0
  2  3  1  0
  2  1  1  1
  4  3  1  0
  5  4  2  0
  6  7  1  0
  6  5  1  0
  7  8  2  0
  8  4  1  0
  9 10  2  0
  9  2  1  0
 12 11  1  0
 12 14  1  0
 13 12  2  0
 16 15  1  1
 15 14  1  0
 16 17  1  0
 17  9  1  0
 18 16  1  0
 19 18  2  0
 20 21  1  0
 20 18  1  0
 22 21  1  0
 23 22  1  0
 24 23  1  0
 24 20  1  0
 24 25  1  1
 26 25  1  0
 27 25  2  0
M  END
$$$$
