HQP.pdb
     RDKit          3D

 27 28  0  0  1  0  0  0  0  0999 V2000
   24.7542  -13.0868  -17.3259 N   0  0  0  0  0  0  0  0  0  0  0  0
   24.9863  -11.8211  -16.6960 C   0  0  1  0  0  0  0  0  0  0  0  0
   26.3220  -11.2179  -17.0841 C   0  0  0  0  0  0  0  0  0  0  0  0
   27.3683  -12.1883  -16.6547 C   0  0  0  0  0  0  0  0  0  0  0  0
   27.2731  -13.2201  -15.7486 C   0  0  0  0  0  0  0  0  0  0  0  0
   28.4599  -13.8367  -15.6701 N   0  0  0  0  0  0  0  0  0  0  0  0
   29.2877  -13.2018  -16.5138 C   0  0  0  0  0  0  0  0  0  0  0  0
   28.6261  -12.1904  -17.1210 N   0  0  0  0  0  0  0  0  0  0  0  0
   23.9370  -10.8213  -17.0988 C   0  0  0  0  0  0  0  0  0  0  0  0
   23.2402  -10.9968  -18.1285 O   0  0  0  0  0  0  0  0  0  0  0  0
   19.5045  -11.3738  -14.8681 N   0  0  0  0  0  0  0  0  0  0  0  0
   19.0534  -10.1727  -15.4722 C   0  0  0  0  0  0  0  0  0  0  0  0
   17.8128   -9.9629  -15.4838 O   0  0  0  0  0  0  0  0  0  0  0  0
   20.0273   -9.2194  -16.0596 C   0  0  0  0  0  0  0  0  0  0  0  0
   21.4039   -9.7982  -15.9353 C   0  0  0  0  0  0  0  0  0  0  0  0
   22.4567   -8.8483  -16.5329 C   0  0  2  0  0  0  0  0  0  0  0  0
   23.7003   -9.6571  -16.3372 N   0  0  0  0  0  0  0  0  0  0  0  0
   22.4772   -7.6525  -15.7098 C   0  0  0  0  0  0  0  0  0  0  0  0
   22.4646   -7.9191  -14.4247 O   0  0  0  0  0  0  0  0  0  0  0  0
   22.5066   -6.2966  -16.0174 N   0  0  0  0  0  0  0  0  0  0  0  0
   22.8489   -5.8649  -17.4424 C   0  0  0  0  0  0  0  0  0  0  0  0
   21.6311   -5.0206  -17.7181 C   0  0  0  0  0  0  0  0  0  0  0  0
   21.1823   -4.4904  -16.3757 C   0  0  0  0  0  0  0  0  0  0  0  0
   22.3090   -5.0197  -15.4549 C   0  0  1  0  0  0  0  0  0  0  0  0
   22.0082   -4.7863  -14.0815 C   0  0  0  0  0  0  0  0  0  0  0  0
   21.2852   -5.7972  -13.3974 O   0  0  0  0  0  0  0  0  0  0  0  0
   22.2987   -3.8119  -13.4101 O   0  0  0  0  0  0  0  0  0  0  0  0
  2  3  1  0
  2  1  1  6
  4  3  1  0
  5  4  2  0
  6  7  1  0
  6  5  1  0
  7  8  2  0
  8  4  1  0
  9 10  2  0
  9  2  1  0
 12 11  1  0
 12 14  1  0
 13 12  2  0
 16 15  1  1
 15 14  1  0
 16 17  1  0
 17  9  1  0
 18 16  1  0
 19 18  2  0
 20 21  1  0
 20 18  1  0
 22 21  1  0
 23 22  1  0
 24 23  1  0
 24 20  1  0
 24 25  1  1
 26 25  1  0
 27 25  2  0
M  END
$$$$
