MTE.pdb
     RDKit          3D

 25 24  0  0  1  0  0  0  0  0999 V2000
   26.4881  -15.5760  -15.0797 C   0  0  0  0  0  0  0  0  0  0  0  0
   25.2674  -14.2842  -15.4320 S   0  0  0  0  0  0  0  0  0  0  0  0
   24.8463  -14.2224  -17.1869 C   0  0  0  0  0  0  0  0  0  0  0  0
   23.9099  -13.1207  -17.5263 C   0  0  0  0  0  0  0  0  0  0  0  0
   22.6331  -13.0741  -16.7643 C   0  0  2  0  0  0  0  0  0  0  0  0
   21.8558  -14.2838  -17.0088 N   0  0  0  0  0  0  0  0  0  0  0  0
   21.8044  -11.8681  -17.0045 C   0  0  0  0  0  0  0  0  0  0  0  0
   21.2683  -11.7393  -18.1301 O   0  0  0  0  0  0  0  0  0  0  0  0
   18.5965  -11.0317  -16.0823 C   0  0  0  0  0  0  0  0  0  0  0  0
   19.4116   -9.8764  -15.5601 C   0  0  1  0  0  0  0  0  0  0  0  0
   19.7147  -10.2431  -14.2159 O   0  0  0  0  0  0  0  0  0  0  0  0
   20.7392   -9.6846  -16.2490 C   0  0  2  0  0  0  0  0  0  0  0  0
   21.5807  -10.8615  -16.0547 N   0  0  0  0  0  0  0  0  0  0  0  0
   21.5198   -8.5226  -15.7120 C   0  0  0  0  0  0  0  0  0  0  0  0
   22.4765   -8.7660  -14.8907 O   0  0  0  0  0  0  0  0  0  0  0  0
   21.2901   -7.1753  -16.0380 N   0  0  0  0  0  0  0  0  0  0  0  0
   21.9817   -6.0475  -15.5362 C   0  0  1  0  0  0  0  0  0  0  0  0
   22.0337   -4.8301  -16.4372 C   0  0  0  0  0  0  0  0  0  0  0  0
   22.8660   -3.7082  -15.8720 C   0  0  0  0  0  0  0  0  0  0  0  0
   22.7786   -2.4902  -16.7356 C   0  0  0  0  0  0  0  0  0  0  0  0
   23.3841   -2.5069  -17.8355 O   0  0  0  0  0  0  0  0  0  0  0  0
   21.6655   -5.6242  -14.1707 C   0  0  0  0  0  0  0  0  0  0  0  0
   22.7587   -5.2603  -13.3564 O   0  0  0  0  0  0  0  0  0  0  0  0
   22.0579   -1.3760  -16.3468 O   0  0  0  0  0  0  0  0  0  0  0  0
   20.5278   -5.5630  -13.6855 O   0  0  0  0  0  0  0  0  0  0  0  0
  2  1  1  0
  3  2  1  0
  4  3  1  0
  5  4  1  0
  5  6  1  6
  7  5  1  0
  7 13  1  0
  8  7  2  0
 10  9  1  6
 10 12  1  0
 11 10  1  0
 12 13  1  1
 12 14  1  0
 14 16  1  0
 15 14  2  0
 16 17  1  0
 17 22  1  0
 18 19  1  0
 17 18  1  6
 20 21  2  0
 20 19  1  0
 22 25  2  0
 22 23  1  0
 24 20  1  0
M  END
$$$$
