MTE.pdb
     RDKit          3D

 25 24  0  0  1  0  0  0  0  0999 V2000
   29.3848  -19.2348   -6.1664 C   0  0  0  0  0  0  0  0  0  0  0  0
   27.5761  -19.1287   -6.1914 S   0  0  0  0  0  0  0  0  0  0  0  0
   26.8336  -20.5572   -7.0093 C   0  0  0  0  0  0  0  0  0  0  0  0
   27.0274  -20.5555   -8.4818 C   0  0  0  0  0  0  0  0  0  0  0  0
   25.8004  -20.4373   -9.3145 C   0  0  2  0  0  0  0  0  0  0  0  0
   24.8973  -21.5497   -9.0419 N   0  0  0  0  0  0  0  0  0  0  0  0
   26.0425  -20.3115  -10.7720 C   0  0  0  0  0  0  0  0  0  0  0  0
   27.1818  -20.6041  -11.2048 O   0  0  0  0  0  0  0  0  0  0  0  0
   26.9751  -21.6958  -13.0647 C   0  0  0  0  0  0  0  0  0  0  0  0
   25.7008  -21.1674  -13.6719 C   0  0  1  0  0  0  0  0  0  0  0  0
   24.7035  -22.0959  -13.2519 O   0  0  0  0  0  0  0  0  0  0  0  0
   25.2665  -19.8229  -13.1452 C   0  0  2  0  0  0  0  0  0  0  0  0
   25.0803  -19.8863  -11.6987 N   0  0  0  0  0  0  0  0  0  0  0  0
   23.9574  -19.3621  -13.7126 C   0  0  0  0  0  0  0  0  0  0  0  0
   22.8826  -19.6804  -13.0863 O   0  0  0  0  0  0  0  0  0  0  0  0
   23.8080  -18.6010  -14.8842 N   0  0  0  0  0  0  0  0  0  0  0  0
   22.5940  -18.2006  -15.4910 C   0  0  1  0  0  0  0  0  0  0  0  0
   22.7089  -17.2898  -16.6967 C   0  0  0  0  0  0  0  0  0  0  0  0
   21.3735  -16.8371  -17.2282 C   0  0  0  0  0  0  0  0  0  0  0  0
   21.5458  -15.9352  -18.4088 C   0  0  0  0  0  0  0  0  0  0  0  0
   20.5138  -15.5747  -19.0266 O   0  0  0  0  0  0  0  0  0  0  0  0
   21.6102  -19.2485  -15.7697 C   0  0  0  0  0  0  0  0  0  0  0  0
   20.2826  -18.9866  -15.3703 O   0  0  0  0  0  0  0  0  0  0  0  0
   22.7953  -15.5054  -18.8167 O   0  0  0  0  0  0  0  0  0  0  0  0
   21.8533  -20.3303  -16.3212 O   0  0  0  0  0  0  0  0  0  0  0  0
  2  1  1  0
  3  2  1  0
  4  3  1  0
  5  4  1  0
  5  6  1  6
  7  5  1  0
  7 13  1  0
  8  7  2  0
 10  9  1  1
 10 12  1  0
 11 10  1  0
 12 13  1  1
 12 14  1  0
 14 16  1  0
 15 14  2  0
 16 17  1  0
 17 22  1  0
 18 19  1  0
 17 18  1  6
 20 21  2  0
 20 19  1  0
 22 25  2  0
 22 23  1  0
 24 20  1  0
M  END
$$$$
