MTE.pdb
     RDKit          3D

 25 24  0  0  1  0  0  0  0  0999 V2000
   27.0761  -12.8454  -15.3452 C   0  0  0  0  0  0  0  0  0  0  0  0
   26.5957  -14.5837  -15.5207 S   0  0  0  0  0  0  0  0  0  0  0  0
   24.8394  -14.7568  -15.9033 C   0  0  0  0  0  0  0  0  0  0  0  0
   24.0163  -13.6270  -15.4013 C   0  0  0  0  0  0  0  0  0  0  0  0
   22.5561  -13.6930  -15.6779 C   0  0  2  0  0  0  0  0  0  0  0  0
   22.2616  -14.8113  -16.5667 N   0  0  0  0  0  0  0  0  0  0  0  0
   21.9616  -12.4411  -16.2054 C   0  0  0  0  0  0  0  0  0  0  0  0
   22.0030  -12.2482  -17.4432 O   0  0  0  0  0  0  0  0  0  0  0  0
   18.4261  -11.2684  -16.1077 C   0  0  0  0  0  0  0  0  0  0  0  0
   19.2819  -10.1888  -15.4963 C   0  0  1  0  0  0  0  0  0  0  0  0
   19.2563  -10.4732  -14.0993 O   0  0  0  0  0  0  0  0  0  0  0  0
   20.7330  -10.2337  -15.9040 C   0  0  2  0  0  0  0  0  0  0  0  0
   21.3558  -11.4582  -15.4103 N   0  0  0  0  0  0  0  0  0  0  0  0
   21.5390   -9.1017  -15.3413 C   0  0  0  0  0  0  0  0  0  0  0  0
   22.3643   -9.3615  -14.3925 O   0  0  0  0  0  0  0  0  0  0  0  0
   21.4668   -7.7662  -15.7722 N   0  0  0  0  0  0  0  0  0  0  0  0
   22.2061   -6.6684  -15.2718 C   0  0  1  0  0  0  0  0  0  0  0  0
   22.7867   -5.7190  -16.3004 C   0  0  0  0  0  0  0  0  0  0  0  0
   23.6127   -4.6159  -15.6907 C   0  0  0  0  0  0  0  0  0  0  0  0
   24.1043   -3.6726  -16.7420 C   0  0  0  0  0  0  0  0  0  0  0  0
   23.7123   -2.4807  -16.6897 O   0  0  0  0  0  0  0  0  0  0  0  0
   21.5985   -5.8935  -14.1883 C   0  0  0  0  0  0  0  0  0  0  0  0
   20.1896   -5.8179  -14.1829 O   0  0  0  0  0  0  0  0  0  0  0  0
   24.9624   -4.0869  -17.7440 O   0  0  0  0  0  0  0  0  0  0  0  0
   22.2198   -5.3090  -13.2905 O   0  0  0  0  0  0  0  0  0  0  0  0
  2  1  1  0
  3  2  1  0
  4  3  1  0
  5  4  1  0
  5  6  1  6
  7  5  1  0
  7 13  1  0
  8  7  2  0
 10  9  1  6
 10 12  1  0
 11 10  1  0
 12 13  1  1
 12 14  1  0
 14 16  1  0
 15 14  2  0
 16 17  1  0
 17 22  1  0
 18 19  1  0
 17 18  1  6
 20 21  2  0
 20 19  1  0
 22 25  2  0
 22 23  1  0
 24 20  1  0
M  END
$$$$
