MTE.pdb
     RDKit          3D

 25 24  0  0  1  0  0  0  0  0999 V2000
   27.7939  -18.2537  -14.6167 C   0  0  0  0  0  0  0  0  0  0  0  0
   26.9944  -16.6847  -15.0438 S   0  0  0  0  0  0  0  0  0  0  0  0
   25.1940  -16.8217  -15.0144 C   0  0  0  0  0  0  0  0  0  0  0  0
   24.5045  -15.5661  -15.4068 C   0  0  0  0  0  0  0  0  0  0  0  0
   23.0289  -15.6430  -15.5790 C   0  0  2  0  0  0  0  0  0  0  0  0
   22.6529  -16.9392  -16.1319 N   0  0  0  0  0  0  0  0  0  0  0  0
   22.4339  -14.5457  -16.3795 C   0  0  0  0  0  0  0  0  0  0  0  0
   21.9548  -14.8317  -17.5019 O   0  0  0  0  0  0  0  0  0  0  0  0
   19.8249  -13.8015  -17.2915 C   0  0  0  0  0  0  0  0  0  0  0  0
   20.1590  -12.4746  -16.6595 C   0  0  1  0  0  0  0  0  0  0  0  0
   19.7671  -12.6290  -15.2972 O   0  0  0  0  0  0  0  0  0  0  0  0
   21.6303  -12.1453  -16.6349 C   0  0  2  0  0  0  0  0  0  0  0  0
   22.3719  -13.2084  -15.9634 N   0  0  0  0  0  0  0  0  0  0  0  0
   21.9401  -10.8849  -15.8844 C   0  0  0  0  0  0  0  0  0  0  0  0
   22.1667  -10.9734  -14.6236 O   0  0  0  0  0  0  0  0  0  0  0  0
   22.0056   -9.6016  -16.4529 N   0  0  0  0  0  0  0  0  0  0  0  0
   22.3229   -8.3918  -15.7912 C   0  0  1  0  0  0  0  0  0  0  0  0
   23.2259   -7.4299  -16.5367 C   0  0  0  0  0  0  0  0  0  0  0  0
   24.4457   -8.0934  -17.1222 C   0  0  0  0  0  0  0  0  0  0  0  0
   25.3315   -7.0901  -17.7897 C   0  0  0  0  0  0  0  0  0  0  0  0
   24.9814   -5.8846  -17.7557 O   0  0  0  0  0  0  0  0  0  0  0  0
   21.2127   -7.6472  -15.1939 C   0  0  0  0  0  0  0  0  0  0  0  0
   21.5489   -6.7168  -14.1880 O   0  0  0  0  0  0  0  0  0  0  0  0
   26.5002   -7.4649  -18.4267 O   0  0  0  0  0  0  0  0  0  0  0  0
   20.0196   -7.7715  -15.5016 O   0  0  0  0  0  0  0  0  0  0  0  0
  2  1  1  0
  3  2  1  0
  4  3  1  0
  5  4  1  0
  5  6  1  6
  7  5  1  0
  7 13  1  0
  8  7  2  0
 10  9  1  6
 10 12  1  0
 11 10  1  0
 12 13  1  1
 12 14  1  0
 14 16  1  0
 15 14  2  0
 16 17  1  0
 17 22  1  0
 18 19  1  0
 17 18  1  6
 20 21  2  0
 20 19  1  0
 22 25  2  0
 22 23  1  0
 24 20  1  0
M  END
$$$$
