MTE.pdb
     RDKit          3D

 25 24  0  0  1  0  0  0  0  0999 V2000
   16.4246  -12.8976  -15.8745 C   0  0  0  0  0  0  0  0  0  0  0  0
   17.0708  -14.0371  -17.1264 S   0  0  0  0  0  0  0  0  0  0  0  0
   18.7467  -13.5941  -17.6325 C   0  0  0  0  0  0  0  0  0  0  0  0
   19.4234  -12.6774  -16.6798 C   0  0  0  0  0  0  0  0  0  0  0  0
   20.7922  -12.2263  -17.0485 C   0  0  2  0  0  0  0  0  0  0  0  0
   21.6793  -13.3749  -17.1935 N   0  0  0  0  0  0  0  0  0  0  0  0
   21.3884  -11.2230  -16.1337 C   0  0  0  0  0  0  0  0  0  0  0  0
   21.4720  -11.5146  -14.9175 O   0  0  0  0  0  0  0  0  0  0  0  0
   24.7875  -10.1471  -16.0054 C   0  0  0  0  0  0  0  0  0  0  0  0
   23.9907   -8.8709  -16.0968 C   0  0  1  0  0  0  0  0  0  0  0  0
   23.9753   -8.5689  -17.4902 O   0  0  0  0  0  0  0  0  0  0  0  0
   22.5467   -9.0031  -15.6831 C   0  0  2  0  0  0  0  0  0  0  0  0
   21.8651   -9.9688  -16.5397 N   0  0  0  0  0  0  0  0  0  0  0  0
   21.7780   -7.7219  -15.8077 C   0  0  0  0  0  0  0  0  0  0  0  0
   20.7849   -7.6906  -16.6212 O   0  0  0  0  0  0  0  0  0  0  0  0
   22.0559   -6.5409  -15.0991 N   0  0  0  0  0  0  0  0  0  0  0  0
   21.2895   -5.3515  -15.0917 C   0  0  1  0  0  0  0  0  0  0  0  0
   19.8080   -5.5033  -14.8112 C   0  0  0  0  0  0  0  0  0  0  0  0
   19.0513   -4.2030  -14.8964 C   0  0  0  0  0  0  0  0  0  0  0  0
   17.6042   -4.4046  -14.5766 C   0  0  0  0  0  0  0  0  0  0  0  0
   17.2481   -5.5340  -14.1591 O   0  0  0  0  0  0  0  0  0  0  0  0
   21.8143   -4.2247  -14.3179 C   0  0  0  0  0  0  0  0  0  0  0  0
   21.2751   -2.9546  -14.6124 O   0  0  0  0  0  0  0  0  0  0  0  0
   16.6791   -3.3886  -14.7313 O   0  0  0  0  0  0  0  0  0  0  0  0
   22.6823   -4.3028  -13.4381 O   0  0  0  0  0  0  0  0  0  0  0  0
  2  1  1  0
  3  2  1  0
  4  3  1  0
  5  4  1  0
  5  6  1  1
  7  5  1  0
  7 13  1  0
  8  7  2  0
 10  9  1  6
 10 12  1  0
 11 10  1  0
 12 13  1  6
 12 14  1  0
 14 16  1  0
 15 14  2  0
 16 17  1  0
 17 22  1  0
 18 19  1  0
 17 18  1  1
 20 21  2  0
 20 19  1  0
 22 25  2  0
 22 23  1  0
 24 20  1  0
M  END
$$$$
