MTE.pdb
     RDKit          3D

 25 24  0  0  1  0  0  0  0  0999 V2000
   24.9159  -15.0392  -15.3141 C   0  0  0  0  0  0  0  0  0  0  0  0
   24.2651  -13.6656  -16.3004 S   0  0  0  0  0  0  0  0  0  0  0  0
   25.4411  -12.2990  -16.4017 C   0  0  0  0  0  0  0  0  0  0  0  0
   24.8958  -11.1073  -17.1006 C   0  0  0  0  0  0  0  0  0  0  0  0
   24.0514  -11.3663  -18.2976 C   0  0  2  0  0  0  0  0  0  0  0  0
   24.8198  -12.0792  -19.3118 N   0  0  0  0  0  0  0  0  0  0  0  0
   23.4097  -10.1645  -18.8831 C   0  0  0  0  0  0  0  0  0  0  0  0
   24.1306   -9.3739  -19.5360 O   0  0  0  0  0  0  0  0  0  0  0  0
   20.5579  -10.0834  -21.3001 C   0  0  0  0  0  0  0  0  0  0  0  0
   20.2085   -9.1404  -20.1774 C   0  0  1  0  0  0  0  0  0  0  0  0
   19.3845   -9.9187  -19.3123 O   0  0  0  0  0  0  0  0  0  0  0  0
   21.3841   -8.6958  -19.3442 C   0  0  2  0  0  0  0  0  0  0  0  0
   22.0487   -9.8540  -18.7546 N   0  0  0  0  0  0  0  0  0  0  0  0
   20.9936   -7.8124  -18.1974 C   0  0  0  0  0  0  0  0  0  0  0  0
   20.7482   -8.3664  -17.0652 O   0  0  0  0  0  0  0  0  0  0  0  0
   20.8748   -6.4137  -18.2591 N   0  0  0  0  0  0  0  0  0  0  0  0
   20.6405   -5.5301  -17.1791 C   0  0  1  0  0  0  0  0  0  0  0  0
   21.5238   -5.7032  -15.9599 C   0  0  0  0  0  0  0  0  0  0  0  0
   21.1985   -4.7383  -14.8492 C   0  0  0  0  0  0  0  0  0  0  0  0
   22.1214   -4.9291  -13.6878 C   0  0  0  0  0  0  0  0  0  0  0  0
   21.7336   -5.6626  -12.7453 O   0  0  0  0  0  0  0  0  0  0  0  0
   20.5282   -4.1050  -17.4954 C   0  0  0  0  0  0  0  0  0  0  0  0
   20.0568   -3.2671  -16.4628 O   0  0  0  0  0  0  0  0  0  0  0  0
   23.3635   -4.3230  -13.6415 O   0  0  0  0  0  0  0  0  0  0  0  0
   20.8121   -3.5890  -18.5848 O   0  0  0  0  0  0  0  0  0  0  0  0
  2  1  1  0
  3  2  1  0
  4  3  1  0
  5  4  1  0
  5  6  1  6
  7  5  1  0
  7 13  1  0
  8  7  2  0
 10  9  1  6
 10 12  1  0
 11 10  1  0
 12 13  1  1
 12 14  1  0
 14 16  1  0
 15 14  2  0
 16 17  1  0
 17 22  1  0
 18 19  1  0
 17 18  1  1
 20 21  2  0
 20 19  1  0
 22 25  2  0
 22 23  1  0
 24 20  1  0
M  END
$$$$
