MTE.pdb
     RDKit          3D

 25 24  0  0  1  0  0  0  0  0999 V2000
   17.4167  -19.2254  -15.7779 C   0  0  0  0  0  0  0  0  0  0  0  0
   18.2041  -20.8538  -15.6704 S   0  0  0  0  0  0  0  0  0  0  0  0
   19.9749  -20.7644  -16.0129 C   0  0  0  0  0  0  0  0  0  0  0  0
   20.6041  -19.5119  -15.5218 C   0  0  0  0  0  0  0  0  0  0  0  0
   22.0556  -19.3428  -15.7998 C   0  0  2  0  0  0  0  0  0  0  0  0
   22.8049  -20.4789  -15.2753 N   0  0  0  0  0  0  0  0  0  0  0  0
   22.6412  -18.0686  -15.3178 C   0  0  0  0  0  0  0  0  0  0  0  0
   23.5708  -18.1303  -14.4794 O   0  0  0  0  0  0  0  0  0  0  0  0
   25.1054  -16.7884  -15.2805 C   0  0  0  0  0  0  0  0  0  0  0  0
   24.3490  -15.6209  -15.8607 C   0  0  1  0  0  0  0  0  0  0  0  0
   24.3388  -15.8748  -17.2638 O   0  0  0  0  0  0  0  0  0  0  0  0
   22.9028  -15.5409  -15.4413 C   0  0  2  0  0  0  0  0  0  0  0  0
   22.2233  -16.7982  -15.7385 N   0  0  0  0  0  0  0  0  0  0  0  0
   22.1372  -14.4739  -16.1648 C   0  0  0  0  0  0  0  0  0  0  0  0
   21.5634  -14.7869  -17.2701 O   0  0  0  0  0  0  0  0  0  0  0  0
   21.9923  -13.1464  -15.7277 N   0  0  0  0  0  0  0  0  0  0  0  0
   21.2488  -12.1191  -16.3555 C   0  0  1  0  0  0  0  0  0  0  0  0
   20.1280  -11.5024  -15.5431 C   0  0  0  0  0  0  0  0  0  0  0  0
   19.3204  -10.4924  -16.3167 C   0  0  0  0  0  0  0  0  0  0  0  0
   18.2043   -9.9485  -15.4827 C   0  0  0  0  0  0  0  0  0  0  0  0
   18.1256  -10.3290  -14.2886 O   0  0  0  0  0  0  0  0  0  0  0  0
   22.0074  -11.0557  -17.0169 C   0  0  0  0  0  0  0  0  0  0  0  0
   21.2853  -10.2232  -17.8980 O   0  0  0  0  0  0  0  0  0  0  0  0
   17.2830   -9.0553  -15.9979 O   0  0  0  0  0  0  0  0  0  0  0  0
   23.2163  -10.8363  -16.8624 O   0  0  0  0  0  0  0  0  0  0  0  0
  2  1  1  0
  3  2  1  0
  4  3  1  0
  5  4  1  0
  5  6  1  1
  7  5  1  0
  7 13  1  0
  8  7  2  0
 10  9  1  1
 10 12  1  0
 11 10  1  0
 12 13  1  6
 12 14  1  0
 14 16  1  0
 15 14  2  0
 16 17  1  0
 17 22  1  0
 18 19  1  0
 17 18  1  1
 20 21  2  0
 20 19  1  0
 22 25  2  0
 22 23  1  0
 24 20  1  0
M  END
$$$$
