MTE.pdb
     RDKit          3D

 25 24  0  0  1  0  0  0  0  0999 V2000
   19.2054  -32.3720   -5.6430 C   0  0  0  0  0  0  0  0  0  0  0  0
   18.7565  -32.3568   -7.3984 S   0  0  0  0  0  0  0  0  0  0  0  0
   20.1935  -32.6246   -8.4586 C   0  0  0  0  0  0  0  0  0  0  0  0
   21.2603  -33.4272   -7.8077 C   0  0  0  0  0  0  0  0  0  0  0  0
   22.5118  -33.6270   -8.5866 C   0  0  2  0  0  0  0  0  0  0  0  0
   22.2138  -34.2634   -9.8647 N   0  0  0  0  0  0  0  0  0  0  0  0
   23.5805  -34.3689   -7.8750 C   0  0  0  0  0  0  0  0  0  0  0  0
   23.9500  -35.4672   -8.3526 O   0  0  0  0  0  0  0  0  0  0  0  0
   26.2445  -35.1046   -8.3731 C   0  0  0  0  0  0  0  0  0  0  0  0
   26.5363  -34.5529   -7.0011 C   0  0  1  0  0  0  0  0  0  0  0  0
   26.8527  -33.1827   -7.2366 O   0  0  0  0  0  0  0  0  0  0  0  0
   25.3563  -34.5525   -6.0622 C   0  0  2  0  0  0  0  0  0  0  0  0
   24.2054  -33.9224   -6.7021 N   0  0  0  0  0  0  0  0  0  0  0  0
   25.6057  -33.7796   -4.8020 C   0  0  0  0  0  0  0  0  0  0  0  0
   24.8337  -32.7875   -4.5396 O   0  0  0  0  0  0  0  0  0  0  0  0
   26.6236  -34.0551   -3.8734 N   0  0  0  0  0  0  0  0  0  0  0  0
   26.4848  -34.1875   -2.4715 C   0  0  1  0  0  0  0  0  0  0  0  0
   25.2618  -34.9358   -1.9807 C   0  0  0  0  0  0  0  0  0  0  0  0
   24.1633  -34.0252   -1.4963 C   0  0  0  0  0  0  0  0  0  0  0  0
   23.8659  -34.2681   -0.0508 C   0  0  0  0  0  0  0  0  0  0  0  0
   22.9740  -33.5687    0.4897 O   0  0  0  0  0  0  0  0  0  0  0  0
   27.6599  -34.6406   -1.7247 C   0  0  0  0  0  0  0  0  0  0  0  0
   28.6413  -35.3383   -2.4600 O   0  0  0  0  0  0  0  0  0  0  0  0
   24.5440  -35.2282    0.6776 O   0  0  0  0  0  0  0  0  0  0  0  0
   27.8530  -34.4594   -0.5150 O   0  0  0  0  0  0  0  0  0  0  0  0
  2  1  1  0
  3  2  1  0
  4  3  1  0
  5  4  1  0
  5  6  1  6
  7  5  1  0
  7 13  1  0
  8  7  2  0
 10  9  1  6
 10 12  1  0
 11 10  1  0
 12 13  1  6
 12 14  1  0
 14 16  1  0
 15 14  2  0
 16 17  1  0
 17 22  1  0
 18 19  1  0
 17 18  1  6
 20 21  2  0
 20 19  1  0
 22 25  2  0
 22 23  1  0
 24 20  1  0
M  END
$$$$
