GRS.pdb
     RDKit          3D

 22 21  0  0  1  0  0  0  0  0999 V2000
   10.7252  -21.7218   18.1536 N   0  0  0  0  0  0  0  0  0  0  0  0
   10.7064  -21.1996   19.4824 C   0  0  0  0  0  0  0  0  0  0  0  0
   11.0826  -19.7834   19.5748 C   0  0  0  0  0  0  0  0  0  0  0  0
   12.0625  -19.2584   18.9857 O   0  0  0  0  0  0  0  0  0  0  0  0
    6.5797  -12.7146   18.7976 N   0  0  0  0  0  0  0  0  0  0  0  0
    7.9195  -12.9456   19.2054 C   0  0  0  0  0  0  0  0  0  0  0  0
    8.8707  -12.8736   18.3518 N   0  0  0  0  0  0  0  0  0  0  0  0
    8.2456  -13.2606   20.5589 N   0  0  0  0  0  0  0  0  0  0  0  0
    8.1695  -14.5947   21.0877 C   0  0  0  0  0  0  0  0  0  0  0  0
    9.3670  -15.3782   20.6321 C   0  0  0  0  0  0  0  0  0  0  0  0
    9.3772  -16.7880   21.1609 C   0  0  0  0  0  0  0  0  0  0  0  0
   10.5417  -17.5433   20.5304 C   0  0  2  0  0  0  0  0  0  0  0  0
   10.2558  -18.9444   20.4083 N   0  0  0  0  0  0  0  0  0  0  0  0
   11.7398  -17.3706   21.3838 C   0  0  0  0  0  0  0  0  0  0  0  0
   11.8402  -17.9601   22.4783 O   0  0  0  0  0  0  0  0  0  0  0  0
    9.8655  -13.0690   18.5812 O   0  0  0  0  0  0  0  0  0  0  0  0
   14.9260  -14.7221   20.2474 C   0  0  0  0  0  0  0  0  0  0  0  0
   15.1665  -16.0005   20.7402 C   0  0  1  0  0  0  0  0  0  0  0  0
   14.0595  -16.4512   21.6748 N   0  0  0  0  0  0  0  0  0  0  0  0
   12.8089  -16.5085   20.9458 C   0  0  0  0  0  0  0  0  0  0  0  0
   13.9530  -15.5920   22.8609 O   0  0  0  0  0  0  0  0  0  0  0  0
   14.9870  -15.4650   23.8008 O   0  0  0  0  0  0  0  0  0  0  0  0
  1  2  1  0
  2  3  1  0
  3 13  1  0
  4  3  2  0
  6  8  1  0
  6  5  1  0
  7  6  2  0
  9 10  1  0
  9  8  1  0
 11 10  1  0
 12 11  1  1
 12 14  1  0
 13 12  1  0
 14 19  1  0
 14 15  2  0
 16 17  1  0
 18 17  1  6
 18 20  1  0
 19 18  1  0
 20 21  1  0
 22 20  2  0
M  END
$$$$
