GRS.pdb
     RDKit          3D

 22 21  0  0  1  0  0  0  0  0999 V2000
    5.3777  -19.7424   20.3599 N   0  0  0  0  0  0  0  0  0  0  0  0
    5.2310  -18.8040   21.4259 C   0  0  0  0  0  0  0  0  0  0  0  0
    6.4747  -18.1162   21.7939 C   0  0  0  0  0  0  0  0  0  0  0  0
    7.6326  -18.5695   21.6021 O   0  0  0  0  0  0  0  0  0  0  0  0
   10.3741  -13.0983   19.0915 N   0  0  0  0  0  0  0  0  0  0  0  0
    8.9873  -13.0099   18.8020 C   0  0  0  0  0  0  0  0  0  0  0  0
    8.5969  -12.7303   17.6155 N   0  0  0  0  0  0  0  0  0  0  0  0
    7.9980  -13.2262   19.8080 N   0  0  0  0  0  0  0  0  0  0  0  0
    8.2751  -13.9188   21.0362 C   0  0  0  0  0  0  0  0  0  0  0  0
    7.0166  -14.0073   21.8509 C   0  0  0  0  0  0  0  0  0  0  0  0
    7.2303  -14.6748   23.1836 C   0  0  0  0  0  0  0  0  0  0  0  0
    7.4957  -16.1586   22.9556 C   0  0  2  0  0  0  0  0  0  0  0  0
    6.3414  -16.8239   22.4220 N   0  0  0  0  0  0  0  0  0  0  0  0
    7.8540  -16.7831   24.2499 C   0  0  0  0  0  0  0  0  0  0  0  0
    7.0794  -16.7300   25.2259 O   0  0  0  0  0  0  0  0  0  0  0  0
    7.5990  -12.7240   17.3247 O   0  0  0  0  0  0  0  0  0  0  0  0
   11.4800  -19.0672   24.7041 C   0  0  0  0  0  0  0  0  0  0  0  0
   10.2715  -19.3764   25.3196 C   0  0  1  0  0  0  0  0  0  0  0  0
    9.4705  -18.1250   25.6273 N   0  0  0  0  0  0  0  0  0  0  0  0
    9.1172  -17.4639   24.3876 C   0  0  0  0  0  0  0  0  0  0  0  0
   10.1857  -17.2200   26.5359 O   0  0  0  0  0  0  0  0  0  0  0  0
   10.5488  -17.5862   27.8408 O   0  0  0  0  0  0  0  0  0  0  0  0
  1  2  1  0
  2  3  1  0
  3 13  1  0
  4  3  2  0
  6  8  1  0
  6  5  1  0
  7  6  2  0
  9 10  1  0
  9  8  1  0
 11 10  1  0
 12 11  1  1
 12 14  1  0
 13 12  1  0
 14 19  1  0
 14 15  2  0
 16 17  1  0
 18 17  1  6
 18 20  1  0
 19 18  1  0
 20 21  1  0
 22 20  2  0
M  END
$$$$
