GRS.pdb
     RDKit          3D

 22 21  0  0  1  0  0  0  0  0999 V2000
    6.7568  -12.7534   19.1043 N   0  0  0  0  0  0  0  0  0  0  0  0
    8.1612  -12.5702   19.2851 C   0  0  0  0  0  0  0  0  0  0  0  0
    8.9076  -13.8188   19.4831 C   0  0  0  0  0  0  0  0  0  0  0  0
    8.3934  -14.9663   19.5271 O   0  0  0  0  0  0  0  0  0  0  0  0
   14.7981  -15.1742   16.0689 N   0  0  0  0  0  0  0  0  0  0  0  0
   14.1023  -16.4107   16.0269 C   0  0  0  0  0  0  0  0  0  0  0  0
   14.5077  -17.3483   15.2555 N   0  0  0  0  0  0  0  0  0  0  0  0
   12.9462  -16.6460   16.8303 N   0  0  0  0  0  0  0  0  0  0  0  0
   11.8431  -15.7272   16.8953 C   0  0  0  0  0  0  0  0  0  0  0  0
   12.2739  -14.4852   17.6216 C   0  0  0  0  0  0  0  0  0  0  0  0
   12.4974  -14.7175   19.0924 C   0  0  0  0  0  0  0  0  0  0  0  0
   11.1453  -14.8818   19.7773 C   0  0  2  0  0  0  0  0  0  0  0  0
   10.3377  -13.7037   19.6371 N   0  0  0  0  0  0  0  0  0  0  0  0
   11.3693  -15.1413   21.2181 C   0  0  0  0  0  0  0  0  0  0  0  0
   11.8238  -14.2547   21.9683 O   0  0  0  0  0  0  0  0  0  0  0  0
   14.0221  -18.2619   15.1562 O   0  0  0  0  0  0  0  0  0  0  0  0
    9.1491  -17.4727   23.9972 C   0  0  0  0  0  0  0  0  0  0  0  0
   10.4102  -17.8935   23.5878 C   0  0  2  0  0  0  0  0  0  0  0  0
   11.2769  -16.7205   23.1697 N   0  0  0  0  0  0  0  0  0  0  0  0
   11.0583  -16.4381   21.7657 C   0  0  0  0  0  0  0  0  0  0  0  0
   12.6980  -16.9524   23.4578 O   0  0  0  0  0  0  0  0  0  0  0  0
   13.2037  -17.0336   24.7642 O   0  0  0  0  0  0  0  0  0  0  0  0
  1  2  1  0
  2  3  1  0
  3 13  1  0
  4  3  2  0
  6  8  1  0
  6  5  1  0
  7  6  2  0
  9 10  1  0
  9  8  1  0
 11 10  1  0
 12 11  1  6
 12 14  1  0
 13 12  1  0
 14 19  1  0
 14 15  2  0
 16 17  1  0
 18 17  1  1
 18 20  1  0
 19 18  1  0
 20 21  1  0
 22 20  2  0
M  END
$$$$
