GRS.pdb
     RDKit          3D

 22 21  0  0  1  0  0  0  0  0999 V2000
    7.6701  -17.6252   18.5884 N   0  0  0  0  0  0  0  0  0  0  0  0
    7.1354  -17.4836   19.9047 C   0  0  0  0  0  0  0  0  0  0  0  0
    8.1022  -16.9923   20.8944 C   0  0  0  0  0  0  0  0  0  0  0  0
    9.3304  -16.8243   20.6798 O   0  0  0  0  0  0  0  0  0  0  0  0
    5.1833  -11.6480   26.4894 N   0  0  0  0  0  0  0  0  0  0  0  0
    6.5244  -12.1073   26.5631 C   0  0  0  0  0  0  0  0  0  0  0  0
    7.2475  -11.8135   27.5776 N   0  0  0  0  0  0  0  0  0  0  0  0
    7.1019  -12.8991   25.5254 N   0  0  0  0  0  0  0  0  0  0  0  0
    6.4879  -13.0609   24.2362 C   0  0  0  0  0  0  0  0  0  0  0  0
    7.3120  -14.0053   23.4090 C   0  0  0  0  0  0  0  0  0  0  0  0
    7.7346  -15.2325   24.1722 C   0  0  0  0  0  0  0  0  0  0  0  0
    8.4653  -16.1763   23.2238 C   0  0  2  0  0  0  0  0  0  0  0  0
    7.5886  -16.6836   22.2070 N   0  0  0  0  0  0  0  0  0  0  0  0
    9.0037  -17.3139   24.0045 C   0  0  0  0  0  0  0  0  0  0  0  0
    8.2595  -18.2354   24.3951 O   0  0  0  0  0  0  0  0  0  0  0  0
    8.2461  -12.0866   27.6708 O   0  0  0  0  0  0  0  0  0  0  0  0
   13.1703  -17.6321   24.5389 C   0  0  0  0  0  0  0  0  0  0  0  0
   12.3732  -18.7690   24.4563 C   0  0  1  0  0  0  0  0  0  0  0  0
   10.9791  -18.5085   24.9955 N   0  0  0  0  0  0  0  0  0  0  0  0
   10.4095  -17.3604   24.3200 C   0  0  0  0  0  0  0  0  0  0  0  0
   10.9737  -18.3333   26.4534 O   0  0  0  0  0  0  0  0  0  0  0  0
   11.3895  -19.3386   27.3397 O   0  0  0  0  0  0  0  0  0  0  0  0
  1  2  1  0
  2  3  1  0
  3 13  1  0
  4  3  2  0
  6  8  1  0
  6  5  1  0
  7  6  2  0
  9 10  1  0
  9  8  1  0
 11 10  1  0
 12 11  1  1
 12 14  1  0
 13 12  1  0
 14 19  1  0
 14 15  2  0
 16 17  1  0
 18 17  1  6
 18 20  1  0
 19 18  1  0
 20 21  1  0
 22 20  2  0
M  END
$$$$
