GRS.pdb
     RDKit          3D

 22 21  0  0  1  0  0  0  0  0999 V2000
    7.8661  -13.1408   18.4164 N   0  0  0  0  0  0  0  0  0  0  0  0
    8.6667  -13.3805   19.5741 C   0  0  0  0  0  0  0  0  0  0  0  0
    7.9081  -13.8487   20.7406 C   0  0  0  0  0  0  0  0  0  0  0  0
    6.8372  -13.3359   21.1567 O   0  0  0  0  0  0  0  0  0  0  0  0
    9.1929  -20.0273   26.9396 N   0  0  0  0  0  0  0  0  0  0  0  0
    7.8274  -19.6471   27.0133 C   0  0  0  0  0  0  0  0  0  0  0  0
    7.1423  -19.9181   28.0601 N   0  0  0  0  0  0  0  0  0  0  0  0
    7.1830  -18.9610   25.9402 N   0  0  0  0  0  0  0  0  0  0  0  0
    7.8399  -18.6714   24.6953 C   0  0  0  0  0  0  0  0  0  0  0  0
    7.5128  -17.2667   24.2766 C   0  0  0  0  0  0  0  0  0  0  0  0
    8.1953  -16.8661   22.9956 C   0  0  0  0  0  0  0  0  0  0  0  0
    7.8397  -15.4178   22.6789 C   0  0  2  0  0  0  0  0  0  0  0  0
    8.4449  -14.9835   21.4522 N   0  0  0  0  0  0  0  0  0  0  0  0
    8.3216  -14.5564   23.7831 C   0  0  0  0  0  0  0  0  0  0  0  0
    9.5413  -14.3900   23.9837 O   0  0  0  0  0  0  0  0  0  0  0  0
    6.1710  -19.5819   28.2149 O   0  0  0  0  0  0  0  0  0  0  0  0
    5.5365  -12.7942   26.4267 C   0  0  0  0  0  0  0  0  0  0  0  0
    6.6638  -12.0669   26.0588 C   0  0  1  0  0  0  0  0  0  0  0  0
    7.8112  -12.9815   25.6726 N   0  0  0  0  0  0  0  0  0  0  0  0
    7.3689  -13.8980   24.6416 C   0  0  0  0  0  0  0  0  0  0  0  0
    8.3616  -13.6976   26.8304 O   0  0  0  0  0  0  0  0  0  0  0  0
    9.0116  -13.0436   27.8880 O   0  0  0  0  0  0  0  0  0  0  0  0
  1  2  1  0
  2  3  1  0
  3 13  1  0
  4  3  2  0
  6  8  1  0
  6  5  1  0
  7  6  2  0
  9 10  1  0
  9  8  1  0
 11 10  1  0
 12 11  1  1
 12 14  1  0
 13 12  1  0
 14 19  1  0
 14 15  2  0
 16 17  1  0
 18 17  1  6
 18 20  1  0
 19 18  1  0
 20 21  1  0
 22 20  2  0
M  END
$$$$
