QDP.pdb
     RDKit          3D

 25 25  0  0  1  0  0  0  0  0999 V2000
   21.3283  -13.5203  -18.8024 N   0  0  0  0  0  0  0  0  0  0  0  0
   20.2176  -14.2708  -18.3702 C   0  0  0  0  0  0  0  0  0  0  0  0
   20.2761  -15.5241  -18.4476 O   0  0  0  0  0  0  0  0  0  0  0  0
   19.0053  -13.6023  -17.8357 C   0  0  0  0  0  0  0  0  0  0  0  0
   19.1437  -12.0988  -17.8751 C   0  0  0  0  0  0  0  0  0  0  0  0
   19.2568  -11.5393  -16.4958 C   0  0  2  0  0  0  0  0  0  0  0  0
   18.1432  -11.9238  -15.6829 N   0  0  0  0  0  0  0  0  0  0  0  0
   19.4485  -10.0683  -16.5412 C   0  0  0  0  0  0  0  0  0  0  0  0
   20.3855   -9.5026  -17.1477 O   0  0  0  0  0  0  0  0  0  0  0  0
   18.5064   -9.2076  -15.8482 N   0  0  0  0  0  0  0  0  0  0  0  0
   18.6809   -7.7888  -15.8139 C   0  0  1  0  0  0  0  0  0  0  0  0
   17.3862   -7.1389  -15.3901 C   0  0  0  0  0  0  0  0  0  0  0  0
   17.4914   -5.6786  -15.5314 C   0  0  0  0  0  0  0  0  0  0  0  0
   17.4745   -5.0732  -16.6204 O   0  0  0  0  0  0  0  0  0  0  0  0
   19.7309   -7.2678  -14.9250 C   0  0  0  0  0  0  0  0  0  0  0  0
   19.7517   -7.8984  -13.7819 O   0  0  0  0  0  0  0  0  0  0  0  0
   17.6220   -4.8520  -14.3996 O   0  0  0  0  0  0  0  0  0  0  0  0
   20.6416   -6.2423  -15.1588 N   0  0  0  0  0  0  0  0  0  0  0  0
   20.6030   -5.4140  -16.3516 C   0  0  0  0  0  0  0  0  0  0  0  0
   22.0597   -5.1987  -16.6607 C   0  0  0  0  0  0  0  0  0  0  0  0
   22.8299   -5.6271  -15.4425 C   0  0  0  0  0  0  0  0  0  0  0  0
   21.7194   -5.7786  -14.3729 C   0  0  1  0  0  0  0  0  0  0  0  0
   21.5544   -4.4178  -13.7972 C   0  0  0  0  0  0  0  0  0  0  0  0
   22.5418   -3.8478  -12.9850 O   0  0  0  0  0  0  0  0  0  0  0  0
   20.5426   -3.7115  -13.9991 O   0  0  0  0  0  0  0  0  0  0  0  0
  1  2  1  0
  2  4  1  0
  3  2  2  0
  4  5  1  0
  6  8  1  0
  6  5  1  0
  6  7  1  1
  8  9  2  0
 10 11  1  0
 10  8  1  0
 11 12  1  1
 12 13  1  0
 13 14  2  0
 13 17  1  0
 15 11  1  0
 16 15  2  0
 18 15  1  0
 18 22  1  0
 19 20  1  0
 19 18  1  0
 20 21  1  0
 21 22  1  0
 22 23  1  6
 23 24  1  0
 25 23  2  0
M  END
$$$$
