QDP.pdb
     RDKit          3D

 25 25  0  0  1  0  0  0  0  0999 V2000
   20.4638  -12.3829  -19.2084 N   0  0  0  0  0  0  0  0  0  0  0  0
   21.8228  -12.4031  -19.5779 C   0  0  0  0  0  0  0  0  0  0  0  0
   22.3846  -13.5174  -19.7294 O   0  0  0  0  0  0  0  0  0  0  0  0
   22.5771  -11.1419  -19.7844 C   0  0  0  0  0  0  0  0  0  0  0  0
   21.6847   -9.9344  -19.6214 C   0  0  0  0  0  0  0  0  0  0  0  0
   22.1093   -9.1145  -18.4485 C   0  0  2  0  0  0  0  0  0  0  0  0
   22.0888   -9.8812  -17.2400 N   0  0  0  0  0  0  0  0  0  0  0  0
   21.2957   -7.8769  -18.3522 C   0  0  0  0  0  0  0  0  0  0  0  0
   21.2934   -6.9715  -19.2158 O   0  0  0  0  0  0  0  0  0  0  0  0
   20.4403   -7.6774  -17.1959 N   0  0  0  0  0  0  0  0  0  0  0  0
   19.6880   -6.4734  -17.0256 C   0  0  1  0  0  0  0  0  0  0  0  0
   18.7267   -6.6466  -15.8750 C   0  0  0  0  0  0  0  0  0  0  0  0
   17.8005   -5.5050  -15.8226 C   0  0  0  0  0  0  0  0  0  0  0  0
   17.8311   -4.6124  -14.9537 O   0  0  0  0  0  0  0  0  0  0  0  0
   20.4502   -5.2428  -16.7634 C   0  0  0  0  0  0  0  0  0  0  0  0
   21.4265   -5.4505  -15.9217 O   0  0  0  0  0  0  0  0  0  0  0  0
   16.7889   -5.3519  -16.7893 O   0  0  0  0  0  0  0  0  0  0  0  0
   20.2523   -3.9673  -17.2826 N   0  0  0  0  0  0  0  0  0  0  0  0
   19.1918   -3.6589  -18.2262 C   0  0  0  0  0  0  0  0  0  0  0  0
   19.8406   -2.6647  -19.1506 C   0  0  0  0  0  0  0  0  0  0  0  0
   21.1091   -2.2134  -18.4815 C   0  0  0  0  0  0  0  0  0  0  0  0
   20.9492   -2.7629  -17.0417 C   0  0  1  0  0  0  0  0  0  0  0  0
   20.1858   -1.7146  -16.3146 C   0  0  0  0  0  0  0  0  0  0  0  0
   18.8711   -1.9372  -15.8884 O   0  0  0  0  0  0  0  0  0  0  0  0
   20.6617   -0.5905  -16.0440 O   0  0  0  0  0  0  0  0  0  0  0  0
  1  2  1  0
  2  4  1  0
  3  2  2  0
  4  5  1  0
  6  8  1  0
  6  5  1  0
  6  7  1  1
  8  9  2  0
 10 11  1  0
 10  8  1  0
 11 12  1  1
 12 13  1  0
 13 14  2  0
 13 17  1  0
 15 11  1  0
 16 15  2  0
 18 15  1  0
 18 22  1  0
 19 20  1  0
 19 18  1  0
 20 21  1  0
 21 22  1  0
 22 23  1  1
 23 24  1  0
 25 23  2  0
M  END
$$$$
