QDP.pdb
     RDKit          3D

 25 25  0  0  1  0  0  0  0  0999 V2000
   10.7689  -13.5165    5.8144 N   0  0  0  0  0  0  0  0  0  0  0  0
   11.8079  -12.8123    5.1753 C   0  0  0  0  0  0  0  0  0  0  0  0
   11.7013  -11.5652    5.0585 O   0  0  0  0  0  0  0  0  0  0  0  0
   13.0014  -13.5215    4.6509 C   0  0  0  0  0  0  0  0  0  0  0  0
   12.9212  -15.0056    4.9190 C   0  0  0  0  0  0  0  0  0  0  0  0
   12.5512  -15.7503    3.6793 C   0  0  2  0  0  0  0  0  0  0  0  0
   11.2046  -15.4697    3.2834 N   0  0  0  0  0  0  0  0  0  0  0  0
   12.8057  -17.2030    3.8451 C   0  0  0  0  0  0  0  0  0  0  0  0
   11.9632  -18.0154    4.2877 O   0  0  0  0  0  0  0  0  0  0  0  0
   14.1031  -17.7431    3.4794 N   0  0  0  0  0  0  0  0  0  0  0  0
   14.3950  -19.1361    3.6176 C   0  0  1  0  0  0  0  0  0  0  0  0
   15.1555  -19.6075    2.4020 C   0  0  0  0  0  0  0  0  0  0  0  0
   15.1579  -21.0776    2.3542 C   0  0  0  0  0  0  0  0  0  0  0  0
   14.6589  -21.8117    3.2287 O   0  0  0  0  0  0  0  0  0  0  0  0
   15.1800  -19.5388    4.7947 C   0  0  0  0  0  0  0  0  0  0  0  0
   16.1426  -18.6928    5.0448 O   0  0  0  0  0  0  0  0  0  0  0  0
   15.7470  -21.7633    1.2753 O   0  0  0  0  0  0  0  0  0  0  0  0
   15.0157  -20.6518    5.6131 N   0  0  0  0  0  0  0  0  0  0  0  0
   14.0005  -21.6623    5.3709 C   0  0  0  0  0  0  0  0  0  0  0  0
   13.5521  -22.0304    6.7591 C   0  0  0  0  0  0  0  0  0  0  0  0
   14.5694  -21.4616    7.7090 C   0  0  0  0  0  0  0  0  0  0  0  0
   15.7278  -21.0546    6.7642 C   0  0  1  0  0  0  0  0  0  0  0  0
   16.5485  -22.2850    6.6128 C   0  0  0  0  0  0  0  0  0  0  0  0
   16.6196  -22.9652    5.3914 O   0  0  0  0  0  0  0  0  0  0  0  0
   17.2134  -22.7791    7.5494 O   0  0  0  0  0  0  0  0  0  0  0  0
  1  2  1  0
  2  4  1  0
  3  2  2  0
  4  5  1  0
  6  8  1  0
  6  5  1  0
  6  7  1  1
  8  9  2  0
 10 11  1  0
 10  8  1  0
 11 12  1  6
 12 13  1  0
 13 14  2  0
 13 17  1  0
 15 11  1  0
 16 15  2  0
 18 15  1  0
 18 22  1  0
 19 20  1  0
 19 18  1  0
 20 21  1  0
 21 22  1  0
 22 23  1  6
 23 24  1  0
 25 23  2  0
M  END
$$$$
