QDP.pdb
     RDKit          3D

 25 25  0  0  1  0  0  0  0  0999 V2000
   23.0282  -19.5877  -19.3388 N   0  0  0  0  0  0  0  0  0  0  0  0
   21.9935  -20.4968  -19.0443 C   0  0  0  0  0  0  0  0  0  0  0  0
   22.2357  -21.7272  -19.1319 O   0  0  0  0  0  0  0  0  0  0  0  0
   20.6482  -20.0181  -18.6401 C   0  0  0  0  0  0  0  0  0  0  0  0
   20.2690  -20.5339  -17.2721 C   0  0  0  0  0  0  0  0  0  0  0  0
   20.9160  -19.7215  -16.1999 C   0  0  2  0  0  0  0  0  0  0  0  0
   21.1345  -18.3727  -16.6261 N   0  0  0  0  0  0  0  0  0  0  0  0
   22.1593  -20.3773  -15.7238 C   0  0  0  0  0  0  0  0  0  0  0  0
   22.2016  -21.5304  -15.2396 O   0  0  0  0  0  0  0  0  0  0  0  0
   23.4192  -19.6608  -15.8128 N   0  0  0  0  0  0  0  0  0  0  0  0
   24.5551  -20.0537  -15.0383 C   0  0  1  0  0  0  0  0  0  0  0  0
   25.7840  -19.3567  -15.5693 C   0  0  0  0  0  0  0  0  0  0  0  0
   26.9882  -19.9193  -14.9393 C   0  0  0  0  0  0  0  0  0  0  0  0
   27.6329  -19.3626  -14.0299 O   0  0  0  0  0  0  0  0  0  0  0  0
   24.5021  -19.7834  -13.5932 C   0  0  0  0  0  0  0  0  0  0  0  0
   23.7774  -18.7307  -13.3258 O   0  0  0  0  0  0  0  0  0  0  0  0
   27.4986  -21.1668  -15.3448 O   0  0  0  0  0  0  0  0  0  0  0  0
   25.1034  -20.4841  -12.5525 N   0  0  0  0  0  0  0  0  0  0  0  0
   25.9972  -21.6075  -12.7748 C   0  0  0  0  0  0  0  0  0  0  0  0
   25.6511  -22.5428  -11.6483 C   0  0  0  0  0  0  0  0  0  0  0  0
   24.8314  -21.7538  -10.6653 C   0  0  0  0  0  0  0  0  0  0  0  0
   25.0215  -20.2963  -11.1552 C   0  0  1  0  0  0  0  0  0  0  0  0
   26.2703  -19.8310  -10.4963 C   0  0  0  0  0  0  0  0  0  0  0  0
   26.2769  -19.4233   -9.1572 O   0  0  0  0  0  0  0  0  0  0  0  0
   27.3714  -19.7759  -11.0864 O   0  0  0  0  0  0  0  0  0  0  0  0
  1  2  1  0
  2  4  1  0
  3  2  2  0
  4  5  1  0
  6  8  1  0
  6  5  1  0
  6  7  1  6
  8  9  2  0
 10 11  1  0
 10  8  1  0
 11 12  1  6
 12 13  1  0
 13 14  2  0
 13 17  1  0
 15 11  1  0
 16 15  2  0
 18 15  1  0
 18 22  1  0
 19 20  1  0
 19 18  1  0
 20 21  1  0
 21 22  1  0
 22 23  1  1
 23 24  1  0
 25 23  2  0
M  END
$$$$
