QDP.pdb
     RDKit          3D

 25 25  0  0  1  0  0  0  0  0999 V2000
   17.3107  -16.7023  -14.6979 N   0  0  0  0  0  0  0  0  0  0  0  0
   16.1011  -16.5897  -15.4105 C   0  0  0  0  0  0  0  0  0  0  0  0
   15.1499  -17.3498  -15.0979 O   0  0  0  0  0  0  0  0  0  0  0  0
   15.9487  -15.5989  -16.5049 C   0  0  0  0  0  0  0  0  0  0  0  0
   17.1717  -14.7211  -16.6263 C   0  0  0  0  0  0  0  0  0  0  0  0
   16.8194  -13.2865  -16.4114 C   0  0  2  0  0  0  0  0  0  0  0  0
   15.8347  -12.8438  -17.3512 N   0  0  0  0  0  0  0  0  0  0  0  0
   18.0386  -12.4403  -16.4222 C   0  0  0  0  0  0  0  0  0  0  0  0
   19.0578  -12.6719  -15.7342 O   0  0  0  0  0  0  0  0  0  0  0  0
   18.0798  -11.2648  -17.2737 N   0  0  0  0  0  0  0  0  0  0  0  0
   19.2299  -10.4162  -17.3156 C   0  0  1  0  0  0  0  0  0  0  0  0
   19.1093   -9.4732  -18.4879 C   0  0  0  0  0  0  0  0  0  0  0  0
   20.2510   -8.5458  -18.5016 C   0  0  0  0  0  0  0  0  0  0  0  0
   21.3862   -8.8324  -18.9281 O   0  0  0  0  0  0  0  0  0  0  0  0
   19.4913   -9.5889  -16.1276 C   0  0  0  0  0  0  0  0  0  0  0  0
   18.3901   -9.0856  -15.6387 O   0  0  0  0  0  0  0  0  0  0  0  0
   20.1187   -7.2317  -18.0148 O   0  0  0  0  0  0  0  0  0  0  0  0
   20.7066   -9.3051  -15.5129 N   0  0  0  0  0  0  0  0  0  0  0  0
   21.9796   -9.7682  -16.0377 C   0  0  0  0  0  0  0  0  0  0  0  0
   22.7592  -10.0957  -14.7932 C   0  0  0  0  0  0  0  0  0  0  0  0
   22.0142   -9.4821  -13.6402 C   0  0  0  0  0  0  0  0  0  0  0  0
   20.9910   -8.5588  -14.3482 C   0  0  1  0  0  0  0  0  0  0  0  0
   21.7170   -7.2801  -14.5672 C   0  0  0  0  0  0  0  0  0  0  0  0
   22.1460   -6.8974  -15.8435 O   0  0  0  0  0  0  0  0  0  0  0  0
   21.9844   -6.4822  -13.6423 O   0  0  0  0  0  0  0  0  0  0  0  0
  1  2  1  0
  2  4  1  0
  3  2  2  0
  4  5  1  0
  6  8  1  0
  6  5  1  0
  6  7  1  6
  8  9  2  0
 10 11  1  0
 10  8  1  0
 11 12  1  6
 12 13  1  0
 13 14  2  0
 13 17  1  0
 15 11  1  0
 16 15  2  0
 18 15  1  0
 18 22  1  0
 19 20  1  0
 19 18  1  0
 20 21  1  0
 21 22  1  0
 22 23  1  6
 23 24  1  0
 25 23  2  0
M  END
$$$$
