QDP.pdb
     RDKit          3D

 25 25  0  0  1  0  0  0  0  0999 V2000
   12.7716  -15.1983  -10.8557 N   0  0  0  0  0  0  0  0  0  0  0  0
   12.0958  -14.3865  -11.7874 C   0  0  0  0  0  0  0  0  0  0  0  0
   11.0716  -14.8487  -12.3511 O   0  0  0  0  0  0  0  0  0  0  0  0
   12.5776  -13.0179  -12.0991 C   0  0  0  0  0  0  0  0  0  0  0  0
   13.7994  -12.6661  -11.2841 C   0  0  0  0  0  0  0  0  0  0  0  0
   14.9307  -12.2619  -12.1701 C   0  0  2  0  0  0  0  0  0  0  0  0
   15.8238  -13.3548  -12.4088 N   0  0  0  0  0  0  0  0  0  0  0  0
   15.6236  -11.0685  -11.6238 C   0  0  0  0  0  0  0  0  0  0  0  0
   16.1988  -11.0401  -10.5129 O   0  0  0  0  0  0  0  0  0  0  0  0
   15.6519   -9.8443  -12.4043 N   0  0  0  0  0  0  0  0  0  0  0  0
   16.2929   -8.6639  -11.9142 C   0  0  1  0  0  0  0  0  0  0  0  0
   17.1402   -8.0665  -13.0112 C   0  0  0  0  0  0  0  0  0  0  0  0
   18.3369   -8.8947  -13.2244 C   0  0  0  0  0  0  0  0  0  0  0  0
   19.2727   -9.0034  -12.4088 O   0  0  0  0  0  0  0  0  0  0  0  0
   15.4202   -7.5896  -11.4160 C   0  0  0  0  0  0  0  0  0  0  0  0
   14.3129   -7.5101  -12.1034 O   0  0  0  0  0  0  0  0  0  0  0  0
   18.4972   -9.6395  -14.4079 O   0  0  0  0  0  0  0  0  0  0  0  0
   15.6370   -6.7086  -10.3613 N   0  0  0  0  0  0  0  0  0  0  0  0
   16.8071   -6.7825   -9.5037 C   0  0  0  0  0  0  0  0  0  0  0  0
   16.2558   -6.4306   -8.1487 C   0  0  0  0  0  0  0  0  0  0  0  0
   14.8875   -5.8495   -8.3744 C   0  0  0  0  0  0  0  0  0  0  0  0
   14.8639   -5.6179   -9.9061 C   0  0  1  0  0  0  0  0  0  0  0  0
   15.4724   -4.2754  -10.0996 C   0  0  0  0  0  0  0  0  0  0  0  0
   14.7664   -3.1064   -9.7922 O   0  0  0  0  0  0  0  0  0  0  0  0
   16.6308   -4.1104  -10.5407 O   0  0  0  0  0  0  0  0  0  0  0  0
  1  2  1  0
  2  4  1  0
  3  2  2  0
  4  5  1  0
  6  8  1  0
  6  5  1  0
  6  7  1  1
  8  9  2  0
 10 11  1  0
 10  8  1  0
 11 12  1  6
 12 13  1  0
 13 14  2  0
 13 17  1  0
 15 11  1  0
 16 15  2  0
 18 15  1  0
 18 22  1  0
 19 20  1  0
 19 18  1  0
 20 21  1  0
 21 22  1  0
 22 23  1  1
 23 24  1  0
 25 23  2  0
M  END
$$$$
