QDP.pdb
     RDKit          3D

 25 25  0  0  1  0  0  0  0  0999 V2000
   28.1837  -25.5519  -15.8631 N   0  0  0  0  0  0  0  0  0  0  0  0
   27.4599  -26.1622  -16.9059 C   0  0  0  0  0  0  0  0  0  0  0  0
   26.2229  -26.3295  -16.7569 O   0  0  0  0  0  0  0  0  0  0  0  0
   28.1370  -26.5989  -18.1521 C   0  0  0  0  0  0  0  0  0  0  0  0
   29.6316  -26.3994  -18.0648 C   0  0  0  0  0  0  0  0  0  0  0  0
   30.2920  -26.7605  -19.3539 C   0  0  2  0  0  0  0  0  0  0  0  0
   29.8504  -25.9159  -20.4218 N   0  0  0  0  0  0  0  0  0  0  0  0
   30.1047  -28.2021  -19.6527 C   0  0  0  0  0  0  0  0  0  0  0  0
   29.3107  -28.6413  -20.5143 O   0  0  0  0  0  0  0  0  0  0  0  0
   30.8771  -29.1864  -18.9156 N   0  0  0  0  0  0  0  0  0  0  0  0
   30.7291  -30.5867  -19.1645 C   0  0  1  0  0  0  0  0  0  0  0  0
   31.8086  -31.3396  -18.4256 C   0  0  0  0  0  0  0  0  0  0  0  0
   33.1323  -30.8576  -18.8491 C   0  0  0  0  0  0  0  0  0  0  0  0
   33.5287  -30.8344  -20.0302 O   0  0  0  0  0  0  0  0  0  0  0  0
   29.4463  -31.1990  -18.7858 C   0  0  0  0  0  0  0  0  0  0  0  0
   28.7457  -30.4124  -18.0142 O   0  0  0  0  0  0  0  0  0  0  0  0
   34.0605  -30.3770  -17.9064 O   0  0  0  0  0  0  0  0  0  0  0  0
   28.9364  -32.4442  -19.1392 N   0  0  0  0  0  0  0  0  0  0  0  0
   29.6667  -33.3850  -19.9711 C   0  0  0  0  0  0  0  0  0  0  0  0
   28.5836  -34.0033  -20.8128 C   0  0  0  0  0  0  0  0  0  0  0  0
   27.2732  -33.6288  -20.1777 C   0  0  0  0  0  0  0  0  0  0  0  0
   27.7102  -33.0598  -18.8045 C   0  0  1  0  0  0  0  0  0  0  0  0
   27.8101  -34.2455  -17.9132 C   0  0  0  0  0  0  0  0  0  0  0  0
   27.3169  -34.2136  -16.6036 O   0  0  0  0  0  0  0  0  0  0  0  0
   28.3311  -35.3242  -18.2714 O   0  0  0  0  0  0  0  0  0  0  0  0
  1  2  1  0
  2  4  1  0
  3  2  2  0
  4  5  1  0
  6  8  1  0
  6  5  1  0
  6  7  1  6
  8  9  2  0
 10 11  1  0
 10  8  1  0
 11 12  1  1
 12 13  1  0
 13 14  2  0
 13 17  1  0
 15 11  1  0
 16 15  2  0
 18 15  1  0
 18 22  1  0
 19 20  1  0
 19 18  1  0
 20 21  1  0
 21 22  1  0
 22 23  1  1
 23 24  1  0
 25 23  2  0
M  END
$$$$
