QDP.pdb
     RDKit          3D

 25 25  0  0  1  0  0  0  0  0999 V2000
   24.4043  -20.0672  -16.6144 N   0  0  0  0  0  0  0  0  0  0  0  0
   23.0174  -20.1623  -16.3883 C   0  0  0  0  0  0  0  0  0  0  0  0
   22.4968  -21.3054  -16.3377 O   0  0  0  0  0  0  0  0  0  0  0  0
   22.1868  -18.9450  -16.2135 C   0  0  0  0  0  0  0  0  0  0  0  0
   23.0374  -17.6971  -16.1921 C   0  0  0  0  0  0  0  0  0  0  0  0
   22.2311  -16.5116  -15.7766 C   0  0  2  0  0  0  0  0  0  0  0  0
   20.9040  -16.5692  -16.3101 N   0  0  0  0  0  0  0  0  0  0  0  0
   22.9325  -15.2517  -16.1280 C   0  0  0  0  0  0  0  0  0  0  0  0
   24.0331  -14.9047  -15.6443 O   0  0  0  0  0  0  0  0  0  0  0  0
   22.3280  -14.3466  -17.0892 N   0  0  0  0  0  0  0  0  0  0  0  0
   22.9106  -13.0739  -17.3813 C   0  0  1  0  0  0  0  0  0  0  0  0
   22.2434  -12.4904  -18.6030 C   0  0  0  0  0  0  0  0  0  0  0  0
   22.9068  -11.2333  -18.9813 C   0  0  0  0  0  0  0  0  0  0  0  0
   24.0064  -11.1646  -19.5634 O   0  0  0  0  0  0  0  0  0  0  0  0
   22.8397  -12.0507  -16.3267 C   0  0  0  0  0  0  0  0  0  0  0  0
   21.7547  -12.1710  -15.6104 O   0  0  0  0  0  0  0  0  0  0  0  0
   22.3126   -9.9897  -18.6955 O   0  0  0  0  0  0  0  0  0  0  0  0
   23.7458  -11.0366  -16.0334 N   0  0  0  0  0  0  0  0  0  0  0  0
   24.9121  -10.7631  -16.8552 C   0  0  0  0  0  0  0  0  0  0  0  0
   25.9616  -10.3971  -15.8411 C   0  0  0  0  0  0  0  0  0  0  0  0
   25.2443  -10.1542  -14.5422 C   0  0  0  0  0  0  0  0  0  0  0  0
   23.7588  -10.0976  -14.9786 C   0  0  1  0  0  0  0  0  0  0  0  0
   23.5303   -8.6834  -15.3761 C   0  0  0  0  0  0  0  0  0  0  0  0
   23.4091   -7.6699  -14.4181 O   0  0  0  0  0  0  0  0  0  0  0  0
   23.4340   -8.3185  -16.5681 O   0  0  0  0  0  0  0  0  0  0  0  0
  1  2  1  0
  2  4  1  0
  3  2  2  0
  4  5  1  0
  6  8  1  0
  6  5  1  0
  6  7  1  6
  8  9  2  0
 10 11  1  0
 10  8  1  0
 11 12  1  6
 12 13  1  0
 13 14  2  0
 13 17  1  0
 15 11  1  0
 16 15  2  0
 18 15  1  0
 18 22  1  0
 19 20  1  0
 19 18  1  0
 20 21  1  0
 21 22  1  0
 22 23  1  6
 23 24  1  0
 25 23  2  0
M  END
$$$$
