QDP.pdb
     RDKit          3D

 25 25  0  0  1  0  0  0  0  0999 V2000
   44.3865   -9.6812   -2.5159 N   0  0  0  0  0  0  0  0  0  0  0  0
   43.2805   -9.8666   -3.3681 C   0  0  0  0  0  0  0  0  0  0  0  0
   42.1732  -10.1662   -2.8541 O   0  0  0  0  0  0  0  0  0  0  0  0
   43.4147   -9.7128   -4.8380 C   0  0  0  0  0  0  0  0  0  0  0  0
   42.3797  -10.5309   -5.5734 C   0  0  0  0  0  0  0  0  0  0  0  0
   42.4785  -10.3123   -7.0467 C   0  0  2  0  0  0  0  0  0  0  0  0
   43.8389  -10.3488   -7.4904 N   0  0  0  0  0  0  0  0  0  0  0  0
   41.7846   -9.0602   -7.4383 C   0  0  0  0  0  0  0  0  0  0  0  0
   40.5702   -8.8390   -7.2331 O   0  0  0  0  0  0  0  0  0  0  0  0
   42.5357   -8.0097   -8.1022 N   0  0  0  0  0  0  0  0  0  0  0  0
   41.9052   -6.7987   -8.5271 C   0  0  1  0  0  0  0  0  0  0  0  0
   42.9377   -5.8946   -9.1552 C   0  0  0  0  0  0  0  0  0  0  0  0
   43.8122   -5.3361   -8.1126 C   0  0  0  0  0  0  0  0  0  0  0  0
   43.4285   -4.5713   -7.2067 O   0  0  0  0  0  0  0  0  0  0  0  0
   40.8036   -6.9247   -9.4938 C   0  0  0  0  0  0  0  0  0  0  0  0
   41.0789   -7.7944  -10.4279 O   0  0  0  0  0  0  0  0  0  0  0  0
   45.1846   -5.6470   -8.0795 O   0  0  0  0  0  0  0  0  0  0  0  0
   39.5824   -6.2585   -9.5158 N   0  0  0  0  0  0  0  0  0  0  0  0
   39.2002   -5.2848   -8.5078 C   0  0  0  0  0  0  0  0  0  0  0  0
   37.7291   -5.5444   -8.3279 C   0  0  0  0  0  0  0  0  0  0  0  0
   37.2968   -6.4090   -9.4795 C   0  0  0  0  0  0  0  0  0  0  0  0
   38.5137   -6.3365  -10.4357 C   0  0  1  0  0  0  0  0  0  0  0  0
   38.2836   -5.1183  -11.2563 C   0  0  0  0  0  0  0  0  0  0  0  0
   39.0627   -3.9682  -11.0839 O   0  0  0  0  0  0  0  0  0  0  0  0
   37.3966   -5.0470  -12.1347 O   0  0  0  0  0  0  0  0  0  0  0  0
  1  2  1  0
  2  4  1  0
  3  2  2  0
  4  5  1  0
  6  8  1  0
  6  5  1  0
  6  7  1  1
  8  9  2  0
 10 11  1  0
 10  8  1  0
 11 12  1  6
 12 13  1  0
 13 14  2  0
 13 17  1  0
 15 11  1  0
 16 15  2  0
 18 15  1  0
 18 22  1  0
 19 20  1  0
 19 18  1  0
 20 21  1  0
 21 22  1  0
 22 23  1  6
 23 24  1  0
 25 23  2  0
M  END
$$$$
