QDP.pdb
     RDKit          3D

 25 25  0  0  1  0  0  0  0  0999 V2000
   25.9573  -13.2686  -18.2144 N   0  0  0  0  0  0  0  0  0  0  0  0
   25.6910  -14.1136  -17.1195 C   0  0  0  0  0  0  0  0  0  0  0  0
   26.2995  -15.2113  -17.0495 O   0  0  0  0  0  0  0  0  0  0  0  0
   24.7162  -13.7215  -16.0715 C   0  0  0  0  0  0  0  0  0  0  0  0
   24.1047  -12.3723  -16.3662 C   0  0  0  0  0  0  0  0  0  0  0  0
   23.1778  -11.9586  -15.2717 C   0  0  2  0  0  0  0  0  0  0  0  0
   22.1386  -12.9229  -15.0745 N   0  0  0  0  0  0  0  0  0  0  0  0
   22.6496  -10.5941  -15.5202 C   0  0  0  0  0  0  0  0  0  0  0  0
   23.2823   -9.6968  -16.1205 O   0  0  0  0  0  0  0  0  0  0  0  0
   21.3197  -10.2506  -15.0492 N   0  0  0  0  0  0  0  0  0  0  0  0
   20.7715   -8.9460  -15.2542 C   0  0  1  0  0  0  0  0  0  0  0  0
   19.3217   -8.9445  -14.8345 C   0  0  0  0  0  0  0  0  0  0  0  0
   18.5788   -9.9553  -15.6028 C   0  0  0  0  0  0  0  0  0  0  0  0
   18.4445   -9.9401  -16.8415 O   0  0  0  0  0  0  0  0  0  0  0  0
   21.4214   -7.8314  -14.5476 C   0  0  0  0  0  0  0  0  0  0  0  0
   21.9336   -8.2152  -13.4095 O   0  0  0  0  0  0  0  0  0  0  0  0
   17.9542  -11.0379  -14.9556 O   0  0  0  0  0  0  0  0  0  0  0  0
   21.5386   -6.5013  -14.9382 N   0  0  0  0  0  0  0  0  0  0  0  0
   20.9124   -5.9771  -16.1396 C   0  0  0  0  0  0  0  0  0  0  0  0
   21.9347   -5.0010  -16.6553 C   0  0  0  0  0  0  0  0  0  0  0  0
   22.9220   -4.7785  -15.5433 C   0  0  0  0  0  0  0  0  0  0  0  0
   22.2145   -5.4235  -14.3252 C   0  0  1  0  0  0  0  0  0  0  0  0
   21.3446   -4.3504  -13.7755 C   0  0  0  0  0  0  0  0  0  0  0  0
   21.8743   -3.3100  -13.0032 O   0  0  0  0  0  0  0  0  0  0  0  0
   20.1094   -4.3115  -13.9654 O   0  0  0  0  0  0  0  0  0  0  0  0
  1  2  1  0
  2  4  1  0
  3  2  2  0
  4  5  1  0
  6  8  1  0
  6  5  1  0
  6  7  1  6
  8  9  2  0
 10 11  1  0
 10  8  1  0
 11 12  1  1
 12 13  1  0
 13 14  2  0
 13 17  1  0
 15 11  1  0
 16 15  2  0
 18 15  1  0
 18 22  1  0
 19 20  1  0
 19 18  1  0
 20 21  1  0
 21 22  1  0
 22 23  1  6
 23 24  1  0
 25 23  2  0
M  END
$$$$
