QDP.pdb
     RDKit          3D

 25 25  0  0  1  0  0  0  0  0999 V2000
   30.1887  -15.7659  -19.5804 N   0  0  0  0  0  0  0  0  0  0  0  0
   28.8974  -15.9774  -20.1012 C   0  0  0  0  0  0  0  0  0  0  0  0
   28.7187  -15.8264  -21.3364 O   0  0  0  0  0  0  0  0  0  0  0  0
   27.7718  -16.3691  -19.2169 C   0  0  0  0  0  0  0  0  0  0  0  0
   28.1758  -16.3297  -17.7622 C   0  0  0  0  0  0  0  0  0  0  0  0
   28.2742  -17.7092  -17.2006 C   0  0  2  0  0  0  0  0  0  0  0  0
   28.3480  -18.6920  -18.2386 N   0  0  0  0  0  0  0  0  0  0  0  0
   27.1654  -17.9677  -16.2486 C   0  0  0  0  0  0  0  0  0  0  0  0
   26.9221  -17.2576  -15.2475 O   0  0  0  0  0  0  0  0  0  0  0  0
   26.2929  -19.1077  -16.4671 N   0  0  0  0  0  0  0  0  0  0  0  0
   25.3251  -19.5020  -15.4912 C   0  0  1  0  0  0  0  0  0  0  0  0
   24.0721  -19.9663  -16.1931 C   0  0  0  0  0  0  0  0  0  0  0  0
   23.0308  -20.2769  -15.2017 C   0  0  0  0  0  0  0  0  0  0  0  0
   22.0409  -19.5562  -14.9706 O   0  0  0  0  0  0  0  0  0  0  0  0
   25.7148  -20.5728  -14.5609 C   0  0  0  0  0  0  0  0  0  0  0  0
   26.4489  -21.4786  -15.1486 O   0  0  0  0  0  0  0  0  0  0  0  0
   23.0978  -21.4515  -14.4291 O   0  0  0  0  0  0  0  0  0  0  0  0
   25.4033  -20.7122  -13.2122 N   0  0  0  0  0  0  0  0  0  0  0  0
   24.5231  -19.7943  -12.5100 C   0  0  0  0  0  0  0  0  0  0  0  0
   25.1601  -19.6881  -11.1511 C   0  0  0  0  0  0  0  0  0  0  0  0
   26.1610  -20.8058  -11.0523 C   0  0  0  0  0  0  0  0  0  0  0  0
   25.8079  -21.6887  -12.2755 C   0  0  1  0  0  0  0  0  0  0  0  0
   24.7354  -22.5987  -11.7939 C   0  0  0  0  0  0  0  0  0  0  0  0
   25.0284  -23.7032  -10.9854 O   0  0  0  0  0  0  0  0  0  0  0  0
   23.5280  -22.4368  -12.0758 O   0  0  0  0  0  0  0  0  0  0  0  0
  1  2  1  0
  2  4  1  0
  3  2  2  0
  4  5  1  0
  6  8  1  0
  6  5  1  0
  6  7  1  6
  8  9  2  0
 10 11  1  0
 10  8  1  0
 11 12  1  6
 12 13  1  0
 13 14  2  0
 13 17  1  0
 15 11  1  0
 16 15  2  0
 18 15  1  0
 18 22  1  0
 19 20  1  0
 19 18  1  0
 20 21  1  0
 21 22  1  0
 22 23  1  1
 23 24  1  0
 25 23  2  0
M  END
$$$$
