IIM.pdb
     RDKit          3D

 25 24  0  0  1  0  0  0  0  0999 V2000
   21.7097  -10.7629  -20.2666 C   0  0  0  0  0  0  0  0  0  0  0  0
   21.1092  -11.2070  -18.9780 C   0  0  0  0  0  0  0  0  0  0  0  0
   20.5996  -10.1223  -18.0920 C   0  0  2  0  0  0  0  0  0  0  0  0
   21.7680   -9.2304  -17.6834 C   0  0  0  0  0  0  0  0  0  0  0  0
   19.9532  -10.5984  -16.8365 C   0  0  2  0  0  0  0  0  0  0  0  0
   18.8653  -11.5120  -17.1160 N   0  0  0  0  0  0  0  0  0  0  0  0
   19.5188   -9.5125  -15.9374 C   0  0  0  0  0  0  0  0  0  0  0  0
   18.5265   -8.8280  -16.2948 O   0  0  0  0  0  0  0  0  0  0  0  0
   17.6730   -9.9036  -11.1743 C   0  0  0  0  0  0  0  0  0  0  0  0
   17.9702   -9.4696  -12.6302 C   0  0  0  0  0  0  0  0  0  0  0  0
   19.1839   -8.5884  -12.5655 C   0  0  2  0  0  0  0  0  0  0  0  0
   18.8366   -7.4678  -11.5944 C   0  0  0  0  0  0  0  0  0  0  0  0
   19.7039   -8.0799  -13.8657 C   0  0  2  0  0  0  0  0  0  0  0  0
   20.1606   -9.2102  -14.7066 N   0  0  0  0  0  0  0  0  0  0  0  0
   20.7635   -7.0750  -13.8056 C   0  0  0  0  0  0  0  0  0  0  0  0
   21.9967   -7.4318  -13.7282 O   0  0  0  0  0  0  0  0  0  0  0  0
   25.5736   -3.4650  -17.7044 C   0  0  0  0  0  0  0  0  0  0  0  0
   24.2581   -4.6439  -17.2966 S   0  0  0  0  0  0  0  0  0  0  0  0
   23.4778   -4.1175  -15.7173 C   0  0  0  0  0  0  0  0  0  0  0  0
   22.4137   -5.0876  -15.3128 C   0  0  0  0  0  0  0  0  0  0  0  0
   21.6878   -4.7306  -14.0458 C   0  0  2  0  0  0  0  0  0  0  0  0
   20.5682   -5.6698  -13.8290 N   0  0  0  0  0  0  0  0  0  0  0  0
   21.1874   -3.3384  -14.0230 C   0  0  0  0  0  0  0  0  0  0  0  0
   22.0025   -2.3838  -13.8461 O   0  0  0  0  0  0  0  0  0  0  0  0
   19.8591   -3.0039  -14.1867 O   0  0  0  0  0  0  0  0  0  0  0  0
  2  1  1  0
  3  2  1  0
  3  5  1  0
  3  4  1  1
  5  6  1  6
  7  5  1  0
  7  8  2  0
 10  9  1  0
 11 13  1  0
 11 10  1  0
 11 12  1  1
 13 14  1  6
 14  7  1  0
 15 13  1  0
 16 15  2  0
 18 17  1  0
 19 18  1  0
 21 20  1  6
 20 19  1  0
 21 22  1  0
 22 15  1  0
 23 25  1  0
 23 21  1  0
 24 23  2  0
M  END
$$$$
