IIM.pdb
     RDKit          3D

 25 24  0  0  1  0  0  0  0  0999 V2000
   22.2555  -13.3756  -20.1273 C   0  0  0  0  0  0  0  0  0  0  0  0
   21.3957  -13.4510  -18.9135 C   0  0  0  0  0  0  0  0  0  0  0  0
   20.8787  -12.1497  -18.4030 C   0  0  2  0  0  0  0  0  0  0  0  0
   22.0620  -11.2438  -18.0760 C   0  0  0  0  0  0  0  0  0  0  0  0
   20.0518  -12.2518  -17.1675 C   0  0  2  0  0  0  0  0  0  0  0  0
   18.9941  -13.2288  -17.3190 N   0  0  0  0  0  0  0  0  0  0  0  0
   19.5195  -10.9599  -16.6946 C   0  0  0  0  0  0  0  0  0  0  0  0
   18.6363  -10.4062  -17.3976 O   0  0  0  0  0  0  0  0  0  0  0  0
   17.8127   -9.4114  -11.7124 C   0  0  0  0  0  0  0  0  0  0  0  0
   18.9589   -9.6218  -12.7312 C   0  0  0  0  0  0  0  0  0  0  0  0
   18.4657   -9.0697  -14.0372 C   0  0  2  0  0  0  0  0  0  0  0  0
   17.2562   -9.9131  -14.4183 C   0  0  0  0  0  0  0  0  0  0  0  0
   19.4666   -8.9729  -15.1363 C   0  0  2  0  0  0  0  0  0  0  0  0
   19.9528  -10.3236  -15.5006 N   0  0  0  0  0  0  0  0  0  0  0  0
   20.6167   -8.1006  -14.9072 C   0  0  0  0  0  0  0  0  0  0  0  0
   21.6959   -8.5681  -14.3868 O   0  0  0  0  0  0  0  0  0  0  0  0
   22.6957   -2.4026  -17.9462 C   0  0  0  0  0  0  0  0  0  0  0  0
   24.0492   -3.5049  -17.4569 S   0  0  0  0  0  0  0  0  0  0  0  0
   23.5732   -4.3480  -15.8939 C   0  0  0  0  0  0  0  0  0  0  0  0
   22.3873   -5.2313  -16.1182 C   0  0  0  0  0  0  0  0  0  0  0  0
   21.8534   -5.8919  -14.8780 C   0  0  2  0  0  0  0  0  0  0  0  0
   20.6763   -6.7175  -15.2181 N   0  0  0  0  0  0  0  0  0  0  0  0
   21.5039   -4.9373  -13.8031 C   0  0  0  0  0  0  0  0  0  0  0  0
   20.2922   -4.6082  -13.6286 O   0  0  0  0  0  0  0  0  0  0  0  0
   22.4338   -4.3689  -12.9574 O   0  0  0  0  0  0  0  0  0  0  0  0
  2  1  1  0
  3  2  1  0
  3  5  1  0
  3  4  1  1
  5  6  1  6
  7  5  1  0
  7  8  2  0
 10  9  1  0
 11 13  1  0
 11 10  1  0
 11 12  1  6
 13 14  1  1
 14  7  1  0
 15 13  1  0
 16 15  2  0
 18 17  1  0
 19 18  1  0
 21 20  1  6
 20 19  1  0
 21 22  1  0
 22 15  1  0
 23 25  1  0
 23 21  1  0
 24 23  2  0
M  END
$$$$
