IIM.pdb
     RDKit          3D

 25 24  0  0  1  0  0  0  0  0999 V2000
   27.5380  -15.6829  -15.6224 C   0  0  0  0  0  0  0  0  0  0  0  0
   26.0754  -15.9624  -15.6531 C   0  0  0  0  0  0  0  0  0  0  0  0
   25.2014  -14.8069  -16.0025 C   0  0  2  0  0  0  0  0  0  0  0  0
   25.3619  -13.7277  -14.9360 C   0  0  0  0  0  0  0  0  0  0  0  0
   23.7487  -15.1292  -16.0831 C   0  0  2  0  0  0  0  0  0  0  0  0
   23.5147  -16.3193  -16.8737 N   0  0  0  0  0  0  0  0  0  0  0  0
   22.9113  -14.0076  -16.5488 C   0  0  0  0  0  0  0  0  0  0  0  0
   23.0118  -13.6735  -17.7568 O   0  0  0  0  0  0  0  0  0  0  0  0
   18.7866  -14.7477  -16.2144 C   0  0  0  0  0  0  0  0  0  0  0  0
   19.1925  -13.5187  -17.0635 C   0  0  0  0  0  0  0  0  0  0  0  0
   19.7437  -12.5073  -16.1006 C   0  0  2  0  0  0  0  0  0  0  0  0
   18.8544  -11.2778  -16.2300 C   0  0  0  0  0  0  0  0  0  0  0  0
   21.1917  -12.1844  -16.2351 C   0  0  2  0  0  0  0  0  0  0  0  0
   22.0115  -13.2994  -15.7078 N   0  0  0  0  0  0  0  0  0  0  0  0
   21.6483  -10.9337  -15.6323 C   0  0  0  0  0  0  0  0  0  0  0  0
   21.7241  -10.8158  -14.3539 O   0  0  0  0  0  0  0  0  0  0  0  0
   25.1465   -3.8289  -16.4188 C   0  0  0  0  0  0  0  0  0  0  0  0
   24.5897   -5.3588  -17.2163 S   0  0  0  0  0  0  0  0  0  0  0  0
   23.6140   -6.3267  -15.9950 C   0  0  0  0  0  0  0  0  0  0  0  0
   23.2303   -7.6537  -16.5684 C   0  0  0  0  0  0  0  0  0  0  0  0
   22.4123   -8.5203  -15.6522 C   0  0  2  0  0  0  0  0  0  0  0  0
   22.0430   -9.7719  -16.3449 N   0  0  0  0  0  0  0  0  0  0  0  0
   21.1963   -7.8536  -15.1368 C   0  0  0  0  0  0  0  0  0  0  0  0
   21.2353   -7.2599  -14.0175 O   0  0  0  0  0  0  0  0  0  0  0  0
   19.9936   -7.8352  -15.8125 O   0  0  0  0  0  0  0  0  0  0  0  0
  2  1  1  0
  3  2  1  0
  3  5  1  0
  3  4  1  1
  5  6  1  6
  7  5  1  0
  7  8  2  0
 10  9  1  0
 11 13  1  0
 11 10  1  0
 11 12  1  6
 13 14  1  1
 14  7  1  0
 15 13  1  0
 16 15  2  0
 18 17  1  0
 19 18  1  0
 21 20  1  6
 20 19  1  0
 21 22  1  0
 22 15  1  0
 23 25  1  0
 23 21  1  0
 24 23  2  0
M  END
$$$$
