IIM.pdb
     RDKit          3D

 25 24  0  0  1  0  0  0  0  0999 V2000
   17.9417  -20.3230  -16.1203 C   0  0  0  0  0  0  0  0  0  0  0  0
   19.1467  -19.9491  -15.3286 C   0  0  0  0  0  0  0  0  0  0  0  0
   19.4879  -20.8584  -14.1982 C   0  0  2  0  0  0  0  0  0  0  0  0
   18.3021  -20.9196  -13.2401 C   0  0  0  0  0  0  0  0  0  0  0  0
   20.6738  -20.4384  -13.3997 C   0  0  2  0  0  0  0  0  0  0  0  0
   21.8472  -20.2896  -14.2348 N   0  0  0  0  0  0  0  0  0  0  0  0
   20.9526  -21.3059  -12.2396 C   0  0  0  0  0  0  0  0  0  0  0  0
   21.4337  -22.4442  -12.4711 O   0  0  0  0  0  0  0  0  0  0  0  0
   23.7183  -21.1144   -7.0871 C   0  0  0  0  0  0  0  0  0  0  0  0
   22.4968  -21.8722   -7.6613 C   0  0  0  0  0  0  0  0  0  0  0  0
   22.1105  -21.1520   -8.9206 C   0  0  2  0  0  0  0  0  0  0  0  0
   21.7166  -19.7441   -8.4938 C   0  0  0  0  0  0  0  0  0  0  0  0
   21.0734  -21.8059   -9.7668 C   0  0  2  0  0  0  0  0  0  0  0  0
   20.7058  -20.9196  -10.8949 N   0  0  0  0  0  0  0  0  0  0  0  0
   19.8537  -22.2474   -9.0935 C   0  0  0  0  0  0  0  0  0  0  0  0
   18.8100  -21.4961   -9.0767 O   0  0  0  0  0  0  0  0  0  0  0  0
   16.5700  -26.8334  -10.7321 C   0  0  0  0  0  0  0  0  0  0  0  0
   16.0032  -27.0629   -9.0254 S   0  0  0  0  0  0  0  0  0  0  0  0
   16.5632  -25.6218   -8.0305 C   0  0  0  0  0  0  0  0  0  0  0  0
   17.8814  -25.1233   -8.5311 C   0  0  0  0  0  0  0  0  0  0  0  0
   18.3884  -23.8880   -7.8405 C   0  0  2  0  0  0  0  0  0  0  0  0
   19.6856  -23.4863   -8.4225 N   0  0  0  0  0  0  0  0  0  0  0  0
   18.5213  -24.0421   -6.3751 C   0  0  0  0  0  0  0  0  0  0  0  0
   19.6741  -24.1574   -5.8604 O   0  0  0  0  0  0  0  0  0  0  0  0
   17.4459  -24.0682   -5.5115 O   0  0  0  0  0  0  0  0  0  0  0  0
  2  1  1  0
  3  2  1  0
  3  5  1  0
  3  4  1  1
  5  6  1  6
  7  5  1  0
  7  8  2  0
 10  9  1  0
 11 13  1  0
 11 10  1  0
 11 12  1  1
 13 14  1  6
 14  7  1  0
 15 13  1  0
 16 15  2  0
 18 17  1  0
 19 18  1  0
 21 20  1  6
 20 19  1  0
 21 22  1  0
 22 15  1  0
 23 25  1  0
 23 21  1  0
 24 23  2  0
M  END
$$$$
