IIM.pdb
     RDKit          3D

 25 24  0  0  1  0  0  0  0  0999 V2000
   13.2736  -10.6969  -16.7182 C   0  0  0  0  0  0  0  0  0  0  0  0
   14.7592  -10.7679  -16.6369 C   0  0  0  0  0  0  0  0  0  0  0  0
   15.3604  -10.3195  -15.3490 C   0  0  2  0  0  0  0  0  0  0  0  0
   15.0401   -8.8420  -15.1439 C   0  0  0  0  0  0  0  0  0  0  0  0
   16.8420  -10.4602  -15.2731 C   0  0  2  0  0  0  0  0  0  0  0  0
   17.2605  -11.8123  -15.5780 N   0  0  0  0  0  0  0  0  0  0  0  0
   17.4231   -9.9977  -13.9985 C   0  0  0  0  0  0  0  0  0  0  0  0
   17.3310  -10.7669  -13.0082 O   0  0  0  0  0  0  0  0  0  0  0  0
   21.5148   -8.5375  -10.8752 C   0  0  0  0  0  0  0  0  0  0  0  0
   20.7315   -7.3495  -11.4843 C   0  0  0  0  0  0  0  0  0  0  0  0
   20.0459   -7.8830  -12.7088 C   0  0  2  0  0  0  0  0  0  0  0  0
   20.1893   -6.8031  -13.7730 C   0  0  0  0  0  0  0  0  0  0  0  0
   18.6368   -8.3343  -12.5360 C   0  0  2  0  0  0  0  0  0  0  0  0
   18.0709   -8.7431  -13.8421 N   0  0  0  0  0  0  0  0  0  0  0  0
   17.7174   -7.3976  -11.8930 C   0  0  0  0  0  0  0  0  0  0  0  0
   17.1320   -6.4826  -12.5815 O   0  0  0  0  0  0  0  0  0  0  0  0
   13.2202   -8.7720   -8.0770 C   0  0  0  0  0  0  0  0  0  0  0  0
   12.9066   -6.9905   -7.9579 S   0  0  0  0  0  0  0  0  0  0  0  0
   14.4147   -6.0984   -8.5148 C   0  0  0  0  0  0  0  0  0  0  0  0
   15.3458   -7.0357   -9.2159 C   0  0  0  0  0  0  0  0  0  0  0  0
   16.4827   -6.3678   -9.9376 C   0  0  2  0  0  0  0  0  0  0  0  0
   17.3785   -7.3909  -10.5152 N   0  0  0  0  0  0  0  0  0  0  0  0
   17.2610   -5.4414   -9.0862 C   0  0  0  0  0  0  0  0  0  0  0  0
   18.3238   -5.8486   -8.5280 O   0  0  0  0  0  0  0  0  0  0  0  0
   16.8965   -4.1311   -8.8554 O   0  0  0  0  0  0  0  0  0  0  0  0
  2  1  1  0
  3  2  1  0
  3  5  1  0
  3  4  1  6
  5  6  1  1
  7  5  1  0
  7  8  2  0
 10  9  1  0
 11 13  1  0
 11 10  1  0
 11 12  1  6
 13 14  1  6
 14  7  1  0
 15 13  1  0
 16 15  2  0
 18 17  1  0
 19 18  1  0
 21 20  1  1
 20 19  1  0
 21 22  1  0
 22 15  1  0
 23 25  1  0
 23 21  1  0
 24 23  2  0
M  END
$$$$
