IIM.pdb
     RDKit          3D

 25 24  0  0  1  0  0  0  0  0999 V2000
   27.7352  -20.0753  -18.8735 C   0  0  0  0  0  0  0  0  0  0  0  0
   28.0245  -20.7442  -17.5744 C   0  0  0  0  0  0  0  0  0  0  0  0
   26.8526  -20.9544  -16.6780 C   0  0  2  0  0  0  0  0  0  0  0  0
   26.2592  -19.5963  -16.3163 C   0  0  0  0  0  0  0  0  0  0  0  0
   27.1670  -21.6491  -15.3977 C   0  0  2  0  0  0  0  0  0  0  0  0
   27.8064  -22.9266  -15.6330 N   0  0  0  0  0  0  0  0  0  0  0  0
   26.0100  -21.7915  -14.4937 C   0  0  0  0  0  0  0  0  0  0  0  0
   25.2061  -22.7297  -14.7267 O   0  0  0  0  0  0  0  0  0  0  0  0
   26.2098  -21.0551   -9.0697 C   0  0  0  0  0  0  0  0  0  0  0  0
   25.9433  -21.6668  -10.4664 C   0  0  0  0  0  0  0  0  0  0  0  0
   24.9095  -20.7935  -11.1163 C   0  0  2  0  0  0  0  0  0  0  0  0
   23.6926  -20.8333  -10.2015 C   0  0  0  0  0  0  0  0  0  0  0  0
   24.5724  -21.1073  -12.5330 C   0  0  2  0  0  0  0  0  0  0  0  0
   25.7671  -20.9303  -13.3902 N   0  0  0  0  0  0  0  0  0  0  0  0
   23.4528  -20.3761  -13.1230 C   0  0  0  0  0  0  0  0  0  0  0  0
   23.4808  -19.0926  -13.2003 O   0  0  0  0  0  0  0  0  0  0  0  0
   21.0944  -20.8553  -18.6820 C   0  0  0  0  0  0  0  0  0  0  0  0
   19.4790  -20.4451  -17.9688 S   0  0  0  0  0  0  0  0  0  0  0  0
   19.7408  -19.8349  -16.2543 C   0  0  0  0  0  0  0  0  0  0  0  0
   20.9014  -20.5359  -15.6230 C   0  0  0  0  0  0  0  0  0  0  0  0
   21.1729  -20.1418  -14.1980 C   0  0  2  0  0  0  0  0  0  0  0  0
   22.2744  -20.9621  -13.6534 N   0  0  0  0  0  0  0  0  0  0  0  0
   19.9871  -20.2459  -13.3194 C   0  0  0  0  0  0  0  0  0  0  0  0
   19.8720  -21.2382  -12.5391 O   0  0  0  0  0  0  0  0  0  0  0  0
   18.9742  -19.3096  -13.2933 O   0  0  0  0  0  0  0  0  0  0  0  0
  2  1  1  0
  3  2  1  0
  3  5  1  0
  3  4  1  1
  5  6  1  6
  7  5  1  0
  7  8  2  0
 10  9  1  0
 11 13  1  0
 11 10  1  0
 11 12  1  1
 13 14  1  6
 14  7  1  0
 15 13  1  0
 16 15  2  0
 18 17  1  0
 19 18  1  0
 21 20  1  6
 20 19  1  0
 21 22  1  0
 22 15  1  0
 23 25  1  0
 23 21  1  0
 24 23  2  0
M  END
$$$$
