IIM.pdb
     RDKit          3D

 25 24  0  0  1  0  0  0  0  0999 V2000
   17.8761  -19.6885  -16.4605 C   0  0  0  0  0  0  0  0  0  0  0  0
   19.1918  -19.5630  -15.7736 C   0  0  0  0  0  0  0  0  0  0  0  0
   19.4293  -20.5115  -14.6489 C   0  0  2  0  0  0  0  0  0  0  0  0
   18.3546  -20.2962  -13.5876 C   0  0  0  0  0  0  0  0  0  0  0  0
   20.7483  -20.3556  -13.9732 C   0  0  2  0  0  0  0  0  0  0  0  0
   21.8425  -20.5052  -14.9096 N   0  0  0  0  0  0  0  0  0  0  0  0
   20.9279  -21.2320  -12.8003 C   0  0  0  0  0  0  0  0  0  0  0  0
   21.1756  -22.4454  -13.0176 O   0  0  0  0  0  0  0  0  0  0  0  0
   23.8150  -21.0087   -7.6285 C   0  0  0  0  0  0  0  0  0  0  0  0
   22.6263  -21.7876   -8.2420 C   0  0  0  0  0  0  0  0  0  0  0  0
   22.2274  -21.0373   -9.4796 C   0  0  2  0  0  0  0  0  0  0  0  0
   21.8519  -19.6358   -9.0169 C   0  0  0  0  0  0  0  0  0  0  0  0
   21.1723  -21.6644  -10.3239 C   0  0  2  0  0  0  0  0  0  0  0  0
   20.8346  -20.7745  -11.4585 N   0  0  0  0  0  0  0  0  0  0  0  0
   19.9381  -22.0635   -9.6505 C   0  0  0  0  0  0  0  0  0  0  0  0
   18.9506  -21.2446   -9.5603 O   0  0  0  0  0  0  0  0  0  0  0  0
   16.0200  -26.1798  -11.3024 C   0  0  0  0  0  0  0  0  0  0  0  0
   15.6841  -26.5499   -9.5598 S   0  0  0  0  0  0  0  0  0  0  0  0
   16.4466  -25.2313   -8.5301 C   0  0  0  0  0  0  0  0  0  0  0  0
   17.7257  -24.7623   -9.1472 C   0  0  0  0  0  0  0  0  0  0  0  0
   18.4110  -23.6507   -8.4026 C   0  0  2  0  0  0  0  0  0  0  0  0
   19.6964  -23.3290   -9.0559 N   0  0  0  0  0  0  0  0  0  0  0  0
   18.6357  -23.9485   -6.9709 C   0  0  0  0  0  0  0  0  0  0  0  0
   17.6421  -24.0550   -6.1909 O   0  0  0  0  0  0  0  0  0  0  0  0
   19.8869  -24.1228   -6.4166 O   0  0  0  0  0  0  0  0  0  0  0  0
  2  1  1  0
  3  2  1  0
  3  5  1  0
  3  4  1  1
  5  6  1  6
  7  5  1  0
  7  8  2  0
 10  9  1  0
 11 13  1  0
 11 10  1  0
 11 12  1  1
 13 14  1  6
 14  7  1  0
 15 13  1  0
 16 15  2  0
 18 17  1  0
 19 18  1  0
 21 20  1  6
 20 19  1  0
 21 22  1  0
 22 15  1  0
 23 25  1  0
 23 21  1  0
 24 23  2  0
M  END
$$$$
