IIM.pdb
     RDKit          3D

 25 24  0  0  1  0  0  0  0  0999 V2000
   16.6613  -24.9111   -9.5526 C   0  0  0  0  0  0  0  0  0  0  0  0
   17.9997  -24.5515   -9.0068 C   0  0  0  0  0  0  0  0  0  0  0  0
   18.6201  -23.3191   -9.5702 C   0  0  2  0  0  0  0  0  0  0  0  0
   18.8187  -23.5095  -11.0709 C   0  0  0  0  0  0  0  0  0  0  0  0
   19.9502  -22.9743   -8.9935 C   0  0  2  0  0  0  0  0  0  0  0  0
   19.8586  -22.7149   -7.5720 N   0  0  0  0  0  0  0  0  0  0  0  0
   20.6387  -21.8726   -9.6924 C   0  0  0  0  0  0  0  0  0  0  0  0
   20.2032  -20.7079   -9.5059 O   0  0  0  0  0  0  0  0  0  0  0  0
   25.7048  -20.8066   -9.2160 C   0  0  0  0  0  0  0  0  0  0  0  0
   24.1693  -20.6761   -9.3616 C   0  0  0  0  0  0  0  0  0  0  0  0
   23.8666  -20.8875  -10.8168 C   0  0  2  0  0  0  0  0  0  0  0  0
   24.6513  -19.8195  -11.5672 C   0  0  0  0  0  0  0  0  0  0  0  0
   22.4266  -20.9146  -11.1973 C   0  0  2  0  0  0  0  0  0  0  0  0
   21.7528  -22.0651  -10.5526 N   0  0  0  0  0  0  0  0  0  0  0  0
   22.1212  -20.9260  -12.6265 C   0  0  0  0  0  0  0  0  0  0  0  0
   22.3378  -21.9800  -13.3309 O   0  0  0  0  0  0  0  0  0  0  0  0
   16.7225  -19.9523  -15.3925 C   0  0  0  0  0  0  0  0  0  0  0  0
   17.6569  -19.0036  -16.6228 S   0  0  0  0  0  0  0  0  0  0  0  0
   19.4337  -19.4517  -16.4724 C   0  0  0  0  0  0  0  0  0  0  0  0
   19.8239  -19.5601  -15.0326 C   0  0  0  0  0  0  0  0  0  0  0  0
   21.2550  -19.9561  -14.7984 C   0  0  2  0  0  0  0  0  0  0  0  0
   21.5772  -19.8409  -13.3612 N   0  0  0  0  0  0  0  0  0  0  0  0
   22.2237  -19.1713  -15.5950 C   0  0  0  0  0  0  0  0  0  0  0  0
   22.7801  -18.1557  -15.0792 O   0  0  0  0  0  0  0  0  0  0  0  0
   22.5696  -19.4811  -16.8940 O   0  0  0  0  0  0  0  0  0  0  0  0
  2  1  1  0
  3  2  1  0
  3  5  1  0
  3  4  1  6
  5  6  1  1
  7  5  1  0
  7  8  2  0
 10  9  1  0
 11 13  1  0
 11 10  1  0
 11 12  1  6
 13 14  1  1
 14  7  1  0
 15 13  1  0
 16 15  2  0
 18 17  1  0
 19 18  1  0
 21 20  1  1
 20 19  1  0
 21 22  1  0
 22 15  1  0
 23 25  1  0
 23 21  1  0
 24 23  2  0
M  END
$$$$
