MKH.pdb
     RDKit          3D

 28 28  0  0  1  0  0  0  0  0999 V2000
    8.7711  -11.8613   20.0993 C   0  0  0  0  0  0  0  0  0  0  0  0
    7.7914  -12.2957   18.6509 S   0  0  0  0  0  0  0  0  0  0  0  0
    8.1096  -14.0688   18.3013 C   0  0  0  0  0  0  0  0  0  0  0  0
    7.5557  -14.8377   19.4684 C   0  0  0  0  0  0  0  0  0  0  0  0
    8.5573  -15.7864   20.0865 C   0  0  2  0  0  0  0  0  0  0  0  0
    9.0039  -16.7976   19.1818 N   0  0  0  0  0  0  0  0  0  0  0  0
    7.9706  -16.3339   21.3290 C   0  0  0  0  0  0  0  0  0  0  0  0
    7.4375  -15.5436   22.1374 O   0  0  0  0  0  0  0  0  0  0  0  0
    7.9910  -17.7535   21.6452 N   0  0  0  0  0  0  0  0  0  0  0  0
    7.4772  -18.2535   22.8649 C   0  0  1  0  0  0  0  0  0  0  0  0
    7.2598  -19.6802   23.0818 C   0  0  0  0  0  0  0  0  0  0  0  0
    6.8211  -20.1701   24.3883 C   0  0  0  0  0  0  0  0  0  0  0  0
    6.5483  -21.6157   24.4964 C   0  0  0  0  0  0  0  0  0  0  0  0
    6.0559  -21.9633   25.8910 C   0  0  0  0  0  0  0  0  0  0  0  0
    5.7954  -23.3767   26.0248 N   0  0  0  0  0  0  0  0  0  0  0  0
    8.3555  -17.7403   23.9768 C   0  0  0  0  0  0  0  0  0  0  0  0
    9.6125  -17.8697   23.8969 O   0  0  0  0  0  0  0  0  0  0  0  0
    7.8654  -17.1088   25.1317 N   0  0  0  0  0  0  0  0  0  0  0  0
    8.7800  -16.5370   26.1208 C   0  0  1  0  0  0  0  0  0  0  0  0
    8.0839  -15.4674   26.9147 C   0  0  0  0  0  0  0  0  0  0  0  0
    8.9334  -14.9647   28.0106 C   0  0  0  0  0  0  0  0  0  0  0  0
   10.1922  -15.4271   28.3201 C   0  0  0  0  0  0  0  0  0  0  0  0
   10.6582  -14.7442   29.3672 N   0  0  0  0  0  0  0  0  0  0  0  0
    9.7106  -13.8692   29.7095 C   0  0  0  0  0  0  0  0  0  0  0  0
    8.6440  -14.0007   28.8760 N   0  0  0  0  0  0  0  0  0  0  0  0
    9.3133  -17.6061   27.0089 C   0  0  0  0  0  0  0  0  0  0  0  0
    8.5753  -18.5829   27.3532 O   0  0  0  0  0  0  0  0  0  0  0  0
   10.6010  -17.5907   27.4898 O   0  0  0  0  0  0  0  0  0  0  0  0
  1  2  1  0
  3  4  1  0
  3  2  1  0
  5  4  1  0
  5  6  1  6
  7  5  1  0
  8  7  2  0
  9  7  1  0
 10  9  1  0
 11 12  1  0
 10 11  1  6
 13 12  1  0
 14 13  1  0
 15 14  1  0
 16 10  1  0
 16 18  1  0
 17 16  2  0
 19 18  1  0
 19 20  1  1
 21 20  1  0
 21 25  1  0
 22 23  1  0
 22 21  2  0
 23 24  1  0
 24 25  2  0
 26 19  1  0
 27 26  2  0
 28 26  1  0
M  END
$$$$
