MKH.pdb
     RDKit          3D

 28 28  0  0  1  0  0  0  0  0999 V2000
   13.8938  -20.0792   14.1754 C   0  0  0  0  0  0  0  0  0  0  0  0
   12.8899  -19.0717   13.0693 S   0  0  0  0  0  0  0  0  0  0  0  0
   11.3348  -18.6831   13.9625 C   0  0  0  0  0  0  0  0  0  0  0  0
   11.6972  -17.6944   15.0355 C   0  0  0  0  0  0  0  0  0  0  0  0
   11.0209  -16.3534   14.8633 C   0  0  2  0  0  0  0  0  0  0  0  0
   11.5645  -15.5853   13.7886 N   0  0  0  0  0  0  0  0  0  0  0  0
   11.0578  -15.6462   16.1619 C   0  0  0  0  0  0  0  0  0  0  0  0
   12.0865  -15.0034   16.4636 O   0  0  0  0  0  0  0  0  0  0  0  0
    9.9457  -15.6710   17.0989 N   0  0  0  0  0  0  0  0  0  0  0  0
    9.9865  -14.9642   18.3239 C   0  0  1  0  0  0  0  0  0  0  0  0
    8.7808  -14.7054   19.1043 C   0  0  0  0  0  0  0  0  0  0  0  0
    8.8403  -13.8613   20.2973 C   0  0  0  0  0  0  0  0  0  0  0  0
    7.5887  -13.7064   21.0626 C   0  0  0  0  0  0  0  0  0  0  0  0
    7.8183  -12.8448   22.2927 C   0  0  0  0  0  0  0  0  0  0  0  0
    6.6085  -12.6892   23.0647 N   0  0  0  0  0  0  0  0  0  0  0  0
   10.9829  -15.6554   19.2187 C   0  0  0  0  0  0  0  0  0  0  0  0
   10.9674  -16.9174   19.3215 O   0  0  0  0  0  0  0  0  0  0  0  0
   11.9583  -14.9801   19.9704 N   0  0  0  0  0  0  0  0  0  0  0  0
   12.8727  -15.7136   20.8466 C   0  0  1  0  0  0  0  0  0  0  0  0
   14.1931  -15.0009   20.9331 C   0  0  0  0  0  0  0  0  0  0  0  0
   14.8536  -14.9195   19.6168 C   0  0  0  0  0  0  0  0  0  0  0  0
   15.0732  -15.9802   18.7678 C   0  0  0  0  0  0  0  0  0  0  0  0
   15.6940  -15.5366   17.6734 N   0  0  0  0  0  0  0  0  0  0  0  0
   15.8616  -14.2221   17.8313 C   0  0  0  0  0  0  0  0  0  0  0  0
   15.3450  -13.8357   19.0286 N   0  0  0  0  0  0  0  0  0  0  0  0
   12.2659  -15.8890   22.1947 C   0  0  0  0  0  0  0  0  0  0  0  0
   12.8920  -16.5204   23.1038 O   0  0  0  0  0  0  0  0  0  0  0  0
   11.0267  -15.3884   22.5160 O   0  0  0  0  0  0  0  0  0  0  0  0
  1  2  1  0
  3  4  1  0
  3  2  1  0
  5  4  1  0
  5  6  1  6
  7  5  1  0
  8  7  2  0
  9  7  1  0
 10  9  1  0
 11 12  1  0
 10 11  1  1
 13 12  1  0
 14 13  1  0
 15 14  1  0
 16 10  1  0
 16 18  1  0
 17 16  2  0
 19 18  1  0
 19 20  1  1
 21 20  1  0
 21 25  1  0
 22 23  1  0
 22 21  2  0
 23 24  1  0
 24 25  2  0
 26 19  1  0
 27 26  2  0
 28 26  1  0
M  END
$$$$
