MKH.pdb
     RDKit          3D

 28 28  0  0  1  0  0  0  0  0999 V2000
    7.3255  -12.2252   19.9172 C   0  0  0  0  0  0  0  0  0  0  0  0
    8.3613  -12.7216   18.5290 S   0  0  0  0  0  0  0  0  0  0  0  0
    7.8142  -14.3993   18.0257 C   0  0  0  0  0  0  0  0  0  0  0  0
    7.6079  -15.1773   19.2955 C   0  0  0  0  0  0  0  0  0  0  0  0
    7.2388  -16.6234   19.0551 C   0  0  2  0  0  0  0  0  0  0  0  0
    6.1359  -16.7792   18.1607 N   0  0  0  0  0  0  0  0  0  0  0  0
    7.0205  -17.2697   20.3675 C   0  0  0  0  0  0  0  0  0  0  0  0
    5.9603  -17.0283   20.9840 O   0  0  0  0  0  0  0  0  0  0  0  0
    7.9907  -18.1726   20.9667 N   0  0  0  0  0  0  0  0  0  0  0  0
    7.7492  -18.8114   22.2058 C   0  0  1  0  0  0  0  0  0  0  0  0
    6.8638  -19.9661   22.3173 C   0  0  0  0  0  0  0  0  0  0  0  0
    6.6709  -20.6269   23.6080 C   0  0  0  0  0  0  0  0  0  0  0  0
    5.8153  -21.8285   23.6158 C   0  0  0  0  0  0  0  0  0  0  0  0
    5.7043  -22.3956   25.0209 C   0  0  0  0  0  0  0  0  0  0  0  0
    4.8383  -23.5498   25.0603 N   0  0  0  0  0  0  0  0  0  0  0  0
    9.0842  -19.1877   22.7952 C   0  0  0  0  0  0  0  0  0  0  0  0
    9.6677  -20.2433   22.4096 O   0  0  0  0  0  0  0  0  0  0  0  0
    9.7494  -18.4283   23.7717 N   0  0  0  0  0  0  0  0  0  0  0  0
   11.0689  -17.8535   23.5065 C   0  0  1  0  0  0  0  0  0  0  0  0
   10.9880  -16.8666   22.3759 C   0  0  0  0  0  0  0  0  0  0  0  0
   12.3098  -16.2939   22.0591 C   0  0  0  0  0  0  0  0  0  0  0  0
   13.4799  -16.5705   22.7287 C   0  0  0  0  0  0  0  0  0  0  0  0
   14.4721  -15.8745   22.1710 N   0  0  0  0  0  0  0  0  0  0  0  0
   13.9360  -15.1738   21.1698 C   0  0  0  0  0  0  0  0  0  0  0  0
   12.6021  -15.4286   21.0960 N   0  0  0  0  0  0  0  0  0  0  0  0
   11.6117  -17.2180   24.7385 C   0  0  0  0  0  0  0  0  0  0  0  0
   12.7936  -16.7488   24.7520 O   0  0  0  0  0  0  0  0  0  0  0  0
   10.8786  -17.1093   25.8962 O   0  0  0  0  0  0  0  0  0  0  0  0
  1  2  1  0
  3  4  1  0
  3  2  1  0
  5  4  1  0
  5  6  1  6
  7  5  1  0
  8  7  2  0
  9  7  1  0
 10  9  1  0
 11 12  1  0
 10 11  1  6
 13 12  1  0
 14 13  1  0
 15 14  1  0
 16 10  1  0
 16 18  1  0
 17 16  2  0
 19 18  1  0
 19 20  1  6
 21 20  1  0
 21 25  1  0
 22 23  1  0
 22 21  2  0
 23 24  1  0
 24 25  2  0
 26 19  1  0
 27 26  2  0
 28 26  1  0
M  END
$$$$
