MKH.pdb
     RDKit          3D

 28 28  0  0  1  0  0  0  0  0999 V2000
    8.8167  -12.1441   20.9386 C   0  0  0  0  0  0  0  0  0  0  0  0
    7.9139  -12.1049   19.3799 S   0  0  0  0  0  0  0  0  0  0  0  0
    7.9431  -13.8095   18.7010 C   0  0  0  0  0  0  0  0  0  0  0  0
    8.4536  -14.6963   19.8025 C   0  0  0  0  0  0  0  0  0  0  0  0
    8.6309  -16.1355   19.3750 C   0  0  2  0  0  0  0  0  0  0  0  0
    7.4315  -16.7210   18.8661 N   0  0  0  0  0  0  0  0  0  0  0  0
    9.2105  -16.8872   20.5094 C   0  0  0  0  0  0  0  0  0  0  0  0
    8.4403  -17.3327   21.3873 O   0  0  0  0  0  0  0  0  0  0  0  0
   10.6390  -17.1264   20.6420 N   0  0  0  0  0  0  0  0  0  0  0  0
   11.1722  -17.8858   21.7100 C   0  0  1  0  0  0  0  0  0  0  0  0
   12.4585  -18.5670   21.6038 C   0  0  0  0  0  0  0  0  0  0  0  0
   12.9855  -19.3304   22.7347 C   0  0  0  0  0  0  0  0  0  0  0  0
   14.2382  -20.0747   22.5054 C   0  0  0  0  0  0  0  0  0  0  0  0
   14.6521  -20.8229   23.7613 C   0  0  0  0  0  0  0  0  0  0  0  0
   15.8433  -21.6084   23.5426 N   0  0  0  0  0  0  0  0  0  0  0  0
   11.2125  -16.9987   22.9277 C   0  0  0  0  0  0  0  0  0  0  0  0
   11.8268  -15.8925   22.8808 O   0  0  0  0  0  0  0  0  0  0  0  0
   10.5983  -17.3200   24.1493 N   0  0  0  0  0  0  0  0  0  0  0  0
   10.8035  -16.4873   25.3352 C   0  0  1  0  0  0  0  0  0  0  0  0
    9.5162  -16.3421   26.0971 C   0  0  0  0  0  0  0  0  0  0  0  0
    9.6844  -15.4923   27.2908 C   0  0  0  0  0  0  0  0  0  0  0  0
   10.8276  -14.8021   27.6237 C   0  0  0  0  0  0  0  0  0  0  0  0
   10.6185  -14.1444   28.7654 N   0  0  0  0  0  0  0  0  0  0  0  0
    9.3677  -14.4158   29.1431 C   0  0  0  0  0  0  0  0  0  0  0  0
    8.7865  -15.2470   28.2372 N   0  0  0  0  0  0  0  0  0  0  0  0
   11.8745  -17.0656   26.1925 C   0  0  0  0  0  0  0  0  0  0  0  0
   12.4515  -16.3492   27.0705 O   0  0  0  0  0  0  0  0  0  0  0  0
   12.2834  -18.3732   26.0798 O   0  0  0  0  0  0  0  0  0  0  0  0
  1  2  1  0
  3  4  1  0
  3  2  1  0
  5  4  1  0
  5  6  1  1
  7  5  1  0
  8  7  2  0
  9  7  1  0
 10  9  1  0
 11 12  1  0
 10 11  1  6
 13 12  1  0
 14 13  1  0
 15 14  1  0
 16 10  1  0
 16 18  1  0
 17 16  2  0
 19 18  1  0
 19 20  1  1
 21 20  1  0
 21 25  1  0
 22 23  1  0
 22 21  2  0
 23 24  1  0
 24 25  2  0
 26 19  1  0
 27 26  2  0
 28 26  1  0
M  END
$$$$
