MKH.pdb
     RDKit          3D

 28 28  0  0  1  0  0  0  0  0999 V2000
    7.8174  -11.7024   26.9062 C   0  0  0  0  0  0  0  0  0  0  0  0
    6.0902  -11.9843   26.4779 S   0  0  0  0  0  0  0  0  0  0  0  0
    5.7914  -13.7895   26.6181 C   0  0  0  0  0  0  0  0  0  0  0  0
    6.9053  -14.4637   25.8666 C   0  0  0  0  0  0  0  0  0  0  0  0
    6.4151  -15.4710   24.8516 C   0  0  2  0  0  0  0  0  0  0  0  0
    5.5825  -16.4819   25.4220 N   0  0  0  0  0  0  0  0  0  0  0  0
    7.5895  -16.0178   24.1376 C   0  0  0  0  0  0  0  0  0  0  0  0
    8.2048  -16.9791   24.6472 O   0  0  0  0  0  0  0  0  0  0  0  0
    8.0548  -15.4801   22.8688 N   0  0  0  0  0  0  0  0  0  0  0  0
    9.2232  -15.9661   22.2362 C   0  0  1  0  0  0  0  0  0  0  0  0
    9.4976  -15.7122   20.8255 C   0  0  0  0  0  0  0  0  0  0  0  0
    8.5916  -16.2178   19.7944 C   0  0  0  0  0  0  0  0  0  0  0  0
    8.8961  -15.8395   18.4015 C   0  0  0  0  0  0  0  0  0  0  0  0
    7.8337  -16.3773   17.4579 C   0  0  0  0  0  0  0  0  0  0  0  0
    8.0952  -15.9941   16.0909 N   0  0  0  0  0  0  0  0  0  0  0  0
   10.4088  -15.4903   23.0358 C   0  0  0  0  0  0  0  0  0  0  0  0
   10.4698  -14.2835   23.4139 O   0  0  0  0  0  0  0  0  0  0  0  0
   11.4848  -16.3146   23.4037 N   0  0  0  0  0  0  0  0  0  0  0  0
   11.9541  -16.3638   24.7890 C   0  0  1  0  0  0  0  0  0  0  0  0
   10.8197  -16.7165   25.7096 C   0  0  0  0  0  0  0  0  0  0  0  0
   10.9339  -16.0194   27.0043 C   0  0  0  0  0  0  0  0  0  0  0  0
   11.7561  -14.9463   27.2624 C   0  0  0  0  0  0  0  0  0  0  0  0
   11.5994  -14.5778   28.5350 N   0  0  0  0  0  0  0  0  0  0  0  0
   10.6959  -15.4034   29.0669 C   0  0  0  0  0  0  0  0  0  0  0  0
   10.2818  -16.2950   28.1272 N   0  0  0  0  0  0  0  0  0  0  0  0
   13.0756  -17.3341   24.9197 C   0  0  0  0  0  0  0  0  0  0  0  0
   13.1894  -18.2987   24.0988 O   0  0  0  0  0  0  0  0  0  0  0  0
   14.0222  -17.2374   25.9117 O   0  0  0  0  0  0  0  0  0  0  0  0
  1  2  1  0
  3  4  1  0
  3  2  1  0
  5  4  1  0
  5  6  1  1
  7  5  1  0
  8  7  2  0
  9  7  1  0
 10  9  1  0
 11 12  1  0
 10 11  1  6
 13 12  1  0
 14 13  1  0
 15 14  1  0
 16 10  1  0
 16 18  1  0
 17 16  2  0
 19 18  1  0
 19 20  1  1
 21 20  1  0
 21 25  1  0
 22 23  1  0
 22 21  2  0
 23 24  1  0
 24 25  2  0
 26 19  1  0
 27 26  2  0
 28 26  1  0
M  END
$$$$
