MKH.pdb
     RDKit          3D

 28 28  0  0  1  0  0  0  0  0999 V2000
    5.8291  -11.0955   26.3234 C   0  0  0  0  0  0  0  0  0  0  0  0
    6.2442  -12.1398   27.7317 S   0  0  0  0  0  0  0  0  0  0  0  0
    5.8445  -13.8660   27.2545 C   0  0  0  0  0  0  0  0  0  0  0  0
    6.7393  -14.2038   26.0946 C   0  0  0  0  0  0  0  0  0  0  0  0
    6.4264  -15.5451   25.4714 C   0  0  2  0  0  0  0  0  0  0  0  0
    6.5679  -16.6343   26.3848 N   0  0  0  0  0  0  0  0  0  0  0  0
    7.2535  -15.6942   24.2543 C   0  0  0  0  0  0  0  0  0  0  0  0
    8.0205  -16.6776   24.1692 O   0  0  0  0  0  0  0  0  0  0  0  0
    7.2090  -14.7420   23.1557 N   0  0  0  0  0  0  0  0  0  0  0  0
    7.8336  -15.0058   21.9140 C   0  0  1  0  0  0  0  0  0  0  0  0
    7.6297  -14.1475   20.7515 C   0  0  0  0  0  0  0  0  0  0  0  0
    8.2354  -14.4903   19.4650 C   0  0  0  0  0  0  0  0  0  0  0  0
    7.9927  -13.5571   18.3487 C   0  0  0  0  0  0  0  0  0  0  0  0
    8.6039  -14.0908   17.0642 C   0  0  0  0  0  0  0  0  0  0  0  0
    8.4659  -13.1485   15.9795 N   0  0  0  0  0  0  0  0  0  0  0  0
    9.3164  -15.1138   22.1608 C   0  0  0  0  0  0  0  0  0  0  0  0
    9.8946  -14.2660   22.9026 O   0  0  0  0  0  0  0  0  0  0  0  0
   10.1291  -16.1185   21.6106 N   0  0  0  0  0  0  0  0  0  0  0  0
   11.1734  -16.7615   22.4093 C   0  0  1  0  0  0  0  0  0  0  0  0
   10.8077  -18.1924   22.6874 C   0  0  0  0  0  0  0  0  0  0  0  0
   11.8495  -18.8757   23.4769 C   0  0  0  0  0  0  0  0  0  0  0  0
   13.0154  -18.2994   23.9271 C   0  0  0  0  0  0  0  0  0  0  0  0
   13.7160  -19.2119   24.6026 N   0  0  0  0  0  0  0  0  0  0  0  0
   13.0042  -20.3404   24.5776 C   0  0  0  0  0  0  0  0  0  0  0  0
   11.8516  -20.1390   23.8845 N   0  0  0  0  0  0  0  0  0  0  0  0
   12.4865  -16.6663   21.7142 C   0  0  0  0  0  0  0  0  0  0  0  0
   13.5399  -17.1161   22.2667 O   0  0  0  0  0  0  0  0  0  0  0  0
   12.6220  -16.1002   20.4689 O   0  0  0  0  0  0  0  0  0  0  0  0
  1  2  1  0
  3  4  1  0
  3  2  1  0
  5  4  1  0
  5  6  1  1
  7  5  1  0
  8  7  2  0
  9  7  1  0
 10  9  1  0
 11 12  1  0
 10 11  1  6
 13 12  1  0
 14 13  1  0
 15 14  1  0
 16 10  1  0
 16 18  1  0
 17 16  2  0
 19 18  1  0
 19 20  1  6
 21 20  1  0
 21 25  1  0
 22 23  1  0
 22 21  2  0
 23 24  1  0
 24 25  2  0
 26 19  1  0
 27 26  2  0
 28 26  1  0
M  END
$$$$
