MKH.pdb
     RDKit          3D

 28 28  0  0  1  0  0  0  0  0999 V2000
    8.7043  -11.5451   19.9450 C   0  0  0  0  0  0  0  0  0  0  0  0
    7.1926  -12.2204   19.2345 S   0  0  0  0  0  0  0  0  0  0  0  0
    7.4332  -14.0338   19.0884 C   0  0  0  0  0  0  0  0  0  0  0  0
    7.1668  -14.6085   20.4518 C   0  0  0  0  0  0  0  0  0  0  0  0
    8.2260  -15.5884   20.9028 C   0  0  2  0  0  0  0  0  0  0  0  0
    8.4784  -16.6201   19.9477 N   0  0  0  0  0  0  0  0  0  0  0  0
    7.8399  -16.1075   22.2330 C   0  0  0  0  0  0  0  0  0  0  0  0
    7.4979  -15.2925   23.1168 O   0  0  0  0  0  0  0  0  0  0  0  0
    7.8440  -17.5268   22.5509 N   0  0  0  0  0  0  0  0  0  0  0  0
    7.4922  -18.0045   23.8354 C   0  0  1  0  0  0  0  0  0  0  0  0
    7.4384  -19.4310   24.1384 C   0  0  0  0  0  0  0  0  0  0  0  0
    7.0347  -19.8889   25.4677 C   0  0  0  0  0  0  0  0  0  0  0  0
    6.9388  -21.3476   25.6652 C   0  0  0  0  0  0  0  0  0  0  0  0
    6.4151  -21.6647   27.0557 C   0  0  0  0  0  0  0  0  0  0  0  0
    5.0817  -22.2156   27.0075 N   0  0  0  0  0  0  0  0  0  0  0  0
    8.4095  -17.3487   24.8352 C   0  0  0  0  0  0  0  0  0  0  0  0
    9.6510  -17.2758   24.5973 O   0  0  0  0  0  0  0  0  0  0  0  0
    7.9734  -16.7948   26.0500 N   0  0  0  0  0  0  0  0  0  0  0  0
    8.9204  -16.1667   26.9722 C   0  0  1  0  0  0  0  0  0  0  0  0
    8.2621  -15.0255   27.6953 C   0  0  0  0  0  0  0  0  0  0  0  0
    7.6908  -14.0435   26.7547 C   0  0  0  0  0  0  0  0  0  0  0  0
    6.3776  -13.6325   26.7309 C   0  0  0  0  0  0  0  0  0  0  0  0
    6.2211  -12.7416   25.7503 N   0  0  0  0  0  0  0  0  0  0  0  0
    7.4131  -12.5953   25.1686 C   0  0  0  0  0  0  0  0  0  0  0  0
    8.3238  -13.3961   25.7840 N   0  0  0  0  0  0  0  0  0  0  0  0
    9.4543  -17.1745   27.9290 C   0  0  0  0  0  0  0  0  0  0  0  0
   10.2462  -16.8210   28.8591 O   0  0  0  0  0  0  0  0  0  0  0  0
    9.1248  -18.5071   27.8561 O   0  0  0  0  0  0  0  0  0  0  0  0
  1  2  1  0
  3  4  1  0
  3  2  1  0
  5  4  1  0
  5  6  1  6
  7  5  1  0
  8  7  2  0
  9  7  1  0
 10  9  1  0
 11 12  1  0
 10 11  1  6
 13 12  1  0
 14 13  1  0
 15 14  1  0
 16 10  1  0
 16 18  1  0
 17 16  2  0
 19 18  1  0
 19 20  1  1
 21 20  1  0
 21 25  1  0
 22 23  1  0
 22 21  2  0
 23 24  1  0
 24 25  2  0
 26 19  1  0
 27 26  2  0
 28 26  1  0
M  END
$$$$
