RVH.pdb
     RDKit          3D

 29 29  0  0  1  0  0  0  0  0999 V2000
   11.2237  -20.7212   14.2370 N   0  0  0  0  0  0  0  0  0  0  0  0
   10.8221  -19.3799   13.9916 C   0  0  0  0  0  0  0  0  0  0  0  0
   10.6008  -18.9652   12.7937 N   0  0  0  0  0  0  0  0  0  0  0  0
   10.6640  -18.4834   15.0889 N   0  0  0  0  0  0  0  0  0  0  0  0
   10.8565  -18.9280   16.4794 C   0  0  0  0  0  0  0  0  0  0  0  0
    9.5563  -18.7091   17.1704 C   0  0  0  0  0  0  0  0  0  0  0  0
    9.3361  -17.3720   17.7905 C   0  0  0  0  0  0  0  0  0  0  0  0
    9.7259  -17.3279   19.2249 C   0  0  2  0  0  0  0  0  0  0  0  0
    8.8775  -18.2332   19.9983 N   0  0  0  0  0  0  0  0  0  0  0  0
    9.4940  -15.9725   19.8266 C   0  0  0  0  0  0  0  0  0  0  0  0
    9.7369  -14.9123   19.2002 O   0  0  0  0  0  0  0  0  0  0  0  0
   10.2337  -18.0087   12.6013 C   0  0  0  0  0  0  0  0  0  0  0  0
    7.9347  -13.5164   19.5413 C   0  0  2  0  0  0  0  0  0  0  0  0
    7.5658  -13.9540   20.9113 C   0  0  0  0  0  0  0  0  0  0  0  0
    6.8544  -12.8093   21.6013 C   0  0  2  0  0  0  0  0  0  0  0  0
    8.6700  -14.5265   21.7472 N   0  0  0  0  0  0  0  0  0  0  0  0
    8.9838  -15.8254   21.1450 C   0  0  0  0  0  0  0  0  0  0  0  0
    8.3214  -14.7014   23.1776 O   0  0  0  0  0  0  0  0  0  0  0  0
    7.1524  -14.3969   23.6030 N   0  0  0  0  0  0  0  0  0  0  0  0
    9.2313  -15.2038   24.1398 C   0  0  1  0  0  0  0  0  0  0  0  0
    8.8423  -16.1779   25.1421 C   0  0  0  0  0  0  0  0  0  0  0  0
    8.3104  -17.4250   24.5004 C   0  0  0  0  0  0  0  0  0  0  0  0
    7.8023  -18.4306   25.4707 C   0  0  0  0  0  0  0  0  0  0  0  0
    7.7585  -18.3232   26.8441 N   0  0  0  0  0  0  0  0  0  0  0  0
    7.2287  -19.4509   27.3368 C   0  0  0  0  0  0  0  0  0  0  0  0
    6.9451  -20.2497   26.3064 N   0  0  0  0  0  0  0  0  0  0  0  0
    7.2937  -19.6298   25.1711 C   0  0  0  0  0  0  0  0  0  0  0  0
    9.9816  -16.5304   26.0283 O   0  0  0  0  0  0  0  0  0  0  0  0
    9.7660  -17.1331   27.2356 O   0  0  0  0  0  0  0  0  0  0  0  0
  1  2  1  0
  2  3  2  0
  4  5  1  0
  4  2  1  0
  6  5  1  0
  7  6  1  0
  8 10  1  0
  8  7  1  0
  8  9  1  1
 10 11  2  0
 13 12  1  6
 13 15  1  0
 14 13  1  0
 15 16  1  1
 16 10  1  0
 17 15  1  0
 17 18  2  0
 19 17  1  0
 20 19  1  0
 20 27  1  0
 20 21  1  1
 22 26  1  0
 22 21  1  0
 23 22  2  0
 24 23  1  0
 24 25  1  0
 25 26  2  0
 27 29  2  0
 27 28  1  0
M  END
$$$$
