RVH.pdb
     RDKit          3D

 29 29  0  0  1  0  0  0  0  0999 V2000
   10.8195  -22.1588   17.8106 N   0  0  0  0  0  0  0  0  0  0  0  0
    9.9781  -22.2300   18.9541 C   0  0  0  0  0  0  0  0  0  0  0  0
    9.6266  -23.3659   19.4459 N   0  0  0  0  0  0  0  0  0  0  0  0
    9.5178  -21.0253   19.5620 N   0  0  0  0  0  0  0  0  0  0  0  0
    9.8111  -19.7068   18.9756 C   0  0  0  0  0  0  0  0  0  0  0  0
    8.8262  -19.5114   17.8766 C   0  0  0  0  0  0  0  0  0  0  0  0
    7.5943  -18.7382   18.2014 C   0  0  0  0  0  0  0  0  0  0  0  0
    7.6627  -17.3234   17.7484 C   0  0  2  0  0  0  0  0  0  0  0  0
    8.4411  -17.2341   16.5139 N   0  0  0  0  0  0  0  0  0  0  0  0
    8.3948  -16.4559   18.7304 C   0  0  0  0  0  0  0  0  0  0  0  0
    9.6288  -16.2431   18.6446 O   0  0  0  0  0  0  0  0  0  0  0  0
    9.0276  -23.4360   20.2962 C   0  0  0  0  0  0  0  0  0  0  0  0
    7.6772  -12.9437   19.4978 C   0  0  1  0  0  0  0  0  0  0  0  0
    7.6688  -13.6810   20.7865 C   0  0  0  0  0  0  0  0  0  0  0  0
    8.1432  -12.7418   21.8753 C   0  0  2  0  0  0  0  0  0  0  0  0
    8.3939  -14.9922   20.8080 N   0  0  0  0  0  0  0  0  0  0  0  0
    7.7186  -15.8294   19.8123 C   0  0  0  0  0  0  0  0  0  0  0  0
    8.3882  -15.6684   22.1273 O   0  0  0  0  0  0  0  0  0  0  0  0
    7.4081  -16.4190   22.4680 N   0  0  0  0  0  0  0  0  0  0  0  0
    9.4368  -15.5341   23.0701 C   0  0  1  0  0  0  0  0  0  0  0  0
   10.1287  -16.6796   23.6304 C   0  0  0  0  0  0  0  0  0  0  0  0
   10.7117  -17.5371   22.5465 C   0  0  0  0  0  0  0  0  0  0  0  0
   11.3952  -18.7585   23.0486 C   0  0  0  0  0  0  0  0  0  0  0  0
   11.4001  -19.2468   24.3375 N   0  0  0  0  0  0  0  0  0  0  0  0
   12.1354  -20.3666   24.3595 C   0  0  0  0  0  0  0  0  0  0  0  0
   12.5835  -20.5819   23.1213 N   0  0  0  0  0  0  0  0  0  0  0  0
   12.1338  -19.6042   22.3234 C   0  0  0  0  0  0  0  0  0  0  0  0
   11.2104  -16.2603   24.5588 O   0  0  0  0  0  0  0  0  0  0  0  0
   11.4387  -16.9457   25.7188 O   0  0  0  0  0  0  0  0  0  0  0  0
  1  2  1  0
  2  3  2  0
  4  5  1  0
  4  2  1  0
  6  5  1  0
  7  6  1  0
  8 10  1  0
  8  7  1  0
  8  9  1  6
 10 11  2  0
 13 12  1  1
 13 15  1  0
 14 13  1  0
 15 16  1  6
 16 10  1  0
 17 15  1  0
 17 18  2  0
 19 17  1  0
 20 19  1  0
 20 27  1  0
 20 21  1  1
 22 26  1  0
 22 21  1  0
 23 22  2  0
 24 23  1  0
 24 25  1  0
 25 26  2  0
 27 29  2  0
 27 28  1  0
M  END
$$$$
