RVH.pdb
     RDKit          3D

 29 29  0  0  1  0  0  0  0  0999 V2000
    9.3665  -13.5535   18.2481 N   0  0  0  0  0  0  0  0  0  0  0  0
    8.6493  -14.1739   17.1892 C   0  0  0  0  0  0  0  0  0  0  0  0
    8.3293  -13.5134   16.1322 N   0  0  0  0  0  0  0  0  0  0  0  0
    8.2797  -15.5462   17.3023 N   0  0  0  0  0  0  0  0  0  0  0  0
    8.5371  -16.3135   18.5325 C   0  0  0  0  0  0  0  0  0  0  0  0
    7.6820  -15.7061   19.5887 C   0  0  0  0  0  0  0  0  0  0  0  0
    8.2257  -15.6947   20.9762 C   0  0  0  0  0  0  0  0  0  0  0  0
    7.2499  -15.1855   21.9762 C   0  0  2  0  0  0  0  0  0  0  0  0
    6.4108  -14.1528   21.3703 N   0  0  0  0  0  0  0  0  0  0  0  0
    7.9314  -14.5038   23.1267 C   0  0  0  0  0  0  0  0  0  0  0  0
    8.9774  -13.8261   22.9780 O   0  0  0  0  0  0  0  0  0  0  0  0
    7.8306  -13.9607   15.3335 C   0  0  0  0  0  0  0  0  0  0  0  0
    6.6716  -11.9680   25.3110 C   0  0  1  0  0  0  0  0  0  0  0  0
    7.1454  -13.0493   26.2114 C   0  0  0  0  0  0  0  0  0  0  0  0
    7.6806  -12.4142   27.4774 C   0  0  2  0  0  0  0  0  0  0  0  0
    8.1045  -14.0365   25.6188 N   0  0  0  0  0  0  0  0  0  0  0  0
    7.4193  -14.5945   24.4495 C   0  0  0  0  0  0  0  0  0  0  0  0
    8.5026  -15.1264   26.5416 O   0  0  0  0  0  0  0  0  0  0  0  0
    7.6225  -15.9199   27.0273 N   0  0  0  0  0  0  0  0  0  0  0  0
    9.8439  -15.3564   26.9343 C   0  0  1  0  0  0  0  0  0  0  0  0
   10.2245  -16.4696   27.7833 C   0  0  0  0  0  0  0  0  0  0  0  0
   11.5313  -17.0589   27.3417 C   0  0  0  0  0  0  0  0  0  0  0  0
   11.5024  -17.6217   25.9656 C   0  0  0  0  0  0  0  0  0  0  0  0
   10.4050  -17.7782   25.1466 N   0  0  0  0  0  0  0  0  0  0  0  0
   10.8160  -18.3224   23.9933 C   0  0  0  0  0  0  0  0  0  0  0  0
   12.1349  -18.5056   24.0786 N   0  0  0  0  0  0  0  0  0  0  0  0
   12.5531  -18.0797   25.2780 C   0  0  0  0  0  0  0  0  0  0  0  0
   10.3293  -16.0564   29.2067 O   0  0  0  0  0  0  0  0  0  0  0  0
   10.5640  -16.9802   30.1859 O   0  0  0  0  0  0  0  0  0  0  0  0
  1  2  1  0
  2  3  2  0
  4  5  1  0
  4  2  1  0
  6  5  1  0
  7  6  1  0
  8 10  1  0
  8  7  1  0
  8  9  1  6
 10 11  2  0
 13 12  1  1
 13 15  1  0
 14 13  1  0
 15 16  1  6
 16 10  1  0
 17 15  1  0
 17 18  2  0
 19 17  1  0
 20 19  1  0
 20 27  1  0
 20 21  1  1
 22 26  1  0
 22 21  1  0
 23 22  2  0
 24 23  1  0
 24 25  1  0
 25 26  2  0
 27 29  2  0
 27 28  1  0
M  END
$$$$
