RVH.pdb
     RDKit          3D

 29 29  0  0  1  0  0  0  0  0999 V2000
   11.2653  -19.3072   13.5780 N   0  0  0  0  0  0  0  0  0  0  0  0
   10.9589  -20.5872   14.1150 C   0  0  0  0  0  0  0  0  0  0  0  0
   10.8345  -21.6129   13.3478 N   0  0  0  0  0  0  0  0  0  0  0  0
   10.7866  -20.7342   15.5226 N   0  0  0  0  0  0  0  0  0  0  0  0
   10.4950  -19.5781   16.3868 C   0  0  0  0  0  0  0  0  0  0  0  0
    9.0117  -19.4783   16.4623 C   0  0  0  0  0  0  0  0  0  0  0  0
    8.4469  -18.5488   17.4811 C   0  0  0  0  0  0  0  0  0  0  0  0
    8.4768  -17.1268   17.0470 C   0  0  2  0  0  0  0  0  0  0  0  0
    9.3536  -16.9801   15.8862 N   0  0  0  0  0  0  0  0  0  0  0  0
    9.0721  -16.2336   18.0962 C   0  0  0  0  0  0  0  0  0  0  0  0
   10.3120  -16.0857   18.2235 O   0  0  0  0  0  0  0  0  0  0  0  0
   10.5882  -22.5539   13.7225 C   0  0  0  0  0  0  0  0  0  0  0  0
    7.5309  -12.6744   19.4697 C   0  0  1  0  0  0  0  0  0  0  0  0
    7.7425  -13.7408   20.4809 C   0  0  0  0  0  0  0  0  0  0  0  0
    7.9856  -13.0831   21.8228 C   0  0  2  0  0  0  0  0  0  0  0  0
    8.7802  -14.7714   20.1542 N   0  0  0  0  0  0  0  0  0  0  0  0
    8.2521  -15.5072   19.0018 C   0  0  0  0  0  0  0  0  0  0  0  0
    9.0752  -15.7098   21.2635 O   0  0  0  0  0  0  0  0  0  0  0  0
    8.1867  -16.5399   21.6654 N   0  0  0  0  0  0  0  0  0  0  0  0
   10.3237  -15.7501   21.9314 C   0  0  1  0  0  0  0  0  0  0  0  0
   10.5904  -16.6662   23.0243 C   0  0  0  0  0  0  0  0  0  0  0  0
   11.8595  -17.4298   22.7867 C   0  0  0  0  0  0  0  0  0  0  0  0
   11.7171  -18.5441   21.8125 C   0  0  0  0  0  0  0  0  0  0  0  0
   10.6004  -18.8767   21.0762 N   0  0  0  0  0  0  0  0  0  0  0  0
   10.8968  -19.9443   20.3229 C   0  0  0  0  0  0  0  0  0  0  0  0
   12.1638  -20.2788   20.5742 N   0  0  0  0  0  0  0  0  0  0  0  0
   12.6633  -19.4277   21.4802 C   0  0  0  0  0  0  0  0  0  0  0  0
   10.6849  -15.9502   24.3228 O   0  0  0  0  0  0  0  0  0  0  0  0
   10.7075  -16.6421   25.5010 O   0  0  0  0  0  0  0  0  0  0  0  0
  1  2  1  0
  2  3  2  0
  4  5  1  0
  4  2  1  0
  6  5  1  0
  7  6  1  0
  8 10  1  0
  8  7  1  0
  8  9  1  6
 10 11  2  0
 13 12  1  1
 13 15  1  0
 14 13  1  0
 15 16  1  6
 16 10  1  0
 17 15  1  0
 17 18  2  0
 19 17  1  0
 20 19  1  0
 20 27  1  0
 20 21  1  1
 22 26  1  0
 22 21  1  0
 23 22  2  0
 24 23  1  0
 24 25  1  0
 25 26  2  0
 27 29  2  0
 27 28  1  0
M  END
$$$$
