RVH.pdb
     RDKit          3D

 29 29  0  0  1  0  0  0  0  0999 V2000
    7.4423  -15.2849   15.9100 N   0  0  0  0  0  0  0  0  0  0  0  0
    8.4114  -14.2752   16.1589 C   0  0  0  0  0  0  0  0  0  0  0  0
    8.4419  -13.2003   15.4521 N   0  0  0  0  0  0  0  0  0  0  0  0
    9.3620  -14.4583   17.2056 N   0  0  0  0  0  0  0  0  0  0  0  0
    9.3217  -15.6399   18.0834 C   0  0  0  0  0  0  0  0  0  0  0  0
    8.2189  -15.4002   19.0540 C   0  0  0  0  0  0  0  0  0  0  0  0
    8.5596  -14.6443   20.2924 C   0  0  0  0  0  0  0  0  0  0  0  0
    7.5924  -14.8777   21.3976 C   0  0  2  0  0  0  0  0  0  0  0  0
    6.3315  -14.1973   21.1062 N   0  0  0  0  0  0  0  0  0  0  0  0
    8.0647  -14.2793   22.6905 C   0  0  0  0  0  0  0  0  0  0  0  0
    8.7943  -13.2587   22.7280 O   0  0  0  0  0  0  0  0  0  0  0  0
    9.1913  -12.4852   15.5696 C   0  0  0  0  0  0  0  0  0  0  0  0
    6.6227  -12.5747   25.2595 C   0  0  1  0  0  0  0  0  0  0  0  0
    7.2601  -13.7144   25.9661 C   0  0  0  0  0  0  0  0  0  0  0  0
    7.7426  -13.2277   27.3162 C   0  0  2  0  0  0  0  0  0  0  0  0
    8.3238  -14.4537   25.2126 N   0  0  0  0  0  0  0  0  0  0  0  0
    7.7041  -14.8453   23.9434 C   0  0  0  0  0  0  0  0  0  0  0  0
    8.8442  -15.6517   25.9141 O   0  0  0  0  0  0  0  0  0  0  0  0
    8.8825  -16.7860   25.3208 N   0  0  0  0  0  0  0  0  0  0  0  0
    9.3211  -15.6212   27.2474 C   0  0  1  0  0  0  0  0  0  0  0  0
   10.4079  -16.4676   27.7029 C   0  0  0  0  0  0  0  0  0  0  0  0
   11.6442  -16.2404   26.8844 C   0  0  0  0  0  0  0  0  0  0  0  0
   11.7908  -17.1822   25.7430 C   0  0  0  0  0  0  0  0  0  0  0  0
   10.9407  -18.2069   25.3869 N   0  0  0  0  0  0  0  0  0  0  0  0
   11.4417  -18.8096   24.3001 C   0  0  0  0  0  0  0  0  0  0  0  0
   12.5759  -18.1855   23.9769 N   0  0  0  0  0  0  0  0  0  0  0  0
   12.7889  -17.1956   24.8541 C   0  0  0  0  0  0  0  0  0  0  0  0
   10.7184  -16.2291   29.1363 O   0  0  0  0  0  0  0  0  0  0  0  0
   11.0674  -17.2650   29.9564 O   0  0  0  0  0  0  0  0  0  0  0  0
  1  2  1  0
  2  3  2  0
  4  5  1  0
  4  2  1  0
  6  5  1  0
  7  6  1  0
  8 10  1  0
  8  7  1  0
  8  9  1  6
 10 11  2  0
 13 12  1  1
 13 15  1  0
 14 13  1  0
 15 16  1  6
 16 10  1  0
 17 15  1  0
 17 18  2  0
 19 17  1  0
 20 19  1  0
 20 27  1  0
 20 21  1  1
 22 26  1  0
 22 21  1  0
 23 22  2  0
 24 23  1  0
 24 25  1  0
 25 26  2  0
 27 29  2  0
 27 28  1  0
M  END
$$$$
