RVH.pdb
     RDKit          3D

 29 29  0  0  1  0  0  0  0  0999 V2000
    8.8197  -19.6550   12.7134 N   0  0  0  0  0  0  0  0  0  0  0  0
    8.1181  -20.6992   13.3752 C   0  0  0  0  0  0  0  0  0  0  0  0
    8.0433  -21.8755   12.8587 N   0  0  0  0  0  0  0  0  0  0  0  0
    7.4889  -20.4374   14.6274 N   0  0  0  0  0  0  0  0  0  0  0  0
    7.5586  -19.1099   15.2608 C   0  0  0  0  0  0  0  0  0  0  0  0
    8.8063  -19.1007   16.0726 C   0  0  0  0  0  0  0  0  0  0  0  0
    8.7999  -18.2762   17.3141 C   0  0  0  0  0  0  0  0  0  0  0  0
    8.9829  -16.8250   17.0460 C   0  0  2  0  0  0  0  0  0  0  0  0
   10.0666  -16.6303   16.0840 N   0  0  0  0  0  0  0  0  0  0  0  0
    9.4178  -16.0794   18.2740 C   0  0  0  0  0  0  0  0  0  0  0  0
   10.6060  -16.0918   18.6781 O   0  0  0  0  0  0  0  0  0  0  0  0
    7.6653  -22.6877   13.3917 C   0  0  0  0  0  0  0  0  0  0  0  0
    7.7413  -12.4997   19.5502 C   0  0  1  0  0  0  0  0  0  0  0  0
    7.7866  -13.6217   20.5215 C   0  0  0  0  0  0  0  0  0  0  0  0
    7.8297  -13.0403   21.9188 C   0  0  2  0  0  0  0  0  0  0  0  0
    8.8518  -14.6520   20.2990 N   0  0  0  0  0  0  0  0  0  0  0  0
    8.4962  -15.3178   19.0426 C   0  0  0  0  0  0  0  0  0  0  0  0
    8.9674  -15.6516   21.3879 O   0  0  0  0  0  0  0  0  0  0  0  0
    7.9956  -16.4440   21.6478 N   0  0  0  0  0  0  0  0  0  0  0  0
   10.1275  -15.7930   22.1882 C   0  0  1  0  0  0  0  0  0  0  0  0
   10.2372  -16.8016   23.2254 C   0  0  0  0  0  0  0  0  0  0  0  0
   11.6253  -17.3675   23.2788 C   0  0  0  0  0  0  0  0  0  0  0  0
   12.0001  -18.1551   22.0746 C   0  0  0  0  0  0  0  0  0  0  0  0
   11.1535  -18.7219   21.1464 N   0  0  0  0  0  0  0  0  0  0  0  0
   11.8988  -19.3431   20.2224 C   0  0  0  0  0  0  0  0  0  0  0  0
   13.1800  -19.1753   20.5550 N   0  0  0  0  0  0  0  0  0  0  0  0
   13.2424  -18.4529   21.6815 C   0  0  0  0  0  0  0  0  0  0  0  0
    9.8805  -16.2511   24.5586 O   0  0  0  0  0  0  0  0  0  0  0  0
    9.8233  -17.0631   25.6562 O   0  0  0  0  0  0  0  0  0  0  0  0
  1  2  1  0
  2  3  2  0
  4  5  1  0
  4  2  1  0
  6  5  1  0
  7  6  1  0
  8 10  1  0
  8  7  1  0
  8  9  1  6
 10 11  2  0
 13 12  1  1
 13 15  1  0
 14 13  1  0
 15 16  1  1
 16 10  1  0
 17 15  1  0
 17 18  2  0
 19 17  1  0
 20 19  1  0
 20 27  1  0
 20 21  1  1
 22 26  1  0
 22 21  1  0
 23 22  2  0
 24 23  1  0
 24 25  1  0
 25 26  2  0
 27 29  2  0
 27 28  1  0
M  END
$$$$
