RVH.pdb
     RDKit          3D

 29 29  0  0  1  0  0  0  0  0999 V2000
    8.7456  -21.2726   13.5324 N   0  0  0  0  0  0  0  0  0  0  0  0
    8.7101  -20.6008   14.7845 C   0  0  0  0  0  0  0  0  0  0  0  0
    7.7407  -19.8084   15.0818 N   0  0  0  0  0  0  0  0  0  0  0  0
    9.7641  -20.8083   15.7219 N   0  0  0  0  0  0  0  0  0  0  0  0
    9.7366  -20.1929   17.0593 C   0  0  0  0  0  0  0  0  0  0  0  0
    9.8298  -18.7231   16.8434 C   0  0  0  0  0  0  0  0  0  0  0  0
    9.8355  -17.8596   18.0581 C   0  0  0  0  0  0  0  0  0  0  0  0
    9.9882  -16.4149   17.7406 C   0  0  2  0  0  0  0  0  0  0  0  0
   11.2831  -16.1804   17.1035 N   0  0  0  0  0  0  0  0  0  0  0  0
   10.0084  -15.5684   18.9799 C   0  0  0  0  0  0  0  0  0  0  0  0
   10.7122  -14.5332   19.0713 O   0  0  0  0  0  0  0  0  0  0  0  0
    7.6930  -19.3172   16.0000 C   0  0  0  0  0  0  0  0  0  0  0  0
    8.7661  -13.0967   19.4519 C   0  0  2  0  0  0  0  0  0  0  0  0
    8.0864  -13.8748   20.5181 C   0  0  0  0  0  0  0  0  0  0  0  0
    7.4957  -12.9007   21.5155 C   0  0  2  0  0  0  0  0  0  0  0  0
    8.8977  -14.9471   21.1797 N   0  0  0  0  0  0  0  0  0  0  0  0
    9.2243  -15.9026   20.1173 C   0  0  0  0  0  0  0  0  0  0  0  0
    8.1996  -15.6405   22.2887 O   0  0  0  0  0  0  0  0  0  0  0  0
    7.2444  -16.4579   22.0445 N   0  0  0  0  0  0  0  0  0  0  0  0
    8.5344  -15.4515   23.6519 C   0  0  1  0  0  0  0  0  0  0  0  0
    9.5154  -16.2762   24.3322 C   0  0  0  0  0  0  0  0  0  0  0  0
   10.8330  -16.2435   23.6161 C   0  0  0  0  0  0  0  0  0  0  0  0
   11.2413  -17.5559   23.0485 C   0  0  0  0  0  0  0  0  0  0  0  0
   10.6003  -18.7676   23.1922 N   0  0  0  0  0  0  0  0  0  0  0  0
   11.2991  -19.6942   22.5227 C   0  0  0  0  0  0  0  0  0  0  0  0
   12.3519  -19.0880   21.9709 N   0  0  0  0  0  0  0  0  0  0  0  0
   12.3174  -17.7874   22.2903 C   0  0  0  0  0  0  0  0  0  0  0  0
    9.7110  -15.8393   25.7388 O   0  0  0  0  0  0  0  0  0  0  0  0
    9.6719  -16.7440   26.7622 O   0  0  0  0  0  0  0  0  0  0  0  0
  1  2  1  0
  2  3  2  0
  4  5  1  0
  4  2  1  0
  6  5  1  0
  7  6  1  0
  8 10  1  0
  8  7  1  0
  8  9  1  1
 10 11  2  0
 13 12  1  6
 13 15  1  0
 14 13  1  0
 15 16  1  1
 16 10  1  0
 17 15  1  0
 17 18  2  0
 19 17  1  0
 20 19  1  0
 20 27  1  0
 20 21  1  1
 22 26  1  0
 22 21  1  0
 23 22  2  0
 24 23  1  0
 24 25  1  0
 25 26  2  0
 27 29  2  0
 27 28  1  0
M  END
$$$$
