RVH.pdb
     RDKit          3D

 29 29  0  0  1  0  0  0  0  0999 V2000
    8.2044  -23.5763   17.8949 N   0  0  0  0  0  0  0  0  0  0  0  0
    8.3723  -23.2665   16.5178 C   0  0  0  0  0  0  0  0  0  0  0  0
    8.0663  -24.1216   15.6062 N   0  0  0  0  0  0  0  0  0  0  0  0
    8.8876  -21.9908   16.1438 N   0  0  0  0  0  0  0  0  0  0  0  0
    9.4221  -21.0532   17.1455 C   0  0  0  0  0  0  0  0  0  0  0  0
    8.4083  -19.9725   17.2873 C   0  0  0  0  0  0  0  0  0  0  0  0
    8.6721  -18.9279   18.3169 C   0  0  0  0  0  0  0  0  0  0  0  0
    8.4432  -17.5477   17.8130 C   0  0  2  0  0  0  0  0  0  0  0  0
    9.2149  -17.3309   16.5902 N   0  0  0  0  0  0  0  0  0  0  0  0
    8.9442  -16.5102   18.7751 C   0  0  0  0  0  0  0  0  0  0  0  0
   10.1380  -16.1226   18.7788 O   0  0  0  0  0  0  0  0  0  0  0  0
    8.1390  -23.8944   14.5914 C   0  0  0  0  0  0  0  0  0  0  0  0
    7.1438  -13.1321   19.5806 C   0  0  1  0  0  0  0  0  0  0  0  0
    7.4254  -13.9175   20.8087 C   0  0  0  0  0  0  0  0  0  0  0  0
    7.6181  -12.9510   21.9581 C   0  0  2  0  0  0  0  0  0  0  0  0
    8.5331  -14.9226   20.7165 N   0  0  0  0  0  0  0  0  0  0  0  0
    8.0823  -15.9131   19.7347 C   0  0  0  0  0  0  0  0  0  0  0  0
    8.8557  -15.5910   22.0000 O   0  0  0  0  0  0  0  0  0  0  0  0
    7.9660  -16.2739   22.6181 N   0  0  0  0  0  0  0  0  0  0  0  0
   10.1328  -15.5216   22.6088 C   0  0  1  0  0  0  0  0  0  0  0  0
   10.4252  -16.1657   23.8755 C   0  0  0  0  0  0  0  0  0  0  0  0
   11.6660  -17.0027   23.7780 C   0  0  0  0  0  0  0  0  0  0  0  0
   11.5482  -18.1444   22.8326 C   0  0  0  0  0  0  0  0  0  0  0  0
   10.5239  -19.0629   22.7506 N   0  0  0  0  0  0  0  0  0  0  0  0
   10.8099  -19.9239   21.7647 C   0  0  0  0  0  0  0  0  0  0  0  0
   11.9809  -19.5621   21.2373 N   0  0  0  0  0  0  0  0  0  0  0  0
   12.4306  -18.4799   21.8864 C   0  0  0  0  0  0  0  0  0  0  0  0
   10.5899  -15.1701   24.9661 O   0  0  0  0  0  0  0  0  0  0  0  0
   10.5524  -13.8304   24.6993 O   0  0  0  0  0  0  0  0  0  0  0  0
  1  2  1  0
  2  3  2  0
  4  5  1  0
  4  2  1  0
  6  5  1  0
  7  6  1  0
  8 10  1  0
  8  7  1  0
  8  9  1  6
 10 11  2  0
 13 12  1  1
 13 15  1  0
 14 13  1  0
 15 16  1  6
 16 10  1  0
 17 15  1  0
 17 18  2  0
 19 17  1  0
 20 19  1  0
 20 27  1  0
 20 21  1  1
 22 26  1  0
 22 21  1  0
 23 22  2  0
 24 23  1  0
 24 25  1  0
 25 26  2  0
 27 29  2  0
 27 28  1  0
M  END
$$$$
