CWM.pdb
     RDKit          3D

 29 30  0  0  1  0  0  0  0  0999 V2000
   28.2328  -23.3497  -17.0663 N   0  0  0  0  0  0  0  0  0  0  0  0
   28.1341  -22.0448  -16.4805 C   0  0  1  0  0  0  0  0  0  0  0  0
   27.5882  -21.0488  -17.4511 C   0  0  0  0  0  0  0  0  0  0  0  0
   28.7116  -20.8688  -18.8360 S   0  0  0  0  0  0  0  0  0  0  0  0
   27.3079  -22.1227  -15.2256 C   0  0  0  0  0  0  0  0  0  0  0  0
   26.4229  -22.9894  -15.1708 O   0  0  0  0  0  0  0  0  0  0  0  0
   27.5277  -21.2426  -14.1442 N   0  0  0  0  0  0  0  0  0  0  0  0
   26.8559  -21.2775  -12.8806 C   0  0  1  0  0  0  0  0  0  0  0  0
   27.5670  -20.5647  -11.7425 C   0  0  0  0  0  0  0  0  0  0  0  0
   26.7663  -20.4614  -10.5142 C   0  0  0  0  0  0  0  0  0  0  0  0
   25.4296  -20.3062  -10.2729 C   0  0  0  0  0  0  0  0  0  0  0  0
   25.1805  -20.2794   -8.9291 N   0  0  0  0  0  0  0  0  0  0  0  0
   26.3468  -20.4165   -8.2813 C   0  0  0  0  0  0  0  0  0  0  0  0
   26.6352  -20.4544   -6.9298 C   0  0  0  0  0  0  0  0  0  0  0  0
   27.9329  -20.6085   -6.5356 C   0  0  0  0  0  0  0  0  0  0  0  0
   28.9497  -20.7258   -7.4599 C   0  0  0  0  0  0  0  0  0  0  0  0
   28.6308  -20.6844   -8.8126 C   0  0  0  0  0  0  0  0  0  0  0  0
   27.3330  -20.5300   -9.2344 C   0  0  0  0  0  0  0  0  0  0  0  0
   25.4683  -20.7907  -13.0236 C   0  0  0  0  0  0  0  0  0  0  0  0
   25.2684  -19.6413  -13.5383 O   0  0  0  0  0  0  0  0  0  0  0  0
   21.6518  -24.3104  -16.2378 C   0  0  0  0  0  0  0  0  0  0  0  0
   20.3595  -23.4290  -15.3087 S   0  0  0  0  0  0  0  0  0  0  0  0
   21.0454  -22.1197  -14.3111 C   0  0  0  0  0  0  0  0  0  0  0  0
   22.4510  -22.2375  -13.8975 C   0  0  0  0  0  0  0  0  0  0  0  0
   23.0066  -21.1285  -13.0849 C   0  0  2  0  0  0  0  0  0  0  0  0
   24.3467  -21.5380  -12.6168 N   0  0  0  0  0  0  0  0  0  0  0  0
   22.2668  -20.7472  -11.8938 C   0  0  0  0  0  0  0  0  0  0  0  0
   22.5286  -21.3344  -10.7878 O   0  0  0  0  0  0  0  0  0  0  0  0
   21.2817  -19.7858  -11.8088 O   0  0  0  0  0  0  0  0  0  0  0  0
  2  1  1  6
  2  5  1  0
  3  2  1  0
  4  3  1  0
  5  6  2  0
  5  7  1  0
  7  8  1  0
  8 19  1  0
  8  9  1  1
 10  9  1  0
 10 18  1  0
 11 10  2  0
 12 11  1  0
 12 13  1  0
 13 14  1  0
 13 18  2  0
 14 15  2  0
 15 16  1  0
 17 16  2  0
 18 17  1  0
 19 20  2  0
 22 21  1  0
 23 24  1  0
 23 22  1  0
 25 24  1  1
 25 27  1  0
 26 25  1  0
 26 19  1  0
 27 28  2  0
 27 29  1  0
M  END
$$$$
