CWM.pdb
     RDKit          3D

 29 30  0  0  1  0  0  0  0  0999 V2000
   30.0013  -20.7052  -12.9983 N   0  0  0  0  0  0  0  0  0  0  0  0
   28.9305  -19.8151  -12.6566 C   0  0  1  0  0  0  0  0  0  0  0  0
   28.4886  -19.0118  -13.8363 C   0  0  0  0  0  0  0  0  0  0  0  0
   27.3192  -17.7573  -13.3157 S   0  0  0  0  0  0  0  0  0  0  0  0
   27.7996  -20.6034  -12.0540 C   0  0  0  0  0  0  0  0  0  0  0  0
   27.6918  -21.7957  -12.3766 O   0  0  0  0  0  0  0  0  0  0  0  0
   26.8894  -20.0120  -11.1516 N   0  0  0  0  0  0  0  0  0  0  0  0
   25.8182  -20.6806  -10.4774 C   0  0  1  0  0  0  0  0  0  0  0  0
   25.4686  -20.1340   -9.1033 C   0  0  0  0  0  0  0  0  0  0  0  0
   26.6343  -19.6829   -8.3298 C   0  0  0  0  0  0  0  0  0  0  0  0
   27.5650  -18.6993   -8.5182 C   0  0  0  0  0  0  0  0  0  0  0  0
   28.4578  -18.6736   -7.4834 N   0  0  0  0  0  0  0  0  0  0  0  0
   28.1210  -19.6357   -6.6118 C   0  0  0  0  0  0  0  0  0  0  0  0
   28.6963  -20.0169   -5.4140 C   0  0  0  0  0  0  0  0  0  0  0  0
   28.1392  -21.0467   -4.7122 C   0  0  0  0  0  0  0  0  0  0  0  0
   27.0207  -21.7048   -5.1788 C   0  0  0  0  0  0  0  0  0  0  0  0
   26.4630  -21.3003   -6.3864 C   0  0  0  0  0  0  0  0  0  0  0  0
   27.0049  -20.2673   -7.1112 C   0  0  0  0  0  0  0  0  0  0  0  0
   24.6225  -20.7368  -11.3434 C   0  0  0  0  0  0  0  0  0  0  0  0
   24.2362  -19.6727  -11.9303 O   0  0  0  0  0  0  0  0  0  0  0  0
   23.1995  -26.0949  -14.5953 C   0  0  0  0  0  0  0  0  0  0  0  0
   21.8046  -25.0458  -15.1092 S   0  0  0  0  0  0  0  0  0  0  0  0
   21.6781  -23.5812  -14.1000 C   0  0  0  0  0  0  0  0  0  0  0  0
   22.7747  -23.2973  -13.1631 C   0  0  0  0  0  0  0  0  0  0  0  0
   22.8390  -21.9267  -12.6008 C   0  0  2  0  0  0  0  0  0  0  0  0
   23.8822  -21.9154  -11.5546 N   0  0  0  0  0  0  0  0  0  0  0  0
   21.6347  -21.4143  -11.9695 C   0  0  0  0  0  0  0  0  0  0  0  0
   21.5743  -21.3739  -10.6922 O   0  0  0  0  0  0  0  0  0  0  0  0
   20.5072  -20.9423  -12.6081 O   0  0  0  0  0  0  0  0  0  0  0  0
  2  1  1  6
  2  5  1  0
  3  2  1  0
  4  3  1  0
  5  6  2  0
  5  7  1  0
  7  8  1  0
  8 19  1  0
  8  9  1  1
 10  9  1  0
 10 18  1  0
 11 10  2  0
 12 11  1  0
 12 13  1  0
 13 14  1  0
 13 18  2  0
 14 15  2  0
 15 16  1  0
 17 16  2  0
 18 17  1  0
 19 20  2  0
 22 21  1  0
 23 24  1  0
 23 22  1  0
 25 24  1  1
 25 27  1  0
 26 25  1  0
 26 19  1  0
 27 28  2  0
 27 29  1  0
M  END
$$$$
