CWM.pdb
     RDKit          3D

 29 30  0  0  1  0  0  0  0  0999 V2000
   29.2244  -25.0385  -18.2538 N   0  0  0  0  0  0  0  0  0  0  0  0
   28.1423  -24.8593  -17.3303 C   0  0  1  0  0  0  0  0  0  0  0  0
   28.0317  -26.0120  -16.3862 C   0  0  0  0  0  0  0  0  0  0  0  0
   26.5361  -26.9384  -16.7284 S   0  0  0  0  0  0  0  0  0  0  0  0
   28.3148  -23.5512  -16.6075 C   0  0  0  0  0  0  0  0  0  0  0  0
   29.4476  -23.2681  -16.1902 O   0  0  0  0  0  0  0  0  0  0  0  0
   27.2287  -22.6720  -16.4081 N   0  0  0  0  0  0  0  0  0  0  0  0
   27.2738  -21.4236  -15.7090 C   0  0  1  0  0  0  0  0  0  0  0  0
   26.8950  -20.2015  -16.5288 C   0  0  0  0  0  0  0  0  0  0  0  0
   26.8910  -18.9488  -15.7599 C   0  0  0  0  0  0  0  0  0  0  0  0
   27.6418  -18.4829  -14.7166 C   0  0  0  0  0  0  0  0  0  0  0  0
   27.2462  -17.2239  -14.3602 N   0  0  0  0  0  0  0  0  0  0  0  0
   26.2374  -16.8556  -15.1636 C   0  0  0  0  0  0  0  0  0  0  0  0
   25.4980  -15.6888  -15.2151 C   0  0  0  0  0  0  0  0  0  0  0  0
   24.5113  -15.5731  -16.1512 C   0  0  0  0  0  0  0  0  0  0  0  0
   24.2459  -16.5957  -17.0375 C   0  0  0  0  0  0  0  0  0  0  0  0
   25.0052  -17.7580  -16.9631 C   0  0  0  0  0  0  0  0  0  0  0  0
   26.0031  -17.8989  -16.0301 C   0  0  0  0  0  0  0  0  0  0  0  0
   26.4704  -21.4992  -14.4715 C   0  0  0  0  0  0  0  0  0  0  0  0
   25.3023  -22.0078  -14.5253 O   0  0  0  0  0  0  0  0  0  0  0  0
   25.8919  -20.7459   -6.6470 C   0  0  0  0  0  0  0  0  0  0  0  0
   26.9614  -20.7777   -8.1185 S   0  0  0  0  0  0  0  0  0  0  0  0
   26.0285  -20.5070   -9.6139 C   0  0  0  0  0  0  0  0  0  0  0  0
   26.7551  -20.5435  -10.8913 C   0  0  0  0  0  0  0  0  0  0  0  0
   26.0517  -21.1519  -12.0463 C   0  0  2  0  0  0  0  0  0  0  0  0
   26.9332  -21.0340  -13.2260 N   0  0  0  0  0  0  0  0  0  0  0  0
   24.7833  -20.5588  -12.4345 C   0  0  0  0  0  0  0  0  0  0  0  0
   24.7883  -19.4587  -13.0876 O   0  0  0  0  0  0  0  0  0  0  0  0
   23.5256  -21.0631  -12.1782 O   0  0  0  0  0  0  0  0  0  0  0  0
  2  1  1  6
  2  5  1  0
  3  2  1  0
  4  3  1  0
  5  6  2  0
  5  7  1  0
  7  8  1  0
  8 19  1  0
  8  9  1  6
 10  9  1  0
 10 18  1  0
 11 10  2  0
 12 11  1  0
 12 13  1  0
 13 14  1  0
 13 18  2  0
 14 15  2  0
 15 16  1  0
 17 16  2  0
 18 17  1  0
 19 20  2  0
 22 21  1  0
 23 24  1  0
 23 22  1  0
 25 24  1  1
 25 27  1  0
 26 25  1  0
 26 19  1  0
 27 28  2  0
 27 29  1  0
M  END
$$$$
