CWM.pdb
     RDKit          3D

 29 30  0  0  1  0  0  0  0  0999 V2000
   41.1654  -24.7340    4.8755 N   0  0  0  0  0  0  0  0  0  0  0  0
   39.9245  -25.0150    4.2144 C   0  0  1  0  0  0  0  0  0  0  0  0
   39.9102  -26.3942    3.6401 C   0  0  0  0  0  0  0  0  0  0  0  0
   38.3562  -26.6867    2.7964 S   0  0  0  0  0  0  0  0  0  0  0  0
   38.7867  -24.7898    5.1725 C   0  0  0  0  0  0  0  0  0  0  0  0
   38.8436  -25.3500    6.2771 O   0  0  0  0  0  0  0  0  0  0  0  0
   37.6893  -23.9699    4.8318 N   0  0  0  0  0  0  0  0  0  0  0  0
   36.5267  -23.7431    5.6355 C   0  0  1  0  0  0  0  0  0  0  0  0
   35.6017  -22.6396    5.1498 C   0  0  0  0  0  0  0  0  0  0  0  0
   34.4955  -22.3437    6.0714 C   0  0  0  0  0  0  0  0  0  0  0  0
   34.3387  -22.4689    7.4238 C   0  0  0  0  0  0  0  0  0  0  0  0
   33.1015  -22.0342    7.8096 N   0  0  0  0  0  0  0  0  0  0  0  0
   32.4400  -21.6220    6.7181 C   0  0  0  0  0  0  0  0  0  0  0  0
   31.1692  -21.0981    6.5710 C   0  0  0  0  0  0  0  0  0  0  0  0
   30.7379  -20.7527    5.3228 C   0  0  0  0  0  0  0  0  0  0  0  0
   31.5463  -20.9183    4.2179 C   0  0  0  0  0  0  0  0  0  0  0  0
   32.8197  -21.4474    4.3951 C   0  0  0  0  0  0  0  0  0  0  0  0
   33.2768  -21.8028    5.6405 C   0  0  0  0  0  0  0  0  0  0  0  0
   35.7848  -25.0054    5.8326 C   0  0  0  0  0  0  0  0  0  0  0  0
   35.3920  -25.6557    4.8085 O   0  0  0  0  0  0  0  0  0  0  0  0
   37.0702  -31.2589    5.0035 C   0  0  0  0  0  0  0  0  0  0  0  0
   36.9165  -30.2620    6.5177 S   0  0  0  0  0  0  0  0  0  0  0  0
   35.8473  -28.8562    6.2724 C   0  0  0  0  0  0  0  0  0  0  0  0
   35.7121  -27.8965    7.3777 C   0  0  0  0  0  0  0  0  0  0  0  0
   34.7332  -26.7976    7.1964 C   0  0  2  0  0  0  0  0  0  0  0  0
   35.4873  -25.5305    7.1045 N   0  0  0  0  0  0  0  0  0  0  0  0
   33.7541  -26.6039    8.2525 C   0  0  0  0  0  0  0  0  0  0  0  0
   32.8324  -27.4770    8.4100 O   0  0  0  0  0  0  0  0  0  0  0  0
   33.7014  -25.5531    9.1441 O   0  0  0  0  0  0  0  0  0  0  0  0
  2  1  1  1
  2  5  1  0
  3  2  1  0
  4  3  1  0
  5  6  2  0
  5  7  1  0
  7  8  1  0
  8 19  1  0
  8  9  1  6
 10  9  1  0
 10 18  1  0
 11 10  2  0
 12 11  1  0
 12 13  1  0
 13 14  1  0
 13 18  2  0
 14 15  2  0
 15 16  1  0
 17 16  2  0
 18 17  1  0
 19 20  2  0
 22 21  1  0
 23 24  1  0
 23 22  1  0
 25 24  1  1
 25 27  1  0
 26 25  1  0
 26 19  1  0
 27 28  2  0
 27 29  1  0
M  END
$$$$
