CWM.pdb
     RDKit          3D

 29 30  0  0  1  0  0  0  0  0999 V2000
   27.7969  -23.1449  -15.6668 N   0  0  0  0  0  0  0  0  0  0  0  0
   27.4669  -21.8347  -15.1870 C   0  0  1  0  0  0  0  0  0  0  0  0
   26.8651  -20.9926  -16.2643 C   0  0  0  0  0  0  0  0  0  0  0  0
   28.0733  -20.6997  -17.5553 S   0  0  0  0  0  0  0  0  0  0  0  0
   26.5618  -21.9548  -13.9913 C   0  0  0  0  0  0  0  0  0  0  0  0
   25.8277  -22.9516  -13.9216 O   0  0  0  0  0  0  0  0  0  0  0  0
   26.5442  -20.9702  -12.9800 N   0  0  0  0  0  0  0  0  0  0  0  0
   25.6670  -20.9408  -11.8491 C   0  0  1  0  0  0  0  0  0  0  0  0
   26.1493  -20.1135  -10.6693 C   0  0  0  0  0  0  0  0  0  0  0  0
   27.3836  -20.6211  -10.0534 C   0  0  0  0  0  0  0  0  0  0  0  0
   28.4380  -21.3530  -10.5244 C   0  0  0  0  0  0  0  0  0  0  0  0
   29.3623  -21.5593   -9.5387 N   0  0  0  0  0  0  0  0  0  0  0  0
   28.9235  -20.9668   -8.4184 C   0  0  0  0  0  0  0  0  0  0  0  0
   29.4834  -20.8827   -7.1572 C   0  0  0  0  0  0  0  0  0  0  0  0
   28.8128  -20.2039   -6.1811 C   0  0  0  0  0  0  0  0  0  0  0  0
   27.5959  -19.6069   -6.4351 C   0  0  0  0  0  0  0  0  0  0  0  0
   27.0563  -19.7073   -7.7125 C   0  0  0  0  0  0  0  0  0  0  0  0
   27.7112  -20.3849   -8.7115 C   0  0  0  0  0  0  0  0  0  0  0  0
   24.3097  -20.5293  -12.2631 C   0  0  0  0  0  0  0  0  0  0  0  0
   24.1580  -19.4072  -12.8494 O   0  0  0  0  0  0  0  0  0  0  0  0
   20.9932  -23.5316  -16.2061 C   0  0  0  0  0  0  0  0  0  0  0  0
   19.6700  -22.3907  -15.6984 S   0  0  0  0  0  0  0  0  0  0  0  0
   20.1504  -21.4159  -14.2846 C   0  0  0  0  0  0  0  0  0  0  0  0
   21.4665  -21.6795  -13.6853 C   0  0  0  0  0  0  0  0  0  0  0  0
   21.8579  -20.8381  -12.5286 C   0  0  2  0  0  0  0  0  0  0  0  0
   23.1665  -21.3201  -12.0408 N   0  0  0  0  0  0  0  0  0  0  0  0
   20.9737  -20.8475  -11.3756 C   0  0  0  0  0  0  0  0  0  0  0  0
   21.2873  -21.5604  -10.3606 O   0  0  0  0  0  0  0  0  0  0  0  0
   19.7935  -20.1476  -11.2370 O   0  0  0  0  0  0  0  0  0  0  0  0
  2  1  1  6
  2  5  1  0
  3  2  1  0
  4  3  1  0
  5  6  2  0
  5  7  1  0
  7  8  1  0
  8 19  1  0
  8  9  1  1
 10  9  1  0
 10 18  1  0
 11 10  2  0
 12 11  1  0
 12 13  1  0
 13 14  1  0
 13 18  2  0
 14 15  2  0
 15 16  1  0
 17 16  2  0
 18 17  1  0
 19 20  2  0
 22 21  1  0
 23 24  1  0
 23 22  1  0
 25 24  1  6
 25 27  1  0
 26 25  1  0
 26 19  1  0
 27 28  2  0
 27 29  1  0
M  END
$$$$
