CWM.pdb
     RDKit          3D

 29 30  0  0  1  0  0  0  0  0999 V2000
   27.9372  -24.1799  -17.3680 N   0  0  0  0  0  0  0  0  0  0  0  0
   26.5164  -24.3196  -17.2362 C   0  0  1  0  0  0  0  0  0  0  0  0
   26.1581  -25.5017  -16.3957 C   0  0  0  0  0  0  0  0  0  0  0  0
   26.8733  -26.9876  -17.0978 S   0  0  0  0  0  0  0  0  0  0  0  0
   25.9380  -23.0422  -16.6910 C   0  0  0  0  0  0  0  0  0  0  0  0
   26.5690  -22.4591  -15.7969 O   0  0  0  0  0  0  0  0  0  0  0  0
   24.7197  -22.5201  -17.1762 N   0  0  0  0  0  0  0  0  0  0  0  0
   24.1233  -21.2774  -16.7901 C   0  0  1  0  0  0  0  0  0  0  0  0
   23.1847  -20.6577  -17.8119 C   0  0  0  0  0  0  0  0  0  0  0  0
   22.5507  -19.4120  -17.3569 C   0  0  0  0  0  0  0  0  0  0  0  0
   23.0056  -18.3219  -16.6684 C   0  0  0  0  0  0  0  0  0  0  0  0
   22.0069  -17.4035  -16.5023 N   0  0  0  0  0  0  0  0  0  0  0  0
   20.8941  -17.8817  -17.0782 C   0  0  0  0  0  0  0  0  0  0  0  0
   19.6256  -17.3432  -17.1877 C   0  0  0  0  0  0  0  0  0  0  0  0
   18.6603  -18.0546  -17.8399 C   0  0  0  0  0  0  0  0  0  0  0  0
   18.9323  -19.2916  -18.3855 C   0  0  0  0  0  0  0  0  0  0  0  0
   20.2167  -19.8089  -18.2605 C   0  0  0  0  0  0  0  0  0  0  0  0
   21.2051  -19.1129  -17.6089 C   0  0  0  0  0  0  0  0  0  0  0  0
   23.4597  -21.4127  -15.4771 C   0  0  0  0  0  0  0  0  0  0  0  0
   22.8897  -22.5155  -15.1855 O   0  0  0  0  0  0  0  0  0  0  0  0
   21.9664  -22.0528   -9.1306 C   0  0  0  0  0  0  0  0  0  0  0  0
   23.4375  -21.3513   -9.9392 S   0  0  0  0  0  0  0  0  0  0  0  0
   23.0496  -19.8496  -10.8192 C   0  0  0  0  0  0  0  0  0  0  0  0
   23.4871  -19.7424  -12.2184 C   0  0  0  0  0  0  0  0  0  0  0  0
   22.8355  -20.6467  -13.1964 C   0  0  2  0  0  0  0  0  0  0  0  0
   23.4246  -20.3771  -14.5242 N   0  0  0  0  0  0  0  0  0  0  0  0
   21.3981  -20.5144  -13.3630 C   0  0  0  0  0  0  0  0  0  0  0  0
   20.9471  -19.6338  -14.1739 O   0  0  0  0  0  0  0  0  0  0  0  0
   20.4239  -21.2583  -12.7308 O   0  0  0  0  0  0  0  0  0  0  0  0
  2  1  1  1
  2  5  1  0
  3  2  1  0
  4  3  1  0
  5  6  2  0
  5  7  1  0
  7  8  1  0
  8 19  1  0
  8  9  1  6
 10  9  1  0
 10 18  1  0
 11 10  2  0
 12 11  1  0
 12 13  1  0
 13 14  1  0
 13 18  2  0
 14 15  2  0
 15 16  1  0
 17 16  2  0
 18 17  1  0
 19 20  2  0
 22 21  1  0
 23 24  1  0
 23 22  1  0
 25 24  1  1
 25 27  1  0
 26 25  1  0
 26 19  1  0
 27 28  2  0
 27 29  1  0
M  END
$$$$
