CWM.pdb
     RDKit          3D

 29 30  0  0  1  0  0  0  0  0999 V2000
   28.8305  -20.7001  -14.9701 N   0  0  0  0  0  0  0  0  0  0  0  0
   28.8312  -20.2660  -13.6036 C   0  0  1  0  0  0  0  0  0  0  0  0
   28.8106  -18.7756  -13.5025 C   0  0  0  0  0  0  0  0  0  0  0  0
   27.2788  -18.1399  -14.1822 S   0  0  0  0  0  0  0  0  0  0  0  0
   27.6740  -20.8978  -12.8790 C   0  0  0  0  0  0  0  0  0  0  0  0
   26.7917  -21.4382  -13.5623 O   0  0  0  0  0  0  0  0  0  0  0  0
   27.5897  -20.8797  -11.4702 N   0  0  0  0  0  0  0  0  0  0  0  0
   26.5627  -21.4886  -10.6805 C   0  0  1  0  0  0  0  0  0  0  0  0
   26.9237  -21.7495   -9.2277 C   0  0  0  0  0  0  0  0  0  0  0  0
   26.9394  -20.5394   -8.3934 C   0  0  0  0  0  0  0  0  0  0  0  0
   26.3425  -19.3142   -8.5017 C   0  0  0  0  0  0  0  0  0  0  0  0
   26.6681  -18.5216   -7.4367 N   0  0  0  0  0  0  0  0  0  0  0  0
   27.4774  -19.2177   -6.6249 C   0  0  0  0  0  0  0  0  0  0  0  0
   28.0768  -18.8731   -5.4278 C   0  0  0  0  0  0  0  0  0  0  0  0
   28.8660  -19.7906   -4.7963 C   0  0  0  0  0  0  0  0  0  0  0  0
   29.0705  -21.0445   -5.3325 C   0  0  0  0  0  0  0  0  0  0  0  0
   28.4554  -21.3641   -6.5377 C   0  0  0  0  0  0  0  0  0  0  0  0
   27.6570  -20.4586   -7.1925 C   0  0  0  0  0  0  0  0  0  0  0  0
   25.3093  -20.7131  -10.7823 C   0  0  0  0  0  0  0  0  0  0  0  0
   25.3657  -19.4406  -10.7243 O   0  0  0  0  0  0  0  0  0  0  0  0
   20.8134  -18.1351  -15.8859 C   0  0  0  0  0  0  0  0  0  0  0  0
   22.2465  -19.0391  -15.2231 S   0  0  0  0  0  0  0  0  0  0  0  0
   22.0639  -19.3723  -13.4808 C   0  0  0  0  0  0  0  0  0  0  0  0
   23.1042  -20.1768  -12.8240 C   0  0  0  0  0  0  0  0  0  0  0  0
   22.9095  -20.4805  -11.3857 C   0  0  2  0  0  0  0  0  0  0  0  0
   24.0459  -21.3133  -10.9412 N   0  0  0  0  0  0  0  0  0  0  0  0
   21.7097  -21.2150  -11.0220 C   0  0  0  0  0  0  0  0  0  0  0  0
   21.7322  -22.4937  -11.0562 O   0  0  0  0  0  0  0  0  0  0  0  0
   20.5040  -20.6773  -10.6228 O   0  0  0  0  0  0  0  0  0  0  0  0
  2  1  1  6
  2  5  1  0
  3  2  1  0
  4  3  1  0
  5  6  2  0
  5  7  1  0
  7  8  1  0
  8 19  1  0
  8  9  1  1
 10  9  1  0
 10 18  1  0
 11 10  2  0
 12 11  1  0
 12 13  1  0
 13 14  1  0
 13 18  2  0
 14 15  2  0
 15 16  1  0
 17 16  2  0
 18 17  1  0
 19 20  2  0
 22 21  1  0
 23 24  1  0
 23 22  1  0
 25 24  1  6
 25 27  1  0
 26 25  1  0
 26 19  1  0
 27 28  2  0
 27 29  1  0
M  END
$$$$
