CWM.pdb
     RDKit          3D

 29 30  0  0  1  0  0  0  0  0999 V2000
   28.5522  -20.7716  -15.3452 N   0  0  0  0  0  0  0  0  0  0  0  0
   28.1495  -19.9552  -14.2375 C   0  0  1  0  0  0  0  0  0  0  0  0
   27.7504  -18.5861  -14.6829 C   0  0  0  0  0  0  0  0  0  0  0  0
   28.3350  -18.2938  -16.3517 S   0  0  0  0  0  0  0  0  0  0  0  0
   27.0479  -20.6475  -13.4822 C   0  0  0  0  0  0  0  0  0  0  0  0
   26.4525  -21.5743  -14.0515 O   0  0  0  0  0  0  0  0  0  0  0  0
   26.6992  -20.2604  -12.1703 N   0  0  0  0  0  0  0  0  0  0  0  0
   25.6654  -20.8408  -11.3682 C   0  0  1  0  0  0  0  0  0  0  0  0
   25.8320  -20.6745   -9.8670 C   0  0  0  0  0  0  0  0  0  0  0  0
   27.1809  -20.9968   -9.3801 C   0  0  0  0  0  0  0  0  0  0  0  0
   28.2224  -21.7138   -9.9001 C   0  0  0  0  0  0  0  0  0  0  0  0
   29.2893  -21.7062   -9.0456 N   0  0  0  0  0  0  0  0  0  0  0  0
   28.9575  -20.9871   -7.9632 C   0  0  0  0  0  0  0  0  0  0  0  0
   29.6766  -20.6781   -6.8237 C   0  0  0  0  0  0  0  0  0  0  0  0
   29.0884  -19.9117   -5.8594 C   0  0  0  0  0  0  0  0  0  0  0  0
   27.7986  -19.4465   -6.0066 C   0  0  0  0  0  0  0  0  0  0  0  0
   27.0987  -19.7726   -7.1628 C   0  0  0  0  0  0  0  0  0  0  0  0
   27.6682  -20.5423   -8.1474 C   0  0  0  0  0  0  0  0  0  0  0  0
   24.3410  -20.3571  -11.8094 C   0  0  0  0  0  0  0  0  0  0  0  0
   24.2703  -19.2643  -12.4627 O   0  0  0  0  0  0  0  0  0  0  0  0
   20.0937  -22.9848  -17.1979 C   0  0  0  0  0  0  0  0  0  0  0  0
   21.4977  -22.9986  -16.0409 S   0  0  0  0  0  0  0  0  0  0  0  0
   21.2128  -21.9197  -14.6500 C   0  0  0  0  0  0  0  0  0  0  0  0
   22.2448  -21.8615  -13.6048 C   0  0  0  0  0  0  0  0  0  0  0  0
   22.0155  -20.9142  -12.4873 C   0  0  2  0  0  0  0  0  0  0  0  0
   23.1435  -21.0475  -11.5425 N   0  0  0  0  0  0  0  0  0  0  0  0
   20.8096  -21.1022  -11.6986 C   0  0  0  0  0  0  0  0  0  0  0  0
   20.8392  -21.9067  -10.7043 O   0  0  0  0  0  0  0  0  0  0  0  0
   19.5910  -20.4883  -11.8983 O   0  0  0  0  0  0  0  0  0  0  0  0
  2  1  1  6
  2  5  1  0
  3  2  1  0
  4  3  1  0
  5  6  2  0
  5  7  1  0
  7  8  1  0
  8 19  1  0
  8  9  1  1
 10  9  1  0
 10 18  1  0
 11 10  2  0
 12 11  1  0
 12 13  1  0
 13 14  1  0
 13 18  2  0
 14 15  2  0
 15 16  1  0
 17 16  2  0
 18 17  1  0
 19 20  2  0
 22 21  1  0
 23 24  1  0
 23 22  1  0
 25 24  1  6
 25 27  1  0
 26 25  1  0
 26 19  1  0
 27 28  2  0
 27 29  1  0
M  END
$$$$
