CWM.pdb
     RDKit          3D

 29 30  0  0  1  0  0  0  0  0999 V2000
   28.5793  -21.5742  -17.4511 N   0  0  0  0  0  0  0  0  0  0  0  0
   27.8907  -22.3584  -16.4680 C   0  0  1  0  0  0  0  0  0  0  0  0
   28.7969  -23.3656  -15.8381 C   0  0  0  0  0  0  0  0  0  0  0  0
   30.2362  -23.6225  -16.8747 S   0  0  0  0  0  0  0  0  0  0  0  0
   27.2661  -21.4446  -15.4490 C   0  0  0  0  0  0  0  0  0  0  0  0
   27.8520  -20.3828  -15.1909 O   0  0  0  0  0  0  0  0  0  0  0  0
   26.0550  -21.7786  -14.8055 N   0  0  0  0  0  0  0  0  0  0  0  0
   25.3083  -20.9319  -13.9253 C   0  0  1  0  0  0  0  0  0  0  0  0
   23.8456  -20.7391  -14.2890 C   0  0  0  0  0  0  0  0  0  0  0  0
   23.6384  -20.0769  -15.5849 C   0  0  0  0  0  0  0  0  0  0  0  0
   23.6970  -20.5073  -16.8813 C   0  0  0  0  0  0  0  0  0  0  0  0
   23.4034  -19.4877  -17.7431 N   0  0  0  0  0  0  0  0  0  0  0  0
   23.1509  -18.3855  -17.0220 C   0  0  0  0  0  0  0  0  0  0  0  0
   22.8073  -17.1046  -17.4124 C   0  0  0  0  0  0  0  0  0  0  0  0
   22.6008  -16.1552  -16.4537 C   0  0  0  0  0  0  0  0  0  0  0  0
   22.7294  -16.4551  -15.1138 C   0  0  0  0  0  0  0  0  0  0  0  0
   23.0759  -17.7514  -14.7498 C   0  0  0  0  0  0  0  0  0  0  0  0
   23.2892  -18.7243  -15.6953 C   0  0  0  0  0  0  0  0  0  0  0  0
   25.4490  -21.3923  -12.5286 C   0  0  0  0  0  0  0  0  0  0  0  0
   25.2648  -22.6263  -12.2650 O   0  0  0  0  0  0  0  0  0  0  0  0
   28.2382  -17.9478   -7.5881 C   0  0  0  0  0  0  0  0  0  0  0  0
   27.9260  -19.5851   -6.8588 S   0  0  0  0  0  0  0  0  0  0  0  0
   26.7827  -20.5353   -7.8437 C   0  0  0  0  0  0  0  0  0  0  0  0
   26.7323  -20.2646   -9.2877 C   0  0  0  0  0  0  0  0  0  0  0  0
   25.7685  -21.0596  -10.0863 C   0  0  2  0  0  0  0  0  0  0  0  0
   25.7786  -20.5303  -11.4655 N   0  0  0  0  0  0  0  0  0  0  0  0
   24.3796  -21.0367   -9.6598 C   0  0  0  0  0  0  0  0  0  0  0  0
   23.5312  -20.3720  -10.3490 O   0  0  0  0  0  0  0  0  0  0  0  0
   23.8448  -21.6758   -8.5610 O   0  0  0  0  0  0  0  0  0  0  0  0
  2  1  1  6
  2  5  1  0
  3  2  1  0
  4  3  1  0
  5  6  2  0
  5  7  1  0
  7  8  1  0
  8 19  1  0
  8  9  1  6
 10  9  1  0
 10 18  1  0
 11 10  2  0
 12 11  1  0
 12 13  1  0
 13 14  1  0
 13 18  2  0
 14 15  2  0
 15 16  1  0
 17 16  2  0
 18 17  1  0
 19 20  2  0
 22 21  1  0
 23 24  1  0
 23 22  1  0
 25 24  1  1
 25 27  1  0
 26 25  1  0
 26 19  1  0
 27 28  2  0
 27 29  1  0
M  END
$$$$
