CWM.pdb
     RDKit          3D

 29 30  0  0  1  0  0  0  0  0999 V2000
   28.6991  -23.0909  -16.2818 N   0  0  0  0  0  0  0  0  0  0  0  0
   28.0016  -21.8834  -15.9485 C   0  0  1  0  0  0  0  0  0  0  0  0
   27.2430  -21.3484  -17.1192 C   0  0  0  0  0  0  0  0  0  0  0  0
   28.3780  -20.9350  -18.4433 S   0  0  0  0  0  0  0  0  0  0  0  0
   27.1093  -22.1337  -14.7633 C   0  0  0  0  0  0  0  0  0  0  0  0
   26.7289  -23.2967  -14.5635 O   0  0  0  0  0  0  0  0  0  0  0  0
   26.7153  -21.0851  -13.9045 N   0  0  0  0  0  0  0  0  0  0  0  0
   25.8628  -21.2088  -12.7612 C   0  0  1  0  0  0  0  0  0  0  0  0
   26.2173  -20.3178  -11.5824 C   0  0  0  0  0  0  0  0  0  0  0  0
   27.4345  -20.7320  -10.8701 C   0  0  0  0  0  0  0  0  0  0  0  0
   28.6312  -21.2535  -11.2769 C   0  0  0  0  0  0  0  0  0  0  0  0
   29.4578  -21.4588  -10.2078 N   0  0  0  0  0  0  0  0  0  0  0  0
   28.8129  -21.0751   -9.0963 C   0  0  0  0  0  0  0  0  0  0  0  0
   29.2077  -21.0775   -7.7714 C   0  0  0  0  0  0  0  0  0  0  0  0
   28.3387  -20.6214   -6.8227 C   0  0  0  0  0  0  0  0  0  0  0  0
   27.0844  -20.1626   -7.1662 C   0  0  0  0  0  0  0  0  0  0  0  0
   26.7138  -20.1715   -8.5062 C   0  0  0  0  0  0  0  0  0  0  0  0
   27.5698  -20.6257   -9.4794 C   0  0  0  0  0  0  0  0  0  0  0  0
   24.4497  -21.0290  -13.1530 C   0  0  0  0  0  0  0  0  0  0  0  0
   24.0822  -19.9081  -13.6370 O   0  0  0  0  0  0  0  0  0  0  0  0
   17.4572  -24.3713  -14.8343 C   0  0  0  0  0  0  0  0  0  0  0  0
   19.1632  -24.6065  -14.2475 S   0  0  0  0  0  0  0  0  0  0  0  0
   20.0009  -23.0484  -14.0229 C   0  0  0  0  0  0  0  0  0  0  0  0
   21.4268  -23.0817  -13.6673 C   0  0  0  0  0  0  0  0  0  0  0  0
   22.1004  -21.7752  -13.4719 C   0  0  2  0  0  0  0  0  0  0  0  0
   23.4807  -22.0412  -13.0174 N   0  0  0  0  0  0  0  0  0  0  0  0
   21.5228  -20.8746  -12.4886 C   0  0  0  0  0  0  0  0  0  0  0  0
   20.7587  -19.9294  -12.8881 O   0  0  0  0  0  0  0  0  0  0  0  0
   21.7022  -20.9227  -11.1221 O   0  0  0  0  0  0  0  0  0  0  0  0
  2  1  1  6
  2  5  1  0
  3  2  1  0
  4  3  1  0
  5  6  2  0
  5  7  1  0
  7  8  1  0
  8 19  1  0
  8  9  1  1
 10  9  1  0
 10 18  1  0
 11 10  2  0
 12 11  1  0
 12 13  1  0
 13 14  1  0
 13 18  2  0
 14 15  2  0
 15 16  1  0
 17 16  2  0
 18 17  1  0
 19 20  2  0
 22 21  1  0
 23 24  1  0
 23 22  1  0
 25 24  1  1
 25 27  1  0
 26 25  1  0
 26 19  1  0
 27 28  2  0
 27 29  1  0
M  END
$$$$
