CWM.pdb
     RDKit          3D

 29 30  0  0  1  0  0  0  0  0999 V2000
   27.6484  -24.4294  -16.3122 N   0  0  0  0  0  0  0  0  0  0  0  0
   27.2432  -23.0553  -16.2554 C   0  0  1  0  0  0  0  0  0  0  0  0
   26.5193  -22.6461  -17.4966 C   0  0  0  0  0  0  0  0  0  0  0  0
   27.6473  -22.6509  -18.8894 S   0  0  0  0  0  0  0  0  0  0  0  0
   26.4168  -22.8297  -15.0186 C   0  0  0  0  0  0  0  0  0  0  0  0
   25.7695  -23.7895  -14.5747 O   0  0  0  0  0  0  0  0  0  0  0  0
   26.3757  -21.5712  -14.3806 N   0  0  0  0  0  0  0  0  0  0  0  0
   25.6009  -21.2390  -13.2237 C   0  0  1  0  0  0  0  0  0  0  0  0
   26.1333  -20.0856  -12.3899 C   0  0  0  0  0  0  0  0  0  0  0  0
   27.2723  -20.4477  -11.5342 C   0  0  0  0  0  0  0  0  0  0  0  0
   28.5802  -20.7539  -11.7888 C   0  0  0  0  0  0  0  0  0  0  0  0
   29.2519  -21.0109  -10.6263 N   0  0  0  0  0  0  0  0  0  0  0  0
   28.3937  -20.8755   -9.6046 C   0  0  0  0  0  0  0  0  0  0  0  0
   28.5743  -21.0235   -8.2420 C   0  0  0  0  0  0  0  0  0  0  0  0
   27.5119  -20.8205   -7.4093 C   0  0  0  0  0  0  0  0  0  0  0  0
   26.2731  -20.4731   -7.9057 C   0  0  0  0  0  0  0  0  0  0  0  0
   26.1200  -20.3312   -9.2802 C   0  0  0  0  0  0  0  0  0  0  0  0
   27.1732  -20.5301  -10.1389 C   0  0  0  0  0  0  0  0  0  0  0  0
   24.1899  -21.0126  -13.5986 C   0  0  0  0  0  0  0  0  0  0  0  0
   23.9279  -20.2167  -14.5597 O   0  0  0  0  0  0  0  0  0  0  0  0
   19.5491  -25.4719  -13.7587 C   0  0  0  0  0  0  0  0  0  0  0  0
   18.5365  -23.9834  -13.4956 S   0  0  0  0  0  0  0  0  0  0  0  0
   19.5125  -22.4958  -13.6158 C   0  0  0  0  0  0  0  0  0  0  0  0
   20.9277  -22.5710  -13.2257 C   0  0  0  0  0  0  0  0  0  0  0  0
   21.7349  -21.3376  -13.3875 C   0  0  2  0  0  0  0  0  0  0  0  0
   23.1117  -21.6363  -12.9428 N   0  0  0  0  0  0  0  0  0  0  0  0
   21.3155  -20.1696  -12.6316 C   0  0  0  0  0  0  0  0  0  0  0  0
   21.8230  -19.9655  -11.4751 O   0  0  0  0  0  0  0  0  0  0  0  0
   20.4045  -19.2141  -13.0303 O   0  0  0  0  0  0  0  0  0  0  0  0
  2  1  1  6
  2  5  1  0
  3  2  1  0
  4  3  1  0
  5  6  2  0
  5  7  1  0
  7  8  1  0
  8 19  1  0
  8  9  1  6
 10  9  1  0
 10 18  1  0
 11 10  2  0
 12 11  1  0
 12 13  1  0
 13 14  1  0
 13 18  2  0
 14 15  2  0
 15 16  1  0
 17 16  2  0
 18 17  1  0
 19 20  2  0
 22 21  1  0
 23 24  1  0
 23 22  1  0
 25 24  1  1
 25 27  1  0
 26 25  1  0
 26 19  1  0
 27 28  2  0
 27 29  1  0
M  END
$$$$
