CWM.pdb
     RDKit          3D

 29 30  0  0  1  0  0  0  0  0999 V2000
   28.7592  -20.6759  -15.0782 N   0  0  0  0  0  0  0  0  0  0  0  0
   27.9951  -19.7940  -14.2450 C   0  0  1  0  0  0  0  0  0  0  0  0
   27.3704  -18.6941  -15.0401 C   0  0  0  0  0  0  0  0  0  0  0  0
   28.6021  -17.4542  -15.4375 S   0  0  0  0  0  0  0  0  0  0  0  0
   26.9726  -20.5905  -13.4812 C   0  0  0  0  0  0  0  0  0  0  0  0
   26.6200  -21.6809  -13.9547 O   0  0  0  0  0  0  0  0  0  0  0  0
   26.4296  -20.1186  -12.2668 N   0  0  0  0  0  0  0  0  0  0  0  0
   25.4611  -20.7953  -11.4586 C   0  0  1  0  0  0  0  0  0  0  0  0
   25.6005  -20.5872   -9.9599 C   0  0  0  0  0  0  0  0  0  0  0  0
   26.9215  -20.9544   -9.4299 C   0  0  0  0  0  0  0  0  0  0  0  0
   27.9765  -21.6595   -9.9388 C   0  0  0  0  0  0  0  0  0  0  0  0
   29.0030  -21.7117   -9.0377 N   0  0  0  0  0  0  0  0  0  0  0  0
   28.6312  -21.0440   -7.9356 C   0  0  0  0  0  0  0  0  0  0  0  0
   29.3011  -20.8046   -6.7503 C   0  0  0  0  0  0  0  0  0  0  0  0
   28.6792  -20.0796   -5.7752 C   0  0  0  0  0  0  0  0  0  0  0  0
   27.4035  -19.5880   -5.9562 C   0  0  0  0  0  0  0  0  0  0  0  0
   26.7533  -19.8439   -7.1582 C   0  0  0  0  0  0  0  0  0  0  0  0
   27.3575  -20.5708   -8.1545 C   0  0  0  0  0  0  0  0  0  0  0  0
   24.0941  -20.4667  -11.9126 C   0  0  0  0  0  0  0  0  0  0  0  0
   23.5674  -19.3681  -11.5365 O   0  0  0  0  0  0  0  0  0  0  0  0
   20.6027  -23.0187  -17.0608 C   0  0  0  0  0  0  0  0  0  0  0  0
   22.0230  -21.8912  -17.2084 S   0  0  0  0  0  0  0  0  0  0  0  0
   22.5330  -21.2660  -15.6182 C   0  0  0  0  0  0  0  0  0  0  0  0
   21.6861  -21.5738  -14.4568 C   0  0  0  0  0  0  0  0  0  0  0  0
   22.0008  -20.8685  -13.1910 C   0  0  2  0  0  0  0  0  0  0  0  0
   23.3378  -21.3124  -12.7460 N   0  0  0  0  0  0  0  0  0  0  0  0
   21.1090  -21.0985  -12.0670 C   0  0  0  0  0  0  0  0  0  0  0  0
   21.4583  -21.9298  -11.1595 O   0  0  0  0  0  0  0  0  0  0  0  0
   19.8858  -20.4997  -11.8503 O   0  0  0  0  0  0  0  0  0  0  0  0
  2  1  1  6
  2  5  1  0
  3  2  1  0
  4  3  1  0
  5  6  2  0
  5  7  1  0
  7  8  1  0
  8 19  1  0
  8  9  1  1
 10  9  1  0
 10 18  1  0
 11 10  2  0
 12 11  1  0
 12 13  1  0
 13 14  1  0
 13 18  2  0
 14 15  2  0
 15 16  1  0
 17 16  2  0
 18 17  1  0
 19 20  2  0
 22 21  1  0
 23 24  1  0
 23 22  1  0
 25 24  1  6
 25 27  1  0
 26 25  1  0
 26 19  1  0
 27 28  2  0
 27 29  1  0
M  END
$$$$
