PEP.pdb
     RDKit          3D

 24 25  0  0  1  0  0  0  0  0999 V2000
   26.3098  -20.3068  -15.9860 N   0  0  0  0  0  0  0  0  0  0  0  0
   27.5837  -19.8103  -16.3381 C   0  0  0  0  0  0  0  0  0  0  0  0
   28.6036  -20.4800  -15.4648 C   0  0  0  0  0  0  0  0  0  0  0  0
   27.8550  -21.5196  -14.6887 C   0  0  0  0  0  0  0  0  0  0  0  0
   26.4175  -21.0979  -14.8334 C   0  0  1  0  0  0  0  0  0  0  0  0
   26.0315  -20.4004  -13.5541 C   0  0  0  0  0  0  0  0  0  0  0  0
   26.1659  -19.1495  -13.4543 O   0  0  0  0  0  0  0  0  0  0  0  0
   25.5155  -21.0690  -12.4237 N   0  0  0  0  0  0  0  0  0  0  0  0
   25.0724  -20.5356  -11.2118 C   0  0  1  0  0  0  0  0  0  0  0  0
   23.5470  -20.5158  -11.0447 C   0  0  0  0  0  0  0  0  0  0  0  0
   22.8407  -19.9313  -12.2297 C   0  0  0  0  0  0  0  0  0  0  0  0
   21.5899  -20.6929  -12.5409 C   0  0  0  0  0  0  0  0  0  0  0  0
   20.4753  -20.4057  -12.0650 O   0  0  0  0  0  0  0  0  0  0  0  0
   25.6221  -20.9379   -9.9456 C   0  0  0  0  0  0  0  0  0  0  0  0
   25.4747  -22.1954   -9.6746 O   0  0  0  0  0  0  0  0  0  0  0  0
   21.6899  -21.7673  -13.4011 O   0  0  0  0  0  0  0  0  0  0  0  0
   26.2962  -20.1808   -8.9536 N   0  0  0  0  0  0  0  0  0  0  0  0
   26.6608  -18.8121   -9.1009 C   0  0  0  0  0  0  0  0  0  0  0  0
   26.9728  -18.3379   -7.7146 C   0  0  0  0  0  0  0  0  0  0  0  0
   27.2208  -19.5419   -6.8851 C   0  0  0  0  0  0  0  0  0  0  0  0
   26.7344  -20.6970   -7.7051 C   0  0  1  0  0  0  0  0  0  0  0  0
   25.6007  -21.3891   -6.9777 C   0  0  0  0  0  0  0  0  0  0  0  0
   25.8067  -22.1678   -5.8594 O   0  0  0  0  0  0  0  0  0  0  0  0
   24.4457  -21.2430   -7.4141 O   0  0  0  0  0  0  0  0  0  0  0  0
  1  2  1  0
  2  3  1  0
  4  3  1  0
  5  4  1  0
  5  1  1  0
  5  6  1  1
  6  7  2  0
  8  6  1  0
  8  9  1  0
  9 14  1  0
  9 10  1  1
 11 10  1  0
 12 16  1  0
 12 11  1  0
 13 12  2  0
 14 17  1  0
 14 15  2  0
 17 21  1  0
 18 17  1  0
 18 19  1  0
 19 20  1  0
 20 21  1  0
 21 22  1  1
 22 24  2  0
 22 23  1  0
M  END
$$$$
