PEP.pdb
     RDKit          3D

 24 25  0  0  1  0  0  0  0  0999 V2000
   26.7655  -21.0655  -16.6420 N   0  0  0  0  0  0  0  0  0  0  0  0
   27.2834  -19.7679  -16.4383 C   0  0  0  0  0  0  0  0  0  0  0  0
   28.3881  -19.5452  -17.4289 C   0  0  0  0  0  0  0  0  0  0  0  0
   28.3730  -20.7409  -18.3309 C   0  0  0  0  0  0  0  0  0  0  0  0
   27.5751  -21.7547  -17.5559 C   0  0  1  0  0  0  0  0  0  0  0  0
   28.5616  -22.7063  -16.9286 C   0  0  0  0  0  0  0  0  0  0  0  0
   28.7780  -22.6592  -15.6861 O   0  0  0  0  0  0  0  0  0  0  0  0
   29.2843  -23.6758  -17.6559 N   0  0  0  0  0  0  0  0  0  0  0  0
   30.1819  -24.6379  -17.1890 C   0  0  1  0  0  0  0  0  0  0  0  0
   29.6935  -26.0859  -17.3302 C   0  0  0  0  0  0  0  0  0  0  0  0
   28.5179  -26.3903  -16.4526 C   0  0  0  0  0  0  0  0  0  0  0  0
   28.0857  -27.8154  -16.6062 C   0  0  0  0  0  0  0  0  0  0  0  0
   27.0443  -28.2749  -16.1007 O   0  0  0  0  0  0  0  0  0  0  0  0
   31.5736  -24.6336  -17.5504 C   0  0  0  0  0  0  0  0  0  0  0  0
   31.8062  -24.2843  -18.7752 O   0  0  0  0  0  0  0  0  0  0  0  0
   28.8917  -28.6540  -17.3488 O   0  0  0  0  0  0  0  0  0  0  0  0
   32.7238  -24.9485  -16.7827 N   0  0  0  0  0  0  0  0  0  0  0  0
   32.7093  -25.1859  -15.3787 C   0  0  0  0  0  0  0  0  0  0  0  0
   34.0183  -25.8499  -15.0795 C   0  0  0  0  0  0  0  0  0  0  0  0
   34.9245  -25.5651  -16.2182 C   0  0  0  0  0  0  0  0  0  0  0  0
   34.0434  -25.0251  -17.3024 C   0  0  1  0  0  0  0  0  0  0  0  0
   34.0997  -25.9466  -18.5029 C   0  0  0  0  0  0  0  0  0  0  0  0
   33.2984  -27.0621  -18.6162 O   0  0  0  0  0  0  0  0  0  0  0  0
   34.9024  -25.6778  -19.4136 O   0  0  0  0  0  0  0  0  0  0  0  0
  1  2  1  0
  2  3  1  0
  4  3  1  0
  5  4  1  0
  5  1  1  0
  5  6  1  1
  6  7  2  0
  8  6  1  0
  8  9  1  0
  9 14  1  0
  9 10  1  6
 11 10  1  0
 12 16  1  0
 12 11  1  0
 13 12  2  0
 14 17  1  0
 14 15  2  0
 17 21  1  0
 18 17  1  0
 18 19  1  0
 19 20  1  0
 20 21  1  0
 21 22  1  6
 22 24  2  0
 22 23  1  0
M  END
$$$$
