PEP.pdb
     RDKit          3D

 24 25  0  0  1  0  0  0  0  0999 V2000
   25.5065  -35.0976  -14.4053 N   0  0  0  0  0  0  0  0  0  0  0  0
   24.4584  -35.2282  -15.3422 C   0  0  0  0  0  0  0  0  0  0  0  0
   23.4934  -34.1003  -15.1236 C   0  0  0  0  0  0  0  0  0  0  0  0
   24.1316  -33.2111  -14.1011 C   0  0  0  0  0  0  0  0  0  0  0  0
   25.1902  -34.0868  -13.4866 C   0  0  1  0  0  0  0  0  0  0  0  0
   24.6446  -34.5813  -12.1713 C   0  0  0  0  0  0  0  0  0  0  0  0
   24.0410  -35.6883  -12.1169 O   0  0  0  0  0  0  0  0  0  0  0  0
   24.7635  -33.8703  -10.9582 N   0  0  0  0  0  0  0  0  0  0  0  0
   24.4112  -34.2677   -9.6670 C   0  0  1  0  0  0  0  0  0  0  0  0
   24.9943  -33.3917   -8.5499 C   0  0  0  0  0  0  0  0  0  0  0  0
   24.7888  -33.9771   -7.1861 C   0  0  0  0  0  0  0  0  0  0  0  0
   25.4000  -33.1096   -6.1299 C   0  0  0  0  0  0  0  0  0  0  0  0
   26.0675  -33.5552   -5.1775 O   0  0  0  0  0  0  0  0  0  0  0  0
   23.0543  -34.5640   -9.2948 C   0  0  0  0  0  0  0  0  0  0  0  0
   22.2238  -33.5887   -9.4833 O   0  0  0  0  0  0  0  0  0  0  0  0
   25.2066  -31.7468   -6.2276 O   0  0  0  0  0  0  0  0  0  0  0  0
   22.4854  -35.7472   -8.7584 N   0  0  0  0  0  0  0  0  0  0  0  0
   23.2231  -36.9302   -8.4680 C   0  0  0  0  0  0  0  0  0  0  0  0
   22.3298  -37.7418   -7.5807 C   0  0  0  0  0  0  0  0  0  0  0  0
   20.9510  -37.2249   -7.7563 C   0  0  0  0  0  0  0  0  0  0  0  0
   21.1034  -35.9237   -8.4823 C   0  0  1  0  0  0  0  0  0  0  0  0
   20.5766  -34.7989   -7.6159 C   0  0  0  0  0  0  0  0  0  0  0  0
   21.3958  -33.8182   -7.0996 O   0  0  0  0  0  0  0  0  0  0  0  0
   19.3589  -34.7690   -7.3670 O   0  0  0  0  0  0  0  0  0  0  0  0
  1  2  1  0
  2  3  1  0
  4  3  1  0
  5  4  1  0
  5  1  1  0
  5  6  1  1
  6  7  2  0
  8  6  1  0
  8  9  1  0
  9 14  1  0
  9 10  1  1
 11 10  1  0
 12 16  1  0
 12 11  1  0
 13 12  2  0
 14 17  1  0
 14 15  2  0
 17 21  1  0
 18 17  1  0
 18 19  1  0
 19 20  1  0
 20 21  1  0
 21 22  1  1
 22 24  2  0
 22 23  1  0
M  END
$$$$
