PEP.pdb
     RDKit          3D

 24 25  0  0  1  0  0  0  0  0999 V2000
   14.0704  -19.3264    3.3945 N   0  0  0  0  0  0  0  0  0  0  0  0
   13.1766  -18.2600    3.6336 C   0  0  0  0  0  0  0  0  0  0  0  0
   13.7409  -17.0254    2.9945 C   0  0  0  0  0  0  0  0  0  0  0  0
   14.9460  -17.4782    2.2287 C   0  0  0  0  0  0  0  0  0  0  0  0
   15.2477  -18.8303    2.8169 C   0  0  1  0  0  0  0  0  0  0  0  0
   16.3917  -18.6465    3.7811 C   0  0  0  0  0  0  0  0  0  0  0  0
   17.4830  -18.1583    3.3765 O   0  0  0  0  0  0  0  0  0  0  0  0
   16.3271  -18.9941    5.1471 N   0  0  0  0  0  0  0  0  0  0  0  0
   17.3146  -18.8924    6.1289 C   0  0  1  0  0  0  0  0  0  0  0  0
   16.8504  -18.2284    7.4323 C   0  0  0  0  0  0  0  0  0  0  0  0
   17.9911  -17.8085    8.3082 C   0  0  0  0  0  0  0  0  0  0  0  0
   17.4970  -17.1302    9.5479 C   0  0  0  0  0  0  0  0  0  0  0  0
   16.8062  -16.0939    9.5343 O   0  0  0  0  0  0  0  0  0  0  0  0
   18.1461  -20.0038    6.5040 C   0  0  0  0  0  0  0  0  0  0  0  0
   17.4934  -21.0480    6.9041 O   0  0  0  0  0  0  0  0  0  0  0  0
   17.8310  -17.6919   10.7634 O   0  0  0  0  0  0  0  0  0  0  0  0
   19.5581  -20.1367    6.5045 N   0  0  0  0  0  0  0  0  0  0  0  0
   20.4627  -19.0738    6.2219 C   0  0  0  0  0  0  0  0  0  0  0  0
   21.7947  -19.5509    6.7140 C   0  0  0  0  0  0  0  0  0  0  0  0
   21.7114  -21.0258    6.8432 C   0  0  0  0  0  0  0  0  0  0  0  0
   20.2531  -21.3523    6.7422 C   0  0  1  0  0  0  0  0  0  0  0  0
   19.7908  -21.9967    8.0324 C   0  0  0  0  0  0  0  0  0  0  0  0
   20.1008  -23.2988    8.3604 O   0  0  0  0  0  0  0  0  0  0  0  0
   19.1064  -21.3171    8.8170 O   0  0  0  0  0  0  0  0  0  0  0  0
  1  2  1  0
  2  3  1  0
  4  3  1  0
  5  4  1  0
  5  1  1  0
  5  6  1  1
  6  7  2  0
  8  6  1  0
  8  9  1  0
  9 14  1  0
  9 10  1  1
 11 10  1  0
 12 16  1  0
 12 11  1  0
 13 12  2  0
 14 17  1  0
 14 15  2  0
 17 21  1  0
 18 17  1  0
 18 19  1  0
 19 20  1  0
 20 21  1  0
 21 22  1  1
 22 24  2  0
 22 23  1  0
M  END
$$$$
