PEP.pdb
     RDKit          3D

 24 25  0  0  1  0  0  0  0  0999 V2000
   35.9600  -11.1718  -15.6529 N   0  0  0  0  0  0  0  0  0  0  0  0
   34.9297  -11.5731  -16.5308 C   0  0  0  0  0  0  0  0  0  0  0  0
   35.3793  -11.2971  -17.9355 C   0  0  0  0  0  0  0  0  0  0  0  0
   36.8065  -10.8560  -17.8266 C   0  0  0  0  0  0  0  0  0  0  0  0
   36.9508  -10.4904  -16.3738 C   0  0  1  0  0  0  0  0  0  0  0  0
   36.8700   -8.9877  -16.2870 C   0  0  0  0  0  0  0  0  0  0  0  0
   37.5367   -8.2747  -17.0870 O   0  0  0  0  0  0  0  0  0  0  0  0
   36.0776   -8.3002  -15.3434 N   0  0  0  0  0  0  0  0  0  0  0  0
   35.8682   -6.9269  -15.2037 C   0  0  1  0  0  0  0  0  0  0  0  0
   34.3931   -6.5142  -15.1082 C   0  0  0  0  0  0  0  0  0  0  0  0
   33.6100   -6.8705  -16.3348 C   0  0  0  0  0  0  0  0  0  0  0  0
   32.1720   -6.4810  -16.1879 C   0  0  0  0  0  0  0  0  0  0  0  0
   31.6854   -6.0391  -15.1299 O   0  0  0  0  0  0  0  0  0  0  0  0
   36.5833   -6.1319  -14.2424 C   0  0  0  0  0  0  0  0  0  0  0  0
   36.3748   -6.4690  -13.0098 O   0  0  0  0  0  0  0  0  0  0  0  0
   31.3527   -6.6236  -17.2891 O   0  0  0  0  0  0  0  0  0  0  0  0
   37.4750   -5.0450  -14.4293 N   0  0  0  0  0  0  0  0  0  0  0  0
   37.8802   -4.5513  -15.7021 C   0  0  0  0  0  0  0  0  0  0  0  0
   38.4767   -3.2046  -15.4288 C   0  0  0  0  0  0  0  0  0  0  0  0
   38.8110   -3.1584  -13.9848 C   0  0  0  0  0  0  0  0  0  0  0  0
   38.1139   -4.3366  -13.3771 C   0  0  1  0  0  0  0  0  0  0  0  0
   37.1031   -3.8532  -12.3582 C   0  0  0  0  0  0  0  0  0  0  0  0
   35.7620   -3.7281  -12.6500 O   0  0  0  0  0  0  0  0  0  0  0  0
   37.5090   -3.5606  -11.2200 O   0  0  0  0  0  0  0  0  0  0  0  0
  1  2  1  0
  2  3  1  0
  4  3  1  0
  5  4  1  0
  5  1  1  0
  5  6  1  6
  6  7  2  0
  8  6  1  0
  8  9  1  0
  9 14  1  0
  9 10  1  1
 11 10  1  0
 12 16  1  0
 12 11  1  0
 13 12  2  0
 14 17  1  0
 14 15  2  0
 17 21  1  0
 18 17  1  0
 18 19  1  0
 19 20  1  0
 20 21  1  0
 21 22  1  1
 22 24  2  0
 22 23  1  0
M  END
$$$$
