PEP.pdb
     RDKit          3D

 24 25  0  0  1  0  0  0  0  0999 V2000
   28.1946  -20.5315  -18.0330 N   0  0  0  0  0  0  0  0  0  0  0  0
   27.8330  -19.8152  -19.1947 C   0  0  0  0  0  0  0  0  0  0  0  0
   28.2871  -18.3949  -19.0278 C   0  0  0  0  0  0  0  0  0  0  0  0
   29.0808  -18.3680  -17.7579 C   0  0  0  0  0  0  0  0  0  0  0  0
   28.6743  -19.6397  -17.0632 C   0  0  1  0  0  0  0  0  0  0  0  0
   27.6697  -19.2623  -16.0047 C   0  0  0  0  0  0  0  0  0  0  0  0
   27.9680  -18.3992  -15.1336 O   0  0  0  0  0  0  0  0  0  0  0  0
   26.3787  -19.8249  -15.9154 N   0  0  0  0  0  0  0  0  0  0  0  0
   25.3753  -19.5807  -14.9757 C   0  0  1  0  0  0  0  0  0  0  0  0
   24.0820  -18.9989  -15.5621 C   0  0  0  0  0  0  0  0  0  0  0  0
   24.2911  -17.6724  -16.2266 C   0  0  0  0  0  0  0  0  0  0  0  0
   23.0054  -17.1358  -16.7746 C   0  0  0  0  0  0  0  0  0  0  0  0
   22.9049  -16.6107  -17.8995 O   0  0  0  0  0  0  0  0  0  0  0  0
   24.9828  -20.5569  -13.9957 C   0  0  0  0  0  0  0  0  0  0  0  0
   24.2994  -21.5477  -14.4729 O   0  0  0  0  0  0  0  0  0  0  0  0
   21.8797  -17.2337  -15.9824 O   0  0  0  0  0  0  0  0  0  0  0  0
   25.2245  -20.6064  -12.5991 N   0  0  0  0  0  0  0  0  0  0  0  0
   26.0833  -19.7089  -11.9027 C   0  0  0  0  0  0  0  0  0  0  0  0
   25.7329  -19.8739  -10.4556 C   0  0  0  0  0  0  0  0  0  0  0  0
   25.0211  -21.1680  -10.3220 C   0  0  0  0  0  0  0  0  0  0  0  0
   24.6795  -21.5804  -11.7208 C   0  0  1  0  0  0  0  0  0  0  0  0
   23.1745  -21.6608  -11.8687 C   0  0  0  0  0  0  0  0  0  0  0  0
   22.4357  -22.7023  -11.3503 O   0  0  0  0  0  0  0  0  0  0  0  0
   22.5942  -20.7487  -12.4829 O   0  0  0  0  0  0  0  0  0  0  0  0
  1  2  1  0
  2  3  1  0
  4  3  1  0
  5  4  1  0
  5  1  1  0
  5  6  1  1
  6  7  2  0
  8  6  1  0
  8  9  1  0
  9 14  1  0
  9 10  1  6
 11 10  1  0
 12 16  1  0
 12 11  1  0
 13 12  2  0
 14 17  1  0
 14 15  2  0
 17 21  1  0
 18 17  1  0
 18 19  1  0
 19 20  1  0
 20 21  1  0
 21 22  1  1
 22 24  2  0
 22 23  1  0
M  END
$$$$
