PEP.pdb
     RDKit          3D

 24 25  0  0  1  0  0  0  0  0999 V2000
   28.2680  -21.7714  -18.6180 N   0  0  0  0  0  0  0  0  0  0  0  0
   29.6657  -21.9181  -18.4825 C   0  0  0  0  0  0  0  0  0  0  0  0
   29.9298  -22.8053  -17.3016 C   0  0  0  0  0  0  0  0  0  0  0  0
   28.5877  -23.2967  -16.8537 C   0  0  0  0  0  0  0  0  0  0  0  0
   27.6276  -22.3401  -17.5079 C   0  0  1  0  0  0  0  0  0  0  0  0
   27.2026  -21.3511  -16.4527 C   0  0  0  0  0  0  0  0  0  0  0  0
   28.0334  -20.5129  -16.0052 O   0  0  0  0  0  0  0  0  0  0  0  0
   25.9006  -21.2955  -15.9116 N   0  0  0  0  0  0  0  0  0  0  0  0
   25.3931  -20.4485  -14.9246 C   0  0  1  0  0  0  0  0  0  0  0  0
   24.3935  -19.4022  -15.4359 C   0  0  0  0  0  0  0  0  0  0  0  0
   24.9562  -18.5480  -16.5307 C   0  0  0  0  0  0  0  0  0  0  0  0
   23.9333  -17.5800  -17.0384 C   0  0  0  0  0  0  0  0  0  0  0  0
   22.7748  -17.5062  -16.5870 O   0  0  0  0  0  0  0  0  0  0  0  0
   24.8741  -20.9417  -13.6777 C   0  0  0  0  0  0  0  0  0  0  0  0
   23.8117  -21.6727  -13.7932 O   0  0  0  0  0  0  0  0  0  0  0  0
   24.3052  -16.7302  -18.0600 O   0  0  0  0  0  0  0  0  0  0  0  0
   25.3389  -20.7563  -12.3506 N   0  0  0  0  0  0  0  0  0  0  0  0
   26.5788  -20.1415  -12.0149 C   0  0  0  0  0  0  0  0  0  0  0  0
   26.4705  -19.8100  -10.5580 C   0  0  0  0  0  0  0  0  0  0  0  0
   25.3768  -20.6413   -9.9996 C   0  0  0  0  0  0  0  0  0  0  0  0
   24.6531  -21.1968  -11.1875 C   0  0  1  0  0  0  0  0  0  0  0  0
   23.2222  -20.7009  -11.1826 C   0  0  0  0  0  0  0  0  0  0  0  0
   22.2576  -21.2361  -10.3564 O   0  0  0  0  0  0  0  0  0  0  0  0
   22.9171  -19.7770  -11.9567 O   0  0  0  0  0  0  0  0  0  0  0  0
  1  2  1  0
  2  3  1  0
  4  3  1  0
  5  4  1  0
  5  1  1  0
  5  6  1  1
  6  7  2  0
  8  6  1  0
  8  9  1  0
  9 14  1  0
  9 10  1  6
 11 10  1  0
 12 16  1  0
 12 11  1  0
 13 12  2  0
 14 17  1  0
 14 15  2  0
 17 21  1  0
 18 17  1  0
 18 19  1  0
 19 20  1  0
 20 21  1  0
 21 22  1  6
 22 24  2  0
 22 23  1  0
M  END
$$$$
