PEP.pdb
     RDKit          3D

 24 25  0  0  1  0  0  0  0  0999 V2000
   15.0087  -22.3083    0.3280 N   0  0  0  0  0  0  0  0  0  0  0  0
   15.7242  -23.2204   -0.4779 C   0  0  0  0  0  0  0  0  0  0  0  0
   16.3195  -24.2672    0.4171 C   0  0  0  0  0  0  0  0  0  0  0  0
   15.7693  -23.9950    1.7834 C   0  0  0  0  0  0  0  0  0  0  0  0
   15.2564  -22.5839    1.6802 C   0  0  1  0  0  0  0  0  0  0  0  0
   16.2865  -21.6919    2.3249 C   0  0  0  0  0  0  0  0  0  0  0  0
   17.5043  -21.8121    2.0161 O   0  0  0  0  0  0  0  0  0  0  0  0
   15.9755  -20.7017    3.2808 N   0  0  0  0  0  0  0  0  0  0  0  0
   16.8313  -19.8247    3.9500 C   0  0  1  0  0  0  0  0  0  0  0  0
   16.2186  -18.4533    4.2647 C   0  0  0  0  0  0  0  0  0  0  0  0
   17.2210  -17.4799    4.8056 C   0  0  0  0  0  0  0  0  0  0  0  0
   16.6165  -16.1202    4.9710 C   0  0  0  0  0  0  0  0  0  0  0  0
   15.4386  -15.8515    4.6682 O   0  0  0  0  0  0  0  0  0  0  0  0
   17.5843  -20.2175    5.1102 C   0  0  0  0  0  0  0  0  0  0  0  0
   16.8835  -20.8009    6.0294 O   0  0  0  0  0  0  0  0  0  0  0  0
   17.4161  -15.1208    5.4867 O   0  0  0  0  0  0  0  0  0  0  0  0
   18.9636  -20.0686    5.4049 N   0  0  0  0  0  0  0  0  0  0  0  0
   19.9271  -19.5553    4.4905 C   0  0  0  0  0  0  0  0  0  0  0  0
   21.1210  -19.2147    5.3287 C   0  0  0  0  0  0  0  0  0  0  0  0
   20.9848  -19.9548    6.6065 C   0  0  0  0  0  0  0  0  0  0  0  0
   19.5719  -20.4514    6.6300 C   0  0  1  0  0  0  0  0  0  0  0  0
   18.8434  -19.8420    7.8095 C   0  0  0  0  0  0  0  0  0  0  0  0
   19.0265  -20.2870    9.1010 O   0  0  0  0  0  0  0  0  0  0  0  0
   18.0531  -18.9068    7.5935 O   0  0  0  0  0  0  0  0  0  0  0  0
  1  2  1  0
  2  3  1  0
  4  3  1  0
  5  4  1  0
  5  1  1  0
  5  6  1  6
  6  7  2  0
  8  6  1  0
  8  9  1  0
  9 14  1  0
  9 10  1  1
 11 10  1  0
 12 16  1  0
 12 11  1  0
 13 12  2  0
 14 17  1  0
 14 15  2  0
 17 21  1  0
 18 17  1  0
 18 19  1  0
 19 20  1  0
 20 21  1  0
 21 22  1  1
 22 24  2  0
 22 23  1  0
M  END
$$$$
