PEP.pdb
     RDKit          3D

 24 25  0  0  1  0  0  0  0  0999 V2000
   15.4480  -11.1514  -15.6309 N   0  0  0  0  0  0  0  0  0  0  0  0
   16.5283  -11.4107  -16.5021 C   0  0  0  0  0  0  0  0  0  0  0  0
   17.4010  -12.4526  -15.8666 C   0  0  0  0  0  0  0  0  0  0  0  0
   16.6709  -12.9007  -14.6379 C   0  0  0  0  0  0  0  0  0  0  0  0
   15.6633  -11.8062  -14.4100 C   0  0  1  0  0  0  0  0  0  0  0  0
   16.2074  -10.9273  -13.3128 C   0  0  0  0  0  0  0  0  0  0  0  0
   16.5048  -11.4295  -12.1938 O   0  0  0  0  0  0  0  0  0  0  0  0
   16.4127   -9.5383  -13.4526 N   0  0  0  0  0  0  0  0  0  0  0  0
   16.8034   -8.6051  -12.4904 C   0  0  1  0  0  0  0  0  0  0  0  0
   18.0478   -7.7883  -12.8640 C   0  0  0  0  0  0  0  0  0  0  0  0
   19.2988   -8.6125  -12.8841 C   0  0  0  0  0  0  0  0  0  0  0  0
   20.4914   -7.7733  -13.2227 C   0  0  0  0  0  0  0  0  0  0  0  0
   20.4380   -6.5400  -13.3877 O   0  0  0  0  0  0  0  0  0  0  0  0
   15.8755   -7.6906  -11.8820 C   0  0  0  0  0  0  0  0  0  0  0  0
   15.2072   -6.9688  -12.7240 O   0  0  0  0  0  0  0  0  0  0  0  0
   21.7078   -8.4111  -13.3567 O   0  0  0  0  0  0  0  0  0  0  0  0
   15.5780   -7.4561  -10.5153 N   0  0  0  0  0  0  0  0  0  0  0  0
   16.1251   -8.2072   -9.4362 C   0  0  0  0  0  0  0  0  0  0  0  0
   15.8605   -7.3852   -8.2121 C   0  0  0  0  0  0  0  0  0  0  0  0
   14.7840   -6.4243   -8.5539 C   0  0  0  0  0  0  0  0  0  0  0  0
   14.6649   -6.4745  -10.0461 C   0  0  1  0  0  0  0  0  0  0  0  0
   14.9904   -5.1128  -10.6234 C   0  0  0  0  0  0  0  0  0  0  0  0
   14.0844   -4.0742  -10.6225 O   0  0  0  0  0  0  0  0  0  0  0  0
   16.1190   -4.9364  -11.1142 O   0  0  0  0  0  0  0  0  0  0  0  0
  1  2  1  0
  2  3  1  0
  4  3  1  0
  5  4  1  0
  5  1  1  0
  5  6  1  1
  6  7  2  0
  8  6  1  0
  8  9  1  0
  9 14  1  0
  9 10  1  6
 11 10  1  0
 12 16  1  0
 12 11  1  0
 13 12  2  0
 14 17  1  0
 14 15  2  0
 17 21  1  0
 18 17  1  0
 18 19  1  0
 19 20  1  0
 20 21  1  0
 21 22  1  6
 22 24  2  0
 22 23  1  0
M  END
$$$$
