VSI.pdb
     RDKit          3D

 22 21  0  0  1  0  0  0  0  0999 V2000
   13.9980   -6.8885   -7.6588 C   0  0  0  0  0  0  0  0  0  0  0  0
   15.0244   -7.0319   -8.7664 C   0  0  2  0  0  0  0  0  0  0  0  0
   15.4266   -5.7016   -9.3181 C   0  0  0  0  0  0  0  0  0  0  0  0
   14.5355   -7.9563   -9.8589 C   0  0  2  0  0  0  0  0  0  0  0  0
   14.3217   -9.2941   -9.4102 N   0  0  0  0  0  0  0  0  0  0  0  0
   15.5558   -7.9630  -10.9327 C   0  0  0  0  0  0  0  0  0  0  0  0
   16.5008   -8.7794  -10.9175 O   0  0  0  0  0  0  0  0  0  0  0  0
   15.2227   -5.4671  -14.3479 O   0  0  0  0  0  0  0  0  0  0  0  0
   15.6652   -6.7803  -14.4489 C   0  0  0  0  0  0  0  0  0  0  0  0
   16.3135   -7.1946  -13.1618 C   0  0  2  0  0  0  0  0  0  0  0  0
   15.5012   -7.0520  -12.0104 N   0  0  0  0  0  0  0  0  0  0  0  0
   17.6066   -6.5165  -12.9484 C   0  0  0  0  0  0  0  0  0  0  0  0
   17.7039   -5.6040  -12.0988 O   0  0  0  0  0  0  0  0  0  0  0  0
   22.0786   -9.4296  -13.6591 C   0  0  0  0  0  0  0  0  0  0  0  0
   21.0621   -8.4215  -13.1607 C   0  0  0  0  0  0  0  0  0  0  0  0
   21.1270   -7.1342  -13.9458 C   0  0  2  0  0  0  0  0  0  0  0  0
   22.4473   -6.4432  -13.8476 C   0  0  0  0  0  0  0  0  0  0  0  0
   20.0192   -6.2081  -13.5328 C   0  0  2  0  0  0  0  0  0  0  0  0
   18.7529   -6.8797  -13.6924 N   0  0  0  0  0  0  0  0  0  0  0  0
   20.0252   -4.9453  -14.3221 C   0  0  0  0  0  0  0  0  0  0  0  0
   20.6344   -3.9184  -13.9332 O   0  0  0  0  0  0  0  0  0  0  0  0
   19.3444   -4.8723  -15.5294 O   0  0  0  0  0  0  0  0  0  0  0  0
  2  1  1  1
  3  2  1  0
  4  2  1  0
  4  5  1  1
  6  4  1  0
  6  7  2  0
  8  9  1  0
 10  9  1  6
 10 11  1  0
 10 12  1  0
 11  6  1  0
 12 13  2  0
 12 19  1  0
 14 15  1  0
 16 17  1  1
 16 15  1  0
 18 16  1  0
 18 19  1  6
 20 22  1  0
 20 18  1  0
 21 20  2  0
M  END
$$$$
