VSI.pdb
     RDKit          3D

 22 21  0  0  1  0  0  0  0  0999 V2000
   26.2262  -20.9609   -9.5037 C   0  0  0  0  0  0  0  0  0  0  0  0
   25.4902  -20.5475  -10.7641 C   0  0  2  0  0  0  0  0  0  0  0  0
   24.1698  -19.9209  -10.4486 C   0  0  0  0  0  0  0  0  0  0  0  0
   25.3346  -21.7082  -11.7209 C   0  0  2  0  0  0  0  0  0  0  0  0
   26.5728  -22.3376  -12.0484 N   0  0  0  0  0  0  0  0  0  0  0  0
   24.7126  -21.1889  -12.9609 C   0  0  0  0  0  0  0  0  0  0  0  0
   25.3890  -20.5727  -13.8109 O   0  0  0  0  0  0  0  0  0  0  0  0
   20.5024  -21.1754  -13.7061 O   0  0  0  0  0  0  0  0  0  0  0  0
   21.3899  -21.4970  -14.7254 C   0  0  0  0  0  0  0  0  0  0  0  0
   22.7362  -20.9079  -14.4266 C   0  0  2  0  0  0  0  0  0  0  0  0
   23.3380  -21.3686  -13.2301 N   0  0  0  0  0  0  0  0  0  0  0  0
   22.7111  -19.4326  -14.4377 C   0  0  0  0  0  0  0  0  0  0  0  0
   22.2960  -18.8046  -13.4390 O   0  0  0  0  0  0  0  0  0  0  0  0
   26.8159  -16.7052  -15.2401 C   0  0  0  0  0  0  0  0  0  0  0  0
   25.4027  -17.1131  -14.8732 C   0  0  0  0  0  0  0  0  0  0  0  0
   24.4119  -16.6926  -15.9311 C   0  0  2  0  0  0  0  0  0  0  0  0
   24.3243  -15.2125  -16.1096 C   0  0  0  0  0  0  0  0  0  0  0  0
   23.0548  -17.2663  -15.6404 C   0  0  2  0  0  0  0  0  0  0  0  0
   23.1513  -18.7034  -15.5663 N   0  0  0  0  0  0  0  0  0  0  0  0
   22.0534  -16.8790  -16.6725 C   0  0  0  0  0  0  0  0  0  0  0  0
   21.1830  -15.9991  -16.4603 O   0  0  0  0  0  0  0  0  0  0  0  0
   22.0587  -17.4935  -17.9170 O   0  0  0  0  0  0  0  0  0  0  0  0
  2  1  1  1
  3  2  1  0
  4  2  1  0
  4  5  1  6
  6  4  1  0
  6  7  2  0
  8  9  1  0
 10  9  1  1
 10 11  1  0
 10 12  1  0
 11  6  1  0
 12 13  2  0
 12 19  1  0
 14 15  1  0
 16 17  1  1
 16 15  1  0
 18 16  1  0
 18 19  1  6
 20 22  1  0
 20 18  1  0
 21 20  2  0
M  END
$$$$
