VSI.pdb
     RDKit          3D

 22 21  0  0  1  0  0  0  0  0999 V2000
   17.2052  -16.3391  -17.0658 C   0  0  0  0  0  0  0  0  0  0  0  0
   17.8453  -15.0033  -17.3927 C   0  0  2  0  0  0  0  0  0  0  0  0
   18.5056  -14.4024  -16.1932 C   0  0  0  0  0  0  0  0  0  0  0  0
   16.8490  -14.0474  -18.0097 C   0  0  2  0  0  0  0  0  0  0  0  0
   16.2565  -14.5479  -19.2077 N   0  0  0  0  0  0  0  0  0  0  0  0
   17.5641  -12.7863  -18.3135 C   0  0  0  0  0  0  0  0  0  0  0  0
   17.8054  -12.4510  -19.4921 O   0  0  0  0  0  0  0  0  0  0  0  0
   16.6653   -9.3042  -17.6178 O   0  0  0  0  0  0  0  0  0  0  0  0
   17.7526   -9.7245  -18.3737 C   0  0  0  0  0  0  0  0  0  0  0  0
   18.5968  -10.6635  -17.5646 C   0  0  2  0  0  0  0  0  0  0  0  0
   17.9990  -11.9175  -17.2886 N   0  0  0  0  0  0  0  0  0  0  0  0
   19.0658  -10.0461  -16.3092 C   0  0  0  0  0  0  0  0  0  0  0  0
   18.3750  -10.1342  -15.2703 O   0  0  0  0  0  0  0  0  0  0  0  0
   23.7289  -11.2171  -14.6852 C   0  0  0  0  0  0  0  0  0  0  0  0
   22.3074  -10.7342  -14.8951 C   0  0  0  0  0  0  0  0  0  0  0  0
   22.2159   -9.2297  -14.8183 C   0  0  2  0  0  0  0  0  0  0  0  0
   22.7596   -8.6645  -13.5475 C   0  0  0  0  0  0  0  0  0  0  0  0
   20.8000   -8.7760  -15.0298 C   0  0  2  0  0  0  0  0  0  0  0  0
   20.2943   -9.3483  -16.2532 N   0  0  0  0  0  0  0  0  0  0  0  0
   20.6926   -7.2916  -15.0834 C   0  0  0  0  0  0  0  0  0  0  0  0
   20.8688   -6.6480  -16.1472 O   0  0  0  0  0  0  0  0  0  0  0  0
   20.3896   -6.5707  -13.9367 O   0  0  0  0  0  0  0  0  0  0  0  0
  2  1  1  1
  3  2  1  0
  4  2  1  0
  4  5  1  6
  6  4  1  0
  6  7  2  0
  8  9  1  0
 10  9  1  1
 10 11  1  0
 10 12  1  0
 11  6  1  0
 12 13  2  0
 12 19  1  0
 14 15  1  0
 16 17  1  1
 16 15  1  0
 18 16  1  0
 18 19  1  6
 20 22  1  0
 20 18  1  0
 21 20  2  0
M  END
$$$$
