VSI.pdb
     RDKit          3D

 22 21  0  0  1  0  0  0  0  0999 V2000
   19.8865  -14.6226  -20.9713 C   0  0  0  0  0  0  0  0  0  0  0  0
   20.8183  -15.4023  -20.0632 C   0  0  2  0  0  0  0  0  0  0  0  0
   20.6709  -16.8771  -20.2607 C   0  0  0  0  0  0  0  0  0  0  0  0
   20.6277  -15.0189  -18.6127 C   0  0  2  0  0  0  0  0  0  0  0  0
   19.3339  -15.3488  -18.1087 N   0  0  0  0  0  0  0  0  0  0  0  0
   20.8313  -13.5558  -18.5036 C   0  0  0  0  0  0  0  0  0  0  0  0
   21.9267  -13.0345  -18.8001 O   0  0  0  0  0  0  0  0  0  0  0  0
   17.8829  -10.8251  -16.9673 O   0  0  0  0  0  0  0  0  0  0  0  0
   18.7344  -10.4815  -18.0100 C   0  0  0  0  0  0  0  0  0  0  0  0
   19.9886  -11.2993  -17.9275 C   0  0  2  0  0  0  0  0  0  0  0  0
   19.8009  -12.6967  -18.0624 N   0  0  0  0  0  0  0  0  0  0  0  0
   20.7572  -11.0143  -16.7006 C   0  0  0  0  0  0  0  0  0  0  0  0
   20.5874  -11.7130  -15.6772 O   0  0  0  0  0  0  0  0  0  0  0  0
   26.1567  -10.7201  -14.7859 C   0  0  0  0  0  0  0  0  0  0  0  0
   24.7750  -10.1435  -14.5485 C   0  0  0  0  0  0  0  0  0  0  0  0
   23.9096  -10.2527  -15.7801 C   0  0  2  0  0  0  0  0  0  0  0  0
   24.4969   -9.5870  -16.9810 C   0  0  0  0  0  0  0  0  0  0  0  0
   22.5328   -9.7188  -15.5063 C   0  0  2  0  0  0  0  0  0  0  0  0
   21.6933   -9.9555  -16.6548 N   0  0  0  0  0  0  0  0  0  0  0  0
   22.5527   -8.2648  -15.1852 C   0  0  0  0  0  0  0  0  0  0  0  0
   22.3516   -7.3858  -16.0592 O   0  0  0  0  0  0  0  0  0  0  0  0
   22.7986   -7.8387  -13.8873 O   0  0  0  0  0  0  0  0  0  0  0  0
  2  1  1  6
  3  2  1  0
  4  2  1  0
  4  5  1  6
  6  4  1  0
  6  7  2  0
  8  9  1  0
 10  9  1  1
 10 11  1  0
 10 12  1  0
 11  6  1  0
 12 13  2  0
 12 19  1  0
 14 15  1  0
 16 17  1  6
 16 15  1  0
 18 16  1  0
 18 19  1  6
 20 22  1  0
 20 18  1  0
 21 20  2  0
M  END
$$$$
