VSI.pdb
     RDKit          3D

 22 21  0  0  1  0  0  0  0  0999 V2000
   18.3174  -11.5435  -19.2892 C   0  0  0  0  0  0  0  0  0  0  0  0
   18.8263  -10.8836  -18.0218 C   0  0  2  0  0  0  0  0  0  0  0  0
   19.3051   -9.4911  -18.2817 C   0  0  0  0  0  0  0  0  0  0  0  0
   19.8957  -11.7181  -17.3533 C   0  0  2  0  0  0  0  0  0  0  0  0
   19.4358  -13.0096  -16.9566 N   0  0  0  0  0  0  0  0  0  0  0  0
   20.3590  -10.9802  -16.1554 C   0  0  0  0  0  0  0  0  0  0  0  0
   19.6449  -10.8977  -15.1341 O   0  0  0  0  0  0  0  0  0  0  0  0
   24.3458   -9.8155  -15.5046 O   0  0  0  0  0  0  0  0  0  0  0  0
   23.4089   -9.9302  -14.4851 C   0  0  0  0  0  0  0  0  0  0  0  0
   22.0483   -9.5786  -15.0085 C   0  0  2  0  0  0  0  0  0  0  0  0
   21.6194  -10.3441  -16.1203 N   0  0  0  0  0  0  0  0  0  0  0  0
   21.9263   -8.1404  -15.3149 C   0  0  0  0  0  0  0  0  0  0  0  0
   22.1376   -7.7260  -16.4759 O   0  0  0  0  0  0  0  0  0  0  0  0
   17.8523   -5.4949  -15.5618 C   0  0  0  0  0  0  0  0  0  0  0  0
   19.3156   -5.8800  -15.6531 C   0  0  0  0  0  0  0  0  0  0  0  0
   20.1113   -5.3114  -14.5037 C   0  0  2  0  0  0  0  0  0  0  0  0
   20.0637   -3.8207  -14.4268 C   0  0  0  0  0  0  0  0  0  0  0  0
   21.5344   -5.7877  -14.5607 C   0  0  2  0  0  0  0  0  0  0  0  0
   21.5714   -7.2080  -14.3129 N   0  0  0  0  0  0  0  0  0  0  0  0
   22.3989   -5.0796  -13.5763 C   0  0  0  0  0  0  0  0  0  0  0  0
   22.8868   -3.9465  -13.8106 O   0  0  0  0  0  0  0  0  0  0  0  0
   22.6913   -5.6668  -12.3532 O   0  0  0  0  0  0  0  0  0  0  0  0
  2  1  1  6
  3  2  1  0
  4  2  1  0
  4  5  1  1
  6  4  1  0
  6  7  2  0
  8  9  1  0
 10  9  1  6
 10 11  1  0
 10 12  1  0
 11  6  1  0
 12 13  2  0
 12 19  1  0
 14 15  1  0
 16 17  1  6
 16 15  1  0
 18 16  1  0
 18 19  1  1
 20 22  1  0
 20 18  1  0
 21 20  2  0
M  END
$$$$
