VSI.pdb
     RDKit          3D

 22 21  0  0  1  0  0  0  0  0999 V2000
   18.2121  -15.7257  -18.4337 C   0  0  0  0  0  0  0  0  0  0  0  0
   19.0328  -14.4501  -18.4168 C   0  0  2  0  0  0  0  0  0  0  0  0
   18.3797  -13.3877  -17.5918 C   0  0  0  0  0  0  0  0  0  0  0  0
   19.3232  -13.9594  -19.8174 C   0  0  2  0  0  0  0  0  0  0  0  0
   19.8959  -14.9610  -20.6573 N   0  0  0  0  0  0  0  0  0  0  0  0
   20.2653  -12.8215  -19.7092 C   0  0  0  0  0  0  0  0  0  0  0  0
   21.2450  -12.7217  -20.4773 O   0  0  0  0  0  0  0  0  0  0  0  0
   21.0798   -8.6139  -20.1911 O   0  0  0  0  0  0  0  0  0  0  0  0
   20.3852   -9.8164  -20.1494 C   0  0  0  0  0  0  0  0  0  0  0  0
   20.6913  -10.5316  -18.8674 C   0  0  2  0  0  0  0  0  0  0  0  0
   20.0946  -11.8097  -18.7389 N   0  0  0  0  0  0  0  0  0  0  0  0
   20.3727   -9.7099  -17.6840 C   0  0  0  0  0  0  0  0  0  0  0  0
   19.1892   -9.6045  -17.2934 O   0  0  0  0  0  0  0  0  0  0  0  0
   23.8223  -11.0454  -14.2284 C   0  0  0  0  0  0  0  0  0  0  0  0
   22.5757  -10.5646  -14.9445 C   0  0  0  0  0  0  0  0  0  0  0  0
   22.3866   -9.0754  -14.7891 C   0  0  2  0  0  0  0  0  0  0  0  0
   22.2398   -8.6392  -13.3683 C   0  0  0  0  0  0  0  0  0  0  0  0
   21.2171   -8.6043  -15.6050 C   0  0  2  0  0  0  0  0  0  0  0  0
   21.3880   -9.0303  -16.9722 N   0  0  0  0  0  0  0  0  0  0  0  0
   21.0607   -7.1242  -15.5520 C   0  0  0  0  0  0  0  0  0  0  0  0
   20.4739   -6.5491  -14.6024 O   0  0  0  0  0  0  0  0  0  0  0  0
   21.5696   -6.3306  -16.5705 O   0  0  0  0  0  0  0  0  0  0  0  0
  2  1  1  6
  3  2  1  0
  4  2  1  0
  4  5  1  6
  6  4  1  0
  6  7  2  0
  8  9  1  0
 10  9  1  6
 10 11  1  0
 10 12  1  0
 11  6  1  0
 12 13  2  0
 12 19  1  0
 14 15  1  0
 16 17  1  1
 16 15  1  0
 18 16  1  0
 18 19  1  6
 20 22  1  0
 20 18  1  0
 21 20  2  0
M  END
$$$$
