VSI.pdb
     RDKit          3D

 22 21  0  0  1  0  0  0  0  0999 V2000
   15.6386  -13.9891  -18.3100 C   0  0  0  0  0  0  0  0  0  0  0  0
   16.6931  -14.8783  -18.9410 C   0  0  2  0  0  0  0  0  0  0  0  0
   16.3871  -16.3268  -18.7316 C   0  0  0  0  0  0  0  0  0  0  0  0
   18.0793  -14.5309  -18.4460 C   0  0  2  0  0  0  0  0  0  0  0  0
   18.2743  -14.8281  -17.0639 N   0  0  0  0  0  0  0  0  0  0  0  0
   18.2840  -13.0800  -18.6629 C   0  0  0  0  0  0  0  0  0  0  0  0
   18.1857  -12.5794  -19.8028 O   0  0  0  0  0  0  0  0  0  0  0  0
   17.9519   -8.7867  -18.6699 O   0  0  0  0  0  0  0  0  0  0  0  0
   17.6221  -10.1171  -18.4434 C   0  0  0  0  0  0  0  0  0  0  0  0
   18.7727  -10.8169  -17.7836 C   0  0  2  0  0  0  0  0  0  0  0  0
   18.5968  -12.2096  -17.5956 N   0  0  0  0  0  0  0  0  0  0  0  0
   19.1478  -10.1833  -16.5049 C   0  0  0  0  0  0  0  0  0  0  0  0
   18.4401  -10.3551  -15.4881 O   0  0  0  0  0  0  0  0  0  0  0  0
   23.5752  -11.4569  -14.7222 C   0  0  0  0  0  0  0  0  0  0  0  0
   22.1850  -10.9037  -14.9656 C   0  0  0  0  0  0  0  0  0  0  0  0
   22.1662   -9.3967  -14.8858 C   0  0  2  0  0  0  0  0  0  0  0  0
   22.6993   -8.8623  -13.5972 C   0  0  0  0  0  0  0  0  0  0  0  0
   20.7815   -8.8725  -15.1372 C   0  0  2  0  0  0  0  0  0  0  0  0
   20.3041   -9.3761  -16.4016 N   0  0  0  0  0  0  0  0  0  0  0  0
   20.7407   -7.3839  -15.1376 C   0  0  0  0  0  0  0  0  0  0  0  0
   20.9795   -6.7103  -16.1702 O   0  0  0  0  0  0  0  0  0  0  0  0
   20.4320   -6.6926  -13.9744 O   0  0  0  0  0  0  0  0  0  0  0  0
  2  1  1  1
  3  2  1  0
  4  2  1  0
  4  5  1  1
  6  4  1  0
  6  7  2  0
  8  9  1  0
 10  9  1  1
 10 11  1  0
 10 12  1  0
 11  6  1  0
 12 13  2  0
 12 19  1  0
 14 15  1  0
 16 17  1  1
 16 15  1  0
 18 16  1  0
 18 19  1  6
 20 22  1  0
 20 18  1  0
 21 20  2  0
M  END
$$$$
