VSI.pdb
     RDKit          3D

 22 21  0  0  1  0  0  0  0  0999 V2000
   26.2888  -18.6549  -15.4266 C   0  0  0  0  0  0  0  0  0  0  0  0
   27.5482  -18.7127  -14.5831 C   0  0  2  0  0  0  0  0  0  0  0  0
   28.6512  -17.9034  -15.1866 C   0  0  0  0  0  0  0  0  0  0  0  0
   27.9841  -20.1394  -14.3348 C   0  0  2  0  0  0  0  0  0  0  0  0
   28.3157  -20.8429  -15.5314 N   0  0  0  0  0  0  0  0  0  0  0  0
   26.8691  -20.8387  -13.6553 C   0  0  0  0  0  0  0  0  0  0  0  0
   26.1283  -21.6272  -14.2792 O   0  0  0  0  0  0  0  0  0  0  0  0
   25.6596  -19.8392   -9.7288 O   0  0  0  0  0  0  0  0  0  0  0  0
   25.4877  -21.1521  -10.1496 C   0  0  0  0  0  0  0  0  0  0  0  0
   25.4645  -21.2025  -11.6482 C   0  0  2  0  0  0  0  0  0  0  0  0
   26.6004  -20.6430  -12.2827 N   0  0  0  0  0  0  0  0  0  0  0  0
   24.2358  -20.6043  -12.2045 C   0  0  0  0  0  0  0  0  0  0  0  0
   24.1585  -19.3666  -12.3671 O   0  0  0  0  0  0  0  0  0  0  0  0
   22.6512  -21.4676  -16.7577 C   0  0  0  0  0  0  0  0  0  0  0  0
   22.7943  -20.8872  -15.3646 C   0  0  0  0  0  0  0  0  0  0  0  0
   21.6650  -21.3238  -14.4635 C   0  0  2  0  0  0  0  0  0  0  0  0
   20.3189  -20.8916  -14.9445 C   0  0  0  0  0  0  0  0  0  0  0  0
   21.8971  -20.8470  -13.0585 C   0  0  2  0  0  0  0  0  0  0  0  0
   23.1294  -21.4087  -12.5625 N   0  0  0  0  0  0  0  0  0  0  0  0
   20.7733  -21.2139  -12.1528 C   0  0  0  0  0  0  0  0  0  0  0  0
   19.9191  -20.3742  -11.7758 O   0  0  0  0  0  0  0  0  0  0  0  0
   20.6412  -22.5175  -11.6953 O   0  0  0  0  0  0  0  0  0  0  0  0
  2  1  1  6
  3  2  1  0
  4  2  1  0
  4  5  1  6
  6  4  1  0
  6  7  2  0
  8  9  1  0
 10  9  1  1
 10 11  1  0
 10 12  1  0
 11  6  1  0
 12 13  2  0
 12 19  1  0
 14 15  1  0
 16 17  1  6
 16 15  1  0
 18 16  1  0
 18 19  1  1
 20 22  1  0
 20 18  1  0
 21 20  2  0
M  END
$$$$
