DHL.pdb
     RDKit          3D

 27 27  0  0  1  0  0  0  0  0999 V2000
   14.4726  -18.9820   21.2865 N   0  0  0  0  0  0  0  0  0  0  0  0
   14.1467  -17.5757   21.2279 C   0  0  1  0  0  0  0  0  0  0  0  0
   13.8620  -17.2093   19.7666 C   0  0  0  0  0  0  0  0  0  0  0  0
   15.1350  -17.2976   18.9738 C   0  0  0  0  0  0  0  0  0  0  0  0
   15.3876  -18.2862   18.2257 O   0  0  0  0  0  0  0  0  0  0  0  0
   12.8827  -17.3563   21.9644 C   0  0  0  0  0  0  0  0  0  0  0  0
   12.3302  -16.2375   21.9035 O   0  0  0  0  0  0  0  0  0  0  0  0
   16.0878  -16.2959   19.0304 O   0  0  0  0  0  0  0  0  0  0  0  0
   12.2566  -18.3682   22.7484 N   0  0  0  0  0  0  0  0  0  0  0  0
   11.0089  -18.1592   23.4529 C   0  0  1  0  0  0  0  0  0  0  0  0
   10.2435  -19.4495   23.6143 C   0  0  0  0  0  0  0  0  0  0  0  0
    9.3477  -19.7154   22.4663 C   0  0  0  0  0  0  0  0  0  0  0  0
    9.1378  -18.9494   21.3237 C   0  0  0  0  0  0  0  0  0  0  0  0
    8.2393  -19.5578   20.5334 N   0  0  0  0  0  0  0  0  0  0  0  0
    7.8672  -20.6861   21.1306 C   0  0  0  0  0  0  0  0  0  0  0  0
    8.5434  -20.7818   22.3092 N   0  0  0  0  0  0  0  0  0  0  0  0
   11.2048  -17.4563   24.7362 C   0  0  0  0  0  0  0  0  0  0  0  0
   12.2919  -17.5846   25.3607 O   0  0  0  0  0  0  0  0  0  0  0  0
   10.6040  -14.4321   28.9560 C   0  0  0  0  0  0  0  0  0  0  0  0
    9.7456  -13.8664   27.8390 C   0  0  2  0  0  0  0  0  0  0  0  0
    8.5243  -13.1798   28.3329 C   0  0  0  0  0  0  0  0  0  0  0  0
    9.6510  -14.7038   26.6335 C   0  0  0  0  0  0  0  0  0  0  0  0
   10.4994  -15.9150   26.5584 C   0  0  2  0  0  0  0  0  0  0  0  0
   10.2056  -16.6273   25.3088 N   0  0  0  0  0  0  0  0  0  0  0  0
   10.2617  -16.8535   27.6453 C   0  0  0  0  0  0  0  0  0  0  0  0
   11.1246  -17.0914   28.7061 O   0  0  0  0  0  0  0  0  0  0  0  0
    9.1801  -17.5384   27.6556 O   0  0  0  0  0  0  0  0  0  0  0  0
  2  1  1  6
  2  3  1  0
  4  3  1  0
  5  4  2  0
  6  2  1  0
  7  6  2  0
  8  4  1  0
  9  6  1  0
 10  9  1  0
 11 12  1  0
 10 11  1  1
 12 13  2  0
 13 14  1  0
 15 14  1  0
 16 12  1  0
 16 15  2  0
 17 18  2  0
 17 10  1  0
 20 19  1  1
 21 20  1  0
 23 22  1  1
 22 20  1  0
 23 24  1  0
 24 17  1  0
 25 23  1  0
 26 25  1  0
 27 25  2  0
M  END
$$$$
