DHL.pdb
     RDKit          3D

 27 27  0  0  1  0  0  0  0  0999 V2000
    9.9268  -15.1610   16.3666 N   0  0  0  0  0  0  0  0  0  0  0  0
   10.4741  -16.4944   16.4648 C   0  0  1  0  0  0  0  0  0  0  0  0
   11.1985  -16.8140   15.1519 C   0  0  0  0  0  0  0  0  0  0  0  0
   11.5347  -18.2777   15.1120 C   0  0  0  0  0  0  0  0  0  0  0  0
   11.0280  -19.1009   15.9283 O   0  0  0  0  0  0  0  0  0  0  0  0
   11.5093  -16.4995   17.5215 C   0  0  0  0  0  0  0  0  0  0  0  0
   12.0802  -17.5732   17.8079 O   0  0  0  0  0  0  0  0  0  0  0  0
   12.4170  -18.7870   14.1758 O   0  0  0  0  0  0  0  0  0  0  0  0
   11.8924  -15.3283   18.2373 N   0  0  0  0  0  0  0  0  0  0  0  0
   12.8287  -15.3513   19.3415 C   0  0  1  0  0  0  0  0  0  0  0  0
   13.9931  -14.4233   19.0972 C   0  0  0  0  0  0  0  0  0  0  0  0
   14.8858  -14.9168   18.0246 C   0  0  0  0  0  0  0  0  0  0  0  0
   15.2491  -14.2964   16.8331 C   0  0  0  0  0  0  0  0  0  0  0  0
   16.0804  -15.0954   16.1456 N   0  0  0  0  0  0  0  0  0  0  0  0
   16.2614  -16.2050   16.8556 C   0  0  0  0  0  0  0  0  0  0  0  0
   15.5327  -16.0957   18.0012 N   0  0  0  0  0  0  0  0  0  0  0  0
   12.1683  -15.0972   20.6372 C   0  0  0  0  0  0  0  0  0  0  0  0
   12.3014  -13.9768   21.1986 O   0  0  0  0  0  0  0  0  0  0  0  0
    9.0506  -13.2831   22.3579 C   0  0  0  0  0  0  0  0  0  0  0  0
    8.5777  -14.6238   21.8256 C   0  0  2  0  0  0  0  0  0  0  0  0
    7.1088  -14.6807   21.6111 C   0  0  0  0  0  0  0  0  0  0  0  0
    9.2590  -15.7994   22.3889 C   0  0  0  0  0  0  0  0  0  0  0  0
   10.7280  -15.7358   22.5636 C   0  0  2  0  0  0  0  0  0  0  0  0
   11.3756  -16.0760   21.2908 N   0  0  0  0  0  0  0  0  0  0  0  0
   11.2312  -16.6728   23.5572 C   0  0  0  0  0  0  0  0  0  0  0  0
   11.3454  -16.4194   24.9171 O   0  0  0  0  0  0  0  0  0  0  0  0
   11.6148  -17.8356   23.1833 O   0  0  0  0  0  0  0  0  0  0  0  0
  2  1  1  6
  2  3  1  0
  4  3  1  0
  5  4  2  0
  6  2  1  0
  7  6  2  0
  8  4  1  0
  9  6  1  0
 10  9  1  0
 11 12  1  0
 10 11  1  6
 12 13  2  0
 13 14  1  0
 15 14  1  0
 16 12  1  0
 16 15  2  0
 17 18  2  0
 17 10  1  0
 20 19  1  1
 21 20  1  0
 23 22  1  6
 22 20  1  0
 23 24  1  0
 24 17  1  0
 25 23  1  0
 26 25  1  0
 27 25  2  0
M  END
$$$$
