DHL.pdb
     RDKit          3D

 27 27  0  0  1  0  0  0  0  0999 V2000
    9.4222  -17.3236   20.0905 N   0  0  0  0  0  0  0  0  0  0  0  0
    8.3089  -16.4040   20.1370 C   0  0  1  0  0  0  0  0  0  0  0  0
    7.1836  -16.9679   19.2615 C   0  0  0  0  0  0  0  0  0  0  0  0
    7.7583  -17.4461   17.9585 C   0  0  0  0  0  0  0  0  0  0  0  0
    8.6553  -18.3371   17.9121 O   0  0  0  0  0  0  0  0  0  0  0  0
    7.7834  -16.3737   21.5194 C   0  0  0  0  0  0  0  0  0  0  0  0
    6.6667  -15.8562   21.7339 O   0  0  0  0  0  0  0  0  0  0  0  0
    7.3273  -16.9283   16.7500 O   0  0  0  0  0  0  0  0  0  0  0  0
    8.4946  -16.9111   22.6312 N   0  0  0  0  0  0  0  0  0  0  0  0
    7.9673  -16.9069   23.9798 C   0  0  1  0  0  0  0  0  0  0  0  0
    8.0281  -18.2810   24.6003 C   0  0  0  0  0  0  0  0  0  0  0  0
    7.1807  -19.2577   23.8799 C   0  0  0  0  0  0  0  0  0  0  0  0
    6.3826  -19.0637   22.7565 C   0  0  0  0  0  0  0  0  0  0  0  0
    5.7801  -20.2176   22.4284 N   0  0  0  0  0  0  0  0  0  0  0  0
    6.1650  -21.1427   23.3026 C   0  0  0  0  0  0  0  0  0  0  0  0
    7.0190  -20.5569   24.1874 N   0  0  0  0  0  0  0  0  0  0  0  0
    8.6063  -15.8787   24.8246 C   0  0  0  0  0  0  0  0  0  0  0  0
    9.8418  -15.6564   24.7133 O   0  0  0  0  0  0  0  0  0  0  0  0
    7.6675  -11.6474   25.2024 C   0  0  0  0  0  0  0  0  0  0  0  0
    6.8594  -12.3941   26.2483 C   0  0  2  0  0  0  0  0  0  0  0  0
    5.7021  -11.6140   26.7573 C   0  0  0  0  0  0  0  0  0  0  0  0
    7.6473  -13.1960   27.1968 C   0  0  0  0  0  0  0  0  0  0  0  0
    8.6032  -14.1843   26.6473 C   0  0  2  0  0  0  0  0  0  0  0  0
    7.8784  -15.1153   25.7737 N   0  0  0  0  0  0  0  0  0  0  0  0
    9.2548  -14.9870   27.6718 C   0  0  0  0  0  0  0  0  0  0  0  0
   10.2647  -14.5479   28.5167 O   0  0  0  0  0  0  0  0  0  0  0  0
    8.8974  -16.2057   27.8336 O   0  0  0  0  0  0  0  0  0  0  0  0
  2  1  1  1
  2  3  1  0
  4  3  1  0
  5  4  2  0
  6  2  1  0
  7  6  2  0
  8  4  1  0
  9  6  1  0
 10  9  1  0
 11 12  1  0
 10 11  1  1
 12 13  2  0
 13 14  1  0
 15 14  1  0
 16 12  1  0
 16 15  2  0
 17 18  2  0
 17 10  1  0
 20 19  1  1
 21 20  1  0
 23 22  1  1
 22 20  1  0
 23 24  1  0
 24 17  1  0
 25 23  1  0
 26 25  1  0
 27 25  2  0
M  END
$$$$
