DHL.pdb
     RDKit          3D

 27 27  0  0  1  0  0  0  0  0999 V2000
   10.2049  -18.0139   13.7416 N   0  0  0  0  0  0  0  0  0  0  0  0
   11.2428  -17.8857   14.7384 C   0  0  1  0  0  0  0  0  0  0  0  0
   12.0279  -16.6003   14.4516 C   0  0  0  0  0  0  0  0  0  0  0  0
   13.2212  -16.5320   15.3617 C   0  0  0  0  0  0  0  0  0  0  0  0
   13.5307  -17.4893   16.1287 O   0  0  0  0  0  0  0  0  0  0  0  0
   10.6037  -17.6955   16.0588 C   0  0  0  0  0  0  0  0  0  0  0  0
    9.6346  -16.9133   16.1579 O   0  0  0  0  0  0  0  0  0  0  0  0
   14.0341  -15.4130   15.3978 O   0  0  0  0  0  0  0  0  0  0  0  0
   11.0426  -18.3669   17.2366 N   0  0  0  0  0  0  0  0  0  0  0  0
   10.2939  -18.3538   18.4758 C   0  0  1  0  0  0  0  0  0  0  0  0
   10.5060  -19.6241   19.2622 C   0  0  0  0  0  0  0  0  0  0  0  0
    9.6365  -19.6930   20.4581 C   0  0  0  0  0  0  0  0  0  0  0  0
    9.9974  -19.7587   21.8005 C   0  0  0  0  0  0  0  0  0  0  0  0
    8.8925  -19.8077   22.5612 N   0  0  0  0  0  0  0  0  0  0  0  0
    7.8375  -19.7756   21.7524 C   0  0  0  0  0  0  0  0  0  0  0  0
    8.2917  -19.7056   20.4701 N   0  0  0  0  0  0  0  0  0  0  0  0
   10.5640  -17.1437   19.2771 C   0  0  0  0  0  0  0  0  0  0  0  0
   11.7196  -16.6411   19.2818 O   0  0  0  0  0  0  0  0  0  0  0  0
    9.2789  -12.8690   19.4334 C   0  0  0  0  0  0  0  0  0  0  0  0
    8.2410  -13.7292   20.1316 C   0  0  2  0  0  0  0  0  0  0  0  0
    6.9374  -13.0398   20.3110 C   0  0  0  0  0  0  0  0  0  0  0  0
    8.7542  -14.5725   21.2219 C   0  0  0  0  0  0  0  0  0  0  0  0
    9.9444  -15.4112   20.9527 C   0  0  2  0  0  0  0  0  0  0  0  0
    9.5622  -16.5093   20.0566 N   0  0  0  0  0  0  0  0  0  0  0  0
   10.5039  -16.0192   22.1510 C   0  0  0  0  0  0  0  0  0  0  0  0
   11.3554  -15.3913   23.0495 O   0  0  0  0  0  0  0  0  0  0  0  0
   10.2136  -17.2345   22.4302 O   0  0  0  0  0  0  0  0  0  0  0  0
  2  1  1  6
  2  3  1  0
  4  3  1  0
  5  4  2  0
  6  2  1  0
  7  6  2  0
  8  4  1  0
  9  6  1  0
 10  9  1  0
 11 12  1  0
 10 11  1  1
 12 13  2  0
 13 14  1  0
 15 14  1  0
 16 12  1  0
 16 15  2  0
 17 18  2  0
 17 10  1  0
 20 19  1  1
 21 20  1  0
 23 22  1  1
 22 20  1  0
 23 24  1  0
 24 17  1  0
 25 23  1  0
 26 25  1  0
 27 25  2  0
M  END
$$$$
