DHL.pdb
     RDKit          3D

 27 27  0  0  1  0  0  0  0  0999 V2000
   11.7163  -17.7433   16.2882 N   0  0  0  0  0  0  0  0  0  0  0  0
   10.9413  -18.5410   17.2105 C   0  0  1  0  0  0  0  0  0  0  0  0
   11.7636  -19.7809   17.5811 C   0  0  0  0  0  0  0  0  0  0  0  0
   11.2241  -20.9745   16.8455 C   0  0  0  0  0  0  0  0  0  0  0  0
   10.5328  -20.8527   15.7929 O   0  0  0  0  0  0  0  0  0  0  0  0
   10.7642  -17.7716   18.4614 C   0  0  0  0  0  0  0  0  0  0  0  0
   11.7548  -17.2089   18.9743 O   0  0  0  0  0  0  0  0  0  0  0  0
   11.4630  -22.2621   17.2920 O   0  0  0  0  0  0  0  0  0  0  0  0
    9.5067  -17.6384   19.1183 N   0  0  0  0  0  0  0  0  0  0  0  0
    9.3163  -16.8173   20.2956 C   0  0  1  0  0  0  0  0  0  0  0  0
    7.9672  -16.1417   20.2849 C   0  0  0  0  0  0  0  0  0  0  0  0
    7.9490  -14.9430   19.4165 C   0  0  0  0  0  0  0  0  0  0  0  0
    8.9799  -14.3945   18.6596 C   0  0  0  0  0  0  0  0  0  0  0  0
    8.5345  -13.3029   18.0177 N   0  0  0  0  0  0  0  0  0  0  0  0
    7.2549  -13.1342   18.3375 C   0  0  0  0  0  0  0  0  0  0  0  0
    6.8984  -14.1345   19.1905 N   0  0  0  0  0  0  0  0  0  0  0  0
    9.5607  -17.5674   21.5434 C   0  0  0  0  0  0  0  0  0  0  0  0
    9.0283  -18.6976   21.7088 O   0  0  0  0  0  0  0  0  0  0  0  0
   11.8012  -20.9210   24.1997 C   0  0  0  0  0  0  0  0  0  0  0  0
   12.6605  -19.9599   23.3982 C   0  0  2  0  0  0  0  0  0  0  0  0
   13.9387  -19.6184   24.0738 C   0  0  0  0  0  0  0  0  0  0  0  0
   11.9258  -18.8997   22.6913 C   0  0  0  0  0  0  0  0  0  0  0  0
   11.0505  -18.0093   23.4872 C   0  0  2  0  0  0  0  0  0  0  0  0
   10.3832  -17.0636   22.5841 N   0  0  0  0  0  0  0  0  0  0  0  0
   11.7754  -17.2159   24.4689 C   0  0  0  0  0  0  0  0  0  0  0  0
   11.8869  -17.5135   25.8200 O   0  0  0  0  0  0  0  0  0  0  0  0
   12.3681  -16.1449   24.0937 O   0  0  0  0  0  0  0  0  0  0  0  0
  2  1  1  6
  2  3  1  0
  4  3  1  0
  5  4  2  0
  6  2  1  0
  7  6  2  0
  8  4  1  0
  9  6  1  0
 10  9  1  0
 11 12  1  0
 10 11  1  1
 12 13  2  0
 13 14  1  0
 15 14  1  0
 16 12  1  0
 16 15  2  0
 17 18  2  0
 17 10  1  0
 20 19  1  1
 21 20  1  0
 23 22  1  6
 22 20  1  0
 23 24  1  0
 24 17  1  0
 25 23  1  0
 26 25  1  0
 27 25  2  0
M  END
$$$$
