GVC.pdb
     RDKit          3D

 18 17  0  0  1  0  0  0  0  0999 V2000
   15.7911  -13.8722  -15.6881 N   0  0  0  0  0  0  0  0  0  0  0  0
   15.5742  -12.4520  -15.8654 C   0  0  0  0  0  0  0  0  0  0  0  0
   16.8515  -11.8022  -16.2314 C   0  0  0  0  0  0  0  0  0  0  0  0
   17.8985  -12.4850  -16.2172 O   0  0  0  0  0  0  0  0  0  0  0  0
   19.1369   -8.3423  -18.7555 C   0  0  0  0  0  0  0  0  0  0  0  0
   18.0751   -9.2936  -18.3430 C   0  0  2  0  0  0  0  0  0  0  0  0
   16.7196   -8.7069  -18.6469 C   0  0  0  0  0  0  0  0  0  0  0  0
   18.2218   -9.7831  -16.9460 C   0  0  2  0  0  0  0  0  0  0  0  0
   16.9362  -10.4294  -16.5996 N   0  0  0  0  0  0  0  0  0  0  0  0
   18.5808   -8.7951  -15.9355 C   0  0  0  0  0  0  0  0  0  0  0  0
   17.7408   -7.9398  -15.4759 O   0  0  0  0  0  0  0  0  0  0  0  0
   19.8710   -8.6943  -15.3759 N   0  0  0  0  0  0  0  0  0  0  0  0
   20.1942   -7.6810  -14.3563 C   0  0  1  0  0  0  0  0  0  0  0  0
   20.9444   -8.4215  -13.2679 C   0  0  0  0  0  0  0  0  0  0  0  0
   19.7289   -8.9538  -12.0381 S   0  0  0  0  0  0  0  0  0  0  0  0
   21.0325   -6.6119  -14.9612 C   0  0  0  0  0  0  0  0  0  0  0  0
   21.0323   -5.3576  -14.3973 O   0  0  0  0  0  0  0  0  0  0  0  0
   21.7406   -6.8201  -15.9716 O   0  0  0  0  0  0  0  0  0  0  0  0
  2  3  1  0
  2  1  1  0
  3  4  2  0
  6  5  1  1
  6  7  1  0
  6  8  1  0
  8 10  1  0
  8  9  1  1
  9  3  1  0
 10 11  2  0
 10 12  1  0
 12 13  1  0
 13 16  1  0
 13 14  1  1
 14 15  1  0
 16 18  2  0
 16 17  1  0
M  END
$$$$
