GVC.pdb
     RDKit          3D

 18 17  0  0  1  0  0  0  0  0999 V2000
   22.4647  -20.0685  -15.3438 N   0  0  0  0  0  0  0  0  0  0  0  0
   23.2556  -19.2773  -16.2624 C   0  0  0  0  0  0  0  0  0  0  0  0
   23.2224  -17.8592  -15.8432 C   0  0  0  0  0  0  0  0  0  0  0  0
   22.2105  -17.4331  -15.2456 O   0  0  0  0  0  0  0  0  0  0  0  0
   26.3151  -14.2460  -16.1868 C   0  0  0  0  0  0  0  0  0  0  0  0
   25.6613  -15.2057  -15.2626 C   0  0  2  0  0  0  0  0  0  0  0  0
   26.5527  -16.4049  -15.0594 C   0  0  0  0  0  0  0  0  0  0  0  0
   24.2659  -15.5489  -15.6471 C   0  0  2  0  0  0  0  0  0  0  0  0
   24.2973  -16.9597  -16.0933 N   0  0  0  0  0  0  0  0  0  0  0  0
   23.6363  -14.7107  -16.6606 C   0  0  0  0  0  0  0  0  0  0  0  0
   23.9335  -14.7920  -17.9069 O   0  0  0  0  0  0  0  0  0  0  0  0
   22.6510  -13.7466  -16.3645 N   0  0  0  0  0  0  0  0  0  0  0  0
   22.0717  -12.8867  -17.4113 C   0  0  1  0  0  0  0  0  0  0  0  0
   20.6709  -12.5550  -16.9386 C   0  0  0  0  0  0  0  0  0  0  0  0
   19.7554  -14.1113  -16.8233 S   0  0  0  0  0  0  0  0  0  0  0  0
   22.8970  -11.6591  -17.5641 C   0  0  0  0  0  0  0  0  0  0  0  0
   22.5653  -10.7424  -18.5342 O   0  0  0  0  0  0  0  0  0  0  0  0
   23.8880  -11.4343  -16.8339 O   0  0  0  0  0  0  0  0  0  0  0  0
  2  3  1  0
  2  1  1  0
  3  4  2  0
  6  5  1  6
  6  7  1  0
  6  8  1  0
  8 10  1  0
  8  9  1  6
  9  3  1  0
 10 11  2  0
 10 12  1  0
 12 13  1  0
 13 16  1  0
 13 14  1  1
 14 15  1  0
 16 18  2  0
 16 17  1  0
M  END
$$$$
