GVC.pdb
     RDKit          3D

 18 17  0  0  1  0  0  0  0  0999 V2000
   28.4668  -22.0334  -15.5546 N   0  0  0  0  0  0  0  0  0  0  0  0
   27.8637  -20.9301  -14.8372 C   0  0  0  0  0  0  0  0  0  0  0  0
   26.6378  -21.3994  -14.1554 C   0  0  0  0  0  0  0  0  0  0  0  0
   26.0425  -22.3997  -14.6112 O   0  0  0  0  0  0  0  0  0  0  0  0
   24.9554  -19.6639  -10.4015 C   0  0  0  0  0  0  0  0  0  0  0  0
   25.0811  -21.0617  -10.8840 C   0  0  2  0  0  0  0  0  0  0  0  0
   26.3801  -21.6534  -10.3979 C   0  0  0  0  0  0  0  0  0  0  0  0
   24.8600  -21.2105  -12.3475 C   0  0  2  0  0  0  0  0  0  0  0  0
   26.1085  -20.7571  -13.0003 N   0  0  0  0  0  0  0  0  0  0  0  0
   23.7104  -20.5156  -12.9145 C   0  0  0  0  0  0  0  0  0  0  0  0
   23.6361  -19.2351  -12.9721 O   0  0  0  0  0  0  0  0  0  0  0  0
   22.5889  -21.1828  -13.4483 N   0  0  0  0  0  0  0  0  0  0  0  0
   21.4186  -20.4444  -13.9542 C   0  0  1  0  0  0  0  0  0  0  0  0
   21.3594  -20.7405  -15.4390 C   0  0  0  0  0  0  0  0  0  0  0  0
   21.4584  -22.5361  -15.6376 S   0  0  0  0  0  0  0  0  0  0  0  0
   20.1911  -20.9142  -13.2585 C   0  0  0  0  0  0  0  0  0  0  0  0
   18.9849  -20.3209  -13.5489 O   0  0  0  0  0  0  0  0  0  0  0  0
   20.2229  -21.8367  -12.4137 O   0  0  0  0  0  0  0  0  0  0  0  0
  2  3  1  0
  2  1  1  0
  3  4  2  0
  6  5  1  6
  6  7  1  0
  6  8  1  0
  8 10  1  0
  8  9  1  6
  9  3  1  0
 10 11  2  0
 10 12  1  0
 12 13  1  0
 13 16  1  0
 13 14  1  6
 14 15  1  0
 16 18  2  0
 16 17  1  0
M  END
$$$$
