GVC.pdb
     RDKit          3D

 18 17  0  0  1  0  0  0  0  0999 V2000
   35.2588  -25.2188  -14.3073 N   0  0  0  0  0  0  0  0  0  0  0  0
   35.2678  -26.5564  -13.7542 C   0  0  0  0  0  0  0  0  0  0  0  0
   36.0227  -27.4550  -14.6546 C   0  0  0  0  0  0  0  0  0  0  0  0
   36.6017  -26.9627  -15.6471 O   0  0  0  0  0  0  0  0  0  0  0  0
   38.0939  -31.9340  -15.1887 C   0  0  0  0  0  0  0  0  0  0  0  0
   37.3794  -30.8665  -14.4454 C   0  0  2  0  0  0  0  0  0  0  0  0
   36.2842  -31.4754  -13.6066 C   0  0  0  0  0  0  0  0  0  0  0  0
   36.9261  -29.7408  -15.3056 C   0  0  2  0  0  0  0  0  0  0  0  0
   36.1162  -28.8588  -14.4359 N   0  0  0  0  0  0  0  0  0  0  0  0
   36.1802  -30.0895  -16.5090 C   0  0  0  0  0  0  0  0  0  0  0  0
   34.8998  -30.0202  -16.5729 O   0  0  0  0  0  0  0  0  0  0  0  0
   36.7941  -30.5274  -17.7003 N   0  0  0  0  0  0  0  0  0  0  0  0
   36.0372  -30.6559  -18.9579 C   0  0  1  0  0  0  0  0  0  0  0  0
   35.6258  -29.2466  -19.3328 C   0  0  0  0  0  0  0  0  0  0  0  0
   34.7478  -29.3406  -20.9120 S   0  0  0  0  0  0  0  0  0  0  0  0
   36.9028  -31.2639  -20.0032 C   0  0  0  0  0  0  0  0  0  0  0  0
   36.3232  -31.9900  -21.0172 O   0  0  0  0  0  0  0  0  0  0  0  0
   38.1473  -31.1343  -19.9877 O   0  0  0  0  0  0  0  0  0  0  0  0
  2  3  1  0
  2  1  1  0
  3  4  2  0
  6  5  1  6
  6  7  1  0
  6  8  1  0
  8 10  1  0
  8  9  1  1
  9  3  1  0
 10 11  2  0
 10 12  1  0
 12 13  1  0
 13 16  1  0
 13 14  1  6
 14 15  1  0
 16 18  2  0
 16 17  1  0
M  END
$$$$
