GVC.pdb
     RDKit          3D

 18 17  0  0  1  0  0  0  0  0999 V2000
   12.3449  -11.6796   -9.9100 N   0  0  0  0  0  0  0  0  0  0  0  0
   13.5488  -11.1262   -9.3270 C   0  0  0  0  0  0  0  0  0  0  0  0
   13.8104   -9.7935   -9.9130 C   0  0  0  0  0  0  0  0  0  0  0  0
   13.0895   -9.3998  -10.8554 O   0  0  0  0  0  0  0  0  0  0  0  0
   15.3157   -5.2494   -9.1801 C   0  0  0  0  0  0  0  0  0  0  0  0
   14.9325   -6.6455   -8.8537 C   0  0  2  0  0  0  0  0  0  0  0  0
   15.6524   -7.0930   -7.6067 C   0  0  0  0  0  0  0  0  0  0  0  0
   15.0675   -7.5851   -9.9990 C   0  0  2  0  0  0  0  0  0  0  0  0
   14.8508   -8.9409   -9.4465 N   0  0  0  0  0  0  0  0  0  0  0  0
   16.3180   -7.5368  -10.7475 C   0  0  0  0  0  0  0  0  0  0  0  0
   17.4621   -7.7196  -10.1944 O   0  0  0  0  0  0  0  0  0  0  0  0
   16.3807   -7.2899  -12.1342 N   0  0  0  0  0  0  0  0  0  0  0  0
   17.6680   -7.1883  -12.8438 C   0  0  1  0  0  0  0  0  0  0  0  0
   17.6122   -8.2303  -13.9424 C   0  0  0  0  0  0  0  0  0  0  0  0
   17.6456   -9.8561  -13.1492 S   0  0  0  0  0  0  0  0  0  0  0  0
   17.8248   -5.8193  -13.4028 C   0  0  0  0  0  0  0  0  0  0  0  0
   19.0526   -5.4246  -13.8803 O   0  0  0  0  0  0  0  0  0  0  0  0
   16.8695   -5.0125  -13.4520 O   0  0  0  0  0  0  0  0  0  0  0  0
  2  3  1  0
  2  1  1  0
  3  4  2  0
  6  5  1  6
  6  7  1  0
  6  8  1  0
  8 10  1  0
  8  9  1  1
  9  3  1  0
 10 11  2  0
 10 12  1  0
 12 13  1  0
 13 16  1  0
 13 14  1  6
 14 15  1  0
 16 18  2  0
 16 17  1  0
M  END
$$$$
