GVC.pdb
     RDKit          3D

 18 17  0  0  1  0  0  0  0  0999 V2000
   28.9242  -18.8015  -15.6656 N   0  0  0  0  0  0  0  0  0  0  0  0
   27.6266  -18.5063  -15.0961 C   0  0  0  0  0  0  0  0  0  0  0  0
   27.0720  -19.7301  -14.4775 C   0  0  0  0  0  0  0  0  0  0  0  0
   27.0680  -20.7896  -15.1409 O   0  0  0  0  0  0  0  0  0  0  0  0
   25.6814  -22.0653  -10.3742 C   0  0  0  0  0  0  0  0  0  0  0  0
   25.9897  -20.8134  -11.1091 C   0  0  2  0  0  0  0  0  0  0  0  0
   25.1812  -19.6755  -10.5387 C   0  0  0  0  0  0  0  0  0  0  0  0
   25.8848  -20.9472  -12.5869 C   0  0  2  0  0  0  0  0  0  0  0  0
   26.5422  -19.7496  -13.1561 N   0  0  0  0  0  0  0  0  0  0  0  0
   24.5452  -21.1017  -13.1415 C   0  0  0  0  0  0  0  0  0  0  0  0
   23.8215  -20.1000  -13.4897 O   0  0  0  0  0  0  0  0  0  0  0  0
   23.9320  -22.3548  -13.3456 N   0  0  0  0  0  0  0  0  0  0  0  0
   22.5550  -22.4672  -13.8578 C   0  0  1  0  0  0  0  0  0  0  0  0
   22.3353  -23.9436  -14.1181 C   0  0  0  0  0  0  0  0  0  0  0  0
   20.6056  -24.1565  -14.6040 S   0  0  0  0  0  0  0  0  0  0  0  0
   21.5996  -21.9476  -12.8437 C   0  0  0  0  0  0  0  0  0  0  0  0
   21.8222  -22.2123  -11.5126 O   0  0  0  0  0  0  0  0  0  0  0  0
   20.5954  -21.2742  -13.1661 O   0  0  0  0  0  0  0  0  0  0  0  0
  2  3  1  0
  2  1  1  0
  3  4  2  0
  6  5  1  1
  6  7  1  0
  6  8  1  0
  8 10  1  0
  8  9  1  6
  9  3  1  0
 10 11  2  0
 10 12  1  0
 12 13  1  0
 13 16  1  0
 13 14  1  1
 14 15  1  0
 16 18  2  0
 16 17  1  0
M  END
$$$$
