GVC.pdb
     RDKit          3D

 18 17  0  0  1  0  0  0  0  0999 V2000
   13.4916  -10.1386   -9.8429 N   0  0  0  0  0  0  0  0  0  0  0  0
   14.3003   -8.9503  -10.0143 C   0  0  0  0  0  0  0  0  0  0  0  0
   15.1780   -9.1196  -11.1928 C   0  0  0  0  0  0  0  0  0  0  0  0
   15.4215  -10.2764  -11.5992 O   0  0  0  0  0  0  0  0  0  0  0  0
   15.7024   -6.1404  -14.1479 C   0  0  0  0  0  0  0  0  0  0  0  0
   15.8508   -7.6153  -14.2192 C   0  0  2  0  0  0  0  0  0  0  0  0
   14.5027   -8.2527  -14.4435 C   0  0  0  0  0  0  0  0  0  0  0  0
   16.6105   -8.1948  -13.0791 C   0  0  2  0  0  0  0  0  0  0  0  0
   15.7568   -8.0171  -11.8832 N   0  0  0  0  0  0  0  0  0  0  0  0
   17.9438   -7.6577  -12.8343 C   0  0  0  0  0  0  0  0  0  0  0  0
   18.1455   -6.6026  -12.1311 O   0  0  0  0  0  0  0  0  0  0  0  0
   19.1203   -8.2464  -13.3414 N   0  0  0  0  0  0  0  0  0  0  0  0
   20.4422   -7.6264  -13.1434 C   0  0  1  0  0  0  0  0  0  0  0  0
   21.4173   -8.7781  -13.0076 C   0  0  0  0  0  0  0  0  0  0  0  0
   21.3396   -9.7373  -14.5398 S   0  0  0  0  0  0  0  0  0  0  0  0
   20.7739   -6.7705  -14.3134 C   0  0  0  0  0  0  0  0  0  0  0  0
   21.8298   -5.8936  -14.2271 O   0  0  0  0  0  0  0  0  0  0  0  0
   20.1187   -6.8244  -15.3781 O   0  0  0  0  0  0  0  0  0  0  0  0
  2  3  1  0
  2  1  1  0
  3  4  2  0
  6  5  1  1
  6  7  1  0
  6  8  1  0
  8 10  1  0
  8  9  1  1
  9  3  1  0
 10 11  2  0
 10 12  1  0
 12 13  1  0
 13 16  1  0
 13 14  1  6
 14 15  1  0
 16 18  2  0
 16 17  1  0
M  END
$$$$
