GVC.pdb
     RDKit          3D

 18 17  0  0  1  0  0  0  0  0999 V2000
   29.0780  -21.6819  -16.2620 N   0  0  0  0  0  0  0  0  0  0  0  0
   28.3366  -20.6761  -15.5310 C   0  0  0  0  0  0  0  0  0  0  0  0
   27.3203  -21.3355  -14.6822 C   0  0  0  0  0  0  0  0  0  0  0  0
   26.9031  -22.4664  -15.0136 O   0  0  0  0  0  0  0  0  0  0  0  0
   25.2473  -21.6437  -10.2306 C   0  0  0  0  0  0  0  0  0  0  0  0
   26.0749  -20.9588  -11.2546 C   0  0  2  0  0  0  0  0  0  0  0  0
   25.9820  -19.4652  -11.0688 C   0  0  0  0  0  0  0  0  0  0  0  0
   25.8015  -21.4125  -12.6446 C   0  0  2  0  0  0  0  0  0  0  0  0
   26.7981  -20.7334  -13.5025 N   0  0  0  0  0  0  0  0  0  0  0  0
   24.4551  -21.1896  -13.1580 C   0  0  0  0  0  0  0  0  0  0  0  0
   24.0680  -20.0528  -13.6122 O   0  0  0  0  0  0  0  0  0  0  0  0
   23.4680  -22.1953  -13.2037 N   0  0  0  0  0  0  0  0  0  0  0  0
   22.1037  -21.9179  -13.6860 C   0  0  1  0  0  0  0  0  0  0  0  0
   21.4701  -23.2739  -13.9216 C   0  0  0  0  0  0  0  0  0  0  0  0
   19.7557  -22.9907  -14.4256 S   0  0  0  0  0  0  0  0  0  0  0  0
   21.3579  -21.1423  -12.6595 C   0  0  0  0  0  0  0  0  0  0  0  0
   20.5516  -20.1017  -13.0575 O   0  0  0  0  0  0  0  0  0  0  0  0
   21.4422  -21.4090  -11.4398 O   0  0  0  0  0  0  0  0  0  0  0  0
  2  3  1  0
  2  1  1  0
  3  4  2  0
  6  5  1  1
  6  7  1  0
  6  8  1  0
  8 10  1  0
  8  9  1  6
  9  3  1  0
 10 11  2  0
 10 12  1  0
 12 13  1  0
 13 16  1  0
 13 14  1  1
 14 15  1  0
 16 18  2  0
 16 17  1  0
M  END
$$$$
