GVC.pdb
     RDKit          3D

 18 17  0  0  1  0  0  0  0  0999 V2000
   19.2795  -15.7876  -16.4273 N   0  0  0  0  0  0  0  0  0  0  0  0
   18.1311  -14.9638  -16.1143 C   0  0  0  0  0  0  0  0  0  0  0  0
   18.3740  -13.5831  -16.5863 C   0  0  0  0  0  0  0  0  0  0  0  0
   19.4602  -13.3227  -17.1476 O   0  0  0  0  0  0  0  0  0  0  0  0
   16.3381   -9.3090  -17.9578 C   0  0  0  0  0  0  0  0  0  0  0  0
   16.3285  -10.7132  -17.4774 C   0  0  2  0  0  0  0  0  0  0  0  0
   15.1867  -10.9138  -16.5131 C   0  0  0  0  0  0  0  0  0  0  0  0
   17.6441  -11.1765  -16.9603 C   0  0  2  0  0  0  0  0  0  0  0  0
   17.4198  -12.5386  -16.4267 N   0  0  0  0  0  0  0  0  0  0  0  0
   18.2899  -10.3389  -15.9565 C   0  0  0  0  0  0  0  0  0  0  0  0
   17.9746  -10.3832  -14.7128 O   0  0  0  0  0  0  0  0  0  0  0  0
   19.3117   -9.4160  -16.2599 N   0  0  0  0  0  0  0  0  0  0  0  0
   19.9807   -8.6302  -15.2083 C   0  0  1  0  0  0  0  0  0  0  0  0
   21.3947   -9.1692  -15.1329 C   0  0  0  0  0  0  0  0  0  0  0  0
   22.3114   -8.1248  -13.9742 S   0  0  0  0  0  0  0  0  0  0  0  0
   19.9688   -7.1894  -15.5761 C   0  0  0  0  0  0  0  0  0  0  0  0
   19.9467   -6.2414  -14.5800 O   0  0  0  0  0  0  0  0  0  0  0  0
   19.9782   -6.8121  -16.7691 O   0  0  0  0  0  0  0  0  0  0  0  0
  2  3  1  0
  2  1  1  0
  3  4  2  0
  6  5  1  1
  6  7  1  0
  6  8  1  0
  8 10  1  0
  8  9  1  1
  9  3  1  0
 10 11  2  0
 10 12  1  0
 12 13  1  0
 13 16  1  0
 13 14  1  6
 14 15  1  0
 16 18  2  0
 16 17  1  0
M  END
$$$$
