GVC.pdb
     RDKit          3D

 18 17  0  0  1  0  0  0  0  0999 V2000
   17.2575  -13.6691  -15.1188 N   0  0  0  0  0  0  0  0  0  0  0  0
   16.8275  -12.3535  -14.6948 C   0  0  0  0  0  0  0  0  0  0  0  0
   17.6327  -11.3260  -15.3902 C   0  0  0  0  0  0  0  0  0  0  0  0
   18.5901  -11.6949  -16.1043 O   0  0  0  0  0  0  0  0  0  0  0  0
   16.0900   -7.6428  -16.5104 C   0  0  0  0  0  0  0  0  0  0  0  0
   17.2800   -8.3508  -17.0444 C   0  0  2  0  0  0  0  0  0  0  0  0
   16.8509   -9.3568  -18.0825 C   0  0  0  0  0  0  0  0  0  0  0  0
   18.1644   -8.9126  -15.9885 C   0  0  2  0  0  0  0  0  0  0  0  0
   17.3608   -9.9329  -15.2788 N   0  0  0  0  0  0  0  0  0  0  0  0
   18.7380   -7.9678  -15.0375 C   0  0  0  0  0  0  0  0  0  0  0  0
   18.0928   -7.5407  -14.0130 O   0  0  0  0  0  0  0  0  0  0  0  0
   20.0425   -7.4461  -15.1561 N   0  0  0  0  0  0  0  0  0  0  0  0
   20.5437   -6.4031  -14.2441 C   0  0  1  0  0  0  0  0  0  0  0  0
   22.0521   -6.5462  -14.2496 C   0  0  0  0  0  0  0  0  0  0  0  0
   22.7246   -5.2340  -13.2010 S   0  0  0  0  0  0  0  0  0  0  0  0
   20.1246   -5.0639  -14.7365 C   0  0  0  0  0  0  0  0  0  0  0  0
   20.1585   -4.8031  -16.0864 O   0  0  0  0  0  0  0  0  0  0  0  0
   19.7406   -4.1639  -13.9566 O   0  0  0  0  0  0  0  0  0  0  0  0
  2  3  1  0
  2  1  1  0
  3  4  2  0
  6  5  1  1
  6  7  1  0
  6  8  1  0
  8 10  1  0
  8  9  1  1
  9  3  1  0
 10 11  2  0
 10 12  1  0
 12 13  1  0
 13 16  1  0
 13 14  1  6
 14 15  1  0
 16 18  2  0
 16 17  1  0
M  END
$$$$
