LVM.pdb
     RDKit          3D

 24 23  0  0  1  0  0  0  0  0999 V2000
    9.3658  -12.7686   20.1598 C   0  0  0  0  0  0  0  0  0  0  0  0
    8.1918  -13.7244   20.1915 C   0  0  1  0  0  0  0  0  0  0  0  0
    6.8999  -12.9590   19.9189 C   0  0  0  0  0  0  0  0  0  0  0  0
    8.3675  -14.8498   19.2457 C   0  0  0  0  0  0  0  0  0  0  0  0
    9.4455  -15.8191   19.6568 C   0  0  2  0  0  0  0  0  0  0  0  0
    9.3870  -16.9252   18.6576 N   0  0  0  0  0  0  0  0  0  0  0  0
    9.1572  -16.4674   20.9819 C   0  0  0  0  0  0  0  0  0  0  0  0
    8.4367  -17.5076   21.0114 O   0  0  0  0  0  0  0  0  0  0  0  0
    9.8555  -18.8529   24.6440 C   0  0  0  0  0  0  0  0  0  0  0  0
    9.9835  -18.0639   23.3906 C   0  0  2  0  0  0  0  0  0  0  0  0
   11.4661  -18.0817   22.9882 C   0  0  0  0  0  0  0  0  0  0  0  0
    9.5594  -16.6549   23.4465 C   0  0  2  0  0  0  0  0  0  0  0  0
    9.6697  -15.9508   22.1979 N   0  0  0  0  0  0  0  0  0  0  0  0
   10.0203  -15.8523   24.5904 C   0  0  0  0  0  0  0  0  0  0  0  0
   11.2073  -15.4718   24.6211 O   0  0  0  0  0  0  0  0  0  0  0  0
    6.2097  -10.7848   25.5470 C   0  0  0  0  0  0  0  0  0  0  0  0
    6.7133  -11.9255   26.8882 S   0  0  0  0  0  0  0  0  0  0  0  0
    8.1134  -12.9017   26.2439 C   0  0  0  0  0  0  0  0  0  0  0  0
    8.5114  -13.8856   27.3110 C   0  0  0  0  0  0  0  0  0  0  0  0
    9.6513  -14.7331   26.8187 C   0  0  2  0  0  0  0  0  0  0  0  0
    9.1772  -15.4907   25.6609 N   0  0  0  0  0  0  0  0  0  0  0  0
   10.2069  -15.6241   27.8440 C   0  0  0  0  0  0  0  0  0  0  0  0
    9.7851  -16.7985   27.9603 O   0  0  0  0  0  0  0  0  0  0  0  0
   11.1955  -15.1650   28.6799 O   0  0  0  0  0  0  0  0  0  0  0  0
  2  1  1  6
  3  2  1  0
  4  2  1  0
  4  5  1  0
  5  6  1  6
  5  7  1  0
  7  8  2  0
 10  9  1  1
 10 11  1  0
 12 10  1  0
 13  7  1  0
 12 13  1  6
 14 12  1  0
 14 15  2  0
 16 17  1  0
 17 18  1  0
 18 19  1  0
 20 19  1  1
 20 21  1  0
 21 14  1  0
 22 24  1  0
 22 20  1  0
 23 22  2  0
M  END
$$$$
