LVM.pdb
     RDKit          3D

 24 23  0  0  1  0  0  0  0  0999 V2000
    6.0880  -22.0707   25.6220 C   0  0  0  0  0  0  0  0  0  0  0  0
    5.9820  -21.6291   24.1776 C   0  0  1  0  0  0  0  0  0  0  0  0
    4.5461  -21.8055   23.6915 C   0  0  0  0  0  0  0  0  0  0  0  0
    6.4543  -20.2389   23.9868 C   0  0  0  0  0  0  0  0  0  0  0  0
    6.3614  -19.7617   22.5605 C   0  0  2  0  0  0  0  0  0  0  0  0
    6.9313  -20.8654   21.7346 N   0  0  0  0  0  0  0  0  0  0  0  0
    7.2436  -18.5737   22.2961 C   0  0  0  0  0  0  0  0  0  0  0  0
    8.4939  -18.7475   22.2030 O   0  0  0  0  0  0  0  0  0  0  0  0
    8.1483  -14.1136   20.5812 C   0  0  0  0  0  0  0  0  0  0  0  0
    7.2599  -15.2810   20.8228 C   0  0  2  0  0  0  0  0  0  0  0  0
    5.8300  -14.7423   20.9822 C   0  0  0  0  0  0  0  0  0  0  0  0
    7.5543  -16.1058   22.0064 C   0  0  2  0  0  0  0  0  0  0  0  0
    6.7174  -17.2666   22.1453 N   0  0  0  0  0  0  0  0  0  0  0  0
    7.7686  -15.4077   23.2839 C   0  0  0  0  0  0  0  0  0  0  0  0
    6.7971  -14.8619   23.8434 O   0  0  0  0  0  0  0  0  0  0  0  0
    7.0073  -10.6581   26.3698 C   0  0  0  0  0  0  0  0  0  0  0  0
    6.6103  -12.2742   27.1341 S   0  0  0  0  0  0  0  0  0  0  0  0
    8.0827  -13.3293   26.9166 C   0  0  0  0  0  0  0  0  0  0  0  0
    7.9084  -14.0946   25.6325 C   0  0  0  0  0  0  0  0  0  0  0  0
    9.2339  -14.6484   25.1892 C   0  0  2  0  0  0  0  0  0  0  0  0
    9.0294  -15.3264   23.9095 N   0  0  0  0  0  0  0  0  0  0  0  0
    9.8543  -15.5454   26.1714 C   0  0  0  0  0  0  0  0  0  0  0  0
   10.6644  -15.0979   27.0164 O   0  0  0  0  0  0  0  0  0  0  0  0
    9.5430  -16.8832   26.1617 O   0  0  0  0  0  0  0  0  0  0  0  0
  2  1  1  1
  3  2  1  0
  4  2  1  0
  4  5  1  0
  5  6  1  6
  5  7  1  0
  7  8  2  0
 10  9  1  1
 10 11  1  0
 12 10  1  0
 13  7  1  0
 12 13  1  1
 14 12  1  0
 14 15  2  0
 16 17  1  0
 17 18  1  0
 18 19  1  0
 20 19  1  1
 20 21  1  0
 21 14  1  0
 22 24  1  0
 22 20  1  0
 23 22  2  0
M  END
$$$$
