LVM.pdb
     RDKit          3D

 24 23  0  0  1  0  0  0  0  0999 V2000
    6.8285  -11.5441   27.1089 C   0  0  0  0  0  0  0  0  0  0  0  0
    6.2554  -12.5745   26.1588 C   0  0  1  0  0  0  0  0  0  0  0  0
    5.8991  -11.9075   24.8331 C   0  0  0  0  0  0  0  0  0  0  0  0
    7.1737  -13.7191   25.9626 C   0  0  0  0  0  0  0  0  0  0  0  0
    6.6317  -14.7736   25.0326 C   0  0  2  0  0  0  0  0  0  0  0  0
    5.6166  -15.5220   25.8293 N   0  0  0  0  0  0  0  0  0  0  0  0
    7.6700  -15.7935   24.6568 C   0  0  0  0  0  0  0  0  0  0  0  0
    8.0160  -16.6596   25.5124 O   0  0  0  0  0  0  0  0  0  0  0  0
   10.6518  -17.8261   21.2051 C   0  0  0  0  0  0  0  0  0  0  0  0
    9.6341  -16.8199   21.6074 C   0  0  2  0  0  0  0  0  0  0  0  0
   10.1106  -15.4546   21.0885 C   0  0  0  0  0  0  0  0  0  0  0  0
    9.3755  -16.6768   23.0499 C   0  0  2  0  0  0  0  0  0  0  0  0
    8.2705  -15.8158   23.3734 N   0  0  0  0  0  0  0  0  0  0  0  0
   10.5355  -16.4619   23.9293 C   0  0  0  0  0  0  0  0  0  0  0  0
   11.2974  -15.5022   23.6990 O   0  0  0  0  0  0  0  0  0  0  0  0
    9.6144  -13.5315   28.9851 C   0  0  0  0  0  0  0  0  0  0  0  0
   10.7298  -14.9839   28.9771 S   0  0  0  0  0  0  0  0  0  0  0  0
   10.7453  -15.6198   27.2672 C   0  0  0  0  0  0  0  0  0  0  0  0
   11.6157  -16.8474   27.2461 C   0  0  0  0  0  0  0  0  0  0  0  0
   12.0387  -17.1441   25.8343 C   0  0  2  0  0  0  0  0  0  0  0  0
   10.8281  -17.2958   25.0278 N   0  0  0  0  0  0  0  0  0  0  0  0
   12.9060  -18.3220   25.7158 C   0  0  0  0  0  0  0  0  0  0  0  0
   14.0889  -18.2831   26.1281 O   0  0  0  0  0  0  0  0  0  0  0  0
   12.4153  -19.4730   25.1489 O   0  0  0  0  0  0  0  0  0  0  0  0
  2  1  1  1
  3  2  1  0
  4  2  1  0
  4  5  1  0
  5  6  1  1
  5  7  1  0
  7  8  2  0
 10  9  1  1
 10 11  1  0
 12 10  1  0
 13  7  1  0
 12 13  1  6
 14 12  1  0
 14 15  2  0
 16 17  1  0
 17 18  1  0
 18 19  1  0
 20 19  1  1
 20 21  1  0
 21 14  1  0
 22 24  1  0
 22 20  1  0
 23 22  2  0
M  END
$$$$
