LVM.pdb
     RDKit          3D

 24 23  0  0  1  0  0  0  0  0999 V2000
    8.8666  -12.8676   20.8224 C   0  0  0  0  0  0  0  0  0  0  0  0
    8.0826  -13.5635   21.9151 C   0  0  1  0  0  0  0  0  0  0  0  0
    7.3021  -12.5307   22.7234 C   0  0  0  0  0  0  0  0  0  0  0  0
    7.1935  -14.6167   21.3746 C   0  0  0  0  0  0  0  0  0  0  0  0
    7.9357  -15.8029   20.8154 C   0  0  2  0  0  0  0  0  0  0  0  0
    6.8804  -16.7403   20.3330 N   0  0  0  0  0  0  0  0  0  0  0  0
    8.6839  -16.5614   21.8758 C   0  0  0  0  0  0  0  0  0  0  0  0
    8.0311  -17.2581   22.7067 O   0  0  0  0  0  0  0  0  0  0  0  0
   12.7204  -18.9989   23.1638 C   0  0  0  0  0  0  0  0  0  0  0  0
   11.9554  -18.0841   22.2760 C   0  0  2  0  0  0  0  0  0  0  0  0
   12.9448  -17.0435   21.7298 C   0  0  0  0  0  0  0  0  0  0  0  0
   10.8354  -17.3488   22.8868 C   0  0  2  0  0  0  0  0  0  0  0  0
   10.0973  -16.5220   21.9711 N   0  0  0  0  0  0  0  0  0  0  0  0
   11.0830  -16.6830   24.1754 C   0  0  0  0  0  0  0  0  0  0  0  0
   11.2320  -15.4452   24.1960 O   0  0  0  0  0  0  0  0  0  0  0  0
    8.6075  -12.8386   27.2822 C   0  0  0  0  0  0  0  0  0  0  0  0
    9.8818  -13.9507   27.9843 S   0  0  0  0  0  0  0  0  0  0  0  0
    9.1567  -15.6246   28.0088 C   0  0  0  0  0  0  0  0  0  0  0  0
    9.4734  -16.2770   26.6901 C   0  0  0  0  0  0  0  0  0  0  0  0
   10.9006  -16.7493   26.6886 C   0  0  2  0  0  0  0  0  0  0  0  0
   11.1601  -17.3834   25.3964 N   0  0  0  0  0  0  0  0  0  0  0  0
   11.2211  -17.6554   27.7978 C   0  0  0  0  0  0  0  0  0  0  0  0
   11.6706  -17.2032   28.8768 O   0  0  0  0  0  0  0  0  0  0  0  0
   11.0262  -19.0069   27.6493 O   0  0  0  0  0  0  0  0  0  0  0  0
  2  1  1  6
  3  2  1  0
  4  2  1  0
  4  5  1  0
  5  6  1  1
  5  7  1  0
  7  8  2  0
 10  9  1  1
 10 11  1  0
 12 10  1  0
 13  7  1  0
 12 13  1  6
 14 12  1  0
 14 15  2  0
 16 17  1  0
 17 18  1  0
 18 19  1  0
 20 19  1  6
 20 21  1  0
 21 14  1  0
 22 24  1  0
 22 20  1  0
 23 22  2  0
M  END
$$$$
