LVM.pdb
     RDKit          3D

 24 23  0  0  1  0  0  0  0  0999 V2000
    7.5406  -12.4048   24.2696 C   0  0  0  0  0  0  0  0  0  0  0  0
    7.2601  -13.3820   25.3918 C   0  0  1  0  0  0  0  0  0  0  0  0
    6.8654  -12.6164   26.6516 C   0  0  0  0  0  0  0  0  0  0  0  0
    6.2315  -14.3781   25.0154 C   0  0  0  0  0  0  0  0  0  0  0  0
    6.5576  -15.1327   23.7525 C   0  0  2  0  0  0  0  0  0  0  0  0
    5.4728  -16.1458   23.6040 N   0  0  0  0  0  0  0  0  0  0  0  0
    7.8276  -15.9278   23.8728 C   0  0  0  0  0  0  0  0  0  0  0  0
    7.9138  -16.8123   24.7741 O   0  0  0  0  0  0  0  0  0  0  0  0
    9.8046  -17.3134   20.6221 C   0  0  0  0  0  0  0  0  0  0  0  0
   10.6950  -16.7798   21.6864 C   0  0  2  0  0  0  0  0  0  0  0  0
   11.8475  -17.7803   21.8628 C   0  0  0  0  0  0  0  0  0  0  0  0
   10.0911  -16.5656   23.0120 C   0  0  2  0  0  0  0  0  0  0  0  0
    8.9292  -15.7188   23.0062 N   0  0  0  0  0  0  0  0  0  0  0  0
   10.9989  -16.2714   24.1320 C   0  0  0  0  0  0  0  0  0  0  0  0
   11.7660  -15.2922   24.0455 O   0  0  0  0  0  0  0  0  0  0  0  0
   11.4192  -13.5840   29.5096 C   0  0  0  0  0  0  0  0  0  0  0  0
    9.9573  -14.4324   28.8048 S   0  0  0  0  0  0  0  0  0  0  0  0
   10.5605  -15.9933   28.0781 C   0  0  0  0  0  0  0  0  0  0  0  0
   11.6899  -15.6535   27.1432 C   0  0  0  0  0  0  0  0  0  0  0  0
   12.0633  -16.8668   26.3380 C   0  0  2  0  0  0  0  0  0  0  0  0
   11.0427  -17.0500   25.3065 N   0  0  0  0  0  0  0  0  0  0  0  0
   12.2249  -18.0815   27.1458 C   0  0  0  0  0  0  0  0  0  0  0  0
   11.4135  -19.0301   27.0343 O   0  0  0  0  0  0  0  0  0  0  0  0
   13.2730  -18.1761   28.0286 O   0  0  0  0  0  0  0  0  0  0  0  0
  2  1  1  6
  3  2  1  0
  4  2  1  0
  4  5  1  0
  5  6  1  1
  5  7  1  0
  7  8  2  0
 10  9  1  6
 10 11  1  0
 12 10  1  0
 13  7  1  0
 12 13  1  6
 14 12  1  0
 14 15  2  0
 16 17  1  0
 17 18  1  0
 18 19  1  0
 20 19  1  1
 20 21  1  0
 21 14  1  0
 22 24  1  0
 22 20  1  0
 23 22  2  0
M  END
$$$$
