LVM.pdb
     RDKit          3D

 24 23  0  0  1  0  0  0  0  0999 V2000
    7.7404  -20.4645   27.9223 C   0  0  0  0  0  0  0  0  0  0  0  0
    7.1180  -20.4829   26.5421 C   0  0  1  0  0  0  0  0  0  0  0  0
    5.6094  -20.2828   26.6572 C   0  0  0  0  0  0  0  0  0  0  0  0
    7.7331  -19.4802   25.6432 C   0  0  0  0  0  0  0  0  0  0  0  0
    7.1188  -19.4474   24.2676 C   0  0  2  0  0  0  0  0  0  0  0  0
    7.4024  -20.7863   23.6740 N   0  0  0  0  0  0  0  0  0  0  0  0
    7.7991  -18.4605   23.3605 C   0  0  0  0  0  0  0  0  0  0  0  0
    8.9127  -18.7693   22.8442 O   0  0  0  0  0  0  0  0  0  0  0  0
    7.9357  -13.9263   21.2655 C   0  0  0  0  0  0  0  0  0  0  0  0
    7.1932  -15.0285   21.9317 C   0  0  2  0  0  0  0  0  0  0  0  0
    6.3599  -14.4021   23.0603 C   0  0  0  0  0  0  0  0  0  0  0  0
    7.9992  -16.1078   22.5265 C   0  0  2  0  0  0  0  0  0  0  0  0
    7.2301  -17.1969   23.0643 N   0  0  0  0  0  0  0  0  0  0  0  0
    9.1152  -15.7175   23.4024 C   0  0  0  0  0  0  0  0  0  0  0  0
   10.1378  -15.2198   22.8910 O   0  0  0  0  0  0  0  0  0  0  0  0
    8.1505  -12.2995   28.1637 C   0  0  0  0  0  0  0  0  0  0  0  0
    9.5701  -13.0804   29.0174 S   0  0  0  0  0  0  0  0  0  0  0  0
   10.4521  -14.0696   27.7637 C   0  0  0  0  0  0  0  0  0  0  0  0
    9.4291  -14.5818   26.7859 C   0  0  0  0  0  0  0  0  0  0  0  0
   10.1163  -15.3405   25.6849 C   0  0  2  0  0  0  0  0  0  0  0  0
    9.0828  -15.8810   24.8023 N   0  0  0  0  0  0  0  0  0  0  0  0
   11.0077  -16.4009   26.1693 C   0  0  0  0  0  0  0  0  0  0  0  0
   12.1784  -16.1316   26.5266 O   0  0  0  0  0  0  0  0  0  0  0  0
   10.5532  -17.6957   26.2304 O   0  0  0  0  0  0  0  0  0  0  0  0
  2  1  1  1
  3  2  1  0
  4  2  1  0
  4  5  1  0
  5  6  1  6
  5  7  1  0
  7  8  2  0
 10  9  1  1
 10 11  1  0
 12 10  1  0
 13  7  1  0
 12 13  1  1
 14 12  1  0
 14 15  2  0
 16 17  1  0
 17 18  1  0
 18 19  1  0
 20 19  1  1
 20 21  1  0
 21 14  1  0
 22 24  1  0
 22 20  1  0
 23 22  2  0
M  END
$$$$
