RTL.pdb
     RDKit          3D

 27 26  0  0  1  0  0  0  0  0999 V2000
    7.0883  -13.4400   18.2105 N   0  0  0  0  0  0  0  0  0  0  0  0
    7.9783  -13.6314   17.1092 C   0  0  0  0  0  0  0  0  0  0  0  0
    7.4914  -13.6538   15.9278 N   0  0  0  0  0  0  0  0  0  0  0  0
    9.3792  -13.7949   17.3199 N   0  0  0  0  0  0  0  0  0  0  0  0
    9.8779  -14.0901   18.6878 C   0  0  0  0  0  0  0  0  0  0  0  0
    9.4060  -15.4579   19.0854 C   0  0  0  0  0  0  0  0  0  0  0  0
    9.8965  -15.9831   20.3788 C   0  0  0  0  0  0  0  0  0  0  0  0
    9.5053  -17.3619   20.7840 C   0  0  2  0  0  0  0  0  0  0  0  0
    9.1452  -18.1173   19.5944 N   0  0  0  0  0  0  0  0  0  0  0  0
    8.4311  -17.3678   21.7881 C   0  0  0  0  0  0  0  0  0  0  0  0
    7.2494  -17.6580   21.4633 O   0  0  0  0  0  0  0  0  0  0  0  0
    8.0979  -13.7757   15.1050 C   0  0  0  0  0  0  0  0  0  0  0  0
    7.0456  -19.5266   22.8870 C   0  0  2  0  0  0  0  0  0  0  0  0
    7.7456  -19.1083   24.1443 O   0  0  0  0  0  0  0  0  0  0  0  0
    8.9923  -19.7262   24.2652 C   0  0  2  0  0  0  0  0  0  0  0  0
    7.9541  -17.6385   24.2637 N   0  0  0  0  0  0  0  0  0  0  0  0
    8.6787  -17.0414   23.1747 C   0  0  0  0  0  0  0  0  0  0  0  0
    8.5198  -17.2309   25.5906 O   0  0  0  0  0  0  0  0  0  0  0  0
    7.9509  -17.5457   26.6666 C   0  0  0  0  0  0  0  0  0  0  0  0
    8.9951  -13.1733   29.2146 C   0  0  1  0  0  0  0  0  0  0  0  0
    9.9138  -14.3500   28.8519 C   0  0  0  0  0  0  0  0  0  0  0  0
   11.3282  -13.8134   28.8655 C   0  0  0  0  0  0  0  0  0  0  0  0
    9.4917  -14.8188   27.5042 C   0  0  2  0  0  0  0  0  0  0  0  0
   10.2542  -15.9656   26.9441 N   0  0  0  0  0  0  0  0  0  0  0  0
    9.7168  -16.4746   25.6989 C   0  0  0  0  0  0  0  0  0  0  0  0
   10.5398  -17.0573   27.9063 O   0  0  0  0  0  0  0  0  0  0  0  0
   10.0621  -18.3446   27.6492 O   0  0  0  0  0  0  0  0  0  0  0  0
  2  1  1  0
  3  2  2  0
  4  2  1  0
  5  4  1  0
  6  5  1  0
  7  6  1  0
  8 10  1  0
  8  7  1  0
  8  9  1  6
 10 11  2  0
 13 12  1  1
 13 14  1  0
 15 13  1  0
 16 10  1  0
 15 16  1  1
 17 18  2  0
 17 15  1  0
 20 19  1  1
 20 21  1  0
 20 22  1  0
 23 22  1  6
 23 24  1  0
 24 17  1  0
 25 26  1  0
 25 23  1  0
 27 25  2  0
M  END
$$$$
