RTL.pdb
     RDKit          3D

 27 26  0  0  1  0  0  0  0  0999 V2000
    9.3832  -15.8782   16.1366 N   0  0  0  0  0  0  0  0  0  0  0  0
    8.3418  -15.2253   15.4079 C   0  0  0  0  0  0  0  0  0  0  0  0
    7.8590  -15.8087   14.3784 N   0  0  0  0  0  0  0  0  0  0  0  0
    7.8503  -13.9506   15.8168 N   0  0  0  0  0  0  0  0  0  0  0  0
    8.5188  -13.2403   16.9374 C   0  0  0  0  0  0  0  0  0  0  0  0
    7.4917  -12.9225   17.9842 C   0  0  0  0  0  0  0  0  0  0  0  0
    7.4691  -13.7906   19.1821 C   0  0  0  0  0  0  0  0  0  0  0  0
    8.6620  -13.8080   20.0738 C   0  0  2  0  0  0  0  0  0  0  0  0
    9.8326  -14.1613   19.2862 N   0  0  0  0  0  0  0  0  0  0  0  0
    8.4849  -14.6989   21.2301 C   0  0  0  0  0  0  0  0  0  0  0  0
    7.5174  -14.5409   22.0208 O   0  0  0  0  0  0  0  0  0  0  0  0
    7.0702  -15.4012   13.8574 C   0  0  0  0  0  0  0  0  0  0  0  0
   10.0448  -18.6217   23.9498 C   0  0  2  0  0  0  0  0  0  0  0  0
   10.1916  -17.7802   22.7185 O   0  0  0  0  0  0  0  0  0  0  0  0
    9.8460  -18.4927   21.5680 C   0  0  1  0  0  0  0  0  0  0  0  0
    9.3838  -16.5291   22.7373 N   0  0  0  0  0  0  0  0  0  0  0  0
    9.4032  -15.7800   21.5101 C   0  0  0  0  0  0  0  0  0  0  0  0
    9.6789  -15.6566   23.9198 O   0  0  0  0  0  0  0  0  0  0  0  0
   10.4586  -14.6748   23.8274 C   0  0  0  0  0  0  0  0  0  0  0  0
    8.4731  -12.3529   27.1838 C   0  0  1  0  0  0  0  0  0  0  0  0
    7.2705  -12.7430   26.3110 C   0  0  0  0  0  0  0  0  0  0  0  0
    6.1585  -13.1351   27.2589 C   0  0  0  0  0  0  0  0  0  0  0  0
    7.7173  -13.8736   25.4529 C   0  0  1  0  0  0  0  0  0  0  0  0
    8.6377  -14.8520   26.0899 N   0  0  0  0  0  0  0  0  0  0  0  0
    9.0980  -15.8929   25.1939 C   0  0  0  0  0  0  0  0  0  0  0  0
    8.1648  -15.4076   27.3808 O   0  0  0  0  0  0  0  0  0  0  0  0
    7.2771  -16.4862   27.3826 O   0  0  0  0  0  0  0  0  0  0  0  0
  2  1  1  0
  3  2  2  0
  4  2  1  0
  5  4  1  0
  6  5  1  0
  7  6  1  0
  8 10  1  0
  8  7  1  0
  8  9  1  6
 10 11  2  0
 13 12  1  6
 13 14  1  0
 15 13  1  0
 16 10  1  0
 15 16  1  6
 17 18  2  0
 17 15  1  0
 20 19  1  1
 20 21  1  0
 20 22  1  0
 23 22  1  6
 23 24  1  0
 24 17  1  0
 25 26  1  0
 25 23  1  0
 27 25  2  0
M  END
$$$$
