RTL.pdb
     RDKit          3D

 27 26  0  0  1  0  0  0  0  0999 V2000
    6.8678  -13.6860   14.9730 N   0  0  0  0  0  0  0  0  0  0  0  0
    8.1824  -14.0379   15.4086 C   0  0  0  0  0  0  0  0  0  0  0  0
    8.6723  -15.1556   15.0290 N   0  0  0  0  0  0  0  0  0  0  0  0
    8.9336  -13.1644   16.2488 N   0  0  0  0  0  0  0  0  0  0  0  0
    8.6236  -13.1092   17.7007 C   0  0  0  0  0  0  0  0  0  0  0  0
    7.8195  -14.3224   18.0656 C   0  0  0  0  0  0  0  0  0  0  0  0
    7.5874  -14.5601   19.5074 C   0  0  0  0  0  0  0  0  0  0  0  0
    8.7185  -15.0551   20.3406 C   0  0  2  0  0  0  0  0  0  0  0  0
    9.3872  -16.1347   19.6317 N   0  0  0  0  0  0  0  0  0  0  0  0
    8.2877  -15.4616   21.6864 C   0  0  0  0  0  0  0  0  0  0  0  0
    7.4079  -14.8062   22.3049 O   0  0  0  0  0  0  0  0  0  0  0  0
    9.6239  -15.4389   15.3011 C   0  0  0  0  0  0  0  0  0  0  0  0
    8.2399  -18.8724   25.3512 C   0  0  2  0  0  0  0  0  0  0  0  0
    8.7037  -18.4553   23.9885 O   0  0  0  0  0  0  0  0  0  0  0  0
    8.0901  -19.2102   22.9864 C   0  0  1  0  0  0  0  0  0  0  0  0
    8.4702  -17.0170   23.6807 N   0  0  0  0  0  0  0  0  0  0  0  0
    8.8497  -16.6148   22.3535 C   0  0  0  0  0  0  0  0  0  0  0  0
    9.0350  -16.0945   24.7183 O   0  0  0  0  0  0  0  0  0  0  0  0
   10.2698  -15.8693   24.7880 C   0  0  0  0  0  0  0  0  0  0  0  0
    6.2699  -11.7394   27.1628 C   0  0  1  0  0  0  0  0  0  0  0  0
    7.5772  -12.3696   26.6587 C   0  0  0  0  0  0  0  0  0  0  0  0
    7.4488  -12.4861   25.1558 C   0  0  0  0  0  0  0  0  0  0  0  0
    7.6966  -13.6933   27.3280 C   0  0  2  0  0  0  0  0  0  0  0  0
    8.7083  -14.6226   26.7598 N   0  0  0  0  0  0  0  0  0  0  0  0
    8.2110  -15.4340   25.6677 C   0  0  0  0  0  0  0  0  0  0  0  0
    9.4419  -15.4364   27.7592 O   0  0  0  0  0  0  0  0  0  0  0  0
   10.4232  -14.8349   28.5508 O   0  0  0  0  0  0  0  0  0  0  0  0
  2  1  1  0
  3  2  2  0
  4  2  1  0
  5  4  1  0
  6  5  1  0
  7  6  1  0
  8 10  1  0
  8  7  1  0
  8  9  1  6
 10 11  2  0
 13 12  1  1
 13 14  1  0
 15 13  1  0
 16 10  1  0
 15 16  1  6
 17 18  2  0
 17 15  1  0
 20 19  1  6
 20 21  1  0
 20 22  1  0
 23 22  1  6
 23 24  1  0
 24 17  1  0
 25 26  1  0
 25 23  1  0
 27 25  2  0
M  END
$$$$
