RTL.pdb
     RDKit          3D

 27 26  0  0  1  0  0  0  0  0999 V2000
    9.2169  -15.3357   16.9963 N   0  0  0  0  0  0  0  0  0  0  0  0
    8.8728  -14.3185   16.0536 C   0  0  0  0  0  0  0  0  0  0  0  0
    9.1230  -14.5225   14.8171 N   0  0  0  0  0  0  0  0  0  0  0  0
    8.2643  -13.1012   16.4796 N   0  0  0  0  0  0  0  0  0  0  0  0
    8.1042  -12.8396   17.9332 C   0  0  0  0  0  0  0  0  0  0  0  0
    6.8542  -13.5206   18.4081 C   0  0  0  0  0  0  0  0  0  0  0  0
    6.8688  -14.0557   19.7874 C   0  0  0  0  0  0  0  0  0  0  0  0
    8.1747  -14.4473   20.3875 C   0  0  2  0  0  0  0  0  0  0  0  0
    8.8460  -15.3735   19.4893 N   0  0  0  0  0  0  0  0  0  0  0  0
    8.0261  -15.0009   21.7416 C   0  0  0  0  0  0  0  0  0  0  0  0
    7.1839  -14.5185   22.5442 O   0  0  0  0  0  0  0  0  0  0  0  0
    8.8703  -13.8268   14.1016 C   0  0  0  0  0  0  0  0  0  0  0  0
    8.6814  -19.0584   22.7106 C   0  0  2  0  0  0  0  0  0  0  0  0
    9.2589  -18.0537   23.6609 O   0  0  0  0  0  0  0  0  0  0  0  0
   10.6452  -17.9561   23.5217 C   0  0  2  0  0  0  0  0  0  0  0  0
    8.6908  -16.6845   23.5173 N   0  0  0  0  0  0  0  0  0  0  0  0
    8.8319  -16.1071   22.2080 C   0  0  0  0  0  0  0  0  0  0  0  0
    9.1517  -15.7416   24.5875 O   0  0  0  0  0  0  0  0  0  0  0  0
   10.1856  -15.0420   24.4393 C   0  0  0  0  0  0  0  0  0  0  0  0
    8.1727  -11.9633   25.9806 C   0  0  2  0  0  0  0  0  0  0  0  0
    7.1396  -12.9972   26.4539 C   0  0  0  0  0  0  0  0  0  0  0  0
    5.9929  -12.2163   27.0573 C   0  0  0  0  0  0  0  0  0  0  0  0
    7.8295  -13.8627   27.4485 C   0  0  2  0  0  0  0  0  0  0  0  0
    8.8893  -14.7564   26.9116 N   0  0  0  0  0  0  0  0  0  0  0  0
    8.4501  -15.5922   25.8130 C   0  0  0  0  0  0  0  0  0  0  0  0
    9.6279  -15.5361   27.9341 O   0  0  0  0  0  0  0  0  0  0  0  0
   10.3525  -14.8646   28.9217 O   0  0  0  0  0  0  0  0  0  0  0  0
  2  1  1  0
  3  2  2  0
  4  2  1  0
  5  4  1  0
  6  5  1  0
  7  6  1  0
  8 10  1  0
  8  7  1  0
  8  9  1  6
 10 11  2  0
 13 12  1  1
 13 14  1  0
 15 13  1  0
 16 10  1  0
 15 16  1  1
 17 18  2  0
 17 15  1  0
 20 19  1  6
 20 21  1  0
 20 22  1  0
 23 22  1  6
 23 24  1  0
 24 17  1  0
 25 26  1  0
 25 23  1  0
 27 25  2  0
M  END
$$$$
