RTL.pdb
     RDKit          3D

 27 26  0  0  1  0  0  0  0  0999 V2000
   16.4039  -19.0604   19.5508 N   0  0  0  0  0  0  0  0  0  0  0  0
   15.9939  -20.3899   19.8766 C   0  0  0  0  0  0  0  0  0  0  0  0
   16.8634  -21.1978   20.3505 N   0  0  0  0  0  0  0  0  0  0  0  0
   14.6456  -20.8095   19.6780 N   0  0  0  0  0  0  0  0  0  0  0  0
   13.6597  -19.8464   19.1234 C   0  0  0  0  0  0  0  0  0  0  0  0
   13.3719  -18.8030   20.1627 C   0  0  0  0  0  0  0  0  0  0  0  0
   12.4695  -17.6990   19.7677 C   0  0  0  0  0  0  0  0  0  0  0  0
   11.0168  -17.9867   19.6080 C   0  0  2  0  0  0  0  0  0  0  0  0
   10.7440  -18.2654   18.2068 N   0  0  0  0  0  0  0  0  0  0  0  0
   10.1699  -16.9044   20.1309 C   0  0  0  0  0  0  0  0  0  0  0  0
   10.0700  -15.8113   19.5135 O   0  0  0  0  0  0  0  0  0  0  0  0
   16.6037  -22.1535   20.6314 C   0  0  0  0  0  0  0  0  0  0  0  0
    6.4181  -14.8678   22.1775 C   0  0  2  0  0  0  0  0  0  0  0  0
    7.1899  -16.0539   21.6840 O   0  0  0  0  0  0  0  0  0  0  0  0
    7.0066  -16.2487   20.3132 C   0  0  1  0  0  0  0  0  0  0  0  0
    8.6550  -15.9748   21.9394 N   0  0  0  0  0  0  0  0  0  0  0  0
    9.4263  -17.0428   21.3632 C   0  0  0  0  0  0  0  0  0  0  0  0
    8.9894  -15.7727   23.3865 O   0  0  0  0  0  0  0  0  0  0  0  0
    9.0868  -16.7466   24.1755 C   0  0  0  0  0  0  0  0  0  0  0  0
    5.9454  -11.7309   26.2809 C   0  0  1  0  0  0  0  0  0  0  0  0
    7.1295  -12.6693   26.5589 C   0  0  0  0  0  0  0  0  0  0  0  0
    8.1102  -11.8876   27.4051 C   0  0  0  0  0  0  0  0  0  0  0  0
    7.6910  -13.0489   25.2343 C   0  0  2  0  0  0  0  0  0  0  0  0
    8.7752  -14.0661   25.2525 N   0  0  0  0  0  0  0  0  0  0  0  0
    9.2110  -14.4818   23.9352 C   0  0  0  0  0  0  0  0  0  0  0  0
    8.5295  -15.2270   26.1419 O   0  0  0  0  0  0  0  0  0  0  0  0
    9.4285  -15.5064   27.1739 O   0  0  0  0  0  0  0  0  0  0  0  0
  2  1  1  0
  3  2  2  0
  4  2  1  0
  5  4  1  0
  6  5  1  0
  7  6  1  0
  8 10  1  0
  8  7  1  0
  8  9  1  6
 10 11  2  0
 13 12  1  1
 13 14  1  0
 15 13  1  0
 16 10  1  0
 15 16  1  1
 17 18  2  0
 17 15  1  0
 20 19  1  1
 20 21  1  0
 20 22  1  0
 23 22  1  6
 23 24  1  0
 24 17  1  0
 25 26  1  0
 25 23  1  0
 27 25  2  0
M  END
$$$$
