RTL.pdb
     RDKit          3D

 27 26  0  0  1  0  0  0  0  0999 V2000
   15.1509  -19.7620   21.0633 N   0  0  0  0  0  0  0  0  0  0  0  0
   15.4938  -19.8305   19.6779 C   0  0  0  0  0  0  0  0  0  0  0  0
   16.0664  -20.8868   19.2424 N   0  0  0  0  0  0  0  0  0  0  0  0
   15.2058  -18.7460   18.7979 N   0  0  0  0  0  0  0  0  0  0  0  0
   13.9330  -17.9973   18.9609 C   0  0  0  0  0  0  0  0  0  0  0  0
   12.8267  -18.9805   19.2082 C   0  0  0  0  0  0  0  0  0  0  0  0
   11.8647  -18.6463   20.2815 C   0  0  0  0  0  0  0  0  0  0  0  0
   10.4282  -18.4781   19.9258 C   0  0  2  0  0  0  0  0  0  0  0  0
   10.2691  -18.6961   18.4966 N   0  0  0  0  0  0  0  0  0  0  0  0
    9.8946  -17.1747   20.3484 C   0  0  0  0  0  0  0  0  0  0  0  0
   10.2038  -16.1224   19.7293 O   0  0  0  0  0  0  0  0  0  0  0  0
   16.3951  -20.9506   18.2690 C   0  0  0  0  0  0  0  0  0  0  0  0
    6.7543  -14.0026   21.8079 C   0  0  2  0  0  0  0  0  0  0  0  0
    7.1625  -15.4046   21.4708 O   0  0  0  0  0  0  0  0  0  0  0  0
    7.1263  -15.6303   20.0930 C   0  0  1  0  0  0  0  0  0  0  0  0
    8.5207  -15.7757   21.9561 N   0  0  0  0  0  0  0  0  0  0  0  0
    9.0056  -17.0432   21.4811 C   0  0  0  0  0  0  0  0  0  0  0  0
    8.6680  -15.6518   23.4426 O   0  0  0  0  0  0  0  0  0  0  0  0
    8.5412  -16.6501   24.1960 C   0  0  0  0  0  0  0  0  0  0  0  0
    5.5637  -11.9697   26.5046 C   0  0  1  0  0  0  0  0  0  0  0  0
    6.8716  -12.7298   26.7726 C   0  0  0  0  0  0  0  0  0  0  0  0
    7.7210  -11.8326   27.6457 C   0  0  0  0  0  0  0  0  0  0  0  0
    7.4912  -12.9907   25.4451 C   0  0  2  0  0  0  0  0  0  0  0  0
    8.5316  -14.0520   25.4080 N   0  0  0  0  0  0  0  0  0  0  0  0
    8.9554  -14.4108   24.0702 C   0  0  0  0  0  0  0  0  0  0  0  0
    8.2334  -15.2499   26.2297 O   0  0  0  0  0  0  0  0  0  0  0  0
    9.1464  -15.6619   27.2034 O   0  0  0  0  0  0  0  0  0  0  0  0
  2  1  1  0
  3  2  2  0
  4  2  1  0
  5  4  1  0
  6  5  1  0
  7  6  1  0
  8 10  1  0
  8  7  1  0
  8  9  1  6
 10 11  2  0
 13 12  1  1
 13 14  1  0
 15 13  1  0
 16 10  1  0
 15 16  1  1
 17 18  2  0
 17 15  1  0
 20 19  1  1
 20 21  1  0
 20 22  1  0
 23 22  1  1
 23 24  1  0
 24 17  1  0
 25 26  1  0
 25 23  1  0
 27 25  2  0
M  END
$$$$
