RTL.pdb
     RDKit          3D

 27 26  0  0  1  0  0  0  0  0999 V2000
    8.7575  -13.4076   14.4298 N   0  0  0  0  0  0  0  0  0  0  0  0
    7.9479  -14.4378   14.9998 C   0  0  0  0  0  0  0  0  0  0  0  0
    8.0259  -15.6161   14.5110 N   0  0  0  0  0  0  0  0  0  0  0  0
    7.0707  -14.1610   16.0894 N   0  0  0  0  0  0  0  0  0  0  0  0
    7.3073  -12.9545   16.9234 C   0  0  0  0  0  0  0  0  0  0  0  0
    8.2580  -13.3137   18.0274 C   0  0  0  0  0  0  0  0  0  0  0  0
    7.7765  -14.2873   19.0322 C   0  0  0  0  0  0  0  0  0  0  0  0
    8.4760  -15.5970   19.1497 C   0  0  2  0  0  0  0  0  0  0  0  0
    8.1112  -16.4285   18.0135 N   0  0  0  0  0  0  0  0  0  0  0  0
    8.2055  -16.2642   20.4318 C   0  0  0  0  0  0  0  0  0  0  0  0
    7.4749  -17.2889   20.4815 O   0  0  0  0  0  0  0  0  0  0  0  0
    7.5330  -16.4069   14.9483 C   0  0  0  0  0  0  0  0  0  0  0  0
    8.3859  -18.6542   24.1258 C   0  0  2  0  0  0  0  0  0  0  0  0
    8.8102  -17.9280   22.8854 O   0  0  0  0  0  0  0  0  0  0  0  0
    8.1599  -18.4256   21.7539 C   0  0  1  0  0  0  0  0  0  0  0  0
    8.5783  -16.4576   22.9324 N   0  0  0  0  0  0  0  0  0  0  0  0
    8.7557  -15.7785   21.6776 C   0  0  0  0  0  0  0  0  0  0  0  0
    9.3305  -15.7790   24.0371 O   0  0  0  0  0  0  0  0  0  0  0  0
   10.1518  -14.8580   23.7969 C   0  0  0  0  0  0  0  0  0  0  0  0
    6.3968  -12.3320   26.6979 C   0  0  1  0  0  0  0  0  0  0  0  0
    7.6213  -13.1333   27.1656 C   0  0  0  0  0  0  0  0  0  0  0  0
    8.7644  -12.1486   27.2776 C   0  0  0  0  0  0  0  0  0  0  0  0
    7.8643  -14.1785   26.1347 C   0  0  2  0  0  0  0  0  0  0  0  0
    8.8945  -15.1970   26.4686 N   0  0  0  0  0  0  0  0  0  0  0  0
    9.1554  -16.1390   25.3996 C   0  0  0  0  0  0  0  0  0  0  0  0
    8.6992  -15.8821   27.7692 O   0  0  0  0  0  0  0  0  0  0  0  0
    9.4516  -15.4845   28.8770 O   0  0  0  0  0  0  0  0  0  0  0  0
  2  1  1  0
  3  2  2  0
  4  2  1  0
  5  4  1  0
  6  5  1  0
  7  6  1  0
  8 10  1  0
  8  7  1  0
  8  9  1  6
 10 11  2  0
 13 12  1  6
 13 14  1  0
 15 13  1  0
 16 10  1  0
 15 16  1  6
 17 18  2  0
 17 15  1  0
 20 19  1  1
 20 21  1  0
 20 22  1  0
 23 22  1  6
 23 24  1  0
 24 17  1  0
 25 26  1  0
 25 23  1  0
 27 25  2  0
M  END
$$$$
