RTL.pdb
     RDKit          3D

 27 26  0  0  1  0  0  0  0  0999 V2000
   15.9330  -12.9882   19.3972 N   0  0  0  0  0  0  0  0  0  0  0  0
   15.5089  -14.3513   19.4576 C   0  0  0  0  0  0  0  0  0  0  0  0
   15.5751  -14.9620   20.5783 N   0  0  0  0  0  0  0  0  0  0  0  0
   15.0228  -15.0190   18.2951 N   0  0  0  0  0  0  0  0  0  0  0  0
   13.5653  -15.0075   18.0075 C   0  0  0  0  0  0  0  0  0  0  0  0
   12.8394  -14.5252   19.2290 C   0  0  0  0  0  0  0  0  0  0  0  0
   11.3725  -14.3686   19.1150 C   0  0  0  0  0  0  0  0  0  0  0  0
   10.5231  -15.5920   19.0978 C   0  0  2  0  0  0  0  0  0  0  0  0
   10.0739  -15.8333   17.7356 N   0  0  0  0  0  0  0  0  0  0  0  0
    9.3999  -15.5083   20.0430 C   0  0  0  0  0  0  0  0  0  0  0  0
    8.2111  -15.4832   19.6279 O   0  0  0  0  0  0  0  0  0  0  0  0
   15.2356  -15.9287   20.6779 C   0  0  0  0  0  0  0  0  0  0  0  0
    7.2090  -17.0056   20.8314 C   0  0  2  0  0  0  0  0  0  0  0  0
    7.7051  -16.8220   22.2336 O   0  0  0  0  0  0  0  0  0  0  0  0
    8.4486  -17.9243   22.6612 C   0  0  2  0  0  0  0  0  0  0  0  0
    8.5433  -15.6063   22.4276 N   0  0  0  0  0  0  0  0  0  0  0  0
    9.6066  -15.4479   21.4728 C   0  0  0  0  0  0  0  0  0  0  0  0
    9.0384  -15.4520   23.8339 O   0  0  0  0  0  0  0  0  0  0  0  0
   10.2544  -15.5994   24.1170 C   0  0  0  0  0  0  0  0  0  0  0  0
    8.1182  -11.7647   26.3070 C   0  0  1  0  0  0  0  0  0  0  0  0
    7.0501  -12.8689   26.3246 C   0  0  0  0  0  0  0  0  0  0  0  0
    5.8482  -12.2952   27.0423 C   0  0  0  0  0  0  0  0  0  0  0  0
    7.6477  -14.0268   27.0431 C   0  0  2  0  0  0  0  0  0  0  0  0
    8.6023  -14.8570   26.2622 N   0  0  0  0  0  0  0  0  0  0  0  0
    8.1666  -15.1346   24.9089 C   0  0  0  0  0  0  0  0  0  0  0  0
    9.0737  -16.0832   26.9502 O   0  0  0  0  0  0  0  0  0  0  0  0
    8.8438  -17.3316   26.3672 O   0  0  0  0  0  0  0  0  0  0  0  0
  2  1  1  0
  3  2  2  0
  4  2  1  0
  5  4  1  0
  6  5  1  0
  7  6  1  0
  8 10  1  0
  8  7  1  0
  8  9  1  6
 10 11  2  0
 13 12  1  1
 13 14  1  0
 15 13  1  0
 16 10  1  0
 15 16  1  1
 17 18  2  0
 17 15  1  0
 20 19  1  6
 20 21  1  0
 20 22  1  0
 23 22  1  6
 23 24  1  0
 24 17  1  0
 25 26  1  0
 25 23  1  0
 27 25  2  0
M  END
$$$$
