IGY.pdb
     RDKit          3D

 25 25  0  0  1  0  0  0  0  0999 V2000
   34.0244  -33.4460  -18.8055 C   0  0  0  0  0  0  0  0  0  0  0  0
   33.2147  -33.2318  -17.5444 C   0  0  0  0  0  0  0  0  0  0  0  0
   32.0169  -32.3590  -17.8478 C   0  0  2  0  0  0  0  0  0  0  0  0
   32.4348  -30.9414  -18.1087 C   0  0  0  0  0  0  0  0  0  0  0  0
   31.0536  -32.4420  -16.6649 C   0  0  2  0  0  0  0  0  0  0  0  0
   30.8974  -33.8159  -16.2778 N   0  0  0  0  0  0  0  0  0  0  0  0
   29.7474  -31.8180  -17.0362 C   0  0  0  0  0  0  0  0  0  0  0  0
   29.1432  -32.2343  -18.0550 O   0  0  0  0  0  0  0  0  0  0  0  0
   29.1714  -30.7768  -16.2794 N   0  0  0  0  0  0  0  0  0  0  0  0
   28.0292  -30.0333  -16.7647 C   0  0  0  0  0  0  0  0  0  0  0  0
   26.8192  -30.8807  -16.8584 C   0  0  0  0  0  0  0  0  0  0  0  0
   26.9612  -32.1102  -17.0427 O   0  0  0  0  0  0  0  0  0  0  0  0
   27.1771  -36.0284  -13.5519 O   0  0  0  0  0  0  0  0  0  0  0  0
   26.3996  -34.9604  -14.0040 C   0  0  0  0  0  0  0  0  0  0  0  0
   25.3128  -35.1976  -14.8073 C   0  0  0  0  0  0  0  0  0  0  0  0
   24.5366  -34.1304  -15.2586 C   0  0  0  0  0  0  0  0  0  0  0  0
   24.8332  -32.8290  -14.9169 C   0  0  0  0  0  0  0  0  0  0  0  0
   23.9806  -31.7485  -15.4218 C   0  0  0  0  0  0  0  0  0  0  0  0
   24.3928  -31.2503  -16.7891 C   0  0  2  0  0  0  0  0  0  0  0  0
   25.5081  -30.3593  -16.7484 N   0  0  0  0  0  0  0  0  0  0  0  0
   23.2302  -30.5363  -17.3586 C   0  0  0  0  0  0  0  0  0  0  0  0
   22.0584  -31.2370  -17.5651 O   0  0  0  0  0  0  0  0  0  0  0  0
   25.9302  -32.6280  -14.1099 C   0  0  0  0  0  0  0  0  0  0  0  0
   26.7146  -33.6733  -13.6505 C   0  0  0  0  0  0  0  0  0  0  0  0
   23.2403  -29.3163  -17.6709 O   0  0  0  0  0  0  0  0  0  0  0  0
  2  1  1  0
  2  3  1  0
  3  4  1  1
  5  3  1  0
  5  6  1  6
  7  5  1  0
  7  9  1  0
  8  7  2  0
 10  9  1  0
 11 10  1  0
 12 11  2  0
 13 14  1  0
 14 24  2  0
 14 15  1  0
 15 16  2  0
 16 17  1  0
 17 18  1  0
 19 18  1  1
 19 20  1  0
 20 11  1  0
 21 22  1  0
 21 19  1  0
 23 17  2  0
 24 23  1  0
 25 21  2  0
M  END
$$$$
