IGY.pdb
     RDKit          3D

 25 25  0  0  1  0  0  0  0  0999 V2000
   27.2126  -16.6857  -17.5907 C   0  0  0  0  0  0  0  0  0  0  0  0
   27.8071  -17.7997  -16.7554 C   0  0  0  0  0  0  0  0  0  0  0  0
   26.8855  -18.1194  -15.5991 C   0  0  2  0  0  0  0  0  0  0  0  0
   26.6554  -16.9089  -14.7423 C   0  0  0  0  0  0  0  0  0  0  0  0
   27.5090  -19.2569  -14.7920 C   0  0  2  0  0  0  0  0  0  0  0  0
   27.8550  -20.3318  -15.6790 N   0  0  0  0  0  0  0  0  0  0  0  0
   26.5562  -19.6994  -13.7291 C   0  0  0  0  0  0  0  0  0  0  0  0
   26.2495  -18.8951  -12.8151 O   0  0  0  0  0  0  0  0  0  0  0  0
   25.9904  -20.9910  -13.7192 N   0  0  0  0  0  0  0  0  0  0  0  0
   25.0944  -21.4149  -12.6654 C   0  0  0  0  0  0  0  0  0  0  0  0
   25.7913  -21.5372  -11.3653 C   0  0  0  0  0  0  0  0  0  0  0  0
   26.2240  -22.6595  -11.0203 O   0  0  0  0  0  0  0  0  0  0  0  0
   29.1541  -20.1537   -3.3660 O   0  0  0  0  0  0  0  0  0  0  0  0
   28.7232  -20.0007   -4.6853 C   0  0  0  0  0  0  0  0  0  0  0  0
   29.4457  -20.5586   -5.7097 C   0  0  0  0  0  0  0  0  0  0  0  0
   29.0148  -20.4055   -7.0273 C   0  0  0  0  0  0  0  0  0  0  0  0
   27.8706  -19.7017   -7.3336 C   0  0  0  0  0  0  0  0  0  0  0  0
   27.4676  -19.5743   -8.7374 C   0  0  0  0  0  0  0  0  0  0  0  0
   26.5212  -20.6642   -9.1894 C   0  0  2  0  0  0  0  0  0  0  0  0
   25.9892  -20.4385  -10.4953 N   0  0  0  0  0  0  0  0  0  0  0  0
   25.4071  -20.7007   -8.2183 C   0  0  0  0  0  0  0  0  0  0  0  0
   24.2071  -20.1115   -8.5641 O   0  0  0  0  0  0  0  0  0  0  0  0
   27.1707  -19.1557   -6.2814 C   0  0  0  0  0  0  0  0  0  0  0  0
   27.5808  -19.2956   -4.9656 C   0  0  0  0  0  0  0  0  0  0  0  0
   25.4833  -21.2409   -7.0832 O   0  0  0  0  0  0  0  0  0  0  0  0
  2  1  1  0
  2  3  1  0
  3  4  1  1
  5  3  1  0
  5  6  1  6
  7  5  1  0
  7  9  1  0
  8  7  2  0
 10  9  1  0
 11 10  1  0
 12 11  2  0
 13 14  1  0
 14 24  2  0
 14 15  1  0
 15 16  2  0
 16 17  1  0
 17 18  1  0
 19 18  1  1
 19 20  1  0
 20 11  1  0
 21 22  1  0
 21 19  1  0
 23 17  2  0
 24 23  1  0
 25 21  2  0
M  END
$$$$
