IGY.pdb
     RDKit          3D

 25 25  0  0  1  0  0  0  0  0999 V2000
   24.4647  -15.8891  -16.1036 C   0  0  0  0  0  0  0  0  0  0  0  0
   25.7889  -16.5695  -16.3787 C   0  0  0  0  0  0  0  0  0  0  0  0
   26.0720  -17.5922  -15.3005 C   0  0  2  0  0  0  0  0  0  0  0  0
   26.2485  -16.9322  -13.9642 C   0  0  0  0  0  0  0  0  0  0  0  0
   27.3225  -18.3736  -15.7000 C   0  0  2  0  0  0  0  0  0  0  0  0
   27.2510  -18.6984  -17.0970 N   0  0  0  0  0  0  0  0  0  0  0  0
   27.4424  -19.5977  -14.8512 C   0  0  0  0  0  0  0  0  0  0  0  0
   26.8452  -20.6437  -15.2057 O   0  0  0  0  0  0  0  0  0  0  0  0
   28.2044  -19.6162  -13.6648 N   0  0  0  0  0  0  0  0  0  0  0  0
   28.4396  -20.8445  -12.9375 C   0  0  0  0  0  0  0  0  0  0  0  0
   27.3312  -21.1550  -12.0069 C   0  0  0  0  0  0  0  0  0  0  0  0
   27.3844  -22.2149  -11.3437 O   0  0  0  0  0  0  0  0  0  0  0  0
   28.6114  -20.2107   -5.7612 O   0  0  0  0  0  0  0  0  0  0  0  0
   27.6687  -20.1079   -6.7861 C   0  0  0  0  0  0  0  0  0  0  0  0
   26.8506  -21.1718   -7.0719 C   0  0  0  0  0  0  0  0  0  0  0  0
   25.9092  -21.0686   -8.0957 C   0  0  0  0  0  0  0  0  0  0  0  0
   25.7752  -19.9152   -8.8373 C   0  0  0  0  0  0  0  0  0  0  0  0
   24.7676  -19.8659   -9.9011 C   0  0  0  0  0  0  0  0  0  0  0  0
   25.0936  -20.7610  -11.0760 C   0  0  2  0  0  0  0  0  0  0  0  0
   26.2135  -20.3040  -11.8350 N   0  0  0  0  0  0  0  0  0  0  0  0
   23.9003  -20.7821  -11.9486 C   0  0  0  0  0  0  0  0  0  0  0  0
   22.7011  -21.2182  -11.4208 O   0  0  0  0  0  0  0  0  0  0  0  0
   26.6120  -18.8682   -8.5234 C   0  0  0  0  0  0  0  0  0  0  0  0
   27.5538  -18.9493   -7.5107 C   0  0  0  0  0  0  0  0  0  0  0  0
   23.9077  -20.4239  -13.1559 O   0  0  0  0  0  0  0  0  0  0  0  0
  2  1  1  0
  2  3  1  0
  3  4  1  1
  5  3  1  0
  5  6  1  6
  7  5  1  0
  7  9  1  0
  8  7  2  0
 10  9  1  0
 11 10  1  0
 12 11  2  0
 13 14  1  0
 14 24  2  0
 14 15  1  0
 15 16  2  0
 16 17  1  0
 17 18  1  0
 19 18  1  1
 19 20  1  0
 20 11  1  0
 21 22  1  0
 21 19  1  0
 23 17  2  0
 24 23  1  0
 25 21  2  0
M  END
$$$$
