IGY.pdb
     RDKit          3D

 25 25  0  0  1  0  0  0  0  0999 V2000
   19.6577  -22.4879  -16.4508 C   0  0  0  0  0  0  0  0  0  0  0  0
   19.6727  -20.9759  -16.3764 C   0  0  0  0  0  0  0  0  0  0  0  0
   20.7477  -20.5220  -15.4136 C   0  0  2  0  0  0  0  0  0  0  0  0
   22.0060  -21.3195  -15.5953 C   0  0  0  0  0  0  0  0  0  0  0  0
   20.2057  -20.6617  -13.9921 C   0  0  2  0  0  0  0  0  0  0  0  0
   18.9768  -19.9273  -13.8803 N   0  0  0  0  0  0  0  0  0  0  0  0
   21.2296  -20.1823  -13.0148 C   0  0  0  0  0  0  0  0  0  0  0  0
   21.6153  -18.9890  -13.0754 O   0  0  0  0  0  0  0  0  0  0  0  0
   21.7767  -21.0265  -12.0266 N   0  0  0  0  0  0  0  0  0  0  0  0
   22.8500  -20.5827  -11.1641 C   0  0  0  0  0  0  0  0  0  0  0  0
   24.1771  -20.7803  -11.7891 C   0  0  0  0  0  0  0  0  0  0  0  0
   24.2432  -21.4068  -12.8703 O   0  0  0  0  0  0  0  0  0  0  0  0
   27.6886  -19.9035   -5.6581 O   0  0  0  0  0  0  0  0  0  0  0  0
   27.7135  -19.8489   -7.0531 C   0  0  0  0  0  0  0  0  0  0  0  0
   26.8895  -18.9762   -7.7181 C   0  0  0  0  0  0  0  0  0  0  0  0
   26.9148  -18.9221   -9.1114 C   0  0  0  0  0  0  0  0  0  0  0  0
   27.7535  -19.7293   -9.8485 C   0  0  0  0  0  0  0  0  0  0  0  0
   27.7357  -19.6277  -11.3109 C   0  0  0  0  0  0  0  0  0  0  0  0
   26.5958  -20.3892  -11.9498 C   0  0  2  0  0  0  0  0  0  0  0  0
   25.3748  -20.2907  -11.2158 N   0  0  0  0  0  0  0  0  0  0  0  0
   27.0040  -21.8088  -12.0116 C   0  0  0  0  0  0  0  0  0  0  0  0
   28.0499  -22.1620  -12.8411 O   0  0  0  0  0  0  0  0  0  0  0  0
   28.5662  -20.5925   -9.1487 C   0  0  0  0  0  0  0  0  0  0  0  0
   28.5571  -20.6625   -7.7652 C   0  0  0  0  0  0  0  0  0  0  0  0
   26.4527  -22.7268  -11.3487 O   0  0  0  0  0  0  0  0  0  0  0  0
  2  1  1  0
  2  3  1  0
  3  4  1  1
  5  3  1  0
  5  6  1  6
  7  5  1  0
  7  9  1  0
  8  7  2  0
 10  9  1  0
 11 10  1  0
 12 11  2  0
 13 14  1  0
 14 24  2  0
 14 15  1  0
 15 16  2  0
 16 17  1  0
 17 18  1  0
 19 18  1  1
 19 20  1  0
 20 11  1  0
 21 22  1  0
 21 19  1  0
 23 17  2  0
 24 23  1  0
 25 21  2  0
M  END
$$$$
