IGY.pdb
     RDKit          3D

 25 25  0  0  1  0  0  0  0  0999 V2000
   22.2804  -23.6663  -16.8036 C   0  0  0  0  0  0  0  0  0  0  0  0
   22.1775  -22.1605  -16.9228 C   0  0  0  0  0  0  0  0  0  0  0  0
   20.7358  -21.7320  -16.7602 C   0  0  2  0  0  0  0  0  0  0  0  0
   19.8798  -22.2912  -17.8588 C   0  0  0  0  0  0  0  0  0  0  0  0
   20.6901  -20.2050  -16.7474 C   0  0  2  0  0  0  0  0  0  0  0  0
   21.1913  -19.7063  -17.9973 N   0  0  0  0  0  0  0  0  0  0  0  0
   21.4785  -19.6886  -15.5876 C   0  0  0  0  0  0  0  0  0  0  0  0
   21.1397  -20.0228  -14.4258 O   0  0  0  0  0  0  0  0  0  0  0  0
   22.5908  -18.8382  -15.7557 N   0  0  0  0  0  0  0  0  0  0  0  0
   23.3546  -18.3614  -14.6234 C   0  0  0  0  0  0  0  0  0  0  0  0
   24.6286  -19.0987  -14.4680 C   0  0  0  0  0  0  0  0  0  0  0  0
   25.6265  -18.4852  -14.0278 O   0  0  0  0  0  0  0  0  0  0  0  0
   24.0236  -20.2997   -8.4947 O   0  0  0  0  0  0  0  0  0  0  0  0
   24.4998  -20.7710   -9.7197 C   0  0  0  0  0  0  0  0  0  0  0  0
   23.6150  -21.1209  -10.7084 C   0  0  0  0  0  0  0  0  0  0  0  0
   24.0913  -21.5915  -11.9318 C   0  0  0  0  0  0  0  0  0  0  0  0
   25.4409  -21.7168  -12.1793 C   0  0  0  0  0  0  0  0  0  0  0  0
   25.8818  -22.2174  -13.4848 C   0  0  0  0  0  0  0  0  0  0  0  0
   26.0026  -21.1327  -14.5319 C   0  0  2  0  0  0  0  0  0  0  0  0
   24.7663  -20.4685  -14.7962 N   0  0  0  0  0  0  0  0  0  0  0  0
   26.4730  -21.7808  -15.7747 C   0  0  0  0  0  0  0  0  0  0  0  0
   27.6912  -22.4310  -15.7628 O   0  0  0  0  0  0  0  0  0  0  0  0
   26.2995  -21.3567  -11.1653 C   0  0  0  0  0  0  0  0  0  0  0  0
   25.8479  -20.8870   -9.9427 C   0  0  0  0  0  0  0  0  0  0  0  0
   25.8267  -21.7778  -16.8555 O   0  0  0  0  0  0  0  0  0  0  0  0
  2  1  1  0
  2  3  1  0
  3  4  1  6
  5  3  1  0
  5  6  1  6
  7  5  1  0
  7  9  1  0
  8  7  2  0
 10  9  1  0
 11 10  1  0
 12 11  2  0
 13 14  1  0
 14 24  2  0
 14 15  1  0
 15 16  2  0
 16 17  1  0
 17 18  1  0
 19 18  1  1
 19 20  1  0
 20 11  1  0
 21 22  1  0
 21 19  1  0
 23 17  2  0
 24 23  1  0
 25 21  2  0
M  END
$$$$
