IGY.pdb
     RDKit          3D

 25 25  0  0  1  0  0  0  0  0999 V2000
   13.8283  -23.2670    1.8183 C   0  0  0  0  0  0  0  0  0  0  0  0
   14.9800  -22.9166    2.7364 C   0  0  0  0  0  0  0  0  0  0  0  0
   15.3088  -21.4458    2.6058 C   0  0  2  0  0  0  0  0  0  0  0  0
   15.8208  -21.1276    1.2314 C   0  0  0  0  0  0  0  0  0  0  0  0
   16.3402  -21.0902    3.6754 C   0  0  2  0  0  0  0  0  0  0  0  0
   15.8141  -21.4240    4.9692 N   0  0  0  0  0  0  0  0  0  0  0  0
   16.6884  -19.6404    3.5750 C   0  0  0  0  0  0  0  0  0  0  0  0
   17.2752  -19.2264    2.5451 O   0  0  0  0  0  0  0  0  0  0  0  0
   16.3793  -18.7220    4.5995 N   0  0  0  0  0  0  0  0  0  0  0  0
   16.7135  -17.3193    4.4822 C   0  0  0  0  0  0  0  0  0  0  0  0
   17.5093  -16.8438    5.6362 C   0  0  0  0  0  0  0  0  0  0  0  0
   18.5232  -17.4947    5.9741 O   0  0  0  0  0  0  0  0  0  0  0  0
   21.9820  -10.6434    6.1796 O   0  0  0  0  0  0  0  0  0  0  0  0
   20.9493  -11.4614    6.6421 C   0  0  0  0  0  0  0  0  0  0  0  0
   19.7596  -11.5121    5.9604 C   0  0  0  0  0  0  0  0  0  0  0  0
   18.7285  -12.3294    6.4229 C   0  0  0  0  0  0  0  0  0  0  0  0
   18.8716  -13.0965    7.5584 C   0  0  0  0  0  0  0  0  0  0  0  0
   17.7524  -13.9362    7.9960 C   0  0  0  0  0  0  0  0  0  0  0  0
   17.8875  -15.3818    7.5723 C   0  0  2  0  0  0  0  0  0  0  0  0
   17.1722  -15.6840    6.3738 N   0  0  0  0  0  0  0  0  0  0  0  0
   17.3480  -16.2082    8.6731 C   0  0  0  0  0  0  0  0  0  0  0  0
   18.0125  -16.2150    9.8835 O   0  0  0  0  0  0  0  0  0  0  0  0
   20.0781  -13.0210    8.2170 C   0  0  0  0  0  0  0  0  0  0  0  0
   21.1153  -12.2160    7.7751 C   0  0  0  0  0  0  0  0  0  0  0  0
   16.3095  -16.9140    8.5765 O   0  0  0  0  0  0  0  0  0  0  0  0
  2  1  1  0
  2  3  1  0
  3  4  1  6
  5  3  1  0
  5  6  1  1
  7  5  1  0
  7  9  1  0
  8  7  2  0
 10  9  1  0
 11 10  1  0
 12 11  2  0
 13 14  1  0
 14 24  2  0
 14 15  1  0
 15 16  2  0
 16 17  1  0
 17 18  1  0
 19 18  1  1
 19 20  1  0
 20 11  1  0
 21 22  1  0
 21 19  1  0
 23 17  2  0
 24 23  1  0
 25 21  2  0
M  END
$$$$
