IGY.pdb
     RDKit          3D

 25 25  0  0  1  0  0  0  0  0999 V2000
   20.8097  -20.4811  -15.6152 C   0  0  0  0  0  0  0  0  0  0  0  0
   21.8152  -21.3463  -16.3449 C   0  0  0  0  0  0  0  0  0  0  0  0
   23.1868  -20.7130  -16.2667 C   0  0  2  0  0  0  0  0  0  0  0  0
   23.1597  -19.3027  -16.7792 C   0  0  0  0  0  0  0  0  0  0  0  0
   24.1574  -21.5749  -17.0724 C   0  0  2  0  0  0  0  0  0  0  0  0
   24.1311  -22.9177  -16.5645 N   0  0  0  0  0  0  0  0  0  0  0  0
   25.5282  -20.9833  -17.0062 C   0  0  0  0  0  0  0  0  0  0  0  0
   25.7283  -19.8550  -17.5194 O   0  0  0  0  0  0  0  0  0  0  0  0
   26.6043  -21.6511  -16.3861 N   0  0  0  0  0  0  0  0  0  0  0  0
   27.8959  -21.0186  -16.2294 C   0  0  0  0  0  0  0  0  0  0  0  0
   28.0529  -20.4102  -14.8892 C   0  0  0  0  0  0  0  0  0  0  0  0
   28.3537  -19.1980  -14.8126 O   0  0  0  0  0  0  0  0  0  0  0  0
   21.7180  -21.0891  -11.8087 O   0  0  0  0  0  0  0  0  0  0  0  0
   23.0459  -20.6646  -11.8860 C   0  0  0  0  0  0  0  0  0  0  0  0
   23.5787  -20.3025  -13.0975 C   0  0  0  0  0  0  0  0  0  0  0  0
   24.9051  -19.8786  -13.1741 C   0  0  0  0  0  0  0  0  0  0  0  0
   25.7057  -19.8120  -12.0547 C   0  0  0  0  0  0  0  0  0  0  0  0
   27.0926  -19.3586  -12.1974 C   0  0  0  0  0  0  0  0  0  0  0  0
   28.0699  -20.4881  -12.4351 C   0  0  2  0  0  0  0  0  0  0  0  0
   27.8772  -21.1414  -13.6902 N   0  0  0  0  0  0  0  0  0  0  0  0
   27.8694  -21.4703  -11.3484 C   0  0  0  0  0  0  0  0  0  0  0  0
   27.3554  -22.7124  -11.6643 O   0  0  0  0  0  0  0  0  0  0  0  0
   25.1385  -20.1825  -10.8563 C   0  0  0  0  0  0  0  0  0  0  0  0
   23.8234  -20.6065  -10.7578 C   0  0  0  0  0  0  0  0  0  0  0  0
   28.1405  -21.2441  -10.1395 O   0  0  0  0  0  0  0  0  0  0  0  0
  2  1  1  0
  2  3  1  0
  3  4  1  6
  5  3  1  0
  5  6  1  1
  7  5  1  0
  7  9  1  0
  8  7  2  0
 10  9  1  0
 11 10  1  0
 12 11  2  0
 13 14  1  0
 14 24  2  0
 14 15  1  0
 15 16  2  0
 16 17  1  0
 17 18  1  0
 19 18  1  1
 19 20  1  0
 20 11  1  0
 21 22  1  0
 21 19  1  0
 23 17  2  0
 24 23  1  0
 25 21  2  0
M  END
$$$$
