IGY.pdb
     RDKit          3D

 25 25  0  0  1  0  0  0  0  0999 V2000
   27.0628  -28.6560  -20.4968 C   0  0  0  0  0  0  0  0  0  0  0  0
   27.8159  -28.5158  -19.1909 C   0  0  0  0  0  0  0  0  0  0  0  0
   27.7603  -27.0792  -18.7203 C   0  0  2  0  0  0  0  0  0  0  0  0
   28.2997  -26.1478  -19.7662 C   0  0  0  0  0  0  0  0  0  0  0  0
   28.5567  -26.9712  -17.4209 C   0  0  2  0  0  0  0  0  0  0  0  0
   27.7535  -27.4532  -16.3325 N   0  0  0  0  0  0  0  0  0  0  0  0
   28.9844  -25.5549  -17.2103 C   0  0  0  0  0  0  0  0  0  0  0  0
   29.8041  -25.0423  -18.0114 O   0  0  0  0  0  0  0  0  0  0  0  0
   28.4974  -24.7753  -16.1409 N   0  0  0  0  0  0  0  0  0  0  0  0
   28.9070  -23.3994  -15.9616 C   0  0  0  0  0  0  0  0  0  0  0  0
   27.7456  -22.4899  -15.8399 C   0  0  0  0  0  0  0  0  0  0  0  0
   26.5943  -22.9772  -15.8930 O   0  0  0  0  0  0  0  0  0  0  0  0
   25.4039  -21.5854   -9.2439 O   0  0  0  0  0  0  0  0  0  0  0  0
   25.7979  -21.0393  -10.4671 C   0  0  0  0  0  0  0  0  0  0  0  0
   24.8560  -20.5203  -11.3193 C   0  0  0  0  0  0  0  0  0  0  0  0
   25.2501  -19.9749  -12.5409 C   0  0  0  0  0  0  0  0  0  0  0  0
   26.5739  -19.9418  -12.9213 C   0  0  0  0  0  0  0  0  0  0  0  0
   26.9276  -19.3557  -14.2177 C   0  0  0  0  0  0  0  0  0  0  0  0
   26.7259  -20.3044  -15.3783 C   0  0  2  0  0  0  0  0  0  0  0  0
   27.8819  -21.0919  -15.6661 N   0  0  0  0  0  0  0  0  0  0  0  0
   26.4022  -19.4790  -16.5614 C   0  0  0  0  0  0  0  0  0  0  0  0
   27.3355  -19.3777  -17.5740 O   0  0  0  0  0  0  0  0  0  0  0  0
   27.4915  -20.4711  -12.0421 C   0  0  0  0  0  0  0  0  0  0  0  0
   27.1218  -21.0175  -10.8239 C   0  0  0  0  0  0  0  0  0  0  0  0
   25.3177  -18.8554  -16.7063 O   0  0  0  0  0  0  0  0  0  0  0  0
  2  1  1  0
  2  3  1  0
  3  4  1  6
  5  3  1  0
  5  6  1  1
  7  5  1  0
  7  9  1  0
  8  7  2  0
 10  9  1  0
 11 10  1  0
 12 11  2  0
 13 14  1  0
 14 24  2  0
 14 15  1  0
 15 16  2  0
 16 17  1  0
 17 18  1  0
 19 18  1  1
 19 20  1  0
 20 11  1  0
 21 22  1  0
 21 19  1  0
 23 17  2  0
 24 23  1  0
 25 21  2  0
M  END
$$$$
