IGY.pdb
     RDKit          3D

 25 25  0  0  1  0  0  0  0  0999 V2000
   26.6460  -36.4061  -15.2022 C   0  0  0  0  0  0  0  0  0  0  0  0
   26.2605  -35.3187  -14.2219 C   0  0  0  0  0  0  0  0  0  0  0  0
   24.8763  -34.8031  -14.5484 C   0  0  2  0  0  0  0  0  0  0  0  0
   24.8720  -34.0566  -15.8503 C   0  0  0  0  0  0  0  0  0  0  0  0
   24.4157  -33.9096  -13.3979 C   0  0  2  0  0  0  0  0  0  0  0  0
   25.2244  -32.7234  -13.3675 N   0  0  0  0  0  0  0  0  0  0  0  0
   24.4930  -34.6670  -12.1119 C   0  0  0  0  0  0  0  0  0  0  0  0
   23.8585  -35.7449  -12.0027 O   0  0  0  0  0  0  0  0  0  0  0  0
   25.2553  -34.2104  -11.0169 N   0  0  0  0  0  0  0  0  0  0  0  0
   25.3964  -35.0004   -9.8133 C   0  0  0  0  0  0  0  0  0  0  0  0
   26.6616  -34.7040   -9.1045 C   0  0  0  0  0  0  0  0  0  0  0  0
   27.5594  -34.0820   -9.7152 O   0  0  0  0  0  0  0  0  0  0  0  0
   23.5898  -33.4687   -2.7348 O   0  0  0  0  0  0  0  0  0  0  0  0
   24.6793  -33.4667   -3.6081 C   0  0  0  0  0  0  0  0  0  0  0  0
   24.5922  -32.8080   -4.8086 C   0  0  0  0  0  0  0  0  0  0  0  0
   25.6808  -32.8063   -5.6804 C   0  0  0  0  0  0  0  0  0  0  0  0
   26.8554  -33.4548   -5.3672 C   0  0  0  0  0  0  0  0  0  0  0  0
   27.9657  -33.4182   -6.3239 C   0  0  0  0  0  0  0  0  0  0  0  0
   28.1102  -34.6948   -7.1220 C   0  0  2  0  0  0  0  0  0  0  0  0
   26.8993  -35.0941   -7.7650 N   0  0  0  0  0  0  0  0  0  0  0  0
   28.5211  -35.7534   -6.1752 C   0  0  0  0  0  0  0  0  0  0  0  0
   27.6511  -36.7973   -5.9301 O   0  0  0  0  0  0  0  0  0  0  0  0
   26.9076  -34.1051   -4.1550 C   0  0  0  0  0  0  0  0  0  0  0  0
   25.8383  -34.1194   -3.2743 C   0  0  0  0  0  0  0  0  0  0  0  0
   29.6261  -35.7641   -5.5712 O   0  0  0  0  0  0  0  0  0  0  0  0
  2  1  1  0
  2  3  1  0
  3  4  1  6
  5  3  1  0
  5  6  1  1
  7  5  1  0
  7  9  1  0
  8  7  2  0
 10  9  1  0
 11 10  1  0
 12 11  2  0
 13 14  1  0
 14 24  2  0
 14 15  1  0
 15 16  2  0
 16 17  1  0
 17 18  1  0
 19 18  1  1
 19 20  1  0
 20 11  1  0
 21 22  1  0
 21 19  1  0
 23 17  2  0
 24 23  1  0
 25 21  2  0
M  END
$$$$
