IGY.pdb
     RDKit          3D

 25 25  0  0  1  0  0  0  0  0999 V2000
   22.4227  -20.1566  -19.6661 C   0  0  0  0  0  0  0  0  0  0  0  0
   23.6108  -19.2875  -20.0197 C   0  0  0  0  0  0  0  0  0  0  0  0
   23.8887  -18.3179  -18.8922 C   0  0  2  0  0  0  0  0  0  0  0  0
   22.6929  -17.4538  -18.6170 C   0  0  0  0  0  0  0  0  0  0  0  0
   25.1031  -17.4742  -19.2762 C   0  0  2  0  0  0  0  0  0  0  0  0
   25.6260  -17.9410  -20.5295 N   0  0  0  0  0  0  0  0  0  0  0  0
   26.1258  -17.5418  -18.1886 C   0  0  0  0  0  0  0  0  0  0  0  0
   25.8465  -17.0641  -17.0616 O   0  0  0  0  0  0  0  0  0  0  0  0
   27.3944  -18.1247  -18.3869 N   0  0  0  0  0  0  0  0  0  0  0  0
   28.3768  -18.1742  -17.3260 C   0  0  0  0  0  0  0  0  0  0  0  0
   27.9444  -19.0513  -16.2148 C   0  0  0  0  0  0  0  0  0  0  0  0
   28.2882  -20.2544  -16.2321 O   0  0  0  0  0  0  0  0  0  0  0  0
   24.2696  -21.9729   -8.7508 O   0  0  0  0  0  0  0  0  0  0  0  0
   24.9226  -21.2134   -9.7236 C   0  0  0  0  0  0  0  0  0  0  0  0
   24.2026  -20.3636  -10.5250 C   0  0  0  0  0  0  0  0  0  0  0  0
   24.8554  -19.6053  -11.4964 C   0  0  0  0  0  0  0  0  0  0  0  0
   26.2189  -19.6857  -11.6769 C   0  0  0  0  0  0  0  0  0  0  0  0
   26.8494  -18.8639  -12.7145 C   0  0  0  0  0  0  0  0  0  0  0  0
   26.7966  -19.4919  -14.0894 C   0  0  2  0  0  0  0  0  0  0  0  0
   27.1585  -18.5870  -15.1333 N   0  0  0  0  0  0  0  0  0  0  0  0
   25.4051  -19.9418  -14.3070 C   0  0  0  0  0  0  0  0  0  0  0  0
   25.0760  -21.2480  -14.0032 O   0  0  0  0  0  0  0  0  0  0  0  0
   26.9094  -20.5481  -10.8556 C   0  0  0  0  0  0  0  0  0  0  0  0
   26.2810  -21.3105   -9.8845 C   0  0  0  0  0  0  0  0  0  0  0  0
   24.4907  -19.2018  -14.7566 O   0  0  0  0  0  0  0  0  0  0  0  0
  2  1  1  0
  2  3  1  0
  3  4  1  6
  5  3  1  0
  5  6  1  6
  7  5  1  0
  7  9  1  0
  8  7  2  0
 10  9  1  0
 11 10  1  0
 12 11  2  0
 13 14  1  0
 14 24  2  0
 14 15  1  0
 15 16  2  0
 16 17  1  0
 17 18  1  0
 19 18  1  1
 19 20  1  0
 20 11  1  0
 21 22  1  0
 21 19  1  0
 23 17  2  0
 24 23  1  0
 25 21  2  0
M  END
$$$$
