AFF.pdb
     RDKit          3D

 28 29  0  0  1  0  0  0  0  0999 V2000
    8.4936    2.0519   20.4035 C   0  0  0  0  0  0  0  0  0  0  0  0
    8.2451    3.3266   19.6584 C   0  0  2  0  0  0  0  0  0  0  0  0
    8.5753    3.2294   18.2618 N   0  0  0  0  0  0  0  0  0  0  0  0
    8.9066    4.4909   20.3060 C   0  0  0  0  0  0  0  0  0  0  0  0
   10.0440    4.8300   19.8858 O   0  0  0  0  0  0  0  0  0  0  0  0
    8.3003    5.2077   21.3579 N   0  0  0  0  0  0  0  0  0  0  0  0
    8.9800    6.3200   22.0665 C   0  0  1  0  0  0  0  0  0  0  0  0
    8.1938    7.5708   21.8920 C   0  0  0  0  0  0  0  0  0  0  0  0
    8.7177    8.7869   22.5165 C   0  0  0  0  0  0  0  0  0  0  0  0
    9.7061    9.5677   21.9036 C   0  0  0  0  0  0  0  0  0  0  0  0
   10.1935   10.7302   22.4536 C   0  0  0  0  0  0  0  0  0  0  0  0
    9.7135   11.1760   23.6553 C   0  0  0  0  0  0  0  0  0  0  0  0
    8.7423   10.4343   24.2856 C   0  0  0  0  0  0  0  0  0  0  0  0
    8.2555    9.2710   23.7338 C   0  0  0  0  0  0  0  0  0  0  0  0
    9.2237    5.8672   23.4360 C   0  0  0  0  0  0  0  0  0  0  0  0
    8.2612    5.3563   24.1183 O   0  0  0  0  0  0  0  0  0  0  0  0
   10.4518    5.9155   24.1474 N   0  0  0  0  0  0  0  0  0  0  0  0
   10.5788    5.5185   25.5335 C   0  0  1  0  0  0  0  0  0  0  0  0
   11.8322    4.6287   25.6013 C   0  0  0  0  0  0  0  0  0  0  0  0
   11.6575    3.4009   24.8225 C   0  0  0  0  0  0  0  0  0  0  0  0
   11.5071    2.1496   25.3798 C   0  0  0  0  0  0  0  0  0  0  0  0
   11.3442    1.0133   24.5913 C   0  0  0  0  0  0  0  0  0  0  0  0
   11.3285    1.1088   23.2164 C   0  0  0  0  0  0  0  0  0  0  0  0
   11.4769    2.3465   22.6529 C   0  0  0  0  0  0  0  0  0  0  0  0
   11.6387    3.4723   23.4470 C   0  0  0  0  0  0  0  0  0  0  0  0
   10.6525    6.6227   26.4767 C   0  0  0  0  0  0  0  0  0  0  0  0
   10.7657    7.9422   26.0903 O   0  0  0  0  0  0  0  0  0  0  0  0
   10.6155    6.4180   27.7280 O   0  0  0  0  0  0  0  0  0  0  0  0
  2  1  1  1
  3  2  1  0
  4  2  1  0
  4  5  2  0
  6  4  1  0
  7  6  1  0
  7  8  1  1
  9 14  1  0
  9  8  1  0
 10  9  2  0
 11 12  2  0
 11 10  1  0
 12 13  1  0
 13 14  2  0
 15  7  1  0
 15 17  1  0
 16 15  2  0
 18 17  1  0
 18 26  1  0
 19 20  1  0
 18 19  1  6
 20 25  2  0
 21 22  2  0
 21 20  1  0
 22 23  1  0
 23 24  2  0
 25 24  1  0
 26 28  2  0
 26 27  1  0
M  END
$$$$
