AFF.pdb
     RDKit          3D

 28 29  0  0  1  0  0  0  0  0999 V2000
    9.7270  -19.1065   19.6645 C   0  0  0  0  0  0  0  0  0  0  0  0
    9.5059  -17.6566   19.3635 C   0  0  2  0  0  0  0  0  0  0  0  0
   10.3781  -17.1620   18.3321 N   0  0  0  0  0  0  0  0  0  0  0  0
    9.5627  -16.8160   20.5894 C   0  0  0  0  0  0  0  0  0  0  0  0
   10.6763  -16.3290   20.9177 O   0  0  0  0  0  0  0  0  0  0  0  0
    8.4206  -16.5583   21.3750 N   0  0  0  0  0  0  0  0  0  0  0  0
    8.4652  -15.7371   22.6099 C   0  0  1  0  0  0  0  0  0  0  0  0
    7.1177  -15.1635   22.8709 C   0  0  0  0  0  0  0  0  0  0  0  0
    6.9585  -14.3398   24.0707 C   0  0  0  0  0  0  0  0  0  0  0  0
    6.4156  -14.8536   25.2553 C   0  0  0  0  0  0  0  0  0  0  0  0
    6.2833  -14.1107   26.4052 C   0  0  0  0  0  0  0  0  0  0  0  0
    6.6905  -12.8042   26.4301 C   0  0  0  0  0  0  0  0  0  0  0  0
    7.2284  -12.2667   25.2845 C   0  0  0  0  0  0  0  0  0  0  0  0
    7.3602  -13.0115   24.1345 C   0  0  0  0  0  0  0  0  0  0  0  0
    9.0519  -16.5734   23.6569 C   0  0  0  0  0  0  0  0  0  0  0  0
    8.6806  -17.7985   23.7757 O   0  0  0  0  0  0  0  0  0  0  0  0
   10.0351  -16.1904   24.6074 N   0  0  0  0  0  0  0  0  0  0  0  0
   10.6281  -17.1164   25.5484 C   0  0  1  0  0  0  0  0  0  0  0  0
   11.7115  -16.3188   26.2950 C   0  0  0  0  0  0  0  0  0  0  0  0
   11.1279  -15.4758   27.3407 C   0  0  0  0  0  0  0  0  0  0  0  0
   10.9644  -15.8740   28.6498 C   0  0  0  0  0  0  0  0  0  0  0  0
   10.4026  -15.0308   29.6052 C   0  0  0  0  0  0  0  0  0  0  0  0
    9.9898  -13.7605   29.2653 C   0  0  0  0  0  0  0  0  0  0  0  0
   10.1476  -13.3552   27.9682 C   0  0  0  0  0  0  0  0  0  0  0  0
   10.7083  -14.2025   27.0239 C   0  0  0  0  0  0  0  0  0  0  0  0
    9.6860  -17.7335   26.4683 C   0  0  0  0  0  0  0  0  0  0  0  0
   10.0138  -18.7910   27.2912 O   0  0  0  0  0  0  0  0  0  0  0  0
    8.4911  -17.3175   26.5578 O   0  0  0  0  0  0  0  0  0  0  0  0
  2  1  1  1
  3  2  1  0
  4  2  1  0
  4  5  2  0
  6  4  1  0
  7  6  1  0
  7  8  1  1
  9 14  1  0
  9  8  1  0
 10  9  2  0
 11 12  2  0
 11 10  1  0
 12 13  1  0
 13 14  2  0
 15  7  1  0
 15 17  1  0
 16 15  2  0
 18 17  1  0
 18 26  1  0
 19 20  1  0
 18 19  1  1
 20 25  2  0
 21 22  2  0
 21 20  1  0
 22 23  1  0
 23 24  2  0
 25 24  1  0
 26 28  2  0
 26 27  1  0
M  END
$$$$
