AFF.pdb
     RDKit          3D

 28 29  0  0  1  0  0  0  0  0999 V2000
    9.5218  -16.1149   18.9464 C   0  0  0  0  0  0  0  0  0  0  0  0
    9.5287  -16.9018   20.2202 C   0  0  2  0  0  0  0  0  0  0  0  0
    8.4180  -17.8102   20.3205 N   0  0  0  0  0  0  0  0  0  0  0  0
    9.6402  -16.0263   21.4177 C   0  0  0  0  0  0  0  0  0  0  0  0
   10.7369  -15.4415   21.6188 O   0  0  0  0  0  0  0  0  0  0  0  0
    8.5671  -15.8413   22.3133 N   0  0  0  0  0  0  0  0  0  0  0  0
    8.6759  -15.0034   23.5329 C   0  0  1  0  0  0  0  0  0  0  0  0
    7.3586  -14.3743   23.8194 C   0  0  0  0  0  0  0  0  0  0  0  0
    7.2528  -13.5569   25.0294 C   0  0  0  0  0  0  0  0  0  0  0  0
    7.7637  -12.2541   25.0903 C   0  0  0  0  0  0  0  0  0  0  0  0
    7.6508  -11.4541   26.2033 C   0  0  0  0  0  0  0  0  0  0  0  0
    7.0156  -11.9196   27.3227 C   0  0  0  0  0  0  0  0  0  0  0  0
    6.5015  -13.1947   27.2984 C   0  0  0  0  0  0  0  0  0  0  0  0
    6.6154  -13.9941   26.1837 C   0  0  0  0  0  0  0  0  0  0  0  0
    9.2579  -15.8453   24.5780 C   0  0  0  0  0  0  0  0  0  0  0  0
    8.7464  -16.9988   24.8246 O   0  0  0  0  0  0  0  0  0  0  0  0
   10.3780  -15.5417   25.3966 N   0  0  0  0  0  0  0  0  0  0  0  0
   10.8164  -16.3910   26.4834 C   0  0  1  0  0  0  0  0  0  0  0  0
   12.3156  -16.6396   26.2423 C   0  0  0  0  0  0  0  0  0  0  0  0
   12.5401  -17.3830   25.0007 C   0  0  0  0  0  0  0  0  0  0  0  0
   12.8791  -16.7953   23.8012 C   0  0  0  0  0  0  0  0  0  0  0  0
   13.0813  -17.5508   22.6489 C   0  0  0  0  0  0  0  0  0  0  0  0
   12.9469  -18.9222   22.6754 C   0  0  0  0  0  0  0  0  0  0  0  0
   12.6106  -19.5157   23.8613 C   0  0  0  0  0  0  0  0  0  0  0  0
   12.4112  -18.7545   25.0036 C   0  0  0  0  0  0  0  0  0  0  0  0
   10.5681  -15.8538   27.8116 C   0  0  0  0  0  0  0  0  0  0  0  0
   10.8128  -16.5594   28.9715 O   0  0  0  0  0  0  0  0  0  0  0  0
   10.1036  -14.6839   27.9679 O   0  0  0  0  0  0  0  0  0  0  0  0
  2  1  1  6
  3  2  1  0
  4  2  1  0
  4  5  2  0
  6  4  1  0
  7  6  1  0
  7  8  1  1
  9 14  1  0
  9  8  1  0
 10  9  2  0
 11 12  2  0
 11 10  1  0
 12 13  1  0
 13 14  2  0
 15  7  1  0
 15 17  1  0
 16 15  2  0
 18 17  1  0
 18 26  1  0
 19 20  1  0
 18 19  1  6
 20 25  2  0
 21 22  2  0
 21 20  1  0
 22 23  1  0
 23 24  2  0
 25 24  1  0
 26 28  2  0
 26 27  1  0
M  END
$$$$
