AFF.pdb
     RDKit          3D

 28 29  0  0  1  0  0  0  0  0999 V2000
    8.2705  -19.7251   21.9636 C   0  0  0  0  0  0  0  0  0  0  0  0
    8.2460  -18.6385   20.9338 C   0  0  2  0  0  0  0  0  0  0  0  0
    8.7002  -19.0830   19.6434 N   0  0  0  0  0  0  0  0  0  0  0  0
    8.9696  -17.4209   21.3882 C   0  0  0  0  0  0  0  0  0  0  0  0
   10.1424  -17.2419   20.9668 O   0  0  0  0  0  0  0  0  0  0  0  0
    8.3830  -16.4829   22.2623 N   0  0  0  0  0  0  0  0  0  0  0  0
    9.1022  -15.2791   22.7468 C   0  0  1  0  0  0  0  0  0  0  0  0
    8.2422  -14.0801   22.5578 C   0  0  0  0  0  0  0  0  0  0  0  0
    7.8395  -13.7504   21.1894 C   0  0  0  0  0  0  0  0  0  0  0  0
    6.6281  -14.1969   20.6458 C   0  0  0  0  0  0  0  0  0  0  0  0
    6.2117  -13.8765   19.3748 C   0  0  0  0  0  0  0  0  0  0  0  0
    6.9919  -13.0863   18.5746 C   0  0  0  0  0  0  0  0  0  0  0  0
    8.1882  -12.6299   19.0759 C   0  0  0  0  0  0  0  0  0  0  0  0
    8.6036  -12.9514   20.3482 C   0  0  0  0  0  0  0  0  0  0  0  0
    9.5549  -15.5715   24.1067 C   0  0  0  0  0  0  0  0  0  0  0  0
   10.5836  -14.9627   24.5800 O   0  0  0  0  0  0  0  0  0  0  0  0
    8.9723  -16.4853   25.0246 N   0  0  0  0  0  0  0  0  0  0  0  0
    9.3922  -16.5949   26.4053 C   0  0  1  0  0  0  0  0  0  0  0  0
    8.1729  -16.1821   27.2481 C   0  0  0  0  0  0  0  0  0  0  0  0
    7.7452  -14.8169   26.9347 C   0  0  0  0  0  0  0  0  0  0  0  0
    6.5658  -14.5070   26.2931 C   0  0  0  0  0  0  0  0  0  0  0  0
    6.2074  -13.1894   26.0192 C   0  0  0  0  0  0  0  0  0  0  0  0
    7.0308  -12.1468   26.3859 C   0  0  0  0  0  0  0  0  0  0  0  0
    8.2042  -12.4435   27.0235 C   0  0  0  0  0  0  0  0  0  0  0  0
    8.5523  -13.7592   27.2918 C   0  0  0  0  0  0  0  0  0  0  0  0
    9.8888  -17.9073   26.7864 C   0  0  0  0  0  0  0  0  0  0  0  0
   10.4210  -18.1840   28.0287 O   0  0  0  0  0  0  0  0  0  0  0  0
    9.8546  -18.8810   25.9742 O   0  0  0  0  0  0  0  0  0  0  0  0
  2  1  1  1
  3  2  1  0
  4  2  1  0
  4  5  2  0
  6  4  1  0
  7  6  1  0
  7  8  1  1
  9 14  1  0
  9  8  1  0
 10  9  2  0
 11 12  2  0
 11 10  1  0
 12 13  1  0
 13 14  2  0
 15  7  1  0
 15 17  1  0
 16 15  2  0
 18 17  1  0
 18 26  1  0
 19 20  1  0
 18 19  1  1
 20 25  2  0
 21 22  2  0
 21 20  1  0
 22 23  1  0
 23 24  2  0
 25 24  1  0
 26 28  2  0
 26 27  1  0
M  END
$$$$
