AFF.pdb
     RDKit          3D

 28 29  0  0  1  0  0  0  0  0999 V2000
    8.5649  -21.4430   22.1004 C   0  0  0  0  0  0  0  0  0  0  0  0
    8.0735  -20.5326   21.0181 C   0  0  2  0  0  0  0  0  0  0  0  0
    8.4236  -20.9926   19.7009 N   0  0  0  0  0  0  0  0  0  0  0  0
    8.4889  -19.1220   21.2425 C   0  0  0  0  0  0  0  0  0  0  0  0
    9.7197  -18.8587   21.2085 O   0  0  0  0  0  0  0  0  0  0  0  0
    7.5541  -18.0953   21.4873 N   0  0  0  0  0  0  0  0  0  0  0  0
    7.9542  -16.6872   21.7289 C   0  0  1  0  0  0  0  0  0  0  0  0
    6.8620  -15.7800   21.2853 C   0  0  0  0  0  0  0  0  0  0  0  0
    7.1286  -14.3407   21.3177 C   0  0  0  0  0  0  0  0  0  0  0  0
    7.7220  -13.6728   20.2389 C   0  0  0  0  0  0  0  0  0  0  0  0
    7.9554  -12.3174   20.2310 C   0  0  0  0  0  0  0  0  0  0  0  0
    7.6042  -11.5532   21.3108 C   0  0  0  0  0  0  0  0  0  0  0  0
    7.0191  -12.1760   22.3881 C   0  0  0  0  0  0  0  0  0  0  0  0
    6.7862  -13.5326   22.3945 C   0  0  0  0  0  0  0  0  0  0  0  0
    8.3737  -16.5972   23.1274 C   0  0  0  0  0  0  0  0  0  0  0  0
    7.7625  -17.2906   24.0212 O   0  0  0  0  0  0  0  0  0  0  0  0
    9.4281  -15.8058   23.6553 N   0  0  0  0  0  0  0  0  0  0  0  0
    9.7399  -15.7443   25.0674 C   0  0  1  0  0  0  0  0  0  0  0  0
    8.3870  -15.6251   25.7904 C   0  0  0  0  0  0  0  0  0  0  0  0
    7.9101  -14.2405   25.8049 C   0  0  0  0  0  0  0  0  0  0  0  0
    8.7388  -13.1397   25.7865 C   0  0  0  0  0  0  0  0  0  0  0  0
    8.2315  -11.8428   25.8017 C   0  0  0  0  0  0  0  0  0  0  0  0
    6.8717  -11.6209   25.8358 C   0  0  0  0  0  0  0  0  0  0  0  0
    6.0400  -12.7069   25.8543 C   0  0  0  0  0  0  0  0  0  0  0  0
    6.5550  -13.9948   25.8389 C   0  0  0  0  0  0  0  0  0  0  0  0
   10.5183  -16.8665   25.5664 C   0  0  0  0  0  0  0  0  0  0  0  0
   11.0466  -16.9146   26.8399 O   0  0  0  0  0  0  0  0  0  0  0  0
   10.7529  -17.8765   24.8358 O   0  0  0  0  0  0  0  0  0  0  0  0
  2  1  1  1
  3  2  1  0
  4  2  1  0
  4  5  2  0
  6  4  1  0
  7  6  1  0
  7  8  1  1
  9 14  1  0
  9  8  1  0
 10  9  2  0
 11 12  2  0
 11 10  1  0
 12 13  1  0
 13 14  2  0
 15  7  1  0
 15 17  1  0
 16 15  2  0
 18 17  1  0
 18 26  1  0
 19 20  1  0
 18 19  1  1
 20 25  2  0
 21 22  2  0
 21 20  1  0
 22 23  1  0
 23 24  2  0
 25 24  1  0
 26 28  2  0
 26 27  1  0
M  END
$$$$
