HCD.pdb
     RDKit          3D

 25 25  0  0  1  0  0  0  0  0999 V2000
   25.5826  -12.2613  -18.4974 N   0  0  0  0  0  0  0  0  0  0  0  0
   25.4587  -11.1959  -17.5493 C   0  0  1  0  0  0  0  0  0  0  0  0
   26.7492  -10.4640  -17.3222 C   0  0  0  0  0  0  0  0  0  0  0  0
   27.7503  -11.4079  -16.7784 C   0  0  0  0  0  0  0  0  0  0  0  0
   28.8817  -11.8444  -17.4183 C   0  0  0  0  0  0  0  0  0  0  0  0
   29.5489  -12.7055  -16.5933 N   0  0  0  0  0  0  0  0  0  0  0  0
   28.8379  -12.7978  -15.4607 C   0  0  0  0  0  0  0  0  0  0  0  0
   27.7410  -12.0028  -15.5812 N   0  0  0  0  0  0  0  0  0  0  0  0
   24.4062  -10.2199  -18.0126 C   0  0  0  0  0  0  0  0  0  0  0  0
   24.0305  -10.2485  -19.1959 O   0  0  0  0  0  0  0  0  0  0  0  0
   23.8755   -9.3002  -17.0914 N   0  0  0  0  0  0  0  0  0  0  0  0
   22.7434   -8.4908  -17.3933 C   0  0  1  0  0  0  0  0  0  0  0  0
   21.5343   -9.2078  -17.8756 C   0  0  0  0  0  0  0  0  0  0  0  0
   21.2250  -10.7681  -17.0581 S   0  0  0  0  0  0  0  0  0  0  0  0
   22.3636   -7.5508  -16.2647 C   0  0  0  0  0  0  0  0  0  0  0  0
   22.4876   -7.8602  -15.0535 O   0  0  0  0  0  0  0  0  0  0  0  0
   21.8463   -6.2658  -16.5369 N   0  0  0  0  0  0  0  0  0  0  0  0
   21.5632   -5.3817  -15.3897 C   0  0  1  0  0  0  0  0  0  0  0  0
   22.0174   -3.9903  -15.6787 C   0  0  0  0  0  0  0  0  0  0  0  0
   21.6906   -3.0165  -14.6387 C   0  0  0  0  0  0  0  0  0  0  0  0
   21.1244   -3.3751  -13.5849 O   0  0  0  0  0  0  0  0  0  0  0  0
   20.0644   -5.4347  -15.2804 C   0  0  0  0  0  0  0  0  0  0  0  0
   19.3375   -5.7279  -16.2569 O   0  0  0  0  0  0  0  0  0  0  0  0
   21.9770   -1.6575  -14.7418 O   0  0  0  0  0  0  0  0  0  0  0  0
   19.4037   -5.1577  -14.0759 O   0  0  0  0  0  0  0  0  0  0  0  0
  2  1  1  6
  3  2  1  0
  4  3  1  0
  5  4  2  0
  6  7  1  0
  6  5  1  0
  7  8  2  0
  8  4  1  0
  9 10  2  0
  9  2  1  0
 11  9  1  0
 12 11  1  0
 12 15  1  0
 12 13  1  1
 14 13  1  0
 15 17  1  0
 16 15  2  0
 17 18  1  0
 18 22  1  0
 18 19  1  6
 19 20  1  0
 20 21  2  0
 22 23  2  0
 22 25  1  0
 24 20  1  0
M  END
$$$$
