HCD.pdb
     RDKit          3D

 25 25  0  0  1  0  0  0  0  0999 V2000
   25.0434  -13.8975  -18.5216 N   0  0  0  0  0  0  0  0  0  0  0  0
   23.8784  -13.2382  -18.0144 C   0  0  1  0  0  0  0  0  0  0  0  0
   22.9257  -14.1780  -17.3347 C   0  0  0  0  0  0  0  0  0  0  0  0
   22.4754  -15.1968  -18.3085 C   0  0  0  0  0  0  0  0  0  0  0  0
   22.8200  -15.2565  -19.6343 C   0  0  0  0  0  0  0  0  0  0  0  0
   22.2054  -16.3380  -20.1999 N   0  0  0  0  0  0  0  0  0  0  0  0
   21.4921  -16.9360  -19.2354 C   0  0  0  0  0  0  0  0  0  0  0  0
   21.6618  -16.2334  -18.0833 N   0  0  0  0  0  0  0  0  0  0  0  0
   24.2851  -12.1542  -17.0476 C   0  0  0  0  0  0  0  0  0  0  0  0
   25.2636  -12.3386  -16.3055 O   0  0  0  0  0  0  0  0  0  0  0  0
   23.5449  -10.9598  -17.0107 N   0  0  0  0  0  0  0  0  0  0  0  0
   23.9600   -9.8328  -16.2455 C   0  0  1  0  0  0  0  0  0  0  0  0
   25.3330   -9.3296  -16.5108 C   0  0  0  0  0  0  0  0  0  0  0  0
   26.5603   -9.8718  -15.3283 S   0  0  0  0  0  0  0  0  0  0  0  0
   22.9747   -8.6804  -16.2972 C   0  0  0  0  0  0  0  0  0  0  0  0
   22.5578   -8.1924  -17.3770 O   0  0  0  0  0  0  0  0  0  0  0  0
   22.4775   -8.1003  -15.1102 N   0  0  0  0  0  0  0  0  0  0  0  0
   21.4311   -7.0673  -15.2360 C   0  0  1  0  0  0  0  0  0  0  0  0
   20.5246   -7.0959  -14.0513 C   0  0  0  0  0  0  0  0  0  0  0  0
   19.6474   -8.2634  -13.9861 C   0  0  0  0  0  0  0  0  0  0  0  0
   19.2656   -8.8330  -15.0299 O   0  0  0  0  0  0  0  0  0  0  0  0
   22.2184   -5.7866  -15.2662 C   0  0  0  0  0  0  0  0  0  0  0  0
   23.4533   -5.7613  -15.0597 O   0  0  0  0  0  0  0  0  0  0  0  0
   19.1854   -8.8112  -12.7919 O   0  0  0  0  0  0  0  0  0  0  0  0
   21.6077   -4.5527  -15.5279 O   0  0  0  0  0  0  0  0  0  0  0  0
  2  1  1  1
  3  2  1  0
  4  3  1  0
  5  4  2  0
  6  7  1  0
  6  5  1  0
  7  8  2  0
  8  4  1  0
  9 10  2  0
  9  2  1  0
 11  9  1  0
 12 11  1  0
 12 15  1  0
 12 13  1  6
 14 13  1  0
 15 17  1  0
 16 15  2  0
 17 18  1  0
 18 22  1  0
 18 19  1  1
 19 20  1  0
 20 21  2  0
 22 23  2  0
 22 25  1  0
 24 20  1  0
M  END
$$$$
