HCD.pdb
     RDKit          3D

 25 25  0  0  1  0  0  0  0  0999 V2000
   20.8634  -12.3279  -16.7614 N   0  0  0  0  0  0  0  0  0  0  0  0
   20.1024  -11.1154  -16.7540 C   0  0  1  0  0  0  0  0  0  0  0  0
   18.6727  -11.3264  -16.3491 C   0  0  0  0  0  0  0  0  0  0  0  0
   18.0281  -12.2443  -17.3141 C   0  0  0  0  0  0  0  0  0  0  0  0
   17.4288  -13.4409  -17.0156 C   0  0  0  0  0  0  0  0  0  0  0  0
   16.9515  -13.9935  -18.1707 N   0  0  0  0  0  0  0  0  0  0  0  0
   17.2528  -13.1486  -19.1666 C   0  0  0  0  0  0  0  0  0  0  0  0
   17.9103  -12.0828  -18.6359 N   0  0  0  0  0  0  0  0  0  0  0  0
   20.7426  -10.1164  -15.8228 C   0  0  0  0  0  0  0  0  0  0  0  0
   21.4390  -10.5254  -14.8794 O   0  0  0  0  0  0  0  0  0  0  0  0
   20.5347   -8.7443  -16.0464 N   0  0  0  0  0  0  0  0  0  0  0  0
   21.1760   -7.7419  -15.2643 C   0  0  1  0  0  0  0  0  0  0  0  0
   22.6352   -7.9164  -15.0428 C   0  0  0  0  0  0  0  0  0  0  0  0
   23.4029   -6.6012  -14.1050 S   0  0  0  0  0  0  0  0  0  0  0  0
   20.8987   -6.3334  -15.7550 C   0  0  0  0  0  0  0  0  0  0  0  0
   21.2305   -5.9364  -16.8997 O   0  0  0  0  0  0  0  0  0  0  0  0
   20.2434   -5.3954  -14.9283 N   0  0  0  0  0  0  0  0  0  0  0  0
   19.9220   -4.0761  -15.5063 C   0  0  1  0  0  0  0  0  0  0  0  0
   18.6504   -3.5499  -14.9301 C   0  0  0  0  0  0  0  0  0  0  0  0
   17.4385   -4.0427  -15.5823 C   0  0  0  0  0  0  0  0  0  0  0  0
   17.5009   -4.6323  -16.6815 O   0  0  0  0  0  0  0  0  0  0  0  0
   21.0857   -3.2246  -15.0801 C   0  0  0  0  0  0  0  0  0  0  0  0
   22.0105   -3.6738  -14.3651 O   0  0  0  0  0  0  0  0  0  0  0  0
   16.1626   -3.8962  -15.0436 O   0  0  0  0  0  0  0  0  0  0  0  0
   21.1942   -1.8808  -15.4630 O   0  0  0  0  0  0  0  0  0  0  0  0
  2  1  1  1
  3  2  1  0
  4  3  1  0
  5  4  2  0
  6  7  1  0
  6  5  1  0
  7  8  2  0
  8  4  1  0
  9 10  2  0
  9  2  1  0
 11  9  1  0
 12 11  1  0
 12 15  1  0
 12 13  1  6
 14 13  1  0
 15 17  1  0
 16 15  2  0
 17 18  1  0
 18 22  1  0
 18 19  1  1
 19 20  1  0
 20 21  2  0
 22 23  2  0
 22 25  1  0
 24 20  1  0
M  END
$$$$
