HCD.pdb
     RDKit          3D

 25 25  0  0  1  0  0  0  0  0999 V2000
   19.8084  -12.1627  -17.6583 N   0  0  0  0  0  0  0  0  0  0  0  0
   19.3220  -12.2077  -16.3127 C   0  0  1  0  0  0  0  0  0  0  0  0
   19.2847  -13.5993  -15.7520 C   0  0  0  0  0  0  0  0  0  0  0  0
   18.2795  -14.3919  -16.4938 C   0  0  0  0  0  0  0  0  0  0  0  0
   17.0546  -14.7891  -16.0228 C   0  0  0  0  0  0  0  0  0  0  0  0
   16.4176  -15.5009  -17.0000 N   0  0  0  0  0  0  0  0  0  0  0  0
   17.2391  -15.5413  -18.0583 C   0  0  0  0  0  0  0  0  0  0  0  0
   18.3742  -14.8621  -17.7417 N   0  0  0  0  0  0  0  0  0  0  0  0
   20.1806  -11.3367  -15.4299 C   0  0  0  0  0  0  0  0  0  0  0  0
   19.9527  -11.2973  -14.2098 O   0  0  0  0  0  0  0  0  0  0  0  0
   21.2196  -10.5896  -16.0115 N   0  0  0  0  0  0  0  0  0  0  0  0
   22.0206   -9.6868  -15.2556 C   0  0  1  0  0  0  0  0  0  0  0  0
   23.4855   -9.9364  -15.2740 C   0  0  0  0  0  0  0  0  0  0  0  0
   23.9656  -11.5613  -14.7015 S   0  0  0  0  0  0  0  0  0  0  0  0
   21.7464   -8.2303  -15.5800 C   0  0  0  0  0  0  0  0  0  0  0  0
   21.6716   -7.8003  -16.7579 O   0  0  0  0  0  0  0  0  0  0  0  0
   21.5604   -7.2828  -14.5503 N   0  0  0  0  0  0  0  0  0  0  0  0
   21.3387   -5.8772  -14.9416 C   0  0  1  0  0  0  0  0  0  0  0  0
   19.8784   -5.5831  -15.0253 C   0  0  0  0  0  0  0  0  0  0  0  0
   19.5550   -4.1788  -15.2709 C   0  0  0  0  0  0  0  0  0  0  0  0
   19.0166   -3.4840  -14.3837 O   0  0  0  0  0  0  0  0  0  0  0  0
   21.9677   -5.1063  -13.8143 C   0  0  0  0  0  0  0  0  0  0  0  0
   22.2106   -5.6327  -12.7043 O   0  0  0  0  0  0  0  0  0  0  0  0
   19.8146   -3.5303  -16.4757 O   0  0  0  0  0  0  0  0  0  0  0  0
   22.3149   -3.7553  -13.9497 O   0  0  0  0  0  0  0  0  0  0  0  0
  2  1  1  6
  3  2  1  0
  4  3  1  0
  5  4  2  0
  6  7  1  0
  6  5  1  0
  7  8  2  0
  8  4  1  0
  9 10  2  0
  9  2  1  0
 11  9  1  0
 12 11  1  0
 12 15  1  0
 12 13  1  6
 14 13  1  0
 15 17  1  0
 16 15  2  0
 17 18  1  0
 18 22  1  0
 18 19  1  1
 19 20  1  0
 20 21  2  0
 22 23  2  0
 22 25  1  0
 24 20  1  0
M  END
$$$$
