TVP.pdb
     RDKit          3D

 22 22  0  0  1  0  0  0  0  0999 V2000
    8.8638  -18.5532   24.3764 C   0  0  0  0  0  0  0  0  0  0  0  0
    7.6083  -19.3832   24.5377 C   0  0  1  0  0  0  0  0  0  0  0  0
    7.9009  -20.6469   25.0488 O   0  0  0  0  0  0  0  0  0  0  0  0
    6.7130  -18.6331   25.5007 C   0  0  2  0  0  0  0  0  0  0  0  0
    5.5108  -19.3419   25.7937 N   0  0  0  0  0  0  0  0  0  0  0  0
    6.3361  -17.2843   24.8874 C   0  0  0  0  0  0  0  0  0  0  0  0
    5.4210  -17.3048   24.0184 O   0  0  0  0  0  0  0  0  0  0  0  0
    6.5478  -13.7328   26.8769 C   0  0  0  0  0  0  0  0  0  0  0  0
    7.6541  -13.8974   25.8781 C   0  0  2  0  0  0  0  0  0  0  0  0
    8.1386  -12.5627   25.4144 C   0  0  0  0  0  0  0  0  0  0  0  0
    7.1811  -14.8264   24.7521 C   0  0  2  0  0  0  0  0  0  0  0  0
    7.0009  -16.1684   25.3115 N   0  0  0  0  0  0  0  0  0  0  0  0
    8.2927  -14.9868   23.7626 C   0  0  0  0  0  0  0  0  0  0  0  0
    9.2040  -15.8032   24.0218 O   0  0  0  0  0  0  0  0  0  0  0  0
    8.3098  -14.2544   22.5888 N   0  0  0  0  0  0  0  0  0  0  0  0
    7.6052  -12.9769   22.3554 C   0  0  0  0  0  0  0  0  0  0  0  0
    7.5543  -12.8016   20.8767 C   0  0  0  0  0  0  0  0  0  0  0  0
    8.0872  -14.1073   20.3029 C   0  0  0  0  0  0  0  0  0  0  0  0
    9.0630  -14.5202   21.3849 C   0  0  1  0  0  0  0  0  0  0  0  0
   10.1756  -13.5084   21.3819 C   0  0  0  0  0  0  0  0  0  0  0  0
   11.2361  -13.5629   20.5191 O   0  0  0  0  0  0  0  0  0  0  0  0
   10.1276  -12.5620   22.2176 O   0  0  0  0  0  0  0  0  0  0  0  0
  2  1  1  1
  2  4  1  0
  3  2  1  0
  4  6  1  0
  4  5  1  6
  6  7  2  0
  9  8  1  1
  9 11  1  0
 10  9  1  0
 11 13  1  0
 12  6  1  0
 11 12  1  1
 13 14  2  0
 13 15  1  0
 15 16  1  0
 15 19  1  0
 16 17  1  0
 17 18  1  0
 19 18  1  0
 19 20  1  1
 20 21  1  0
 22 20  2  0
M  END
$$$$
