TVP.pdb
     RDKit          3D

 22 22  0  0  1  0  0  0  0  0999 V2000
    8.1806  -17.7537   22.6171 C   0  0  0  0  0  0  0  0  0  0  0  0
    8.9700  -16.9397   21.6143 C   0  0  1  0  0  0  0  0  0  0  0  0
    8.9005  -17.5027   20.3408 O   0  0  0  0  0  0  0  0  0  0  0  0
    8.3563  -15.5559   21.5996 C   0  0  2  0  0  0  0  0  0  0  0  0
    8.7186  -14.8101   20.4394 N   0  0  0  0  0  0  0  0  0  0  0  0
    8.8298  -14.7846   22.8317 C   0  0  0  0  0  0  0  0  0  0  0  0
   10.0080  -14.3345   22.7872 O   0  0  0  0  0  0  0  0  0  0  0  0
    6.2580  -12.4571   24.9963 C   0  0  0  0  0  0  0  0  0  0  0  0
    6.7038  -13.6881   25.7274 C   0  0  2  0  0  0  0  0  0  0  0  0
    6.6102  -13.4788   27.2034 C   0  0  0  0  0  0  0  0  0  0  0  0
    8.0992  -14.0901   25.2312 C   0  0  2  0  0  0  0  0  0  0  0  0
    7.9641  -14.6363   23.8785 N   0  0  0  0  0  0  0  0  0  0  0  0
    8.5848  -15.2467   26.0479 C   0  0  0  0  0  0  0  0  0  0  0  0
    8.2634  -16.4013   25.6904 O   0  0  0  0  0  0  0  0  0  0  0  0
    9.3731  -15.0448   27.1670 N   0  0  0  0  0  0  0  0  0  0  0  0
    9.2095  -13.9598   28.1565 C   0  0  0  0  0  0  0  0  0  0  0  0
   10.4983  -13.8863   28.9003 C   0  0  0  0  0  0  0  0  0  0  0  0
   11.4351  -14.8368   28.1675 C   0  0  0  0  0  0  0  0  0  0  0  0
   10.4538  -15.8701   27.6551 C   0  0  1  0  0  0  0  0  0  0  0  0
    9.8974  -16.5813   28.8576 C   0  0  0  0  0  0  0  0  0  0  0  0
    8.6237  -16.3896   29.3191 O   0  0  0  0  0  0  0  0  0  0  0  0
   10.6436  -17.3958   29.4709 O   0  0  0  0  0  0  0  0  0  0  0  0
  2  1  1  1
  2  4  1  0
  3  2  1  0
  4  6  1  0
  4  5  1  6
  6  7  2  0
  9  8  1  6
  9 11  1  0
 10  9  1  0
 11 13  1  0
 12  6  1  0
 11 12  1  6
 13 14  2  0
 13 15  1  0
 15 16  1  0
 15 19  1  0
 16 17  1  0
 17 18  1  0
 19 18  1  0
 19 20  1  1
 20 21  1  0
 22 20  2  0
M  END
$$$$
