TVP.pdb
     RDKit          3D

 22 22  0  0  1  0  0  0  0  0999 V2000
    7.9973  -17.6105   20.5067 C   0  0  0  0  0  0  0  0  0  0  0  0
    8.5236  -16.9772   21.7768 C   0  0  1  0  0  0  0  0  0  0  0  0
    9.8241  -17.3988   22.0496 O   0  0  0  0  0  0  0  0  0  0  0  0
    8.5036  -15.4797   21.5554 C   0  0  2  0  0  0  0  0  0  0  0  0
    9.3446  -15.0759   20.4769 N   0  0  0  0  0  0  0  0  0  0  0  0
    8.9849  -14.7789   22.8260 C   0  0  0  0  0  0  0  0  0  0  0  0
   10.2049  -14.4568   22.8553 O   0  0  0  0  0  0  0  0  0  0  0  0
    6.4111  -12.3198   24.8232 C   0  0  0  0  0  0  0  0  0  0  0  0
    6.7955  -13.5321   25.6178 C   0  0  2  0  0  0  0  0  0  0  0  0
    6.6695  -13.2564   27.0804 C   0  0  0  0  0  0  0  0  0  0  0  0
    8.1894  -14.0002   25.1785 C   0  0  2  0  0  0  0  0  0  0  0  0
    8.0814  -14.5520   23.8257 N   0  0  0  0  0  0  0  0  0  0  0  0
    8.5913  -15.1698   26.0216 C   0  0  0  0  0  0  0  0  0  0  0  0
    8.2303  -16.3119   25.6619 O   0  0  0  0  0  0  0  0  0  0  0  0
    9.3468  -14.9932   27.1673 N   0  0  0  0  0  0  0  0  0  0  0  0
    9.1774  -13.9096   28.1573 C   0  0  0  0  0  0  0  0  0  0  0  0
   10.4423  -13.8719   28.9436 C   0  0  0  0  0  0  0  0  0  0  0  0
   11.3792  -14.8415   28.2363 C   0  0  0  0  0  0  0  0  0  0  0  0
   10.3902  -15.8475   27.6858 C   0  0  1  0  0  0  0  0  0  0  0  0
    9.7770  -16.5509   28.8651 C   0  0  0  0  0  0  0  0  0  0  0  0
   10.4316  -17.5093   29.5897 O   0  0  0  0  0  0  0  0  0  0  0  0
    8.5995  -16.2407   29.2024 O   0  0  0  0  0  0  0  0  0  0  0  0
  2  1  1  6
  2  4  1  0
  3  2  1  0
  4  6  1  0
  4  5  1  6
  6  7  2  0
  9  8  1  6
  9 11  1  0
 10  9  1  0
 11 13  1  0
 12  6  1  0
 11 12  1  6
 13 14  2  0
 13 15  1  0
 15 16  1  0
 15 19  1  0
 16 17  1  0
 17 18  1  0
 19 18  1  0
 19 20  1  1
 20 21  1  0
 22 20  2  0
M  END
$$$$
