TVP.pdb
     RDKit          3D

 22 22  0  0  1  0  0  0  0  0999 V2000
    7.3011  -17.2362   20.6088 C   0  0  0  0  0  0  0  0  0  0  0  0
    8.0434  -16.6061   21.7677 C   0  0  1  0  0  0  0  0  0  0  0  0
    9.4140  -16.8459   21.6794 O   0  0  0  0  0  0  0  0  0  0  0  0
    7.7757  -15.1178   21.6967 C   0  0  2  0  0  0  0  0  0  0  0  0
    8.1814  -14.5486   20.4537 N   0  0  0  0  0  0  0  0  0  0  0  0
    8.5433  -14.4165   22.8176 C   0  0  0  0  0  0  0  0  0  0  0  0
    9.6926  -13.9877   22.5207 O   0  0  0  0  0  0  0  0  0  0  0  0
    6.1732  -14.4134   26.2324 C   0  0  0  0  0  0  0  0  0  0  0  0
    7.1956  -13.3209   26.1340 C   0  0  2  0  0  0  0  0  0  0  0  0
    6.5800  -12.0821   25.5703 C   0  0  0  0  0  0  0  0  0  0  0  0
    8.4104  -13.8377   25.3515 C   0  0  2  0  0  0  0  0  0  0  0  0
    7.9469  -14.3024   24.0417 N   0  0  0  0  0  0  0  0  0  0  0  0
    8.9218  -15.0751   26.0206 C   0  0  0  0  0  0  0  0  0  0  0  0
    8.7242  -16.1763   25.4617 O   0  0  0  0  0  0  0  0  0  0  0  0
    9.6002  -15.0028   27.2244 N   0  0  0  0  0  0  0  0  0  0  0  0
    9.3310  -14.0410   28.3132 C   0  0  0  0  0  0  0  0  0  0  0  0
   10.5443  -14.0512   29.1779 C   0  0  0  0  0  0  0  0  0  0  0  0
   11.5578  -14.9073   28.4308 C   0  0  0  0  0  0  0  0  0  0  0  0
   10.6422  -15.8765   27.7127 C   0  0  1  0  0  0  0  0  0  0  0  0
    9.9865  -16.7245   28.7674 C   0  0  0  0  0  0  0  0  0  0  0  0
   10.6453  -17.7056   29.4569 O   0  0  0  0  0  0  0  0  0  0  0  0
    8.7674  -16.5200   29.0288 O   0  0  0  0  0  0  0  0  0  0  0  0
  2  1  1  6
  2  4  1  0
  3  2  1  0
  4  6  1  0
  4  5  1  6
  6  7  2  0
  9  8  1  6
  9 11  1  0
 10  9  1  0
 11 13  1  0
 12  6  1  0
 11 12  1  6
 13 14  2  0
 13 15  1  0
 15 16  1  0
 15 19  1  0
 16 17  1  0
 17 18  1  0
 19 18  1  0
 19 20  1  1
 20 21  1  0
 22 20  2  0
M  END
$$$$
