TVP.pdb
     RDKit          3D

 22 22  0  0  1  0  0  0  0  0999 V2000
   12.2751  -18.1159   22.6200 C   0  0  0  0  0  0  0  0  0  0  0  0
   11.0968  -18.4091   21.7161 C   0  0  1  0  0  0  0  0  0  0  0  0
    9.9629  -18.7406   22.4565 O   0  0  0  0  0  0  0  0  0  0  0  0
   10.8393  -17.1496   20.9167 C   0  0  2  0  0  0  0  0  0  0  0  0
   11.9377  -16.8022   20.0762 N   0  0  0  0  0  0  0  0  0  0  0  0
   10.5866  -15.9884   21.8785 C   0  0  0  0  0  0  0  0  0  0  0  0
   11.5823  -15.5910   22.5443 O   0  0  0  0  0  0  0  0  0  0  0  0
    6.5362  -15.2333   21.9473 C   0  0  0  0  0  0  0  0  0  0  0  0
    7.3879  -14.0074   22.0899 C   0  0  2  0  0  0  0  0  0  0  0  0
    7.5254  -13.3140   20.7740 C   0  0  0  0  0  0  0  0  0  0  0  0
    8.7206  -14.3943   22.7450 C   0  0  2  0  0  0  0  0  0  0  0  0
    9.3253  -15.4680   21.9525 N   0  0  0  0  0  0  0  0  0  0  0  0
    8.4379  -15.0300   24.0702 C   0  0  0  0  0  0  0  0  0  0  0  0
    8.7324  -16.2356   24.2244 O   0  0  0  0  0  0  0  0  0  0  0  0
    7.8697  -14.3017   25.1005 N   0  0  0  0  0  0  0  0  0  0  0  0
    7.0569  -13.0772   24.9490 C   0  0  0  0  0  0  0  0  0  0  0  0
    7.0411  -12.4277   26.2898 C   0  0  0  0  0  0  0  0  0  0  0  0
    8.0196  -13.2335   27.1334 C   0  0  0  0  0  0  0  0  0  0  0  0
    7.8718  -14.6068   26.5126 C   0  0  1  0  0  0  0  0  0  0  0  0
    6.4771  -15.0790   26.8182 C   0  0  0  0  0  0  0  0  0  0  0  0
    6.1320  -15.6858   27.9949 O   0  0  0  0  0  0  0  0  0  0  0  0
    5.5807  -14.9061   25.9446 O   0  0  0  0  0  0  0  0  0  0  0  0
  2  1  1  1
  2  4  1  0
  3  2  1  0
  4  6  1  0
  4  5  1  1
  6  7  2  0
  9  8  1  6
  9 11  1  0
 10  9  1  0
 11 13  1  0
 12  6  1  0
 11 12  1  6
 13 14  2  0
 13 15  1  0
 15 16  1  0
 15 19  1  0
 16 17  1  0
 17 18  1  0
 19 18  1  0
 19 20  1  1
 20 21  1  0
 22 20  2  0
M  END
$$$$
