TVP.pdb
     RDKit          3D

 22 22  0  0  1  0  0  0  0  0999 V2000
    7.1745  -16.6331   20.1447 C   0  0  0  0  0  0  0  0  0  0  0  0
    7.8477  -16.1644   21.4168 C   0  0  1  0  0  0  0  0  0  0  0  0
    9.2108  -16.4564   21.4036 O   0  0  0  0  0  0  0  0  0  0  0  0
    7.6429  -14.6662   21.4893 C   0  0  2  0  0  0  0  0  0  0  0  0
    8.2144  -13.9823   20.3761 N   0  0  0  0  0  0  0  0  0  0  0  0
    8.2949  -14.1325   22.7650 C   0  0  0  0  0  0  0  0  0  0  0  0
    9.4780  -13.7083   22.6494 O   0  0  0  0  0  0  0  0  0  0  0  0
    5.8530  -12.3338   25.4412 C   0  0  0  0  0  0  0  0  0  0  0  0
    6.5327  -13.5326   26.0324 C   0  0  2  0  0  0  0  0  0  0  0  0
    6.6564  -13.3825   27.5133 C   0  0  0  0  0  0  0  0  0  0  0  0
    7.8639  -13.7655   25.3054 C   0  0  2  0  0  0  0  0  0  0  0  0
    7.5690  -14.1494   23.9226 N   0  0  0  0  0  0  0  0  0  0  0  0
    8.5253  -14.9746   25.8894 C   0  0  0  0  0  0  0  0  0  0  0  0
    8.3519  -16.0766   25.3239 O   0  0  0  0  0  0  0  0  0  0  0  0
    9.3123  -14.8757   27.0231 N   0  0  0  0  0  0  0  0  0  0  0  0
    9.1518  -13.8813   28.1040 C   0  0  0  0  0  0  0  0  0  0  0  0
   10.4396  -13.8797   28.8534 C   0  0  0  0  0  0  0  0  0  0  0  0
   11.3734  -14.7665   28.0412 C   0  0  0  0  0  0  0  0  0  0  0  0
   10.3882  -15.7460   27.4383 C   0  0  1  0  0  0  0  0  0  0  0  0
    9.8262  -16.5576   28.5727 C   0  0  0  0  0  0  0  0  0  0  0  0
   10.5326  -17.5374   29.2154 O   0  0  0  0  0  0  0  0  0  0  0  0
    8.6436  -16.3222   28.9500 O   0  0  0  0  0  0  0  0  0  0  0  0
  2  1  1  6
  2  4  1  0
  3  2  1  0
  4  6  1  0
  4  5  1  6
  6  7  2  0
  9  8  1  6
  9 11  1  0
 10  9  1  0
 11 13  1  0
 12  6  1  0
 11 12  1  6
 13 14  2  0
 13 15  1  0
 15 16  1  0
 15 19  1  0
 16 17  1  0
 17 18  1  0
 19 18  1  0
 19 20  1  1
 20 21  1  0
 22 20  2  0
M  END
$$$$
