TVP.pdb
     RDKit          3D

 22 22  0  0  1  0  0  0  0  0999 V2000
    8.1195  -18.0500   20.7481 C   0  0  0  0  0  0  0  0  0  0  0  0
    8.7242  -17.2784   21.9015 C   0  0  1  0  0  0  0  0  0  0  0  0
   10.0999  -17.4890   21.9835 O   0  0  0  0  0  0  0  0  0  0  0  0
    8.4423  -15.8144   21.6391 C   0  0  2  0  0  0  0  0  0  0  0  0
    8.9954  -15.3645   20.4042 N   0  0  0  0  0  0  0  0  0  0  0  0
    9.0463  -14.9778   22.7672 C   0  0  0  0  0  0  0  0  0  0  0  0
   10.2329  -14.5842   22.5937 O   0  0  0  0  0  0  0  0  0  0  0  0
    6.2931  -14.8725   25.8295 C   0  0  0  0  0  0  0  0  0  0  0  0
    7.2248  -13.6977   25.8052 C   0  0  2  0  0  0  0  0  0  0  0  0
    6.5740  -12.5318   25.1357 C   0  0  0  0  0  0  0  0  0  0  0  0
    8.5581  -14.1262   25.1776 C   0  0  2  0  0  0  0  0  0  0  0  0
    8.2777  -14.7165   23.8664 N   0  0  0  0  0  0  0  0  0  0  0  0
    9.1237  -15.2581   25.9771 C   0  0  0  0  0  0  0  0  0  0  0  0
    9.1220  -16.4012   25.4699 O   0  0  0  0  0  0  0  0  0  0  0  0
    9.6398  -15.0451   27.2432 N   0  0  0  0  0  0  0  0  0  0  0  0
    9.1475  -14.0551   28.2232 C   0  0  0  0  0  0  0  0  0  0  0  0
   10.2414  -13.8876   29.2208 C   0  0  0  0  0  0  0  0  0  0  0  0
   11.4169  -14.6748   28.6579 C   0  0  0  0  0  0  0  0  0  0  0  0
   10.6943  -15.7748   27.9087 C   0  0  1  0  0  0  0  0  0  0  0  0
   10.0003  -16.6240   28.9376 C   0  0  0  0  0  0  0  0  0  0  0  0
    8.6445  -16.6204   29.1218 O   0  0  0  0  0  0  0  0  0  0  0  0
   10.7048  -17.3776   29.6671 O   0  0  0  0  0  0  0  0  0  0  0  0
  2  1  1  6
  2  4  1  0
  3  2  1  0
  4  6  1  0
  4  5  1  6
  6  7  2  0
  9  8  1  6
  9 11  1  0
 10  9  1  0
 11 13  1  0
 12  6  1  0
 11 12  1  6
 13 14  2  0
 13 15  1  0
 15 16  1  0
 15 19  1  0
 16 17  1  0
 17 18  1  0
 19 18  1  0
 19 20  1  1
 20 21  1  0
 22 20  2  0
M  END
$$$$
