QVP.pdb
     RDKit          3D

 24 24  0  0  1  0  0  0  0  0999 V2000
    9.9903  -20.7291   22.6464 N   0  0  0  0  0  0  0  0  0  0  0  0
    9.8698  -20.1392   21.3729 C   0  0  0  0  0  0  0  0  0  0  0  0
    9.0344  -20.6017   20.5663 O   0  0  0  0  0  0  0  0  0  0  0  0
   10.7130  -18.9923   20.9931 C   0  0  0  0  0  0  0  0  0  0  0  0
   10.7986  -17.9022   22.0186 C   0  0  0  0  0  0  0  0  0  0  0  0
    9.9549  -16.6947   21.6606 C   0  0  2  0  0  0  0  0  0  0  0  0
   10.5712  -16.0204   20.5189 N   0  0  0  0  0  0  0  0  0  0  0  0
    9.8905  -15.7215   22.7724 C   0  0  0  0  0  0  0  0  0  0  0  0
   10.8582  -14.9437   22.9687 O   0  0  0  0  0  0  0  0  0  0  0  0
    7.0626  -13.9219   26.4165 C   0  0  0  0  0  0  0  0  0  0  0  0
    7.3395  -14.3846   25.0034 C   0  0  1  0  0  0  0  0  0  0  0  0
    6.7811  -13.5067   23.9502 C   0  0  0  0  0  0  0  0  0  0  0  0
    8.8381  -14.7011   24.8541 C   0  0  2  0  0  0  0  0  0  0  0  0
    8.8042  -15.5872   23.6581 N   0  0  0  0  0  0  0  0  0  0  0  0
    9.3320  -15.4573   26.0146 C   0  0  0  0  0  0  0  0  0  0  0  0
    9.3486  -16.7327   25.9107 O   0  0  0  0  0  0  0  0  0  0  0  0
    9.7969  -14.9476   27.2363 N   0  0  0  0  0  0  0  0  0  0  0  0
    9.5200  -13.5795   27.6902 C   0  0  0  0  0  0  0  0  0  0  0  0
   10.8609  -13.2743   28.3889 C   0  0  0  0  0  0  0  0  0  0  0  0
   10.9658  -14.5268   29.2299 C   0  0  0  0  0  0  0  0  0  0  0  0
   10.5998  -15.6113   28.2498 C   0  0  1  0  0  0  0  0  0  0  0  0
    9.8355  -16.6295   28.9998 C   0  0  0  0  0  0  0  0  0  0  0  0
   10.5659  -17.5160   29.7811 O   0  0  0  0  0  0  0  0  0  0  0  0
    8.6006  -16.7600   28.9914 O   0  0  0  0  0  0  0  0  0  0  0  0
  2  1  1  0
  2  3  2  0
  4  2  1  0
  5  4  1  0
  5  6  1  0
  6  7  1  6
  8  6  1  0
  8 14  1  0
  9  8  2  0
 11 10  1  1
 12 11  1  0
 13 14  1  6
 13 11  1  0
 15 13  1  0
 16 15  2  0
 17 15  1  0
 18 17  1  0
 19 18  1  0
 20 19  1  0
 20 21  1  0
 21 22  1  1
 21 17  1  0
 22 23  1  0
 24 22  2  0
M  END
$$$$
