QVP.pdb
     RDKit          3D

 24 24  0  0  1  0  0  0  0  0999 V2000
   13.4136  -19.6342   23.8944 N   0  0  0  0  0  0  0  0  0  0  0  0
   13.4331  -19.9221   22.5156 C   0  0  0  0  0  0  0  0  0  0  0  0
   13.6098  -21.1025   22.1445 O   0  0  0  0  0  0  0  0  0  0  0  0
   13.2467  -18.8510   21.5215 C   0  0  0  0  0  0  0  0  0  0  0  0
   12.9837  -17.4918   22.0968 C   0  0  0  0  0  0  0  0  0  0  0  0
   11.7618  -16.8276   21.4934 C   0  0  2  0  0  0  0  0  0  0  0  0
   12.1852  -16.0434   20.3342 N   0  0  0  0  0  0  0  0  0  0  0  0
   11.1142  -15.9010   22.4470 C   0  0  0  0  0  0  0  0  0  0  0  0
   11.6883  -14.8239   22.7474 O   0  0  0  0  0  0  0  0  0  0  0  0
    7.0298  -14.9003   25.0371 C   0  0  0  0  0  0  0  0  0  0  0  0
    7.8209  -15.3376   23.8246 C   0  0  1  0  0  0  0  0  0  0  0  0
    7.4096  -14.6907   22.5580 C   0  0  0  0  0  0  0  0  0  0  0  0
    9.3252  -15.2490   24.1371 C   0  0  2  0  0  0  0  0  0  0  0  0
    9.8708  -16.1288   23.0669 N   0  0  0  0  0  0  0  0  0  0  0  0
    9.6219  -15.8322   25.4541 C   0  0  0  0  0  0  0  0  0  0  0  0
    9.7791  -17.1013   25.5037 O   0  0  0  0  0  0  0  0  0  0  0  0
    9.7595  -15.1611   26.6785 N   0  0  0  0  0  0  0  0  0  0  0  0
    9.2836  -13.7901   26.8978 C   0  0  0  0  0  0  0  0  0  0  0  0
   10.4054  -13.2844   27.8278 C   0  0  0  0  0  0  0  0  0  0  0  0
   10.4141  -14.4316   28.8132 C   0  0  0  0  0  0  0  0  0  0  0  0
   10.3622  -15.6381   27.9120 C   0  0  1  0  0  0  0  0  0  0  0  0
    9.5290  -16.6498   28.5945 C   0  0  0  0  0  0  0  0  0  0  0  0
   10.0972  -17.3056   29.6794 O   0  0  0  0  0  0  0  0  0  0  0  0
    8.3686  -16.9629   28.2823 O   0  0  0  0  0  0  0  0  0  0  0  0
  2  1  1  0
  2  3  2  0
  4  2  1  0
  5  4  1  0
  5  6  1  0
  6  7  1  6
  8  6  1  0
  8 14  1  0
  9  8  2  0
 11 10  1  1
 12 11  1  0
 13 14  1  6
 13 11  1  0
 15 13  1  0
 16 15  2  0
 17 15  1  0
 18 17  1  0
 19 18  1  0
 20 19  1  0
 20 21  1  0
 21 22  1  1
 21 17  1  0
 22 23  1  0
 24 22  2  0
M  END
$$$$
