QVP.pdb
     RDKit          3D

 24 24  0  0  1  0  0  0  0  0999 V2000
    9.0362  -20.1249   23.1843 N   0  0  0  0  0  0  0  0  0  0  0  0
    8.4592  -19.9597   21.9099 C   0  0  0  0  0  0  0  0  0  0  0  0
    8.0047  -20.9607   21.3151 O   0  0  0  0  0  0  0  0  0  0  0  0
    8.3885  -18.6280   21.2838 C   0  0  0  0  0  0  0  0  0  0  0  0
    9.0178  -17.5216   22.0758 C   0  0  0  0  0  0  0  0  0  0  0  0
    8.4231  -16.1637   21.7586 C   0  0  2  0  0  0  0  0  0  0  0  0
    9.0237  -15.6725   20.5193 N   0  0  0  0  0  0  0  0  0  0  0  0
    8.7161  -15.1754   22.8191 C   0  0  0  0  0  0  0  0  0  0  0  0
    9.8322  -14.5974   22.8327 O   0  0  0  0  0  0  0  0  0  0  0  0
    6.0600  -14.6330   26.0771 C   0  0  0  0  0  0  0  0  0  0  0  0
    6.8677  -13.4914   25.5011 C   0  0  1  0  0  0  0  0  0  0  0  0
    6.9238  -12.2860   26.3587 C   0  0  0  0  0  0  0  0  0  0  0  0
    8.2368  -14.0182   25.0357 C   0  0  2  0  0  0  0  0  0  0  0  0
    7.8245  -14.8150   23.8474 N   0  0  0  0  0  0  0  0  0  0  0  0
    8.8265  -14.9089   26.0465 C   0  0  0  0  0  0  0  0  0  0  0  0
    8.6530  -16.1662   25.8828 O   0  0  0  0  0  0  0  0  0  0  0  0
    9.5686  -14.5471   27.1809 N   0  0  0  0  0  0  0  0  0  0  0  0
    9.5049  -13.2117   27.7866 C   0  0  0  0  0  0  0  0  0  0  0  0
   10.9797  -13.0629   28.2134 C   0  0  0  0  0  0  0  0  0  0  0  0
   11.1454  -14.3923   28.9150 C   0  0  0  0  0  0  0  0  0  0  0  0
   10.4998  -15.3542   27.9514 C   0  0  1  0  0  0  0  0  0  0  0  0
    9.8186  -16.3844   28.7626 C   0  0  0  0  0  0  0  0  0  0  0  0
   10.6251  -17.3185   29.4005 O   0  0  0  0  0  0  0  0  0  0  0  0
    8.5914  -16.4861   28.9224 O   0  0  0  0  0  0  0  0  0  0  0  0
  2  1  1  0
  2  3  2  0
  4  2  1  0
  5  4  1  0
  5  6  1  0
  6  7  1  6
  8  6  1  0
  8 14  1  0
  9  8  2  0
 11 10  1  1
 12 11  1  0
 13 14  1  6
 13 11  1  0
 15 13  1  0
 16 15  2  0
 17 15  1  0
 18 17  1  0
 19 18  1  0
 20 19  1  0
 20 21  1  0
 21 22  1  1
 21 17  1  0
 22 23  1  0
 24 22  2  0
M  END
$$$$
