QVP.pdb
     RDKit          3D

 24 24  0  0  1  0  0  0  0  0999 V2000
    8.1125  -12.9050   18.6656 N   0  0  0  0  0  0  0  0  0  0  0  0
    8.5630  -14.0357   17.9566 C   0  0  0  0  0  0  0  0  0  0  0  0
    8.2126  -14.1850   16.7661 O   0  0  0  0  0  0  0  0  0  0  0  0
    9.4363  -15.0300   18.6041 C   0  0  0  0  0  0  0  0  0  0  0  0
    9.9372  -14.6434   19.9632 C   0  0  0  0  0  0  0  0  0  0  0  0
    9.3974  -15.5377   21.0618 C   0  0  2  0  0  0  0  0  0  0  0  0
    8.0484  -15.9637   20.6920 N   0  0  0  0  0  0  0  0  0  0  0  0
    9.3017  -14.8232   22.3532 C   0  0  0  0  0  0  0  0  0  0  0  0
    9.9048  -13.7303   22.4999 O   0  0  0  0  0  0  0  0  0  0  0  0
    6.8401  -14.1561   26.5075 C   0  0  0  0  0  0  0  0  0  0  0  0
    7.0757  -14.4460   25.0420 C   0  0  1  0  0  0  0  0  0  0  0  0
    6.3668  -13.5351   24.1149 C   0  0  0  0  0  0  0  0  0  0  0  0
    8.5869  -14.5825   24.7849 C   0  0  2  0  0  0  0  0  0  0  0  0
    8.5703  -15.2764   23.4677 N   0  0  0  0  0  0  0  0  0  0  0  0
    9.2133  -15.4515   25.7924 C   0  0  0  0  0  0  0  0  0  0  0  0
    9.3176  -16.6935   25.5020 O   0  0  0  0  0  0  0  0  0  0  0  0
    9.7209  -15.0828   27.0474 N   0  0  0  0  0  0  0  0  0  0  0  0
    9.4591  -13.7771   27.6646 C   0  0  0  0  0  0  0  0  0  0  0  0
   10.8237  -13.5474   28.3460 C   0  0  0  0  0  0  0  0  0  0  0  0
   10.9596  -14.8875   29.0336 C   0  0  0  0  0  0  0  0  0  0  0  0
   10.5599  -15.8543   27.9491 C   0  0  1  0  0  0  0  0  0  0  0  0
    9.8236  -16.9555   28.6039 C   0  0  0  0  0  0  0  0  0  0  0  0
   10.5775  -17.8857   29.3083 O   0  0  0  0  0  0  0  0  0  0  0  0
    8.5930  -17.1199   28.5784 O   0  0  0  0  0  0  0  0  0  0  0  0
  2  1  1  0
  2  3  2  0
  4  2  1  0
  5  4  1  0
  5  6  1  0
  6  7  1  6
  8  6  1  0
  8 14  1  0
  9  8  2  0
 11 10  1  1
 12 11  1  0
 13 14  1  6
 13 11  1  0
 15 13  1  0
 16 15  2  0
 17 15  1  0
 18 17  1  0
 19 18  1  0
 20 19  1  0
 20 21  1  0
 21 22  1  1
 21 17  1  0
 22 23  1  0
 24 22  2  0
M  END
$$$$
