QVP.pdb
     RDKit          3D

 24 24  0  0  1  0  0  0  0  0999 V2000
   10.1730  -17.4893   18.8146 N   0  0  0  0  0  0  0  0  0  0  0  0
    9.6172  -18.5118   19.6082 C   0  0  0  0  0  0  0  0  0  0  0  0
    9.1202  -19.5126   19.0480 O   0  0  0  0  0  0  0  0  0  0  0  0
    9.6209  -18.4086   21.0778 C   0  0  0  0  0  0  0  0  0  0  0  0
   10.2086  -17.1414   21.6222 C   0  0  0  0  0  0  0  0  0  0  0  0
    9.1950  -16.0177   21.7114 C   0  0  2  0  0  0  0  0  0  0  0  0
    9.4409  -15.0831   20.6141 N   0  0  0  0  0  0  0  0  0  0  0  0
    9.3223  -15.2635   22.9773 C   0  0  0  0  0  0  0  0  0  0  0  0
   10.4059  -14.6855   23.2449 O   0  0  0  0  0  0  0  0  0  0  0  0
    6.8729  -13.6240   26.9606 C   0  0  0  0  0  0  0  0  0  0  0  0
    7.0099  -13.9974   25.5015 C   0  0  1  0  0  0  0  0  0  0  0  0
    6.4117  -13.0236   24.5604 C   0  0  0  0  0  0  0  0  0  0  0  0
    8.4738  -14.3682   25.2045 C   0  0  2  0  0  0  0  0  0  0  0  0
    8.3021  -15.1333   23.9388 N   0  0  0  0  0  0  0  0  0  0  0  0
    9.0117  -15.2543   26.2475 C   0  0  0  0  0  0  0  0  0  0  0  0
    8.8242  -16.5109   26.0936 O   0  0  0  0  0  0  0  0  0  0  0  0
    9.7174  -14.8890   27.4038 N   0  0  0  0  0  0  0  0  0  0  0  0
    9.7019  -13.5287   27.9548 C   0  0  0  0  0  0  0  0  0  0  0  0
   11.1602  -13.4456   28.4503 C   0  0  0  0  0  0  0  0  0  0  0  0
   11.2142  -14.7527   29.2090 C   0  0  0  0  0  0  0  0  0  0  0  0
   10.5616  -15.7151   28.2506 C   0  0  1  0  0  0  0  0  0  0  0  0
    9.7831  -16.6718   29.0644 C   0  0  0  0  0  0  0  0  0  0  0  0
   10.4967  -17.6668   29.7207 O   0  0  0  0  0  0  0  0  0  0  0  0
    8.5501  -16.6625   29.2111 O   0  0  0  0  0  0  0  0  0  0  0  0
  2  1  1  0
  2  3  2  0
  4  2  1  0
  5  4  1  0
  5  6  1  0
  6  7  1  6
  8  6  1  0
  8 14  1  0
  9  8  2  0
 11 10  1  1
 12 11  1  0
 13 14  1  6
 13 11  1  0
 15 13  1  0
 16 15  2  0
 17 15  1  0
 18 17  1  0
 19 18  1  0
 20 19  1  0
 20 21  1  0
 21 22  1  1
 21 17  1  0
 22 23  1  0
 24 22  2  0
M  END
$$$$
