QVP.pdb
     RDKit          3D

 24 24  0  0  1  0  0  0  0  0999 V2000
    8.9602  -20.6551   21.5982 N   0  0  0  0  0  0  0  0  0  0  0  0
   10.1117  -19.9520   21.1933 C   0  0  0  0  0  0  0  0  0  0  0  0
   11.2143  -20.5406   21.1955 O   0  0  0  0  0  0  0  0  0  0  0  0
   10.0223  -18.5435   20.7707 C   0  0  0  0  0  0  0  0  0  0  0  0
   10.1547  -17.5407   21.8771 C   0  0  0  0  0  0  0  0  0  0  0  0
    9.3355  -16.2887   21.6330 C   0  0  2  0  0  0  0  0  0  0  0  0
    9.9080  -15.5750   20.4924 N   0  0  0  0  0  0  0  0  0  0  0  0
    9.3712  -15.3747   22.7952 C   0  0  0  0  0  0  0  0  0  0  0  0
   10.3615  -14.6171   22.9543 O   0  0  0  0  0  0  0  0  0  0  0  0
    6.8358  -13.7344   26.7100 C   0  0  0  0  0  0  0  0  0  0  0  0
    7.0292  -14.0765   25.2495 C   0  0  1  0  0  0  0  0  0  0  0  0
    6.4814  -13.0746   24.3072 C   0  0  0  0  0  0  0  0  0  0  0  0
    8.5000  -14.4579   25.0048 C   0  0  2  0  0  0  0  0  0  0  0  0
    8.3596  -15.2772   23.7696 N   0  0  0  0  0  0  0  0  0  0  0  0
    9.0123  -15.2975   26.0981 C   0  0  0  0  0  0  0  0  0  0  0  0
    8.8771  -16.5634   25.9686 O   0  0  0  0  0  0  0  0  0  0  0  0
    9.6425  -14.8779   27.2793 N   0  0  0  0  0  0  0  0  0  0  0  0
    9.5222  -13.5148   27.8101 C   0  0  0  0  0  0  0  0  0  0  0  0
   10.9493  -13.3396   28.3685 C   0  0  0  0  0  0  0  0  0  0  0  0
   11.0459  -14.6326   29.1469 C   0  0  0  0  0  0  0  0  0  0  0  0
   10.4949  -15.6428   28.1741 C   0  0  1  0  0  0  0  0  0  0  0  0
    9.7382  -16.6348   28.9658 C   0  0  0  0  0  0  0  0  0  0  0  0
   10.4793  -17.5504   29.7022 O   0  0  0  0  0  0  0  0  0  0  0  0
    8.5009  -16.7198   29.0288 O   0  0  0  0  0  0  0  0  0  0  0  0
  2  1  1  0
  2  3  2  0
  4  2  1  0
  5  4  1  0
  5  6  1  0
  6  7  1  6
  8  6  1  0
  8 14  1  0
  9  8  2  0
 11 10  1  1
 12 11  1  0
 13 14  1  6
 13 11  1  0
 15 13  1  0
 16 15  2  0
 17 15  1  0
 18 17  1  0
 19 18  1  0
 20 19  1  0
 20 21  1  0
 21 22  1  1
 21 17  1  0
 22 23  1  0
 24 22  2  0
M  END
$$$$
