QVP.pdb
     RDKit          3D

 24 24  0  0  1  0  0  0  0  0999 V2000
   12.6877  -19.9175   25.5787 N   0  0  0  0  0  0  0  0  0  0  0  0
   11.3372  -19.5267   25.4928 C   0  0  0  0  0  0  0  0  0  0  0  0
   10.5499  -19.8589   26.4050 O   0  0  0  0  0  0  0  0  0  0  0  0
   10.8550  -18.7361   24.3469 C   0  0  0  0  0  0  0  0  0  0  0  0
   11.8936  -18.4218   23.3125 C   0  0  0  0  0  0  0  0  0  0  0  0
   11.3286  -17.6627   22.1281 C   0  0  2  0  0  0  0  0  0  0  0  0
   12.4198  -17.3751   21.1983 N   0  0  0  0  0  0  0  0  0  0  0  0
   10.7376  -16.3699   22.5366 C   0  0  0  0  0  0  0  0  0  0  0  0
   11.4929  -15.4342   22.9023 O   0  0  0  0  0  0  0  0  0  0  0  0
    6.8095  -13.4728   22.1390 C   0  0  0  0  0  0  0  0  0  0  0  0
    7.7772  -14.5749   21.7697 C   0  0  1  0  0  0  0  0  0  0  0  0
    8.3562  -14.4534   20.4126 C   0  0  0  0  0  0  0  0  0  0  0  0
    8.8078  -14.7492   22.8992 C   0  0  2  0  0  0  0  0  0  0  0  0
    9.3581  -16.0884   22.5519 N   0  0  0  0  0  0  0  0  0  0  0  0
    8.1432  -14.8137   24.2095 C   0  0  0  0  0  0  0  0  0  0  0  0
    7.7282  -15.9620   24.5928 O   0  0  0  0  0  0  0  0  0  0  0  0
    7.9077  -13.7597   25.1051 N   0  0  0  0  0  0  0  0  0  0  0  0
    8.2525  -12.3643   24.8075 C   0  0  0  0  0  0  0  0  0  0  0  0
    8.6936  -11.9128   26.2149 C   0  0  0  0  0  0  0  0  0  0  0  0
    7.5069  -12.4279   26.9980 C   0  0  0  0  0  0  0  0  0  0  0  0
    7.3155  -13.8110   26.4313 C   0  0  1  0  0  0  0  0  0  0  0  0
    5.8600  -14.0625   26.3916 C   0  0  0  0  0  0  0  0  0  0  0  0
    5.2650  -14.5040   27.5668 O   0  0  0  0  0  0  0  0  0  0  0  0
    5.1259  -13.9137   25.4012 O   0  0  0  0  0  0  0  0  0  0  0  0
  2  1  1  0
  2  3  2  0
  4  2  1  0
  5  4  1  0
  5  6  1  0
  6  7  1  6
  8  6  1  0
  8 14  1  0
  9  8  2  0
 11 10  1  1
 12 11  1  0
 13 14  1  6
 13 11  1  0
 15 13  1  0
 16 15  2  0
 17 15  1  0
 18 17  1  0
 19 18  1  0
 20 19  1  0
 20 21  1  0
 21 22  1  6
 21 17  1  0
 22 23  1  0
 24 22  2  0
M  END
$$$$
