QVP.pdb
     RDKit          3D

 24 24  0  0  1  0  0  0  0  0999 V2000
   16.4618  -16.0994   20.8130 N   0  0  0  0  0  0  0  0  0  0  0  0
   15.5257  -15.1862   21.3366 C   0  0  0  0  0  0  0  0  0  0  0  0
   15.6920  -14.7428   22.4934 O   0  0  0  0  0  0  0  0  0  0  0  0
   14.3668  -14.7555   20.5354 C   0  0  0  0  0  0  0  0  0  0  0  0
   13.1380  -15.5993   20.6948 C   0  0  0  0  0  0  0  0  0  0  0  0
   11.9577  -15.0688   19.9052 C   0  0  2  0  0  0  0  0  0  0  0  0
   12.4635  -14.2063   18.8382 N   0  0  0  0  0  0  0  0  0  0  0  0
   11.0557  -14.2542   20.7479 C   0  0  0  0  0  0  0  0  0  0  0  0
   11.4736  -13.1724   21.2326 O   0  0  0  0  0  0  0  0  0  0  0  0
    7.9548  -12.7607   19.8250 C   0  0  0  0  0  0  0  0  0  0  0  0
    7.6167  -13.6250   21.0192 C   0  0  1  0  0  0  0  0  0  0  0  0
    6.9591  -14.9077   20.6814 C   0  0  0  0  0  0  0  0  0  0  0  0
    8.8546  -13.7517   21.9247 C   0  0  2  0  0  0  0  0  0  0  0  0
    9.7272  -14.5972   21.0642 N   0  0  0  0  0  0  0  0  0  0  0  0
    8.5274  -14.4785   23.1606 C   0  0  0  0  0  0  0  0  0  0  0  0
    8.9508  -15.6825   23.2541 O   0  0  0  0  0  0  0  0  0  0  0  0
    7.8024  -14.0086   24.2661 N   0  0  0  0  0  0  0  0  0  0  0  0
    7.2174  -12.6638   24.3268 C   0  0  0  0  0  0  0  0  0  0  0  0
    7.4418  -12.3635   25.8229 C   0  0  0  0  0  0  0  0  0  0  0  0
    6.8804  -13.6455   26.3958 C   0  0  0  0  0  0  0  0  0  0  0  0
    7.4937  -14.6974   25.5081 C   0  0  1  0  0  0  0  0  0  0  0  0
    6.4786  -15.7564   25.3305 C   0  0  0  0  0  0  0  0  0  0  0  0
    6.2806  -16.6240   26.3972 O   0  0  0  0  0  0  0  0  0  0  0  0
    5.7900  -15.9364   24.3130 O   0  0  0  0  0  0  0  0  0  0  0  0
  2  1  1  0
  2  3  2  0
  4  2  1  0
  5  4  1  0
  5  6  1  0
  6  7  1  6
  8  6  1  0
  8 14  1  0
  9  8  2  0
 11 10  1  6
 12 11  1  0
 13 14  1  6
 13 11  1  0
 15 13  1  0
 16 15  2  0
 17 15  1  0
 18 17  1  0
 19 18  1  0
 20 19  1  0
 20 21  1  0
 21 22  1  6
 21 17  1  0
 22 23  1  0
 24 22  2  0
M  END
$$$$
