QVP.pdb
     RDKit          3D

 24 24  0  0  1  0  0  0  0  0999 V2000
   14.9434  -19.4227   22.6694 N   0  0  0  0  0  0  0  0  0  0  0  0
   14.7533  -19.1804   21.2948 C   0  0  0  0  0  0  0  0  0  0  0  0
   15.4553  -19.7998   20.4666 O   0  0  0  0  0  0  0  0  0  0  0  0
   13.7417  -18.2132   20.8350 C   0  0  0  0  0  0  0  0  0  0  0  0
   12.9754  -17.5305   21.9279 C   0  0  0  0  0  0  0  0  0  0  0  0
   11.5854  -17.1099   21.4929 C   0  0  2  0  0  0  0  0  0  0  0  0
   11.6865  -16.4493   20.1924 N   0  0  0  0  0  0  0  0  0  0  0  0
   10.9835  -16.1448   22.4383 C   0  0  0  0  0  0  0  0  0  0  0  0
   11.5282  -15.0247   22.6071 O   0  0  0  0  0  0  0  0  0  0  0  0
    7.0207  -14.9639   25.0987 C   0  0  0  0  0  0  0  0  0  0  0  0
    7.7908  -15.4982   23.9118 C   0  0  1  0  0  0  0  0  0  0  0  0
    7.3825  -14.9273   22.6083 C   0  0  0  0  0  0  0  0  0  0  0  0
    9.2995  -15.4234   24.2063 C   0  0  2  0  0  0  0  0  0  0  0  0
    9.8161  -16.3804   23.1894 N   0  0  0  0  0  0  0  0  0  0  0  0
    9.5957  -15.9293   25.5550 C   0  0  0  0  0  0  0  0  0  0  0  0
    9.7089  -17.1972   25.6864 O   0  0  0  0  0  0  0  0  0  0  0  0
    9.7755  -15.1846   26.7305 N   0  0  0  0  0  0  0  0  0  0  0  0
    9.3541  -13.7850   26.8638 C   0  0  0  0  0  0  0  0  0  0  0  0
   10.5071  -13.2622   27.7450 C   0  0  0  0  0  0  0  0  0  0  0  0
   10.4870  -14.3414   28.8042 C   0  0  0  0  0  0  0  0  0  0  0  0
   10.3774  -15.6019   27.9858 C   0  0  1  0  0  0  0  0  0  0  0  0
    9.5169  -16.5339   28.7437 C   0  0  0  0  0  0  0  0  0  0  0  0
   10.0843  -17.1589   29.8469 O   0  0  0  0  0  0  0  0  0  0  0  0
    8.3343  -16.8053   28.4795 O   0  0  0  0  0  0  0  0  0  0  0  0
  2  1  1  0
  2  3  2  0
  4  2  1  0
  5  4  1  0
  5  6  1  0
  6  7  1  6
  8  6  1  0
  8 14  1  0
  9  8  2  0
 11 10  1  1
 12 11  1  0
 13 14  1  6
 13 11  1  0
 15 13  1  0
 16 15  2  0
 17 15  1  0
 18 17  1  0
 19 18  1  0
 20 19  1  0
 20 21  1  0
 21 22  1  1
 21 17  1  0
 22 23  1  0
 24 22  2  0
M  END
$$$$
