QVP.pdb
     RDKit          3D

 24 24  0  0  1  0  0  0  0  0999 V2000
    8.5139  -12.2028   18.5179 N   0  0  0  0  0  0  0  0  0  0  0  0
    8.7761  -13.3998   17.8233 C   0  0  0  0  0  0  0  0  0  0  0  0
    9.2506  -13.3400   16.6685 O   0  0  0  0  0  0  0  0  0  0  0  0
    8.4984  -14.7060   18.4455 C   0  0  0  0  0  0  0  0  0  0  0  0
    7.9370  -14.6396   19.8340 C   0  0  0  0  0  0  0  0  0  0  0  0
    7.6529  -16.0101   20.4163 C   0  0  2  0  0  0  0  0  0  0  0  0
    6.6548  -16.6724   19.5778 N   0  0  0  0  0  0  0  0  0  0  0  0
    7.0983  -15.9205   21.7844 C   0  0  0  0  0  0  0  0  0  0  0  0
    5.8908  -15.6089   21.9416 O   0  0  0  0  0  0  0  0  0  0  0  0
    7.0399  -17.5895   26.2601 C   0  0  0  0  0  0  0  0  0  0  0  0
    7.2496  -17.5109   24.7644 C   0  0  1  0  0  0  0  0  0  0  0  0
    6.3711  -18.4029   23.9742 C   0  0  0  0  0  0  0  0  0  0  0  0
    7.2384  -16.0364   24.3239 C   0  0  2  0  0  0  0  0  0  0  0  0
    7.8296  -16.1615   22.9632 N   0  0  0  0  0  0  0  0  0  0  0  0
    8.1251  -15.2287   25.1747 C   0  0  0  0  0  0  0  0  0  0  0  0
    9.3732  -15.5099   25.1424 O   0  0  0  0  0  0  0  0  0  0  0  0
    7.7689  -14.1717   26.0259 N   0  0  0  0  0  0  0  0  0  0  0  0
    6.4236  -13.5856   26.0545 C   0  0  0  0  0  0  0  0  0  0  0  0
    6.8014  -12.1102   26.2984 C   0  0  0  0  0  0  0  0  0  0  0  0
    7.7504  -12.3105   27.4588 C   0  0  0  0  0  0  0  0  0  0  0  0
    8.5931  -13.4710   26.9964 C   0  0  1  0  0  0  0  0  0  0  0  0
    8.8854  -14.2931   28.1890 C   0  0  0  0  0  0  0  0  0  0  0  0
    9.8732  -13.8277   29.0479 O   0  0  0  0  0  0  0  0  0  0  0  0
    8.3257  -15.3605   28.4879 O   0  0  0  0  0  0  0  0  0  0  0  0
  2  1  1  0
  2  3  2  0
  4  2  1  0
  5  4  1  0
  5  6  1  0
  6  7  1  6
  8  6  1  0
  8 14  1  0
  9  8  2  0
 11 10  1  1
 12 11  1  0
 13 14  1  6
 13 11  1  0
 15 13  1  0
 16 15  2  0
 17 15  1  0
 18 17  1  0
 19 18  1  0
 20 19  1  0
 20 21  1  0
 21 22  1  1
 21 17  1  0
 22 23  1  0
 24 22  2  0
M  END
$$$$
