PDW.pdb
     RDKit          3D

 30 32  0  0  1  0  0  0  0  0999 V2000
    9.1699  -14.1670   18.8239 N   0  0  0  0  0  0  0  0  0  0  0  0
    8.6420  -13.1209   17.9351 C   0  0  0  0  0  0  0  0  0  0  0  0
    7.3422  -12.6771   18.5325 C   0  0  0  0  0  0  0  0  0  0  0  0
    7.1471  -13.6144   19.7310 C   0  0  0  0  0  0  0  0  0  0  0  0
    8.5619  -13.9215   20.1072 C   0  0  1  0  0  0  0  0  0  0  0  0
    8.7401  -15.0720   20.9936 C   0  0  0  0  0  0  0  0  0  0  0  0
    8.1138  -15.0897   22.1017 O   0  0  0  0  0  0  0  0  0  0  0  0
    9.5686  -16.1881   20.7112 N   0  0  0  0  0  0  0  0  0  0  0  0
    9.7130  -17.2670   21.7180 C   0  0  1  0  0  0  0  0  0  0  0  0
   10.5129  -18.3777   21.0817 C   0  0  0  0  0  0  0  0  0  0  0  0
   10.7397  -19.4536   22.0613 C   0  0  0  0  0  0  0  0  0  0  0  0
    9.7714  -19.8595   22.8055 O   0  0  0  0  0  0  0  0  0  0  0  0
   10.3659  -16.6959   22.9304 C   0  0  0  0  0  0  0  0  0  0  0  0
   11.4004  -16.0074   22.8400 O   0  0  0  0  0  0  0  0  0  0  0  0
   11.9338  -20.1102   22.2887 O   0  0  0  0  0  0  0  0  0  0  0  0
    9.8388  -16.9107   24.2379 N   0  0  0  0  0  0  0  0  0  0  0  0
   10.3792  -16.3281   25.4449 C   0  0  1  0  0  0  0  0  0  0  0  0
    9.9146  -14.9080   25.6496 C   0  0  0  0  0  0  0  0  0  0  0  0
    8.4566  -14.8340   25.8884 C   0  0  0  0  0  0  0  0  0  0  0  0
    7.5872  -15.9017   25.8419 C   0  0  0  0  0  0  0  0  0  0  0  0
    6.3578  -15.4371   26.1138 N   0  0  0  0  0  0  0  0  0  0  0  0
    6.4302  -14.1059   26.3302 C   0  0  0  0  0  0  0  0  0  0  0  0
    5.4681  -13.1549   26.6427 C   0  0  0  0  0  0  0  0  0  0  0  0
    5.8223  -11.8378   26.8119 C   0  0  0  0  0  0  0  0  0  0  0  0
    7.1326  -11.4586   26.6719 C   0  0  0  0  0  0  0  0  0  0  0  0
    8.1198  -12.3596   26.3637 C   0  0  0  0  0  0  0  0  0  0  0  0
    7.7453  -13.6939   26.1948 C   0  0  0  0  0  0  0  0  0  0  0  0
   10.1146  -17.1786   26.6225 C   0  0  0  0  0  0  0  0  0  0  0  0
   10.5410  -16.8260   27.7401 O   0  0  0  0  0  0  0  0  0  0  0  0
    9.4089  -18.3474   26.4992 O   0  0  0  0  0  0  0  0  0  0  0  0
  1  5  1  0
  2  1  1  0
  2  3  1  0
  3  4  1  0
  4  5  1  0
  5  6  1  1
  6  7  2  0
  8  9  1  0
  8  6  1  0
  9 13  1  0
  9 10  1  6
 11 15  1  0
 11 10  1  0
 12 11  2  0
 13 16  1  0
 13 14  2  0
 16 17  1  0
 17 28  1  0
 17 18  1  1
 19 18  1  0
 19 27  1  0
 20 19  2  0
 21 20  1  0
 21 22  1  0
 22 23  1  0
 22 27  2  0
 23 24  2  0
 24 25  1  0
 26 25  2  0
 27 26  1  0
 28 29  2  0
 28 30  1  0
M  END
$$$$
