PDW.pdb
     RDKit          3D

 30 32  0  0  1  0  0  0  0  0999 V2000
    9.3181  -13.8055   20.0092 N   0  0  0  0  0  0  0  0  0  0  0  0
    8.9974  -12.7726   19.0126 C   0  0  0  0  0  0  0  0  0  0  0  0
    7.5067  -12.7754   18.8676 C   0  0  0  0  0  0  0  0  0  0  0  0
    7.0508  -13.9372   19.7595 C   0  0  0  0  0  0  0  0  0  0  0  0
    8.1238  -13.9566   20.8015 C   0  0  1  0  0  0  0  0  0  0  0  0
    8.1900  -15.1732   21.6118 C   0  0  0  0  0  0  0  0  0  0  0  0
    7.1422  -15.5528   22.2272 O   0  0  0  0  0  0  0  0  0  0  0  0
    9.3480  -15.9772   21.7681 N   0  0  0  0  0  0  0  0  0  0  0  0
    9.2326  -17.3136   22.3997 C   0  0  1  0  0  0  0  0  0  0  0  0
   10.0477  -18.2784   21.5733 C   0  0  0  0  0  0  0  0  0  0  0  0
   11.4803  -17.9656   21.7097 C   0  0  0  0  0  0  0  0  0  0  0  0
   12.3592  -18.8885   21.5311 O   0  0  0  0  0  0  0  0  0  0  0  0
    9.7019  -17.2101   23.8108 C   0  0  0  0  0  0  0  0  0  0  0  0
    9.8718  -18.2284   24.5086 O   0  0  0  0  0  0  0  0  0  0  0  0
   12.0188  -16.7334   22.0267 O   0  0  0  0  0  0  0  0  0  0  0  0
    9.9753  -15.9502   24.4201 N   0  0  0  0  0  0  0  0  0  0  0  0
   10.1672  -15.7505   25.8385 C   0  0  1  0  0  0  0  0  0  0  0  0
    8.9890  -16.2336   26.6464 C   0  0  0  0  0  0  0  0  0  0  0  0
    7.7572  -15.4776   26.3314 C   0  0  0  0  0  0  0  0  0  0  0  0
    6.5675  -16.0326   25.9138 C   0  0  0  0  0  0  0  0  0  0  0  0
    5.6927  -15.0310   25.7333 N   0  0  0  0  0  0  0  0  0  0  0  0
    6.3000  -13.8606   26.0260 C   0  0  0  0  0  0  0  0  0  0  0  0
    5.8559  -12.5452   26.0060 C   0  0  0  0  0  0  0  0  0  0  0  0
    6.7017  -11.5210   26.3586 C   0  0  0  0  0  0  0  0  0  0  0  0
    7.9916  -11.7974   26.7328 C   0  0  0  0  0  0  0  0  0  0  0  0
    8.4779  -13.0794   26.7686 C   0  0  0  0  0  0  0  0  0  0  0  0
    7.6075  -14.1096   26.4078 C   0  0  0  0  0  0  0  0  0  0  0  0
   11.4410  -16.3371   26.3007 C   0  0  0  0  0  0  0  0  0  0  0  0
   12.1803  -16.9174   25.4811 O   0  0  0  0  0  0  0  0  0  0  0  0
   11.8160  -16.2511   27.6164 O   0  0  0  0  0  0  0  0  0  0  0  0
  1  5  1  0
  2  1  1  0
  2  3  1  0
  3  4  1  0
  4  5  1  0
  5  6  1  6
  6  7  2  0
  8  9  1  0
  8  6  1  0
  9 13  1  0
  9 10  1  6
 11 15  1  0
 11 10  1  0
 12 11  2  0
 13 16  1  0
 13 14  2  0
 16 17  1  0
 17 28  1  0
 17 18  1  1
 19 18  1  0
 19 27  1  0
 20 19  2  0
 21 20  1  0
 21 22  1  0
 22 23  1  0
 22 27  2  0
 23 24  2  0
 24 25  1  0
 26 25  2  0
 27 26  1  0
 28 29  2  0
 28 30  1  0
M  END
$$$$
