PDW.pdb
     RDKit          3D

 30 32  0  0  1  0  0  0  0  0999 V2000
    7.2749  -15.5834   21.6663 N   0  0  0  0  0  0  0  0  0  0  0  0
    6.2730  -15.0371   20.7385 C   0  0  0  0  0  0  0  0  0  0  0  0
    6.8606  -15.1566   19.3660 C   0  0  0  0  0  0  0  0  0  0  0  0
    8.2743  -15.6974   19.6150 C   0  0  0  0  0  0  0  0  0  0  0  0
    8.0806  -16.4790   20.8755 C   0  0  1  0  0  0  0  0  0  0  0  0
    9.3081  -16.8369   21.5871 C   0  0  0  0  0  0  0  0  0  0  0  0
    9.7866  -18.0055   21.4261 O   0  0  0  0  0  0  0  0  0  0  0  0
   10.0195  -15.9703   22.4560 N   0  0  0  0  0  0  0  0  0  0  0  0
   11.3123  -16.4107   23.0330 C   0  0  1  0  0  0  0  0  0  0  0  0
   12.3453  -15.3680   22.6809 C   0  0  0  0  0  0  0  0  0  0  0  0
   13.6688  -15.7926   23.1674 C   0  0  0  0  0  0  0  0  0  0  0  0
   13.9717  -17.0431   23.1969 O   0  0  0  0  0  0  0  0  0  0  0  0
   11.1366  -16.5877   24.5027 C   0  0  0  0  0  0  0  0  0  0  0  0
   12.1205  -16.6804   25.2616 O   0  0  0  0  0  0  0  0  0  0  0  0
   14.6747  -14.9621   23.6226 O   0  0  0  0  0  0  0  0  0  0  0  0
    9.8440  -16.6582   25.1007 N   0  0  0  0  0  0  0  0  0  0  0  0
    9.6026  -16.9160   26.5020 C   0  0  1  0  0  0  0  0  0  0  0  0
    8.1704  -16.6491   26.8919 C   0  0  0  0  0  0  0  0  0  0  0  0
    7.6517  -15.4105   26.2713 C   0  0  0  0  0  0  0  0  0  0  0  0
    6.8826  -15.3540   25.1296 C   0  0  0  0  0  0  0  0  0  0  0  0
    6.6098  -14.0627   24.8867 N   0  0  0  0  0  0  0  0  0  0  0  0
    7.1865  -13.3051   25.8447 C   0  0  0  0  0  0  0  0  0  0  0  0
    7.2160  -11.9341   26.0622 C   0  0  0  0  0  0  0  0  0  0  0  0
    7.8939  -11.4159   27.1396 C   0  0  0  0  0  0  0  0  0  0  0  0
    8.5452  -12.2558   28.0060 C   0  0  0  0  0  0  0  0  0  0  0  0
    8.5460  -13.6167   27.8347 C   0  0  0  0  0  0  0  0  0  0  0  0
    7.8534  -14.1287   26.7359 C   0  0  0  0  0  0  0  0  0  0  0  0
   10.0441  -18.2713   26.8874 C   0  0  0  0  0  0  0  0  0  0  0  0
   10.3062  -19.1053   25.9981 O   0  0  0  0  0  0  0  0  0  0  0  0
   10.1669  -18.6200   28.2074 O   0  0  0  0  0  0  0  0  0  0  0  0
  1  5  1  0
  2  1  1  0
  2  3  1  0
  3  4  1  0
  4  5  1  0
  5  6  1  1
  6  7  2  0
  8  9  1  0
  8  6  1  0
  9 13  1  0
  9 10  1  1
 11 15  1  0
 11 10  1  0
 12 11  2  0
 13 16  1  0
 13 14  2  0
 16 17  1  0
 17 28  1  0
 17 18  1  6
 19 18  1  0
 19 27  1  0
 20 19  2  0
 21 20  1  0
 21 22  1  0
 22 23  1  0
 22 27  2  0
 23 24  2  0
 24 25  1  0
 26 25  2  0
 27 26  1  0
 28 29  2  0
 28 30  1  0
M  END
$$$$
