PDW.pdb
     RDKit          3D

 30 32  0  0  1  0  0  0  0  0999 V2000
    9.4043  -13.9940   19.1786 N   0  0  0  0  0  0  0  0  0  0  0  0
    8.8205  -12.9947   18.2713 C   0  0  0  0  0  0  0  0  0  0  0  0
    7.3957  -12.8193   18.6985 C   0  0  0  0  0  0  0  0  0  0  0  0
    7.2145  -13.8554   19.8152 C   0  0  0  0  0  0  0  0  0  0  0  0
    8.5995  -13.9430   20.3730 C   0  0  1  0  0  0  0  0  0  0  0  0
    8.8611  -15.1041   21.2242 C   0  0  0  0  0  0  0  0  0  0  0  0
    8.2115  -15.2198   22.3128 O   0  0  0  0  0  0  0  0  0  0  0  0
    9.7963  -16.1284   20.9273 N   0  0  0  0  0  0  0  0  0  0  0  0
    9.9769  -17.2533   21.8763 C   0  0  1  0  0  0  0  0  0  0  0  0
   10.9738  -18.2075   21.2649 C   0  0  0  0  0  0  0  0  0  0  0  0
   10.5667  -18.5408   19.8895 C   0  0  0  0  0  0  0  0  0  0  0  0
    9.4118  -19.0647   19.6704 O   0  0  0  0  0  0  0  0  0  0  0  0
   10.4248  -16.6982   23.1853 C   0  0  0  0  0  0  0  0  0  0  0  0
   11.3259  -15.8398   23.2456 O   0  0  0  0  0  0  0  0  0  0  0  0
   11.3204  -18.3497   18.7475 O   0  0  0  0  0  0  0  0  0  0  0  0
    9.8459  -17.1221   24.4177 N   0  0  0  0  0  0  0  0  0  0  0  0
   10.2386  -16.6314   25.7190 C   0  0  1  0  0  0  0  0  0  0  0  0
    9.8648  -15.1841   25.9187 C   0  0  0  0  0  0  0  0  0  0  0  0
    8.4066  -15.0108   26.0971 C   0  0  0  0  0  0  0  0  0  0  0  0
    7.4567  -15.9840   25.8773 C   0  0  0  0  0  0  0  0  0  0  0  0
    6.2561  -15.4488   26.1480 N   0  0  0  0  0  0  0  0  0  0  0  0
    6.4250  -14.1650   26.5320 C   0  0  0  0  0  0  0  0  0  0  0  0
    5.5279  -13.1773   26.9160 C   0  0  0  0  0  0  0  0  0  0  0  0
    5.9787  -11.9267   27.2646 C   0  0  0  0  0  0  0  0  0  0  0  0
    7.3216  -11.6507   27.2339 C   0  0  0  0  0  0  0  0  0  0  0  0
    8.2475  -12.5917   26.8617 C   0  0  0  0  0  0  0  0  0  0  0  0
    7.7750  -13.8575   26.5102 C   0  0  0  0  0  0  0  0  0  0  0  0
    9.7268  -17.4960   26.8010 C   0  0  0  0  0  0  0  0  0  0  0  0
    8.9387  -18.4218   26.5234 O   0  0  0  0  0  0  0  0  0  0  0  0
   10.1071  -17.2907   28.1019 O   0  0  0  0  0  0  0  0  0  0  0  0
  1  5  1  0
  2  1  1  0
  2  3  1  0
  3  4  1  0
  4  5  1  0
  5  6  1  1
  6  7  2  0
  8  9  1  0
  8  6  1  0
  9 13  1  0
  9 10  1  6
 11 15  1  0
 11 10  1  0
 12 11  2  0
 13 16  1  0
 13 14  2  0
 16 17  1  0
 17 28  1  0
 17 18  1  1
 19 18  1  0
 19 27  1  0
 20 19  2  0
 21 20  1  0
 21 22  1  0
 22 23  1  0
 22 27  2  0
 23 24  2  0
 24 25  1  0
 26 25  2  0
 27 26  1  0
 28 29  2  0
 28 30  1  0
M  END
$$$$
