PDW.pdb
     RDKit          3D

 30 32  0  0  1  0  0  0  0  0999 V2000
    9.3052  -13.8445   19.5346 N   0  0  0  0  0  0  0  0  0  0  0  0
    8.7787  -12.8033   18.6393 C   0  0  0  0  0  0  0  0  0  0  0  0
    7.3264  -12.6547   18.9742 C   0  0  0  0  0  0  0  0  0  0  0  0
    7.0755  -13.7458   20.0228 C   0  0  0  0  0  0  0  0  0  0  0  0
    8.4190  -13.8561   20.6709 C   0  0  1  0  0  0  0  0  0  0  0  0
    8.6291  -15.0572   21.4798 C   0  0  0  0  0  0  0  0  0  0  0  0
    7.8525  -15.2711   22.4655 O   0  0  0  0  0  0  0  0  0  0  0  0
    9.6460  -16.0186   21.2484 N   0  0  0  0  0  0  0  0  0  0  0  0
    9.8575  -17.1117   22.2276 C   0  0  1  0  0  0  0  0  0  0  0  0
   10.7964  -18.1110   21.5967 C   0  0  0  0  0  0  0  0  0  0  0  0
   11.0857  -19.1950   22.5506 C   0  0  0  0  0  0  0  0  0  0  0  0
   10.1235  -19.7622   23.1898 O   0  0  0  0  0  0  0  0  0  0  0  0
   10.3927  -16.5196   23.4867 C   0  0  0  0  0  0  0  0  0  0  0  0
   11.4424  -15.8484   23.4865 O   0  0  0  0  0  0  0  0  0  0  0  0
   12.3352  -19.6984   22.8578 O   0  0  0  0  0  0  0  0  0  0  0  0
    9.7314  -16.6939   24.7380 N   0  0  0  0  0  0  0  0  0  0  0  0
   10.3296  -16.4234   26.0254 C   0  0  1  0  0  0  0  0  0  0  0  0
    9.7801  -15.1689   26.6568 C   0  0  0  0  0  0  0  0  0  0  0  0
    8.3533  -14.9639   26.3245 C   0  0  0  0  0  0  0  0  0  0  0  0
    7.4489  -15.9654   26.0467 C   0  0  0  0  0  0  0  0  0  0  0  0
    6.2644  -15.3860   25.7974 N   0  0  0  0  0  0  0  0  0  0  0  0
    6.3990  -14.0468   25.9109 C   0  0  0  0  0  0  0  0  0  0  0  0
    5.5002  -12.9996   25.7578 C   0  0  0  0  0  0  0  0  0  0  0  0
    5.9110  -11.7001   25.9344 C   0  0  0  0  0  0  0  0  0  0  0  0
    7.2152  -11.4340   26.2640 C   0  0  0  0  0  0  0  0  0  0  0  0
    8.1410  -12.4328   26.4263 C   0  0  0  0  0  0  0  0  0  0  0  0
    7.7095  -13.7479   26.2436 C   0  0  0  0  0  0  0  0  0  0  0  0
   10.2323  -17.5909   26.9241 C   0  0  0  0  0  0  0  0  0  0  0  0
   10.8366  -17.5754   28.0148 O   0  0  0  0  0  0  0  0  0  0  0  0
    9.4883  -18.6870   26.5717 O   0  0  0  0  0  0  0  0  0  0  0  0
  1  5  1  0
  2  1  1  0
  2  3  1  0
  3  4  1  0
  4  5  1  0
  5  6  1  6
  6  7  2  0
  8  9  1  0
  8  6  1  0
  9 13  1  0
  9 10  1  6
 11 15  1  0
 11 10  1  0
 12 11  2  0
 13 16  1  0
 13 14  2  0
 16 17  1  0
 17 28  1  0
 17 18  1  1
 19 18  1  0
 19 27  1  0
 20 19  2  0
 21 20  1  0
 21 22  1  0
 22 23  1  0
 22 27  2  0
 23 24  2  0
 24 25  1  0
 26 25  2  0
 27 26  1  0
 28 29  2  0
 28 30  1  0
M  END
$$$$
