YCW.pdb
     RDKit          3D

 33 35  0  0  1  0  0  0  0  0999 V2000
   30.1519  -14.9913  -19.5897 O   0  0  0  0  0  0  0  0  0  0  0  0
   29.6985  -15.6374  -18.4328 C   0  0  0  0  0  0  0  0  0  0  0  0
   30.5229  -16.4599  -17.6936 C   0  0  0  0  0  0  0  0  0  0  0  0
   30.0682  -17.0926  -16.5550 C   0  0  0  0  0  0  0  0  0  0  0  0
   28.7650  -16.9303  -16.1040 C   0  0  0  0  0  0  0  0  0  0  0  0
   28.2726  -17.6110  -14.8764 C   0  0  0  0  0  0  0  0  0  0  0  0
   27.6091  -18.8925  -15.2925 C   0  0  2  0  0  0  0  0  0  0  0  0
   27.0809  -18.8180  -16.6392 N   0  0  0  0  0  0  0  0  0  0  0  0
   26.6008  -19.3658  -14.3315 C   0  0  0  0  0  0  0  0  0  0  0  0
   25.3965  -19.1012  -14.5816 O   0  0  0  0  0  0  0  0  0  0  0  0
   27.9532  -16.1050  -16.8536 C   0  0  0  0  0  0  0  0  0  0  0  0
   28.4028  -15.4707  -17.9920 C   0  0  0  0  0  0  0  0  0  0  0  0
   26.9216  -20.0953  -13.1550 N   0  0  0  0  0  0  0  0  0  0  0  0
   25.8766  -20.5596  -12.3065 C   0  0  1  0  0  0  0  0  0  0  0  0
   25.0375  -21.5458  -13.1193 C   0  0  0  0  0  0  0  0  0  0  0  0
   26.1408  -22.7166  -13.9361 S   0  0  0  0  0  0  0  0  0  0  0  0
   26.3600  -21.1787  -11.0524 C   0  0  0  0  0  0  0  0  0  0  0  0
   27.5546  -21.5618  -10.9791 O   0  0  0  0  0  0  0  0  0  0  0  0
   25.5354  -21.3652   -9.9130 N   0  0  0  0  0  0  0  0  0  0  0  0
   25.9623  -21.1726   -8.5594 C   0  0  1  0  0  0  0  0  0  0  0  0
   26.6443  -19.8331   -8.3528 C   0  0  0  0  0  0  0  0  0  0  0  0
   27.0196  -19.6445   -6.9305 C   0  0  0  0  0  0  0  0  0  0  0  0
   26.2640  -19.1515   -5.8758 C   0  0  0  0  0  0  0  0  0  0  0  0
   27.0103  -19.1560   -4.7590 N   0  0  0  0  0  0  0  0  0  0  0  0
   28.2395  -19.6342   -5.0264 C   0  0  0  0  0  0  0  0  0  0  0  0
   29.3467  -19.8369   -4.2470 C   0  0  0  0  0  0  0  0  0  0  0  0
   30.4880  -20.3532   -4.8185 C   0  0  0  0  0  0  0  0  0  0  0  0
   30.5381  -20.6714   -6.1655 C   0  0  0  0  0  0  0  0  0  0  0  0
   29.4031  -20.4510   -6.9085 C   0  0  0  0  0  0  0  0  0  0  0  0
   28.2495  -19.9370   -6.3658 C   0  0  0  0  0  0  0  0  0  0  0  0
   24.7767  -21.1994   -7.6761 C   0  0  0  0  0  0  0  0  0  0  0  0
   24.7072  -21.8833   -6.4749 O   0  0  0  0  0  0  0  0  0  0  0  0
   23.7514  -20.5652   -8.0202 O   0  0  0  0  0  0  0  0  0  0  0  0
  2 12  2  0
  2  1  1  0
  3  2  1  0
  4  5  1  0
  4  3  2  0
  5 11  2  0
  6  5  1  0
  7  6  1  0
  7  8  1  6
  9 13  1  0
  9  7  1  0
 10  9  2  0
 11 12  1  0
 14 13  1  0
 14 15  1  6
 16 15  1  0
 17 14  1  0
 17 18  2  0
 19 17  1  0
 20 19  1  0
 20 21  1  6
 22 21  1  0
 22 30  1  0
 23 24  1  0
 23 22  2  0
 24 25  1  0
 25 30  2  0
 25 26  1  0
 26 27  2  0
 27 28  1  0
 29 28  2  0
 30 29  1  0
 31 20  1  0
 32 31  1  0
 33 31  2  0
M  END
$$$$
