YCW.pdb
     RDKit          3D

 33 35  0  0  1  0  0  0  0  0999 V2000
   28.6068  -25.3352  -20.7776 O   0  0  0  0  0  0  0  0  0  0  0  0
   28.6815  -24.4392  -19.7038 C   0  0  0  0  0  0  0  0  0  0  0  0
   29.4584  -23.3011  -19.7643 C   0  0  0  0  0  0  0  0  0  0  0  0
   29.5264  -22.4236  -18.7019 C   0  0  0  0  0  0  0  0  0  0  0  0
   28.8183  -22.6461  -17.5284 C   0  0  0  0  0  0  0  0  0  0  0  0
   28.8896  -21.7013  -16.3817 C   0  0  0  0  0  0  0  0  0  0  0  0
   27.6753  -20.8192  -16.4326 C   0  0  2  0  0  0  0  0  0  0  0  0
   27.7410  -19.8674  -17.5225 N   0  0  0  0  0  0  0  0  0  0  0  0
   27.3748  -20.1660  -15.1491 C   0  0  0  0  0  0  0  0  0  0  0  0
   27.6000  -18.9311  -15.0637 O   0  0  0  0  0  0  0  0  0  0  0  0
   28.0462  -23.7880  -17.4833 C   0  0  0  0  0  0  0  0  0  0  0  0
   27.9750  -24.6678  -18.5422 C   0  0  0  0  0  0  0  0  0  0  0  0
   26.8511  -20.8559  -14.0226 N   0  0  0  0  0  0  0  0  0  0  0  0
   26.5128  -20.1293  -12.8457 C   0  0  1  0  0  0  0  0  0  0  0  0
   25.3755  -19.1760  -13.2129 C   0  0  0  0  0  0  0  0  0  0  0  0
   23.9387  -20.1461  -13.7126 S   0  0  0  0  0  0  0  0  0  0  0  0
   26.1376  -20.9909  -11.7027 C   0  0  0  0  0  0  0  0  0  0  0  0
   25.3077  -21.9177  -11.8804 O   0  0  0  0  0  0  0  0  0  0  0  0
   26.6722  -20.8240  -10.3991 N   0  0  0  0  0  0  0  0  0  0  0  0
   26.3266  -21.6324   -9.2683 C   0  0  1  0  0  0  0  0  0  0  0  0
   27.4568  -21.7315   -8.2609 C   0  0  0  0  0  0  0  0  0  0  0  0
   27.6108  -20.4606   -7.5122 C   0  0  0  0  0  0  0  0  0  0  0  0
   27.1009  -19.2013   -7.7960 C   0  0  0  0  0  0  0  0  0  0  0  0
   27.4955  -18.3410   -6.8429 N   0  0  0  0  0  0  0  0  0  0  0  0
   28.2518  -18.9777   -5.9298 C   0  0  0  0  0  0  0  0  0  0  0  0
   28.8814  -18.5566   -4.7894 C   0  0  0  0  0  0  0  0  0  0  0  0
   29.6000  -19.4628   -4.0423 C   0  0  0  0  0  0  0  0  0  0  0  0
   29.6984  -20.7913   -4.4216 C   0  0  0  0  0  0  0  0  0  0  0  0
   29.0501  -21.1683   -5.5732 C   0  0  0  0  0  0  0  0  0  0  0  0
   28.3255  -20.2864   -6.3392 C   0  0  0  0  0  0  0  0  0  0  0  0
   25.1759  -21.0158   -8.5739 C   0  0  0  0  0  0  0  0  0  0  0  0
   24.4420  -21.6284   -7.5730 O   0  0  0  0  0  0  0  0  0  0  0  0
   24.8230  -19.8574   -8.8989 O   0  0  0  0  0  0  0  0  0  0  0  0
  2 12  2  0
  2  1  1  0
  3  2  1  0
  4  5  1  0
  4  3  2  0
  5 11  2  0
  6  5  1  0
  7  6  1  0
  7  8  1  6
  9 13  1  0
  9  7  1  0
 10  9  2  0
 11 12  1  0
 14 13  1  0
 14 15  1  6
 16 15  1  0
 17 14  1  0
 17 18  2  0
 19 17  1  0
 20 19  1  0
 20 21  1  1
 22 21  1  0
 22 30  1  0
 23 24  1  0
 23 22  2  0
 24 25  1  0
 25 30  2  0
 25 26  1  0
 26 27  2  0
 27 28  1  0
 29 28  2  0
 30 29  1  0
 31 20  1  0
 32 31  1  0
 33 31  2  0
M  END
$$$$
