YCW.pdb
     RDKit          3D

 33 35  0  0  1  0  0  0  0  0999 V2000
   28.1456  -24.9814  -21.0511 O   0  0  0  0  0  0  0  0  0  0  0  0
   28.3287  -24.4024  -19.7891 C   0  0  0  0  0  0  0  0  0  0  0  0
   27.2605  -24.0972  -18.9717 C   0  0  0  0  0  0  0  0  0  0  0  0
   27.4496  -23.5269  -17.7298 C   0  0  0  0  0  0  0  0  0  0  0  0
   28.7193  -23.2357  -17.2490 C   0  0  0  0  0  0  0  0  0  0  0  0
   28.9259  -22.6212  -15.9101 C   0  0  0  0  0  0  0  0  0  0  0  0
   28.3997  -21.2155  -15.9600 C   0  0  2  0  0  0  0  0  0  0  0  0
   29.2246  -20.3560  -16.7840 N   0  0  0  0  0  0  0  0  0  0  0  0
   28.1586  -20.6356  -14.6296 C   0  0  0  0  0  0  0  0  0  0  0  0
   29.1568  -20.1959  -14.0024 O   0  0  0  0  0  0  0  0  0  0  0  0
   29.7769  -23.5466  -18.0777 C   0  0  0  0  0  0  0  0  0  0  0  0
   29.5930  -24.1165  -19.3194 C   0  0  0  0  0  0  0  0  0  0  0  0
   26.8716  -20.5519  -14.0331 N   0  0  0  0  0  0  0  0  0  0  0  0
   26.7288  -19.9623  -12.7448 C   0  0  1  0  0  0  0  0  0  0  0  0
   25.9930  -18.6355  -12.9327 C   0  0  0  0  0  0  0  0  0  0  0  0
   27.0028  -17.5481  -13.9589 S   0  0  0  0  0  0  0  0  0  0  0  0
   26.0274  -20.8270  -11.7701 C   0  0  0  0  0  0  0  0  0  0  0  0
   25.0971  -21.5715  -12.1696 O   0  0  0  0  0  0  0  0  0  0  0  0
   26.3537  -20.8606  -10.3897 N   0  0  0  0  0  0  0  0  0  0  0  0
   25.7199  -21.7077   -9.4242 C   0  0  1  0  0  0  0  0  0  0  0  0
   26.5299  -21.8374   -8.1479 C   0  0  0  0  0  0  0  0  0  0  0  0
   26.8774  -20.5022   -7.6041 C   0  0  0  0  0  0  0  0  0  0  0  0
   26.4796  -19.2434   -8.0326 C   0  0  0  0  0  0  0  0  0  0  0  0
   27.0397  -18.3118   -7.2436 N   0  0  0  0  0  0  0  0  0  0  0  0
   27.7992  -18.9001   -6.3011 C   0  0  0  0  0  0  0  0  0  0  0  0
   28.5622  -18.4020   -5.2793 C   0  0  0  0  0  0  0  0  0  0  0  0
   29.2423  -19.2739   -4.4590 C   0  0  0  0  0  0  0  0  0  0  0  0
   29.1698  -20.6442   -4.6469 C   0  0  0  0  0  0  0  0  0  0  0  0
   28.3919  -21.0984   -5.6849 C   0  0  0  0  0  0  0  0  0  0  0  0
   27.7018  -20.2523   -6.5200 C   0  0  0  0  0  0  0  0  0  0  0  0
   24.4150  -21.1182   -9.0548 C   0  0  0  0  0  0  0  0  0  0  0  0
   23.4406  -21.7669   -8.3164 O   0  0  0  0  0  0  0  0  0  0  0  0
   24.1520  -19.9499   -9.4263 O   0  0  0  0  0  0  0  0  0  0  0  0
  2 12  2  0
  2  1  1  0
  3  2  1  0
  4  5  1  0
  4  3  2  0
  5 11  2  0
  6  5  1  0
  7  6  1  0
  7  8  1  1
  9 13  1  0
  9  7  1  0
 10  9  2  0
 11 12  1  0
 14 13  1  0
 14 15  1  6
 16 15  1  0
 17 14  1  0
 17 18  2  0
 19 17  1  0
 20 19  1  0
 20 21  1  1
 22 21  1  0
 22 30  1  0
 23 24  1  0
 23 22  2  0
 24 25  1  0
 25 30  2  0
 25 26  1  0
 26 27  2  0
 27 28  1  0
 29 28  2  0
 30 29  1  0
 31 20  1  0
 32 31  1  0
 33 31  2  0
M  END
$$$$
