YCW.pdb
     RDKit          3D

 33 35  0  0  1  0  0  0  0  0999 V2000
   20.4548  -14.8025  -17.8561 O   0  0  0  0  0  0  0  0  0  0  0  0
   20.7352  -15.6878  -16.8077 C   0  0  0  0  0  0  0  0  0  0  0  0
   19.7311  -16.3488  -16.1314 C   0  0  0  0  0  0  0  0  0  0  0  0
   20.0159  -17.2193  -15.0997 C   0  0  0  0  0  0  0  0  0  0  0  0
   21.3214  -17.4681  -14.6975 C   0  0  0  0  0  0  0  0  0  0  0  0
   21.6312  -18.4066  -13.5857 C   0  0  0  0  0  0  0  0  0  0  0  0
   22.0504  -19.7164  -14.1889 C   0  0  2  0  0  0  0  0  0  0  0  0
   20.9156  -20.4893  -14.6505 N   0  0  0  0  0  0  0  0  0  0  0  0
   22.9340  -20.5043  -13.3157 C   0  0  0  0  0  0  0  0  0  0  0  0
   22.4552  -20.9098  -12.2252 O   0  0  0  0  0  0  0  0  0  0  0  0
   22.3140  -16.7998  -15.3833 C   0  0  0  0  0  0  0  0  0  0  0  0
   22.0344  -15.9290  -16.4148 C   0  0  0  0  0  0  0  0  0  0  0  0
   24.2797  -20.8217  -13.6440 N   0  0  0  0  0  0  0  0  0  0  0  0
   25.0799  -21.5459  -12.7152 C   0  0  1  0  0  0  0  0  0  0  0  0
   26.0754  -22.3762  -13.5255 C   0  0  0  0  0  0  0  0  0  0  0  0
   25.1928  -23.7352  -14.3189 S   0  0  0  0  0  0  0  0  0  0  0  0
   25.7779  -20.6852  -11.7345 C   0  0  0  0  0  0  0  0  0  0  0  0
   26.1367  -19.5309  -12.0783 O   0  0  0  0  0  0  0  0  0  0  0  0
   26.0677  -21.0995  -10.4088 N   0  0  0  0  0  0  0  0  0  0  0  0
   26.8942  -20.3733   -9.4917 C   0  0  1  0  0  0  0  0  0  0  0  0
   26.3591  -20.4154   -8.0726 C   0  0  0  0  0  0  0  0  0  0  0  0
   27.1925  -19.5864   -7.1683 C   0  0  0  0  0  0  0  0  0  0  0  0
   27.3057  -18.2052   -7.0908 C   0  0  0  0  0  0  0  0  0  0  0  0
   28.1817  -17.8885   -6.1230 N   0  0  0  0  0  0  0  0  0  0  0  0
   28.6603  -19.0074   -5.5484 C   0  0  0  0  0  0  0  0  0  0  0  0
   29.5582  -19.2207   -4.5372 C   0  0  0  0  0  0  0  0  0  0  0  0
   29.8547  -20.5112   -4.1601 C   0  0  0  0  0  0  0  0  0  0  0  0
   29.2628  -21.5974   -4.7832 C   0  0  0  0  0  0  0  0  0  0  0  0
   28.3679  -21.3351   -5.7926 C   0  0  0  0  0  0  0  0  0  0  0  0
   28.0522  -20.0578   -6.1908 C   0  0  0  0  0  0  0  0  0  0  0  0
   28.2385  -20.9888   -9.4696 C   0  0  0  0  0  0  0  0  0  0  0  0
   29.4273  -20.2806   -9.4944 O   0  0  0  0  0  0  0  0  0  0  0  0
   28.3312  -22.2384   -9.4255 O   0  0  0  0  0  0  0  0  0  0  0  0
  2 12  2  0
  2  1  1  0
  3  2  1  0
  4  5  1  0
  4  3  2  0
  5 11  2  0
  6  5  1  0
  7  6  1  0
  7  8  1  1
  9 13  1  0
  9  7  1  0
 10  9  2  0
 11 12  1  0
 14 13  1  0
 14 15  1  6
 16 15  1  0
 17 14  1  0
 17 18  2  0
 19 17  1  0
 20 19  1  0
 20 21  1  1
 22 21  1  0
 22 30  1  0
 23 24  1  0
 23 22  2  0
 24 25  1  0
 25 30  2  0
 25 26  1  0
 26 27  2  0
 27 28  1  0
 29 28  2  0
 30 29  1  0
 31 20  1  0
 32 31  1  0
 33 31  2  0
M  END
$$$$
