YCW.pdb
     RDKit          3D

 33 35  0  0  1  0  0  0  0  0999 V2000
   28.4496  -31.4647  -20.0684 O   0  0  0  0  0  0  0  0  0  0  0  0
   28.0961  -30.4741  -19.1437 C   0  0  0  0  0  0  0  0  0  0  0  0
   28.7214  -30.3723  -17.9184 C   0  0  0  0  0  0  0  0  0  0  0  0
   28.3670  -29.3934  -17.0132 C   0  0  0  0  0  0  0  0  0  0  0  0
   27.3686  -28.4701  -17.2940 C   0  0  0  0  0  0  0  0  0  0  0  0
   26.9850  -27.4134  -16.3198 C   0  0  0  0  0  0  0  0  0  0  0  0
   27.5548  -26.1104  -16.8022 C   0  0  2  0  0  0  0  0  0  0  0  0
   28.9742  -26.0058  -16.5328 N   0  0  0  0  0  0  0  0  0  0  0  0
   26.8148  -24.9351  -16.3170 C   0  0  0  0  0  0  0  0  0  0  0  0
   27.4763  -23.8882  -16.0950 O   0  0  0  0  0  0  0  0  0  0  0  0
   26.7530  -28.5849  -18.5228 C   0  0  0  0  0  0  0  0  0  0  0  0
   27.1035  -29.5613  -19.4306 C   0  0  0  0  0  0  0  0  0  0  0  0
   25.4117  -24.9308  -16.0924 N   0  0  0  0  0  0  0  0  0  0  0  0
   24.6881  -23.7073  -16.1765 C   0  0  1  0  0  0  0  0  0  0  0  0
   24.9689  -23.1087  -17.5549 C   0  0  0  0  0  0  0  0  0  0  0  0
   23.9754  -21.6162  -17.7568 S   0  0  0  0  0  0  0  0  0  0  0  0
   23.2341  -23.8598  -15.9482 C   0  0  0  0  0  0  0  0  0  0  0  0
   22.5753  -24.6327  -16.6885 O   0  0  0  0  0  0  0  0  0  0  0  0
   22.5347  -23.1706  -14.9241 N   0  0  0  0  0  0  0  0  0  0  0  0
   21.1980  -23.4721  -14.5069 C   0  0  1  0  0  0  0  0  0  0  0  0
   20.9557  -23.1292  -13.0489 C   0  0  0  0  0  0  0  0  0  0  0  0
   21.2896  -21.7101  -12.7769 C   0  0  0  0  0  0  0  0  0  0  0  0
   22.2212  -20.8879  -13.3954 C   0  0  0  0  0  0  0  0  0  0  0  0
   22.1861  -19.6733  -12.8228 N   0  0  0  0  0  0  0  0  0  0  0  0
   21.2645  -19.6509  -11.8424 C   0  0  0  0  0  0  0  0  0  0  0  0
   20.8528  -18.6729  -10.9774 C   0  0  0  0  0  0  0  0  0  0  0  0
   19.8646  -18.9554  -10.0613 C   0  0  0  0  0  0  0  0  0  0  0  0
   19.2791  -20.2090   -9.9976 C   0  0  0  0  0  0  0  0  0  0  0  0
   19.7242  -21.1591  -10.8853 C   0  0  0  0  0  0  0  0  0  0  0  0
   20.7087  -20.9062  -11.8106 C   0  0  0  0  0  0  0  0  0  0  0  0
   20.2537  -22.6638  -15.3080 C   0  0  0  0  0  0  0  0  0  0  0  0
   18.8767  -22.7969  -15.2694 O   0  0  0  0  0  0  0  0  0  0  0  0
   20.7110  -21.7910  -16.0832 O   0  0  0  0  0  0  0  0  0  0  0  0
  2 12  2  0
  2  1  1  0
  3  2  1  0
  4  5  1  0
  4  3  2  0
  5 11  2  0
  6  5  1  0
  7  6  1  0
  7  8  1  1
  9 13  1  0
  9  7  1  0
 10  9  2  0
 11 12  1  0
 14 13  1  0
 14 15  1  6
 16 15  1  0
 17 14  1  0
 17 18  2  0
 19 17  1  0
 20 19  1  0
 20 21  1  1
 22 21  1  0
 22 30  1  0
 23 24  1  0
 23 22  2  0
 24 25  1  0
 25 30  2  0
 25 26  1  0
 26 27  2  0
 27 28  1  0
 29 28  2  0
 30 29  1  0
 31 20  1  0
 32 31  1  0
 33 31  2  0
M  END
$$$$
