YCW.pdb
     RDKit          3D

 33 35  0  0  1  0  0  0  0  0999 V2000
   17.7490  -20.2047  -23.5128 O   0  0  0  0  0  0  0  0  0  0  0  0
   18.2029  -19.7433  -22.2709 C   0  0  0  0  0  0  0  0  0  0  0  0
   17.5294  -18.7617  -21.5740 C   0  0  0  0  0  0  0  0  0  0  0  0
   17.9834  -18.3128  -20.3510 C   0  0  0  0  0  0  0  0  0  0  0  0
   19.1344  -18.8272  -19.7690 C   0  0  0  0  0  0  0  0  0  0  0  0
   19.6257  -18.3452  -18.4503 C   0  0  0  0  0  0  0  0  0  0  0  0
   19.1824  -19.3273  -17.4041 C   0  0  2  0  0  0  0  0  0  0  0  0
   17.7398  -19.3788  -17.2845 N   0  0  0  0  0  0  0  0  0  0  0  0
   19.8356  -19.1260  -16.1014 C   0  0  0  0  0  0  0  0  0  0  0  0
   19.4502  -18.1498  -15.4076 O   0  0  0  0  0  0  0  0  0  0  0  0
   19.7964  -19.8077  -20.4778 C   0  0  0  0  0  0  0  0  0  0  0  0
   19.3467  -20.2596  -21.7002 C   0  0  0  0  0  0  0  0  0  0  0  0
   20.8635  -19.9704  -15.6017 N   0  0  0  0  0  0  0  0  0  0  0  0
   21.4582  -19.6858  -14.3396 C   0  0  1  0  0  0  0  0  0  0  0  0
   20.5088  -20.2111  -13.2626 C   0  0  0  0  0  0  0  0  0  0  0  0
   19.7661  -21.7509  -13.8394 S   0  0  0  0  0  0  0  0  0  0  0  0
   22.8139  -20.2567  -14.1792 C   0  0  0  0  0  0  0  0  0  0  0  0
   23.0942  -21.3399  -14.7513 O   0  0  0  0  0  0  0  0  0  0  0  0
   23.8278  -19.6379  -13.4032 N   0  0  0  0  0  0  0  0  0  0  0  0
   25.1124  -20.2124  -13.1358 C   0  0  1  0  0  0  0  0  0  0  0  0
   26.0231  -19.2653  -12.3771 C   0  0  0  0  0  0  0  0  0  0  0  0
   27.3512  -19.8824  -12.1435 C   0  0  0  0  0  0  0  0  0  0  0  0
   28.3995  -20.0839  -13.0307 C   0  0  0  0  0  0  0  0  0  0  0  0
   29.4145  -20.6817  -12.3851 N   0  0  0  0  0  0  0  0  0  0  0  0
   29.0850  -20.8885  -11.0968 C   0  0  0  0  0  0  0  0  0  0  0  0
   29.7573  -21.4514  -10.0454 C   0  0  0  0  0  0  0  0  0  0  0  0
   29.1445  -21.5241   -8.8146 C   0  0  0  0  0  0  0  0  0  0  0  0
   27.8619  -21.0392   -8.6193 C   0  0  0  0  0  0  0  0  0  0  0  0
   27.2258  -20.4829   -9.7031 C   0  0  0  0  0  0  0  0  0  0  0  0
   27.8121  -20.3965  -10.9434 C   0  0  0  0  0  0  0  0  0  0  0  0
   24.9324  -21.4138  -12.2927 C   0  0  0  0  0  0  0  0  0  0  0  0
   25.6924  -22.5660  -12.3943 O   0  0  0  0  0  0  0  0  0  0  0  0
   24.0339  -21.4101  -11.4182 O   0  0  0  0  0  0  0  0  0  0  0  0
  2 12  2  0
  2  1  1  0
  3  2  1  0
  4  5  1  0
  4  3  2  0
  5 11  2  0
  6  5  1  0
  7  6  1  0
  7  8  1  1
  9 13  1  0
  9  7  1  0
 10  9  2  0
 11 12  1  0
 14 13  1  0
 14 15  1  1
 16 15  1  0
 17 14  1  0
 17 18  2  0
 19 17  1  0
 20 19  1  0
 20 21  1  1
 22 21  1  0
 22 30  1  0
 23 24  1  0
 23 22  2  0
 24 25  1  0
 25 30  2  0
 25 26  1  0
 26 27  2  0
 27 28  1  0
 29 28  2  0
 30 29  1  0
 31 20  1  0
 32 31  1  0
 33 31  2  0
M  END
$$$$
