YCW.pdb
     RDKit          3D

 33 35  0  0  1  0  0  0  0  0999 V2000
   20.2480  -15.2271  -18.4151 O   0  0  0  0  0  0  0  0  0  0  0  0
   20.7728  -16.1523  -17.5039 C   0  0  0  0  0  0  0  0  0  0  0  0
   22.1065  -16.1438  -17.1520 C   0  0  0  0  0  0  0  0  0  0  0  0
   22.6154  -17.0588  -16.2536 C   0  0  0  0  0  0  0  0  0  0  0  0
   21.8106  -18.0257  -15.6656 C   0  0  0  0  0  0  0  0  0  0  0  0
   22.3568  -19.0130  -14.6963 C   0  0  0  0  0  0  0  0  0  0  0  0
   23.1665  -20.0172  -15.4653 C   0  0  2  0  0  0  0  0  0  0  0  0
   22.3283  -20.9410  -16.2017 N   0  0  0  0  0  0  0  0  0  0  0  0
   24.1636  -20.7170  -14.6404 C   0  0  0  0  0  0  0  0  0  0  0  0
   23.8142  -21.8035  -14.1110 O   0  0  0  0  0  0  0  0  0  0  0  0
   20.4798  -18.0212  -16.0275 C   0  0  0  0  0  0  0  0  0  0  0  0
   19.9666  -17.1090  -16.9247 C   0  0  0  0  0  0  0  0  0  0  0  0
   25.4797  -20.2286  -14.4198 N   0  0  0  0  0  0  0  0  0  0  0  0
   26.3036  -20.8430  -13.4343 C   0  0  1  0  0  0  0  0  0  0  0  0
   27.7499  -20.4626  -13.7515 C   0  0  0  0  0  0  0  0  0  0  0  0
   28.0200  -18.7440  -13.2731 S   0  0  0  0  0  0  0  0  0  0  0  0
   25.9473  -20.4722  -12.0467 C   0  0  0  0  0  0  0  0  0  0  0  0
   25.3936  -19.3649  -11.8313 O   0  0  0  0  0  0  0  0  0  0  0  0
   26.2011  -21.3118  -10.9315 N   0  0  0  0  0  0  0  0  0  0  0  0
   26.0432  -20.9176   -9.5636 C   0  0  1  0  0  0  0  0  0  0  0  0
   26.8164  -21.8104   -8.6112 C   0  0  0  0  0  0  0  0  0  0  0  0
   26.8702  -21.2148   -7.2541 C   0  0  0  0  0  0  0  0  0  0  0  0
   25.8323  -20.8249   -6.4192 C   0  0  0  0  0  0  0  0  0  0  0  0
   26.3448  -20.3331   -5.2791 N   0  0  0  0  0  0  0  0  0  0  0  0
   27.6892  -20.3790   -5.3190 C   0  0  0  0  0  0  0  0  0  0  0  0
   28.6578  -20.0058   -4.4263 C   0  0  0  0  0  0  0  0  0  0  0  0
   29.9829  -20.1797   -4.7575 C   0  0  0  0  0  0  0  0  0  0  0  0
   30.3551  -20.7245   -5.9754 C   0  0  0  0  0  0  0  0  0  0  0  0
   29.3488  -21.0842   -6.8395 C   0  0  0  0  0  0  0  0  0  0  0  0
   28.0178  -20.9226   -6.5365 C   0  0  0  0  0  0  0  0  0  0  0  0
   26.5681  -19.5451   -9.3983 C   0  0  0  0  0  0  0  0  0  0  0  0
   25.9761  -18.5660   -8.6195 O   0  0  0  0  0  0  0  0  0  0  0  0
   27.6221  -19.2243   -9.9966 O   0  0  0  0  0  0  0  0  0  0  0  0
  2 12  2  0
  2  1  1  0
  3  2  1  0
  4  5  1  0
  4  3  2  0
  5 11  2  0
  6  5  1  0
  7  6  1  0
  7  8  1  1
  9 13  1  0
  9  7  1  0
 10  9  2  0
 11 12  1  0
 14 13  1  0
 14 15  1  6
 16 15  1  0
 17 14  1  0
 17 18  2  0
 19 17  1  0
 20 19  1  0
 20 21  1  1
 22 21  1  0
 22 30  1  0
 23 24  1  0
 23 22  2  0
 24 25  1  0
 25 30  2  0
 25 26  1  0
 26 27  2  0
 27 28  1  0
 29 28  2  0
 30 29  1  0
 31 20  1  0
 32 31  1  0
 33 31  2  0
M  END
$$$$
