YCW.pdb
     RDKit          3D

 33 35  0  0  1  0  0  0  0  0999 V2000
   20.4036  -14.6829  -19.0891 O   0  0  0  0  0  0  0  0  0  0  0  0
   20.9277  -15.7011  -18.2828 C   0  0  0  0  0  0  0  0  0  0  0  0
   22.1265  -15.5514  -17.6170 C   0  0  0  0  0  0  0  0  0  0  0  0
   22.6358  -16.5595  -16.8248 C   0  0  0  0  0  0  0  0  0  0  0  0
   21.9669  -17.7655  -16.6627 C   0  0  0  0  0  0  0  0  0  0  0  0
   22.5138  -18.8537  -15.8087 C   0  0  0  0  0  0  0  0  0  0  0  0
   23.4968  -19.6371  -16.6304 C   0  0  2  0  0  0  0  0  0  0  0  0
   22.8469  -20.3854  -17.6867 N   0  0  0  0  0  0  0  0  0  0  0  0
   24.3867  -20.4856  -15.8226 C   0  0  0  0  0  0  0  0  0  0  0  0
   23.8783  -21.4980  -15.2753 O   0  0  0  0  0  0  0  0  0  0  0  0
   20.7700  -17.8998  -17.3346 C   0  0  0  0  0  0  0  0  0  0  0  0
   20.2570  -16.8955  -18.1274 C   0  0  0  0  0  0  0  0  0  0  0  0
   25.7696  -20.2167  -15.6369 N   0  0  0  0  0  0  0  0  0  0  0  0
   26.4654  -20.8199  -14.5508 C   0  0  1  0  0  0  0  0  0  0  0  0
   27.9480  -20.8489  -14.9226 C   0  0  0  0  0  0  0  0  0  0  0  0
   28.8884  -21.4917  -13.5234 S   0  0  0  0  0  0  0  0  0  0  0  0
   26.2541  -20.1352  -13.2561 C   0  0  0  0  0  0  0  0  0  0  0  0
   26.2401  -18.8791  -13.2224 O   0  0  0  0  0  0  0  0  0  0  0  0
   26.0641  -20.8309  -12.0343 N   0  0  0  0  0  0  0  0  0  0  0  0
   26.0016  -20.2094  -10.7453 C   0  0  1  0  0  0  0  0  0  0  0  0
   24.7014  -19.4586  -10.5274 C   0  0  0  0  0  0  0  0  0  0  0  0
   23.5708  -20.4008  -10.3446 C   0  0  0  0  0  0  0  0  0  0  0  0
   23.1359  -21.0457   -9.1951 C   0  0  0  0  0  0  0  0  0  0  0  0
   22.0729  -21.8105   -9.4943 N   0  0  0  0  0  0  0  0  0  0  0  0
   21.7789  -21.7018  -10.8030 C   0  0  0  0  0  0  0  0  0  0  0  0
   20.8086  -22.2665  -11.5866 C   0  0  0  0  0  0  0  0  0  0  0  0
   20.7590  -21.9558  -12.9270 C   0  0  0  0  0  0  0  0  0  0  0  0
   21.6709  -21.0836  -13.4980 C   0  0  0  0  0  0  0  0  0  0  0  0
   22.6269  -20.5411  -12.6730 C   0  0  0  0  0  0  0  0  0  0  0  0
   22.7011  -20.8325  -11.3317 C   0  0  0  0  0  0  0  0  0  0  0  0
   26.0798  -21.2576   -9.7052 C   0  0  0  0  0  0  0  0  0  0  0  0
   26.1520  -21.0111   -8.3452 O   0  0  0  0  0  0  0  0  0  0  0  0
   26.0823  -22.4608  -10.0577 O   0  0  0  0  0  0  0  0  0  0  0  0
  2 12  2  0
  2  1  1  0
  3  2  1  0
  4  5  1  0
  4  3  2  0
  5 11  2  0
  6  5  1  0
  7  6  1  0
  7  8  1  6
  9 13  1  0
  9  7  1  0
 10  9  2  0
 11 12  1  0
 14 13  1  0
 14 15  1  6
 16 15  1  0
 17 14  1  0
 17 18  2  0
 19 17  1  0
 20 19  1  0
 20 21  1  6
 22 21  1  0
 22 30  1  0
 23 24  1  0
 23 22  2  0
 24 25  1  0
 25 30  2  0
 25 26  1  0
 26 27  2  0
 27 28  1  0
 29 28  2  0
 30 29  1  0
 31 20  1  0
 32 31  1  0
 33 31  2  0
M  END
$$$$
