YCW.pdb
     RDKit          3D

 33 35  0  0  1  0  0  0  0  0999 V2000
  961.3077 -771.0392 -178.2486 O   0  0  0  0  0  0  0  0  0  0  0  0
  962.3077 -771.2256 -179.2111 C   0  0  0  0  0  0  0  0  0  0  0  0
  962.0016 -771.4741 -180.5334 C   0  0  0  0  0  0  0  0  0  0  0  0
  962.9933 -771.6561 -181.4751 C   0  0  0  0  0  0  0  0  0  0  0  0
  964.3382 -771.5981 -181.1358 C   0  0  0  0  0  0  0  0  0  0  0  0
  965.4094 -771.7937 -182.1498 C   0  0  0  0  0  0  0  0  0  0  0  0
  966.7065 -771.3380 -181.5463 C   0  0  2  0  0  0  0  0  0  0  0  0
  966.9726 -769.9407 -181.8214 N   0  0  0  0  0  0  0  0  0  0  0  0
  967.8482 -772.1953 -181.9020 C   0  0  0  0  0  0  0  0  0  0  0  0
  968.9893 -771.8220 -181.5259 O   0  0  0  0  0  0  0  0  0  0  0  0
  964.6282 -771.3489 -179.8105 C   0  0  0  0  0  0  0  0  0  0  0  0
  963.6415 -771.1664 -178.8655 C   0  0  0  0  0  0  0  0  0  0  0  0
  967.7211 -773.4041 -182.6381 N   0  0  0  0  0  0  0  0  0  0  0  0
  966.4628 -773.7544 -183.2059 C   0  0  1  0  0  0  0  0  0  0  0  0
  966.7065 -774.9218 -184.1623 C   0  0  0  0  0  0  0  0  0  0  0  0
  968.2244 -774.6115 -185.0877 S   0  0  0  0  0  0  0  0  0  0  0  0
  965.4315 -774.0958 -182.2006 C   0  0  0  0  0  0  0  0  0  0  0  0
  965.6710 -773.8916 -180.9840 O   0  0  0  0  0  0  0  0  0  0  0  0
  964.1707 -774.6486 -182.5422 N   0  0  0  0  0  0  0  0  0  0  0  0
  962.9120 -774.0005 -182.3241 C   0  0  1  0  0  0  0  0  0  0  0  0
  961.7383 -774.8501 -182.7745 C   0  0  0  0  0  0  0  0  0  0  0  0
  962.0347 -776.2938 -182.6053 C   0  0  0  0  0  0  0  0  0  0  0  0
  961.7070 -777.1454 -181.5592 C   0  0  0  0  0  0  0  0  0  0  0  0
  962.1801 -778.3741 -181.8277 N   0  0  0  0  0  0  0  0  0  0  0  0
  962.8124 -778.3771 -183.0154 C   0  0  0  0  0  0  0  0  0  0  0  0
  963.4522 -779.3580 -183.7239 C   0  0  0  0  0  0  0  0  0  0  0  0
  964.0173 -779.0512 -184.9416 C   0  0  0  0  0  0  0  0  0  0  0  0
  963.9503 -777.7701 -185.4637 C   0  0  0  0  0  0  0  0  0  0  0  0
  963.2980 -776.8181 -184.7174 C   0  0  0  0  0  0  0  0  0  0  0  0
  962.7249 -777.0948 -183.4994 C   0  0  0  0  0  0  0  0  0  0  0  0
  962.7445 -773.7579 -180.8749 C   0  0  0  0  0  0  0  0  0  0  0  0
  963.5199 -774.3375 -179.8864 O   0  0  0  0  0  0  0  0  0  0  0  0
  961.8425 -772.9756 -180.4934 O   0  0  0  0  0  0  0  0  0  0  0  0
  2 12  2  0
  2  1  1  0
  3  2  1  0
  4  5  1  0
  4  3  2  0
  5 11  2  0
  6  5  1  0
  7  6  1  0
  7  8  1  6
  9 13  1  0
  9  7  1  0
 10  9  2  0
 11 12  1  0
 14 13  1  0
 14 15  1  6
 16 15  1  0
 17 14  1  0
 17 18  2  0
 19 17  1  0
 20 19  1  0
 20 21  1  1
 22 21  1  0
 22 30  1  0
 23 24  1  0
 23 22  2  0
 24 25  1  0
 25 30  2  0
 25 26  1  0
 26 27  2  0
 27 28  1  0
 29 28  2  0
 30 29  1  0
 31 20  1  0
 32 31  1  0
 33 31  2  0
M  END
$$$$
