RHS.pdb
     RDKit          3D

 28 28  0  0  1  0  0  0  0  0999 V2000
   16.8109  -14.4836  -19.2300 N   0  0  0  0  0  0  0  0  0  0  0  0
   18.0032  -14.6998  -18.4928 C   0  0  0  0  0  0  0  0  0  0  0  0
   18.0210  -15.5209  -17.5230 N   0  0  0  0  0  0  0  0  0  0  0  0
   19.2167  -14.0042  -18.8182 N   0  0  0  0  0  0  0  0  0  0  0  0
   19.2966  -13.0295  -19.8424 C   0  0  0  0  0  0  0  0  0  0  0  0
   20.6156  -12.3767  -20.0648 C   0  0  0  0  0  0  0  0  0  0  0  0
   21.0124  -11.5426  -18.8822 C   0  0  0  0  0  0  0  0  0  0  0  0
   22.4712  -11.8125  -18.4834 C   0  0  2  0  0  0  0  0  0  0  0  0
   22.7589  -13.2021  -18.3599 N   0  0  0  0  0  0  0  0  0  0  0  0
   22.8577  -11.0243  -17.2898 C   0  0  0  0  0  0  0  0  0  0  0  0
   22.4451  -11.3746  -16.1404 O   0  0  0  0  0  0  0  0  0  0  0  0
   18.8966  -15.6789  -16.9857 N   0  0  0  0  0  0  0  0  0  0  0  0
   23.6791   -9.8767  -17.3676 C   0  0  1  0  0  0  0  0  0  0  0  0
   24.1531   -9.2114  -16.0861 C   0  0  0  0  0  0  0  0  0  0  0  0
   25.6186   -9.2759  -16.2139 C   0  0  0  0  0  0  0  0  0  0  0  0
   26.3124  -10.5434  -15.9573 C   0  0  0  0  0  0  0  0  0  0  0  0
   25.8614  -11.7890  -15.6277 N   0  0  0  0  0  0  0  0  0  0  0  0
   26.8730  -12.6976  -15.5629 C   0  0  0  0  0  0  0  0  0  0  0  0
   27.9618  -11.9856  -15.8616 N   0  0  0  0  0  0  0  0  0  0  0  0
   27.6784  -10.7176  -16.1004 C   0  0  0  0  0  0  0  0  0  0  0  0
   23.5638   -7.8415  -16.1954 O   0  0  0  0  0  0  0  0  0  0  0  0
   23.7350   -7.2678  -17.3386 O   0  0  0  0  0  0  0  0  0  0  0  0
   20.2163   -6.4052  -15.1520 C   0  0  0  0  0  0  0  0  0  0  0  0
   21.0051   -5.7524  -16.0873 C   0  0  1  0  0  0  0  0  0  0  0  0
   22.4333   -5.7492  -15.5448 N   0  0  0  0  0  0  0  0  0  0  0  0
   22.8676   -7.1107  -15.2607 C   0  0  0  0  0  0  0  0  0  0  0  0
   22.5298   -4.8925  -14.3434 O   0  0  0  0  0  0  0  0  0  0  0  0
   22.3355   -3.6558  -14.4128 O   0  0  0  0  0  0  0  0  0  0  0  0
  2  3  2  0
  2  1  1  0
  4  2  1  0
  5  4  1  0
  6  5  1  0
  7  6  1  0
  7  8  1  0
  8  9  1  1
 10  8  1  0
 10 11  2  0
 12 10  1  0
 13 12  1  0
 13 14  1  1
 15 14  1  0
 15 16  2  0
 17 16  1  0
 18 17  1  0
 19 18  2  0
 19 15  1  0
 20 13  1  0
 21 20  2  0
 23 22  1  0
 24 23  1  6
 24 26  1  0
 24 25  1  0
 25 20  1  0
 26 28  1  0
 27 26  2  0
M  END
$$$$
