RHS.pdb
     RDKit          3D

 28 28  0  0  1  0  0  0  0  0999 V2000
   20.6301   -8.9608  -18.5119 N   0  0  0  0  0  0  0  0  0  0  0  0
   21.5348   -8.1266  -17.8065 C   0  0  0  0  0  0  0  0  0  0  0  0
   22.3773   -7.4131  -18.4357 N   0  0  0  0  0  0  0  0  0  0  0  0
   21.5253   -8.0628  -16.3719 N   0  0  0  0  0  0  0  0  0  0  0  0
   20.4061   -7.6184  -15.6266 C   0  0  0  0  0  0  0  0  0  0  0  0
   20.5629   -7.5189  -14.1498 C   0  0  0  0  0  0  0  0  0  0  0  0
   19.3169   -6.9822  -13.5086 C   0  0  0  0  0  0  0  0  0  0  0  0
   18.5920   -8.0781  -12.7127 C   0  0  2  0  0  0  0  0  0  0  0  0
   18.4099   -9.2739  -13.4649 N   0  0  0  0  0  0  0  0  0  0  0  0
   17.3388   -7.5664  -12.1105 C   0  0  0  0  0  0  0  0  0  0  0  0
   16.2626   -7.5775  -12.7856 O   0  0  0  0  0  0  0  0  0  0  0  0
   23.0940   -6.8679  -17.9167 N   0  0  0  0  0  0  0  0  0  0  0  0
   17.2794   -7.0543  -10.7944 C   0  0  1  0  0  0  0  0  0  0  0  0
   15.9275   -6.7259  -10.1830 C   0  0  0  0  0  0  0  0  0  0  0  0
   15.8356   -7.6876   -9.0716 C   0  0  0  0  0  0  0  0  0  0  0  0
   15.4139   -9.0671   -9.3413 C   0  0  0  0  0  0  0  0  0  0  0  0
   14.1951   -9.6215   -9.6074 N   0  0  0  0  0  0  0  0  0  0  0  0
   14.2875  -10.9528   -9.8758 C   0  0  0  0  0  0  0  0  0  0  0  0
   15.5930  -11.2102   -9.7712 N   0  0  0  0  0  0  0  0  0  0  0  0
   16.2903  -10.1324   -9.4597 C   0  0  0  0  0  0  0  0  0  0  0  0
   16.0945   -5.2968   -9.7765 O   0  0  0  0  0  0  0  0  0  0  0  0
   17.2030   -5.0317   -9.1715 O   0  0  0  0  0  0  0  0  0  0  0  0
   15.3510   -0.6005  -10.0395 C   0  0  0  0  0  0  0  0  0  0  0  0
   14.9760   -1.8562  -10.4931 C   0  0  1  0  0  0  0  0  0  0  0  0
   15.6430   -2.8811   -9.5772 N   0  0  0  0  0  0  0  0  0  0  0  0
   15.2442   -4.2303   -9.9559 C   0  0  0  0  0  0  0  0  0  0  0  0
   15.3173   -2.6015   -8.1621 O   0  0  0  0  0  0  0  0  0  0  0  0
   14.5337   -3.3402   -7.5199 O   0  0  0  0  0  0  0  0  0  0  0  0
  2  3  2  0
  2  1  1  0
  4  2  1  0
  5  4  1  0
  6  5  1  0
  7  6  1  0
  7  8  1  0
  8  9  1  6
 10  8  1  0
 10 11  2  0
 12 10  1  0
 13 12  1  0
 13 14  1  6
 15 14  1  0
 15 16  2  0
 17 16  1  0
 18 17  1  0
 19 18  2  0
 19 15  1  0
 20 13  1  0
 21 20  2  0
 23 22  1  0
 24 23  1  6
 24 26  1  0
 24 25  1  0
 25 20  1  0
 26 28  1  0
 27 26  2  0
M  END
$$$$
