RHS.pdb
     RDKit          3D

 28 28  0  0  1  0  0  0  0  0999 V2000
   33.8589  -27.8187  -17.4584 N   0  0  0  0  0  0  0  0  0  0  0  0
   33.6778  -27.3898  -18.7982 C   0  0  0  0  0  0  0  0  0  0  0  0
   34.2007  -28.0378  -19.7582 N   0  0  0  0  0  0  0  0  0  0  0  0
   32.9034  -26.2207  -19.1078 N   0  0  0  0  0  0  0  0  0  0  0  0
   32.0170  -25.6153  -18.1842 C   0  0  0  0  0  0  0  0  0  0  0  0
   30.6089  -25.4098  -18.6206 C   0  0  0  0  0  0  0  0  0  0  0  0
   30.2235  -23.9618  -18.5400 C   0  0  0  0  0  0  0  0  0  0  0  0
   29.8510  -23.5711  -17.1017 C   0  0  2  0  0  0  0  0  0  0  0  0
   29.6692  -24.7019  -16.2548 N   0  0  0  0  0  0  0  0  0  0  0  0
   28.7069  -22.6300  -17.0787 C   0  0  0  0  0  0  0  0  0  0  0  0
   27.7570  -22.8100  -16.2544 O   0  0  0  0  0  0  0  0  0  0  0  0
   34.0906  -27.7051  -20.7367 N   0  0  0  0  0  0  0  0  0  0  0  0
   28.6166  -21.5187  -17.9475 C   0  0  2  0  0  0  0  0  0  0  0  0
   27.4889  -20.5172  -17.7613 C   0  0  0  0  0  0  0  0  0  0  0  0
   28.1236  -19.2444  -18.1430 C   0  0  0  0  0  0  0  0  0  0  0  0
   27.2965  -18.0428  -18.3037 C   0  0  0  0  0  0  0  0  0  0  0  0
   25.9778  -17.7932  -18.0544 N   0  0  0  0  0  0  0  0  0  0  0  0
   25.6528  -16.4910  -18.2818 C   0  0  0  0  0  0  0  0  0  0  0  0
   26.8022  -15.9390  -18.6767 N   0  0  0  0  0  0  0  0  0  0  0  0
   27.7920  -16.8133  -18.7033 C   0  0  0  0  0  0  0  0  0  0  0  0
   26.4491  -21.0203  -18.7107 O   0  0  0  0  0  0  0  0  0  0  0  0
   26.9137  -21.5534  -19.7901 O   0  0  0  0  0  0  0  0  0  0  0  0
   22.3843  -20.9031  -18.3604 C   0  0  0  0  0  0  0  0  0  0  0  0
   22.8904  -22.0245  -19.0003 C   0  0  1  0  0  0  0  0  0  0  0  0
   24.2339  -21.6253  -19.6084 N   0  0  0  0  0  0  0  0  0  0  0  0
   25.0781  -21.0000  -18.5989 C   0  0  0  0  0  0  0  0  0  0  0  0
   24.0327  -20.7320  -20.7694 O   0  0  0  0  0  0  0  0  0  0  0  0
   24.3584  -19.5223  -20.7197 O   0  0  0  0  0  0  0  0  0  0  0  0
  2  3  2  0
  2  1  1  0
  4  2  1  0
  5  4  1  0
  6  5  1  0
  7  6  1  0
  7  8  1  0
  8  9  1  1
 10  8  1  0
 10 11  2  0
 12 10  1  0
 13 12  1  0
 13 14  1  1
 15 14  1  0
 15 16  2  0
 17 16  1  0
 18 17  1  0
 19 18  2  0
 19 15  1  0
 20 13  1  0
 21 20  2  0
 23 22  1  0
 24 23  1  1
 24 26  1  0
 24 25  1  0
 25 20  1  0
 26 28  1  0
 27 26  2  0
M  END
$$$$
