RHS.pdb
     RDKit          3D

 28 28  0  0  1  0  0  0  0  0999 V2000
   38.7404   -5.1698  -10.5126 N   0  0  0  0  0  0  0  0  0  0  0  0
   37.9582   -6.3021  -10.8564 C   0  0  0  0  0  0  0  0  0  0  0  0
   37.4659   -6.4149  -12.0225 N   0  0  0  0  0  0  0  0  0  0  0  0
   37.7024   -7.3472   -9.9054 N   0  0  0  0  0  0  0  0  0  0  0  0
   37.9036   -7.1895   -8.5125 C   0  0  0  0  0  0  0  0  0  0  0  0
   37.5707   -8.3465   -7.6374 C   0  0  0  0  0  0  0  0  0  0  0  0
   38.5675   -8.4875   -6.5247 C   0  0  0  0  0  0  0  0  0  0  0  0
   39.4129   -9.7580   -6.7012 C   0  0  2  0  0  0  0  0  0  0  0  0
   38.7624  -10.9241   -6.2053 N   0  0  0  0  0  0  0  0  0  0  0  0
   40.7804   -9.5739   -6.1615 C   0  0  0  0  0  0  0  0  0  0  0  0
   41.0300   -9.8810   -4.9543 O   0  0  0  0  0  0  0  0  0  0  0  0
   36.9790   -7.2889  -12.3038 N   0  0  0  0  0  0  0  0  0  0  0  0
   41.8439   -9.0615   -6.9389 C   0  0  2  0  0  0  0  0  0  0  0  0
   43.2363   -8.9807   -6.3355 C   0  0  0  0  0  0  0  0  0  0  0  0
   44.0849   -9.5155   -7.4134 C   0  0  0  0  0  0  0  0  0  0  0  0
   44.4256  -10.9429   -7.4256 C   0  0  0  0  0  0  0  0  0  0  0  0
   44.0723  -11.9804   -6.6117 N   0  0  0  0  0  0  0  0  0  0  0  0
   44.5686  -13.1682   -7.0540 C   0  0  0  0  0  0  0  0  0  0  0  0
   45.2370  -12.8425   -8.1626 N   0  0  0  0  0  0  0  0  0  0  0  0
   45.1785  -11.5477   -8.4178 C   0  0  0  0  0  0  0  0  0  0  0  0
   43.3899   -7.5172   -6.0706 O   0  0  0  0  0  0  0  0  0  0  0  0
   43.0801   -6.7517   -7.0622 O   0  0  0  0  0  0  0  0  0  0  0  0
   43.7251   -5.6436   -2.5764 C   0  0  0  0  0  0  0  0  0  0  0  0
   43.3189   -4.8501   -3.6387 C   0  0  1  0  0  0  0  0  0  0  0  0
   43.9632   -5.4247   -4.8992 N   0  0  0  0  0  0  0  0  0  0  0  0
   43.8080   -6.8731   -4.9291 C   0  0  0  0  0  0  0  0  0  0  0  0
   45.3875   -5.0349   -4.9775 O   0  0  0  0  0  0  0  0  0  0  0  0
   46.2979   -5.8957   -4.9311 O   0  0  0  0  0  0  0  0  0  0  0  0
  2  3  2  0
  2  1  1  0
  4  2  1  0
  5  4  1  0
  6  5  1  0
  7  6  1  0
  7  8  1  0
  8  9  1  1
 10  8  1  0
 10 11  2  0
 12 10  1  0
 13 12  1  0
 13 14  1  1
 15 14  1  0
 15 16  2  0
 17 16  1  0
 18 17  1  0
 19 18  2  0
 19 15  1  0
 20 13  1  0
 21 20  2  0
 23 22  1  0
 24 23  1  6
 24 26  1  0
 24 25  1  0
 25 20  1  0
 26 28  1  0
 27 26  2  0
M  END
$$$$
