RHS.pdb
     RDKit          3D

 28 28  0  0  1  0  0  0  0  0999 V2000
   26.8524  -25.9382  -15.9410 N   0  0  0  0  0  0  0  0  0  0  0  0
   27.2693  -25.8822  -17.2957 C   0  0  0  0  0  0  0  0  0  0  0  0
   27.1664  -26.9041  -18.0440 N   0  0  0  0  0  0  0  0  0  0  0  0
   27.8144  -24.6785  -17.8580 N   0  0  0  0  0  0  0  0  0  0  0  0
   27.5860  -23.3954  -17.3040 C   0  0  0  0  0  0  0  0  0  0  0  0
   28.2668  -23.0731  -16.0202 C   0  0  0  0  0  0  0  0  0  0  0  0
   27.9963  -21.6566  -15.6054 C   0  0  0  0  0  0  0  0  0  0  0  0
   26.5284  -21.2803  -15.8577 C   0  0  2  0  0  0  0  0  0  0  0  0
   26.3416  -20.5931  -17.0913 N   0  0  0  0  0  0  0  0  0  0  0  0
   25.9475  -20.5688  -14.6952 C   0  0  0  0  0  0  0  0  0  0  0  0
   25.9711  -19.2992  -14.6550 O   0  0  0  0  0  0  0  0  0  0  0  0
   27.4726  -26.8602  -19.0363 N   0  0  0  0  0  0  0  0  0  0  0  0
   25.3569  -21.2464  -13.6043 C   0  0  2  0  0  0  0  0  0  0  0  0
   24.6383  -20.4460  -12.5308 C   0  0  0  0  0  0  0  0  0  0  0  0
   23.2267  -20.7973  -12.7593 C   0  0  0  0  0  0  0  0  0  0  0  0
   22.4448  -20.0460  -13.7481 C   0  0  0  0  0  0  0  0  0  0  0  0
   22.7626  -19.0093  -14.5774 N   0  0  0  0  0  0  0  0  0  0  0  0
   21.7276  -18.6746  -15.3959 C   0  0  0  0  0  0  0  0  0  0  0  0
   20.7610  -19.5297  -15.0550 N   0  0  0  0  0  0  0  0  0  0  0  0
   21.1392  -20.3520  -14.0929 C   0  0  0  0  0  0  0  0  0  0  0  0
   25.2335  -20.9873  -11.2705 O   0  0  0  0  0  0  0  0  0  0  0  0
   25.2970  -22.2748  -11.2108 O   0  0  0  0  0  0  0  0  0  0  0  0
   26.2401  -18.8767   -7.9252 C   0  0  0  0  0  0  0  0  0  0  0  0
   26.7580  -20.1626   -7.9602 C   0  0  1  0  0  0  0  0  0  0  0  0
   25.8604  -20.9821   -8.8859 N   0  0  0  0  0  0  0  0  0  0  0  0
   25.7228  -20.3155  -10.1742 C   0  0  0  0  0  0  0  0  0  0  0  0
   24.5422  -21.2149   -8.2576 O   0  0  0  0  0  0  0  0  0  0  0  0
   23.4904  -20.7708   -8.7757 O   0  0  0  0  0  0  0  0  0  0  0  0
  2  3  2  0
  2  1  1  0
  4  2  1  0
  5  4  1  0
  6  5  1  0
  7  6  1  0
  7  8  1  0
  8  9  1  6
 10  8  1  0
 10 11  2  0
 12 10  1  0
 13 12  1  0
 13 14  1  6
 15 14  1  0
 15 16  2  0
 17 16  1  0
 18 17  1  0
 19 18  2  0
 19 15  1  0
 20 13  1  0
 21 20  2  0
 23 22  1  0
 24 23  1  6
 24 26  1  0
 24 25  1  0
 25 20  1  0
 26 28  1  0
 27 26  2  0
M  END
$$$$
