RHS.pdb
     RDKit          3D

 28 28  0  0  1  0  0  0  0  0999 V2000
   28.7334  -25.9576  -16.3024 N   0  0  0  0  0  0  0  0  0  0  0  0
   27.3164  -25.9289  -16.3596 C   0  0  0  0  0  0  0  0  0  0  0  0
   26.6390  -26.9643  -16.0697 N   0  0  0  0  0  0  0  0  0  0  0  0
   26.6103  -24.7385  -16.7424 N   0  0  0  0  0  0  0  0  0  0  0  0
   27.2640  -23.5570  -17.1692 C   0  0  0  0  0  0  0  0  0  0  0  0
   27.9190  -22.7220  -16.1257 C   0  0  0  0  0  0  0  0  0  0  0  0
   26.9022  -22.0966  -15.2164 C   0  0  0  0  0  0  0  0  0  0  0  0
   26.3396  -20.8040  -15.8269 C   0  0  2  0  0  0  0  0  0  0  0  0
   27.3557  -19.8551  -16.1368 N   0  0  0  0  0  0  0  0  0  0  0  0
   25.2488  -20.2457  -14.9940 C   0  0  0  0  0  0  0  0  0  0  0  0
   25.5184  -19.7186  -13.8700 O   0  0  0  0  0  0  0  0  0  0  0  0
   25.6052  -26.9615  -16.1769 N   0  0  0  0  0  0  0  0  0  0  0  0
   23.8938  -20.2718  -15.3955 C   0  0  2  0  0  0  0  0  0  0  0  0
   22.8151  -19.8673  -14.4043 C   0  0  0  0  0  0  0  0  0  0  0  0
   22.3309  -18.5922  -14.9595 C   0  0  0  0  0  0  0  0  0  0  0  0
   21.1188  -17.9763  -14.4072 C   0  0  0  0  0  0  0  0  0  0  0  0
   20.8340  -17.4404  -13.1844 N   0  0  0  0  0  0  0  0  0  0  0  0
   19.5842  -16.9026  -13.1412 C   0  0  0  0  0  0  0  0  0  0  0  0
   19.1015  -17.1167  -14.3672 N   0  0  0  0  0  0  0  0  0  0  0  0
   19.9688  -17.7431  -15.1421 C   0  0  0  0  0  0  0  0  0  0  0  0
   21.8513  -21.0070  -14.4917 O   0  0  0  0  0  0  0  0  0  0  0  0
   21.7867  -21.5744  -15.6489 O   0  0  0  0  0  0  0  0  0  0  0  0
   19.4862  -22.6476  -11.5672 C   0  0  0  0  0  0  0  0  0  0  0  0
   19.9323  -23.5035  -12.5630 C   0  0  1  0  0  0  0  0  0  0  0  0
   20.1488  -22.6578  -13.8169 N   0  0  0  0  0  0  0  0  0  0  0  0
   21.0313  -21.5365  -13.5223 C   0  0  0  0  0  0  0  0  0  0  0  0
   18.8538  -22.1945  -14.3599 O   0  0  0  0  0  0  0  0  0  0  0  0
   18.5262  -20.9853  -14.3101 O   0  0  0  0  0  0  0  0  0  0  0  0
  2  3  2  0
  2  1  1  0
  4  2  1  0
  5  4  1  0
  6  5  1  0
  7  6  1  0
  7  8  1  0
  8  9  1  1
 10  8  1  0
 10 11  2  0
 12 10  1  0
 13 12  1  0
 13 14  1  6
 15 14  1  0
 15 16  2  0
 17 16  1  0
 18 17  1  0
 19 18  2  0
 19 15  1  0
 20 13  1  0
 21 20  2  0
 23 22  1  0
 24 23  1  6
 24 26  1  0
 24 25  1  0
 25 20  1  0
 26 28  1  0
 27 26  2  0
M  END
$$$$
