RHS.pdb
     RDKit          3D

 28 28  0  0  1  0  0  0  0  0999 V2000
   28.6764  -26.1674  -16.3375 N   0  0  0  0  0  0  0  0  0  0  0  0
   28.2923  -25.6128  -17.5852 C   0  0  0  0  0  0  0  0  0  0  0  0
   28.6463  -26.1667  -18.6727 N   0  0  0  0  0  0  0  0  0  0  0  0
   27.4971  -24.4191  -17.6565 N   0  0  0  0  0  0  0  0  0  0  0  0
   26.5191  -24.0843  -16.6886 C   0  0  0  0  0  0  0  0  0  0  0  0
   25.5219  -25.1304  -16.3329 C   0  0  0  0  0  0  0  0  0  0  0  0
   24.4432  -24.5720  -15.4518 C   0  0  0  0  0  0  0  0  0  0  0  0
   23.2141  -24.1640  -16.2783 C   0  0  2  0  0  0  0  0  0  0  0  0
   23.5598  -23.4466  -17.4593 N   0  0  0  0  0  0  0  0  0  0  0  0
   22.2093  -23.4680  -15.4411 C   0  0  0  0  0  0  0  0  0  0  0  0
   21.8145  -23.9979  -14.3560 O   0  0  0  0  0  0  0  0  0  0  0  0
   28.4736  -25.6943  -19.5823 N   0  0  0  0  0  0  0  0  0  0  0  0
   21.6550  -22.2175  -15.7973 C   0  0  1  0  0  0  0  0  0  0  0  0
   20.7155  -21.5163  -14.8303 C   0  0  0  0  0  0  0  0  0  0  0  0
   21.4874  -20.3246  -14.4400 C   0  0  0  0  0  0  0  0  0  0  0  0
   22.6628  -20.4751  -13.5744 C   0  0  0  0  0  0  0  0  0  0  0  0
   22.7990  -20.6125  -12.2230 N   0  0  0  0  0  0  0  0  0  0  0  0
   24.0961  -20.8041  -11.8575 C   0  0  0  0  0  0  0  0  0  0  0  0
   24.7608  -20.7838  -13.0149 N   0  0  0  0  0  0  0  0  0  0  0  0
   23.9587  -20.5939  -14.0472 C   0  0  0  0  0  0  0  0  0  0  0  0
   19.5160  -21.2476  -15.6816 O   0  0  0  0  0  0  0  0  0  0  0  0
   19.5840  -20.1703  -16.3888 O   0  0  0  0  0  0  0  0  0  0  0  0
   15.2547  -21.5810  -13.9857 C   0  0  0  0  0  0  0  0  0  0  0  0
   16.5487  -22.0426  -14.1742 C   0  0  2  0  0  0  0  0  0  0  0  0
   17.0654  -21.4126  -15.4666 N   0  0  0  0  0  0  0  0  0  0  0  0
   18.3597  -21.9797  -15.8213 C   0  0  0  0  0  0  0  0  0  0  0  0
   17.1415  -19.9419  -15.3322 O   0  0  0  0  0  0  0  0  0  0  0  0
   17.9391  -19.4057  -14.5271 O   0  0  0  0  0  0  0  0  0  0  0  0
  2  3  2  0
  2  1  1  0
  4  2  1  0
  5  4  1  0
  6  5  1  0
  7  6  1  0
  7  8  1  0
  8  9  1  6
 10  8  1  0
 10 11  2  0
 12 10  1  0
 13 12  1  0
 13 14  1  1
 15 14  1  0
 15 16  2  0
 17 16  1  0
 18 17  1  0
 19 18  2  0
 19 15  1  0
 20 13  1  0
 21 20  2  0
 23 22  1  0
 24 23  1  6
 24 26  1  0
 24 25  1  0
 25 20  1  0
 26 28  1  0
 27 26  2  0
M  END
$$$$
