RHS.pdb
     RDKit          3D

 28 28  0  0  1  0  0  0  0  0999 V2000
   24.6095  -30.4518  -18.5525 N   0  0  0  0  0  0  0  0  0  0  0  0
   24.9175  -31.3720  -17.5180 C   0  0  0  0  0  0  0  0  0  0  0  0
   24.1231  -32.3262  -17.2472 N   0  0  0  0  0  0  0  0  0  0  0  0
   26.1269  -31.2549  -16.7526 N   0  0  0  0  0  0  0  0  0  0  0  0
   27.0789  -30.2284  -16.9658 C   0  0  0  0  0  0  0  0  0  0  0  0
   28.3578  -30.6074  -17.6264 C   0  0  0  0  0  0  0  0  0  0  0  0
   29.0876  -31.6513  -16.8331 C   0  0  0  0  0  0  0  0  0  0  0  0
   30.4300  -32.0038  -17.4916 C   0  0  2  0  0  0  0  0  0  0  0  0
   30.5364  -31.5070  -18.8223 N   0  0  0  0  0  0  0  0  0  0  0  0
   30.7201  -33.4525  -17.3805 C   0  0  0  0  0  0  0  0  0  0  0  0
   30.4620  -34.2253  -18.3554 O   0  0  0  0  0  0  0  0  0  0  0  0
   24.3638  -33.0147  -16.5067 N   0  0  0  0  0  0  0  0  0  0  0  0
   31.2805  -34.0307  -16.2188 C   0  0  2  0  0  0  0  0  0  0  0  0
   31.6562  -35.5032  -16.2263 C   0  0  0  0  0  0  0  0  0  0  0  0
   32.7880  -35.5506  -15.2855 C   0  0  0  0  0  0  0  0  0  0  0  0
   33.4192  -36.8390  -14.9771 C   0  0  0  0  0  0  0  0  0  0  0  0
   33.1976  -38.1056  -15.4356 N   0  0  0  0  0  0  0  0  0  0  0  0
   34.0888  -38.9975  -14.9224 C   0  0  0  0  0  0  0  0  0  0  0  0
   34.8692  -38.2532  -14.1359 N   0  0  0  0  0  0  0  0  0  0  0  0
   34.5121  -36.9814  -14.1390 C   0  0  0  0  0  0  0  0  0  0  0  0
   30.4014  -36.1599  -15.7469 O   0  0  0  0  0  0  0  0  0  0  0  0
   29.7629  -35.5074  -14.8349 O   0  0  0  0  0  0  0  0  0  0  0  0
   28.3442  -40.1187  -15.4246 C   0  0  0  0  0  0  0  0  0  0  0  0
   28.0866  -39.0615  -16.2843 C   0  0  1  0  0  0  0  0  0  0  0  0
   28.5577  -37.7886  -15.5828 N   0  0  0  0  0  0  0  0  0  0  0  0
   29.8315  -37.3496  -16.1373 C   0  0  0  0  0  0  0  0  0  0  0  0
   28.6529  -38.0058  -14.1232 O   0  0  0  0  0  0  0  0  0  0  0  0
   29.7570  -38.2288  -13.5725 O   0  0  0  0  0  0  0  0  0  0  0  0
  2  3  2  0
  2  1  1  0
  4  2  1  0
  5  4  1  0
  6  5  1  0
  7  6  1  0
  7  8  1  0
  8  9  1  6
 10  8  1  0
 10 11  2  0
 12 10  1  0
 13 12  1  0
 13 14  1  1
 15 14  1  0
 15 16  2  0
 17 16  1  0
 18 17  1  0
 19 18  2  0
 19 15  1  0
 20 13  1  0
 21 20  2  0
 23 22  1  0
 24 23  1  6
 24 26  1  0
 24 25  1  0
 25 20  1  0
 26 28  1  0
 27 26  2  0
M  END
$$$$
