RHS.pdb
     RDKit          3D

 28 28  0  0  1  0  0  0  0  0999 V2000
   22.3613  -18.6829  -14.2300 N   0  0  0  0  0  0  0  0  0  0  0  0
   22.4895  -19.3545  -15.4728 C   0  0  0  0  0  0  0  0  0  0  0  0
   21.6536  -20.2504  -15.8100 N   0  0  0  0  0  0  0  0  0  0  0  0
   23.5581  -19.0442  -16.3805 N   0  0  0  0  0  0  0  0  0  0  0  0
   23.9835  -17.7202  -16.6480 C   0  0  0  0  0  0  0  0  0  0  0  0
   25.2993  -17.2990  -16.0944 C   0  0  0  0  0  0  0  0  0  0  0  0
   25.6053  -15.8740  -16.4517 C   0  0  0  0  0  0  0  0  0  0  0  0
   24.8199  -14.9021  -15.5580 C   0  0  2  0  0  0  0  0  0  0  0  0
   23.4474  -15.2606  -15.4300 N   0  0  0  0  0  0  0  0  0  0  0  0
   25.0229  -13.4971  -15.9823 C   0  0  0  0  0  0  0  0  0  0  0  0
   26.1830  -13.0979  -16.3124 O   0  0  0  0  0  0  0  0  0  0  0  0
   21.7655  -20.7603  -16.7087 N   0  0  0  0  0  0  0  0  0  0  0  0
   23.9681  -12.5579  -16.0382 C   0  0  1  0  0  0  0  0  0  0  0  0
   24.2326  -11.1732  -16.6057 C   0  0  0  0  0  0  0  0  0  0  0  0
   24.4581  -11.4494  -18.0344 C   0  0  0  0  0  0  0  0  0  0  0  0
   24.5791  -10.3315  -18.9773 C   0  0  0  0  0  0  0  0  0  0  0  0
   25.6325   -9.8426  -19.6949 N   0  0  0  0  0  0  0  0  0  0  0  0
   25.2613   -8.8225  -20.5163 C   0  0  0  0  0  0  0  0  0  0  0  0
   23.9520   -8.6916  -20.2917 N   0  0  0  0  0  0  0  0  0  0  0  0
   23.5106   -9.5571  -19.3967 C   0  0  0  0  0  0  0  0  0  0  0  0
   22.9649  -10.4462  -16.2897 O   0  0  0  0  0  0  0  0  0  0  0  0
   21.8847  -11.0864  -16.5872 O   0  0  0  0  0  0  0  0  0  0  0  0
   21.6322   -8.7781  -13.2140 C   0  0  0  0  0  0  0  0  0  0  0  0
   20.8227   -9.1857  -14.2636 C   0  0  1  0  0  0  0  0  0  0  0  0
   21.4501   -8.6476  -15.5485 N   0  0  0  0  0  0  0  0  0  0  0  0
   22.7849   -9.2031  -15.7286 C   0  0  0  0  0  0  0  0  0  0  0  0
   21.4808   -7.1693  -15.5309 O   0  0  0  0  0  0  0  0  0  0  0  0
   22.5675   -6.5441  -15.5463 O   0  0  0  0  0  0  0  0  0  0  0  0
  2  3  2  0
  2  1  1  0
  4  2  1  0
  5  4  1  0
  6  5  1  0
  7  6  1  0
  7  8  1  0
  8  9  1  6
 10  8  1  0
 10 11  2  0
 12 10  1  0
 13 12  1  0
 13 14  1  6
 15 14  1  0
 15 16  2  0
 17 16  1  0
 18 17  1  0
 19 18  2  0
 19 15  1  0
 20 13  1  0
 21 20  2  0
 23 22  1  0
 24 23  1  6
 24 26  1  0
 24 25  1  0
 25 20  1  0
 26 28  1  0
 27 26  2  0
M  END
$$$$
