RHS.pdb
     RDKit          3D

 28 28  0  0  1  0  0  0  0  0999 V2000
   28.7788  -26.3509  -16.7496 N   0  0  0  0  0  0  0  0  0  0  0  0
   28.0572  -27.4585  -17.2640 C   0  0  0  0  0  0  0  0  0  0  0  0
   28.4203  -28.6458  -16.9928 N   0  0  0  0  0  0  0  0  0  0  0  0
   26.9034  -27.2732  -18.0985 N   0  0  0  0  0  0  0  0  0  0  0  0
   26.0030  -26.1915  -17.9415 C   0  0  0  0  0  0  0  0  0  0  0  0
   25.8271  -25.6409  -16.5699 C   0  0  0  0  0  0  0  0  0  0  0  0
   24.8598  -24.4936  -16.5676 C   0  0  0  0  0  0  0  0  0  0  0  0
   25.5493  -23.1937  -16.1262 C   0  0  2  0  0  0  0  0  0  0  0  0
   26.8326  -23.4204  -15.5512 N   0  0  0  0  0  0  0  0  0  0  0  0
   24.6585  -22.3756  -15.2706 C   0  0  0  0  0  0  0  0  0  0  0  0
   24.5468  -22.6458  -14.0342 O   0  0  0  0  0  0  0  0  0  0  0  0
   27.8899  -29.4556  -17.3712 N   0  0  0  0  0  0  0  0  0  0  0  0
   23.9094  -21.2867  -15.7719 C   0  0  2  0  0  0  0  0  0  0  0  0
   23.0187  -20.4972  -14.8270 C   0  0  0  0  0  0  0  0  0  0  0  0
   22.8840  -19.2040  -15.5182 C   0  0  0  0  0  0  0  0  0  0  0  0
   21.9735  -18.1869  -14.9796 C   0  0  0  0  0  0  0  0  0  0  0  0
   21.1641  -18.1657  -13.8805 N   0  0  0  0  0  0  0  0  0  0  0  0
   20.5460  -16.9628  -13.7248 C   0  0  0  0  0  0  0  0  0  0  0  0
   20.9927  -16.2384  -14.7531 N   0  0  0  0  0  0  0  0  0  0  0  0
   21.8325  -16.9174  -15.5139 C   0  0  0  0  0  0  0  0  0  0  0  0
   21.7766  -21.3283  -14.7829 O   0  0  0  0  0  0  0  0  0  0  0  0
   21.4793  -21.9175  -15.8918 O   0  0  0  0  0  0  0  0  0  0  0  0
   19.4841  -22.5210  -11.5685 C   0  0  0  0  0  0  0  0  0  0  0  0
   19.6113  -23.3413  -12.6794 C   0  0  1  0  0  0  0  0  0  0  0  0
   19.7562  -22.4286  -13.8961 N   0  0  0  0  0  0  0  0  0  0  0  0
   20.9125  -21.5566  -13.7370 C   0  0  0  0  0  0  0  0  0  0  0  0
   18.5188  -21.6474  -14.1086 O   0  0  0  0  0  0  0  0  0  0  0  0
   18.5106  -20.4001  -13.9811 O   0  0  0  0  0  0  0  0  0  0  0  0
  2  3  2  0
  2  1  1  0
  4  2  1  0
  5  4  1  0
  6  5  1  0
  7  6  1  0
  7  8  1  0
  8  9  1  1
 10  8  1  0
 10 11  2  0
 12 10  1  0
 13 12  1  0
 13 14  1  1
 15 14  1  0
 15 16  2  0
 17 16  1  0
 18 17  1  0
 19 18  2  0
 19 15  1  0
 20 13  1  0
 21 20  2  0
 23 22  1  0
 24 23  1  6
 24 26  1  0
 24 25  1  0
 25 20  1  0
 26 28  1  0
 27 26  2  0
M  END
$$$$
