DKM.pdb
     RDKit          3D

 26 25  0  0  1  0  0  0  0  0999 V2000
   15.5862  -12.9928  -13.4439 N   0  0  0  0  0  0  0  0  0  0  0  0
   15.2983  -11.5930  -13.6405 C   0  0  1  0  0  0  0  0  0  0  0  0
   13.8252  -11.3498  -13.6079 C   0  0  0  0  0  0  0  0  0  0  0  0
   13.2011  -12.0289  -14.7657 C   0  0  0  0  0  0  0  0  0  0  0  0
   13.5004  -11.6755  -15.9302 O   0  0  0  0  0  0  0  0  0  0  0  0
   16.0552  -10.8045  -12.6659 C   0  0  0  0  0  0  0  0  0  0  0  0
   16.1137  -11.1604  -11.4659 O   0  0  0  0  0  0  0  0  0  0  0  0
   12.2832  -13.0575  -14.6144 O   0  0  0  0  0  0  0  0  0  0  0  0
   16.7233   -9.6298  -13.0979 N   0  0  0  0  0  0  0  0  0  0  0  0
   17.4795   -8.7767  -12.2275 C   0  0  1  0  0  0  0  0  0  0  0  0
   18.4799   -7.9650  -13.0497 C   0  0  0  0  0  0  0  0  0  0  0  0
   19.6265   -8.7953  -13.5118 C   0  0  0  0  0  0  0  0  0  0  0  0
   20.6326   -7.9385  -14.2286 C   0  0  0  0  0  0  0  0  0  0  0  0
   21.7308   -8.7631  -14.8136 C   0  0  0  0  0  0  0  0  0  0  0  0
   22.6563   -7.9215  -15.5642 N   0  0  0  0  0  0  0  0  0  0  0  0
   16.5648   -7.7760  -11.6239 C   0  0  0  0  0  0  0  0  0  0  0  0
   15.6917   -7.2416  -12.3656 O   0  0  0  0  0  0  0  0  0  0  0  0
   11.8786   -6.2511   -5.6794 C   0  0  0  0  0  0  0  0  0  0  0  0
   13.0503   -7.2319   -6.6078 S   0  0  0  0  0  0  0  0  0  0  0  0
   14.0114   -6.3621   -7.8209 C   0  0  0  0  0  0  0  0  0  0  0  0
   14.9449   -7.1760   -8.6438 C   0  0  0  0  0  0  0  0  0  0  0  0
   15.7030   -6.4557   -9.7040 C   0  0  2  0  0  0  0  0  0  0  0  0
   16.6655   -7.4284  -10.2578 N   0  0  0  0  0  0  0  0  0  0  0  0
   16.4706   -5.2996   -9.1494 C   0  0  0  0  0  0  0  0  0  0  0  0
   15.8288   -4.0877   -8.9485 O   0  0  0  0  0  0  0  0  0  0  0  0
   17.6748   -5.4013   -8.8636 O   0  0  0  0  0  0  0  0  0  0  0  0
  2  1  1  1
  2  3  1  0
  3  4  1  0
  4  8  1  0
  5  4  2  0
  6  2  1  0
  7  6  2  0
  9  6  1  0
 10 11  1  6
 10  9  1  0
 11 12  1  0
 12 13  1  0
 14 13  1  0
 14 15  1  0
 16 10  1  0
 17 16  2  0
 19 20  1  0
 19 18  1  0
 22 21  1  1
 21 20  1  0
 22 23  1  0
 23 16  1  0
 24 22  1  0
 24 25  1  0
 26 24  2  0
M  END
$$$$
