DKM.pdb
     RDKit          3D

 26 25  0  0  1  0  0  0  0  0999 V2000
   13.3500  -18.7328    4.7521 N   0  0  0  0  0  0  0  0  0  0  0  0
   14.2938  -18.8013    3.6632 C   0  0  1  0  0  0  0  0  0  0  0  0
   15.6086  -18.2218    4.0702 C   0  0  0  0  0  0  0  0  0  0  0  0
   15.4671  -16.7539    4.1981 C   0  0  0  0  0  0  0  0  0  0  0  0
   14.4076  -16.1961    3.8280 O   0  0  0  0  0  0  0  0  0  0  0  0
   14.3734  -20.1819    3.1814 C   0  0  0  0  0  0  0  0  0  0  0  0
   14.4599  -21.1350    3.9902 O   0  0  0  0  0  0  0  0  0  0  0  0
   16.4742  -15.9554    4.7190 O   0  0  0  0  0  0  0  0  0  0  0  0
   14.3511  -20.4279    1.7843 N   0  0  0  0  0  0  0  0  0  0  0  0
   14.4792  -21.7324    1.2022 C   0  0  1  0  0  0  0  0  0  0  0  0
   14.5032  -21.6124   -0.3212 C   0  0  0  0  0  0  0  0  0  0  0  0
   13.8054  -22.7501   -0.9817 C   0  0  0  0  0  0  0  0  0  0  0  0
   13.9276  -22.6373   -2.4759 C   0  0  0  0  0  0  0  0  0  0  0  0
   13.2116  -23.7508   -3.1658 C   0  0  0  0  0  0  0  0  0  0  0  0
   13.2132  -23.5412   -4.6095 N   0  0  0  0  0  0  0  0  0  0  0  0
   15.8020  -22.2944    1.5720 C   0  0  0  0  0  0  0  0  0  0  0  0
   16.7555  -21.4905    1.7782 O   0  0  0  0  0  0  0  0  0  0  0  0
   20.3000  -24.2167    6.8240 C   0  0  0  0  0  0  0  0  0  0  0  0
   18.7593  -23.8031    6.0166 S   0  0  0  0  0  0  0  0  0  0  0  0
   18.6126  -24.2879    4.3151 C   0  0  0  0  0  0  0  0  0  0  0  0
   17.4455  -23.7523    3.5652 C   0  0  0  0  0  0  0  0  0  0  0  0
   17.3055  -24.1865    2.1476 C   0  0  2  0  0  0  0  0  0  0  0  0
   15.9927  -23.6898    1.6905 N   0  0  0  0  0  0  0  0  0  0  0  0
   17.3145  -25.6754    2.0196 C   0  0  0  0  0  0  0  0  0  0  0  0
   16.1542  -26.3355    1.6469 O   0  0  0  0  0  0  0  0  0  0  0  0
   18.3424  -26.3364    2.2406 O   0  0  0  0  0  0  0  0  0  0  0  0
  2  1  1  1
  2  3  1  0
  3  4  1  0
  4  8  1  0
  5  4  2  0
  6  2  1  0
  7  6  2  0
  9  6  1  0
 10 11  1  6
 10  9  1  0
 11 12  1  0
 12 13  1  0
 14 13  1  0
 14 15  1  0
 16 10  1  0
 17 16  2  0
 19 20  1  0
 19 18  1  0
 22 21  1  1
 21 20  1  0
 22 23  1  0
 23 16  1  0
 24 22  1  0
 24 25  1  0
 26 24  2  0
M  END
$$$$
