DKM.pdb
     RDKit          3D

 26 25  0  0  1  0  0  0  0  0999 V2000
   20.6828  -22.2322  -11.6364 N   0  0  0  0  0  0  0  0  0  0  0  0
   20.2187  -21.7663  -12.9204 C   0  0  1  0  0  0  0  0  0  0  0  0
   18.7730  -21.3978  -12.8545 C   0  0  0  0  0  0  0  0  0  0  0  0
   18.0005  -22.5683  -12.3811 C   0  0  0  0  0  0  0  0  0  0  0  0
   17.0998  -22.4142  -11.5234 O   0  0  0  0  0  0  0  0  0  0  0  0
   21.0901  -20.6843  -13.3835 C   0  0  0  0  0  0  0  0  0  0  0  0
   21.3618  -19.7191  -12.6321 O   0  0  0  0  0  0  0  0  0  0  0  0
   18.2348  -23.8507  -12.8543 O   0  0  0  0  0  0  0  0  0  0  0  0
   21.6245  -20.7424  -14.6965 N   0  0  0  0  0  0  0  0  0  0  0  0
   22.4417  -19.7132  -15.2710 C   0  0  1  0  0  0  0  0  0  0  0  0
   23.4407  -20.3374  -16.2447 C   0  0  0  0  0  0  0  0  0  0  0  0
   24.4927  -21.1205  -15.5392 C   0  0  0  0  0  0  0  0  0  0  0  0
   25.3191  -21.8911  -16.5309 C   0  0  0  0  0  0  0  0  0  0  0  0
   26.3024  -22.7805  -15.8449 C   0  0  0  0  0  0  0  0  0  0  0  0
   27.0623  -23.5512  -16.8232 N   0  0  0  0  0  0  0  0  0  0  0  0
   21.5859  -18.8290  -16.1006 C   0  0  0  0  0  0  0  0  0  0  0  0
   20.4422  -19.2496  -16.4368 O   0  0  0  0  0  0  0  0  0  0  0  0
   17.2530  -13.5543  -13.9707 C   0  0  0  0  0  0  0  0  0  0  0  0
   18.5394  -14.7956  -13.9333 S   0  0  0  0  0  0  0  0  0  0  0  0
   19.3585  -15.1206  -15.4744 C   0  0  0  0  0  0  0  0  0  0  0  0
   20.3629  -16.2171  -15.4799 C   0  0  0  0  0  0  0  0  0  0  0  0
   21.0319  -16.5042  -16.7790 C   0  0  2  0  0  0  0  0  0  0  0  0
   22.0354  -17.5516  -16.5050 N   0  0  0  0  0  0  0  0  0  0  0  0
   21.7413  -15.3032  -17.3154 C   0  0  0  0  0  0  0  0  0  0  0  0
   23.1269  -15.2692  -17.3084 O   0  0  0  0  0  0  0  0  0  0  0  0
   21.1145  -14.3319  -17.7690 O   0  0  0  0  0  0  0  0  0  0  0  0
  2  1  1  1
  2  3  1  0
  3  4  1  0
  4  8  1  0
  5  4  2  0
  6  2  1  0
  7  6  2  0
  9  6  1  0
 10 11  1  6
 10  9  1  0
 11 12  1  0
 12 13  1  0
 14 13  1  0
 14 15  1  0
 16 10  1  0
 17 16  2  0
 19 20  1  0
 19 18  1  0
 22 21  1  1
 21 20  1  0
 22 23  1  0
 23 16  1  0
 24 22  1  0
 24 25  1  0
 26 24  2  0
M  END
$$$$
