DKM.pdb
     RDKit          3D

 26 25  0  0  1  0  0  0  0  0999 V2000
   25.7330  -18.1820  -16.2774 N   0  0  0  0  0  0  0  0  0  0  0  0
   26.6138  -18.3335  -15.1449 C   0  0  1  0  0  0  0  0  0  0  0  0
   27.3143  -17.0485  -14.8484 C   0  0  0  0  0  0  0  0  0  0  0  0
   28.0695  -16.6254  -16.0492 C   0  0  0  0  0  0  0  0  0  0  0  0
   28.8848  -17.4143  -16.5817 O   0  0  0  0  0  0  0  0  0  0  0  0
   25.8559  -18.8748  -14.0149 C   0  0  0  0  0  0  0  0  0  0  0  0
   24.8105  -18.3087  -13.6190 O   0  0  0  0  0  0  0  0  0  0  0  0
   27.9106  -15.3717  -16.6203 O   0  0  0  0  0  0  0  0  0  0  0  0
   26.3206  -20.0512  -13.3720 N   0  0  0  0  0  0  0  0  0  0  0  0
   25.5906  -20.7424  -12.3491 C   0  0  1  0  0  0  0  0  0  0  0  0
   25.5474  -22.2356  -12.6720 C   0  0  0  0  0  0  0  0  0  0  0  0
   24.5928  -22.5410  -13.7733 C   0  0  0  0  0  0  0  0  0  0  0  0
   24.4039  -24.0272  -13.8996 C   0  0  0  0  0  0  0  0  0  0  0  0
   23.4802  -24.3647  -15.0226 C   0  0  0  0  0  0  0  0  0  0  0  0
   23.3512  -25.8113  -15.1599 N   0  0  0  0  0  0  0  0  0  0  0  0
   26.3400  -20.6389  -11.0724 C   0  0  0  0  0  0  0  0  0  0  0  0
   27.5718  -20.9228  -11.0787 O   0  0  0  0  0  0  0  0  0  0  0  0
   29.5611  -18.5689   -6.2451 C   0  0  0  0  0  0  0  0  0  0  0  0
   28.0961  -19.2170   -5.4511 S   0  0  0  0  0  0  0  0  0  0  0  0
   27.1244  -20.3531   -6.4088 C   0  0  0  0  0  0  0  0  0  0  0  0
   26.8125  -19.9533   -7.8066 C   0  0  0  0  0  0  0  0  0  0  0  0
   26.0379  -20.9280   -8.6235 C   0  0  2  0  0  0  0  0  0  0  0  0
   25.6960  -20.2346   -9.8811 N   0  0  0  0  0  0  0  0  0  0  0  0
   24.7666  -21.3311   -7.9492 C   0  0  0  0  0  0  0  0  0  0  0  0
   24.8201  -22.0469   -6.7635 O   0  0  0  0  0  0  0  0  0  0  0  0
   23.6596  -21.0376   -8.4294 O   0  0  0  0  0  0  0  0  0  0  0  0
  2  1  1  6
  2  3  1  0
  3  4  1  0
  4  8  1  0
  5  4  2  0
  6  2  1  0
  7  6  2  0
  9  6  1  0
 10 11  1  6
 10  9  1  0
 11 12  1  0
 12 13  1  0
 14 13  1  0
 14 15  1  0
 16 10  1  0
 17 16  2  0
 19 20  1  0
 19 18  1  0
 22 21  1  1
 21 20  1  0
 22 23  1  0
 23 16  1  0
 24 22  1  0
 24 25  1  0
 26 24  2  0
M  END
$$$$
