DKM.pdb
     RDKit          3D

 26 25  0  0  1  0  0  0  0  0999 V2000
   21.3468  -13.2514  -16.9976 N   0  0  0  0  0  0  0  0  0  0  0  0
   21.5406  -12.4325  -18.1694 C   0  0  1  0  0  0  0  0  0  0  0  0
   20.9482  -13.0887  -19.3729 C   0  0  0  0  0  0  0  0  0  0  0  0
   21.7034  -14.3280  -19.6644 C   0  0  0  0  0  0  0  0  0  0  0  0
   21.5948  -15.3170  -18.9024 O   0  0  0  0  0  0  0  0  0  0  0  0
   21.0238  -11.0876  -17.9075 C   0  0  0  0  0  0  0  0  0  0  0  0
   21.0901  -10.1971  -18.7866 O   0  0  0  0  0  0  0  0  0  0  0  0
   22.5407  -14.4436  -20.7639 O   0  0  0  0  0  0  0  0  0  0  0  0
   20.4456  -10.8043  -16.6432 N   0  0  0  0  0  0  0  0  0  0  0  0
   19.8564   -9.5424  -16.3006 C   0  0  1  0  0  0  0  0  0  0  0  0
   18.8238   -9.7444  -15.1921 C   0  0  0  0  0  0  0  0  0  0  0  0
   17.5190  -10.2244  -15.7256 C   0  0  0  0  0  0  0  0  0  0  0  0
   16.5356  -10.4091  -14.6035 C   0  0  0  0  0  0  0  0  0  0  0  0
   15.2338  -10.9418  -15.1034 C   0  0  0  0  0  0  0  0  0  0  0  0
   14.2688  -11.0361  -14.0133 N   0  0  0  0  0  0  0  0  0  0  0  0
   20.9013   -8.6704  -15.7089 C   0  0  0  0  0  0  0  0  0  0  0  0
   21.6762   -9.1702  -14.8440 O   0  0  0  0  0  0  0  0  0  0  0  0
   25.7866   -2.7831  -17.5190 C   0  0  0  0  0  0  0  0  0  0  0  0
   24.4141   -3.8793  -17.8526 S   0  0  0  0  0  0  0  0  0  0  0  0
   23.8412   -4.8548  -16.4843 C   0  0  0  0  0  0  0  0  0  0  0  0
   22.7400   -5.8148  -16.7618 C   0  0  0  0  0  0  0  0  0  0  0  0
   22.1754   -6.5409  -15.5908 C   0  0  2  0  0  0  0  0  0  0  0  0
   21.0283   -7.3182  -16.0998 N   0  0  0  0  0  0  0  0  0  0  0  0
   21.6767   -5.6003  -14.5420 C   0  0  0  0  0  0  0  0  0  0  0  0
   22.5478   -5.1422  -13.5662 O   0  0  0  0  0  0  0  0  0  0  0  0
   20.4950   -5.2189  -14.5257 O   0  0  0  0  0  0  0  0  0  0  0  0
  2  1  1  1
  2  3  1  0
  3  4  1  0
  4  8  1  0
  5  4  2  0
  6  2  1  0
  7  6  2  0
  9  6  1  0
 10 11  1  1
 10  9  1  0
 11 12  1  0
 12 13  1  0
 14 13  1  0
 14 15  1  0
 16 10  1  0
 17 16  2  0
 19 20  1  0
 19 18  1  0
 22 21  1  6
 21 20  1  0
 22 23  1  0
 23 16  1  0
 24 22  1  0
 24 25  1  0
 26 24  2  0
M  END
$$$$
