DKM.pdb
     RDKit          3D

 26 25  0  0  1  0  0  0  0  0999 V2000
   27.1266  -20.0864  -17.0336 N   0  0  0  0  0  0  0  0  0  0  0  0
   27.9692  -19.4377  -16.0587 C   0  0  1  0  0  0  0  0  0  0  0  0
   28.6290  -18.2360  -16.6510 C   0  0  0  0  0  0  0  0  0  0  0  0
   29.4725  -18.6640  -17.7897 C   0  0  0  0  0  0  0  0  0  0  0  0
   29.4791  -19.8667  -18.1420 O   0  0  0  0  0  0  0  0  0  0  0  0
   27.1838  -19.1554  -14.8555 C   0  0  0  0  0  0  0  0  0  0  0  0
   27.0881  -17.9855  -14.4170 O   0  0  0  0  0  0  0  0  0  0  0  0
   30.2696  -17.7755  -18.4957 O   0  0  0  0  0  0  0  0  0  0  0  0
   26.5308  -20.2252  -14.1906 N   0  0  0  0  0  0  0  0  0  0  0  0
   25.4916  -20.0444  -13.2187 C   0  0  1  0  0  0  0  0  0  0  0  0
   24.2247  -20.7603  -13.6857 C   0  0  0  0  0  0  0  0  0  0  0  0
   23.1026  -20.5954  -12.7207 C   0  0  0  0  0  0  0  0  0  0  0  0
   21.8902  -21.3433  -13.2013 C   0  0  0  0  0  0  0  0  0  0  0  0
   20.7157  -21.1045  -12.3115 C   0  0  0  0  0  0  0  0  0  0  0  0
   19.5141  -21.7052  -12.8805 N   0  0  0  0  0  0  0  0  0  0  0  0
   25.8869  -20.7270  -11.9617 C   0  0  0  0  0  0  0  0  0  0  0  0
   26.1657  -21.9589  -12.0138 O   0  0  0  0  0  0  0  0  0  0  0  0
   29.6252  -18.7224   -6.7884 C   0  0  0  0  0  0  0  0  0  0  0  0
   28.0925  -19.3525   -6.1169 S   0  0  0  0  0  0  0  0  0  0  0  0
   27.1343  -20.3895   -7.1931 C   0  0  0  0  0  0  0  0  0  0  0  0
   26.9512  -19.9154   -8.5905 C   0  0  0  0  0  0  0  0  0  0  0  0
   26.1467  -20.7860   -9.4917 C   0  0  2  0  0  0  0  0  0  0  0  0
   25.9502  -20.0212  -10.7389 N   0  0  0  0  0  0  0  0  0  0  0  0
   24.8035  -21.0934   -8.9131 C   0  0  0  0  0  0  0  0  0  0  0  0
   24.6876  -22.0736   -7.9401 O   0  0  0  0  0  0  0  0  0  0  0  0
   23.7856  -20.4877   -9.2862 O   0  0  0  0  0  0  0  0  0  0  0  0
  2  1  1  6
  2  3  1  0
  3  4  1  0
  4  8  1  0
  5  4  2  0
  6  2  1  0
  7  6  2  0
  9  6  1  0
 10 11  1  6
 10  9  1  0
 11 12  1  0
 12 13  1  0
 14 13  1  0
 14 15  1  0
 16 10  1  0
 17 16  2  0
 19 20  1  0
 19 18  1  0
 22 21  1  1
 21 20  1  0
 22 23  1  0
 23 16  1  0
 24 22  1  0
 24 25  1  0
 26 24  2  0
M  END
$$$$
