RMK.pdb
     RDKit          3D

 29 28  0  0  1  0  0  0  0  0999 V2000
   24.1187  -19.6760  -17.9943 N   0  0  0  0  0  0  0  0  0  0  0  0
   23.2915  -20.0474  -16.9028 C   0  0  0  0  0  0  0  0  0  0  0  0
   22.2687  -20.8317  -17.0607 N   0  0  0  0  0  0  0  0  0  0  0  0
   23.5568  -19.5714  -15.5931 N   0  0  0  0  0  0  0  0  0  0  0  0
   24.6592  -18.6349  -15.3610 C   0  0  0  0  0  0  0  0  0  0  0  0
   25.7940  -19.4535  -14.8308 C   0  0  0  0  0  0  0  0  0  0  0  0
   25.4921  -20.0176  -13.4990 C   0  0  0  0  0  0  0  0  0  0  0  0
   26.5679  -20.8047  -12.8151 C   0  0  2  0  0  0  0  0  0  0  0  0
   27.0521  -21.9396  -13.5826 N   0  0  0  0  0  0  0  0  0  0  0  0
   26.0416  -21.2465  -11.5052 C   0  0  0  0  0  0  0  0  0  0  0  0
   25.6916  -22.4307  -11.3835 O   0  0  0  0  0  0  0  0  0  0  0  0
   21.6594  -21.1821  -16.3049 C   0  0  0  0  0  0  0  0  0  0  0  0
   26.8344  -18.7503   -5.0303 S   0  0  0  0  0  0  0  0  0  0  0  0
   28.0062  -18.8444   -6.3950 C   0  0  0  0  0  0  0  0  0  0  0  0
   27.4044  -20.0451   -7.6695 C   0  0  0  0  0  0  0  0  0  0  0  0
   25.9890  -19.6834   -8.0426 C   0  0  2  0  0  0  0  0  0  0  0  0
   25.4199  -20.5661   -9.1333 N   0  0  0  0  0  0  0  0  0  0  0  0
   25.9489  -20.3368  -10.4398 C   0  0  0  0  0  0  0  0  0  0  0  0
   23.9477  -20.5399   -9.1824 O   0  0  0  0  0  0  0  0  0  0  0  0
   23.3403  -19.8169  -10.0250 N   0  0  0  0  0  0  0  0  0  0  0  0
   23.2360  -21.3407   -8.2683 C   0  0  1  0  0  0  0  0  0  0  0  0
   21.8346  -21.6293   -8.3274 C   0  0  0  0  0  0  0  0  0  0  0  0
   21.3317  -22.5116   -7.2168 C   0  0  0  0  0  0  0  0  0  0  0  0
   19.8882  -22.8589   -7.4811 C   0  0  0  0  0  0  0  0  0  0  0  0
   19.4784  -23.8141   -6.3732 C   0  0  0  0  0  0  0  0  0  0  0  0
   18.0192  -24.1777   -6.5415 N   0  0  0  0  0  0  0  0  0  0  0  0
   17.5927  -25.0745   -5.5102 C   0  0  0  0  0  0  0  0  0  0  0  0
   21.0142  -20.4194   -8.5478 O   0  0  0  0  0  0  0  0  0  0  0  0
   19.9338  -20.4226   -9.4131 O   0  0  0  0  0  0  0  0  0  0  0  0
  1  2  1  0
  2  3  2  0
  4  5  1  0
  4  2  1  0
  6  5  1  0
  7  6  1  0
  8  7  1  0
  8  9  1  6
 10  8  1  0
 11 10  2  0
 13 12  1  0
 14 13  1  0
 15 14  1  0
 16 15  1  1
 16 17  1  0
 17 10  1  0
 18 16  1  0
 18 19  2  0
 20 18  1  0
 21 20  1  0
 21 22  1  1
 23 22  1  0
 23 24  1  0
 24 25  1  0
 25 26  1  0
 27 21  1  0
 28 27  1  0
 29 27  2  0
M  END
$$$$
