RMK.pdb
     RDKit          3D

 29 28  0  0  1  0  0  0  0  0999 V2000
   30.0937  -31.7254  -16.1168 N   0  0  0  0  0  0  0  0  0  0  0  0
   28.7359  -31.9144  -15.7504 C   0  0  0  0  0  0  0  0  0  0  0  0
   28.4041  -32.3616  -14.5773 N   0  0  0  0  0  0  0  0  0  0  0  0
   27.6883  -31.6181  -16.6597 N   0  0  0  0  0  0  0  0  0  0  0  0
   27.9926  -31.3372  -18.0649 C   0  0  0  0  0  0  0  0  0  0  0  0
   28.2432  -29.8645  -18.1486 C   0  0  0  0  0  0  0  0  0  0  0  0
   26.9880  -29.0990  -18.2963 C   0  0  0  0  0  0  0  0  0  0  0  0
   26.2012  -29.2867  -19.5573 C   0  0  2  0  0  0  0  0  0  0  0  0
   26.7897  -28.6516  -20.7243 N   0  0  0  0  0  0  0  0  0  0  0  0
   24.8343  -28.7748  -19.3178 C   0  0  0  0  0  0  0  0  0  0  0  0
   24.5411  -27.6553  -19.7654 O   0  0  0  0  0  0  0  0  0  0  0  0
   27.4389  -32.4735  -14.2293 C   0  0  0  0  0  0  0  0  0  0  0  0
   19.6589  -31.2929  -21.4666 S   0  0  0  0  0  0  0  0  0  0  0  0
   19.0502  -30.8178  -19.8393 C   0  0  0  0  0  0  0  0  0  0  0  0
   20.1294  -29.4987  -19.1158 C   0  0  0  0  0  0  0  0  0  0  0  0
   21.5698  -29.8492  -19.3911 C   0  0  2  0  0  0  0  0  0  0  0  0
   22.5259  -29.2712  -18.3690 N   0  0  0  0  0  0  0  0  0  0  0  0
   23.9070  -29.5491  -18.6022 C   0  0  0  0  0  0  0  0  0  0  0  0
   22.1736  -29.6335  -16.9851 O   0  0  0  0  0  0  0  0  0  0  0  0
   22.4877  -30.7642  -16.5114 N   0  0  0  0  0  0  0  0  0  0  0  0
   21.4799  -28.6883  -16.2048 C   0  0  1  0  0  0  0  0  0  0  0  0
   20.9898  -28.9022  -14.8763 C   0  0  0  0  0  0  0  0  0  0  0  0
   20.4833  -27.6620  -14.1908 C   0  0  0  0  0  0  0  0  0  0  0  0
   20.1410  -27.9966  -12.7607 C   0  0  0  0  0  0  0  0  0  0  0  0
   19.5829  -26.7203  -12.1547 C   0  0  0  0  0  0  0  0  0  0  0  0
   19.1715  -26.9854  -10.7229 N   0  0  0  0  0  0  0  0  0  0  0  0
   18.7124  -25.7853  -10.0915 C   0  0  0  0  0  0  0  0  0  0  0  0
   20.0656  -30.0529  -14.7901 O   0  0  0  0  0  0  0  0  0  0  0  0
   20.1596  -30.9847  -13.7709 O   0  0  0  0  0  0  0  0  0  0  0  0
  1  2  1  0
  2  3  2  0
  4  5  1  0
  4  2  1  0
  6  5  1  0
  7  6  1  0
  8  7  1  0
  8  9  1  6
 10  8  1  0
 11 10  2  0
 13 12  1  0
 14 13  1  0
 15 14  1  0
 16 15  1  6
 16 17  1  0
 17 10  1  0
 18 16  1  0
 18 19  2  0
 20 18  1  0
 21 20  1  0
 21 22  1  6
 23 22  1  0
 23 24  1  0
 24 25  1  0
 25 26  1  0
 27 21  1  0
 28 27  1  0
 29 27  2  0
M  END
$$$$
