RMK.pdb
     RDKit          3D

 29 28  0  0  1  0  0  0  0  0999 V2000
   23.9124  -19.1443  -18.3947 N   0  0  0  0  0  0  0  0  0  0  0  0
   25.1490  -18.4495  -18.4376 C   0  0  0  0  0  0  0  0  0  0  0  0
   25.4790  -17.7107  -19.4532 N   0  0  0  0  0  0  0  0  0  0  0  0
   26.0721  -18.5390  -17.3643 N   0  0  0  0  0  0  0  0  0  0  0  0
   25.9574  -19.6223  -16.3848 C   0  0  0  0  0  0  0  0  0  0  0  0
   24.7529  -19.3057  -15.5555 C   0  0  0  0  0  0  0  0  0  0  0  0
   24.4769  -20.3606  -14.5584 C   0  0  0  0  0  0  0  0  0  0  0  0
   25.6492  -21.0550  -13.9355 C   0  0  2  0  0  0  0  0  0  0  0  0
   26.1491  -22.1818  -14.7050 N   0  0  0  0  0  0  0  0  0  0  0  0
   25.2505  -21.4856  -12.5778 C   0  0  0  0  0  0  0  0  0  0  0  0
   24.7398  -22.6088  -12.4456 O   0  0  0  0  0  0  0  0  0  0  0  0
   26.3724  -17.2054  -19.5620 C   0  0  0  0  0  0  0  0  0  0  0  0
   27.3745  -18.4928   -6.5419 S   0  0  0  0  0  0  0  0  0  0  0  0
   26.7840  -20.1941   -6.5783 C   0  0  0  0  0  0  0  0  0  0  0  0
   25.3065  -20.3318   -7.6857 C   0  0  0  0  0  0  0  0  0  0  0  0
   25.7265  -19.9958   -9.0942 C   0  0  2  0  0  0  0  0  0  0  0  0
   24.9863  -20.8012  -10.1412 N   0  0  0  0  0  0  0  0  0  0  0  0
   25.4530  -20.6336  -11.4803 C   0  0  0  0  0  0  0  0  0  0  0  0
   23.5277  -20.5987  -10.0951 O   0  0  0  0  0  0  0  0  0  0  0  0
   22.9752  -19.7041  -10.7993 N   0  0  0  0  0  0  0  0  0  0  0  0
   22.7663  -21.4271   -9.2481 C   0  0  1  0  0  0  0  0  0  0  0  0
   21.3541  -21.3264   -9.0325 C   0  0  0  0  0  0  0  0  0  0  0  0
   20.8871  -21.8503   -7.7013 C   0  0  0  0  0  0  0  0  0  0  0  0
   19.8464  -22.9171   -7.9313 C   0  0  0  0  0  0  0  0  0  0  0  0
   19.4925  -23.4593   -6.5570 C   0  0  0  0  0  0  0  0  0  0  0  0
   18.4354  -24.5325   -6.7004 N   0  0  0  0  0  0  0  0  0  0  0  0
   18.0882  -25.0828   -5.4251 C   0  0  0  0  0  0  0  0  0  0  0  0
   20.8221  -19.9887   -9.3686 O   0  0  0  0  0  0  0  0  0  0  0  0
   19.6796  -19.8333  -10.1345 O   0  0  0  0  0  0  0  0  0  0  0  0
  1  2  1  0
  2  3  2  0
  4  5  1  0
  4  2  1  0
  6  5  1  0
  7  6  1  0
  8  7  1  0
  8  9  1  6
 10  8  1  0
 11 10  2  0
 13 12  1  0
 14 13  1  0
 15 14  1  0
 16 15  1  1
 16 17  1  0
 17 10  1  0
 18 16  1  0
 18 19  2  0
 20 18  1  0
 21 20  1  0
 21 22  1  1
 23 22  1  0
 23 24  1  0
 24 25  1  0
 25 26  1  0
 27 21  1  0
 28 27  1  0
 29 27  2  0
M  END
$$$$
