RMK.pdb
     RDKit          3D

 29 28  0  0  1  0  0  0  0  0999 V2000
   28.4860  -19.0975  -18.1113 N   0  0  0  0  0  0  0  0  0  0  0  0
   28.7551  -17.7052  -18.0587 C   0  0  0  0  0  0  0  0  0  0  0  0
   29.2936  -17.0784  -19.0603 N   0  0  0  0  0  0  0  0  0  0  0  0
   28.4416  -16.9462  -16.9020 N   0  0  0  0  0  0  0  0  0  0  0  0
   28.2068  -17.6199  -15.6225 C   0  0  0  0  0  0  0  0  0  0  0  0
   26.7395  -17.9078  -15.5687 C   0  0  0  0  0  0  0  0  0  0  0  0
   26.3653  -18.6378  -14.3397 C   0  0  0  0  0  0  0  0  0  0  0  0
   27.0997  -19.9068  -14.0318 C   0  0  2  0  0  0  0  0  0  0  0  0
   27.5040  -20.6589  -15.2075 N   0  0  0  0  0  0  0  0  0  0  0  0
   26.2347  -20.7291  -13.1579 C   0  0  0  0  0  0  0  0  0  0  0  0
   25.5717  -21.6394  -13.6789 O   0  0  0  0  0  0  0  0  0  0  0  0
   29.6773  -16.1207  -19.0320 C   0  0  0  0  0  0  0  0  0  0  0  0
   26.6652  -19.5310   -6.9669 S   0  0  0  0  0  0  0  0  0  0  0  0
   27.9430  -20.4668   -7.8247 C   0  0  0  0  0  0  0  0  0  0  0  0
   27.2058  -21.3960   -9.2464 C   0  0  0  0  0  0  0  0  0  0  0  0
   25.7589  -20.9956   -9.3859 C   0  0  2  0  0  0  0  0  0  0  0  0
   25.2732  -21.0199  -10.8199 N   0  0  0  0  0  0  0  0  0  0  0  0
   26.1789  -20.4724  -11.7787 C   0  0  0  0  0  0  0  0  0  0  0  0
   23.9443  -20.4058  -10.9857 O   0  0  0  0  0  0  0  0  0  0  0  0
   23.7465  -19.1952  -10.6744 N   0  0  0  0  0  0  0  0  0  0  0  0
   22.9020  -21.2013  -11.4999 C   0  0  1  0  0  0  0  0  0  0  0  0
   21.9077  -20.7698  -12.4359 C   0  0  0  0  0  0  0  0  0  0  0  0
   22.4526  -20.0351  -13.6308 C   0  0  0  0  0  0  0  0  0  0  0  0
   21.3012  -19.5309  -14.4641 C   0  0  0  0  0  0  0  0  0  0  0  0
   21.9240  -18.8778  -15.6862 C   0  0  0  0  0  0  0  0  0  0  0  0
   20.8371  -18.2248  -16.5120 N   0  0  0  0  0  0  0  0  0  0  0  0
   21.3821  -17.6218  -17.6906 C   0  0  0  0  0  0  0  0  0  0  0  0
   20.9478  -21.8405  -12.7790 O   0  0  0  0  0  0  0  0  0  0  0  0
   21.2015  -23.1672  -12.4765 O   0  0  0  0  0  0  0  0  0  0  0  0
  1  2  1  0
  2  3  2  0
  4  5  1  0
  4  2  1  0
  6  5  1  0
  7  6  1  0
  8  7  1  0
  8  9  1  6
 10  8  1  0
 11 10  2  0
 13 12  1  0
 14 13  1  0
 15 14  1  0
 16 15  1  6
 16 17  1  0
 17 10  1  0
 18 16  1  0
 18 19  2  0
 20 18  1  0
 21 20  1  0
 21 22  1  1
 23 22  1  0
 23 24  1  0
 24 25  1  0
 25 26  1  0
 27 21  1  0
 28 27  1  0
 29 27  2  0
M  END
$$$$
