RMK.pdb
     RDKit          3D

 29 28  0  0  1  0  0  0  0  0999 V2000
   25.0308  -16.2198  -17.9699 N   0  0  0  0  0  0  0  0  0  0  0  0
   26.3479  -16.7472  -17.9966 C   0  0  0  0  0  0  0  0  0  0  0  0
   27.3562  -16.0379  -18.4044 N   0  0  0  0  0  0  0  0  0  0  0  0
   26.6089  -18.0761  -17.5746 N   0  0  0  0  0  0  0  0  0  0  0  0
   27.9885  -18.5246  -17.3706 C   0  0  0  0  0  0  0  0  0  0  0  0
   28.2604  -18.3768  -15.9066 C   0  0  0  0  0  0  0  0  0  0  0  0
   27.3184  -19.1679  -15.0881 C   0  0  0  0  0  0  0  0  0  0  0  0
   27.8337  -20.4198  -14.4464 C   0  0  2  0  0  0  0  0  0  0  0  0
   28.2668  -21.4359  -15.3906 N   0  0  0  0  0  0  0  0  0  0  0  0
   26.7699  -20.9464  -13.5639 C   0  0  0  0  0  0  0  0  0  0  0  0
   25.8813  -21.6480  -14.0716 O   0  0  0  0  0  0  0  0  0  0  0  0
   28.3347  -16.3619  -18.4581 C   0  0  0  0  0  0  0  0  0  0  0  0
   26.9197  -19.4468   -7.0922 S   0  0  0  0  0  0  0  0  0  0  0  0
   25.7767  -20.8387   -7.0752 C   0  0  0  0  0  0  0  0  0  0  0  0
   25.1492  -21.1683   -8.7857 C   0  0  0  0  0  0  0  0  0  0  0  0
   26.2043  -20.7458   -9.7764 C   0  0  2  0  0  0  0  0  0  0  0  0
   25.7910  -20.9729  -11.2152 N   0  0  0  0  0  0  0  0  0  0  0  0
   26.7822  -20.6509  -12.1913 C   0  0  0  0  0  0  0  0  0  0  0  0
   24.5218  -20.3084  -11.5589 O   0  0  0  0  0  0  0  0  0  0  0  0
   24.4510  -19.0473  -11.6365 N   0  0  0  0  0  0  0  0  0  0  0  0
   23.3916  -21.1137  -11.7993 C   0  0  1  0  0  0  0  0  0  0  0  0
   22.1020  -20.6412  -12.2048 C   0  0  0  0  0  0  0  0  0  0  0  0
   21.5789  -21.2641  -13.4709 C   0  0  0  0  0  0  0  0  0  0  0  0
   20.2115  -20.7010  -13.7665 C   0  0  0  0  0  0  0  0  0  0  0  0
   19.7316  -21.4063  -15.0235 C   0  0  0  0  0  0  0  0  0  0  0  0
   18.3589  -20.8884  -15.3937 N   0  0  0  0  0  0  0  0  0  0  0  0
   17.8366  -21.5879  -16.5285 C   0  0  0  0  0  0  0  0  0  0  0  0
   21.1254  -20.6322  -11.0950 O   0  0  0  0  0  0  0  0  0  0  0  0
   20.2418  -19.5822  -10.9140 O   0  0  0  0  0  0  0  0  0  0  0  0
  1  2  1  0
  2  3  2  0
  4  5  1  0
  4  2  1  0
  6  5  1  0
  7  6  1  0
  8  7  1  0
  8  9  1  6
 10  8  1  0
 11 10  2  0
 13 12  1  0
 14 13  1  0
 15 14  1  0
 16 15  1  1
 16 17  1  0
 17 10  1  0
 18 16  1  0
 18 19  2  0
 20 18  1  0
 21 20  1  0
 21 22  1  1
 23 22  1  0
 23 24  1  0
 24 25  1  0
 25 26  1  0
 27 21  1  0
 28 27  1  0
 29 27  2  0
M  END
$$$$
