RMK.pdb
     RDKit          3D

 29 28  0  0  1  0  0  0  0  0999 V2000
   14.9819  -14.0846  -15.1578 N   0  0  0  0  0  0  0  0  0  0  0  0
   15.1215  -14.6832  -16.4368 C   0  0  0  0  0  0  0  0  0  0  0  0
   14.4201  -15.7198  -16.7826 N   0  0  0  0  0  0  0  0  0  0  0  0
   16.0379  -14.1647  -17.3873 N   0  0  0  0  0  0  0  0  0  0  0  0
   16.9161  -13.0485  -17.0283 C   0  0  0  0  0  0  0  0  0  0  0  0
   17.9615  -13.6182  -16.1219 C   0  0  0  0  0  0  0  0  0  0  0  0
   18.9392  -12.5955  -15.6962 C   0  0  0  0  0  0  0  0  0  0  0  0
   19.5801  -11.7580  -16.7604 C   0  0  2  0  0  0  0  0  0  0  0  0
   20.2965  -12.5232  -17.7668 N   0  0  0  0  0  0  0  0  0  0  0  0
   20.4845  -10.7953  -16.0947 C   0  0  0  0  0  0  0  0  0  0  0  0
   20.0284  -10.1074  -15.1681 O   0  0  0  0  0  0  0  0  0  0  0  0
   14.4492  -16.1831  -17.7044 C   0  0  0  0  0  0  0  0  0  0  0  0
   27.2593  -11.1860  -14.4771 S   0  0  0  0  0  0  0  0  0  0  0  0
   26.9496  -10.0254  -15.8192 C   0  0  0  0  0  0  0  0  0  0  0  0
   25.2613   -9.2855  -15.6443 C   0  0  0  0  0  0  0  0  0  0  0  0
   24.2466  -10.2698  -16.1684 C   0  0  1  0  0  0  0  0  0  0  0  0
   22.8195   -9.7871  -16.0163 N   0  0  0  0  0  0  0  0  0  0  0  0
   21.8196  -10.6776  -16.5127 C   0  0  0  0  0  0  0  0  0  0  0  0
   22.6069   -8.4408  -16.5757 O   0  0  0  0  0  0  0  0  0  0  0  0
   22.8466   -8.2005  -17.7949 N   0  0  0  0  0  0  0  0  0  0  0  0
   22.1296   -7.4306  -15.7183 C   0  0  1  0  0  0  0  0  0  0  0  0
   21.9156   -6.0617  -16.0805 C   0  0  0  0  0  0  0  0  0  0  0  0
   20.4705   -5.6822  -16.2601 C   0  0  0  0  0  0  0  0  0  0  0  0
   20.3938   -4.2543  -16.7392 C   0  0  0  0  0  0  0  0  0  0  0  0
   18.9180   -3.9629  -16.9507 C   0  0  0  0  0  0  0  0  0  0  0  0
   18.7543   -2.5384  -17.4342 N   0  0  0  0  0  0  0  0  0  0  0  0
   17.3850   -2.2568  -17.7432 C   0  0  0  0  0  0  0  0  0  0  0  0
   22.6792   -5.1232  -15.2309 O   0  0  0  0  0  0  0  0  0  0  0  0
   23.2666   -3.9841  -15.7538 O   0  0  0  0  0  0  0  0  0  0  0  0
  1  2  1  0
  2  3  2  0
  4  5  1  0
  4  2  1  0
  6  5  1  0
  7  6  1  0
  8  7  1  0
  8  9  1  6
 10  8  1  0
 11 10  2  0
 13 12  1  0
 14 13  1  0
 15 14  1  0
 16 15  1  1
 16 17  1  0
 17 10  1  0
 18 16  1  0
 18 19  2  0
 20 18  1  0
 21 20  1  0
 21 22  1  1
 23 22  1  0
 23 24  1  0
 24 25  1  0
 25 26  1  0
 27 21  1  0
 28 27  1  0
 29 27  2  0
M  END
$$$$
