RMK.pdb
     RDKit          3D

 29 28  0  0  1  0  0  0  0  0999 V2000
   21.3229  -16.6671  -17.8839 N   0  0  0  0  0  0  0  0  0  0  0  0
   20.3466  -17.6969  -17.8799 C   0  0  0  0  0  0  0  0  0  0  0  0
   19.6935  -18.0189  -18.9551 N   0  0  0  0  0  0  0  0  0  0  0  0
   20.0501  -18.4147  -16.6929 N   0  0  0  0  0  0  0  0  0  0  0  0
   20.7576  -18.1015  -15.4488 C   0  0  0  0  0  0  0  0  0  0  0  0
   21.8616  -19.1050  -15.3357 C   0  0  0  0  0  0  0  0  0  0  0  0
   22.6223  -18.9488  -14.0787 C   0  0  0  0  0  0  0  0  0  0  0  0
   23.9048  -19.7109  -13.9406 C   0  0  2  0  0  0  0  0  0  0  0  0
   24.2716  -20.4745  -15.1213 N   0  0  0  0  0  0  0  0  0  0  0  0
   23.7794  -20.5976  -12.7634 C   0  0  0  0  0  0  0  0  0  0  0  0
   23.6688  -21.8181  -12.9582 O   0  0  0  0  0  0  0  0  0  0  0  0
   18.9854  -18.7666  -19.0252 C   0  0  0  0  0  0  0  0  0  0  0  0
   26.2665  -18.6648   -7.0919 S   0  0  0  0  0  0  0  0  0  0  0  0
   25.9654  -20.4085   -6.7551 C   0  0  0  0  0  0  0  0  0  0  0  0
   24.6673  -21.0635   -7.9015 C   0  0  0  0  0  0  0  0  0  0  0  0
   24.6323  -20.1979   -9.1355 C   0  0  2  0  0  0  0  0  0  0  0  0
   23.7383  -20.7537  -10.2239 N   0  0  0  0  0  0  0  0  0  0  0  0
   23.7882  -20.0552  -11.4684 C   0  0  0  0  0  0  0  0  0  0  0  0
   22.3369  -20.9027   -9.7944 O   0  0  0  0  0  0  0  0  0  0  0  0
   21.5347  -19.9254   -9.8502 N   0  0  0  0  0  0  0  0  0  0  0  0
   21.9148  -22.1604   -9.3216 C   0  0  2  0  0  0  0  0  0  0  0  0
   20.6057  -22.4704   -8.8309 C   0  0  0  0  0  0  0  0  0  0  0  0
   20.5902  -23.2848   -7.5655 C   0  0  0  0  0  0  0  0  0  0  0  0
   19.1687  -23.6801   -7.2535 C   0  0  0  0  0  0  0  0  0  0  0  0
   19.2441  -24.5851   -6.0357 C   0  0  0  0  0  0  0  0  0  0  0  0
   17.8428  -24.9561   -5.6015 N   0  0  0  0  0  0  0  0  0  0  0  0
   17.8720  -25.8117   -4.4539 C   0  0  0  0  0  0  0  0  0  0  0  0
   19.7188  -21.2882   -8.7920 O   0  0  0  0  0  0  0  0  0  0  0  0
   18.4448  -21.3183   -9.3322 O   0  0  0  0  0  0  0  0  0  0  0  0
  1  2  1  0
  2  3  2  0
  4  5  1  0
  4  2  1  0
  6  5  1  0
  7  6  1  0
  8  7  1  0
  8  9  1  6
 10  8  1  0
 11 10  2  0
 13 12  1  0
 14 13  1  0
 15 14  1  0
 16 15  1  6
 16 17  1  0
 17 10  1  0
 18 16  1  0
 18 19  2  0
 20 18  1  0
 21 20  1  0
 21 22  1  1
 23 22  1  0
 23 24  1  0
 24 25  1  0
 25 26  1  0
 27 21  1  0
 28 27  1  0
 29 27  2  0
M  END
$$$$
