RMK.pdb
     RDKit          3D

 29 28  0  0  1  0  0  0  0  0999 V2000
   29.2917  -18.0211  -19.4682 N   0  0  0  0  0  0  0  0  0  0  0  0
   29.2219  -17.4369  -18.1769 C   0  0  0  0  0  0  0  0  0  0  0  0
   29.2606  -16.1497  -18.0099 N   0  0  0  0  0  0  0  0  0  0  0  0
   29.1058  -18.2454  -17.0172 N   0  0  0  0  0  0  0  0  0  0  0  0
   28.8604  -19.6839  -17.1459 C   0  0  0  0  0  0  0  0  0  0  0  0
   27.4016  -19.8306  -17.4446 C   0  0  0  0  0  0  0  0  0  0  0  0
   26.6701  -20.4600  -16.3257 C   0  0  0  0  0  0  0  0  0  0  0  0
   27.4656  -21.2391  -15.3233 C   0  0  2  0  0  0  0  0  0  0  0  0
   28.1415  -22.4009  -15.8755 N   0  0  0  0  0  0  0  0  0  0  0  0
   26.5510  -21.6371  -14.2311 C   0  0  0  0  0  0  0  0  0  0  0  0
   25.7646  -22.5745  -14.4376 O   0  0  0  0  0  0  0  0  0  0  0  0
   29.2172  -15.6613  -17.1018 C   0  0  0  0  0  0  0  0  0  0  0  0
   27.7237  -20.5388   -7.8663 S   0  0  0  0  0  0  0  0  0  0  0  0
   25.9778  -20.0965   -7.8912 C   0  0  0  0  0  0  0  0  0  0  0  0
   25.1943  -20.6846   -9.4624 C   0  0  0  0  0  0  0  0  0  0  0  0
   26.2035  -20.5707  -10.5767 C   0  0  1  0  0  0  0  0  0  0  0  0
   25.6866  -21.0947  -11.9000 N   0  0  0  0  0  0  0  0  0  0  0  0
   26.5867  -20.9617  -13.0006 C   0  0  0  0  0  0  0  0  0  0  0  0
   24.3723  -20.5372  -12.2636 O   0  0  0  0  0  0  0  0  0  0  0  0
   24.2394  -19.3047  -12.5185 N   0  0  0  0  0  0  0  0  0  0  0  0
   23.2699  -21.4118  -12.3204 C   0  0  1  0  0  0  0  0  0  0  0  0
   21.9365  -21.0496  -12.6968 C   0  0  0  0  0  0  0  0  0  0  0  0
   21.1986  -22.1061  -13.4738 C   0  0  0  0  0  0  0  0  0  0  0  0
   19.8257  -21.5893  -13.8235 C   0  0  0  0  0  0  0  0  0  0  0  0
   19.0887  -22.7563  -14.4581 C   0  0  0  0  0  0  0  0  0  0  0  0
   17.6941  -22.3150  -14.8456 N   0  0  0  0  0  0  0  0  0  0  0  0
   16.9386  -23.4107  -15.3734 C   0  0  0  0  0  0  0  0  0  0  0  0
   21.1621  -20.4849  -11.5712 O   0  0  0  0  0  0  0  0  0  0  0  0
   20.2251  -19.4845  -11.7642 O   0  0  0  0  0  0  0  0  0  0  0  0
  1  2  1  0
  2  3  2  0
  4  5  1  0
  4  2  1  0
  6  5  1  0
  7  6  1  0
  8  7  1  0
  8  9  1  6
 10  8  1  0
 11 10  2  0
 13 12  1  0
 14 13  1  0
 15 14  1  0
 16 15  1  1
 16 17  1  0
 17 10  1  0
 18 16  1  0
 18 19  2  0
 20 18  1  0
 21 20  1  0
 21 22  1  1
 23 22  1  0
 23 24  1  0
 24 25  1  0
 25 26  1  0
 27 21  1  0
 28 27  1  0
 29 27  2  0
M  END
$$$$
