RMK.pdb
     RDKit          3D

 29 28  0  0  1  0  0  0  0  0999 V2000
   17.2367   -8.1344  -19.4001 N   0  0  0  0  0  0  0  0  0  0  0  0
   15.8668   -8.4280  -19.1749 C   0  0  0  0  0  0  0  0  0  0  0  0
   15.1576   -9.0759  -20.0487 N   0  0  0  0  0  0  0  0  0  0  0  0
   15.2219   -8.0212  -17.9787 N   0  0  0  0  0  0  0  0  0  0  0  0
   15.9732   -7.3016  -16.9472 C   0  0  0  0  0  0  0  0  0  0  0  0
   16.7848   -8.3336  -16.2295 C   0  0  0  0  0  0  0  0  0  0  0  0
   17.5282   -7.7565  -15.0905 C   0  0  0  0  0  0  0  0  0  0  0  0
   18.3775   -8.6804  -14.2722 C   0  0  2  0  0  0  0  0  0  0  0  0
   18.0403  -10.0859  -14.4225 N   0  0  0  0  0  0  0  0  0  0  0  0
   18.2642   -8.2646  -12.8572 C   0  0  0  0  0  0  0  0  0  0  0  0
   17.3278   -8.7238  -12.1848 O   0  0  0  0  0  0  0  0  0  0  0  0
   14.1649   -9.3368  -19.9407 C   0  0  0  0  0  0  0  0  0  0  0  0
   22.6142   -5.4676   -6.8064 S   0  0  0  0  0  0  0  0  0  0  0  0
   22.5003   -5.8561   -8.5615 C   0  0  0  0  0  0  0  0  0  0  0  0
   20.7384   -6.1820   -9.0285 C   0  0  0  0  0  0  0  0  0  0  0  0
   20.6950   -6.6219  -10.4700 C   0  0  2  0  0  0  0  0  0  0  0  0
   19.2927   -6.9225  -10.9556 N   0  0  0  0  0  0  0  0  0  0  0  0
   19.2004   -7.3747  -12.3070 C   0  0  0  0  0  0  0  0  0  0  0  0
   18.3596   -5.8025  -10.7424 O   0  0  0  0  0  0  0  0  0  0  0  0
   18.2759   -4.8599  -11.5827 N   0  0  0  0  0  0  0  0  0  0  0  0
   17.5640   -5.8098   -9.5803 C   0  0  1  0  0  0  0  0  0  0  0  0
   16.4906   -4.9047   -9.2988 C   0  0  0  0  0  0  0  0  0  0  0  0
   15.6137   -5.3155   -8.1469 C   0  0  0  0  0  0  0  0  0  0  0  0
   14.4802   -4.3294   -8.0167 C   0  0  0  0  0  0  0  0  0  0  0  0
   13.6274   -4.8228   -6.8603 C   0  0  0  0  0  0  0  0  0  0  0  0
   12.4363   -3.9051   -6.6909 N   0  0  0  0  0  0  0  0  0  0  0  0
   11.6508   -4.2896   -5.5574 C   0  0  0  0  0  0  0  0  0  0  0  0
   16.9361   -3.4963   -9.2385 O   0  0  0  0  0  0  0  0  0  0  0  0
   18.1050   -3.1316   -8.5931 O   0  0  0  0  0  0  0  0  0  0  0  0
  1  2  1  0
  2  3  2  0
  4  5  1  0
  4  2  1  0
  6  5  1  0
  7  6  1  0
  8  7  1  0
  8  9  1  1
 10  8  1  0
 11 10  2  0
 13 12  1  0
 14 13  1  0
 15 14  1  0
 16 15  1  1
 16 17  1  0
 17 10  1  0
 18 16  1  0
 18 19  2  0
 20 18  1  0
 21 20  1  0
 21 22  1  1
 23 22  1  0
 23 24  1  0
 24 25  1  0
 25 26  1  0
 27 21  1  0
 28 27  1  0
 29 27  2  0
M  END
$$$$
