CNC.pdb
     RDKit          3D

 21 20  0  0  1  0  0  0  0  0999 V2000
    7.2773  -15.1811   18.6500 N   0  0  0  0  0  0  0  0  0  0  0  0
    8.1972  -14.6291   19.5945 C   0  0  1  0  0  0  0  0  0  0  0  0
    7.8673  -13.1529   19.7707 C   0  0  0  0  0  0  0  0  0  0  0  0
    8.2896  -12.2718   18.2459 S   0  0  0  0  0  0  0  0  0  0  0  0
    8.0684  -15.2480   20.9388 C   0  0  0  0  0  0  0  0  0  0  0  0
    6.8960  -15.6263   21.2662 O   0  0  0  0  0  0  0  0  0  0  0  0
   10.7778  -18.0738   25.5997 N   0  0  0  0  0  0  0  0  0  0  0  0
    9.7112  -17.6988   24.7589 C   0  0  0  0  0  0  0  0  0  0  0  0
    8.5348  -17.8608   25.1510 O   0  0  0  0  0  0  0  0  0  0  0  0
    9.9412  -17.1168   23.4211 C   0  0  0  0  0  0  0  0  0  0  0  0
    8.9256  -16.0406   23.0951 C   0  0  2  0  0  0  0  0  0  0  0  0
    9.1613  -15.4230   21.8296 N   0  0  0  0  0  0  0  0  0  0  0  0
    9.0342  -15.0180   24.1547 C   0  0  0  0  0  0  0  0  0  0  0  0
   10.1370  -14.6379   24.5645 O   0  0  0  0  0  0  0  0  0  0  0  0
    7.8534  -14.4715   24.7009 N   0  0  0  0  0  0  0  0  0  0  0  0
    7.8214  -13.4647   25.7165 C   0  0  1  0  0  0  0  0  0  0  0  0
    6.3711  -13.0161   25.8469 C   0  0  0  0  0  0  0  0  0  0  0  0
    6.1728  -11.7780   27.1321 S   0  0  0  0  0  0  0  0  0  0  0  0
    8.1774  -14.0741   27.0151 C   0  0  0  0  0  0  0  0  0  0  0  0
    8.1496  -15.4447   27.2404 O   0  0  0  0  0  0  0  0  0  0  0  0
    8.5239  -13.3429   27.9736 O   0  0  0  0  0  0  0  0  0  0  0  0
  2  1  1  6
  3  2  1  0
  4  3  1  0
  5 12  1  0
  5  2  1  0
  6  5  2  0
  7  8  1  0
  8  9  2  0
  8 10  1  0
 11 10  1  1
 11 13  1  0
 11 12  1  0
 13 15  1  0
 14 13  2  0
 15 16  1  0
 16 19  1  0
 16 17  1  1
 18 17  1  0
 19 20  1  0
 21 19  2  0
M  END
$$$$
