CNC.pdb
     RDKit          3D

 21 20  0  0  1  0  0  0  0  0999 V2000
    5.5192  -19.1096   19.8280 N   0  0  0  0  0  0  0  0  0  0  0  0
    5.4460  -18.1167   20.8536 C   0  0  1  0  0  0  0  0  0  0  0  0
    5.5014  -18.8225   22.2018 C   0  0  0  0  0  0  0  0  0  0  0  0
    5.2169  -17.6058   23.5126 S   0  0  0  0  0  0  0  0  0  0  0  0
    6.6025  -17.1849   20.8234 C   0  0  0  0  0  0  0  0  0  0  0  0
    7.7451  -17.7230   20.6511 O   0  0  0  0  0  0  0  0  0  0  0  0
    8.3755  -12.2777   18.4911 N   0  0  0  0  0  0  0  0  0  0  0  0
    7.7041  -13.4138   18.9849 C   0  0  0  0  0  0  0  0  0  0  0  0
    7.3698  -14.3215   18.1922 O   0  0  0  0  0  0  0  0  0  0  0  0
    7.3813  -13.5665   20.4180 C   0  0  0  0  0  0  0  0  0  0  0  0
    7.6577  -14.9731   20.9087 C   0  0  2  0  0  0  0  0  0  0  0  0
    6.4798  -15.7774   20.9738 N   0  0  0  0  0  0  0  0  0  0  0  0
    8.2265  -14.8463   22.2654 C   0  0  0  0  0  0  0  0  0  0  0  0
    7.7351  -14.0713   23.0939 O   0  0  0  0  0  0  0  0  0  0  0  0
    9.3490  -15.6282   22.6118 N   0  0  0  0  0  0  0  0  0  0  0  0
    9.9358  -15.6697   23.9157 C   0  0  1  0  0  0  0  0  0  0  0  0
    8.9343  -16.3676   24.8277 C   0  0  0  0  0  0  0  0  0  0  0  0
    9.6199  -16.6665   26.4599 S   0  0  0  0  0  0  0  0  0  0  0  0
   11.1306  -16.5390   23.8825 C   0  0  0  0  0  0  0  0  0  0  0  0
   11.4635  -17.3256   22.7868 O   0  0  0  0  0  0  0  0  0  0  0  0
   11.8955  -16.5868   24.8755 O   0  0  0  0  0  0  0  0  0  0  0  0
  2  1  1  6
  3  2  1  0
  4  3  1  0
  5 12  1  0
  5  2  1  0
  6  5  2  0
  7  8  1  0
  8  9  2  0
  8 10  1  0
 11 10  1  1
 11 13  1  0
 11 12  1  0
 13 15  1  0
 14 13  2  0
 15 16  1  0
 16 19  1  0
 16 17  1  1
 18 17  1  0
 19 20  1  0
 21 19  2  0
M  END
$$$$
