CNC.pdb
     RDKit          3D

 21 20  0  0  1  0  0  0  0  0999 V2000
    7.4739  -15.5438   18.1484 N   0  0  0  0  0  0  0  0  0  0  0  0
    8.3582  -14.8444   19.0269 C   0  0  1  0  0  0  0  0  0  0  0  0
    7.7867  -13.4534   19.2664 C   0  0  0  0  0  0  0  0  0  0  0  0
    7.9704  -12.4757   17.7531 S   0  0  0  0  0  0  0  0  0  0  0  0
    8.4579  -15.4892   20.3615 C   0  0  0  0  0  0  0  0  0  0  0  0
    7.3897  -16.0307   20.7980 O   0  0  0  0  0  0  0  0  0  0  0  0
   12.0187  -18.4864   24.1842 N   0  0  0  0  0  0  0  0  0  0  0  0
   10.8058  -18.1327   23.5605 C   0  0  0  0  0  0  0  0  0  0  0  0
    9.7237  -18.4826   24.0807 O   0  0  0  0  0  0  0  0  0  0  0  0
   10.7730  -17.3569   22.3042 C   0  0  0  0  0  0  0  0  0  0  0  0
    9.6830  -16.3045   22.3228 C   0  0  2  0  0  0  0  0  0  0  0  0
    9.6521  -15.5195   21.1307 N   0  0  0  0  0  0  0  0  0  0  0  0
    9.9649  -15.4203   23.4713 C   0  0  0  0  0  0  0  0  0  0  0  0
   10.8562  -14.5653   23.4152 O   0  0  0  0  0  0  0  0  0  0  0  0
    9.1976  -15.5615   24.6472 N   0  0  0  0  0  0  0  0  0  0  0  0
    9.3674  -14.7680   25.8251 C   0  0  1  0  0  0  0  0  0  0  0  0
    8.1286  -13.8893   25.9471 C   0  0  0  0  0  0  0  0  0  0  0  0
    8.2164  -12.8148   27.3829 S   0  0  0  0  0  0  0  0  0  0  0  0
    9.3585  -15.6510   27.0103 C   0  0  0  0  0  0  0  0  0  0  0  0
    9.7993  -15.2410   28.2624 O   0  0  0  0  0  0  0  0  0  0  0  0
    8.9386  -16.8286   26.9082 O   0  0  0  0  0  0  0  0  0  0  0  0
  2  1  1  6
  3  2  1  0
  4  3  1  0
  5 12  1  0
  5  2  1  0
  6  5  2  0
  7  8  1  0
  8  9  2  0
  8 10  1  0
 11 10  1  6
 11 13  1  0
 11 12  1  0
 13 15  1  0
 14 13  2  0
 15 16  1  0
 16 19  1  0
 16 17  1  1
 18 17  1  0
 19 20  1  0
 21 19  2  0
M  END
$$$$
