CNC.pdb
     RDKit          3D

 21 20  0  0  1  0  0  0  0  0999 V2000
    8.7035  -14.9930   16.9942 N   0  0  0  0  0  0  0  0  0  0  0  0
    9.4888  -14.0853   17.7704 C   0  0  1  0  0  0  0  0  0  0  0  0
    8.6326  -13.5870   18.9270 C   0  0  0  0  0  0  0  0  0  0  0  0
    7.3474  -12.4902   18.2749 S   0  0  0  0  0  0  0  0  0  0  0  0
   10.6735  -14.7409   18.3814 C   0  0  0  0  0  0  0  0  0  0  0  0
   10.5004  -15.9381   18.7831 O   0  0  0  0  0  0  0  0  0  0  0  0
   15.8914  -16.2021   18.7774 N   0  0  0  0  0  0  0  0  0  0  0  0
   15.4476  -15.0389   19.4370 C   0  0  0  0  0  0  0  0  0  0  0  0
   15.9890  -14.6988   20.5119 O   0  0  0  0  0  0  0  0  0  0  0  0
   14.3566  -14.2039   18.8950 C   0  0  0  0  0  0  0  0  0  0  0  0
   12.9961  -14.8142   19.1640 C   0  0  2  0  0  0  0  0  0  0  0  0
   11.9353  -14.1037   18.5251 N   0  0  0  0  0  0  0  0  0  0  0  0
   12.7909  -14.7687   20.6256 C   0  0  0  0  0  0  0  0  0  0  0  0
   12.6293  -13.6936   21.2145 O   0  0  0  0  0  0  0  0  0  0  0  0
   12.7798  -15.9783   21.3524 N   0  0  0  0  0  0  0  0  0  0  0  0
   12.5972  -16.0708   22.7680 C   0  0  1  0  0  0  0  0  0  0  0  0
   11.1680  -16.5462   22.9980 C   0  0  0  0  0  0  0  0  0  0  0  0
   10.8315  -16.8171   24.7408 S   0  0  0  0  0  0  0  0  0  0  0  0
   13.4715  -17.1364   23.3013 C   0  0  0  0  0  0  0  0  0  0  0  0
   14.1340  -18.0483   22.4891 O   0  0  0  0  0  0  0  0  0  0  0  0
   13.6402  -17.2441   24.5396 O   0  0  0  0  0  0  0  0  0  0  0  0
  2  1  1  1
  3  2  1  0
  4  3  1  0
  5 12  1  0
  5  2  1  0
  6  5  2  0
  7  8  1  0
  8  9  2  0
  8 10  1  0
 11 10  1  1
 11 13  1  0
 11 12  1  0
 13 15  1  0
 14 13  2  0
 15 16  1  0
 16 19  1  0
 16 17  1  6
 18 17  1  0
 19 20  1  0
 21 19  2  0
M  END
$$$$
