CNC.pdb
     RDKit          3D

 21 20  0  0  1  0  0  0  0  0999 V2000
    7.3873  -15.3865   18.3621 N   0  0  0  0  0  0  0  0  0  0  0  0
    8.2640  -14.6745   19.2383 C   0  0  1  0  0  0  0  0  0  0  0  0
    7.6872  -13.2823   19.4575 C   0  0  0  0  0  0  0  0  0  0  0  0
    7.9463  -12.2978   17.9598 S   0  0  0  0  0  0  0  0  0  0  0  0
    8.3564  -15.3033   20.5809 C   0  0  0  0  0  0  0  0  0  0  0  0
    7.3146  -15.9214   20.9777 O   0  0  0  0  0  0  0  0  0  0  0  0
   10.1631  -18.6604   24.4694 N   0  0  0  0  0  0  0  0  0  0  0  0
   10.7858  -17.4359   24.1564 C   0  0  0  0  0  0  0  0  0  0  0  0
   11.4148  -16.8225   25.0464 O   0  0  0  0  0  0  0  0  0  0  0  0
   10.7183  -16.8512   22.8019 C   0  0  0  0  0  0  0  0  0  0  0  0
    9.5198  -15.9376   22.6441 C   0  0  2  0  0  0  0  0  0  0  0  0
    9.5166  -15.2398   21.3985 N   0  0  0  0  0  0  0  0  0  0  0  0
    9.5866  -14.9544   23.7437 C   0  0  0  0  0  0  0  0  0  0  0  0
   10.2377  -13.9098   23.6275 O   0  0  0  0  0  0  0  0  0  0  0  0
    8.8911  -15.2210   24.9423 N   0  0  0  0  0  0  0  0  0  0  0  0
    8.5400  -14.2302   25.9123 C   0  0  1  0  0  0  0  0  0  0  0  0
    7.3292  -13.4856   25.3635 C   0  0  0  0  0  0  0  0  0  0  0  0
    6.6469  -12.3468   26.5724 S   0  0  0  0  0  0  0  0  0  0  0  0
    8.0803  -14.9010   27.1464 C   0  0  0  0  0  0  0  0  0  0  0  0
    7.5068  -16.1664   27.1508 O   0  0  0  0  0  0  0  0  0  0  0  0
    8.2022  -14.3236   28.2533 O   0  0  0  0  0  0  0  0  0  0  0  0
  2  1  1  6
  3  2  1  0
  4  3  1  0
  5 12  1  0
  5  2  1  0
  6  5  2  0
  7  8  1  0
  8  9  2  0
  8 10  1  0
 11 10  1  6
 11 13  1  0
 11 12  1  0
 13 15  1  0
 14 13  2  0
 15 16  1  0
 16 19  1  0
 16 17  1  6
 18 17  1  0
 19 20  1  0
 21 19  2  0
M  END
$$$$
