CNC.pdb
     RDKit          3D

 21 20  0  0  1  0  0  0  0  0999 V2000
    6.1038  -14.6056   20.3945 N   0  0  0  0  0  0  0  0  0  0  0  0
    7.1576  -15.4095   20.9295 C   0  0  1  0  0  0  0  0  0  0  0  0
    8.4847  -14.7735   20.5379 C   0  0  0  0  0  0  0  0  0  0  0  0
    8.4926  -13.0479   21.0875 S   0  0  0  0  0  0  0  0  0  0  0  0
    7.1387  -15.4532   22.4143 C   0  0  0  0  0  0  0  0  0  0  0  0
    6.6788  -14.4158   22.9948 O   0  0  0  0  0  0  0  0  0  0  0  0
    7.6381  -19.7384   23.6948 N   0  0  0  0  0  0  0  0  0  0  0  0
    6.7481  -18.7997   24.2534 C   0  0  0  0  0  0  0  0  0  0  0  0
    5.5484  -18.8062   23.9004 O   0  0  0  0  0  0  0  0  0  0  0  0
    7.1911  -17.8026   25.2488 C   0  0  0  0  0  0  0  0  0  0  0  0
    7.5631  -16.4861   24.5973 C   0  0  2  0  0  0  0  0  0  0  0  0
    7.5964  -16.5645   23.1721 N   0  0  0  0  0  0  0  0  0  0  0  0
    8.9100  -16.1336   25.0891 C   0  0  0  0  0  0  0  0  0  0  0  0
    9.6930  -15.4784   24.3919 O   0  0  0  0  0  0  0  0  0  0  0  0
    9.2991  -16.5556   26.3782 N   0  0  0  0  0  0  0  0  0  0  0  0
   10.0416  -15.7554   27.3026 C   0  0  1  0  0  0  0  0  0  0  0  0
    9.1290  -14.6118   27.7277 C   0  0  0  0  0  0  0  0  0  0  0  0
    9.9530  -13.4936   28.8655 S   0  0  0  0  0  0  0  0  0  0  0  0
   10.3034  -16.5434   28.5252 C   0  0  0  0  0  0  0  0  0  0  0  0
   11.4255  -16.3532   29.3219 O   0  0  0  0  0  0  0  0  0  0  0  0
    9.4911  -17.4302   28.8821 O   0  0  0  0  0  0  0  0  0  0  0  0
  2  1  1  1
  3  2  1  0
  4  3  1  0
  5 12  1  0
  5  2  1  0
  6  5  2  0
  7  8  1  0
  8  9  2  0
  8 10  1  0
 11 10  1  1
 11 13  1  0
 11 12  1  0
 13 15  1  0
 14 13  2  0
 15 16  1  0
 16 19  1  0
 16 17  1  1
 18 17  1  0
 19 20  1  0
 21 19  2  0
M  END
$$$$
