CNC.pdb
     RDKit          3D

 21 20  0  0  1  0  0  0  0  0999 V2000
    7.7796  -16.4502   13.4228 N   0  0  0  0  0  0  0  0  0  0  0  0
    8.4670  -17.1750   14.4451 C   0  0  1  0  0  0  0  0  0  0  0  0
    9.9375  -16.7823   14.3976 C   0  0  0  0  0  0  0  0  0  0  0  0
   10.1038  -15.0652   14.9486 S   0  0  0  0  0  0  0  0  0  0  0  0
    7.9866  -16.8268   15.8070 C   0  0  0  0  0  0  0  0  0  0  0  0
    7.1143  -15.8994   15.8681 O   0  0  0  0  0  0  0  0  0  0  0  0
    9.7996  -19.1225   18.2536 N   0  0  0  0  0  0  0  0  0  0  0  0
    8.6110  -19.4106   18.9531 C   0  0  0  0  0  0  0  0  0  0  0  0
    8.4917  -20.5127   19.5321 O   0  0  0  0  0  0  0  0  0  0  0  0
    7.4952  -18.4456   19.0241 C   0  0  0  0  0  0  0  0  0  0  0  0
    7.7852  -17.1925   18.2232 C   0  0  2  0  0  0  0  0  0  0  0  0
    8.4482  -17.4663   16.9887 N   0  0  0  0  0  0  0  0  0  0  0  0
    8.6601  -16.3462   19.0592 C   0  0  0  0  0  0  0  0  0  0  0  0
    9.8887  -16.4834   19.0402 O   0  0  0  0  0  0  0  0  0  0  0  0
    8.0737  -15.3671   19.8892 N   0  0  0  0  0  0  0  0  0  0  0  0
    8.8088  -14.4607   20.7162 C   0  0  1  0  0  0  0  0  0  0  0  0
    7.8909  -13.2776   20.9978 C   0  0  0  0  0  0  0  0  0  0  0  0
    7.5394  -12.3412   19.5067 S   0  0  0  0  0  0  0  0  0  0  0  0
    9.0653  -15.0975   22.0251 C   0  0  0  0  0  0  0  0  0  0  0  0
    9.9643  -14.5852   22.9522 O   0  0  0  0  0  0  0  0  0  0  0  0
    8.4566  -16.1487   22.3378 O   0  0  0  0  0  0  0  0  0  0  0  0
  2  1  1  6
  3  2  1  0
  4  3  1  0
  5 12  1  0
  5  2  1  0
  6  5  2  0
  7  8  1  0
  8  9  2  0
  8 10  1  0
 11 10  1  1
 11 13  1  0
 11 12  1  0
 13 15  1  0
 14 13  2  0
 15 16  1  0
 16 19  1  0
 16 17  1  1
 18 17  1  0
 19 20  1  0
 21 19  2  0
M  END
$$$$
