CNC.pdb
     RDKit          3D

 21 20  0  0  1  0  0  0  0  0999 V2000
    8.4576  -14.9016   16.5483 N   0  0  0  0  0  0  0  0  0  0  0  0
    9.1363  -14.0000   17.4255 C   0  0  1  0  0  0  0  0  0  0  0  0
    8.1123  -13.4150   18.3890 C   0  0  0  0  0  0  0  0  0  0  0  0
    7.0221  -12.2936   17.4761 S   0  0  0  0  0  0  0  0  0  0  0  0
   10.1540  -14.6840   18.2640 C   0  0  0  0  0  0  0  0  0  0  0  0
    9.8763  -15.8787   18.6107 O   0  0  0  0  0  0  0  0  0  0  0  0
   15.4792  -14.5181   21.1936 N   0  0  0  0  0  0  0  0  0  0  0  0
   14.6241  -15.0965   20.2346 C   0  0  0  0  0  0  0  0  0  0  0  0
   14.6484  -16.3343   20.0582 O   0  0  0  0  0  0  0  0  0  0  0  0
   13.6946  -14.2811   19.4268 C   0  0  0  0  0  0  0  0  0  0  0  0
   12.2826  -14.8288   19.4726 C   0  0  2  0  0  0  0  0  0  0  0  0
   11.3711  -14.0754   18.6726 N   0  0  0  0  0  0  0  0  0  0  0  0
   11.8474  -14.7661   20.8822 C   0  0  0  0  0  0  0  0  0  0  0  0
   11.6842  -13.6812   21.4524 O   0  0  0  0  0  0  0  0  0  0  0  0
   11.6158  -15.9703   21.5804 N   0  0  0  0  0  0  0  0  0  0  0  0
   11.2880  -16.0504   22.9704 C   0  0  1  0  0  0  0  0  0  0  0  0
    9.8394  -16.5151   23.0555 C   0  0  0  0  0  0  0  0  0  0  0  0
    8.7161  -15.1397   23.3204 S   0  0  0  0  0  0  0  0  0  0  0  0
   12.0953  -17.1171   23.5986 C   0  0  0  0  0  0  0  0  0  0  0  0
   12.0915  -17.3627   24.9660 O   0  0  0  0  0  0  0  0  0  0  0  0
   12.8254  -17.8483   22.8874 O   0  0  0  0  0  0  0  0  0  0  0  0
  2  1  1  6
  3  2  1  0
  4  3  1  0
  5 12  1  0
  5  2  1  0
  6  5  2  0
  7  8  1  0
  8  9  2  0
  8 10  1  0
 11 10  1  1
 11 13  1  0
 11 12  1  0
 13 15  1  0
 14 13  2  0
 15 16  1  0
 16 19  1  0
 16 17  1  6
 18 17  1  0
 19 20  1  0
 21 19  2  0
M  END
$$$$
