CNC.pdb
     RDKit          3D

 21 20  0  0  1  0  0  0  0  0999 V2000
    7.8958  -15.2229   18.6164 N   0  0  0  0  0  0  0  0  0  0  0  0
    8.5116  -14.5285   19.7034 C   0  0  1  0  0  0  0  0  0  0  0  0
    7.9508  -13.1132   19.7404 C   0  0  0  0  0  0  0  0  0  0  0  0
    8.5284  -12.2153   18.2775 S   0  0  0  0  0  0  0  0  0  0  0  0
    8.1908  -15.1382   21.0195 C   0  0  0  0  0  0  0  0  0  0  0  0
    7.1894  -15.9265   21.0371 O   0  0  0  0  0  0  0  0  0  0  0  0
    7.7453  -18.7708   22.6503 N   0  0  0  0  0  0  0  0  0  0  0  0
    8.8340  -17.9388   22.3222 C   0  0  0  0  0  0  0  0  0  0  0  0
    9.3117  -17.9806   21.1671 O   0  0  0  0  0  0  0  0  0  0  0  0
    9.4318  -17.0135   23.3059 C   0  0  0  0  0  0  0  0  0  0  0  0
    8.6923  -15.6920   23.3549 C   0  0  2  0  0  0  0  0  0  0  0  0
    8.9318  -14.8814   22.2043 N   0  0  0  0  0  0  0  0  0  0  0  0
    9.1764  -14.9777   24.5531 C   0  0  0  0  0  0  0  0  0  0  0  0
   10.3790  -14.7379   24.7112 O   0  0  0  0  0  0  0  0  0  0  0  0
    8.2423  -14.5655   25.5272 N   0  0  0  0  0  0  0  0  0  0  0  0
    8.5803  -13.8675   26.7291 C   0  0  1  0  0  0  0  0  0  0  0  0
    7.3032  -13.2013   27.2260 C   0  0  0  0  0  0  0  0  0  0  0  0
    6.6760  -12.0046   26.0434 S   0  0  0  0  0  0  0  0  0  0  0  0
    8.9594  -14.8471   27.7688 C   0  0  0  0  0  0  0  0  0  0  0  0
    9.4282  -14.4760   29.0228 O   0  0  0  0  0  0  0  0  0  0  0  0
    8.8626  -16.0755   27.5340 O   0  0  0  0  0  0  0  0  0  0  0  0
  2  1  1  6
  3  2  1  0
  4  3  1  0
  5 12  1  0
  5  2  1  0
  6  5  2  0
  7  8  1  0
  8  9  2  0
  8 10  1  0
 11 10  1  6
 11 13  1  0
 11 12  1  0
 13 15  1  0
 14 13  2  0
 15 16  1  0
 16 19  1  0
 16 17  1  1
 18 17  1  0
 19 20  1  0
 21 19  2  0
M  END
$$$$
