CNC.pdb
     RDKit          3D

 21 20  0  0  1  0  0  0  0  0999 V2000
    7.6787  -15.0039   16.8459 N   0  0  0  0  0  0  0  0  0  0  0  0
    8.4660  -14.4693   17.9124 C   0  0  1  0  0  0  0  0  0  0  0  0
    7.6625  -13.3661   18.5880 C   0  0  0  0  0  0  0  0  0  0  0  0
    8.6030  -12.7381   20.0025 S   0  0  0  0  0  0  0  0  0  0  0  0
    8.7547  -15.4780   18.9641 C   0  0  0  0  0  0  0  0  0  0  0  0
    7.7802  -16.2300   19.2950 O   0  0  0  0  0  0  0  0  0  0  0  0
   10.5517  -19.7580   19.8332 N   0  0  0  0  0  0  0  0  0  0  0  0
   11.1387  -18.5278   19.4765 C   0  0  0  0  0  0  0  0  0  0  0  0
   11.4654  -18.3263   18.2863 O   0  0  0  0  0  0  0  0  0  0  0  0
   11.3813  -17.4629   20.4706 C   0  0  0  0  0  0  0  0  0  0  0  0
   10.1697  -16.5695   20.6430 C   0  0  2  0  0  0  0  0  0  0  0  0
   10.0250  -15.6234   19.5836 N   0  0  0  0  0  0  0  0  0  0  0  0
   10.3557  -15.8408   21.9137 C   0  0  0  0  0  0  0  0  0  0  0  0
   11.3167  -15.0806   22.0791 O   0  0  0  0  0  0  0  0  0  0  0  0
    9.4146  -16.0215   22.9496 N   0  0  0  0  0  0  0  0  0  0  0  0
    9.5129  -15.4254   24.2461 C   0  0  1  0  0  0  0  0  0  0  0  0
    8.0883  -15.1737   24.7246 C   0  0  0  0  0  0  0  0  0  0  0  0
    7.2219  -14.0234   23.6523 S   0  0  0  0  0  0  0  0  0  0  0  0
   10.0916  -16.4060   25.1884 C   0  0  0  0  0  0  0  0  0  0  0  0
   10.3894  -17.7147   24.8298 O   0  0  0  0  0  0  0  0  0  0  0  0
   10.3347  -16.0667   26.3713 O   0  0  0  0  0  0  0  0  0  0  0  0
  2  1  1  6
  3  2  1  0
  4  3  1  0
  5 12  1  0
  5  2  1  0
  6  5  2  0
  7  8  1  0
  8  9  2  0
  8 10  1  0
 11 10  1  6
 11 13  1  0
 11 12  1  0
 13 15  1  0
 14 13  2  0
 15 16  1  0
 16 19  1  0
 16 17  1  1
 18 17  1  0
 19 20  1  0
 21 19  2  0
M  END
$$$$
