CNC.pdb
     RDKit          3D

 21 20  0  0  1  0  0  0  0  0999 V2000
    7.5132  -16.0161   18.6121 N   0  0  0  0  0  0  0  0  0  0  0  0
    8.1987  -15.0710   19.4367 C   0  0  1  0  0  0  0  0  0  0  0  0
    7.4403  -13.7518   19.3772 C   0  0  0  0  0  0  0  0  0  0  0  0
    8.2890  -12.5400   20.4217 S   0  0  0  0  0  0  0  0  0  0  0  0
    8.2187  -15.4759   20.8659 C   0  0  0  0  0  0  0  0  0  0  0  0
    7.0864  -15.7566   21.3796 O   0  0  0  0  0  0  0  0  0  0  0  0
    9.5594  -18.5895   22.2180 N   0  0  0  0  0  0  0  0  0  0  0  0
   10.5945  -18.0427   23.0021 C   0  0  0  0  0  0  0  0  0  0  0  0
   11.5948  -18.7430   23.2723 O   0  0  0  0  0  0  0  0  0  0  0  0
   10.5343  -16.6600   23.5175 C   0  0  0  0  0  0  0  0  0  0  0  0
    9.3062  -15.9273   23.0167 C   0  0  2  0  0  0  0  0  0  0  0  0
    9.4062  -15.5561   21.6417 N   0  0  0  0  0  0  0  0  0  0  0  0
    9.1769  -14.7048   23.8347 C   0  0  0  0  0  0  0  0  0  0  0  0
    9.9646  -13.7613   23.7015 O   0  0  0  0  0  0  0  0  0  0  0  0
    8.1328  -14.6223   24.7804 N   0  0  0  0  0  0  0  0  0  0  0  0
    7.9149  -13.5085   25.6510 C   0  0  1  0  0  0  0  0  0  0  0  0
    6.4082  -13.2928   25.7221 C   0  0  0  0  0  0  0  0  0  0  0  0
    5.9822  -11.9514   26.8370 S   0  0  0  0  0  0  0  0  0  0  0  0
    8.3391  -13.8721   27.0193 C   0  0  0  0  0  0  0  0  0  0  0  0
    8.5039  -15.1872   27.4358 O   0  0  0  0  0  0  0  0  0  0  0  0
    8.5673  -12.9715   27.8621 O   0  0  0  0  0  0  0  0  0  0  0  0
  2  1  1  6
  3  2  1  0
  4  3  1  0
  5 12  1  0
  5  2  1  0
  6  5  2  0
  7  8  1  0
  8  9  2  0
  8 10  1  0
 11 10  1  1
 11 13  1  0
 11 12  1  0
 13 15  1  0
 14 13  2  0
 15 16  1  0
 16 19  1  0
 16 17  1  1
 18 17  1  0
 19 20  1  0
 21 19  2  0
M  END
$$$$
