DLV.pdb
     RDKit          3D

 24 23  0  0  1  0  0  0  0  0999 V2000
    8.3770  -17.1742   21.1202 N   0  0  0  0  0  0  0  0  0  0  0  0
    9.7449  -16.8042   21.3861 C   0  0  1  0  0  0  0  0  0  0  0  0
   10.2498  -16.0242   20.1762 C   0  0  0  0  0  0  0  0  0  0  0  0
   10.6565  -16.9103   19.0807 C   0  0  0  0  0  0  0  0  0  0  0  0
   11.1431  -18.0426   19.3394 O   0  0  0  0  0  0  0  0  0  0  0  0
    9.8548  -15.9339   22.5868 C   0  0  0  0  0  0  0  0  0  0  0  0
   10.9061  -15.2501   22.7647 O   0  0  0  0  0  0  0  0  0  0  0  0
   10.5294  -16.5558   17.7412 O   0  0  0  0  0  0  0  0  0  0  0  0
    5.6905  -13.2809   25.9269 C   0  0  0  0  0  0  0  0  0  0  0  0
    6.8454  -13.5449   24.9505 C   0  0  1  0  0  0  0  0  0  0  0  0
    7.8194  -12.4246   25.1550 C   0  0  0  0  0  0  0  0  0  0  0  0
    7.4195  -14.8984   25.2107 C   0  0  0  0  0  0  0  0  0  0  0  0
    8.8239  -15.0614   24.6948 C   0  0  2  0  0  0  0  0  0  0  0  0
    8.7847  -15.8833   23.5102 N   0  0  0  0  0  0  0  0  0  0  0  0
    9.6028  -15.7425   25.7370 C   0  0  0  0  0  0  0  0  0  0  0  0
    9.8706  -16.9792   25.5736 O   0  0  0  0  0  0  0  0  0  0  0  0
   10.0635  -15.0085   29.9864 C   0  0  0  0  0  0  0  0  0  0  0  0
   11.2598  -14.9984   29.0472 C   0  0  2  0  0  0  0  0  0  0  0  0
   11.5063  -13.5610   28.6443 C   0  0  0  0  0  0  0  0  0  0  0  0
   10.9634  -15.8084   27.7948 C   0  0  2  0  0  0  0  0  0  0  0  0
   10.0734  -15.1159   26.9073 N   0  0  0  0  0  0  0  0  0  0  0  0
   10.3684  -17.0914   28.2386 C   0  0  0  0  0  0  0  0  0  0  0  0
   11.1429  -18.0132   28.9354 O   0  0  0  0  0  0  0  0  0  0  0  0
    9.1623  -17.3682   27.9954 O   0  0  0  0  0  0  0  0  0  0  0  0
  2  1  1  6
  2  3  1  0
  4  3  1  0
  4  5  2  0
  6  7  2  0
  6  2  1  0
  8  4  1  0
 10  9  1  1
 10 12  1  0
 11 10  1  0
 13 12  1  1
 13 15  1  0
 13 14  1  0
 14  6  1  0
 15 21  1  0
 16 15  2  0
 18 17  1  1
 18 19  1  0
 18 20  1  0
 20 22  1  0
 20 21  1  6
 22 24  2  0
 22 23  1  0
M  END
$$$$
