DLV.pdb
     RDKit          3D

 24 23  0  0  1  0  0  0  0  0999 V2000
    8.5214  -16.9803   21.0694 N   0  0  0  0  0  0  0  0  0  0  0  0
    9.8847  -16.7810   21.4943 C   0  0  1  0  0  0  0  0  0  0  0  0
   10.6055  -16.0318   20.3779 C   0  0  0  0  0  0  0  0  0  0  0  0
   10.9233  -16.9061   19.2443 C   0  0  0  0  0  0  0  0  0  0  0  0
   10.0033  -17.2976   18.4786 O   0  0  0  0  0  0  0  0  0  0  0  0
    9.9594  -15.9639   22.7345 C   0  0  0  0  0  0  0  0  0  0  0  0
   11.0551  -15.4123   23.0502 O   0  0  0  0  0  0  0  0  0  0  0  0
   12.2176  -17.3343   18.9656 O   0  0  0  0  0  0  0  0  0  0  0  0
    5.5061  -13.1360   25.5186 C   0  0  0  0  0  0  0  0  0  0  0  0
    6.8274  -13.3756   24.7744 C   0  0  1  0  0  0  0  0  0  0  0  0
    7.7433  -12.2679   25.1982 C   0  0  0  0  0  0  0  0  0  0  0  0
    7.3413  -14.7399   25.0965 C   0  0  0  0  0  0  0  0  0  0  0  0
    8.7761  -14.9489   24.6932 C   0  0  2  0  0  0  0  0  0  0  0  0
    8.8071  -15.8156   23.5409 N   0  0  0  0  0  0  0  0  0  0  0  0
    9.4613  -15.6028   25.8156 C   0  0  0  0  0  0  0  0  0  0  0  0
    9.6929  -16.8545   25.7295 O   0  0  0  0  0  0  0  0  0  0  0  0
   11.9238  -15.3844   30.1183 C   0  0  0  0  0  0  0  0  0  0  0  0
   11.2532  -14.6212   28.9865 C   0  0  2  0  0  0  0  0  0  0  0  0
   10.0586  -13.9010   29.5724 C   0  0  0  0  0  0  0  0  0  0  0  0
   10.7623  -15.5793   27.9126 C   0  0  2  0  0  0  0  0  0  0  0  0
    9.8794  -14.9346   26.9828 N   0  0  0  0  0  0  0  0  0  0  0  0
   10.0714  -16.6920   28.6066 C   0  0  0  0  0  0  0  0  0  0  0  0
    8.6971  -16.8543   28.4640 O   0  0  0  0  0  0  0  0  0  0  0  0
   10.7093  -17.5033   29.3312 O   0  0  0  0  0  0  0  0  0  0  0  0
  2  1  1  6
  2  3  1  0
  4  3  1  0
  4  5  2  0
  6  7  2  0
  6  2  1  0
  8  4  1  0
 10  9  1  1
 10 12  1  0
 11 10  1  0
 13 12  1  1
 13 15  1  0
 13 14  1  0
 14  6  1  0
 15 21  1  0
 16 15  2  0
 18 17  1  1
 18 19  1  0
 18 20  1  0
 20 22  1  0
 20 21  1  6
 22 24  2  0
 22 23  1  0
M  END
$$$$
