DLV.pdb
     RDKit          3D

 24 23  0  0  1  0  0  0  0  0999 V2000
    8.0199  -17.2950   20.8776 N   0  0  0  0  0  0  0  0  0  0  0  0
    9.4025  -17.0010   21.1619 C   0  0  1  0  0  0  0  0  0  0  0  0
   10.0190  -16.4318   19.8879 C   0  0  0  0  0  0  0  0  0  0  0  0
   10.0260  -17.4098   18.7952 C   0  0  0  0  0  0  0  0  0  0  0  0
    9.4377  -18.5139   18.9396 O   0  0  0  0  0  0  0  0  0  0  0  0
    9.5376  -15.9893   22.2433 C   0  0  0  0  0  0  0  0  0  0  0  0
   10.6074  -15.3173   22.3356 O   0  0  0  0  0  0  0  0  0  0  0  0
   10.6632  -17.1748   17.5808 O   0  0  0  0  0  0  0  0  0  0  0  0
    7.5829  -12.0976   25.0908 C   0  0  0  0  0  0  0  0  0  0  0  0
    7.0641  -13.4171   25.6797 C   0  0  1  0  0  0  0  0  0  0  0  0
    5.6767  -13.1308   26.1680 C   0  0  0  0  0  0  0  0  0  0  0  0
    7.1290  -14.4872   24.6403 C   0  0  0  0  0  0  0  0  0  0  0  0
    8.5334  -14.8296   24.2217 C   0  0  2  0  0  0  0  0  0  0  0  0
    8.4706  -15.7935   23.1507 N   0  0  0  0  0  0  0  0  0  0  0  0
    9.2077  -15.4292   25.3804 C   0  0  0  0  0  0  0  0  0  0  0  0
    9.2486  -16.7021   25.4579 O   0  0  0  0  0  0  0  0  0  0  0  0
   11.4414  -15.1719   29.7678 C   0  0  0  0  0  0  0  0  0  0  0  0
   10.9962  -14.3956   28.5381 C   0  0  2  0  0  0  0  0  0  0  0  0
    9.7891  -13.5740   28.9345 C   0  0  0  0  0  0  0  0  0  0  0  0
   10.5897  -15.3467   27.4234 C   0  0  2  0  0  0  0  0  0  0  0  0
    9.8128  -14.6869   26.4131 N   0  0  0  0  0  0  0  0  0  0  0  0
    9.8130  -16.4428   28.0498 C   0  0  0  0  0  0  0  0  0  0  0  0
   10.4736  -17.5324   28.6083 O   0  0  0  0  0  0  0  0  0  0  0  0
    8.5530  -16.4086   28.0878 O   0  0  0  0  0  0  0  0  0  0  0  0
  2  1  1  6
  2  3  1  0
  4  3  1  0
  4  5  2  0
  6  7  2  0
  6  2  1  0
  8  4  1  0
 10  9  1  6
 10 12  1  0
 11 10  1  0
 13 12  1  1
 13 15  1  0
 13 14  1  0
 14  6  1  0
 15 21  1  0
 16 15  2  0
 18 17  1  1
 18 19  1  0
 18 20  1  0
 20 22  1  0
 20 21  1  6
 22 24  2  0
 22 23  1  0
M  END
$$$$
