DLV.pdb
     RDKit          3D

 24 23  0  0  1  0  0  0  0  0999 V2000
    8.5865  -17.3924   20.8692 N   0  0  0  0  0  0  0  0  0  0  0  0
    9.9333  -17.1029   21.2946 C   0  0  1  0  0  0  0  0  0  0  0  0
   10.6834  -16.5473   20.0880 C   0  0  0  0  0  0  0  0  0  0  0  0
   10.6711  -17.4790   18.9556 C   0  0  0  0  0  0  0  0  0  0  0  0
   11.6874  -18.1816   18.7120 O   0  0  0  0  0  0  0  0  0  0  0  0
    9.9602  -16.0829   22.3764 C   0  0  0  0  0  0  0  0  0  0  0  0
   11.0004  -15.3792   22.5414 O   0  0  0  0  0  0  0  0  0  0  0  0
    9.5698  -17.6294   18.1185 O   0  0  0  0  0  0  0  0  0  0  0  0
    7.5755  -12.2004   24.7838 C   0  0  0  0  0  0  0  0  0  0  0  0
    7.1289  -13.4889   25.4888 C   0  0  1  0  0  0  0  0  0  0  0  0
    5.7019  -13.2647   25.8875 C   0  0  0  0  0  0  0  0  0  0  0  0
    7.3237  -14.6522   24.5732 C   0  0  0  0  0  0  0  0  0  0  0  0
    8.7680  -14.9193   24.2451 C   0  0  2  0  0  0  0  0  0  0  0  0
    8.8249  -15.9147   23.2029 N   0  0  0  0  0  0  0  0  0  0  0  0
    9.4084  -15.4441   25.4581 C   0  0  0  0  0  0  0  0  0  0  0  0
    9.2423  -16.6777   25.7380 O   0  0  0  0  0  0  0  0  0  0  0  0
   11.3177  -15.0500   29.9122 C   0  0  0  0  0  0  0  0  0  0  0  0
   10.9386  -14.3092   28.6392 C   0  0  2  0  0  0  0  0  0  0  0  0
    9.5849  -13.6746   28.8713 C   0  0  0  0  0  0  0  0  0  0  0  0
   10.8263  -15.2762   27.4710 C   0  0  2  0  0  0  0  0  0  0  0  0
   10.1953  -14.6705   26.3332 N   0  0  0  0  0  0  0  0  0  0  0  0
   10.0434  -16.4417   27.9461 C   0  0  0  0  0  0  0  0  0  0  0  0
   10.6979  -17.5569   28.4591 O   0  0  0  0  0  0  0  0  0  0  0  0
    8.7833  -16.4441   27.8948 O   0  0  0  0  0  0  0  0  0  0  0  0
  2  1  1  6
  2  3  1  0
  4  3  1  0
  4  5  2  0
  6  7  2  0
  6  2  1  0
  8  4  1  0
 10  9  1  6
 10 12  1  0
 11 10  1  0
 13 12  1  1
 13 15  1  0
 13 14  1  0
 14  6  1  0
 15 21  1  0
 16 15  2  0
 18 17  1  1
 18 19  1  0
 18 20  1  0
 20 22  1  0
 20 21  1  6
 22 24  2  0
 22 23  1  0
M  END
$$$$
