DLV.pdb
     RDKit          3D

 24 23  0  0  1  0  0  0  0  0999 V2000
    8.2766  -17.4148   21.0997 N   0  0  0  0  0  0  0  0  0  0  0  0
    9.6343  -16.9794   21.3139 C   0  0  1  0  0  0  0  0  0  0  0  0
   10.0731  -16.2226   20.0641 C   0  0  0  0  0  0  0  0  0  0  0  0
   10.4313  -17.1297   18.9689 C   0  0  0  0  0  0  0  0  0  0  0  0
   10.3412  -18.3751   19.1327 O   0  0  0  0  0  0  0  0  0  0  0  0
    9.7395  -16.0632   22.4805 C   0  0  0  0  0  0  0  0  0  0  0  0
   10.7363  -15.2870   22.5733 O   0  0  0  0  0  0  0  0  0  0  0  0
   10.8751  -16.6744   17.7312 O   0  0  0  0  0  0  0  0  0  0  0  0
    5.6516  -13.5548   26.0375 C   0  0  0  0  0  0  0  0  0  0  0  0
    6.7270  -13.7906   24.9676 C   0  0  1  0  0  0  0  0  0  0  0  0
    7.6702  -12.6309   25.0718 C   0  0  0  0  0  0  0  0  0  0  0  0
    7.3744  -15.1169   25.1944 C   0  0  0  0  0  0  0  0  0  0  0  0
    8.7631  -15.2100   24.6219 C   0  0  2  0  0  0  0  0  0  0  0  0
    8.7260  -16.0729   23.4668 N   0  0  0  0  0  0  0  0  0  0  0  0
    9.6272  -15.8052   25.6495 C   0  0  0  0  0  0  0  0  0  0  0  0
   10.0043  -17.0135   25.4894 O   0  0  0  0  0  0  0  0  0  0  0  0
   10.1803  -14.9995   30.0059 C   0  0  0  0  0  0  0  0  0  0  0  0
   11.2512  -14.8824   28.9324 C   0  0  2  0  0  0  0  0  0  0  0  0
   11.2615  -13.4455   28.4587 C   0  0  0  0  0  0  0  0  0  0  0  0
   10.9232  -15.7799   27.7495 C   0  0  2  0  0  0  0  0  0  0  0  0
   10.0664  -15.1256   26.8022 N   0  0  0  0  0  0  0  0  0  0  0  0
   10.2717  -16.9948   28.2941 C   0  0  0  0  0  0  0  0  0  0  0  0
   11.0153  -17.9130   29.0285 O   0  0  0  0  0  0  0  0  0  0  0  0
    9.0449  -17.2164   28.1040 O   0  0  0  0  0  0  0  0  0  0  0  0
  2  1  1  6
  2  3  1  0
  4  3  1  0
  4  5  2  0
  6  7  2  0
  6  2  1  0
  8  4  1  0
 10  9  1  1
 10 12  1  0
 11 10  1  0
 13 12  1  1
 13 15  1  0
 13 14  1  0
 14  6  1  0
 15 21  1  0
 16 15  2  0
 18 17  1  1
 18 19  1  0
 18 20  1  0
 20 22  1  0
 20 21  1  6
 22 24  2  0
 22 23  1  0
M  END
$$$$
