DLV.pdb
     RDKit          3D

 24 23  0  0  1  0  0  0  0  0999 V2000
   10.2122  -16.4206   20.2799 N   0  0  0  0  0  0  0  0  0  0  0  0
    9.3190  -16.7971   21.3472 C   0  0  1  0  0  0  0  0  0  0  0  0
    9.6754  -18.2221   21.7589 C   0  0  0  0  0  0  0  0  0  0  0  0
    9.5230  -19.1697   20.6502 C   0  0  0  0  0  0  0  0  0  0  0  0
    9.2649  -18.7437   19.4936 O   0  0  0  0  0  0  0  0  0  0  0  0
    9.4749  -15.9117   22.5317 C   0  0  0  0  0  0  0  0  0  0  0  0
   10.5915  -15.3541   22.7482 O   0  0  0  0  0  0  0  0  0  0  0  0
    9.6518  -20.5454   20.8147 O   0  0  0  0  0  0  0  0  0  0  0  0
    7.5853  -12.1355   25.4852 C   0  0  0  0  0  0  0  0  0  0  0  0
    6.9806  -13.4391   26.0255 C   0  0  1  0  0  0  0  0  0  0  0  0
    5.5880  -13.0961   26.4597 C   0  0  0  0  0  0  0  0  0  0  0  0
    7.0409  -14.4926   24.9692 C   0  0  0  0  0  0  0  0  0  0  0  0
    8.4435  -14.8285   24.5392 C   0  0  2  0  0  0  0  0  0  0  0  0
    8.3751  -15.7062   23.3968 N   0  0  0  0  0  0  0  0  0  0  0  0
    9.0938  -15.5277   25.6550 C   0  0  0  0  0  0  0  0  0  0  0  0
    9.0910  -16.8035   25.6463 O   0  0  0  0  0  0  0  0  0  0  0  0
    9.8169  -14.4752   29.7304 C   0  0  0  0  0  0  0  0  0  0  0  0
   11.0007  -14.7684   28.8217 C   0  0  2  0  0  0  0  0  0  0  0  0
   11.5161  -13.4418   28.3082 C   0  0  0  0  0  0  0  0  0  0  0  0
   10.5667  -15.6121   27.6333 C   0  0  2  0  0  0  0  0  0  0  0  0
    9.7213  -14.8780   26.7356 N   0  0  0  0  0  0  0  0  0  0  0  0
    9.8546  -16.7931   28.1765 C   0  0  0  0  0  0  0  0  0  0  0  0
    8.4803  -16.9182   28.0011 O   0  0  0  0  0  0  0  0  0  0  0  0
   10.4744  -17.6966   28.8010 O   0  0  0  0  0  0  0  0  0  0  0  0
  2  1  1  6
  2  3  1  0
  4  3  1  0
  4  5  2  0
  6  7  2  0
  6  2  1  0
  8  4  1  0
 10  9  1  6
 10 12  1  0
 11 10  1  0
 13 12  1  1
 13 15  1  0
 13 14  1  0
 14  6  1  0
 15 21  1  0
 16 15  2  0
 18 17  1  1
 18 19  1  0
 18 20  1  0
 20 22  1  0
 20 21  1  6
 22 24  2  0
 22 23  1  0
M  END
$$$$
