DLV.pdb
     RDKit          3D

 24 23  0  0  1  0  0  0  0  0999 V2000
    9.6191  -16.2864   19.9955 N   0  0  0  0  0  0  0  0  0  0  0  0
    9.8217  -16.9673   21.2501 C   0  0  1  0  0  0  0  0  0  0  0  0
   11.1541  -17.7046   21.1589 C   0  0  0  0  0  0  0  0  0  0  0  0
   11.0923  -18.8406   20.2336 C   0  0  0  0  0  0  0  0  0  0  0  0
   12.1540  -19.3047   19.7404 O   0  0  0  0  0  0  0  0  0  0  0  0
    9.8885  -16.0128   22.3884 C   0  0  0  0  0  0  0  0  0  0  0  0
   10.9065  -15.2701   22.5178 O   0  0  0  0  0  0  0  0  0  0  0  0
    9.8943  -19.4448   19.8648 O   0  0  0  0  0  0  0  0  0  0  0  0
    7.7588  -12.3208   25.1854 C   0  0  0  0  0  0  0  0  0  0  0  0
    7.1896  -13.6291   25.7522 C   0  0  1  0  0  0  0  0  0  0  0  0
    5.7629  -13.3365   26.1051 C   0  0  0  0  0  0  0  0  0  0  0  0
    7.3505  -14.7206   24.7461 C   0  0  0  0  0  0  0  0  0  0  0  0
    8.7866  -15.0060   24.3982 C   0  0  2  0  0  0  0  0  0  0  0  0
    8.8155  -15.9493   23.3075 N   0  0  0  0  0  0  0  0  0  0  0  0
    9.4183  -15.6060   25.5805 C   0  0  0  0  0  0  0  0  0  0  0  0
    9.3994  -16.8770   25.6904 O   0  0  0  0  0  0  0  0  0  0  0  0
    9.4832  -14.2465   29.4582 C   0  0  0  0  0  0  0  0  0  0  0  0
   10.8462  -14.6331   28.9052 C   0  0  2  0  0  0  0  0  0  0  0  0
   11.5371  -13.3583   28.4731 C   0  0  0  0  0  0  0  0  0  0  0  0
   10.6944  -15.5369   27.6917 C   0  0  2  0  0  0  0  0  0  0  0  0
   10.0444  -14.8660   26.6023 N   0  0  0  0  0  0  0  0  0  0  0  0
    9.9085  -16.7166   28.1249 C   0  0  0  0  0  0  0  0  0  0  0  0
    8.6028  -16.8858   27.6756 O   0  0  0  0  0  0  0  0  0  0  0  0
   10.4032  -17.5794   28.9002 O   0  0  0  0  0  0  0  0  0  0  0  0
  2  1  1  6
  2  3  1  0
  4  3  1  0
  4  5  2  0
  6  7  2  0
  6  2  1  0
  8  4  1  0
 10  9  1  6
 10 12  1  0
 11 10  1  0
 13 12  1  1
 13 15  1  0
 13 14  1  0
 14  6  1  0
 15 21  1  0
 16 15  2  0
 18 17  1  6
 18 19  1  0
 18 20  1  0
 20 22  1  0
 20 21  1  6
 22 24  2  0
 22 23  1  0
M  END
$$$$
