QCI.pdb
     RDKit          3D

 24 23  0  0  1  0  0  0  0  0999 V2000
    7.2089  -19.3202   16.3915 N   0  0  0  0  0  0  0  0  0  0  0  0
    8.2369  -18.4297   16.7734 C   0  0  0  0  0  0  0  0  0  0  0  0
    9.4222  -18.7972   16.8182 O   0  0  0  0  0  0  0  0  0  0  0  0
    7.9199  -17.0042   17.1377 C   0  0  0  0  0  0  0  0  0  0  0  0
    7.4313  -16.9260   18.5518 C   0  0  0  0  0  0  0  0  0  0  0  0
    8.5149  -16.7990   19.5863 C   0  0  2  0  0  0  0  0  0  0  0  0
    9.2216  -18.0963   19.5694 N   0  0  0  0  0  0  0  0  0  0  0  0
    7.9098  -16.5878   20.9196 C   0  0  0  0  0  0  0  0  0  0  0  0
    7.1658  -15.5619   21.0669 O   0  0  0  0  0  0  0  0  0  0  0  0
    8.0787  -17.4177   22.0352 N   0  0  0  0  0  0  0  0  0  0  0  0
    7.3337  -17.1591   23.2485 C   0  0  1  0  0  0  0  0  0  0  0  0
    7.3892  -18.4140   24.1102 C   0  0  0  0  0  0  0  0  0  0  0  0
    6.5116  -18.0472   25.6658 S   0  0  0  0  0  0  0  0  0  0  0  0
    7.9658  -16.0600   23.9822 C   0  0  0  0  0  0  0  0  0  0  0  0
    9.2087  -15.8744   23.9411 O   0  0  0  0  0  0  0  0  0  0  0  0
    6.5771  -10.6249   26.4863 C   0  0  0  0  0  0  0  0  0  0  0  0
    7.4831  -11.8078   26.3530 C   0  0  0  0  0  0  0  0  0  0  0  0
    6.7778  -12.9353   25.6119 C   0  0  2  0  0  0  0  0  0  0  0  0
    5.5850  -13.4104   26.4059 C   0  0  0  0  0  0  0  0  0  0  0  0
    7.7435  -14.0867   25.4354 C   0  0  2  0  0  0  0  0  0  0  0  0
    7.1260  -15.1966   24.7528 N   0  0  0  0  0  0  0  0  0  0  0  0
    8.2549  -14.5197   26.7709 C   0  0  0  0  0  0  0  0  0  0  0  0
    8.9731  -13.7751   27.4710 O   0  0  0  0  0  0  0  0  0  0  0  0
    7.9262  -15.7688   27.2394 O   0  0  0  0  0  0  0  0  0  0  0  0
  2  1  1  0
  2  4  1  0
  3  2  2  0
  5  6  1  0
  5  4  1  0
  6  7  1  1
  8 10  1  0
  8  6  1  0
  9  8  2  0
 11 10  1  0
 11 12  1  1
 12 13  1  0
 14 15  2  0
 14 11  1  0
 17 18  1  0
 17 16  1  0
 18 20  1  0
 18 19  1  1
 20 21  1  1
 20 22  1  0
 21 14  1  0
 22 24  1  0
 23 22  2  0
M  END
$$$$
