QCI.pdb
     RDKit          3D

 24 23  0  0  1  0  0  0  0  0999 V2000
    8.5740  -16.3575   15.7924 N   0  0  0  0  0  0  0  0  0  0  0  0
    8.9298  -17.3416   16.7413 C   0  0  0  0  0  0  0  0  0  0  0  0
   10.1119  -17.5061   17.0847 O   0  0  0  0  0  0  0  0  0  0  0  0
    7.8793  -18.2212   17.3640 C   0  0  0  0  0  0  0  0  0  0  0  0
    7.4027  -17.6273   18.6541 C   0  0  0  0  0  0  0  0  0  0  0  0
    8.4570  -17.5062   19.7192 C   0  0  2  0  0  0  0  0  0  0  0  0
    9.0871  -18.8403   19.7950 N   0  0  0  0  0  0  0  0  0  0  0  0
    7.8214  -17.1899   21.0171 C   0  0  0  0  0  0  0  0  0  0  0  0
    7.1654  -16.0984   21.0948 O   0  0  0  0  0  0  0  0  0  0  0  0
    7.8732  -17.9855   22.1686 N   0  0  0  0  0  0  0  0  0  0  0  0
    7.2063  -17.5523   23.3776 C   0  0  1  0  0  0  0  0  0  0  0  0
    6.9609  -18.7807   24.2445 C   0  0  0  0  0  0  0  0  0  0  0  0
    6.1472  -18.2149   25.7749 S   0  0  0  0  0  0  0  0  0  0  0  0
    8.0778  -16.6302   24.1098 C   0  0  0  0  0  0  0  0  0  0  0  0
    9.3301  -16.7269   24.0516 O   0  0  0  0  0  0  0  0  0  0  0  0
    5.8584  -11.8378   25.6198 C   0  0  0  0  0  0  0  0  0  0  0  0
    6.8570  -12.8102   25.0766 C   0  0  0  0  0  0  0  0  0  0  0  0
    7.5495  -13.5500   26.2128 C   0  0  2  0  0  0  0  0  0  0  0  0
    8.5096  -12.6264   26.9228 C   0  0  0  0  0  0  0  0  0  0  0  0
    8.3212  -14.7186   25.6400 C   0  0  2  0  0  0  0  0  0  0  0  0
    7.4625  -15.6088   24.8989 N   0  0  0  0  0  0  0  0  0  0  0  0
    9.0032  -15.4575   26.7452 C   0  0  0  0  0  0  0  0  0  0  0  0
    8.3994  -16.3020   27.4399 O   0  0  0  0  0  0  0  0  0  0  0  0
   10.3282  -15.2006   27.0028 O   0  0  0  0  0  0  0  0  0  0  0  0
  2  1  1  0
  2  4  1  0
  3  2  2  0
  5  6  1  0
  5  4  1  0
  6  7  1  1
  8 10  1  0
  8  6  1  0
  9  8  2  0
 11 10  1  0
 11 12  1  1
 12 13  1  0
 14 15  2  0
 14 11  1  0
 17 18  1  0
 17 16  1  0
 18 20  1  0
 18 19  1  6
 20 21  1  1
 20 22  1  0
 21 14  1  0
 22 24  1  0
 23 22  2  0
M  END
$$$$
