QCI.pdb
     RDKit          3D

 24 23  0  0  1  0  0  0  0  0999 V2000
    8.7201  -12.7853   16.9836 N   0  0  0  0  0  0  0  0  0  0  0  0
    8.6004  -14.1365   17.3783 C   0  0  0  0  0  0  0  0  0  0  0  0
    9.3923  -14.9995   16.9656 O   0  0  0  0  0  0  0  0  0  0  0  0
    7.5036  -14.5671   18.3145 C   0  0  0  0  0  0  0  0  0  0  0  0
    7.7585  -14.0363   19.6921 C   0  0  0  0  0  0  0  0  0  0  0  0
    8.4604  -14.9928   20.6156 C   0  0  2  0  0  0  0  0  0  0  0  0
    7.7689  -16.2857   20.4341 N   0  0  0  0  0  0  0  0  0  0  0  0
    8.2997  -14.5434   22.0159 C   0  0  0  0  0  0  0  0  0  0  0  0
    8.8232  -13.4240   22.3331 O   0  0  0  0  0  0  0  0  0  0  0  0
    7.6196  -15.2373   23.0247 N   0  0  0  0  0  0  0  0  0  0  0  0
    7.6790  -14.7676   24.3920 C   0  0  1  0  0  0  0  0  0  0  0  0
    6.5723  -15.4617   25.1757 C   0  0  0  0  0  0  0  0  0  0  0  0
    6.0274  -14.3141   26.4836 S   0  0  0  0  0  0  0  0  0  0  0  0
    8.9695  -15.1385   24.9778 C   0  0  0  0  0  0  0  0  0  0  0  0
   10.0396  -14.5957   24.6020 O   0  0  0  0  0  0  0  0  0  0  0  0
    9.4117  -12.8246   28.5346 C   0  0  0  0  0  0  0  0  0  0  0  0
   10.0537  -13.7843   27.5834 C   0  0  0  0  0  0  0  0  0  0  0  0
    9.8764  -15.2150   28.0727 C   0  0  2  0  0  0  0  0  0  0  0  0
   10.8845  -15.5212   29.1538 C   0  0  0  0  0  0  0  0  0  0  0  0
   10.0940  -16.1616   26.9126 C   0  0  2  0  0  0  0  0  0  0  0  0
    8.9809  -16.1420   25.9963 N   0  0  0  0  0  0  0  0  0  0  0  0
   10.3138  -17.5457   27.4310 C   0  0  0  0  0  0  0  0  0  0  0  0
   11.4530  -17.9595   27.7335 O   0  0  0  0  0  0  0  0  0  0  0  0
    9.2347  -18.3834   27.5780 O   0  0  0  0  0  0  0  0  0  0  0  0
  2  1  1  0
  2  4  1  0
  3  2  2  0
  5  6  1  0
  5  4  1  0
  6  7  1  1
  8 10  1  0
  8  6  1  0
  9  8  2  0
 11 10  1  0
 11 12  1  1
 12 13  1  0
 14 15  2  0
 14 11  1  0
 17 18  1  0
 17 16  1  0
 18 20  1  0
 18 19  1  1
 20 21  1  6
 20 22  1  0
 21 14  1  0
 22 24  1  0
 23 22  2  0
M  END
$$$$
