QCI.pdb
     RDKit          3D

 24 23  0  0  1  0  0  0  0  0999 V2000
    5.4700  -19.2361   17.0425 N   0  0  0  0  0  0  0  0  0  0  0  0
    6.8338  -19.2209   16.6744 C   0  0  0  0  0  0  0  0  0  0  0  0
    7.2424  -19.8645   15.6941 O   0  0  0  0  0  0  0  0  0  0  0  0
    7.8323  -18.4197   17.4657 C   0  0  0  0  0  0  0  0  0  0  0  0
    7.1532  -17.7228   18.6047 C   0  0  0  0  0  0  0  0  0  0  0  0
    8.0537  -16.8538   19.4382 C   0  0  2  0  0  0  0  0  0  0  0  0
    9.3150  -17.6122   19.5664 N   0  0  0  0  0  0  0  0  0  0  0  0
    7.4595  -16.6606   20.7791 C   0  0  0  0  0  0  0  0  0  0  0  0
    6.3173  -16.0948   20.8352 O   0  0  0  0  0  0  0  0  0  0  0  0
    8.0390  -17.0476   21.9940 N   0  0  0  0  0  0  0  0  0  0  0  0
    7.3408  -16.8053   23.2381 C   0  0  1  0  0  0  0  0  0  0  0  0
    7.1599  -18.1433   23.9436 C   0  0  0  0  0  0  0  0  0  0  0  0
    8.8218  -18.7824   24.3362 S   0  0  0  0  0  0  0  0  0  0  0  0
    8.1538  -15.9340   24.0901 C   0  0  0  0  0  0  0  0  0  0  0  0
    9.3634  -15.7084   23.8314 O   0  0  0  0  0  0  0  0  0  0  0  0
    5.8133  -11.7540   26.6466 C   0  0  0  0  0  0  0  0  0  0  0  0
    6.7856  -12.6242   25.9151 C   0  0  0  0  0  0  0  0  0  0  0  0
    7.5110  -13.5437   26.8879 C   0  0  2  0  0  0  0  0  0  0  0  0
    8.4170  -12.7363   27.7858 C   0  0  0  0  0  0  0  0  0  0  0  0
    8.3467  -14.5298   26.1016 C   0  0  2  0  0  0  0  0  0  0  0  0
    7.5311  -15.3419   25.2330 N   0  0  0  0  0  0  0  0  0  0  0  0
    9.1191  -15.3943   27.0444 C   0  0  0  0  0  0  0  0  0  0  0  0
    8.6725  -16.4900   27.4450 O   0  0  0  0  0  0  0  0  0  0  0  0
   10.3516  -14.9721   27.4808 O   0  0  0  0  0  0  0  0  0  0  0  0
  2  1  1  0
  2  4  1  0
  3  2  2  0
  5  6  1  0
  5  4  1  0
  6  7  1  1
  8 10  1  0
  8  6  1  0
  9  8  2  0
 11 10  1  0
 11 12  1  1
 12 13  1  0
 14 15  2  0
 14 11  1  0
 17 18  1  0
 17 16  1  0
 18 20  1  0
 18 19  1  1
 20 21  1  1
 20 22  1  0
 21 14  1  0
 22 24  1  0
 23 22  2  0
M  END
$$$$
