QCI.pdb
     RDKit          3D

 24 23  0  0  1  0  0  0  0  0999 V2000
   11.0678  -13.6707   20.1323 N   0  0  0  0  0  0  0  0  0  0  0  0
   10.5449  -13.4236   18.8434 C   0  0  0  0  0  0  0  0  0  0  0  0
   11.2397  -13.5819   17.8264 O   0  0  0  0  0  0  0  0  0  0  0  0
    9.1239  -12.9593   18.6689 C   0  0  0  0  0  0  0  0  0  0  0  0
    8.2546  -13.5314   19.7465 C   0  0  0  0  0  0  0  0  0  0  0  0
    8.0719  -15.0224   19.6832 C   0  0  2  0  0  0  0  0  0  0  0  0
    7.1259  -15.2506   18.5716 N   0  0  0  0  0  0  0  0  0  0  0  0
    7.4707  -15.5057   20.9456 C   0  0  0  0  0  0  0  0  0  0  0  0
    6.2311  -15.2668   21.1304 O   0  0  0  0  0  0  0  0  0  0  0  0
    8.1419  -16.2065   21.9555 N   0  0  0  0  0  0  0  0  0  0  0  0
    7.4914  -16.4440   23.2261 C   0  0  1  0  0  0  0  0  0  0  0  0
    7.4184  -17.9501   23.4421 C   0  0  0  0  0  0  0  0  0  0  0  0
    6.6911  -18.2306   25.0905 S   0  0  0  0  0  0  0  0  0  0  0  0
    8.2947  -15.8561   24.3009 C   0  0  0  0  0  0  0  0  0  0  0  0
    9.5482  -15.9532   24.3099 O   0  0  0  0  0  0  0  0  0  0  0  0
    5.9838  -11.5752   26.7085 C   0  0  0  0  0  0  0  0  0  0  0  0
    6.9478  -12.5021   26.0380 C   0  0  0  0  0  0  0  0  0  0  0  0
    7.5998  -13.4210   27.0619 C   0  0  2  0  0  0  0  0  0  0  0  0
    8.5206  -12.6278   27.9573 C   0  0  0  0  0  0  0  0  0  0  0  0
    8.4061  -14.4742   26.3338 C   0  0  2  0  0  0  0  0  0  0  0  0
    7.6107  -15.1633   25.3481 N   0  0  0  0  0  0  0  0  0  0  0  0
    8.9650  -15.4470   27.3207 C   0  0  0  0  0  0  0  0  0  0  0  0
    8.3474  -16.4845   27.6408 O   0  0  0  0  0  0  0  0  0  0  0  0
   10.1895  -15.1925   27.8896 O   0  0  0  0  0  0  0  0  0  0  0  0
  2  1  1  0
  2  4  1  0
  3  2  2  0
  5  6  1  0
  5  4  1  0
  6  7  1  6
  8 10  1  0
  8  6  1  0
  9  8  2  0
 11 10  1  0
 11 12  1  1
 12 13  1  0
 14 15  2  0
 14 11  1  0
 17 18  1  0
 17 16  1  0
 18 20  1  0
 18 19  1  1
 20 21  1  6
 20 22  1  0
 21 14  1  0
 22 24  1  0
 23 22  2  0
M  END
$$$$
