QCI.pdb
     RDKit          3D

 24 23  0  0  1  0  0  0  0  0999 V2000
   12.3125  -16.5904   18.1225 N   0  0  0  0  0  0  0  0  0  0  0  0
   12.9290  -17.7844   18.5583 C   0  0  0  0  0  0  0  0  0  0  0  0
   13.7438  -18.3867   17.8402 O   0  0  0  0  0  0  0  0  0  0  0  0
   12.6122  -18.3606   19.9121 C   0  0  0  0  0  0  0  0  0  0  0  0
   11.6260  -17.4902   20.6291 C   0  0  0  0  0  0  0  0  0  0  0  0
   10.2708  -18.1090   20.8321 C   0  0  2  0  0  0  0  0  0  0  0  0
    9.4953  -17.7490   19.6272 N   0  0  0  0  0  0  0  0  0  0  0  0
    9.6257  -17.5177   22.0249 C   0  0  0  0  0  0  0  0  0  0  0  0
    9.4312  -16.2568   22.0183 O   0  0  0  0  0  0  0  0  0  0  0  0
    9.2057  -18.2211   23.1609 N   0  0  0  0  0  0  0  0  0  0  0  0
    8.4574  -17.5419   24.1966 C   0  0  1  0  0  0  0  0  0  0  0  0
    7.4317  -18.5207   24.7537 C   0  0  0  0  0  0  0  0  0  0  0  0
    6.3945  -17.6067   25.9426 S   0  0  0  0  0  0  0  0  0  0  0  0
    9.3666  -17.1524   25.2772 C   0  0  0  0  0  0  0  0  0  0  0  0
   10.4320  -17.7832   25.4962 O   0  0  0  0  0  0  0  0  0  0  0  0
    8.4099  -12.1755   27.4931 C   0  0  0  0  0  0  0  0  0  0  0  0
    9.0792  -13.3418   26.8376 C   0  0  0  0  0  0  0  0  0  0  0  0
    9.4152  -14.4096   27.8695 C   0  0  2  0  0  0  0  0  0  0  0  0
   10.5053  -13.9157   28.7896 C   0  0  0  0  0  0  0  0  0  0  0  0
    9.8994  -15.6508   27.1523 C   0  0  2  0  0  0  0  0  0  0  0  0
    9.0082  -16.0270   26.0831 N   0  0  0  0  0  0  0  0  0  0  0  0
   10.0372  -16.7719   28.1305 C   0  0  0  0  0  0  0  0  0  0  0  0
    9.0614  -17.4791   28.4591 O   0  0  0  0  0  0  0  0  0  0  0  0
   11.2689  -17.0302   28.6816 O   0  0  0  0  0  0  0  0  0  0  0  0
  2  1  1  0
  2  4  1  0
  3  2  2  0
  5  6  1  0
  5  4  1  0
  6  7  1  6
  8 10  1  0
  8  6  1  0
  9  8  2  0
 11 10  1  0
 11 12  1  1
 12 13  1  0
 14 15  2  0
 14 11  1  0
 17 18  1  0
 17 16  1  0
 18 20  1  0
 18 19  1  1
 20 21  1  6
 20 22  1  0
 21 14  1  0
 22 24  1  0
 23 22  2  0
M  END
$$$$
