QCI.pdb
     RDKit          3D

 24 23  0  0  1  0  0  0  0  0999 V2000
    7.4230  -15.2655   16.5463 N   0  0  0  0  0  0  0  0  0  0  0  0
    8.1527  -14.0574   16.4845 C   0  0  0  0  0  0  0  0  0  0  0  0
    8.9420  -13.8298   15.5532 O   0  0  0  0  0  0  0  0  0  0  0  0
    7.9912  -13.0091   17.5522 C   0  0  0  0  0  0  0  0  0  0  0  0
    7.4533  -13.6249   18.8075 C   0  0  0  0  0  0  0  0  0  0  0  0
    8.5004  -14.0531   19.7978 C   0  0  2  0  0  0  0  0  0  0  0  0
    9.2274  -15.1585   19.1405 N   0  0  0  0  0  0  0  0  0  0  0  0
    7.8489  -14.5572   21.0266 C   0  0  0  0  0  0  0  0  0  0  0  0
    7.2004  -13.7141   21.7311 O   0  0  0  0  0  0  0  0  0  0  0  0
    7.8780  -15.8808   21.4837 N   0  0  0  0  0  0  0  0  0  0  0  0
    7.2458  -16.2267   22.7385 C   0  0  1  0  0  0  0  0  0  0  0  0
    7.2026  -17.7461   22.8396 C   0  0  0  0  0  0  0  0  0  0  0  0
    6.4192  -18.1652   24.4318 S   0  0  0  0  0  0  0  0  0  0  0  0
    8.0500  -15.7074   23.8474 C   0  0  0  0  0  0  0  0  0  0  0  0
    9.3040  -15.6502   23.7766 O   0  0  0  0  0  0  0  0  0  0  0  0
    5.6525  -11.9550   26.7968 C   0  0  0  0  0  0  0  0  0  0  0  0
    6.7557  -12.6655   26.0785 C   0  0  0  0  0  0  0  0  0  0  0  0
    7.3359  -13.7673   26.9544 C   0  0  2  0  0  0  0  0  0  0  0  0
    8.2275  -13.1696   28.0158 C   0  0  0  0  0  0  0  0  0  0  0  0
    8.1547  -14.7016   26.0907 C   0  0  2  0  0  0  0  0  0  0  0  0
    7.3663  -15.2634   25.0221 N   0  0  0  0  0  0  0  0  0  0  0  0
    8.7300  -15.7901   26.9375 C   0  0  0  0  0  0  0  0  0  0  0  0
    8.1249  -16.8675   27.1209 O   0  0  0  0  0  0  0  0  0  0  0  0
    9.9556  -15.5998   27.5286 O   0  0  0  0  0  0  0  0  0  0  0  0
  2  1  1  0
  2  4  1  0
  3  2  2  0
  5  6  1  0
  5  4  1  0
  6  7  1  6
  8 10  1  0
  8  6  1  0
  9  8  2  0
 11 10  1  0
 11 12  1  1
 12 13  1  0
 14 15  2  0
 14 11  1  0
 17 18  1  0
 17 16  1  0
 18 20  1  0
 18 19  1  1
 20 21  1  6
 20 22  1  0
 21 14  1  0
 22 24  1  0
 23 22  2  0
M  END
$$$$
