TVK.pdb
     RDKit          3D

 24 23  0  0  1  0  0  0  0  0999 V2000
   18.8071  -13.3192  -16.9193 C   0  0  0  0  0  0  0  0  0  0  0  0
   19.8935  -14.3422  -16.9964 C   0  0  1  0  0  0  0  0  0  0  0  0
   19.4150  -15.6123  -17.3212 O   0  0  0  0  0  0  0  0  0  0  0  0
   20.9514  -13.9911  -18.0260 C   0  0  2  0  0  0  0  0  0  0  0  0
   21.9464  -15.0333  -18.1040 N   0  0  0  0  0  0  0  0  0  0  0  0
   21.5386  -12.6882  -17.6185 C   0  0  0  0  0  0  0  0  0  0  0  0
   22.3902  -12.7047  -16.6959 O   0  0  0  0  0  0  0  0  0  0  0  0
   22.9392  -10.0947  -20.0587 C   0  0  0  0  0  0  0  0  0  0  0  0
   21.9679   -9.4565  -19.1398 C   0  0  2  0  0  0  0  0  0  0  0  0
   22.3382   -8.0072  -18.8991 C   0  0  0  0  0  0  0  0  0  0  0  0
   21.7765  -10.1643  -17.8127 C   0  0  2  0  0  0  0  0  0  0  0  0
   21.1991  -11.4636  -18.1980 N   0  0  0  0  0  0  0  0  0  0  0  0
   20.8447   -9.4140  -16.9822 C   0  0  0  0  0  0  0  0  0  0  0  0
   19.6017   -9.4211  -17.2798 O   0  0  0  0  0  0  0  0  0  0  0  0
   21.2352   -8.6753  -15.8546 N   0  0  0  0  0  0  0  0  0  0  0  0
   20.2623   -8.0672  -14.9290 C   0  0  1  0  0  0  0  0  0  0  0  0
   19.2753   -9.0978  -14.5186 C   0  0  0  0  0  0  0  0  0  0  0  0
   18.2771   -8.7134  -13.4872 C   0  0  0  0  0  0  0  0  0  0  0  0
   17.3460   -9.7792  -13.0236 C   0  0  0  0  0  0  0  0  0  0  0  0
   16.4857   -9.1579  -11.9165 C   0  0  0  0  0  0  0  0  0  0  0  0
   17.1305   -9.3358  -10.6349 N   0  0  0  0  0  0  0  0  0  0  0  0
   20.9062   -7.3157  -13.8465 C   0  0  0  0  0  0  0  0  0  0  0  0
   22.0383   -7.5956  -13.4069 O   0  0  0  0  0  0  0  0  0  0  0  0
   20.2264   -6.2470  -13.2873 O   0  0  0  0  0  0  0  0  0  0  0  0
  2  1  1  6
  3  2  1  0
  4  2  1  0
  4  5  1  1
  6  4  1  0
  7  6  2  0
  9  8  1  1
  9 11  1  0
 10  9  1  0
 11 12  1  6
 12  6  1  0
 13 11  1  0
 13 15  1  0
 14 13  2  0
 16 17  1  1
 16 15  1  0
 16 22  1  0
 18 17  1  0
 19 18  1  0
 20 21  1  0
 20 19  1  0
 22 24  1  0
 23 22  2  0
M  END
$$$$
