TVK.pdb
     RDKit          3D

 24 23  0  0  1  0  0  0  0  0999 V2000
   22.4228  -12.6545  -19.9644 C   0  0  0  0  0  0  0  0  0  0  0  0
   22.3231  -14.0469  -19.4313 C   0  0  1  0  0  0  0  0  0  0  0  0
   22.1670  -14.9994  -20.4392 O   0  0  0  0  0  0  0  0  0  0  0  0
   23.5443  -14.4505  -18.6261 C   0  0  2  0  0  0  0  0  0  0  0  0
   23.4166  -15.8107  -18.1618 N   0  0  0  0  0  0  0  0  0  0  0  0
   23.6616  -13.4857  -17.5019 C   0  0  0  0  0  0  0  0  0  0  0  0
   22.9475  -13.6922  -16.4900 O   0  0  0  0  0  0  0  0  0  0  0  0
   26.9484  -12.2504  -15.9724 C   0  0  0  0  0  0  0  0  0  0  0  0
   26.0981  -11.0969  -16.3483 C   0  0  2  0  0  0  0  0  0  0  0  0
   26.3451   -9.9289  -15.4154 C   0  0  0  0  0  0  0  0  0  0  0  0
   24.6121  -11.3893  -16.4219 C   0  0  2  0  0  0  0  0  0  0  0  0
   24.5112  -12.3772  -17.5101 N   0  0  0  0  0  0  0  0  0  0  0  0
   23.8854  -10.1741  -16.7623 C   0  0  0  0  0  0  0  0  0  0  0  0
   24.1932   -9.5440  -17.8308 O   0  0  0  0  0  0  0  0  0  0  0  0
   22.8483   -9.6472  -15.9770 N   0  0  0  0  0  0  0  0  0  0  0  0
   22.1514   -8.3945  -16.3207 C   0  0  1  0  0  0  0  0  0  0  0  0
   20.7492   -8.7078  -16.6954 C   0  0  0  0  0  0  0  0  0  0  0  0
   20.5366   -9.5271  -17.9167 C   0  0  0  0  0  0  0  0  0  0  0  0
   19.1251   -9.7973  -18.3068 C   0  0  0  0  0  0  0  0  0  0  0  0
   19.1778  -10.7299  -19.5231 C   0  0  0  0  0  0  0  0  0  0  0  0
   17.8501  -10.9013  -20.0688 N   0  0  0  0  0  0  0  0  0  0  0  0
   22.3362   -7.3494  -15.3084 C   0  0  0  0  0  0  0  0  0  0  0  0
   22.7358   -7.5884  -14.1523 O   0  0  0  0  0  0  0  0  0  0  0  0
   22.0543   -6.0381  -15.6516 O   0  0  0  0  0  0  0  0  0  0  0  0
  2  1  1  6
  3  2  1  0
  4  2  1  0
  4  5  1  1
  6  4  1  0
  7  6  2  0
  9  8  1  1
  9 11  1  0
 10  9  1  0
 11 12  1  6
 12  6  1  0
 13 11  1  0
 13 15  1  0
 14 13  2  0
 16 17  1  1
 16 15  1  0
 16 22  1  0
 18 17  1  0
 19 18  1  0
 20 21  1  0
 20 19  1  0
 22 24  1  0
 23 22  2  0
M  END
$$$$
