TVK.pdb
     RDKit          3D

 24 23  0  0  1  0  0  0  0  0999 V2000
   18.2539   -9.9132  -17.8053 C   0  0  0  0  0  0  0  0  0  0  0  0
   18.1112  -11.3616  -17.4670 C   0  0  1  0  0  0  0  0  0  0  0  0
   17.5298  -12.1006  -18.4981 O   0  0  0  0  0  0  0  0  0  0  0  0
   19.4414  -12.0182  -17.1474 C   0  0  2  0  0  0  0  0  0  0  0  0
   19.2587  -13.4232  -16.8740 N   0  0  0  0  0  0  0  0  0  0  0  0
   20.0153  -11.2932  -15.9840 C   0  0  0  0  0  0  0  0  0  0  0  0
   19.3984  -11.3763  -14.8934 O   0  0  0  0  0  0  0  0  0  0  0  0
   23.9672  -10.0493  -16.0491 C   0  0  0  0  0  0  0  0  0  0  0  0
   23.1633  -10.2088  -14.8148 C   0  0  2  0  0  0  0  0  0  0  0  0
   23.2024  -11.6464  -14.3380 C   0  0  0  0  0  0  0  0  0  0  0  0
   21.7246   -9.7416  -14.9186 C   0  0  2  0  0  0  0  0  0  0  0  0
   21.1870  -10.5351  -16.0373 N   0  0  0  0  0  0  0  0  0  0  0  0
   21.6880   -8.3200  -15.2328 C   0  0  0  0  0  0  0  0  0  0  0  0
   21.8575   -7.9460  -16.4431 O   0  0  0  0  0  0  0  0  0  0  0  0
   21.4702   -7.3206  -14.2717 N   0  0  0  0  0  0  0  0  0  0  0  0
   21.4383   -5.8867  -14.6120 C   0  0  1  0  0  0  0  0  0  0  0  0
   20.0245   -5.4497  -14.7346 C   0  0  0  0  0  0  0  0  0  0  0  0
   19.7787   -4.0270  -15.0862 C   0  0  0  0  0  0  0  0  0  0  0  0
   18.3583   -3.6130  -15.2558 C   0  0  0  0  0  0  0  0  0  0  0  0
   18.3773   -2.1253  -15.6280 C   0  0  0  0  0  0  0  0  0  0  0  0
   17.0243   -1.6399  -15.7819 N   0  0  0  0  0  0  0  0  0  0  0  0
   22.2951   -5.0795  -13.7372 C   0  0  0  0  0  0  0  0  0  0  0  0
   22.5803   -5.4142  -12.5711 O   0  0  0  0  0  0  0  0  0  0  0  0
   22.8106   -3.8920  -14.2281 O   0  0  0  0  0  0  0  0  0  0  0  0
  2  1  1  6
  3  2  1  0
  4  2  1  0
  4  5  1  1
  6  4  1  0
  7  6  2  0
  9  8  1  6
  9 11  1  0
 10  9  1  0
 11 12  1  6
 12  6  1  0
 13 11  1  0
 13 15  1  0
 14 13  2  0
 16 17  1  1
 16 15  1  0
 16 22  1  0
 18 17  1  0
 19 18  1  0
 20 21  1  0
 20 19  1  0
 22 24  1  0
 23 22  2  0
M  END
$$$$
