TVK.pdb
     RDKit          3D

 24 23  0  0  1  0  0  0  0  0999 V2000
   26.1846  -18.9597  -15.8301 C   0  0  0  0  0  0  0  0  0  0  0  0
   26.9233  -20.1710  -16.2988 C   0  0  1  0  0  0  0  0  0  0  0  0
   27.9321  -19.8661  -17.2136 O   0  0  0  0  0  0  0  0  0  0  0  0
   27.5746  -20.9325  -15.1592 C   0  0  2  0  0  0  0  0  0  0  0  0
   28.3315  -22.0514  -15.6664 N   0  0  0  0  0  0  0  0  0  0  0  0
   26.4845  -21.3640  -14.2461 C   0  0  0  0  0  0  0  0  0  0  0  0
   25.8351  -22.3889  -14.5698 O   0  0  0  0  0  0  0  0  0  0  0  0
   26.7439  -21.0685  -10.2652 C   0  0  0  0  0  0  0  0  0  0  0  0
   25.4837  -20.5220  -10.8205 C   0  0  2  0  0  0  0  0  0  0  0  0
   24.3561  -20.6653   -9.8187 C   0  0  0  0  0  0  0  0  0  0  0  0
   25.0618  -21.1054  -12.1548 C   0  0  2  0  0  0  0  0  0  0  0  0
   26.1478  -20.7007  -13.0641 N   0  0  0  0  0  0  0  0  0  0  0  0
   23.7961  -20.5187  -12.5729 C   0  0  0  0  0  0  0  0  0  0  0  0
   23.7042  -19.2483  -12.6779 O   0  0  0  0  0  0  0  0  0  0  0  0
   22.6545  -21.2768  -12.8760 N   0  0  0  0  0  0  0  0  0  0  0  0
   21.3814  -20.6612  -13.2920 C   0  0  1  0  0  0  0  0  0  0  0  0
   20.6736  -21.5875  -14.2116 C   0  0  0  0  0  0  0  0  0  0  0  0
   19.3099  -21.1980  -14.6553 C   0  0  0  0  0  0  0  0  0  0  0  0
   18.6021  -22.1453  -15.5604 C   0  0  0  0  0  0  0  0  0  0  0  0
   17.2427  -21.5117  -15.8809 C   0  0  0  0  0  0  0  0  0  0  0  0
   16.4465  -22.4277  -16.6662 N   0  0  0  0  0  0  0  0  0  0  0  0
   20.6040  -20.1504  -12.1580 C   0  0  0  0  0  0  0  0  0  0  0  0
   20.4944  -20.7651  -11.0794 O   0  0  0  0  0  0  0  0  0  0  0  0
   19.9628  -18.9306  -12.2909 O   0  0  0  0  0  0  0  0  0  0  0  0
  2  1  1  1
  3  2  1  0
  4  2  1  0
  4  5  1  6
  6  4  1  0
  7  6  2  0
  9  8  1  1
  9 11  1  0
 10  9  1  0
 11 12  1  6
 12  6  1  0
 13 11  1  0
 13 15  1  0
 14 13  2  0
 16 17  1  1
 16 15  1  0
 16 22  1  0
 18 17  1  0
 19 18  1  0
 20 21  1  0
 20 19  1  0
 22 24  1  0
 23 22  2  0
M  END
$$$$
