TVK.pdb
     RDKit          3D

 24 23  0  0  1  0  0  0  0  0999 V2000
   22.5187  -21.1583  -10.8546 C   0  0  0  0  0  0  0  0  0  0  0  0
   23.6237  -20.5611  -10.0452 C   0  0  1  0  0  0  0  0  0  0  0  0
   23.5930  -20.9663   -8.7102 O   0  0  0  0  0  0  0  0  0  0  0  0
   24.9970  -20.9161  -10.5842 C   0  0  2  0  0  0  0  0  0  0  0  0
   26.0290  -20.3220   -9.7691 N   0  0  0  0  0  0  0  0  0  0  0  0
   25.0498  -20.4356  -11.9894 C   0  0  0  0  0  0  0  0  0  0  0  0
   25.1873  -19.2006  -12.1700 O   0  0  0  0  0  0  0  0  0  0  0  0
   27.3020  -21.4987  -14.6124 C   0  0  0  0  0  0  0  0  0  0  0  0
   25.9482  -21.6054  -15.2045 C   0  0  2  0  0  0  0  0  0  0  0  0
   25.9809  -21.2375  -16.6739 C   0  0  0  0  0  0  0  0  0  0  0  0
   24.8718  -20.8040  -14.4987 C   0  0  2  0  0  0  0  0  0  0  0  0
   24.9560  -21.2715  -13.1043 N   0  0  0  0  0  0  0  0  0  0  0  0
   23.5686  -21.1178  -15.0680 C   0  0  0  0  0  0  0  0  0  0  0  0
   22.8637  -22.0417  -14.5361 O   0  0  0  0  0  0  0  0  0  0  0  0
   23.0300  -20.4532  -16.1807 N   0  0  0  0  0  0  0  0  0  0  0  0
   21.5801  -20.2609  -16.3642 C   0  0  1  0  0  0  0  0  0  0  0  0
   21.0332  -19.5468  -15.1828 C   0  0  0  0  0  0  0  0  0  0  0  0
   19.5559  -19.4164  -15.0885 C   0  0  0  0  0  0  0  0  0  0  0  0
   18.9550  -18.1714  -15.6419 C   0  0  0  0  0  0  0  0  0  0  0  0
   17.4462  -18.2604  -15.3822 C   0  0  0  0  0  0  0  0  0  0  0  0
   16.8382  -16.9619  -15.5670 N   0  0  0  0  0  0  0  0  0  0  0  0
   21.2468  -19.6973  -17.6766 C   0  0  0  0  0  0  0  0  0  0  0  0
   21.8482  -18.7230  -18.1686 O   0  0  0  0  0  0  0  0  0  0  0  0
   20.2178  -20.2731  -18.4022 O   0  0  0  0  0  0  0  0  0  0  0  0
  2  1  1  6
  3  2  1  0
  4  2  1  0
  4  5  1  1
  6  4  1  0
  7  6  2  0
  9  8  1  1
  9 11  1  0
 10  9  1  0
 11 12  1  1
 12  6  1  0
 13 11  1  0
 13 15  1  0
 14 13  2  0
 16 17  1  1
 16 15  1  0
 16 22  1  0
 18 17  1  0
 19 18  1  0
 20 21  1  0
 20 19  1  0
 22 24  1  0
 23 22  2  0
M  END
$$$$
