TVK.pdb
     RDKit          3D

 24 23  0  0  1  0  0  0  0  0999 V2000
   26.2411  -26.7432  -18.2865 C   0  0  0  0  0  0  0  0  0  0  0  0
   25.8347  -25.6051  -17.4078 C   0  0  1  0  0  0  0  0  0  0  0  0
   25.1826  -26.0264  -16.2482 O   0  0  0  0  0  0  0  0  0  0  0  0
   27.0151  -24.7584  -16.9691 C   0  0  2  0  0  0  0  0  0  0  0  0
   27.9491  -25.5504  -16.2057 N   0  0  0  0  0  0  0  0  0  0  0  0
   26.4672  -23.6256  -16.1787 C   0  0  0  0  0  0  0  0  0  0  0  0
   26.5989  -23.6781  -14.9310 O   0  0  0  0  0  0  0  0  0  0  0  0
   27.1420  -19.9564  -17.0610 C   0  0  0  0  0  0  0  0  0  0  0  0
   25.6905  -20.1818  -16.8677 C   0  0  2  0  0  0  0  0  0  0  0  0
   25.0229  -18.9255  -16.3465 C   0  0  0  0  0  0  0  0  0  0  0  0
   25.3343  -21.3581  -15.9799 C   0  0  2  0  0  0  0  0  0  0  0  0
   25.8228  -22.5212  -16.7406 N   0  0  0  0  0  0  0  0  0  0  0  0
   23.8899  -21.4273  -15.8068 C   0  0  0  0  0  0  0  0  0  0  0  0
   23.1484  -21.6043  -16.8327 O   0  0  0  0  0  0  0  0  0  0  0  0
   23.2536  -21.3134  -14.5610 N   0  0  0  0  0  0  0  0  0  0  0  0
   21.7865  -21.3002  -14.4182 C   0  0  1  0  0  0  0  0  0  0  0  0
   21.3786  -22.4023  -13.5107 C   0  0  0  0  0  0  0  0  0  0  0  0
   19.9219  -22.6397  -13.3382 C   0  0  0  0  0  0  0  0  0  0  0  0
   19.5250  -23.7282  -12.4026 C   0  0  0  0  0  0  0  0  0  0  0  0
   18.0002  -23.8578  -12.5032 C   0  0  0  0  0  0  0  0  0  0  0  0
   17.5344  -24.8899  -11.6046 N   0  0  0  0  0  0  0  0  0  0  0  0
   21.2621  -19.9679  -14.1002 C   0  0  0  0  0  0  0  0  0  0  0  0
   21.8305  -19.1854  -13.3143 O   0  0  0  0  0  0  0  0  0  0  0  0
   20.0826  -19.5605  -14.6998 O   0  0  0  0  0  0  0  0  0  0  0  0
  2  1  1  1
  3  2  1  0
  4  2  1  0
  4  5  1  1
  6  4  1  0
  7  6  2  0
  9  8  1  1
  9 11  1  0
 10  9  1  0
 11 12  1  6
 12  6  1  0
 13 11  1  0
 13 15  1  0
 14 13  2  0
 16 17  1  1
 16 15  1  0
 16 22  1  0
 18 17  1  0
 19 18  1  0
 20 21  1  0
 20 19  1  0
 22 24  1  0
 23 22  2  0
M  END
$$$$
