CAH.pdb
     RDKit          3D

 22 22  0  0  1  0  0  0  0  0999 V2000
   40.0734   -9.9940   -6.5892 N   0  0  0  0  0  0  0  0  0  0  0  0
   40.1766   -9.6353   -7.9909 C   0  0  1  0  0  0  0  0  0  0  0  0
   38.8930  -10.0161   -8.6730 C   0  0  0  0  0  0  0  0  0  0  0  0
   38.6490  -11.7990   -8.7221 S   0  0  0  0  0  0  0  0  0  0  0  0
   40.3873   -8.1815   -8.1056 C   0  0  0  0  0  0  0  0  0  0  0  0
   39.7021   -7.4017   -7.3626 O   0  0  0  0  0  0  0  0  0  0  0  0
   42.8831   -5.9098   -9.6059 C   0  0  0  0  0  0  0  0  0  0  0  0
   41.4927   -6.2186   -9.0876 C   0  0  2  0  0  0  0  0  0  0  0  0
   41.3268   -7.6293   -9.0155 N   0  0  0  0  0  0  0  0  0  0  0  0
   40.4641   -5.5374   -9.9095 C   0  0  0  0  0  0  0  0  0  0  0  0
   39.8298   -6.2653  -10.7217 O   0  0  0  0  0  0  0  0  0  0  0  0
   40.1938   -4.1504   -9.8043 N   0  0  0  0  0  0  0  0  0  0  0  0
   39.0401   -3.6285  -10.5082 C   0  0  1  0  0  0  0  0  0  0  0  0
   37.7501   -4.0921   -9.8736 C   0  0  0  0  0  0  0  0  0  0  0  0
   36.6160   -3.4544  -10.5730 C   0  0  0  0  0  0  0  0  0  0  0  0
   36.6733   -2.5460  -11.6261 C   0  0  0  0  0  0  0  0  0  0  0  0
   35.4307   -2.1958  -11.9891 N   0  0  0  0  0  0  0  0  0  0  0  0
   34.5789   -2.8536  -11.1990 C   0  0  0  0  0  0  0  0  0  0  0  0
   35.3058   -3.6206  -10.3362 N   0  0  0  0  0  0  0  0  0  0  0  0
   39.1431   -2.1473  -10.4631 C   0  0  0  0  0  0  0  0  0  0  0  0
   38.6011   -1.3632  -11.2702 O   0  0  0  0  0  0  0  0  0  0  0  0
   39.8982   -1.5186   -9.4527 O   0  0  0  0  0  0  0  0  0  0  0  0
  2  1  1  1
  3  2  1  0
  4  3  1  0
  5  9  1  0
  5  2  1  0
  6  5  2  0
  8  7  1  6
  8  9  1  0
  8 10  1  0
 10 12  1  0
 11 10  2  0
 12 13  1  0
 13 20  1  0
 13 14  1  1
 15 14  1  0
 16 15  2  0
 17 16  1  0
 18 17  1  0
 18 19  2  0
 19 15  1  0
 20 22  1  0
 21 20  2  0
M  END
$$$$
