CAH.pdb
     RDKit          3D

 22 22  0  0  1  0  0  0  0  0999 V2000
   26.2254  -21.7946  -10.6812 N   0  0  0  0  0  0  0  0  0  0  0  0
   25.6207  -20.4762  -10.6701 C   0  0  1  0  0  0  0  0  0  0  0  0
   26.3661  -19.6214   -9.6846 C   0  0  0  0  0  0  0  0  0  0  0  0
   26.5254  -20.4147   -8.0764 S   0  0  0  0  0  0  0  0  0  0  0  0
   25.7212  -19.8847  -12.0159 C   0  0  0  0  0  0  0  0  0  0  0  0
   25.2651  -18.7074  -12.2042 O   0  0  0  0  0  0  0  0  0  0  0  0
   27.6687  -20.1001  -15.0097 C   0  0  0  0  0  0  0  0  0  0  0  0
   26.2814  -20.0177  -14.4050 C   0  0  2  0  0  0  0  0  0  0  0  0
   26.3087  -20.5861  -13.1015 N   0  0  0  0  0  0  0  0  0  0  0  0
   25.2798  -20.6368  -15.3056 C   0  0  0  0  0  0  0  0  0  0  0  0
   25.2455  -21.8979  -15.3158 O   0  0  0  0  0  0  0  0  0  0  0  0
   24.4027  -19.8742  -16.1162 N   0  0  0  0  0  0  0  0  0  0  0  0
   22.9874  -20.1775  -16.0565 C   0  0  1  0  0  0  0  0  0  0  0  0
   22.4602  -20.0761  -14.6446 C   0  0  0  0  0  0  0  0  0  0  0  0
   21.0084  -20.3485  -14.6546 C   0  0  0  0  0  0  0  0  0  0  0  0
   20.3800  -21.5888  -14.7188 C   0  0  0  0  0  0  0  0  0  0  0  0
   19.0493  -21.4226  -14.7059 N   0  0  0  0  0  0  0  0  0  0  0  0
   18.8070  -20.1114  -14.6353 C   0  0  0  0  0  0  0  0  0  0  0  0
   20.0048  -19.4592  -14.6042 N   0  0  0  0  0  0  0  0  0  0  0  0
   22.3012  -19.2027  -16.9428 C   0  0  0  0  0  0  0  0  0  0  0  0
   21.3033  -19.4523  -17.6512 O   0  0  0  0  0  0  0  0  0  0  0  0
   22.7670  -17.8756  -17.0337 O   0  0  0  0  0  0  0  0  0  0  0  0
  2  1  1  6
  3  2  1  0
  4  3  1  0
  5  9  1  0
  5  2  1  0
  6  5  2  0
  8  7  1  6
  8  9  1  0
  8 10  1  0
 10 12  1  0
 11 10  2  0
 12 13  1  0
 13 20  1  0
 13 14  1  1
 15 14  1  0
 16 15  2  0
 17 16  1  0
 18 17  1  0
 18 19  2  0
 19 15  1  0
 20 22  1  0
 21 20  2  0
M  END
$$$$
