CAH.pdb
     RDKit          3D

 22 22  0  0  1  0  0  0  0  0999 V2000
   26.7010  -13.6804  -18.1141 N   0  0  0  0  0  0  0  0  0  0  0  0
   26.7633  -15.1290  -18.1556 C   0  0  1  0  0  0  0  0  0  0  0  0
   27.9598  -15.5745  -17.3635 C   0  0  0  0  0  0  0  0  0  0  0  0
   29.4627  -15.6024  -18.3544 S   0  0  0  0  0  0  0  0  0  0  0  0
   25.5369  -15.6849  -17.5574 C   0  0  0  0  0  0  0  0  0  0  0  0
   25.1127  -15.1926  -16.4586 O   0  0  0  0  0  0  0  0  0  0  0  0
   22.7805  -17.9550  -18.4996 C   0  0  0  0  0  0  0  0  0  0  0  0
   23.7232  -17.3415  -17.4838 C   0  0  2  0  0  0  0  0  0  0  0  0
   24.8196  -16.7472  -18.1676 N   0  0  0  0  0  0  0  0  0  0  0  0
   24.1250  -18.3449  -16.4693 C   0  0  0  0  0  0  0  0  0  0  0  0
   25.3657  -18.5159  -16.3174 O   0  0  0  0  0  0  0  0  0  0  0  0
   23.1857  -19.0798  -15.7041 N   0  0  0  0  0  0  0  0  0  0  0  0
   23.6936  -19.9897  -14.6977 C   0  0  1  0  0  0  0  0  0  0  0  0
   24.4813  -19.2563  -13.6377 C   0  0  0  0  0  0  0  0  0  0  0  0
   24.8296  -20.2032  -12.5587 C   0  0  0  0  0  0  0  0  0  0  0  0
   25.2373  -21.5273  -12.6931 C   0  0  0  0  0  0  0  0  0  0  0  0
   25.4613  -22.0564  -11.4813 N   0  0  0  0  0  0  0  0  0  0  0  0
   25.2088  -21.1095  -10.5745 C   0  0  0  0  0  0  0  0  0  0  0  0
   24.8236  -19.9801  -11.2356 N   0  0  0  0  0  0  0  0  0  0  0  0
   22.5161  -20.6688  -14.0988 C   0  0  0  0  0  0  0  0  0  0  0  0
   21.4229  -20.1218  -13.8424 O   0  0  0  0  0  0  0  0  0  0  0  0
   22.5766  -22.0386  -13.7723 O   0  0  0  0  0  0  0  0  0  0  0  0
  2  1  1  1
  3  2  1  0
  4  3  1  0
  5  9  1  0
  5  2  1  0
  6  5  2  0
  8  7  1  6
  8  9  1  0
  8 10  1  0
 10 12  1  0
 11 10  2  0
 12 13  1  0
 13 20  1  0
 13 14  1  1
 15 14  1  0
 16 15  2  0
 17 16  1  0
 18 17  1  0
 18 19  2  0
 19 15  1  0
 20 22  1  0
 21 20  2  0
M  END
$$$$
