CAH.pdb
     RDKit          3D

 22 22  0  0  1  0  0  0  0  0999 V2000
   18.1004  -10.6324  -20.7044 N   0  0  0  0  0  0  0  0  0  0  0  0
   19.3663  -10.9239  -20.0590 C   0  0  1  0  0  0  0  0  0  0  0  0
   20.4758  -10.4988  -20.9788 C   0  0  0  0  0  0  0  0  0  0  0  0
   20.5914  -11.5462  -22.4385 S   0  0  0  0  0  0  0  0  0  0  0  0
   19.4522  -10.1698  -18.7961 C   0  0  0  0  0  0  0  0  0  0  0  0
   18.9869   -8.9816  -18.7581 O   0  0  0  0  0  0  0  0  0  0  0  0
   20.0916  -10.9267  -15.2437 C   0  0  0  0  0  0  0  0  0  0  0  0
   20.0548   -9.9737  -16.4217 C   0  0  2  0  0  0  0  0  0  0  0  0
   20.0354  -10.7272  -17.6279 N   0  0  0  0  0  0  0  0  0  0  0  0
   21.1705   -9.0007  -16.3433 C   0  0  0  0  0  0  0  0  0  0  0  0
   22.0972   -9.1482  -17.1865 O   0  0  0  0  0  0  0  0  0  0  0  0
   21.2123   -7.9582  -15.3844 N   0  0  0  0  0  0  0  0  0  0  0  0
   22.3102   -7.0156  -15.4542 C   0  0  1  0  0  0  0  0  0  0  0  0
   22.3284   -6.2865  -16.7771 C   0  0  0  0  0  0  0  0  0  0  0  0
   23.4327   -5.3056  -16.7683 C   0  0  0  0  0  0  0  0  0  0  0  0
   24.7620   -5.5300  -16.4215 C   0  0  0  0  0  0  0  0  0  0  0  0
   25.4588   -4.3904  -16.5404 N   0  0  0  0  0  0  0  0  0  0  0  0
   24.6143   -3.4422  -16.9533 C   0  0  0  0  0  0  0  0  0  0  0  0
   23.3790   -4.0043  -17.0913 N   0  0  0  0  0  0  0  0  0  0  0  0
   22.1277   -6.0595  -14.3320 C   0  0  0  0  0  0  0  0  0  0  0  0
   22.9811   -5.2345  -13.9434 O   0  0  0  0  0  0  0  0  0  0  0  0
   20.9171   -6.0341  -13.6108 O   0  0  0  0  0  0  0  0  0  0  0  0
  2  1  1  6
  3  2  1  0
  4  3  1  0
  5  9  1  0
  5  2  1  0
  6  5  2  0
  8  7  1  1
  8  9  1  0
  8 10  1  0
 10 12  1  0
 11 10  2  0
 12 13  1  0
 13 20  1  0
 13 14  1  6
 15 14  1  0
 16 15  2  0
 17 16  1  0
 18 17  1  0
 18 19  2  0
 19 15  1  0
 20 22  1  0
 21 20  2  0
M  END
$$$$
