CAH.pdb
     RDKit          3D

 22 22  0  0  1  0  0  0  0  0999 V2000
   18.3106  -11.8116  -16.8104 N   0  0  0  0  0  0  0  0  0  0  0  0
   17.8340  -11.5904  -15.4585 C   0  0  1  0  0  0  0  0  0  0  0  0
   17.6030  -12.9274  -14.8129 C   0  0  0  0  0  0  0  0  0  0  0  0
   16.2145  -13.8084  -15.5457 S   0  0  0  0  0  0  0  0  0  0  0  0
   18.8529  -10.8428  -14.7008 C   0  0  0  0  0  0  0  0  0  0  0  0
   18.5863  -10.4815  -13.5058 O   0  0  0  0  0  0  0  0  0  0  0  0
   22.4257  -10.0737  -14.8223 C   0  0  0  0  0  0  0  0  0  0  0  0
   20.9953   -9.6473  -14.5597 C   0  0  2  0  0  0  0  0  0  0  0  0
   20.1153  -10.5163  -15.2621 N   0  0  0  0  0  0  0  0  0  0  0  0
   20.8073   -8.2139  -14.8882 C   0  0  0  0  0  0  0  0  0  0  0  0
   21.5657   -7.4023  -14.2900 O   0  0  0  0  0  0  0  0  0  0  0  0
   19.8379   -7.7612  -15.8173 N   0  0  0  0  0  0  0  0  0  0  0  0
   19.7730   -6.3403  -16.0922 C   0  0  1  0  0  0  0  0  0  0  0  0
   19.7603   -6.0656  -17.5775 C   0  0  0  0  0  0  0  0  0  0  0  0
   21.0884   -6.3914  -18.1362 C   0  0  0  0  0  0  0  0  0  0  0  0
   22.3305   -6.1841  -17.5433 C   0  0  0  0  0  0  0  0  0  0  0  0
   23.3005   -6.6118  -18.3647 N   0  0  0  0  0  0  0  0  0  0  0  0
   22.7156   -7.0871  -19.4669 C   0  0  0  0  0  0  0  0  0  0  0  0
   21.3658   -6.9510  -19.3238 N   0  0  0  0  0  0  0  0  0  0  0  0
   18.5291   -5.8359  -15.4558 C   0  0  0  0  0  0  0  0  0  0  0  0
   17.7124   -6.5339  -14.8188 O   0  0  0  0  0  0  0  0  0  0  0  0
   18.1899   -4.4708  -15.5437 O   0  0  0  0  0  0  0  0  0  0  0  0
  2  1  1  6
  3  2  1  0
  4  3  1  0
  5  9  1  0
  5  2  1  0
  6  5  2  0
  8  7  1  6
  8  9  1  0
  8 10  1  0
 10 12  1  0
 11 10  2  0
 12 13  1  0
 13 20  1  0
 13 14  1  6
 15 14  1  0
 16 15  2  0
 17 16  1  0
 18 17  1  0
 18 19  2  0
 19 15  1  0
 20 22  1  0
 21 20  2  0
M  END
$$$$
