CAH.pdb
     RDKit          3D

 22 22  0  0  1  0  0  0  0  0999 V2000
   23.2978  -20.3805  -14.3027 N   0  0  0  0  0  0  0  0  0  0  0  0
   23.7601  -19.7228  -15.5100 C   0  0  1  0  0  0  0  0  0  0  0  0
   22.9707  -20.2563  -16.6719 C   0  0  0  0  0  0  0  0  0  0  0  0
   23.3380  -19.3854  -18.2041 S   0  0  0  0  0  0  0  0  0  0  0  0
   23.5412  -18.2710  -15.3862 C   0  0  0  0  0  0  0  0  0  0  0  0
   22.4038  -17.8542  -14.9833 O   0  0  0  0  0  0  0  0  0  0  0  0
   25.6083  -15.2171  -15.3051 C   0  0  0  0  0  0  0  0  0  0  0  0
   24.2988  -15.9391  -15.5522 C   0  0  2  0  0  0  0  0  0  0  0  0
   24.5563  -17.3299  -15.7013 N   0  0  0  0  0  0  0  0  0  0  0  0
   23.5782  -15.3387  -16.7002 C   0  0  0  0  0  0  0  0  0  0  0  0
   23.7509  -15.8966  -17.8184 O   0  0  0  0  0  0  0  0  0  0  0  0
   22.7393  -14.2041  -16.5700 N   0  0  0  0  0  0  0  0  0  0  0  0
   22.0292  -13.7465  -17.7469 C   0  0  1  0  0  0  0  0  0  0  0  0
   20.5420  -13.6625  -17.4964 C   0  0  0  0  0  0  0  0  0  0  0  0
   20.2871  -12.6357  -16.4655 C   0  0  0  0  0  0  0  0  0  0  0  0
   20.0410  -12.8388  -15.1106 C   0  0  0  0  0  0  0  0  0  0  0  0
   19.8577  -11.6577  -14.5024 N   0  0  0  0  0  0  0  0  0  0  0  0
   19.9793  -10.7036  -15.4286 C   0  0  0  0  0  0  0  0  0  0  0  0
   20.2413  -11.3042  -16.6251 N   0  0  0  0  0  0  0  0  0  0  0  0
   22.5791  -12.4092  -18.0877 C   0  0  0  0  0  0  0  0  0  0  0  0
   22.2191  -11.7086  -19.0570 O   0  0  0  0  0  0  0  0  0  0  0  0
   23.5890  -11.8329  -17.2912 O   0  0  0  0  0  0  0  0  0  0  0  0
  2  1  1  1
  3  2  1  0
  4  3  1  0
  5  9  1  0
  5  2  1  0
  6  5  2  0
  8  7  1  6
  8  9  1  0
  8 10  1  0
 10 12  1  0
 11 10  2  0
 12 13  1  0
 13 20  1  0
 13 14  1  1
 15 14  1  0
 16 15  2  0
 17 16  1  0
 18 17  1  0
 18 19  2  0
 19 15  1  0
 20 22  1  0
 21 20  2  0
M  END
$$$$
