CAH.pdb
     RDKit          3D

 22 22  0  0  1  0  0  0  0  0999 V2000
   21.4726  -12.7595  -18.9858 N   0  0  0  0  0  0  0  0  0  0  0  0
   22.4013  -11.6633  -19.1856 C   0  0  1  0  0  0  0  0  0  0  0  0
   21.8543  -10.7694  -20.2624 C   0  0  0  0  0  0  0  0  0  0  0  0
   22.2064  -11.3952  -21.9133 S   0  0  0  0  0  0  0  0  0  0  0  0
   22.5333  -10.9040  -17.9298 C   0  0  0  0  0  0  0  0  0  0  0  0
   21.4913  -10.7085  -17.2186 O   0  0  0  0  0  0  0  0  0  0  0  0
   25.0564  -10.0875  -15.4903 C   0  0  0  0  0  0  0  0  0  0  0  0
   23.8503   -9.6347  -16.2886 C   0  0  2  0  0  0  0  0  0  0  0  0
   23.7816  -10.3876  -17.4933 N   0  0  0  0  0  0  0  0  0  0  0  0
   23.8840   -8.1681  -16.5020 C   0  0  0  0  0  0  0  0  0  0  0  0
   24.3811   -7.7763  -17.5934 O   0  0  0  0  0  0  0  0  0  0  0  0
   23.3917   -7.2432  -15.5480 N   0  0  0  0  0  0  0  0  0  0  0  0
   23.4005   -5.8375  -15.8982 C   0  0  1  0  0  0  0  0  0  0  0  0
   22.5406   -5.5652  -17.1100 C   0  0  0  0  0  0  0  0  0  0  0  0
   23.3346   -5.8234  -18.3285 C   0  0  0  0  0  0  0  0  0  0  0  0
   23.3275   -6.9708  -19.1165 C   0  0  0  0  0  0  0  0  0  0  0  0
   24.1852   -6.8237  -20.1369 N   0  0  0  0  0  0  0  0  0  0  0  0
   24.7417   -5.6151  -20.0254 C   0  0  0  0  0  0  0  0  0  0  0  0
   24.2202   -5.0077  -18.9208 N   0  0  0  0  0  0  0  0  0  0  0  0
   22.8892   -5.0969  -14.7163 C   0  0  0  0  0  0  0  0  0  0  0  0
   22.7908   -3.8547  -14.6326 O   0  0  0  0  0  0  0  0  0  0  0  0
   22.4668   -5.7968  -13.5683 O   0  0  0  0  0  0  0  0  0  0  0  0
  2  1  1  1
  3  2  1  0
  4  3  1  0
  5  9  1  0
  5  2  1  0
  6  5  2  0
  8  7  1  6
  8  9  1  0
  8 10  1  0
 10 12  1  0
 11 10  2  0
 12 13  1  0
 13 20  1  0
 13 14  1  6
 15 14  1  0
 16 15  2  0
 17 16  1  0
 18 17  1  0
 18 19  2  0
 19 15  1  0
 20 22  1  0
 21 20  2  0
M  END
$$$$
