ECK.pdb
     RDKit          3D

 25 24  0  0  1  0  0  0  0  0999 V2000
   17.8358  -10.0811  -16.0738 N   0  0  0  0  0  0  0  0  0  0  0  0
   17.0087  -10.5155  -14.9314 C   0  0  1  0  0  0  0  0  0  0  0  0
   16.9058  -12.0044  -14.8901 C   0  0  0  0  0  0  0  0  0  0  0  0
   16.8315  -12.6910  -16.2089 C   0  0  0  0  0  0  0  0  0  0  0  0
   18.1790  -13.1393  -16.6413 C   0  0  0  0  0  0  0  0  0  0  0  0
   18.9138  -12.3533  -17.2766 O   0  0  0  0  0  0  0  0  0  0  0  0
   17.5272   -9.9009  -13.7003 C   0  0  0  0  0  0  0  0  0  0  0  0
   17.0682  -10.2806  -12.5964 O   0  0  0  0  0  0  0  0  0  0  0  0
   18.6464  -14.4075  -16.3600 O   0  0  0  0  0  0  0  0  0  0  0  0
   18.5202   -8.8981  -13.6669 N   0  0  0  0  0  0  0  0  0  0  0  0
   18.9406   -8.3263  -12.4332 C   0  0  1  0  0  0  0  0  0  0  0  0
   20.2211   -7.5359  -12.5350 C   0  0  0  0  0  0  0  0  0  0  0  0
   20.6789   -6.7080  -11.0221 S   0  0  0  0  0  0  0  0  0  0  0  0
   17.8464   -7.5004  -11.8145 C   0  0  0  0  0  0  0  0  0  0  0  0
   17.3113   -6.5440  -12.4440 O   0  0  0  0  0  0  0  0  0  0  0  0
   17.3673   -7.7532  -10.5075 N   0  0  0  0  0  0  0  0  0  0  0  0
   16.3832   -6.8992   -9.8697 C   0  0  1  0  0  0  0  0  0  0  0  0
   15.3099   -7.7660   -9.2518 C   0  0  0  0  0  0  0  0  0  0  0  0
   14.1696   -6.9373   -8.7018 C   0  0  0  0  0  0  0  0  0  0  0  0
   13.0891   -7.8179   -8.1518 C   0  0  0  0  0  0  0  0  0  0  0  0
   11.9149   -7.0129   -7.6932 C   0  0  0  0  0  0  0  0  0  0  0  0
   10.8981   -7.9560   -7.2369 N   0  0  0  0  0  0  0  0  0  0  0  0
   17.0288   -6.0988   -8.7976 C   0  0  0  0  0  0  0  0  0  0  0  0
   18.0143   -6.5590   -8.1732 O   0  0  0  0  0  0  0  0  0  0  0  0
   16.5600   -4.8396   -8.4687 O   0  0  0  0  0  0  0  0  0  0  0  0
  2  1  1  6
  2  7  1  0
  3  2  1  0
  4  5  1  0
  4  3  1  0
  5  9  1  0
  6  5  2  0
  7  8  2  0
 10  7  1  0
 10 11  1  0
 11 14  1  0
 11 12  1  6
 12 13  1  0
 14 15  2  0
 16 17  1  0
 16 14  1  0
 17 23  1  0
 17 18  1  1
 19 18  1  0
 20 19  1  0
 21 20  1  0
 21 22  1  0
 23 24  2  0
 23 25  1  0
M  END
$$$$
