ECK.pdb
     RDKit          3D

 25 24  0  0  1  0  0  0  0  0999 V2000
   27.6962  -25.3896  -16.4603 N   0  0  0  0  0  0  0  0  0  0  0  0
   27.7885  -23.9305  -16.6619 C   0  0  1  0  0  0  0  0  0  0  0  0
   27.4707  -23.5718  -18.0758 C   0  0  0  0  0  0  0  0  0  0  0  0
   28.3207  -24.2094  -19.1185 C   0  0  0  0  0  0  0  0  0  0  0  0
   27.9279  -23.7410  -20.4713 C   0  0  0  0  0  0  0  0  0  0  0  0
   26.9929  -22.9207  -20.5904 O   0  0  0  0  0  0  0  0  0  0  0  0
   26.9598  -23.2520  -15.6544 C   0  0  0  0  0  0  0  0  0  0  0  0
   26.3491  -23.9473  -14.8075 O   0  0  0  0  0  0  0  0  0  0  0  0
   28.5700  -24.1885  -21.6086 O   0  0  0  0  0  0  0  0  0  0  0  0
   26.7969  -21.8525  -15.5672 N   0  0  0  0  0  0  0  0  0  0  0  0
   26.0535  -21.2678  -14.5036 C   0  0  1  0  0  0  0  0  0  0  0  0
   26.6180  -19.9566  -14.0168 C   0  0  0  0  0  0  0  0  0  0  0  0
   26.7017  -18.6961  -15.2770 S   0  0  0  0  0  0  0  0  0  0  0  0
   24.6010  -21.1263  -14.8674 C   0  0  0  0  0  0  0  0  0  0  0  0
   24.2469  -20.7964  -16.0349 O   0  0  0  0  0  0  0  0  0  0  0  0
   23.5693  -21.3541  -13.9266 N   0  0  0  0  0  0  0  0  0  0  0  0
   22.1678  -21.2032  -14.2694 C   0  0  1  0  0  0  0  0  0  0  0  0
   21.3369  -22.0136  -13.3009 C   0  0  0  0  0  0  0  0  0  0  0  0
   19.8618  -21.9368  -13.6292 C   0  0  0  0  0  0  0  0  0  0  0  0
   19.0518  -22.6886  -12.6172 C   0  0  0  0  0  0  0  0  0  0  0  0
   17.6085  -22.7380  -13.0065 C   0  0  0  0  0  0  0  0  0  0  0  0
   16.8771  -23.3054  -11.8776 N   0  0  0  0  0  0  0  0  0  0  0  0
   21.7728  -19.7751  -14.1611 C   0  0  0  0  0  0  0  0  0  0  0  0
   22.2512  -19.0555  -13.2522 O   0  0  0  0  0  0  0  0  0  0  0  0
   20.8767  -19.2145  -15.0533 O   0  0  0  0  0  0  0  0  0  0  0  0
  2  1  1  6
  2  7  1  0
  3  2  1  0
  4  5  1  0
  4  3  1  0
  5  9  1  0
  6  5  2  0
  7  8  2  0
 10  7  1  0
 10 11  1  0
 11 14  1  0
 11 12  1  6
 12 13  1  0
 14 15  2  0
 16 17  1  0
 16 14  1  0
 17 23  1  0
 17 18  1  1
 19 18  1  0
 20 19  1  0
 21 20  1  0
 21 22  1  0
 23 24  2  0
 23 25  1  0
M  END
$$$$
