ECK.pdb
     RDKit          3D

 25 24  0  0  1  0  0  0  0  0999 V2000
   25.2906  -20.4597   -9.0827 N   0  0  0  0  0  0  0  0  0  0  0  0
   25.3641  -21.2714  -10.3131 C   0  0  1  0  0  0  0  0  0  0  0  0
   23.9960  -21.6270  -10.7934 C   0  0  0  0  0  0  0  0  0  0  0  0
   23.0838  -20.4841  -11.0723 C   0  0  0  0  0  0  0  0  0  0  0  0
   21.7539  -20.9728  -11.5153 C   0  0  0  0  0  0  0  0  0  0  0  0
   20.8199  -21.0478  -10.6886 O   0  0  0  0  0  0  0  0  0  0  0  0
   26.2003  -20.5735  -11.3010 C   0  0  0  0  0  0  0  0  0  0  0  0
   26.1302  -19.3233  -11.3756 O   0  0  0  0  0  0  0  0  0  0  0  0
   21.5179  -21.3491  -12.8224 O   0  0  0  0  0  0  0  0  0  0  0  0
   27.0917  -21.2160  -12.1872 N   0  0  0  0  0  0  0  0  0  0  0  0
   27.9067  -20.4627  -13.0782 C   0  0  1  0  0  0  0  0  0  0  0  0
   29.3682  -20.8314  -13.0236 C   0  0  0  0  0  0  0  0  0  0  0  0
   30.1237  -20.5484  -11.4321 S   0  0  0  0  0  0  0  0  0  0  0  0
   27.3857  -20.5360  -14.4872 C   0  0  0  0  0  0  0  0  0  0  0  0
   27.0908  -21.6434  -15.0202 O   0  0  0  0  0  0  0  0  0  0  0  0
   27.2022  -19.3769  -15.2775 N   0  0  0  0  0  0  0  0  0  0  0  0
   26.7063  -19.4441  -16.6391 C   0  0  1  0  0  0  0  0  0  0  0  0
   26.0280  -18.1364  -16.9782 C   0  0  0  0  0  0  0  0  0  0  0  0
   25.5007  -18.1312  -18.3964 C   0  0  0  0  0  0  0  0  0  0  0  0
   24.7805  -16.8506  -18.6913 C   0  0  0  0  0  0  0  0  0  0  0  0
   24.1946  -16.8629  -20.0675 C   0  0  0  0  0  0  0  0  0  0  0  0
   23.4536  -15.6157  -20.2312 N   0  0  0  0  0  0  0  0  0  0  0  0
   27.8379  -19.6547  -17.5783 C   0  0  0  0  0  0  0  0  0  0  0  0
   28.9167  -19.0363  -17.4151 O   0  0  0  0  0  0  0  0  0  0  0  0
   27.7257  -20.5299  -18.6436 O   0  0  0  0  0  0  0  0  0  0  0  0
  2  1  1  1
  2  7  1  0
  3  2  1  0
  4  5  1  0
  4  3  1  0
  5  9  1  0
  6  5  2  0
  7  8  2  0
 10  7  1  0
 10 11  1  0
 11 14  1  0
 11 12  1  6
 12 13  1  0
 14 15  2  0
 16 17  1  0
 16 14  1  0
 17 23  1  0
 17 18  1  6
 19 18  1  0
 20 19  1  0
 21 20  1  0
 21 22  1  0
 23 24  2  0
 23 25  1  0
M  END
$$$$
