ECK.pdb
     RDKit          3D

 25 24  0  0  1  0  0  0  0  0999 V2000
   25.9271  -20.6406  -10.7855 N   0  0  0  0  0  0  0  0  0  0  0  0
   25.8335  -21.2082  -12.1446 C   0  0  1  0  0  0  0  0  0  0  0  0
   24.5045  -21.8545  -12.3564 C   0  0  0  0  0  0  0  0  0  0  0  0
   23.5365  -21.7421  -11.2310 C   0  0  0  0  0  0  0  0  0  0  0  0
   22.3717  -20.9102  -11.6246 C   0  0  0  0  0  0  0  0  0  0  0  0
   22.3208  -20.4299  -12.7770 O   0  0  0  0  0  0  0  0  0  0  0  0
   26.1741  -20.1671  -13.1256 C   0  0  0  0  0  0  0  0  0  0  0  0
   26.0652  -18.9632  -12.7905 O   0  0  0  0  0  0  0  0  0  0  0  0
   21.3368  -20.6504  -10.7486 O   0  0  0  0  0  0  0  0  0  0  0  0
   26.6223  -20.4252  -14.4390 N   0  0  0  0  0  0  0  0  0  0  0  0
   26.8915  -19.3589  -15.3425 C   0  0  1  0  0  0  0  0  0  0  0  0
   28.3009  -19.3589  -15.8797 C   0  0  0  0  0  0  0  0  0  0  0  0
   28.6311  -18.0409  -17.0363 S   0  0  0  0  0  0  0  0  0  0  0  0
   25.8887  -19.3277  -16.4630 C   0  0  0  0  0  0  0  0  0  0  0  0
   25.2068  -20.3492  -16.7609 O   0  0  0  0  0  0  0  0  0  0  0  0
   25.6627  -18.1615  -17.2314 N   0  0  0  0  0  0  0  0  0  0  0  0
   24.4129  -17.9307  -17.9308 C   0  0  1  0  0  0  0  0  0  0  0  0
   23.3034  -17.7829  -16.9148 C   0  0  0  0  0  0  0  0  0  0  0  0
   21.9707  -17.5106  -17.5776 C   0  0  0  0  0  0  0  0  0  0  0  0
   20.8879  -17.3603  -16.5528 C   0  0  0  0  0  0  0  0  0  0  0  0
   19.5541  -17.1588  -17.1991 C   0  0  0  0  0  0  0  0  0  0  0  0
   18.5905  -16.9123  -16.1305 N   0  0  0  0  0  0  0  0  0  0  0  0
   24.5036  -16.6795  -18.7266 C   0  0  0  0  0  0  0  0  0  0  0  0
   24.1675  -16.6746  -19.9349 O   0  0  0  0  0  0  0  0  0  0  0  0
   24.9571  -15.5039  -18.1560 O   0  0  0  0  0  0  0  0  0  0  0  0
  2  1  1  1
  2  7  1  0
  3  2  1  0
  4  5  1  0
  4  3  1  0
  5  9  1  0
  6  5  2  0
  7  8  2  0
 10  7  1  0
 10 11  1  0
 11 14  1  0
 11 12  1  6
 12 13  1  0
 14 15  2  0
 16 17  1  0
 16 14  1  0
 17 23  1  0
 17 18  1  1
 19 18  1  0
 20 19  1  0
 21 20  1  0
 21 22  1  0
 23 24  2  0
 23 25  1  0
M  END
$$$$
