IKT.pdb
     RDKit          3D

 25 24  0  0  1  0  0  0  0  0999 V2000
   27.6954  -19.9875   -6.6702 C   0  0  0  0  0  0  0  0  0  0  0  0
   26.3364  -20.2693   -7.2429 C   0  0  0  0  0  0  0  0  0  0  0  0
   26.2049  -20.0895   -8.7117 C   0  0  2  0  0  0  0  0  0  0  0  0
   26.8836  -18.8185   -9.1874 C   0  0  0  0  0  0  0  0  0  0  0  0
   24.8958  -20.3279   -9.3477 C   0  0  2  0  0  0  0  0  0  0  0  0
   24.4088  -21.6040   -8.7993 N   0  0  0  0  0  0  0  0  0  0  0  0
   24.7994  -20.2907  -10.7979 C   0  0  0  0  0  0  0  0  0  0  0  0
   25.2363  -19.3478  -11.5079 O   0  0  0  0  0  0  0  0  0  0  0  0
   24.1866  -21.3415  -11.5812 N   0  0  0  0  0  0  0  0  0  0  0  0
   24.1601  -21.3186  -13.0262 C   0  0  1  0  0  0  0  0  0  0  0  0
   24.4366  -22.6683  -13.6317 C   0  0  0  0  0  0  0  0  0  0  0  0
   25.2702  -22.6245  -14.8790 C   0  0  0  0  0  0  0  0  0  0  0  0
   26.7005  -22.2473  -14.5784 C   0  0  0  0  0  0  0  0  0  0  0  0
   27.4951  -22.1874  -15.8555 C   0  0  0  0  0  0  0  0  0  0  0  0
   28.8892  -21.8902  -15.5225 N   0  0  0  0  0  0  0  0  0  0  0  0
   22.7737  -20.9478  -13.4232 C   0  0  0  0  0  0  0  0  0  0  0  0
   21.7715  -21.2607  -12.7294 O   0  0  0  0  0  0  0  0  0  0  0  0
   21.5131  -17.3373  -14.7127 C   0  0  0  0  0  0  0  0  0  0  0  0
   21.1718  -18.4590  -15.6704 C   0  0  1  0  0  0  0  0  0  0  0  0
   22.1652  -18.5108  -16.6441 O   0  0  0  0  0  0  0  0  0  0  0  0
   21.1712  -19.8047  -14.9487 C   0  0  2  0  0  0  0  0  0  0  0  0
   22.5191  -20.2172  -14.6144 N   0  0  0  0  0  0  0  0  0  0  0  0
   20.4906  -20.8064  -15.7844 C   0  0  0  0  0  0  0  0  0  0  0  0
   19.2596  -20.7601  -16.0544 O   0  0  0  0  0  0  0  0  0  0  0  0
   21.2368  -21.8541  -16.3019 O   0  0  0  0  0  0  0  0  0  0  0  0
  2  1  1  0
  3  2  1  0
  3  4  1  1
  5  3  1  0
  5  7  1  0
  5  6  1  6
  7  8  2  0
  9 10  1  0
  9  7  1  0
 11 12  1  0
 10 11  1  6
 12 13  1  0
 13 14  1  0
 14 15  1  0
 16 10  1  0
 17 16  2  0
 19 18  1  1
 19 21  1  0
 20 19  1  0
 21 22  1  6
 21 23  1  0
 22 16  1  0
 23 25  1  0
 24 23  2  0
M  END
$$$$
