IKT.pdb
     RDKit          3D

 25 24  0  0  1  0  0  0  0  0999 V2000
   10.4127  -12.2661   -8.8657 C   0  0  0  0  0  0  0  0  0  0  0  0
   10.7671  -11.3038   -9.9623 C   0  0  0  0  0  0  0  0  0  0  0  0
   12.0582  -10.5869   -9.7997 C   0  0  2  0  0  0  0  0  0  0  0  0
   12.2085  -10.0047   -8.4066 C   0  0  0  0  0  0  0  0  0  0  0  0
   12.5104   -9.6757  -10.8676 C   0  0  2  0  0  0  0  0  0  0  0  0
   12.3809  -10.4323  -12.1233 N   0  0  0  0  0  0  0  0  0  0  0  0
   13.8142   -9.0433  -10.7493 C   0  0  0  0  0  0  0  0  0  0  0  0
   14.3211   -8.6755   -9.6577 O   0  0  0  0  0  0  0  0  0  0  0  0
   14.6705   -8.7689  -11.8828 N   0  0  0  0  0  0  0  0  0  0  0  0
   15.9002   -8.0187  -11.7640 C   0  0  1  0  0  0  0  0  0  0  0  0
   16.8209   -8.2268  -12.9360 C   0  0  0  0  0  0  0  0  0  0  0  0
   18.1204   -7.4823  -12.8380 C   0  0  0  0  0  0  0  0  0  0  0  0
   18.9946   -7.7295  -14.0434 C   0  0  0  0  0  0  0  0  0  0  0  0
   20.3373   -7.0781  -13.8463 C   0  0  0  0  0  0  0  0  0  0  0  0
   21.1596   -7.3404  -15.0285 N   0  0  0  0  0  0  0  0  0  0  0  0
   15.5246   -6.5779  -11.7658 C   0  0  0  0  0  0  0  0  0  0  0  0
   14.7055   -6.0998  -12.5930 O   0  0  0  0  0  0  0  0  0  0  0  0
   13.8028   -4.5450   -9.2686 C   0  0  0  0  0  0  0  0  0  0  0  0
   15.1117   -3.8286   -9.5240 C   0  0  1  0  0  0  0  0  0  0  0  0
   16.0048   -4.1931   -8.5204 O   0  0  0  0  0  0  0  0  0  0  0  0
   15.7181   -4.2683  -10.8547 C   0  0  2  0  0  0  0  0  0  0  0  0
   16.0798   -5.6708  -10.8243 N   0  0  0  0  0  0  0  0  0  0  0  0
   16.8769   -3.4174  -11.1678 C   0  0  0  0  0  0  0  0  0  0  0  0
   16.7888   -2.1753  -11.3667 O   0  0  0  0  0  0  0  0  0  0  0  0
   18.1289   -4.0076  -11.2490 O   0  0  0  0  0  0  0  0  0  0  0  0
  2  1  1  0
  3  2  1  0
  3  4  1  1
  5  3  1  0
  5  7  1  0
  5  6  1  6
  7  8  2  0
  9 10  1  0
  9  7  1  0
 11 12  1  0
 10 11  1  6
 12 13  1  0
 13 14  1  0
 14 15  1  0
 16 10  1  0
 17 16  2  0
 19 18  1  1
 19 21  1  0
 20 19  1  0
 21 22  1  1
 21 23  1  0
 22 16  1  0
 23 25  1  0
 24 23  2  0
M  END
$$$$
