IKT.pdb
     RDKit          3D

 25 24  0  0  1  0  0  0  0  0999 V2000
   27.0651  -20.0967   -6.0747 C   0  0  0  0  0  0  0  0  0  0  0  0
   25.8950  -20.1033   -7.0154 C   0  0  0  0  0  0  0  0  0  0  0  0
   26.2269  -20.2325   -8.4577 C   0  0  2  0  0  0  0  0  0  0  0  0
   27.4223  -19.3797   -8.8400 C   0  0  0  0  0  0  0  0  0  0  0  0
   25.1364  -20.1910   -9.4498 C   0  0  2  0  0  0  0  0  0  0  0  0
   24.1564  -21.1983   -9.0124 N   0  0  0  0  0  0  0  0  0  0  0  0
   25.4609  -20.3292  -10.8602 C   0  0  0  0  0  0  0  0  0  0  0  0
   26.3096  -19.6190  -11.4595 O   0  0  0  0  0  0  0  0  0  0  0  0
   24.8370  -21.3047  -11.7277 N   0  0  0  0  0  0  0  0  0  0  0  0
   25.2208  -21.4723  -13.1111 C   0  0  1  0  0  0  0  0  0  0  0  0
   25.1257  -22.9026  -13.5692 C   0  0  0  0  0  0  0  0  0  0  0  0
   25.5971  -23.1314  -14.9755 C   0  0  0  0  0  0  0  0  0  0  0  0
   25.3578  -24.5549  -15.4171 C   0  0  0  0  0  0  0  0  0  0  0  0
   25.8610  -24.7481  -16.8225 C   0  0  0  0  0  0  0  0  0  0  0  0
   25.6348  -26.1414  -17.2102 N   0  0  0  0  0  0  0  0  0  0  0  0
   24.2431  -20.6971  -13.9236 C   0  0  0  0  0  0  0  0  0  0  0  0
   23.0216  -20.6390  -13.6266 O   0  0  0  0  0  0  0  0  0  0  0  0
   24.3480  -16.9676  -14.9857 C   0  0  0  0  0  0  0  0  0  0  0  0
   24.2401  -17.8445  -16.2149 C   0  0  1  0  0  0  0  0  0  0  0  0
   25.5224  -18.0336  -16.7226 O   0  0  0  0  0  0  0  0  0  0  0  0
   23.6874  -19.2206  -15.8506 C   0  0  2  0  0  0  0  0  0  0  0  0
   24.6504  -19.9819  -15.0813 N   0  0  0  0  0  0  0  0  0  0  0  0
   23.2942  -19.9294  -17.0786 C   0  0  0  0  0  0  0  0  0  0  0  0
   23.8370  -21.0011  -17.4620 O   0  0  0  0  0  0  0  0  0  0  0  0
   22.2769  -19.3951  -17.8545 O   0  0  0  0  0  0  0  0  0  0  0  0
  2  1  1  0
  3  2  1  0
  3  4  1  6
  5  3  1  0
  5  7  1  0
  5  6  1  1
  7  8  2  0
  9 10  1  0
  9  7  1  0
 11 12  1  0
 10 11  1  6
 12 13  1  0
 13 14  1  0
 14 15  1  0
 16 10  1  0
 17 16  2  0
 19 18  1  1
 19 21  1  0
 20 19  1  0
 21 22  1  6
 21 23  1  0
 22 16  1  0
 23 25  1  0
 24 23  2  0
M  END
$$$$
