IKT.pdb
     RDKit          3D

 25 24  0  0  1  0  0  0  0  0999 V2000
   26.8577  -19.4575   -6.7039 C   0  0  0  0  0  0  0  0  0  0  0  0
   25.6520  -19.5984   -7.5874 C   0  0  0  0  0  0  0  0  0  0  0  0
   25.9093  -20.1288   -8.9510 C   0  0  2  0  0  0  0  0  0  0  0  0
   27.1867  -19.5640   -9.5441 C   0  0  0  0  0  0  0  0  0  0  0  0
   24.7952  -20.1956   -9.9151 C   0  0  2  0  0  0  0  0  0  0  0  0
   23.6994  -20.8860   -9.2161 N   0  0  0  0  0  0  0  0  0  0  0  0
   25.0364  -20.7601  -11.2330 C   0  0  0  0  0  0  0  0  0  0  0  0
   25.9275  -21.6137  -11.4802 O   0  0  0  0  0  0  0  0  0  0  0  0
   24.2713  -20.3963  -12.4060 N   0  0  0  0  0  0  0  0  0  0  0  0
   24.5049  -20.9927  -13.7017 C   0  0  1  0  0  0  0  0  0  0  0  0
   23.2618  -21.6025  -14.2910 C   0  0  0  0  0  0  0  0  0  0  0  0
   23.4891  -22.3439  -15.5759 C   0  0  0  0  0  0  0  0  0  0  0  0
   24.1335  -23.6875  -15.3357 C   0  0  0  0  0  0  0  0  0  0  0  0
   24.4267  -24.3590  -16.6506 C   0  0  0  0  0  0  0  0  0  0  0  0
   25.1029  -25.6295  -16.3837 N   0  0  0  0  0  0  0  0  0  0  0  0
   24.9135  -19.8889  -14.6137 C   0  0  0  0  0  0  0  0  0  0  0  0
   24.3874  -18.7468  -14.5614 O   0  0  0  0  0  0  0  0  0  0  0  0
   28.1597  -18.1580  -15.0028 C   0  0  0  0  0  0  0  0  0  0  0  0
   27.8090  -18.7105  -16.3679 C   0  0  1  0  0  0  0  0  0  0  0  0
   28.4706  -19.9253  -16.5235 O   0  0  0  0  0  0  0  0  0  0  0  0
   26.3115  -18.9916  -16.4690 C   0  0  2  0  0  0  0  0  0  0  0  0
   25.9250  -20.0785  -15.5927 N   0  0  0  0  0  0  0  0  0  0  0  0
   25.9617  -19.2756  -17.8697 C   0  0  0  0  0  0  0  0  0  0  0  0
   25.4150  -20.3494  -18.2417 O   0  0  0  0  0  0  0  0  0  0  0  0
   26.2459  -18.3171  -18.8305 O   0  0  0  0  0  0  0  0  0  0  0  0
  2  1  1  0
  3  2  1  0
  3  4  1  6
  5  3  1  0
  5  7  1  0
  5  6  1  1
  7  8  2  0
  9 10  1  0
  9  7  1  0
 11 12  1  0
 10 11  1  6
 12 13  1  0
 13 14  1  0
 14 15  1  0
 16 10  1  0
 17 16  2  0
 19 18  1  1
 19 21  1  0
 20 19  1  0
 21 22  1  1
 21 23  1  0
 22 16  1  0
 23 25  1  0
 24 23  2  0
M  END
$$$$
