IKT.pdb
     RDKit          3D

 25 24  0  0  1  0  0  0  0  0999 V2000
   29.8889  -21.8456   -9.4915 C   0  0  0  0  0  0  0  0  0  0  0  0
   28.5355  -21.1966   -9.5283 C   0  0  0  0  0  0  0  0  0  0  0  0
   27.8934  -21.1183  -10.8657 C   0  0  2  0  0  0  0  0  0  0  0  0
   28.8779  -20.6958  -11.9402 C   0  0  0  0  0  0  0  0  0  0  0  0
   26.5756  -20.4678  -10.9900 C   0  0  2  0  0  0  0  0  0  0  0  0
   25.7097  -21.1201   -9.9945 N   0  0  0  0  0  0  0  0  0  0  0  0
   25.9424  -20.4022  -12.2971 C   0  0  0  0  0  0  0  0  0  0  0  0
   26.4504  -19.8310  -13.2969 O   0  0  0  0  0  0  0  0  0  0  0  0
   24.6528  -20.9910  -12.5863 N   0  0  0  0  0  0  0  0  0  0  0  0
   24.0727  -20.9795  -13.9101 C   0  0  1  0  0  0  0  0  0  0  0  0
   22.7397  -21.6757  -13.9642 C   0  0  0  0  0  0  0  0  0  0  0  0
   22.6504  -22.7554  -15.0028 C   0  0  0  0  0  0  0  0  0  0  0  0
   23.7054  -23.8147  -14.7951 C   0  0  0  0  0  0  0  0  0  0  0  0
   23.5950  -24.8665  -15.8664 C   0  0  0  0  0  0  0  0  0  0  0  0
   24.7131  -25.7997  -15.7191 N   0  0  0  0  0  0  0  0  0  0  0  0
   23.8245  -19.5528  -14.2565 C   0  0  0  0  0  0  0  0  0  0  0  0
   23.0420  -18.8275  -13.5891 O   0  0  0  0  0  0  0  0  0  0  0  0
   26.2515  -16.6095  -14.7565 C   0  0  0  0  0  0  0  0  0  0  0  0
   25.4322  -16.7820  -16.0178 C   0  0  1  0  0  0  0  0  0  0  0  0
   26.1866  -17.5229  -16.9231 O   0  0  0  0  0  0  0  0  0  0  0  0
   24.1585  -17.5740  -15.7311 C   0  0  2  0  0  0  0  0  0  0  0  0
   24.4665  -18.9418  -15.3665 N   0  0  0  0  0  0  0  0  0  0  0  0
   23.2717  -17.5133  -16.9037 C   0  0  0  0  0  0  0  0  0  0  0  0
   22.7855  -16.4378  -17.3477 O   0  0  0  0  0  0  0  0  0  0  0  0
   22.9531  -18.6953  -17.5546 O   0  0  0  0  0  0  0  0  0  0  0  0
  2  1  1  0
  3  2  1  0
  3  4  1  6
  5  3  1  0
  5  7  1  0
  5  6  1  1
  7  8  2  0
  9 10  1  0
  9  7  1  0
 11 12  1  0
 10 11  1  1
 12 13  1  0
 13 14  1  0
 14 15  1  0
 16 10  1  0
 17 16  2  0
 19 18  1  1
 19 21  1  0
 20 19  1  0
 21 22  1  6
 21 23  1  0
 22 16  1  0
 23 25  1  0
 24 23  2  0
M  END
$$$$
