IKT.pdb
     RDKit          3D

 25 24  0  0  1  0  0  0  0  0999 V2000
   23.9765  -14.1846  -14.7871 C   0  0  0  0  0  0  0  0  0  0  0  0
   23.3041  -13.9999  -16.1168 C   0  0  0  0  0  0  0  0  0  0  0  0
   22.9638  -12.5999  -16.4791 C   0  0  2  0  0  0  0  0  0  0  0  0
   24.1982  -11.7205  -16.5534 C   0  0  0  0  0  0  0  0  0  0  0  0
   21.8186  -11.9474  -15.8173 C   0  0  2  0  0  0  0  0  0  0  0  0
   20.7080  -12.9102  -15.8939 N   0  0  0  0  0  0  0  0  0  0  0  0
   21.4149  -10.6205  -16.2534 C   0  0  0  0  0  0  0  0  0  0  0  0
   22.2204   -9.6843  -16.4956 O   0  0  0  0  0  0  0  0  0  0  0  0
   20.0349  -10.2356  -16.4554 N   0  0  0  0  0  0  0  0  0  0  0  0
   19.6580   -8.9470  -16.9906 C   0  0  1  0  0  0  0  0  0  0  0  0
   18.2804   -8.9520  -17.5963 C   0  0  0  0  0  0  0  0  0  0  0  0
   18.0414  -10.0657  -18.5735 C   0  0  0  0  0  0  0  0  0  0  0  0
   17.0045  -11.0378  -18.0653 C   0  0  0  0  0  0  0  0  0  0  0  0
   16.7153  -12.0761  -19.1161 C   0  0  0  0  0  0  0  0  0  0  0  0
   15.6723  -12.9707  -18.6116 N   0  0  0  0  0  0  0  0  0  0  0  0
   19.6164   -8.0015  -15.8411 C   0  0  0  0  0  0  0  0  0  0  0  0
   18.9329   -8.2304  -14.8095 O   0  0  0  0  0  0  0  0  0  0  0  0
   21.9934   -7.3904  -13.4342 C   0  0  0  0  0  0  0  0  0  0  0  0
   21.7519   -6.0069  -13.9993 C   0  0  1  0  0  0  0  0  0  0  0  0
   22.7211   -5.7625  -14.9680 O   0  0  0  0  0  0  0  0  0  0  0  0
   20.3911   -5.9344  -14.6885 C   0  0  2  0  0  0  0  0  0  0  0  0
   20.3536   -6.7876  -15.8587 N   0  0  0  0  0  0  0  0  0  0  0  0
   20.0908   -4.5349  -15.0295 C   0  0  0  0  0  0  0  0  0  0  0  0
   20.0025   -4.1161  -16.2157 O   0  0  0  0  0  0  0  0  0  0  0  0
   19.8945   -3.6296  -13.9978 O   0  0  0  0  0  0  0  0  0  0  0  0
  2  1  1  0
  3  2  1  0
  3  4  1  1
  5  3  1  0
  5  7  1  0
  5  6  1  6
  7  8  2  0
  9 10  1  0
  9  7  1  0
 11 12  1  0
 10 11  1  1
 12 13  1  0
 13 14  1  0
 14 15  1  0
 16 10  1  0
 17 16  2  0
 19 18  1  6
 19 21  1  0
 20 19  1  0
 21 22  1  6
 21 23  1  0
 22 16  1  0
 23 25  1  0
 24 23  2  0
M  END
$$$$
