IKT.pdb
     RDKit          3D

 25 24  0  0  1  0  0  0  0  0999 V2000
   16.7789  -22.0579  -16.0619 C   0  0  0  0  0  0  0  0  0  0  0  0
   18.2767  -22.1442  -16.1210 C   0  0  0  0  0  0  0  0  0  0  0  0
   19.0038  -20.8573  -15.9712 C   0  0  2  0  0  0  0  0  0  0  0  0
   18.3652  -19.7501  -16.7888 C   0  0  0  0  0  0  0  0  0  0  0  0
   20.4774  -20.8563  -16.0334 C   0  0  2  0  0  0  0  0  0  0  0  0
   20.9229  -21.8358  -15.0292 N   0  0  0  0  0  0  0  0  0  0  0  0
   21.1872  -19.5936  -15.9092 C   0  0  0  0  0  0  0  0  0  0  0  0
   21.1859  -18.8853  -14.8689 O   0  0  0  0  0  0  0  0  0  0  0  0
   21.9746  -19.0159  -16.9767 N   0  0  0  0  0  0  0  0  0  0  0  0
   22.6349  -17.7364  -16.8502 C   0  0  1  0  0  0  0  0  0  0  0  0
   23.9144  -17.6646  -17.6392 C   0  0  0  0  0  0  0  0  0  0  0  0
   24.6467  -16.3612  -17.5078 C   0  0  0  0  0  0  0  0  0  0  0  0
   25.8548  -16.3091  -18.4111 C   0  0  0  0  0  0  0  0  0  0  0  0
   26.6409  -15.0531  -18.1455 C   0  0  0  0  0  0  0  0  0  0  0  0
   27.9148  -15.1415  -18.8611 N   0  0  0  0  0  0  0  0  0  0  0  0
   21.7156  -16.7205  -17.4331 C   0  0  0  0  0  0  0  0  0  0  0  0
   21.2098  -16.8528  -18.5779 O   0  0  0  0  0  0  0  0  0  0  0  0
   18.3412  -15.5343  -16.3742 C   0  0  0  0  0  0  0  0  0  0  0  0
   19.2595  -14.3309  -16.3833 C   0  0  1  0  0  0  0  0  0  0  0  0
   19.7479  -14.1524  -15.0920 O   0  0  0  0  0  0  0  0  0  0  0  0
   20.4605  -14.5740  -17.2945 C   0  0  2  0  0  0  0  0  0  0  0  0
   21.3656  -15.5458  -16.7155 N   0  0  0  0  0  0  0  0  0  0  0  0
   21.1379  -13.2953  -17.5608 C   0  0  0  0  0  0  0  0  0  0  0  0
   20.5718  -12.3160  -18.1181 O   0  0  0  0  0  0  0  0  0  0  0  0
   22.4644  -13.1573  -17.1813 O   0  0  0  0  0  0  0  0  0  0  0  0
  2  1  1  0
  3  2  1  0
  3  4  1  6
  5  3  1  0
  5  7  1  0
  5  6  1  1
  7  8  2  0
  9 10  1  0
  9  7  1  0
 11 12  1  0
 10 11  1  6
 12 13  1  0
 13 14  1  0
 14 15  1  0
 16 10  1  0
 17 16  2  0
 19 18  1  1
 19 21  1  0
 20 19  1  0
 21 22  1  1
 21 23  1  0
 22 16  1  0
 23 25  1  0
 24 23  2  0
M  END
$$$$
