PPF.pdb
     RDKit          3D

 26 28  0  0  1  0  0  0  0  0999 V2000
    9.8705  -17.4277   18.0345 N   0  0  0  0  0  0  0  0  0  0  0  0
    9.1436  -18.1221   16.9474 C   0  0  0  0  0  0  0  0  0  0  0  0
    7.9647  -18.7109   17.6509 C   0  0  0  0  0  0  0  0  0  0  0  0
    7.6505  -17.7111   18.7425 C   0  0  0  0  0  0  0  0  0  0  0  0
    8.8042  -16.7152   18.6448 C   0  0  1  0  0  0  0  0  0  0  0  0
    9.1281  -16.0797   19.9309 C   0  0  0  0  0  0  0  0  0  0  0  0
    9.9195  -16.7806   20.6629 O   0  0  0  0  0  0  0  0  0  0  0  0
    8.6441  -14.8408   20.3450 N   0  0  0  0  0  0  0  0  0  0  0  0
    8.4251  -13.6671   19.4589 C   0  0  0  0  0  0  0  0  0  0  0  0
    7.1258  -13.0409   20.0224 C   0  0  0  0  0  0  0  0  0  0  0  0
    6.7423  -13.9577   21.2022 C   0  0  0  0  0  0  0  0  0  0  0  0
    8.1696  -14.3720   21.5966 C   0  0  1  0  0  0  0  0  0  0  0  0
    8.2613  -15.1714   22.7858 C   0  0  0  0  0  0  0  0  0  0  0  0
    7.5217  -16.1533   23.0128 O   0  0  0  0  0  0  0  0  0  0  0  0
    9.2379  -14.8776   23.8126 N   0  0  0  0  0  0  0  0  0  0  0  0
    8.9674  -15.2796   25.1674 C   0  0  1  0  0  0  0  0  0  0  0  0
    7.4925  -15.0735   25.5019 C   0  0  0  0  0  0  0  0  0  0  0  0
    7.2841  -13.7163   26.0490 C   0  0  0  0  0  0  0  0  0  0  0  0
    6.0187  -13.2275   26.2736 C   0  0  0  0  0  0  0  0  0  0  0  0
    5.8335  -11.9416   26.7898 C   0  0  0  0  0  0  0  0  0  0  0  0
    6.9270  -11.1554   27.0769 C   0  0  0  0  0  0  0  0  0  0  0  0
    8.1898  -11.6348   26.8562 C   0  0  0  0  0  0  0  0  0  0  0  0
    8.3751  -12.9049   26.3462 C   0  0  0  0  0  0  0  0  0  0  0  0
    9.3492  -16.6835   25.4156 C   0  0  0  0  0  0  0  0  0  0  0  0
    9.1997  -17.1985   26.5362 O   0  0  0  0  0  0  0  0  0  0  0  0
    9.8879  -17.4475   24.3737 O   0  0  0  0  0  0  0  0  0  0  0  0
  1  2  1  0
  3  2  1  0
  4  5  1  0
  4  3  1  0
  5  1  1  0
  5  6  1  1
  7  6  2  0
  8  6  1  0
  8 12  1  0
  9 10  1  0
  9  8  1  0
 10 11  1  0
 11 12  1  0
 12 13  1  1
 13 14  2  0
 15 16  1  0
 15 13  1  0
 16 24  1  0
 16 17  1  6
 18 17  1  0
 19 18  2  0
 20 19  1  0
 21 22  1  0
 21 20  2  0
 22 23  2  0
 23 18  1  0
 24 25  2  0
 24 26  1  0
M  END
$$$$
