PPF.pdb
     RDKit          3D

 26 28  0  0  1  0  0  0  0  0999 V2000
    8.0721  -15.0808   18.5154 N   0  0  0  0  0  0  0  0  0  0  0  0
    8.1441  -14.0946   17.4133 C   0  0  0  0  0  0  0  0  0  0  0  0
    7.6253  -12.8438   18.0440 C   0  0  0  0  0  0  0  0  0  0  0  0
    8.0781  -12.9429   19.4845 C   0  0  0  0  0  0  0  0  0  0  0  0
    8.6836  -14.3427   19.5634 C   0  0  1  0  0  0  0  0  0  0  0  0
    8.5750  -14.9435   20.9013 C   0  0  0  0  0  0  0  0  0  0  0  0
    9.4487  -14.4997   21.7339 O   0  0  0  0  0  0  0  0  0  0  0  0
    7.6294  -15.8998   21.2646 N   0  0  0  0  0  0  0  0  0  0  0  0
    6.4289  -16.2635   20.4663 C   0  0  0  0  0  0  0  0  0  0  0  0
    6.3237  -17.7948   20.6704 C   0  0  0  0  0  0  0  0  0  0  0  0
    7.5129  -18.1384   21.5910 C   0  0  0  0  0  0  0  0  0  0  0  0
    7.5577  -16.8044   22.3544 C   0  0  1  0  0  0  0  0  0  0  0  0
    8.4997  -16.7577   23.4371 C   0  0  0  0  0  0  0  0  0  0  0  0
    9.7097  -17.0442   23.3083 O   0  0  0  0  0  0  0  0  0  0  0  0
    8.0910  -16.3675   24.7694 N   0  0  0  0  0  0  0  0  0  0  0  0
    9.0983  -16.1714   25.7781 C   0  0  1  0  0  0  0  0  0  0  0  0
    9.5460  -14.7125   25.8100 C   0  0  0  0  0  0  0  0  0  0  0  0
    8.4178  -13.8473   26.2143 C   0  0  0  0  0  0  0  0  0  0  0  0
    7.3761  -13.5905   25.3545 C   0  0  0  0  0  0  0  0  0  0  0  0
    6.3150  -12.7693   25.7470 C   0  0  0  0  0  0  0  0  0  0  0  0
    6.3109  -12.2114   27.0060 C   0  0  0  0  0  0  0  0  0  0  0  0
    7.3442  -12.4623   27.8676 C   0  0  0  0  0  0  0  0  0  0  0  0
    8.3935  -13.2733   27.4819 C   0  0  0  0  0  0  0  0  0  0  0  0
    8.6309  -16.5845   27.1157 C   0  0  0  0  0  0  0  0  0  0  0  0
    9.3883  -16.5418   28.0994 O   0  0  0  0  0  0  0  0  0  0  0  0
    7.3146  -17.0315   27.2800 O   0  0  0  0  0  0  0  0  0  0  0  0
  1  2  1  0
  3  2  1  0
  4  5  1  0
  4  3  1  0
  5  1  1  0
  5  6  1  1
  7  6  2  0
  8  6  1  0
  8 12  1  0
  9 10  1  0
  9  8  1  0
 10 11  1  0
 11 12  1  0
 12 13  1  1
 13 14  2  0
 15 16  1  0
 15 13  1  0
 16 24  1  0
 16 17  1  1
 18 17  1  0
 19 18  2  0
 20 19  1  0
 21 22  1  0
 21 20  2  0
 22 23  2  0
 23 18  1  0
 24 25  2  0
 24 26  1  0
M  END
$$$$
