PPF.pdb
     RDKit          3D

 26 28  0  0  1  0  0  0  0  0999 V2000
   10.0941  -17.1378   18.5046 N   0  0  0  0  0  0  0  0  0  0  0  0
    9.3862  -17.9705   17.5056 C   0  0  0  0  0  0  0  0  0  0  0  0
    8.7716  -19.0481   18.3378 C   0  0  0  0  0  0  0  0  0  0  0  0
    8.4509  -18.3631   19.6485 C   0  0  0  0  0  0  0  0  0  0  0  0
    9.0732  -16.9787   19.4790 C   0  0  1  0  0  0  0  0  0  0  0  0
    9.5064  -16.3814   20.7512 C   0  0  0  0  0  0  0  0  0  0  0  0
   10.7595  -16.5415   20.9909 O   0  0  0  0  0  0  0  0  0  0  0  0
    8.6682  -15.7009   21.6315 N   0  0  0  0  0  0  0  0  0  0  0  0
    7.6498  -14.6920   21.2371 C   0  0  0  0  0  0  0  0  0  0  0  0
    6.4766  -14.9822   22.2051 C   0  0  0  0  0  0  0  0  0  0  0  0
    6.9772  -16.1593   23.0674 C   0  0  0  0  0  0  0  0  0  0  0  0
    8.4724  -15.8019   23.0324 C   0  0  1  0  0  0  0  0  0  0  0  0
    9.3116  -16.6277   23.8542 C   0  0  0  0  0  0  0  0  0  0  0  0
    9.4445  -17.8588   23.6824 O   0  0  0  0  0  0  0  0  0  0  0  0
   10.0682  -16.0676   24.9534 N   0  0  0  0  0  0  0  0  0  0  0  0
   10.9820  -16.9143   25.6736 C   0  0  1  0  0  0  0  0  0  0  0  0
   11.9996  -16.0730   26.4395 C   0  0  0  0  0  0  0  0  0  0  0  0
   11.3089  -15.2362   27.4433 C   0  0  0  0  0  0  0  0  0  0  0  0
   11.3810  -15.5308   28.7844 C   0  0  0  0  0  0  0  0  0  0  0  0
   10.7224  -14.7332   29.7248 C   0  0  0  0  0  0  0  0  0  0  0  0
    9.9941  -13.6419   29.3065 C   0  0  0  0  0  0  0  0  0  0  0  0
    9.9176  -13.3421   27.9733 C   0  0  0  0  0  0  0  0  0  0  0  0
   10.5675  -14.1288   27.0425 C   0  0  0  0  0  0  0  0  0  0  0  0
   10.2811  -17.8245   26.6001 C   0  0  0  0  0  0  0  0  0  0  0  0
   10.9125  -18.6222   27.3130 O   0  0  0  0  0  0  0  0  0  0  0  0
    8.8838  -17.7897   26.6778 O   0  0  0  0  0  0  0  0  0  0  0  0
  1  2  1  0
  3  2  1  0
  4  5  1  0
  4  3  1  0
  5  1  1  0
  5  6  1  1
  7  6  2  0
  8  6  1  0
  8 12  1  0
  9 10  1  0
  9  8  1  0
 10 11  1  0
 11 12  1  0
 12 13  1  6
 13 14  2  0
 15 16  1  0
 15 13  1  0
 16 24  1  0
 16 17  1  1
 18 17  1  0
 19 18  2  0
 20 19  1  0
 21 22  1  0
 21 20  2  0
 22 23  2  0
 23 18  1  0
 24 25  2  0
 24 26  1  0
M  END
$$$$
