PPF.pdb
     RDKit          3D

 26 28  0  0  1  0  0  0  0  0999 V2000
    7.8630  -13.1240   18.7722 N   0  0  0  0  0  0  0  0  0  0  0  0
    8.3364  -13.1740   17.3701 C   0  0  0  0  0  0  0  0  0  0  0  0
    9.5801  -13.9962   17.4620 C   0  0  0  0  0  0  0  0  0  0  0  0
    9.2916  -14.9764   18.5783 C   0  0  0  0  0  0  0  0  0  0  0  0
    7.9475  -14.4977   19.1230 C   0  0  1  0  0  0  0  0  0  0  0  0
    7.7659  -14.7935   20.5521 C   0  0  0  0  0  0  0  0  0  0  0  0
    8.4486  -14.0248   21.3244 O   0  0  0  0  0  0  0  0  0  0  0  0
    6.9417  -15.7986   21.0532 N   0  0  0  0  0  0  0  0  0  0  0  0
    5.6629  -16.2433   20.4388 C   0  0  0  0  0  0  0  0  0  0  0  0
    5.6806  -17.7752   20.6641 C   0  0  0  0  0  0  0  0  0  0  0  0
    7.0084  -18.0354   21.4050 C   0  0  0  0  0  0  0  0  0  0  0  0
    7.0822  -16.6905   22.1468 C   0  0  1  0  0  0  0  0  0  0  0  0
    8.1657  -16.5735   23.0817 C   0  0  0  0  0  0  0  0  0  0  0  0
    9.3230  -16.9839   22.8476 O   0  0  0  0  0  0  0  0  0  0  0  0
    7.9736  -15.9597   24.3781 N   0  0  0  0  0  0  0  0  0  0  0  0
    9.1006  -15.8341   25.2638 C   0  0  1  0  0  0  0  0  0  0  0  0
    9.5137  -14.3709   25.3993 C   0  0  0  0  0  0  0  0  0  0  0  0
    8.4045  -13.5853   25.9801 C   0  0  0  0  0  0  0  0  0  0  0  0
    8.5597  -12.9060   27.1654 C   0  0  0  0  0  0  0  0  0  0  0  0
    7.5032  -12.1674   27.7063 C   0  0  0  0  0  0  0  0  0  0  0  0
    6.2950  -12.1182   27.0476 C   0  0  0  0  0  0  0  0  0  0  0  0
    6.1326  -12.7916   25.8672 C   0  0  0  0  0  0  0  0  0  0  0  0
    7.1751  -13.5220   25.3311 C   0  0  0  0  0  0  0  0  0  0  0  0
    8.8245  -16.4053   26.5964 C   0  0  0  0  0  0  0  0  0  0  0  0
    7.6877  -16.8054   26.8978 O   0  0  0  0  0  0  0  0  0  0  0  0
    9.8581  -16.4985   27.5358 O   0  0  0  0  0  0  0  0  0  0  0  0
  1  2  1  0
  3  2  1  0
  4  5  1  0
  4  3  1  0
  5  1  1  0
  5  6  1  1
  7  6  2  0
  8  6  1  0
  8 12  1  0
  9 10  1  0
  9  8  1  0
 10 11  1  0
 11 12  1  0
 12 13  1  6
 13 14  2  0
 15 16  1  0
 15 13  1  0
 16 24  1  0
 16 17  1  1
 18 17  1  0
 19 18  2  0
 20 19  1  0
 21 22  1  0
 21 20  2  0
 22 23  2  0
 23 18  1  0
 24 25  2  0
 24 26  1  0
M  END
$$$$
