PPF.pdb
     RDKit          3D

 26 28  0  0  1  0  0  0  0  0999 V2000
    7.5113  -14.7092   18.9800 N   0  0  0  0  0  0  0  0  0  0  0  0
    7.6719  -13.4599   18.2017 C   0  0  0  0  0  0  0  0  0  0  0  0
    7.9300  -12.4346   19.2569 C   0  0  0  0  0  0  0  0  0  0  0  0
    8.6905  -13.1895   20.3253 C   0  0  0  0  0  0  0  0  0  0  0  0
    8.6475  -14.6331   19.8288 C   0  0  1  0  0  0  0  0  0  0  0  0
    8.6845  -15.6195   20.9190 C   0  0  0  0  0  0  0  0  0  0  0  0
    8.0824  -15.2264   21.9851 O   0  0  0  0  0  0  0  0  0  0  0  0
    9.3004  -16.8662   20.8371 N   0  0  0  0  0  0  0  0  0  0  0  0
    9.1680  -17.8138   19.6990 C   0  0  0  0  0  0  0  0  0  0  0  0
   10.5888  -18.4178   19.5794 C   0  0  0  0  0  0  0  0  0  0  0  0
   11.3924  -17.7241   20.6987 C   0  0  0  0  0  0  0  0  0  0  0  0
   10.2261  -17.5302   21.6819 C   0  0  1  0  0  0  0  0  0  0  0  0
   10.5961  -16.9967   22.9626 C   0  0  0  0  0  0  0  0  0  0  0  0
   11.3880  -16.0401   23.1060 O   0  0  0  0  0  0  0  0  0  0  0  0
   10.0605  -17.5501   24.1878 N   0  0  0  0  0  0  0  0  0  0  0  0
   10.2925  -16.8554   25.4263 C   0  0  1  0  0  0  0  0  0  0  0  0
    9.7070  -15.4470   25.3671 C   0  0  0  0  0  0  0  0  0  0  0  0
    9.8203  -14.7975   26.6901 C   0  0  0  0  0  0  0  0  0  0  0  0
    8.7641  -14.1061   27.2348 C   0  0  0  0  0  0  0  0  0  0  0  0
    8.8832  -13.4944   28.4861 C   0  0  0  0  0  0  0  0  0  0  0  0
   10.0683  -13.5839   29.1816 C   0  0  0  0  0  0  0  0  0  0  0  0
   11.1243  -14.2705   28.6462 C   0  0  0  0  0  0  0  0  0  0  0  0
   11.0088  -14.8755   27.4100 C   0  0  0  0  0  0  0  0  0  0  0  0
    9.7364  -17.5842   26.5830 C   0  0  0  0  0  0  0  0  0  0  0  0
   10.4244  -17.7986   27.5949 O   0  0  0  0  0  0  0  0  0  0  0  0
    8.4140  -18.0413   26.5409 O   0  0  0  0  0  0  0  0  0  0  0  0
  1  2  1  0
  3  2  1  0
  4  5  1  0
  4  3  1  0
  5  1  1  0
  5  6  1  1
  7  6  2  0
  8  6  1  0
  8 12  1  0
  9 10  1  0
  9  8  1  0
 10 11  1  0
 11 12  1  0
 12 13  1  1
 13 14  2  0
 15 16  1  0
 15 13  1  0
 16 24  1  0
 16 17  1  6
 18 17  1  0
 19 18  2  0
 20 19  1  0
 21 22  1  0
 21 20  2  0
 22 23  2  0
 23 18  1  0
 24 25  2  0
 24 26  1  0
M  END
$$$$
