PPF.pdb
     RDKit          3D

 26 28  0  0  1  0  0  0  0  0999 V2000
   11.5194  -17.2779   19.2020 N   0  0  0  0  0  0  0  0  0  0  0  0
   11.4208  -18.2885   18.1243 C   0  0  0  0  0  0  0  0  0  0  0  0
   10.4977  -19.3108   18.7026 C   0  0  0  0  0  0  0  0  0  0  0  0
    9.5525  -18.5057   19.5677 C   0  0  0  0  0  0  0  0  0  0  0  0
   10.1459  -17.0994   19.5159 C   0  0  1  0  0  0  0  0  0  0  0  0
    9.8757  -16.3143   20.7297 C   0  0  0  0  0  0  0  0  0  0  0  0
   10.8389  -16.3410   21.5812 O   0  0  0  0  0  0  0  0  0  0  0  0
    8.7036  -15.5991   20.9645 N   0  0  0  0  0  0  0  0  0  0  0  0
    7.9911  -14.7682   19.9582 C   0  0  0  0  0  0  0  0  0  0  0  0
    6.4995  -15.0288   20.2820 C   0  0  0  0  0  0  0  0  0  0  0  0
    6.5344  -16.0081   21.4734 C   0  0  0  0  0  0  0  0  0  0  0  0
    7.8504  -15.5103   22.0939 C   0  0  1  0  0  0  0  0  0  0  0  0
    8.1949  -16.1158   23.3494 C   0  0  0  0  0  0  0  0  0  0  0  0
    8.4344  -17.3356   23.4816 O   0  0  0  0  0  0  0  0  0  0  0  0
    8.2859  -15.3291   24.5606 N   0  0  0  0  0  0  0  0  0  0  0  0
    8.7041  -15.9706   25.7788 C   0  0  1  0  0  0  0  0  0  0  0  0
    8.9481  -14.9341   26.8724 C   0  0  0  0  0  0  0  0  0  0  0  0
    7.8998  -13.8932   26.8239 C   0  0  0  0  0  0  0  0  0  0  0  0
    6.5713  -14.2156   26.9707 C   0  0  0  0  0  0  0  0  0  0  0  0
    5.5882  -13.2230   26.9215 C   0  0  0  0  0  0  0  0  0  0  0  0
    5.9513  -11.9094   26.7241 C   0  0  0  0  0  0  0  0  0  0  0  0
    7.2716  -11.5804   26.5771 C   0  0  0  0  0  0  0  0  0  0  0  0
    8.2445  -12.5595   26.6255 C   0  0  0  0  0  0  0  0  0  0  0  0
    7.7238  -16.9716   26.2428 C   0  0  0  0  0  0  0  0  0  0  0  0
    6.5867  -17.0314   25.7461 O   0  0  0  0  0  0  0  0  0  0  0  0
    8.0791  -17.8678   27.2577 O   0  0  0  0  0  0  0  0  0  0  0  0
  1  2  1  0
  3  2  1  0
  4  5  1  0
  4  3  1  0
  5  1  1  0
  5  6  1  1
  7  6  2  0
  8  6  1  0
  8 12  1  0
  9 10  1  0
  9  8  1  0
 10 11  1  0
 11 12  1  0
 12 13  1  1
 13 14  2  0
 15 16  1  0
 15 13  1  0
 16 24  1  0
 16 17  1  1
 18 17  1  0
 19 18  2  0
 20 19  1  0
 21 22  1  0
 21 20  2  0
 22 23  2  0
 23 18  1  0
 24 25  2  0
 24 26  1  0
M  END
$$$$
