PPF.pdb
     RDKit          3D

 26 28  0  0  1  0  0  0  0  0999 V2000
    9.6545  -17.7982   18.7667 N   0  0  0  0  0  0  0  0  0  0  0  0
    8.8814  -18.6629   17.8464 C   0  0  0  0  0  0  0  0  0  0  0  0
    7.7889  -19.1921   18.7170 C   0  0  0  0  0  0  0  0  0  0  0  0
    7.5109  -18.0633   19.6857 C   0  0  0  0  0  0  0  0  0  0  0  0
    8.6046  -17.0483   19.3604 C   0  0  1  0  0  0  0  0  0  0  0  0
    8.9943  -16.2293   20.5181 C   0  0  0  0  0  0  0  0  0  0  0  0
    9.8587  -16.7997   21.2804 O   0  0  0  0  0  0  0  0  0  0  0  0
    8.4971  -14.9568   20.7901 N   0  0  0  0  0  0  0  0  0  0  0  0
    7.9388  -14.0212   19.7784 C   0  0  0  0  0  0  0  0  0  0  0  0
    6.7603  -13.3552   20.5303 C   0  0  0  0  0  0  0  0  0  0  0  0
    6.7838  -14.0075   21.9281 C   0  0  0  0  0  0  0  0  0  0  0  0
    8.3006  -14.2487   22.0030 C   0  0  1  0  0  0  0  0  0  0  0  0
    8.7711  -14.7594   23.2598 C   0  0  0  0  0  0  0  0  0  0  0  0
    9.8881  -14.4739   23.7430 O   0  0  0  0  0  0  0  0  0  0  0  0
    7.9592  -15.6547   24.0558 N   0  0  0  0  0  0  0  0  0  0  0  0
    8.4132  -16.0246   25.3702 C   0  0  1  0  0  0  0  0  0  0  0  0
    7.3381  -15.7247   26.4113 C   0  0  0  0  0  0  0  0  0  0  0  0
    7.2436  -14.2663   26.6332 C   0  0  0  0  0  0  0  0  0  0  0  0
    8.3634  -13.5143   26.8994 C   0  0  0  0  0  0  0  0  0  0  0  0
    8.2618  -12.1359   27.1092 C   0  0  0  0  0  0  0  0  0  0  0  0
    7.0299  -11.5234   27.0490 C   0  0  0  0  0  0  0  0  0  0  0  0
    5.9106  -12.2652   26.7844 C   0  0  0  0  0  0  0  0  0  0  0  0
    6.0086  -13.6271   26.5769 C   0  0  0  0  0  0  0  0  0  0  0  0
    8.8020  -17.4465   25.4423 C   0  0  0  0  0  0  0  0  0  0  0  0
    9.3131  -17.9185   26.4715 O   0  0  0  0  0  0  0  0  0  0  0  0
    8.5923  -18.2771   24.3353 O   0  0  0  0  0  0  0  0  0  0  0  0
  1  2  1  0
  3  2  1  0
  4  5  1  0
  4  3  1  0
  5  1  1  0
  5  6  1  1
  7  6  2  0
  8  6  1  0
  8 12  1  0
  9 10  1  0
  9  8  1  0
 10 11  1  0
 11 12  1  0
 12 13  1  1
 13 14  2  0
 15 16  1  0
 15 13  1  0
 16 24  1  0
 16 17  1  1
 18 17  1  0
 19 18  2  0
 20 19  1  0
 21 22  1  0
 21 20  2  0
 22 23  2  0
 23 18  1  0
 24 25  2  0
 24 26  1  0
M  END
$$$$
