PPF.pdb
     RDKit          3D

 26 28  0  0  1  0  0  0  0  0999 V2000
    7.6096  -13.2153   18.8128 N   0  0  0  0  0  0  0  0  0  0  0  0
    8.1881  -13.1079   17.4540 C   0  0  0  0  0  0  0  0  0  0  0  0
    9.6036  -13.5412   17.6537 C   0  0  0  0  0  0  0  0  0  0  0  0
    9.5194  -14.5785   18.7523 C   0  0  0  0  0  0  0  0  0  0  0  0
    8.0555  -14.5121   19.1822 C   0  0  1  0  0  0  0  0  0  0  0  0
    7.8524  -14.8676   20.5947 C   0  0  0  0  0  0  0  0  0  0  0  0
    8.2877  -13.9772   21.4140 O   0  0  0  0  0  0  0  0  0  0  0  0
    7.2497  -16.0435   21.0356 N   0  0  0  0  0  0  0  0  0  0  0  0
    6.0953  -16.7125   20.3794 C   0  0  0  0  0  0  0  0  0  0  0  0
    6.4273  -18.2168   20.5359 C   0  0  0  0  0  0  0  0  0  0  0  0
    7.7743  -18.2328   21.2877 C   0  0  0  0  0  0  0  0  0  0  0  0
    7.5627  -16.9384   22.0904 C   0  0  1  0  0  0  0  0  0  0  0  0
    8.5911  -16.6453   23.0486 C   0  0  0  0  0  0  0  0  0  0  0  0
    9.7990  -16.9081   22.8627 O   0  0  0  0  0  0  0  0  0  0  0  0
    8.2791  -16.0144   24.3131 N   0  0  0  0  0  0  0  0  0  0  0  0
    9.3523  -15.6976   25.2177 C   0  0  1  0  0  0  0  0  0  0  0  0
    9.5246  -14.1854   25.3341 C   0  0  0  0  0  0  0  0  0  0  0  0
    8.2978  -13.5795   25.8935 C   0  0  0  0  0  0  0  0  0  0  0  0
    8.2296  -13.2043   27.2144 C   0  0  0  0  0  0  0  0  0  0  0  0
    7.0635  -12.6337   27.7330 C   0  0  0  0  0  0  0  0  0  0  0  0
    5.9719  -12.4446   26.9152 C   0  0  0  0  0  0  0  0  0  0  0  0
    6.0320  -12.8154   25.5992 C   0  0  0  0  0  0  0  0  0  0  0  0
    7.1830  -13.3794   25.0847 C   0  0  0  0  0  0  0  0  0  0  0  0
    9.1416  -16.2853   26.5550 C   0  0  0  0  0  0  0  0  0  0  0  0
    8.0567  -16.8076   26.8605 O   0  0  0  0  0  0  0  0  0  0  0  0
   10.1790  -16.2546   27.4944 O   0  0  0  0  0  0  0  0  0  0  0  0
  1  2  1  0
  3  2  1  0
  4  5  1  0
  4  3  1  0
  5  1  1  0
  5  6  1  1
  7  6  2  0
  8  6  1  0
  8 12  1  0
  9 10  1  0
  9  8  1  0
 10 11  1  0
 11 12  1  0
 12 13  1  6
 13 14  2  0
 15 16  1  0
 15 13  1  0
 16 24  1  0
 16 17  1  1
 18 17  1  0
 19 18  2  0
 20 19  1  0
 21 22  1  0
 21 20  2  0
 22 23  2  0
 23 18  1  0
 24 25  2  0
 24 26  1  0
M  END
$$$$
