PPF.pdb
     RDKit          3D

 26 28  0  0  1  0  0  0  0  0999 V2000
    9.5882  -17.2426   18.3674 N   0  0  0  0  0  0  0  0  0  0  0  0
    8.7762  -17.8572   17.2926 C   0  0  0  0  0  0  0  0  0  0  0  0
    7.9395  -18.8526   18.0277 C   0  0  0  0  0  0  0  0  0  0  0  0
    7.7022  -18.2091   19.3766 C   0  0  0  0  0  0  0  0  0  0  0  0
    8.5782  -16.9592   19.3249 C   0  0  1  0  0  0  0  0  0  0  0  0
    9.0661  -16.5416   20.6479 C   0  0  0  0  0  0  0  0  0  0  0  0
   10.1914  -17.0743   20.9697 O   0  0  0  0  0  0  0  0  0  0  0  0
    8.4007  -15.6565   21.4931 N   0  0  0  0  0  0  0  0  0  0  0  0
    7.5744  -14.5037   21.0470 C   0  0  0  0  0  0  0  0  0  0  0  0
    6.4026  -14.5007   22.0592 C   0  0  0  0  0  0  0  0  0  0  0  0
    6.7058  -15.6885   22.9956 C   0  0  0  0  0  0  0  0  0  0  0  0
    8.2391  -15.6219   22.9016 C   0  0  1  0  0  0  0  0  0  0  0  0
    8.9386  -16.5321   23.7641 C   0  0  0  0  0  0  0  0  0  0  0  0
    8.7554  -17.7686   23.7521 O   0  0  0  0  0  0  0  0  0  0  0  0
    9.9177  -16.0574   24.7182 N   0  0  0  0  0  0  0  0  0  0  0  0
   10.6142  -17.0141   25.5368 C   0  0  1  0  0  0  0  0  0  0  0  0
   11.7215  -16.3299   26.3342 C   0  0  0  0  0  0  0  0  0  0  0  0
   11.1332  -15.3778   27.2998 C   0  0  0  0  0  0  0  0  0  0  0  0
   11.1505  -15.6343   28.6504 C   0  0  0  0  0  0  0  0  0  0  0  0
   10.5897  -14.7273   29.5545 C   0  0  0  0  0  0  0  0  0  0  0  0
   10.0142  -13.5656   29.0902 C   0  0  0  0  0  0  0  0  0  0  0  0
    9.9931  -13.3031   27.7472 C   0  0  0  0  0  0  0  0  0  0  0  0
   10.5466  -14.1978   26.8523 C   0  0  0  0  0  0  0  0  0  0  0  0
    9.7025  -17.7287   26.4513 C   0  0  0  0  0  0  0  0  0  0  0  0
   10.1183  -18.6401   27.1860 O   0  0  0  0  0  0  0  0  0  0  0  0
    8.3486  -17.3755   26.4926 O   0  0  0  0  0  0  0  0  0  0  0  0
  1  2  1  0
  3  2  1  0
  4  5  1  0
  4  3  1  0
  5  1  1  0
  5  6  1  1
  7  6  2  0
  8  6  1  0
  8 12  1  0
  9 10  1  0
  9  8  1  0
 10 11  1  0
 11 12  1  0
 12 13  1  1
 13 14  2  0
 15 16  1  0
 15 13  1  0
 16 24  1  0
 16 17  1  1
 18 17  1  0
 19 18  2  0
 20 19  1  0
 21 22  1  0
 21 20  2  0
 22 23  2  0
 23 18  1  0
 24 25  2  0
 24 26  1  0
M  END
$$$$
