PPF.pdb
     RDKit          3D

 26 28  0  0  1  0  0  0  0  0999 V2000
    8.0959  -14.9496   18.3755 N   0  0  0  0  0  0  0  0  0  0  0  0
    8.0229  -13.9696   17.2680 C   0  0  0  0  0  0  0  0  0  0  0  0
    7.5085  -12.7382   17.9392 C   0  0  0  0  0  0  0  0  0  0  0  0
    8.0950  -12.8063   19.3325 C   0  0  0  0  0  0  0  0  0  0  0  0
    8.7670  -14.1774   19.3606 C   0  0  1  0  0  0  0  0  0  0  0  0
    8.8080  -14.7723   20.7049 C   0  0  0  0  0  0  0  0  0  0  0  0
    9.6609  -14.2114   21.4868 O   0  0  0  0  0  0  0  0  0  0  0  0
    8.0134  -15.8374   21.1231 N   0  0  0  0  0  0  0  0  0  0  0  0
    6.8915  -16.4261   20.3450 C   0  0  0  0  0  0  0  0  0  0  0  0
    7.0165  -17.9406   20.6420 C   0  0  0  0  0  0  0  0  0  0  0  0
    8.2326  -18.0441   21.5855 C   0  0  0  0  0  0  0  0  0  0  0  0
    8.0659  -16.6754   22.2660 C   0  0  1  0  0  0  0  0  0  0  0  0
    8.9767  -16.4216   23.3467 C   0  0  0  0  0  0  0  0  0  0  0  0
   10.1872  -16.1592   23.1781 O   0  0  0  0  0  0  0  0  0  0  0  0
    8.5335  -16.4566   24.7238 N   0  0  0  0  0  0  0  0  0  0  0  0
    9.4578  -16.0879   25.7632 C   0  0  1  0  0  0  0  0  0  0  0  0
    9.6805  -14.5778   25.7696 C   0  0  0  0  0  0  0  0  0  0  0  0
    8.4357  -13.8861   26.1658 C   0  0  0  0  0  0  0  0  0  0  0  0
    8.3369  -13.2384   27.3746 C   0  0  0  0  0  0  0  0  0  0  0  0
    7.1541  -12.5887   27.7396 C   0  0  0  0  0  0  0  0  0  0  0  0
    6.0766  -12.5962   26.8821 C   0  0  0  0  0  0  0  0  0  0  0  0
    6.1671  -13.2387   25.6770 C   0  0  0  0  0  0  0  0  0  0  0  0
    7.3348  -13.8812   25.3145 C   0  0  0  0  0  0  0  0  0  0  0  0
    9.0030  -16.5359   27.0938 C   0  0  0  0  0  0  0  0  0  0  0  0
    7.8971  -17.0823   27.2414 O   0  0  0  0  0  0  0  0  0  0  0  0
    9.8290  -16.3431   28.2074 O   0  0  0  0  0  0  0  0  0  0  0  0
  1  2  1  0
  3  2  1  0
  4  5  1  0
  4  3  1  0
  5  1  1  0
  5  6  1  1
  7  6  2  0
  8  6  1  0
  8 12  1  0
  9 10  1  0
  9  8  1  0
 10 11  1  0
 11 12  1  0
 12 13  1  1
 13 14  2  0
 15 16  1  0
 15 13  1  0
 16 24  1  0
 16 17  1  1
 18 17  1  0
 19 18  2  0
 20 19  1  0
 21 22  1  0
 21 20  2  0
 22 23  2  0
 23 18  1  0
 24 25  2  0
 24 26  1  0
M  END
$$$$
