FNN.pdb
     RDKit          3D

 28 28  0  0  1  0  0  0  0  0999 V2000
   15.9603  -10.3216  -14.5424 N   0  0  0  0  0  0  0  0  0  0  0  0
   17.2804   -9.9135  -14.1696 C   0  0  1  0  0  0  0  0  0  0  0  0
   18.1804   -9.9899  -15.3671 C   0  0  0  0  0  0  0  0  0  0  0  0
   18.3306  -11.3985  -15.8016 C   0  0  0  0  0  0  0  0  0  0  0  0
   17.5663  -11.9053  -16.8463 C   0  0  0  0  0  0  0  0  0  0  0  0
   17.7344  -13.2214  -17.2210 C   0  0  0  0  0  0  0  0  0  0  0  0
   18.6511  -14.0371  -16.5708 C   0  0  0  0  0  0  0  0  0  0  0  0
   19.4088  -13.5293  -15.5328 C   0  0  0  0  0  0  0  0  0  0  0  0
   19.2352  -12.2067  -15.1612 C   0  0  0  0  0  0  0  0  0  0  0  0
   17.3161   -8.6056  -13.4936 C   0  0  0  0  0  0  0  0  0  0  0  0
   16.6329   -7.6555  -13.9562 O   0  0  0  0  0  0  0  0  0  0  0  0
   18.5458   -4.5781  -10.2042 N   0  0  0  0  0  0  0  0  0  0  0  0
   18.1507   -5.7768   -9.5627 C   0  0  0  0  0  0  0  0  0  0  0  0
   17.9122   -5.6811   -8.3006 O   0  0  0  0  0  0  0  0  0  0  0  0
   18.0114   -7.0681  -10.2542 C   0  0  0  0  0  0  0  0  0  0  0  0
   18.1467   -7.0124  -11.7213 C   0  0  2  0  0  0  0  0  0  0  0  0
   18.0821   -8.3365  -12.3349 N   0  0  0  0  0  0  0  0  0  0  0  0
   19.3712   -6.3592  -12.1774 C   0  0  0  0  0  0  0  0  0  0  0  0
   20.4725   -7.0278  -12.2429 O   0  0  0  0  0  0  0  0  0  0  0  0
   22.7680   -3.7533  -14.8747 N   0  0  0  0  0  0  0  0  0  0  0  0
   21.9463   -4.8405  -15.3015 C   0  0  0  0  0  0  0  0  0  0  0  0
   22.2224   -5.3489  -16.3931 O   0  0  0  0  0  0  0  0  0  0  0  0
   20.8369   -5.3171  -14.4768 C   0  0  0  0  0  0  0  0  0  0  0  0
   20.7070   -4.5401  -13.1990 C   0  0  2  0  0  0  0  0  0  0  0  0
   19.4322   -5.0134  -12.5651 N   0  0  0  0  0  0  0  0  0  0  0  0
   20.4917   -3.1157  -13.4712 C   0  0  0  0  0  0  0  0  0  0  0  0
   19.3497   -2.6111  -13.4364 O   0  0  0  0  0  0  0  0  0  0  0  0
   21.5360   -2.2752  -13.7749 O   0  0  0  0  0  0  0  0  0  0  0  0
  2  1  1  6
  2  3  1  0
  3  4  1  0
  4  9  2  0
  4  5  1  0
  5  6  2  0
  6  7  1  0
  8  7  2  0
  9  8  1  0
 10  2  1  0
 11 10  2  0
 13 12  1  0
 13 15  1  0
 14 13  2  0
 16 15  1  1
 16 18  1  0
 16 17  1  0
 17 10  1  0
 18 19  2  0
 20 21  1  0
 21 22  2  0
 24 23  1  6
 23 21  1  0
 25 24  1  0
 25 18  1  0
 26 24  1  0
 26 28  1  0
 27 26  2  0
M  END
$$$$
