FNN.pdb
     RDKit          3D

 28 28  0  0  1  0  0  0  0  0999 V2000
   23.9795  -20.4403  -10.5743 N   0  0  0  0  0  0  0  0  0  0  0  0
   25.2329  -20.0082  -11.1136 C   0  0  1  0  0  0  0  0  0  0  0  0
   26.3487  -20.7216  -10.4094 C   0  0  0  0  0  0  0  0  0  0  0  0
   26.4964  -20.1993   -9.0307 C   0  0  0  0  0  0  0  0  0  0  0  0
   26.1309  -20.9725   -7.9349 C   0  0  0  0  0  0  0  0  0  0  0  0
   26.2827  -20.4511   -6.6677 C   0  0  0  0  0  0  0  0  0  0  0  0
   26.7924  -19.1733   -6.4781 C   0  0  0  0  0  0  0  0  0  0  0  0
   27.1545  -18.4081   -7.5702 C   0  0  0  0  0  0  0  0  0  0  0  0
   26.9995  -18.9375   -8.8402 C   0  0  0  0  0  0  0  0  0  0  0  0
   25.3033  -20.1162  -12.5807 C   0  0  0  0  0  0  0  0  0  0  0  0
   24.4417  -20.8027  -13.1888 O   0  0  0  0  0  0  0  0  0  0  0  0
   27.3064  -16.0398  -14.7231 N   0  0  0  0  0  0  0  0  0  0  0  0
   26.6213  -17.1088  -15.3494 C   0  0  0  0  0  0  0  0  0  0  0  0
   25.4798  -16.8120  -15.8671 O   0  0  0  0  0  0  0  0  0  0  0  0
   27.1418  -18.4830  -15.4245 C   0  0  0  0  0  0  0  0  0  0  0  0
   26.2732  -19.5166  -14.8321 C   0  0  2  0  0  0  0  0  0  0  0  0
   26.2943  -19.4884  -13.3717 N   0  0  0  0  0  0  0  0  0  0  0  0
   26.5913  -20.8750  -15.2653 C   0  0  0  0  0  0  0  0  0  0  0  0
   27.6384  -21.4702  -14.8033 O   0  0  0  0  0  0  0  0  0  0  0  0
   26.2235  -26.1757  -15.3446 N   0  0  0  0  0  0  0  0  0  0  0  0
   25.3566  -25.2848  -16.0476 C   0  0  0  0  0  0  0  0  0  0  0  0
   24.7007  -25.7675  -16.9767 O   0  0  0  0  0  0  0  0  0  0  0  0
   25.2607  -23.8742  -15.6750 C   0  0  0  0  0  0  0  0  0  0  0  0
   26.2176  -23.0172  -16.4519 C   0  0  2  0  0  0  0  0  0  0  0  0
   25.8091  -21.6004  -16.1747 N   0  0  0  0  0  0  0  0  0  0  0  0
   26.0267  -23.1939  -17.8947 C   0  0  0  0  0  0  0  0  0  0  0  0
   26.8618  -23.8072  -18.5921 O   0  0  0  0  0  0  0  0  0  0  0  0
   24.9215  -22.6938  -18.5410 O   0  0  0  0  0  0  0  0  0  0  0  0
  2  1  1  1
  2  3  1  0
  3  4  1  0
  4  9  2  0
  4  5  1  0
  5  6  2  0
  6  7  1  0
  8  7  2  0
  9  8  1  0
 10  2  1  0
 11 10  2  0
 13 12  1  0
 13 15  1  0
 14 13  2  0
 16 15  1  6
 16 18  1  0
 16 17  1  0
 17 10  1  0
 18 19  2  0
 20 21  1  0
 21 22  2  0
 24 23  1  1
 23 21  1  0
 25 24  1  0
 25 18  1  0
 26 24  1  0
 26 28  1  0
 27 26  2  0
M  END
$$$$
