FNN.pdb
     RDKit          3D

 28 28  0  0  1  0  0  0  0  0999 V2000
   24.3463  -11.9255  -17.6464 N   0  0  0  0  0  0  0  0  0  0  0  0
   24.4378  -11.0237  -16.5387 C   0  0  1  0  0  0  0  0  0  0  0  0
   25.8097  -10.4184  -16.5034 C   0  0  0  0  0  0  0  0  0  0  0  0
   26.8339  -11.4847  -16.4074 C   0  0  0  0  0  0  0  0  0  0  0  0
   27.5405  -11.8947  -17.5322 C   0  0  0  0  0  0  0  0  0  0  0  0
   28.4852  -12.8904  -17.4025 C   0  0  0  0  0  0  0  0  0  0  0  0
   28.7348  -13.4815  -16.1710 C   0  0  0  0  0  0  0  0  0  0  0  0
   28.0301  -13.0709  -15.0555 C   0  0  0  0  0  0  0  0  0  0  0  0
   27.0827  -12.0705  -15.1923 C   0  0  0  0  0  0  0  0  0  0  0  0
   23.3565  -10.0242  -16.5111 C   0  0  0  0  0  0  0  0  0  0  0  0
   22.8896   -9.5933  -17.5974 O   0  0  0  0  0  0  0  0  0  0  0  0
   19.7844  -10.7080  -16.0867 N   0  0  0  0  0  0  0  0  0  0  0  0
   19.7131  -10.1151  -14.8030 C   0  0  0  0  0  0  0  0  0  0  0  0
   18.7946  -10.5760  -14.0265 O   0  0  0  0  0  0  0  0  0  0  0  0
   20.6080   -9.0399  -14.3468 C   0  0  0  0  0  0  0  0  0  0  0  0
   21.6308   -8.6185  -15.3214 C   0  0  2  0  0  0  0  0  0  0  0  0
   22.7936   -9.5028  -15.3224 N   0  0  0  0  0  0  0  0  0  0  0  0
   22.1014   -7.2489  -15.1293 C   0  0  0  0  0  0  0  0  0  0  0  0
   22.9660   -6.9877  -14.2082 O   0  0  0  0  0  0  0  0  0  0  0  0
   23.0991   -2.1867  -15.4350 N   0  0  0  0  0  0  0  0  0  0  0  0
   22.6670   -2.6701  -16.7074 C   0  0  0  0  0  0  0  0  0  0  0  0
   22.6876   -1.8637  -17.6430 O   0  0  0  0  0  0  0  0  0  0  0  0
   22.2249   -4.0533  -16.8788 C   0  0  0  0  0  0  0  0  0  0  0  0
   22.2474   -4.8188  -15.5877 C   0  0  2  0  0  0  0  0  0  0  0  0
   21.6665   -6.1652  -15.9051 N   0  0  0  0  0  0  0  0  0  0  0  0
   21.3275   -4.2272  -14.6114 C   0  0  0  0  0  0  0  0  0  0  0  0
   20.1073   -4.4935  -14.6213 O   0  0  0  0  0  0  0  0  0  0  0  0
   21.7679   -3.3559  -13.6438 O   0  0  0  0  0  0  0  0  0  0  0  0
  2  1  1  6
  2  3  1  0
  3  4  1  0
  4  9  2  0
  4  5  1  0
  5  6  2  0
  6  7  1  0
  8  7  2  0
  9  8  1  0
 10  2  1  0
 11 10  2  0
 13 12  1  0
 13 15  1  0
 14 13  2  0
 16 15  1  1
 16 18  1  0
 16 17  1  0
 17 10  1  0
 18 19  2  0
 20 21  1  0
 21 22  2  0
 24 23  1  6
 23 21  1  0
 25 24  1  0
 25 18  1  0
 26 24  1  0
 26 28  1  0
 27 26  2  0
M  END
$$$$
