FNN.pdb
     RDKit          3D

 28 28  0  0  1  0  0  0  0  0999 V2000
   23.8850  -10.4201  -15.0282 N   0  0  0  0  0  0  0  0  0  0  0  0
   22.7627   -9.6540  -15.4775 C   0  0  1  0  0  0  0  0  0  0  0  0
   21.5524  -10.5376  -15.5421 C   0  0  0  0  0  0  0  0  0  0  0  0
   21.7094  -11.5370  -16.6246 C   0  0  0  0  0  0  0  0  0  0  0  0
   21.9513  -12.8735  -16.3284 C   0  0  0  0  0  0  0  0  0  0  0  0
   22.0922  -13.7732  -17.3634 C   0  0  0  0  0  0  0  0  0  0  0  0
   21.9956  -13.3607  -18.6859 C   0  0  0  0  0  0  0  0  0  0  0  0
   21.7550  -12.0312  -18.9759 C   0  0  0  0  0  0  0  0  0  0  0  0
   21.6145  -11.1325  -17.9319 C   0  0  0  0  0  0  0  0  0  0  0  0
   22.5478   -8.4238  -14.6969 C   0  0  0  0  0  0  0  0  0  0  0  0
   22.6391   -8.4676  -13.4426 O   0  0  0  0  0  0  0  0  0  0  0  0
   21.3885   -3.4598  -13.1681 N   0  0  0  0  0  0  0  0  0  0  0  0
   21.9018   -3.4914  -14.4872 C   0  0  0  0  0  0  0  0  0  0  0  0
   22.1252   -2.3429  -15.0259 O   0  0  0  0  0  0  0  0  0  0  0  0
   22.1742   -4.7317  -15.2304 C   0  0  0  0  0  0  0  0  0  0  0  0
   21.9708   -5.9775  -14.4687 C   0  0  2  0  0  0  0  0  0  0  0  0
   22.2385   -7.1683  -15.2714 N   0  0  0  0  0  0  0  0  0  0  0  0
   20.6338   -6.1074  -13.8945 C   0  0  0  0  0  0  0  0  0  0  0  0
   19.6765   -6.6108  -14.5977 O   0  0  0  0  0  0  0  0  0  0  0  0
   16.5351   -6.4266  -10.7569 N   0  0  0  0  0  0  0  0  0  0  0  0
   17.7168   -6.2517   -9.9743 C   0  0  0  0  0  0  0  0  0  0  0  0
   17.5729   -6.2423   -8.7473 O   0  0  0  0  0  0  0  0  0  0  0  0
   19.0250   -6.0928  -10.6078 C   0  0  0  0  0  0  0  0  0  0  0  0
   18.9243   -6.0197  -12.1038 C   0  0  2  0  0  0  0  0  0  0  0  0
   20.3107   -5.7134  -12.5885 N   0  0  0  0  0  0  0  0  0  0  0  0
   18.1128   -4.8714  -12.5190 C   0  0  0  0  0  0  0  0  0  0  0  0
   18.6300   -3.7593  -12.7548 O   0  0  0  0  0  0  0  0  0  0  0  0
   16.7498   -4.9696  -12.6677 O   0  0  0  0  0  0  0  0  0  0  0  0
  2  1  1  1
  2  3  1  0
  3  4  1  0
  4  9  2  0
  4  5  1  0
  5  6  2  0
  6  7  1  0
  8  7  2  0
  9  8  1  0
 10  2  1  0
 11 10  2  0
 13 12  1  0
 13 15  1  0
 14 13  2  0
 16 15  1  6
 16 18  1  0
 16 17  1  0
 17 10  1  0
 18 19  2  0
 20 21  1  0
 21 22  2  0
 24 23  1  1
 23 21  1  0
 25 24  1  0
 25 18  1  0
 26 24  1  0
 26 28  1  0
 27 26  2  0
M  END
$$$$
