FNN.pdb
     RDKit          3D

 28 28  0  0  1  0  0  0  0  0999 V2000
   23.0408  -11.4284  -18.2855 N   0  0  0  0  0  0  0  0  0  0  0  0
   21.6480  -11.3129  -18.5939 C   0  0  1  0  0  0  0  0  0  0  0  0
   21.0325  -12.6803  -18.6303 C   0  0  0  0  0  0  0  0  0  0  0  0
   21.7022  -13.5125  -19.6571 C   0  0  0  0  0  0  0  0  0  0  0  0
   22.5907  -14.5163  -19.2895 C   0  0  0  0  0  0  0  0  0  0  0  0
   23.1945  -15.2690  -20.2742 C   0  0  0  0  0  0  0  0  0  0  0  0
   22.9258  -15.0356  -21.6165 C   0  0  0  0  0  0  0  0  0  0  0  0
   22.0419  -14.0367  -21.9776 C   0  0  0  0  0  0  0  0  0  0  0  0
   21.4388  -13.2843  -20.9838 C   0  0  0  0  0  0  0  0  0  0  0  0
   20.9331  -10.3729  -17.7140 C   0  0  0  0  0  0  0  0  0  0  0  0
   19.6894  -10.2328  -17.8450 O   0  0  0  0  0  0  0  0  0  0  0  0
   19.4907   -6.9275  -13.9755 N   0  0  0  0  0  0  0  0  0  0  0  0
   20.0585   -8.1566  -13.5614 C   0  0  0  0  0  0  0  0  0  0  0  0
   19.9145   -8.4449  -12.3144 O   0  0  0  0  0  0  0  0  0  0  0  0
   20.7755   -9.0723  -14.4627 C   0  0  0  0  0  0  0  0  0  0  0  0
   20.8308   -8.6488  -15.8739 C   0  0  2  0  0  0  0  0  0  0  0  0
   21.5607   -9.5987  -16.7098 N   0  0  0  0  0  0  0  0  0  0  0  0
   21.4173   -7.3254  -16.0711 C   0  0  0  0  0  0  0  0  0  0  0  0
   22.6647   -7.1276  -15.8083 O   0  0  0  0  0  0  0  0  0  0  0  0
   21.5513   -2.7499  -19.9040 N   0  0  0  0  0  0  0  0  0  0  0  0
   21.7674   -3.3145  -18.6102 C   0  0  0  0  0  0  0  0  0  0  0  0
   22.4982   -2.6791  -17.8431 O   0  0  0  0  0  0  0  0  0  0  0  0
   21.1479   -4.5822  -18.2268 C   0  0  0  0  0  0  0  0  0  0  0  0
   21.4648   -4.9612  -16.8093 C   0  0  2  0  0  0  0  0  0  0  0  0
   20.6949   -6.2216  -16.5453 N   0  0  0  0  0  0  0  0  0  0  0  0
   20.9195   -3.9773  -15.8691 C   0  0  0  0  0  0  0  0  0  0  0  0
   19.7099   -3.9743  -15.5578 O   0  0  0  0  0  0  0  0  0  0  0  0
   21.7150   -3.0176  -15.2898 O   0  0  0  0  0  0  0  0  0  0  0  0
  2  1  1  1
  2  3  1  0
  3  4  1  0
  4  9  2  0
  4  5  1  0
  5  6  2  0
  6  7  1  0
  8  7  2  0
  9  8  1  0
 10  2  1  0
 11 10  2  0
 13 12  1  0
 13 15  1  0
 14 13  2  0
 16 15  1  1
 16 18  1  0
 16 17  1  0
 17 10  1  0
 18 19  2  0
 20 21  1  0
 21 22  2  0
 24 23  1  6
 23 21  1  0
 25 24  1  0
 25 18  1  0
 26 24  1  0
 26 28  1  0
 27 26  2  0
M  END
$$$$
