FNN.pdb
     RDKit          3D

 28 28  0  0  1  0  0  0  0  0999 V2000
   22.7603  -10.6859  -16.2407 N   0  0  0  0  0  0  0  0  0  0  0  0
   22.7488   -9.5410  -15.3820 C   0  0  1  0  0  0  0  0  0  0  0  0
   23.7967   -8.5688  -15.8365 C   0  0  0  0  0  0  0  0  0  0  0  0
   25.1115   -9.2454  -15.9310 C   0  0  0  0  0  0  0  0  0  0  0  0
   25.7546   -9.3809  -17.1559 C   0  0  0  0  0  0  0  0  0  0  0  0
   26.9767  -10.0172  -17.2031 C   0  0  0  0  0  0  0  0  0  0  0  0
   27.5651  -10.5190  -16.0496 C   0  0  0  0  0  0  0  0  0  0  0  0
   26.9224  -10.3821  -14.8340 C   0  0  0  0  0  0  0  0  0  0  0  0
   25.6952   -9.7421  -14.7933 C   0  0  0  0  0  0  0  0  0  0  0  0
   21.4138   -8.9364  -15.2361 C   0  0  0  0  0  0  0  0  0  0  0  0
   20.5477   -9.1360  -16.1269 O   0  0  0  0  0  0  0  0  0  0  0  0
   17.7739   -9.4605  -13.0769 N   0  0  0  0  0  0  0  0  0  0  0  0
   18.3283   -8.4948  -12.2025 C   0  0  0  0  0  0  0  0  0  0  0  0
   17.9804   -8.5973  -10.9665 O   0  0  0  0  0  0  0  0  0  0  0  0
   19.2432   -7.4271  -12.6359 C   0  0  0  0  0  0  0  0  0  0  0  0
   19.7033   -7.5234  -14.0332 C   0  0  2  0  0  0  0  0  0  0  0  0
   21.0286   -8.1285  -14.1403 N   0  0  0  0  0  0  0  0  0  0  0  0
   19.7299   -6.2431  -14.7362 C   0  0  0  0  0  0  0  0  0  0  0  0
   20.8582   -5.6760  -14.9999 O   0  0  0  0  0  0  0  0  0  0  0  0
   20.6363   -3.6161  -19.0603 N   0  0  0  0  0  0  0  0  0  0  0  0
   19.4151   -3.9193  -18.3849 C   0  0  0  0  0  0  0  0  0  0  0  0
   18.4125   -3.2932  -18.7444 O   0  0  0  0  0  0  0  0  0  0  0  0
   19.3691   -4.9232  -17.3228 C   0  0  0  0  0  0  0  0  0  0  0  0
   18.7676   -4.3822  -16.0583 C   0  0  2  0  0  0  0  0  0  0  0  0
   18.5763   -5.5691  -15.1607 N   0  0  0  0  0  0  0  0  0  0  0  0
   17.4172   -3.8650  -16.2996 C   0  0  0  0  0  0  0  0  0  0  0  0
   16.4241   -4.6220  -16.3229 O   0  0  0  0  0  0  0  0  0  0  0  0
   17.1861   -2.5263  -16.5092 O   0  0  0  0  0  0  0  0  0  0  0  0
  2  1  1  6
  2  3  1  0
  3  4  1  0
  4  9  2  0
  4  5  1  0
  5  6  2  0
  6  7  1  0
  8  7  2  0
  9  8  1  0
 10  2  1  0
 11 10  2  0
 13 12  1  0
 13 15  1  0
 14 13  2  0
 16 15  1  1
 16 18  1  0
 16 17  1  0
 17 10  1  0
 18 19  2  0
 20 21  1  0
 21 22  2  0
 24 23  1  6
 23 21  1  0
 25 24  1  0
 25 18  1  0
 26 24  1  0
 26 28  1  0
 27 26  2  0
M  END
$$$$
