FNN.pdb
     RDKit          3D

 28 28  0  0  1  0  0  0  0  0999 V2000
   28.0294  -18.0889  -16.6343 N   0  0  0  0  0  0  0  0  0  0  0  0
   27.2124  -17.7035  -15.5243 C   0  0  1  0  0  0  0  0  0  0  0  0
   26.1824  -16.7153  -15.9853 C   0  0  0  0  0  0  0  0  0  0  0  0
   26.8084  -15.3889  -16.1957 C   0  0  0  0  0  0  0  0  0  0  0  0
   26.9786  -14.8787  -17.4775 C   0  0  0  0  0  0  0  0  0  0  0  0
   27.5659  -13.6410  -17.6324 C   0  0  0  0  0  0  0  0  0  0  0  0
   27.9846  -12.9069  -16.5306 C   0  0  0  0  0  0  0  0  0  0  0  0
   27.8135  -13.4178  -15.2581 C   0  0  0  0  0  0  0  0  0  0  0  0
   27.2231  -14.6614  -15.1093 C   0  0  0  0  0  0  0  0  0  0  0  0
   26.6396  -18.8494  -14.7977 C   0  0  0  0  0  0  0  0  0  0  0  0
   26.4310  -19.9263  -15.4142 O   0  0  0  0  0  0  0  0  0  0  0  0
   24.8892  -21.1417   -9.4238 N   0  0  0  0  0  0  0  0  0  0  0  0
   25.6242  -21.2663  -10.6274 C   0  0  0  0  0  0  0  0  0  0  0  0
   25.7857  -22.4687  -11.0599 O   0  0  0  0  0  0  0  0  0  0  0  0
   26.1855  -20.1242  -11.3660 C   0  0  0  0  0  0  0  0  0  0  0  0
   25.6835  -19.9587  -12.7423 C   0  0  2  0  0  0  0  0  0  0  0  0
   26.2995  -18.8233  -13.4245 N   0  0  0  0  0  0  0  0  0  0  0  0
   24.2330  -19.8082  -12.8281 C   0  0  0  0  0  0  0  0  0  0  0  0
   23.7255  -18.7860  -13.4296 O   0  0  0  0  0  0  0  0  0  0  0  0
   19.5533  -21.1231  -14.2137 N   0  0  0  0  0  0  0  0  0  0  0  0
   20.7572  -21.5403  -14.8586 C   0  0  0  0  0  0  0  0  0  0  0  0
   20.6402  -22.0349  -15.9847 O   0  0  0  0  0  0  0  0  0  0  0  0
   22.0563  -21.3835  -14.2062 C   0  0  0  0  0  0  0  0  0  0  0  0
   21.9374  -20.7390  -12.8558 C   0  0  2  0  0  0  0  0  0  0  0  0
   23.3259  -20.7302  -12.2875 N   0  0  0  0  0  0  0  0  0  0  0  0
   21.1564  -21.5778  -11.9415 C   0  0  0  0  0  0  0  0  0  0  0  0
   20.1248  -21.1481  -11.3838 O   0  0  0  0  0  0  0  0  0  0  0  0
   21.5248  -22.8718  -11.6600 O   0  0  0  0  0  0  0  0  0  0  0  0
  2  1  1  6
  2  3  1  0
  3  4  1  0
  4  9  2  0
  4  5  1  0
  5  6  2  0
  6  7  1  0
  8  7  2  0
  9  8  1  0
 10  2  1  0
 11 10  2  0
 13 12  1  0
 13 15  1  0
 14 13  2  0
 16 15  1  1
 16 18  1  0
 16 17  1  0
 17 10  1  0
 18 19  2  0
 20 21  1  0
 21 22  2  0
 24 23  1  6
 23 21  1  0
 25 24  1  0
 25 18  1  0
 26 24  1  0
 26 28  1  0
 27 26  2  0
M  END
$$$$
