FNN.pdb
     RDKit          3D

 28 28  0  0  1  0  0  0  0  0999 V2000
   23.4986  -13.3979  -17.6889 N   0  0  0  0  0  0  0  0  0  0  0  0
   23.6916  -12.6516  -16.4829 C   0  0  1  0  0  0  0  0  0  0  0  0
   25.1324  -12.2492  -16.3733 C   0  0  0  0  0  0  0  0  0  0  0  0
   25.9895  -13.4526  -16.2613 C   0  0  0  0  0  0  0  0  0  0  0  0
   26.6863  -13.9339  -17.3637 C   0  0  0  0  0  0  0  0  0  0  0  0
   27.4731  -15.0568  -17.2197 C   0  0  0  0  0  0  0  0  0  0  0  0
   27.5749  -15.7049  -15.9958 C   0  0  0  0  0  0  0  0  0  0  0  0
   26.8806  -15.2231  -14.9025 C   0  0  0  0  0  0  0  0  0  0  0  0
   26.0920  -14.0949  -15.0536 C   0  0  0  0  0  0  0  0  0  0  0  0
   22.7565  -11.5227  -16.3413 C   0  0  0  0  0  0  0  0  0  0  0  0
   22.4463  -10.8498  -17.3584 O   0  0  0  0  0  0  0  0  0  0  0  0
   19.0353   -8.1482  -14.7182 N   0  0  0  0  0  0  0  0  0  0  0  0
   19.0946   -9.3072  -13.9073 C   0  0  0  0  0  0  0  0  0  0  0  0
   18.1600   -9.4207  -13.0283 O   0  0  0  0  0  0  0  0  0  0  0  0
   20.1384  -10.3374  -14.0264 C   0  0  0  0  0  0  0  0  0  0  0  0
   21.1940  -10.0503  -15.0147 C   0  0  2  0  0  0  0  0  0  0  0  0
   22.1698  -11.1328  -15.1142 N   0  0  0  0  0  0  0  0  0  0  0  0
   21.9183   -8.8071  -14.7614 C   0  0  0  0  0  0  0  0  0  0  0  0
   23.0066   -8.8249  -14.0690 O   0  0  0  0  0  0  0  0  0  0  0  0
   24.8548   -4.6847  -17.3046 N   0  0  0  0  0  0  0  0  0  0  0  0
   23.8121   -4.8548  -16.3437 C   0  0  0  0  0  0  0  0  0  0  0  0
   23.6978   -3.9717  -15.4873 O   0  0  0  0  0  0  0  0  0  0  0  0
   22.9315   -6.0213  -16.3841 C   0  0  0  0  0  0  0  0  0  0  0  0
   22.4260   -6.3964  -15.0213 C   0  0  2  0  0  0  0  0  0  0  0  0
   21.5001   -7.5569  -15.2380 N   0  0  0  0  0  0  0  0  0  0  0  0
   21.5826   -5.3344  -14.4644 C   0  0  0  0  0  0  0  0  0  0  0  0
   20.4292   -5.1249  -14.8955 O   0  0  0  0  0  0  0  0  0  0  0  0
   22.0237   -4.5254  -13.4445 O   0  0  0  0  0  0  0  0  0  0  0  0
  2  1  1  6
  2  3  1  0
  3  4  1  0
  4  9  2  0
  4  5  1  0
  5  6  2  0
  6  7  1  0
  8  7  2  0
  9  8  1  0
 10  2  1  0
 11 10  2  0
 13 12  1  0
 13 15  1  0
 14 13  2  0
 16 15  1  1
 16 18  1  0
 16 17  1  0
 17 10  1  0
 18 19  2  0
 20 21  1  0
 21 22  2  0
 24 23  1  6
 23 21  1  0
 25 24  1  0
 25 18  1  0
 26 24  1  0
 26 28  1  0
 27 26  2  0
M  END
$$$$
