FNN.pdb
     RDKit          3D

 28 28  0  0  1  0  0  0  0  0999 V2000
   28.8875  -21.0178   -8.6175 N   0  0  0  0  0  0  0  0  0  0  0  0
   27.4919  -20.7009   -8.6350 C   0  0  1  0  0  0  0  0  0  0  0  0
   27.2609  -19.4341   -7.8659 C   0  0  0  0  0  0  0  0  0  0  0  0
   27.8407  -19.5507   -6.5074 C   0  0  0  0  0  0  0  0  0  0  0  0
   28.9995  -18.8621   -6.1678 C   0  0  0  0  0  0  0  0  0  0  0  0
   29.5087  -18.9969   -4.8937 C   0  0  0  0  0  0  0  0  0  0  0  0
   28.8808  -19.8061   -3.9560 C   0  0  0  0  0  0  0  0  0  0  0  0
   27.7291  -20.4889   -4.2978 C   0  0  0  0  0  0  0  0  0  0  0  0
   27.2227  -20.3494   -5.5790 C   0  0  0  0  0  0  0  0  0  0  0  0
   26.9179  -20.6750   -9.9910 C   0  0  0  0  0  0  0  0  0  0  0  0
   27.6297  -20.2848  -10.9526 O   0  0  0  0  0  0  0  0  0  0  0  0
   25.5263  -21.8368  -14.8247 N   0  0  0  0  0  0  0  0  0  0  0  0
   24.7364  -22.3147  -13.7514 C   0  0  0  0  0  0  0  0  0  0  0  0
   23.5728  -22.7640  -14.0727 O   0  0  0  0  0  0  0  0  0  0  0  0
   25.1763  -22.3143  -12.3473 C   0  0  0  0  0  0  0  0  0  0  0  0
   25.0476  -21.0220  -11.6495 C   0  0  2  0  0  0  0  0  0  0  0  0
   25.5927  -21.0664  -10.2949 N   0  0  0  0  0  0  0  0  0  0  0  0
   23.6754  -20.5267  -11.5713 C   0  0  0  0  0  0  0  0  0  0  0  0
   22.7954  -21.1722  -10.8835 O   0  0  0  0  0  0  0  0  0  0  0  0
   21.0518  -17.8207  -15.3755 N   0  0  0  0  0  0  0  0  0  0  0  0
   21.2356  -19.2324  -15.2615 C   0  0  0  0  0  0  0  0  0  0  0  0
   20.5358  -19.9432  -15.9905 O   0  0  0  0  0  0  0  0  0  0  0  0
   22.2073  -19.7937  -14.3243 C   0  0  0  0  0  0  0  0  0  0  0  0
   21.9075  -19.4143  -12.9032 C   0  0  2  0  0  0  0  0  0  0  0  0
   23.2368  -19.3583  -12.2098 N   0  0  0  0  0  0  0  0  0  0  0  0
   21.1664  -20.4798  -12.2213 C   0  0  0  0  0  0  0  0  0  0  0  0
   21.4697  -21.6823  -12.3699 O   0  0  0  0  0  0  0  0  0  0  0  0
   20.1081  -20.2017  -11.3895 O   0  0  0  0  0  0  0  0  0  0  0  0
  2  1  1  6
  2  3  1  0
  3  4  1  0
  4  9  2  0
  4  5  1  0
  5  6  2  0
  6  7  1  0
  8  7  2  0
  9  8  1  0
 10  2  1  0
 11 10  2  0
 13 12  1  0
 13 15  1  0
 14 13  2  0
 16 15  1  1
 16 18  1  0
 16 17  1  0
 17 10  1  0
 18 19  2  0
 20 21  1  0
 21 22  2  0
 24 23  1  6
 23 21  1  0
 25 24  1  0
 25 18  1  0
 26 24  1  0
 26 28  1  0
 27 26  2  0
M  END
$$$$
