FNN.pdb
     RDKit          3D

 28 28  0  0  1  0  0  0  0  0999 V2000
   28.6001  -20.9246  -16.2830 N   0  0  0  0  0  0  0  0  0  0  0  0
   27.7240  -19.9701  -15.6749 C   0  0  1  0  0  0  0  0  0  0  0  0
   27.0409  -19.1710  -16.7448 C   0  0  0  0  0  0  0  0  0  0  0  0
   27.9585  -18.1320  -17.2679 C   0  0  0  0  0  0  0  0  0  0  0  0
   28.2312  -16.9870  -16.5282 C   0  0  0  0  0  0  0  0  0  0  0  0
   29.0900  -16.0427  -17.0493 C   0  0  0  0  0  0  0  0  0  0  0  0
   29.6791  -16.2232  -18.2938 C   0  0  0  0  0  0  0  0  0  0  0  0
   29.4053  -17.3627  -19.0257 C   0  0  0  0  0  0  0  0  0  0  0  0
   28.5420  -18.3074  -18.4969 C   0  0  0  0  0  0  0  0  0  0  0  0
   26.7903  -20.5708  -14.7073 C   0  0  0  0  0  0  0  0  0  0  0  0
   26.3469  -21.7294  -14.9186 O   0  0  0  0  0  0  0  0  0  0  0  0
   25.3466  -21.6327   -9.2137 N   0  0  0  0  0  0  0  0  0  0  0  0
   24.8314  -20.7235  -10.1690 C   0  0  0  0  0  0  0  0  0  0  0  0
   23.5666  -20.4923  -10.0927 O   0  0  0  0  0  0  0  0  0  0  0  0
   25.6511  -20.0659  -11.1988 C   0  0  0  0  0  0  0  0  0  0  0  0
   25.4418  -20.5541  -12.5741 C   0  0  2  0  0  0  0  0  0  0  0  0
   26.3468  -19.9220  -13.5308 N   0  0  0  0  0  0  0  0  0  0  0  0
   24.0748  -20.3832  -13.0602 C   0  0  0  0  0  0  0  0  0  0  0  0
   23.7602  -19.3356  -13.7440 O   0  0  0  0  0  0  0  0  0  0  0  0
   19.8154  -21.4710  -16.2010 N   0  0  0  0  0  0  0  0  0  0  0  0
   20.0466  -22.0310  -14.9078 C   0  0  0  0  0  0  0  0  0  0  0  0
   19.0530  -22.4269  -14.2894 O   0  0  0  0  0  0  0  0  0  0  0  0
   21.3975  -22.1245  -14.3563 C   0  0  0  0  0  0  0  0  0  0  0  0
   21.7011  -21.0003  -13.4089 C   0  0  2  0  0  0  0  0  0  0  0  0
   23.0499  -21.3115  -12.8302 N   0  0  0  0  0  0  0  0  0  0  0  0
   20.7830  -21.0155  -12.2660 C   0  0  0  0  0  0  0  0  0  0  0  0
   21.0154  -21.7076  -11.2527 O   0  0  0  0  0  0  0  0  0  0  0  0
   19.6290  -20.2687  -12.2600 O   0  0  0  0  0  0  0  0  0  0  0  0
  2  1  1  6
  2  3  1  0
  3  4  1  0
  4  9  2  0
  4  5  1  0
  5  6  2  0
  6  7  1  0
  8  7  2  0
  9  8  1  0
 10  2  1  0
 11 10  2  0
 13 12  1  0
 13 15  1  0
 14 13  2  0
 16 15  1  1
 16 18  1  0
 16 17  1  0
 17 10  1  0
 18 19  2  0
 20 21  1  0
 21 22  2  0
 24 23  1  6
 23 21  1  0
 25 24  1  0
 25 18  1  0
 26 24  1  0
 26 28  1  0
 27 26  2  0
M  END
$$$$
