WSH.pdb
     RDKit          3D

 31 33  0  0  1  0  0  0  0  0999 V2000
   27.0916  -20.1169  -11.6484 N   0  0  0  0  0  0  0  0  0  0  0  0
   26.1987  -21.2294  -11.4206 C   0  0  1  0  0  0  0  0  0  0  0  0
   25.8581  -21.2865   -9.9623 C   0  0  0  0  0  0  0  0  0  0  0  0
   26.9895  -20.9447   -9.0893 C   0  0  0  0  0  0  0  0  0  0  0  0
   26.9688  -19.9794   -8.0851 C   0  0  0  0  0  0  0  0  0  0  0  0
   28.1839  -19.9147   -7.5171 N   0  0  0  0  0  0  0  0  0  0  0  0
   29.0155  -20.7926   -8.0951 C   0  0  0  0  0  0  0  0  0  0  0  0
   30.3415  -21.0799   -7.8408 C   0  0  0  0  0  0  0  0  0  0  0  0
   30.9823  -22.0420   -8.5737 C   0  0  0  0  0  0  0  0  0  0  0  0
   30.2624  -22.6889   -9.5458 C   0  0  0  0  0  0  0  0  0  0  0  0
   28.9161  -22.3985   -9.8058 C   0  0  0  0  0  0  0  0  0  0  0  0
   28.2818  -21.4375   -9.0731 C   0  0  0  0  0  0  0  0  0  0  0  0
   25.0316  -21.0886  -12.2956 C   0  0  0  0  0  0  0  0  0  0  0  0
   24.5802  -19.9552  -12.6051 O   0  0  0  0  0  0  0  0  0  0  0  0
   24.1062  -23.9261  -14.7503 O   0  0  0  0  0  0  0  0  0  0  0  0
   23.5332  -22.6946  -15.0417 C   0  0  0  0  0  0  0  0  0  0  0  0
   23.1707  -22.0081  -13.6965 C   0  0  2  0  0  0  0  0  0  0  0  0
   24.3214  -22.2100  -12.8643 N   0  0  0  0  0  0  0  0  0  0  0  0
   21.9338  -22.6401  -13.2599 C   0  0  0  0  0  0  0  0  0  0  0  0
   22.0349  -23.8061  -12.7688 O   0  0  0  0  0  0  0  0  0  0  0  0
   20.6278  -22.0943  -13.3213 N   0  0  0  0  0  0  0  0  0  0  0  0
   19.4629  -22.9368  -12.9404 C   0  0  1  0  0  0  0  0  0  0  0  0
   18.9383  -22.3756  -11.6600 C   0  0  0  0  0  0  0  0  0  0  0  0
   19.2436  -23.1226  -10.4371 C   0  0  0  0  0  0  0  0  0  0  0  0
   19.9961  -24.2513  -10.2354 C   0  0  0  0  0  0  0  0  0  0  0  0
   19.9958  -24.4932   -8.9073 N   0  0  0  0  0  0  0  0  0  0  0  0
   19.2754  -23.5546   -8.3127 C   0  0  0  0  0  0  0  0  0  0  0  0
   18.8122  -22.7148   -9.2301 N   0  0  0  0  0  0  0  0  0  0  0  0
   18.4503  -22.6232  -14.0122 C   0  0  0  0  0  0  0  0  0  0  0  0
   18.6922  -21.6344  -14.9761 O   0  0  0  0  0  0  0  0  0  0  0  0
   17.3532  -23.2045  -14.1178 O   0  0  0  0  0  0  0  0  0  0  0  0
  2  1  1  1
  2  3  1  0
  3  4  1  0
  4  5  2  0
  4 12  1  0
  5  6  1  0
  6  7  1  0
  7  8  2  0
  9  8  1  0
 10  9  2  0
 11 12  2  0
 11 10  1  0
 12  7  1  0
 13 14  2  0
 13  2  1  0
 15 16  1  0
 17 16  1  6
 17 18  1  0
 17 19  1  0
 18 13  1  0
 19 21  1  0
 20 19  2  0
 21 22  1  0
 22 29  1  0
 23 24  1  0
 22 23  1  1
 24 28  1  0
 25 24  2  0
 25 26  1  0
 26 27  1  0
 28 27  2  0
 29 31  2  0
 29 30  1  0
M  END
$$$$
