WSH.pdb
     RDKit          3D

 31 33  0  0  1  0  0  0  0  0999 V2000
   21.2584  -13.3605  -18.5386 N   0  0  0  0  0  0  0  0  0  0  0  0
   20.0080  -13.6947  -19.1802 C   0  0  1  0  0  0  0  0  0  0  0  0
   20.0797  -15.1075  -19.6750 C   0  0  0  0  0  0  0  0  0  0  0  0
   20.7997  -15.2394  -20.9489 C   0  0  0  0  0  0  0  0  0  0  0  0
   22.1832  -15.3253  -21.0869 C   0  0  0  0  0  0  0  0  0  0  0  0
   22.4875  -15.4022  -22.3926 N   0  0  0  0  0  0  0  0  0  0  0  0
   21.3711  -15.3723  -23.1335 C   0  0  0  0  0  0  0  0  0  0  0  0
   21.1954  -15.4311  -24.5014 C   0  0  0  0  0  0  0  0  0  0  0  0
   19.9326  -15.3909  -25.0279 C   0  0  0  0  0  0  0  0  0  0  0  0
   18.8797  -15.2924  -24.1542 C   0  0  0  0  0  0  0  0  0  0  0  0
   19.0559  -15.2323  -22.7650 C   0  0  0  0  0  0  0  0  0  0  0  0
   20.3171  -15.2716  -22.2448 C   0  0  0  0  0  0  0  0  0  0  0  0
   18.9114  -13.4525  -18.2387 C   0  0  0  0  0  0  0  0  0  0  0  0
   19.0777  -13.5738  -16.9971 O   0  0  0  0  0  0  0  0  0  0  0  0
   15.6240  -11.5137  -19.3494 O   0  0  0  0  0  0  0  0  0  0  0  0
   15.8462  -11.5984  -17.9808 C   0  0  0  0  0  0  0  0  0  0  0  0
   16.5161  -12.9694  -17.6912 C   0  0  2  0  0  0  0  0  0  0  0  0
   17.5824  -13.0612  -18.6462 N   0  0  0  0  0  0  0  0  0  0  0  0
   15.4502  -13.9543  -17.8104 C   0  0  0  0  0  0  0  0  0  0  0  0
   15.3684  -14.5709  -18.9168 O   0  0  0  0  0  0  0  0  0  0  0  0
   14.4943  -14.3018  -16.8242 N   0  0  0  0  0  0  0  0  0  0  0  0
   13.4455  -15.3072  -17.1425 C   0  0  1  0  0  0  0  0  0  0  0  0
   14.1604  -16.5894  -17.4151 C   0  0  0  0  0  0  0  0  0  0  0  0
   14.4501  -16.8992  -18.8176 C   0  0  0  0  0  0  0  0  0  0  0  0
   15.6380  -16.9555  -19.5006 C   0  0  0  0  0  0  0  0  0  0  0  0
   15.3494  -17.3388  -20.7624 N   0  0  0  0  0  0  0  0  0  0  0  0
   14.0401  -17.5132  -20.8561 C   0  0  0  0  0  0  0  0  0  0  0  0
   13.4807  -17.2497  -19.6817 N   0  0  0  0  0  0  0  0  0  0  0  0
   12.7211  -15.4712  -15.8308 C   0  0  0  0  0  0  0  0  0  0  0  0
   11.4696  -16.0993  -15.7632 O   0  0  0  0  0  0  0  0  0  0  0  0
   13.1693  -15.0714  -14.7391 O   0  0  0  0  0  0  0  0  0  0  0  0
  2  1  1  1
  2  3  1  0
  3  4  1  0
  4  5  2  0
  4 12  1  0
  5  6  1  0
  6  7  1  0
  7  8  2  0
  9  8  1  0
 10  9  2  0
 11 12  2  0
 11 10  1  0
 12  7  1  0
 13 14  2  0
 13  2  1  0
 15 16  1  0
 17 16  1  6
 17 18  1  0
 17 19  1  0
 18 13  1  0
 19 21  1  0
 20 19  2  0
 21 22  1  0
 22 29  1  0
 23 24  1  0
 22 23  1  1
 24 28  1  0
 25 24  2  0
 25 26  1  0
 26 27  1  0
 28 27  2  0
 29 31  2  0
 29 30  1  0
M  END
$$$$
