WSH.pdb
     RDKit          3D

 31 33  0  0  1  0  0  0  0  0999 V2000
   27.4043  -16.1420  -19.7136 N   0  0  0  0  0  0  0  0  0  0  0  0
   27.1442  -16.1400  -18.2927 C   0  0  1  0  0  0  0  0  0  0  0  0
   26.8813  -14.7325  -17.8502 C   0  0  0  0  0  0  0  0  0  0  0  0
   27.9537  -13.7990  -18.2206 C   0  0  0  0  0  0  0  0  0  0  0  0
   27.7656  -12.4935  -18.6690 C   0  0  0  0  0  0  0  0  0  0  0  0
   28.9624  -11.9502  -18.9446 N   0  0  0  0  0  0  0  0  0  0  0  0
   29.9416  -12.8322  -18.7005 C   0  0  0  0  0  0  0  0  0  0  0  0
   31.3111  -12.7170  -18.8296 C   0  0  0  0  0  0  0  0  0  0  0  0
   32.1168  -13.7742  -18.5031 C   0  0  0  0  0  0  0  0  0  0  0  0
   31.5139  -14.9212  -18.0535 C   0  0  0  0  0  0  0  0  0  0  0  0
   30.1235  -15.0404  -17.9219 C   0  0  0  0  0  0  0  0  0  0  0  0
   29.3241  -13.9839  -18.2498 C   0  0  0  0  0  0  0  0  0  0  0  0
   26.0427  -17.0645  -18.0102 C   0  0  0  0  0  0  0  0  0  0  0  0
   25.1638  -17.3170  -18.8750 O   0  0  0  0  0  0  0  0  0  0  0  0
   24.9755  -18.4121  -14.1651 O   0  0  0  0  0  0  0  0  0  0  0  0
   25.0964  -19.3443  -15.1878 C   0  0  0  0  0  0  0  0  0  0  0  0
   24.7683  -18.6279  -16.5262 C   0  0  2  0  0  0  0  0  0  0  0  0
   25.8791  -17.7482  -16.7488 N   0  0  0  0  0  0  0  0  0  0  0  0
   23.4715  -17.9981  -16.3208 C   0  0  0  0  0  0  0  0  0  0  0  0
   23.4232  -16.7382  -16.4659 O   0  0  0  0  0  0  0  0  0  0  0  0
   22.2554  -18.6392  -15.9784 N   0  0  0  0  0  0  0  0  0  0  0  0
   21.0128  -17.8322  -15.8493 C   0  0  1  0  0  0  0  0  0  0  0  0
   20.6926  -17.3303  -17.2187 C   0  0  0  0  0  0  0  0  0  0  0  0
   19.4277  -16.6085  -17.3788 C   0  0  0  0  0  0  0  0  0  0  0  0
   18.4658  -16.2633  -16.4641 C   0  0  0  0  0  0  0  0  0  0  0  0
   17.5256  -15.5579  -17.1281 N   0  0  0  0  0  0  0  0  0  0  0  0
   17.8901  -15.4695  -18.3981 C   0  0  0  0  0  0  0  0  0  0  0  0
   19.0442  -16.1032  -18.5649 N   0  0  0  0  0  0  0  0  0  0  0  0
   19.9712  -18.8638  -15.4981 C   0  0  0  0  0  0  0  0  0  0  0  0
   19.9588  -20.1246  -16.1110 O   0  0  0  0  0  0  0  0  0  0  0  0
   19.0688  -18.6770  -14.6595 O   0  0  0  0  0  0  0  0  0  0  0  0
  2  1  1  6
  2  3  1  0
  3  4  1  0
  4  5  2  0
  4 12  1  0
  5  6  1  0
  6  7  1  0
  7  8  2  0
  9  8  1  0
 10  9  2  0
 11 12  2  0
 11 10  1  0
 12  7  1  0
 13 14  2  0
 13  2  1  0
 15 16  1  0
 17 16  1  1
 17 18  1  0
 17 19  1  0
 18 13  1  0
 19 21  1  0
 20 19  2  0
 21 22  1  0
 22 29  1  0
 23 24  1  0
 22 23  1  6
 24 28  1  0
 25 24  2  0
 25 26  1  0
 26 27  1  0
 28 27  2  0
 29 31  2  0
 29 30  1  0
M  END
$$$$
