WSH.pdb
     RDKit          3D

 31 33  0  0  1  0  0  0  0  0999 V2000
   15.0007  -22.3233    4.3482 N   0  0  0  0  0  0  0  0  0  0  0  0
   16.2828  -22.9832    4.4345 C   0  0  1  0  0  0  0  0  0  0  0  0
   17.3601  -21.9929    4.1108 C   0  0  0  0  0  0  0  0  0  0  0  0
   18.0130  -22.2485    2.8196 C   0  0  0  0  0  0  0  0  0  0  0  0
   17.6023  -21.7309    1.5932 C   0  0  0  0  0  0  0  0  0  0  0  0
   18.4099  -22.2010    0.6288 N   0  0  0  0  0  0  0  0  0  0  0  0
   19.3418  -23.0084    1.1543 C   0  0  0  0  0  0  0  0  0  0  0  0
   20.3735  -23.7032    0.5558 C   0  0  0  0  0  0  0  0  0  0  0  0
   21.2130  -24.4675    1.3203 C   0  0  0  0  0  0  0  0  0  0  0  0
   20.9855  -24.5080    2.6724 C   0  0  0  0  0  0  0  0  0  0  0  0
   19.9382  -23.8036    3.2820 C   0  0  0  0  0  0  0  0  0  0  0  0
   19.1031  -23.0436    2.5154 C   0  0  0  0  0  0  0  0  0  0  0  0
   16.4163  -23.5899    5.7618 C   0  0  0  0  0  0  0  0  0  0  0  0
   16.0394  -22.9834    6.7982 O   0  0  0  0  0  0  0  0  0  0  0  0
   15.8545  -27.4587    6.8610 O   0  0  0  0  0  0  0  0  0  0  0  0
   17.1414  -26.9885    7.0901 C   0  0  0  0  0  0  0  0  0  0  0  0
   17.0554  -25.4531    7.3081 C   0  0  2  0  0  0  0  0  0  0  0  0
   16.9746  -24.9028    5.9860 N   0  0  0  0  0  0  0  0  0  0  0  0
   18.2363  -25.1054    8.0857 C   0  0  0  0  0  0  0  0  0  0  0  0
   19.2812  -24.8089    7.4291 O   0  0  0  0  0  0  0  0  0  0  0  0
   18.3464  -25.0598    9.4975 N   0  0  0  0  0  0  0  0  0  0  0  0
   19.6430  -24.6805   10.1195 C   0  0  1  0  0  0  0  0  0  0  0  0
   19.3336  -24.2725   11.5221 C   0  0  0  0  0  0  0  0  0  0  0  0
   18.7400  -25.2920   12.3911 C   0  0  0  0  0  0  0  0  0  0  0  0
   18.8639  -26.6579   12.3916 C   0  0  0  0  0  0  0  0  0  0  0  0
   18.1469  -27.1183   13.4387 N   0  0  0  0  0  0  0  0  0  0  0  0
   17.6037  -26.0826   14.0598 C   0  0  0  0  0  0  0  0  0  0  0  0
   17.9558  -24.9662   13.4342 N   0  0  0  0  0  0  0  0  0  0  0  0
   20.3837  -25.9915   10.1900 C   0  0  0  0  0  0  0  0  0  0  0  0
   21.6930  -26.0629   10.6861 O   0  0  0  0  0  0  0  0  0  0  0  0
   19.8997  -27.0794    9.8226 O   0  0  0  0  0  0  0  0  0  0  0  0
  2  1  1  1
  2  3  1  0
  3  4  1  0
  4  5  2  0
  4 12  1  0
  5  6  1  0
  6  7  1  0
  7  8  2  0
  9  8  1  0
 10  9  2  0
 11 12  2  0
 11 10  1  0
 12  7  1  0
 13 14  2  0
 13  2  1  0
 15 16  1  0
 17 16  1  6
 17 18  1  0
 17 19  1  0
 18 13  1  0
 19 21  1  0
 20 19  2  0
 21 22  1  0
 22 29  1  0
 23 24  1  0
 22 23  1  1
 24 28  1  0
 25 24  2  0
 25 26  1  0
 26 27  1  0
 28 27  2  0
 29 31  2  0
 29 30  1  0
M  END
$$$$
