WSH.pdb
     RDKit          3D

 31 33  0  0  1  0  0  0  0  0999 V2000
   27.4896  -22.1640  -13.2463 N   0  0  0  0  0  0  0  0  0  0  0  0
   26.3152  -21.6863  -12.5539 C   0  0  1  0  0  0  0  0  0  0  0  0
   26.6305  -20.3656  -11.9196 C   0  0  0  0  0  0  0  0  0  0  0  0
   27.6190  -20.4640  -10.8371 C   0  0  0  0  0  0  0  0  0  0  0  0
   28.9834  -20.6856  -11.0102 C   0  0  0  0  0  0  0  0  0  0  0  0
   29.5713  -20.7500   -9.8046 N   0  0  0  0  0  0  0  0  0  0  0  0
   28.6628  -20.5811   -8.8338 C   0  0  0  0  0  0  0  0  0  0  0  0
   28.8038  -20.5635   -7.4607 C   0  0  0  0  0  0  0  0  0  0  0  0
   27.7076  -20.3609   -6.6665 C   0  0  0  0  0  0  0  0  0  0  0  0
   26.4962  -20.1810   -7.2843 C   0  0  0  0  0  0  0  0  0  0  0  0
   26.3509  -20.1988   -8.6783 C   0  0  0  0  0  0  0  0  0  0  0  0
   27.4467  -20.4023   -9.4660 C   0  0  0  0  0  0  0  0  0  0  0  0
   25.1948  -21.6372  -13.4971 C   0  0  0  0  0  0  0  0  0  0  0  0
   25.0986  -20.7164  -14.3497 O   0  0  0  0  0  0  0  0  0  0  0  0
   22.6334  -24.7540  -13.8199 O   0  0  0  0  0  0  0  0  0  0  0  0
   22.7842  -23.9497  -14.9424 C   0  0  0  0  0  0  0  0  0  0  0  0
   23.0478  -22.4984  -14.4561 C   0  0  2  0  0  0  0  0  0  0  0  0
   24.1355  -22.6182  -13.5288 N   0  0  0  0  0  0  0  0  0  0  0  0
   21.7786  -22.0352  -13.9130 C   0  0  0  0  0  0  0  0  0  0  0  0
   21.7858  -21.6493  -12.7039 O   0  0  0  0  0  0  0  0  0  0  0  0
   20.5350  -21.9660  -14.5882 N   0  0  0  0  0  0  0  0  0  0  0  0
   19.3391  -21.4503  -13.8700 C   0  0  1  0  0  0  0  0  0  0  0  0
   19.1257  -20.0546  -14.3559 C   0  0  0  0  0  0  0  0  0  0  0  0
   19.6301  -18.9742  -13.5043 C   0  0  0  0  0  0  0  0  0  0  0  0
   20.2294  -19.0048  -12.2710 C   0  0  0  0  0  0  0  0  0  0  0  0
   20.5473  -17.7313  -11.9557 N   0  0  0  0  0  0  0  0  0  0  0  0
   20.1627  -16.9468  -12.9506 C   0  0  0  0  0  0  0  0  0  0  0  0
   19.6037  -17.6886  -13.8988 N   0  0  0  0  0  0  0  0  0  0  0  0
   18.2185  -22.2916  -14.4258 C   0  0  0  0  0  0  0  0  0  0  0  0
   18.4407  -23.2072  -15.4640 O   0  0  0  0  0  0  0  0  0  0  0  0
   17.0436  -22.2369  -14.0143 O   0  0  0  0  0  0  0  0  0  0  0  0
  2  1  1  6
  2  3  1  0
  3  4  1  0
  4  5  2  0
  4 12  1  0
  5  6  1  0
  6  7  1  0
  7  8  2  0
  9  8  1  0
 10  9  2  0
 11 12  2  0
 11 10  1  0
 12  7  1  0
 13 14  2  0
 13  2  1  0
 15 16  1  0
 17 16  1  1
 17 18  1  0
 17 19  1  0
 18 13  1  0
 19 21  1  0
 20 19  2  0
 21 22  1  0
 22 29  1  0
 23 24  1  0
 22 23  1  6
 24 28  1  0
 25 24  2  0
 25 26  1  0
 26 27  1  0
 28 27  2  0
 29 31  2  0
 29 30  1  0
M  END
$$$$
