WSH.pdb
     RDKit          3D

 31 33  0  0  1  0  0  0  0  0999 V2000
   24.6520  -19.4375  -11.3286 N   0  0  0  0  0  0  0  0  0  0  0  0
   25.9537  -19.9597  -11.6741 C   0  0  1  0  0  0  0  0  0  0  0  0
   26.2159  -21.1875  -10.8557 C   0  0  0  0  0  0  0  0  0  0  0  0
   26.2694  -20.9208   -9.4118 C   0  0  0  0  0  0  0  0  0  0  0  0
   25.1875  -20.9994   -8.5378 C   0  0  0  0  0  0  0  0  0  0  0  0
   25.5966  -20.6578   -7.3053 N   0  0  0  0  0  0  0  0  0  0  0  0
   26.9022  -20.3550   -7.3152 C   0  0  0  0  0  0  0  0  0  0  0  0
   27.7439  -19.9614   -6.2943 C   0  0  0  0  0  0  0  0  0  0  0  0
   29.0641  -19.7142   -6.5577 C   0  0  0  0  0  0  0  0  0  0  0  0
   29.4978  -19.8724   -7.8494 C   0  0  0  0  0  0  0  0  0  0  0  0
   28.6448  -20.2717   -8.8874 C   0  0  0  0  0  0  0  0  0  0  0  0
   27.3289  -20.5161   -8.6201 C   0  0  0  0  0  0  0  0  0  0  0  0
   26.0042  -20.1909  -13.1203 C   0  0  0  0  0  0  0  0  0  0  0  0
   25.0885  -20.8179  -13.7140 O   0  0  0  0  0  0  0  0  0  0  0  0
   29.2351  -19.0275  -15.3570 O   0  0  0  0  0  0  0  0  0  0  0  0
   27.9944  -18.7873  -15.9338 C   0  0  0  0  0  0  0  0  0  0  0  0
   27.0031  -19.8529  -15.3917 C   0  0  2  0  0  0  0  0  0  0  0  0
   27.0801  -19.7277  -13.9648 N   0  0  0  0  0  0  0  0  0  0  0  0
   27.4470  -21.1187  -15.9580 C   0  0  0  0  0  0  0  0  0  0  0  0
   27.2878  -22.1504  -15.2359 O   0  0  0  0  0  0  0  0  0  0  0  0
   28.0362  -21.3257  -17.2297 N   0  0  0  0  0  0  0  0  0  0  0  0
   28.1220  -22.7039  -17.7819 C   0  0  1  0  0  0  0  0  0  0  0  0
   26.7186  -23.1391  -18.0476 C   0  0  0  0  0  0  0  0  0  0  0  0
   26.0364  -23.8626  -16.9717 C   0  0  0  0  0  0  0  0  0  0  0  0
   26.4607  -24.2220  -15.7180 C   0  0  0  0  0  0  0  0  0  0  0  0
   25.4205  -24.8295  -15.1088 N   0  0  0  0  0  0  0  0  0  0  0  0
   24.3965  -24.8447  -15.9483 C   0  0  0  0  0  0  0  0  0  0  0  0
   24.7564  -24.2603  -17.0844 N   0  0  0  0  0  0  0  0  0  0  0  0
   28.7844  -22.4945  -19.1198 C   0  0  0  0  0  0  0  0  0  0  0  0
   29.7144  -23.4142  -19.6243 O   0  0  0  0  0  0  0  0  0  0  0  0
   28.5598  -21.5148  -19.8563 O   0  0  0  0  0  0  0  0  0  0  0  0
  2  1  1  6
  2  3  1  0
  3  4  1  0
  4  5  2  0
  4 12  1  0
  5  6  1  0
  6  7  1  0
  7  8  2  0
  9  8  1  0
 10  9  2  0
 11 12  2  0
 11 10  1  0
 12  7  1  0
 13 14  2  0
 13  2  1  0
 15 16  1  0
 17 16  1  6
 17 18  1  0
 17 19  1  0
 18 13  1  0
 19 21  1  0
 20 19  2  0
 21 22  1  0
 22 29  1  0
 23 24  1  0
 22 23  1  6
 24 28  1  0
 25 24  2  0
 25 26  1  0
 26 27  1  0
 28 27  2  0
 29 31  2  0
 29 30  1  0
M  END
$$$$
