WSH.pdb
     RDKit          3D

 31 33  0  0  1  0  0  0  0  0999 V2000
   23.7844  -20.3521  -16.4314 N   0  0  0  0  0  0  0  0  0  0  0  0
   22.6185  -19.6428  -15.9578 C   0  0  1  0  0  0  0  0  0  0  0  0
   21.7661  -19.2723  -17.1334 C   0  0  0  0  0  0  0  0  0  0  0  0
   22.3354  -18.1859  -17.9423 C   0  0  0  0  0  0  0  0  0  0  0  0
   23.2616  -18.3476  -18.9703 C   0  0  0  0  0  0  0  0  0  0  0  0
   23.5823  -17.1401  -19.4626 N   0  0  0  0  0  0  0  0  0  0  0  0
   22.9126  -16.1789  -18.8115 C   0  0  0  0  0  0  0  0  0  0  0  0
   22.9173  -14.8082  -18.9749 C   0  0  0  0  0  0  0  0  0  0  0  0
   22.1256  -14.0251  -18.1790 C   0  0  0  0  0  0  0  0  0  0  0  0
   21.3490  -14.6513  -17.2377 C   0  0  0  0  0  0  0  0  0  0  0  0
   21.3430  -16.0429  -17.0699 C   0  0  0  0  0  0  0  0  0  0  0  0
   22.1349  -16.8195  -17.8652 C   0  0  0  0  0  0  0  0  0  0  0  0
   21.9291  -20.4715  -14.9650 C   0  0  0  0  0  0  0  0  0  0  0  0
   21.8200  -21.7162  -15.1155 O   0  0  0  0  0  0  0  0  0  0  0  0
   20.2327  -18.9511  -11.4049 O   0  0  0  0  0  0  0  0  0  0  0  0
   20.8343  -20.2019  -11.4618 C   0  0  0  0  0  0  0  0  0  0  0  0
   20.5818  -20.7875  -12.8779 C   0  0  2  0  0  0  0  0  0  0  0  0
   21.3348  -19.9431  -13.7596 N   0  0  0  0  0  0  0  0  0  0  0  0
   19.1357  -20.7798  -13.0482 C   0  0  0  0  0  0  0  0  0  0  0  0
   18.6179  -19.6945  -13.4544 O   0  0  0  0  0  0  0  0  0  0  0  0
   18.2421  -21.8535  -12.8118 N   0  0  0  0  0  0  0  0  0  0  0  0
   16.7881  -21.6651  -13.0612 C   0  0  1  0  0  0  0  0  0  0  0  0
   16.3346  -22.8611  -13.8315 C   0  0  0  0  0  0  0  0  0  0  0  0
   14.9124  -22.9234  -14.1783 C   0  0  0  0  0  0  0  0  0  0  0  0
   14.0572  -21.9600  -14.6488 C   0  0  0  0  0  0  0  0  0  0  0  0
   12.8643  -22.5578  -14.8536 N   0  0  0  0  0  0  0  0  0  0  0  0
   12.9765  -23.8357  -14.5252 C   0  0  0  0  0  0  0  0  0  0  0  0
   14.2158  -24.0722  -14.1132 N   0  0  0  0  0  0  0  0  0  0  0  0
   16.1891  -21.7702  -11.6818 C   0  0  0  0  0  0  0  0  0  0  0  0
   14.8705  -21.3677  -11.4275 O   0  0  0  0  0  0  0  0  0  0  0  0
   16.8053  -22.2112  -10.6926 O   0  0  0  0  0  0  0  0  0  0  0  0
  2  1  1  6
  2  3  1  0
  3  4  1  0
  4  5  2  0
  4 12  1  0
  5  6  1  0
  6  7  1  0
  7  8  2  0
  9  8  1  0
 10  9  2  0
 11 12  2  0
 11 10  1  0
 12  7  1  0
 13 14  2  0
 13  2  1  0
 15 16  1  0
 17 16  1  1
 17 18  1  0
 17 19  1  0
 18 13  1  0
 19 21  1  0
 20 19  2  0
 21 22  1  0
 22 29  1  0
 23 24  1  0
 22 23  1  6
 24 28  1  0
 25 24  2  0
 25 26  1  0
 26 27  1  0
 28 27  2  0
 29 31  2  0
 29 30  1  0
M  END
$$$$
