RNN.pdb
     RDKit          3D

 28 27  0  0  1  0  0  0  0  0999 V2000
   27.6257  -26.2064  -16.3120 N   0  0  0  0  0  0  0  0  0  0  0  0
   26.8857  -25.5744  -17.3417 C   0  0  0  0  0  0  0  0  0  0  0  0
   26.2156  -26.2346  -18.2479 N   0  0  0  0  0  0  0  0  0  0  0  0
   26.8323  -24.1550  -17.4424 N   0  0  0  0  0  0  0  0  0  0  0  0
   27.3676  -23.2705  -16.4098 C   0  0  0  0  0  0  0  0  0  0  0  0
   26.8108  -21.9150  -16.6675 C   0  0  0  0  0  0  0  0  0  0  0  0
   25.3380  -21.7873  -16.7530 C   0  0  0  0  0  0  0  0  0  0  0  0
   24.8600  -20.4225  -17.1640 C   0  0  2  0  0  0  0  0  0  0  0  0
   25.9340  -19.5272  -17.5290 N   0  0  0  0  0  0  0  0  0  0  0  0
   24.1144  -19.8826  -15.9690 C   0  0  0  0  0  0  0  0  0  0  0  0
   24.7755  -19.3857  -15.0288 O   0  0  0  0  0  0  0  0  0  0  0  0
   25.7908  -25.6728  -19.0349 N   0  0  0  0  0  0  0  0  0  0  0  0
   19.1971  -16.9153  -14.8439 C   0  0  0  0  0  0  0  0  0  0  0  0
   20.4034  -17.5301  -14.3203 O   0  0  0  0  0  0  0  0  0  0  0  0
   20.5682  -17.4451  -13.0906 C   0  0  0  0  0  0  0  0  0  0  0  0
   21.2707  -18.1687  -15.2884 C   0  0  2  0  0  0  0  0  0  0  0  0
   21.9559  -19.4058  -14.7865 N   0  0  0  0  0  0  0  0  0  0  0  0
   22.7282  -19.9542  -15.9535 C   0  0  0  0  0  0  0  0  0  0  0  0
   21.0648  -20.5229  -14.4386 O   0  0  0  0  0  0  0  0  0  0  0  0
   20.4683  -21.1360  -15.3990 N   0  0  0  0  0  0  0  0  0  0  0  0
   18.5885  -24.0751  -10.2207 C   0  0  0  0  0  0  0  0  0  0  0  0
   19.1218  -23.8742  -11.5090 O   0  0  0  0  0  0  0  0  0  0  0  0
   18.7475  -24.5825  -12.4769 C   0  0  0  0  0  0  0  0  0  0  0  0
   20.1335  -22.8146  -11.7139 C   0  0  2  0  0  0  0  0  0  0  0  0
   19.7448  -22.0365  -12.9334 N   0  0  0  0  0  0  0  0  0  0  0  0
   20.7957  -21.0021  -13.1478 C   0  0  0  0  0  0  0  0  0  0  0  0
   18.4343  -21.3674  -12.7679 O   0  0  0  0  0  0  0  0  0  0  0  0
   17.3026  -21.8976  -13.3383 O   0  0  0  0  0  0  0  0  0  0  0  0
  1  2  1  0
  2  4  1  0
  3  2  2  0
  4  5  1  0
  5  6  1  0
  7  6  1  0
  8  9  1  1
  8  7  1  0
 10  8  1  0
 10 11  2  0
 13 15  1  0
 13 12  1  0
 14 13  2  0
 16 15  1  1
 16 17  1  0
 16 18  1  0
 17 10  1  0
 18 25  1  0
 19 18  2  0
 20 21  1  0
 21 23  1  0
 22 21  2  0
 24 23  1  6
 24 26  1  0
 25 24  1  0
 26 28  2  0
 26 27  1  0
M  END
$$$$
