RNN.pdb
     RDKit          3D

 28 27  0  0  1  0  0  0  0  0999 V2000
   22.8764  -12.3957  -18.1010 N   0  0  0  0  0  0  0  0  0  0  0  0
   21.6025  -12.2651  -18.7073 C   0  0  0  0  0  0  0  0  0  0  0  0
   21.4329  -12.1701  -19.9989 N   0  0  0  0  0  0  0  0  0  0  0  0
   20.4154  -12.2319  -17.9218 N   0  0  0  0  0  0  0  0  0  0  0  0
   20.4254  -11.9443  -16.4892 C   0  0  0  0  0  0  0  0  0  0  0  0
   20.0863  -10.5040  -16.3328 C   0  0  0  0  0  0  0  0  0  0  0  0
   20.0119   -9.9663  -14.9550 C   0  0  0  0  0  0  0  0  0  0  0  0
   18.6610  -10.1062  -14.3104 C   0  0  2  0  0  0  0  0  0  0  0  0
   17.6181  -10.4685  -15.2428 N   0  0  0  0  0  0  0  0  0  0  0  0
   18.3681   -8.7591  -13.6979 C   0  0  0  0  0  0  0  0  0  0  0  0
   17.6000   -7.9813  -14.3085 O   0  0  0  0  0  0  0  0  0  0  0  0
   20.4380  -12.1236  -20.3502 N   0  0  0  0  0  0  0  0  0  0  0  0
   18.0944   -5.0027  -10.2079 C   0  0  0  0  0  0  0  0  0  0  0  0
   18.1325   -6.2893   -9.5366 O   0  0  0  0  0  0  0  0  0  0  0  0
   17.8564   -6.2793   -8.3241 C   0  0  0  0  0  0  0  0  0  0  0  0
   18.4863   -7.4303  -10.3553 C   0  0  2  0  0  0  0  0  0  0  0  0
   18.6335   -7.1234  -11.8168 N   0  0  0  0  0  0  0  0  0  0  0  0
   18.9566   -8.4306  -12.4844 C   0  0  0  0  0  0  0  0  0  0  0  0
   19.7904   -6.2876  -12.1721 O   0  0  0  0  0  0  0  0  0  0  0  0
   20.9166   -6.8756  -12.3715 N   0  0  0  0  0  0  0  0  0  0  0  0
   22.3197   -3.2875  -15.1583 C   0  0  0  0  0  0  0  0  0  0  0  0
   21.6888   -4.5038  -15.4858 O   0  0  0  0  0  0  0  0  0  0  0  0
   21.8717   -5.0409  -16.6068 C   0  0  0  0  0  0  0  0  0  0  0  0
   20.8027   -5.1476  -14.4915 C   0  0  1  0  0  0  0  0  0  0  0  0
   20.7163   -4.2452  -13.2991 N   0  0  0  0  0  0  0  0  0  0  0  0
   19.7943   -4.8928  -12.3241 C   0  0  0  0  0  0  0  0  0  0  0  0
   20.1844   -2.9095  -13.6538 O   0  0  0  0  0  0  0  0  0  0  0  0
   20.9702   -1.7895  -13.5299 O   0  0  0  0  0  0  0  0  0  0  0  0
  1  2  1  0
  2  4  1  0
  3  2  2  0
  4  5  1  0
  5  6  1  0
  7  6  1  0
  8  9  1  6
  8  7  1  0
 10  8  1  0
 10 11  2  0
 13 15  1  0
 13 12  1  0
 14 13  2  0
 16 15  1  6
 16 17  1  0
 16 18  1  0
 17 10  1  0
 18 25  1  0
 19 18  2  0
 20 21  1  0
 21 23  1  0
 22 21  2  0
 24 23  1  1
 24 26  1  0
 25 24  1  0
 26 28  2  0
 26 27  1  0
M  END
$$$$
