RNN.pdb
     RDKit          3D

 28 27  0  0  1  0  0  0  0  0999 V2000
   29.0396  -21.4859  -16.6351 N   0  0  0  0  0  0  0  0  0  0  0  0
   28.9780  -22.8941  -16.4928 C   0  0  0  0  0  0  0  0  0  0  0  0
   29.9517  -23.6907  -16.8441 N   0  0  0  0  0  0  0  0  0  0  0  0
   27.8258  -23.5270  -15.9454 N   0  0  0  0  0  0  0  0  0  0  0  0
   26.6476  -22.7803  -15.5103 C   0  0  0  0  0  0  0  0  0  0  0  0
   25.8445  -22.4876  -16.7281 C   0  0  0  0  0  0  0  0  0  0  0  0
   24.5762  -21.7449  -16.5469 C   0  0  0  0  0  0  0  0  0  0  0  0
   23.3507  -22.6151  -16.5171 C   0  0  2  0  0  0  0  0  0  0  0  0
   23.1414  -23.3490  -17.7442 N   0  0  0  0  0  0  0  0  0  0  0  0
   22.1977  -21.6746  -16.2686 C   0  0  0  0  0  0  0  0  0  0  0  0
   21.6056  -21.1839  -17.2567 O   0  0  0  0  0  0  0  0  0  0  0  0
   29.7655  -24.7289  -16.7907 N   0  0  0  0  0  0  0  0  0  0  0  0
   17.4630  -20.9962  -13.5757 C   0  0  0  0  0  0  0  0  0  0  0  0
   18.7310  -20.4856  -13.0870 O   0  0  0  0  0  0  0  0  0  0  0  0
   18.6665  -19.4969  -12.3354 C   0  0  0  0  0  0  0  0  0  0  0  0
   19.9187  -21.1855  -13.5304 C   0  0  1  0  0  0  0  0  0  0  0  0
   20.6304  -20.5334  -14.6793 N   0  0  0  0  0  0  0  0  0  0  0  0
   21.8345  -21.3880  -14.9598 C   0  0  0  0  0  0  0  0  0  0  0  0
   21.2292  -19.2221  -14.3877 O   0  0  0  0  0  0  0  0  0  0  0  0
   22.5116  -19.1484  -14.3266 N   0  0  0  0  0  0  0  0  0  0  0  0
   21.6659  -14.7542  -16.4132 C   0  0  0  0  0  0  0  0  0  0  0  0
   22.1865  -16.0030  -16.8054 O   0  0  0  0  0  0  0  0  0  0  0  0
   22.9428  -16.0987  -17.8041 C   0  0  0  0  0  0  0  0  0  0  0  0
   21.8326  -17.2093  -16.0258 C   0  0  1  0  0  0  0  0  0  0  0  0
   20.9157  -16.7892  -14.9182 N   0  0  0  0  0  0  0  0  0  0  0  0
   20.5374  -18.0210  -14.1702 C   0  0  0  0  0  0  0  0  0  0  0  0
   19.6885  -16.1397  -15.4327 O   0  0  0  0  0  0  0  0  0  0  0  0
   19.5250  -14.7792  -15.3350 O   0  0  0  0  0  0  0  0  0  0  0  0
  1  2  1  0
  2  4  1  0
  3  2  2  0
  4  5  1  0
  5  6  1  0
  7  6  1  0
  8  9  1  6
  8  7  1  0
 10  8  1  0
 10 11  2  0
 13 15  1  0
 13 12  1  0
 14 13  2  0
 16 15  1  6
 16 17  1  0
 16 18  1  0
 17 10  1  0
 18 25  1  0
 19 18  2  0
 20 21  1  0
 21 23  1  0
 22 21  2  0
 24 23  1  1
 24 26  1  0
 25 24  1  0
 26 28  2  0
 26 27  1  0
M  END
$$$$
