RNN.pdb
     RDKit          3D

 28 27  0  0  1  0  0  0  0  0999 V2000
   26.9098  -13.1992  -14.9118 N   0  0  0  0  0  0  0  0  0  0  0  0
   26.5468  -13.3917  -16.2678 C   0  0  0  0  0  0  0  0  0  0  0  0
   27.2573  -12.9430  -17.2677 N   0  0  0  0  0  0  0  0  0  0  0  0
   25.3631  -14.1017  -16.6173 N   0  0  0  0  0  0  0  0  0  0  0  0
   24.9268  -15.3039  -15.9105 C   0  0  0  0  0  0  0  0  0  0  0  0
   25.5850  -16.4613  -16.5745 C   0  0  0  0  0  0  0  0  0  0  0  0
   25.2767  -17.8127  -16.0533 C   0  0  0  0  0  0  0  0  0  0  0  0
   26.1633  -18.2547  -14.9225 C   0  0  2  0  0  0  0  0  0  0  0  0
   27.5679  -18.2482  -15.2619 N   0  0  0  0  0  0  0  0  0  0  0  0
   25.7145  -19.6550  -14.5857 C   0  0  0  0  0  0  0  0  0  0  0  0
   25.7991  -20.5368  -15.4706 O   0  0  0  0  0  0  0  0  0  0  0  0
   26.9032  -13.1526  -18.2404 N   0  0  0  0  0  0  0  0  0  0  0  0
   27.4510  -21.2058  -10.2654 C   0  0  0  0  0  0  0  0  0  0  0  0
   26.8402  -21.5690  -11.5312 O   0  0  0  0  0  0  0  0  0  0  0  0
   27.6252  -21.8529  -12.4530 C   0  0  0  0  0  0  0  0  0  0  0  0
   25.3927  -21.5585  -11.5719 C   0  0  2  0  0  0  0  0  0  0  0  0
   24.8121  -21.3101  -12.9331 N   0  0  0  0  0  0  0  0  0  0  0  0
   25.2268  -19.9162  -13.3126 C   0  0  0  0  0  0  0  0  0  0  0  0
   23.3444  -21.2339  -12.9883 O   0  0  0  0  0  0  0  0  0  0  0  0
   22.6752  -22.2578  -12.5910 N   0  0  0  0  0  0  0  0  0  0  0  0
   18.2891  -20.3556  -12.2071 C   0  0  0  0  0  0  0  0  0  0  0  0
   19.0495  -19.2881  -12.7236 O   0  0  0  0  0  0  0  0  0  0  0  0
   18.4946  -18.3396  -13.3326 C   0  0  0  0  0  0  0  0  0  0  0  0
   20.5176  -19.2937  -12.5415 C   0  0  1  0  0  0  0  0  0  0  0  0
   21.1012  -20.2503  -13.5356 N   0  0  0  0  0  0  0  0  0  0  0  0
   22.5836  -20.1416  -13.4315 C   0  0  0  0  0  0  0  0  0  0  0  0
   20.6888  -19.9283  -14.9208 O   0  0  0  0  0  0  0  0  0  0  0  0
   19.4531  -20.3062  -15.3871 O   0  0  0  0  0  0  0  0  0  0  0  0
  1  2  1  0
  2  4  1  0
  3  2  2  0
  4  5  1  0
  5  6  1  0
  7  6  1  0
  8  9  1  6
  8  7  1  0
 10  8  1  0
 10 11  2  0
 13 15  1  0
 13 12  1  0
 14 13  2  0
 16 15  1  6
 16 17  1  0
 16 18  1  0
 17 10  1  0
 18 25  1  0
 19 18  2  0
 20 21  1  0
 21 23  1  0
 22 21  2  0
 24 23  1  1
 24 26  1  0
 25 24  1  0
 26 28  2  0
 26 27  1  0
M  END
$$$$
