RNN.pdb
     RDKit          3D

 28 27  0  0  1  0  0  0  0  0999 V2000
   30.6150  -21.9317   -8.5040 N   0  0  0  0  0  0  0  0  0  0  0  0
   31.1194  -22.2057   -9.7993 C   0  0  0  0  0  0  0  0  0  0  0  0
   32.1955  -22.9150  -10.0112 N   0  0  0  0  0  0  0  0  0  0  0  0
   30.4628  -21.7122  -10.9624 N   0  0  0  0  0  0  0  0  0  0  0  0
   29.1897  -20.9973  -10.9060 C   0  0  0  0  0  0  0  0  0  0  0  0
   28.3032  -21.6066  -11.9339 C   0  0  0  0  0  0  0  0  0  0  0  0
   26.9746  -20.9871  -12.1430 C   0  0  0  0  0  0  0  0  0  0  0  0
   26.1532  -21.6381  -13.2207 C   0  0  2  0  0  0  0  0  0  0  0  0
   26.8080  -21.6508  -14.5088 N   0  0  0  0  0  0  0  0  0  0  0  0
   24.8777  -20.8357  -13.2919 C   0  0  0  0  0  0  0  0  0  0  0  0
   24.9553  -19.6165  -13.5661 O   0  0  0  0  0  0  0  0  0  0  0  0
   32.4825  -23.0630  -11.0168 N   0  0  0  0  0  0  0  0  0  0  0  0
   20.3634  -19.9418  -15.9724 C   0  0  0  0  0  0  0  0  0  0  0  0
   21.1347  -19.4119  -14.8626 O   0  0  0  0  0  0  0  0  0  0  0  0
   20.6662  -18.4031  -14.3063 C   0  0  0  0  0  0  0  0  0  0  0  0
   22.3555  -20.1183  -14.5340 C   0  0  2  0  0  0  0  0  0  0  0  0
   22.3777  -20.7106  -13.1555 N   0  0  0  0  0  0  0  0  0  0  0  0
   23.6683  -21.4739  -13.0530 C   0  0  0  0  0  0  0  0  0  0  0  0
   21.3694  -21.7505  -12.8997 O   0  0  0  0  0  0  0  0  0  0  0  0
   21.5029  -22.8773  -13.5050 N   0  0  0  0  0  0  0  0  0  0  0  0
   16.7292  -23.8896   -9.6542 C   0  0  0  0  0  0  0  0  0  0  0  0
   17.9501  -23.9851  -10.3504 O   0  0  0  0  0  0  0  0  0  0  0  0
   18.3396  -25.0850  -10.8164 C   0  0  0  0  0  0  0  0  0  0  0  0
   18.7756  -22.7707  -10.5293 C   0  0  2  0  0  0  0  0  0  0  0  0
   19.2838  -22.7629  -11.9384 N   0  0  0  0  0  0  0  0  0  0  0  0
   20.2608  -21.6430  -12.0466 C   0  0  0  0  0  0  0  0  0  0  0  0
   18.1940  -22.5502  -12.9180 O   0  0  0  0  0  0  0  0  0  0  0  0
   17.4709  -23.6143  -13.3999 O   0  0  0  0  0  0  0  0  0  0  0  0
  1  2  1  0
  2  4  1  0
  3  2  2  0
  4  5  1  0
  5  6  1  0
  7  6  1  0
  8  9  1  6
  8  7  1  0
 10  8  1  0
 10 11  2  0
 13 15  1  0
 13 12  1  0
 14 13  2  0
 16 15  1  1
 16 17  1  0
 16 18  1  0
 17 10  1  0
 18 25  1  0
 19 18  2  0
 20 21  1  0
 21 23  1  0
 22 21  2  0
 24 23  1  1
 24 26  1  0
 25 24  1  0
 26 28  2  0
 26 27  1  0
M  END
$$$$
