RNN.pdb
     RDKit          3D

 28 27  0  0  1  0  0  0  0  0999 V2000
   19.8120  -23.5210   -7.1778 N   0  0  0  0  0  0  0  0  0  0  0  0
   19.0752  -23.1234   -8.3208 C   0  0  0  0  0  0  0  0  0  0  0  0
   17.7935  -23.3364   -8.4538 N   0  0  0  0  0  0  0  0  0  0  0  0
   19.7088  -22.4545   -9.4066 N   0  0  0  0  0  0  0  0  0  0  0  0
   21.1584  -22.4463   -9.5900 C   0  0  0  0  0  0  0  0  0  0  0  0
   21.6964  -21.3428   -8.7495 C   0  0  0  0  0  0  0  0  0  0  0  0
   22.5494  -20.3316   -9.4151 C   0  0  0  0  0  0  0  0  0  0  0  0
   23.6001  -20.9110  -10.3209 C   0  0  2  0  0  0  0  0  0  0  0  0
   24.9467  -20.7029   -9.8398 N   0  0  0  0  0  0  0  0  0  0  0  0
   23.4083  -20.2216  -11.6489 C   0  0  0  0  0  0  0  0  0  0  0  0
   23.8574  -19.0611  -11.7882 O   0  0  0  0  0  0  0  0  0  0  0  0
   17.3584  -23.0821   -9.3820 N   0  0  0  0  0  0  0  0  0  0  0  0
   23.3626  -19.1071  -16.3396 C   0  0  0  0  0  0  0  0  0  0  0  0
   23.5806  -20.5396  -16.2513 O   0  0  0  0  0  0  0  0  0  0  0  0
   24.0724  -21.0787  -17.2583 C   0  0  0  0  0  0  0  0  0  0  0  0
   23.2014  -21.1709  -15.0044 C   0  0  2  0  0  0  0  0  0  0  0  0
   22.5642  -20.2459  -14.0093 N   0  0  0  0  0  0  0  0  0  0  0  0
   22.7447  -20.8946  -12.6656 C   0  0  0  0  0  0  0  0  0  0  0  0
   21.1022  -20.1210  -14.1110 O   0  0  0  0  0  0  0  0  0  0  0  0
   20.3814  -20.9608  -13.4559 N   0  0  0  0  0  0  0  0  0  0  0  0
   18.4427  -16.5241  -16.9246 C   0  0  0  0  0  0  0  0  0  0  0  0
   19.1936  -16.9481  -15.8106 O   0  0  0  0  0  0  0  0  0  0  0  0
   20.4259  -16.7137  -15.7396 C   0  0  0  0  0  0  0  0  0  0  0  0
   18.5138  -17.6768  -14.7173 C   0  0  1  0  0  0  0  0  0  0  0  0
   18.9099  -19.1185  -14.8091 N   0  0  0  0  0  0  0  0  0  0  0  0
   20.3985  -19.1629  -14.8560 C   0  0  0  0  0  0  0  0  0  0  0  0
   18.3683  -19.7643  -16.0265 O   0  0  0  0  0  0  0  0  0  0  0  0
   17.0233  -20.0194  -16.1421 O   0  0  0  0  0  0  0  0  0  0  0  0
  1  2  1  0
  2  4  1  0
  3  2  2  0
  4  5  1  0
  5  6  1  0
  7  6  1  0
  8  9  1  1
  8  7  1  0
 10  8  1  0
 10 11  2  0
 13 15  1  0
 13 12  1  0
 14 13  2  0
 16 15  1  1
 16 17  1  0
 16 18  1  0
 17 10  1  0
 18 25  1  0
 19 18  2  0
 20 21  1  0
 21 23  1  0
 22 21  2  0
 24 23  1  1
 24 26  1  0
 25 24  1  0
 26 28  2  0
 26 27  1  0
M  END
$$$$
