RNN.pdb
     RDKit          3D

 28 27  0  0  1  0  0  0  0  0999 V2000
   32.0693  -22.8926  -12.5097 N   0  0  0  0  0  0  0  0  0  0  0  0
   31.8268  -22.5850  -11.1482 C   0  0  0  0  0  0  0  0  0  0  0  0
   32.4834  -23.1374  -10.1634 N   0  0  0  0  0  0  0  0  0  0  0  0
   30.8335  -21.6351  -10.7757 N   0  0  0  0  0  0  0  0  0  0  0  0
   30.3490  -20.6017  -11.6881 C   0  0  0  0  0  0  0  0  0  0  0  0
   28.8891  -20.8281  -11.8651 C   0  0  0  0  0  0  0  0  0  0  0  0
   28.1762  -19.9601  -12.8302 C   0  0  0  0  0  0  0  0  0  0  0  0
   28.0612  -20.5394  -14.2126 C   0  0  2  0  0  0  0  0  0  0  0  0
   29.1540  -20.1659  -15.0812 N   0  0  0  0  0  0  0  0  0  0  0  0
   26.7572  -20.0141  -14.7597 C   0  0  0  0  0  0  0  0  0  0  0  0
   26.7016  -18.8162  -15.1199 O   0  0  0  0  0  0  0  0  0  0  0  0
   32.2568  -22.8023   -9.1878 N   0  0  0  0  0  0  0  0  0  0  0  0
   22.7854  -20.9394  -18.7241 C   0  0  0  0  0  0  0  0  0  0  0  0
   22.8373  -20.8177  -17.2785 O   0  0  0  0  0  0  0  0  0  0  0  0
   21.7778  -20.4793  -16.7222 C   0  0  0  0  0  0  0  0  0  0  0  0
   24.1129  -21.1040  -16.6555 C   0  0  1  0  0  0  0  0  0  0  0  0
   24.3515  -20.3737  -15.3665 N   0  0  0  0  0  0  0  0  0  0  0  0
   25.6699  -20.8729  -14.8453 C   0  0  0  0  0  0  0  0  0  0  0  0
   23.4273  -20.7076  -14.2722 O   0  0  0  0  0  0  0  0  0  0  0  0
   23.6658  -21.7705  -13.5888 N   0  0  0  0  0  0  0  0  0  0  0  0
   22.0694  -20.7068   -9.0778 C   0  0  0  0  0  0  0  0  0  0  0  0
   21.5911  -20.8885  -10.3903 O   0  0  0  0  0  0  0  0  0  0  0  0
   20.6860  -21.7250  -10.6342 C   0  0  0  0  0  0  0  0  0  0  0  0
   22.1680  -20.0803  -11.4868 C   0  0  2  0  0  0  0  0  0  0  0  0
   21.4492  -20.4395  -12.7510 N   0  0  0  0  0  0  0  0  0  0  0  0
   22.2959  -19.9738  -13.8852 C   0  0  0  0  0  0  0  0  0  0  0  0
   20.1230  -19.7867  -12.8377 O   0  0  0  0  0  0  0  0  0  0  0  0
   18.9826  -20.4748  -12.5010 O   0  0  0  0  0  0  0  0  0  0  0  0
  1  2  1  0
  2  4  1  0
  3  2  2  0
  4  5  1  0
  5  6  1  0
  7  6  1  0
  8  9  1  6
  8  7  1  0
 10  8  1  0
 10 11  2  0
 13 15  1  0
 13 12  1  0
 14 13  2  0
 16 15  1  6
 16 17  1  0
 16 18  1  0
 17 10  1  0
 18 25  1  0
 19 18  2  0
 20 21  1  0
 21 23  1  0
 22 21  2  0
 24 23  1  6
 24 26  1  0
 25 24  1  0
 26 28  2  0
 26 27  1  0
M  END
$$$$
