RNN.pdb
     RDKit          3D

 28 27  0  0  1  0  0  0  0  0999 V2000
   29.7820  -21.9358   -9.7518 N   0  0  0  0  0  0  0  0  0  0  0  0
   30.0552  -21.7737  -11.1325 C   0  0  0  0  0  0  0  0  0  0  0  0
   30.6752  -22.6735  -11.8481 N   0  0  0  0  0  0  0  0  0  0  0  0
   29.6572  -20.5958  -11.8264 N   0  0  0  0  0  0  0  0  0  0  0  0
   28.2674  -20.1485  -11.8884 C   0  0  0  0  0  0  0  0  0  0  0  0
   28.1678  -19.1966  -13.0275 C   0  0  0  0  0  0  0  0  0  0  0  0
   26.9112  -19.1993  -13.8110 C   0  0  0  0  0  0  0  0  0  0  0  0
   26.8047  -20.3246  -14.8021 C   0  0  2  0  0  0  0  0  0  0  0  0
   27.7856  -20.2484  -15.8604 N   0  0  0  0  0  0  0  0  0  0  0  0
   25.4121  -20.2246  -15.3735 C   0  0  0  0  0  0  0  0  0  0  0  0
   25.1758  -19.3266  -16.2134 O   0  0  0  0  0  0  0  0  0  0  0  0
   30.8826  -22.4273  -12.8540 N   0  0  0  0  0  0  0  0  0  0  0  0
   21.4109  -23.1038  -18.0868 C   0  0  0  0  0  0  0  0  0  0  0  0
   21.4878  -22.5102  -16.7643 O   0  0  0  0  0  0  0  0  0  0  0  0
   20.4031  -22.1889  -16.2477 C   0  0  0  0  0  0  0  0  0  0  0  0
   22.8146  -22.3624  -16.2031 C   0  0  1  0  0  0  0  0  0  0  0  0
   23.0506  -21.0556  -15.5044 N   0  0  0  0  0  0  0  0  0  0  0  0
   24.4461  -21.1275  -14.9510 C   0  0  0  0  0  0  0  0  0  0  0  0
   22.2391  -20.8298  -14.2987 O   0  0  0  0  0  0  0  0  0  0  0  0
   22.5185  -21.5194  -13.2497 N   0  0  0  0  0  0  0  0  0  0  0  0
   23.1880  -20.1714  -10.7550 C   0  0  0  0  0  0  0  0  0  0  0  0
   21.7991  -19.9908  -10.9067 O   0  0  0  0  0  0  0  0  0  0  0  0
   20.9867  -20.6198  -10.1835 C   0  0  0  0  0  0  0  0  0  0  0  0
   21.3019  -19.0476  -11.9321 C   0  0  2  0  0  0  0  0  0  0  0  0
   20.4336  -19.8151  -12.8812 N   0  0  0  0  0  0  0  0  0  0  0  0
   21.1772  -19.9222  -14.1680 C   0  0  0  0  0  0  0  0  0  0  0  0
   19.1423  -19.1325  -13.1244 O   0  0  0  0  0  0  0  0  0  0  0  0
   18.1256  -19.2132  -12.2040 O   0  0  0  0  0  0  0  0  0  0  0  0
  1  2  1  0
  2  4  1  0
  3  2  2  0
  4  5  1  0
  5  6  1  0
  7  6  1  0
  8  9  1  6
  8  7  1  0
 10  8  1  0
 10 11  2  0
 13 15  1  0
 13 12  1  0
 14 13  2  0
 16 15  1  6
 16 17  1  0
 16 18  1  0
 17 10  1  0
 18 25  1  0
 19 18  2  0
 20 21  1  0
 21 23  1  0
 22 21  2  0
 24 23  1  1
 24 26  1  0
 25 24  1  0
 26 28  2  0
 26 27  1  0
M  END
$$$$
