PHN.pdb
     RDKit          3D

 26 27  0  0  1  0  0  0  0  0999 V2000
   28.5874  -22.1557  -11.2963 N   0  0  0  0  0  0  0  0  0  0  0  0
   29.6010  -21.1354  -11.4983 C   0  0  0  0  0  0  0  0  0  0  0  0
   29.8878  -20.7376  -10.0487 C   0  0  0  0  0  0  0  0  0  0  0  0
   28.4753  -20.5840   -9.5228 C   0  0  0  0  0  0  0  0  0  0  0  0
   27.6338  -21.4736  -10.4449 C   0  0  1  0  0  0  0  0  0  0  0  0
   26.7550  -20.6504  -11.3082 C   0  0  0  0  0  0  0  0  0  0  0  0
   26.5599  -19.4371  -11.0516 O   0  0  0  0  0  0  0  0  0  0  0  0
   26.1000  -21.1955  -12.4556 N   0  0  0  0  0  0  0  0  0  0  0  0
   25.2582  -20.4013  -13.3181 C   0  0  1  0  0  0  0  0  0  0  0  0
   25.6092  -20.7414  -14.7438 C   0  0  0  0  0  0  0  0  0  0  0  0
   26.8744  -20.0935  -15.1714 C   0  0  0  0  0  0  0  0  0  0  0  0
   26.9220  -18.7912  -15.6273 C   0  0  0  0  0  0  0  0  0  0  0  0
   28.2033  -18.5065  -15.9325 N   0  0  0  0  0  0  0  0  0  0  0  0
   28.9483  -19.5923  -15.6794 C   0  0  0  0  0  0  0  0  0  0  0  0
   28.1210  -20.5449  -15.2178 N   0  0  0  0  0  0  0  0  0  0  0  0
   23.8507  -20.8081  -13.0998 C   0  0  0  0  0  0  0  0  0  0  0  0
   23.5876  -21.9400  -12.6274 O   0  0  0  0  0  0  0  0  0  0  0  0
   18.8824  -20.8981  -12.1430 N   0  0  0  0  0  0  0  0  0  0  0  0
   19.2680  -19.5378  -12.0434 C   0  0  0  0  0  0  0  0  0  0  0  0
   18.4242  -18.7193  -11.6042 O   0  0  0  0  0  0  0  0  0  0  0  0
   20.6293  -19.1694  -12.4594 C   0  0  0  0  0  0  0  0  0  0  0  0
   21.4055  -20.3373  -13.0168 C   0  0  2  0  0  0  0  0  0  0  0  0
   22.7475  -19.9587  -13.4062 N   0  0  0  0  0  0  0  0  0  0  0  0
   20.7371  -20.9891  -14.1428 C   0  0  0  0  0  0  0  0  0  0  0  0
   19.7681  -21.9760  -13.9991 O   0  0  0  0  0  0  0  0  0  0  0  0
   21.0326  -20.6613  -15.3165 O   0  0  0  0  0  0  0  0  0  0  0  0
  1  2  1  0
  2  3  1  0
  4  3  1  0
  5  1  1  0
  5  4  1  0
  6  8  1  0
  5  6  1  6
  7  6  2  0
  9  8  1  0
  9 10  1  6
 10 11  1  0
 11 15  1  0
 12 11  2  0
 12 13  1  0
 13 14  1  0
 15 14  2  0
 16  9  1  0
 17 16  2  0
 18 19  1  0
 19 20  2  0
 19 21  1  0
 22 21  1  6
 22 24  1  0
 22 23  1  0
 23 16  1  0
 24 25  1  0
 26 24  2  0
M  END
$$$$
