PHN.pdb
     RDKit          3D

 26 27  0  0  1  0  0  0  0  0999 V2000
   24.6551  -13.2951  -15.7900 N   0  0  0  0  0  0  0  0  0  0  0  0
   23.6535  -14.3169  -16.0387 C   0  0  0  0  0  0  0  0  0  0  0  0
   24.3143  -15.0796  -17.1892 C   0  0  0  0  0  0  0  0  0  0  0  0
   24.7361  -13.9257  -18.0757 C   0  0  0  0  0  0  0  0  0  0  0  0
   24.8585  -12.7393  -17.1126 C   0  0  1  0  0  0  0  0  0  0  0  0
   23.7862  -11.7481  -17.3634 C   0  0  0  0  0  0  0  0  0  0  0  0
   23.6273  -11.2517  -18.5055 O   0  0  0  0  0  0  0  0  0  0  0  0
   22.8979  -11.3199  -16.3289 N   0  0  0  0  0  0  0  0  0  0  0  0
   21.7971  -10.4195  -16.5755 C   0  0  1  0  0  0  0  0  0  0  0  0
   20.5272  -11.1239  -16.1723 C   0  0  0  0  0  0  0  0  0  0  0  0
   20.0671  -12.0746  -17.2154 C   0  0  0  0  0  0  0  0  0  0  0  0
   19.6694  -11.6605  -18.4709 C   0  0  0  0  0  0  0  0  0  0  0  0
   19.3141  -12.7540  -19.1737 N   0  0  0  0  0  0  0  0  0  0  0  0
   19.4800  -13.8303  -18.3914 C   0  0  0  0  0  0  0  0  0  0  0  0
   19.9383  -13.3949  -17.2059 N   0  0  0  0  0  0  0  0  0  0  0  0
   21.9501   -9.2418  -15.6900 C   0  0  0  0  0  0  0  0  0  0  0  0
   22.3958   -9.3821  -14.5259 O   0  0  0  0  0  0  0  0  0  0  0  0
   22.2524   -4.5648  -13.7049 N   0  0  0  0  0  0  0  0  0  0  0  0
   22.3301   -4.3662  -15.1061 C   0  0  0  0  0  0  0  0  0  0  0  0
   22.5918   -3.2112  -15.5215 O   0  0  0  0  0  0  0  0  0  0  0  0
   22.1001   -5.5220  -15.9853 C   0  0  0  0  0  0  0  0  0  0  0  0
   21.8486   -6.7974  -15.2191 C   0  0  2  0  0  0  0  0  0  0  0  0
   21.6087   -7.9202  -16.1010 N   0  0  0  0  0  0  0  0  0  0  0  0
   20.7491   -6.6869  -14.2608 C   0  0  0  0  0  0  0  0  0  0  0  0
   20.9113   -6.2697  -12.9443 O   0  0  0  0  0  0  0  0  0  0  0  0
   19.5822   -6.9778  -14.6161 O   0  0  0  0  0  0  0  0  0  0  0  0
  1  2  1  0
  2  3  1  0
  4  3  1  0
  5  1  1  0
  5  4  1  0
  6  8  1  0
  5  6  1  6
  7  6  2  0
  9  8  1  0
  9 10  1  1
 10 11  1  0
 11 15  1  0
 12 11  2  0
 12 13  1  0
 13 14  1  0
 15 14  2  0
 16  9  1  0
 17 16  2  0
 18 19  1  0
 19 20  2  0
 19 21  1  0
 22 21  1  6
 22 24  1  0
 22 23  1  0
 23 16  1  0
 24 25  1  0
 26 24  2  0
M  END
$$$$
