PHN.pdb
     RDKit          3D

 26 27  0  0  1  0  0  0  0  0999 V2000
   24.9154  -13.4798  -15.1493 N   0  0  0  0  0  0  0  0  0  0  0  0
   24.2680  -14.5020  -15.9525 C   0  0  0  0  0  0  0  0  0  0  0  0
   25.4089  -14.8729  -16.9027 C   0  0  0  0  0  0  0  0  0  0  0  0
   25.8788  -13.4935  -17.3173 C   0  0  0  0  0  0  0  0  0  0  0  0
   25.4435  -12.5866  -16.1606 C   0  0  1  0  0  0  0  0  0  0  0  0
   24.3517  -11.6805  -16.5875 C   0  0  0  0  0  0  0  0  0  0  0  0
   24.4423  -11.0276  -17.6560 O   0  0  0  0  0  0  0  0  0  0  0  0
   23.1636  -11.5130  -15.8110 N   0  0  0  0  0  0  0  0  0  0  0  0
   22.1191  -10.5883  -16.1815 C   0  0  1  0  0  0  0  0  0  0  0  0
   20.8022  -11.1895  -15.7621 C   0  0  0  0  0  0  0  0  0  0  0  0
   20.3146  -12.1918  -16.7425 C   0  0  0  0  0  0  0  0  0  0  0  0
   20.8552  -12.3144  -18.0069 C   0  0  0  0  0  0  0  0  0  0  0  0
   20.1990  -13.3047  -18.6429 N   0  0  0  0  0  0  0  0  0  0  0  0
   19.2702  -13.7975  -17.8107 C   0  0  0  0  0  0  0  0  0  0  0  0
   19.3577  -13.1070  -16.6616 N   0  0  0  0  0  0  0  0  0  0  0  0
   22.3033   -9.3406  -15.4047 C   0  0  0  0  0  0  0  0  0  0  0  0
   22.6224   -9.3938  -14.1928 O   0  0  0  0  0  0  0  0  0  0  0  0
   22.7057   -4.5460  -13.7788 N   0  0  0  0  0  0  0  0  0  0  0  0
   22.5554   -4.3954  -15.1802 C   0  0  0  0  0  0  0  0  0  0  0  0
   22.6167   -3.2356  -15.6556 O   0  0  0  0  0  0  0  0  0  0  0  0
   22.3374   -5.6036  -15.9892 C   0  0  0  0  0  0  0  0  0  0  0  0
   22.2845   -6.8615  -15.1574 C   0  0  2  0  0  0  0  0  0  0  0  0
   22.1327   -8.0457  -15.9761 N   0  0  0  0  0  0  0  0  0  0  0  0
   21.2351   -6.8355  -14.1389 C   0  0  0  0  0  0  0  0  0  0  0  0
   19.9116   -7.1837  -14.3849 O   0  0  0  0  0  0  0  0  0  0  0  0
   21.5130   -6.4837  -12.9678 O   0  0  0  0  0  0  0  0  0  0  0  0
  1  2  1  0
  2  3  1  0
  4  3  1  0
  5  1  1  0
  5  4  1  0
  6  8  1  0
  5  6  1  6
  7  6  2  0
  9  8  1  0
  9 10  1  1
 10 11  1  0
 11 15  1  0
 12 11  2  0
 12 13  1  0
 13 14  1  0
 15 14  2  0
 16  9  1  0
 17 16  2  0
 18 19  1  0
 19 20  2  0
 19 21  1  0
 22 21  1  6
 22 24  1  0
 22 23  1  0
 23 16  1  0
 24 25  1  0
 26 24  2  0
M  END
$$$$
