PHN.pdb
     RDKit          3D

 26 27  0  0  1  0  0  0  0  0999 V2000
   26.0812  -12.2349  -16.9984 N   0  0  0  0  0  0  0  0  0  0  0  0
   26.8326  -11.0772  -17.4505 C   0  0  0  0  0  0  0  0  0  0  0  0
   27.5824  -10.7139  -16.1669 C   0  0  0  0  0  0  0  0  0  0  0  0
   26.4512  -10.7800  -15.1613 C   0  0  0  0  0  0  0  0  0  0  0  0
   25.4349  -11.7311  -15.8035 C   0  0  1  0  0  0  0  0  0  0  0  0
   24.2169  -10.9953  -16.2165 C   0  0  0  0  0  0  0  0  0  0  0  0
   24.1768  -10.3889  -17.3150 O   0  0  0  0  0  0  0  0  0  0  0  0
   23.0503  -10.9450  -15.3924 N   0  0  0  0  0  0  0  0  0  0  0  0
   21.8472  -10.2554  -15.7930 C   0  0  1  0  0  0  0  0  0  0  0  0
   20.6714  -11.0987  -15.3713 C   0  0  0  0  0  0  0  0  0  0  0  0
   20.4076  -12.1994  -16.3317 C   0  0  0  0  0  0  0  0  0  0  0  0
   21.0851  -12.3155  -17.5290 C   0  0  0  0  0  0  0  0  0  0  0  0
   20.6181  -13.4084  -18.1640 N   0  0  0  0  0  0  0  0  0  0  0  0
   19.6735  -13.9708  -17.3963 C   0  0  0  0  0  0  0  0  0  0  0  0
   19.5615  -13.2202  -16.2878 N   0  0  0  0  0  0  0  0  0  0  0  0
   21.7688   -8.9802  -15.0432 C   0  0  0  0  0  0  0  0  0  0  0  0
   22.3877   -8.8464  -13.9604 O   0  0  0  0  0  0  0  0  0  0  0  0
   21.6105   -3.9987  -14.0620 N   0  0  0  0  0  0  0  0  0  0  0  0
   22.7414   -4.6503  -14.6147 C   0  0  0  0  0  0  0  0  0  0  0  0
   23.8267   -4.0208  -14.6411 O   0  0  0  0  0  0  0  0  0  0  0  0
   22.5747   -6.0201  -15.1222 C   0  0  0  0  0  0  0  0  0  0  0  0
   21.1854   -6.5627  -14.8926 C   0  0  2  0  0  0  0  0  0  0  0  0
   21.0062   -7.8652  -15.4986 N   0  0  0  0  0  0  0  0  0  0  0  0
   20.1306   -5.6609  -15.3547 C   0  0  0  0  0  0  0  0  0  0  0  0
   19.6072   -4.6271  -14.5862 O   0  0  0  0  0  0  0  0  0  0  0  0
   19.6504   -5.8023  -16.5044 O   0  0  0  0  0  0  0  0  0  0  0  0
  1  2  1  0
  2  3  1  0
  4  3  1  0
  5  1  1  0
  5  4  1  0
  6  8  1  0
  5  6  1  6
  7  6  2  0
  9  8  1  0
  9 10  1  1
 10 11  1  0
 11 15  1  0
 12 11  2  0
 12 13  1  0
 13 14  1  0
 15 14  2  0
 16  9  1  0
 17 16  2  0
 18 19  1  0
 19 20  2  0
 19 21  1  0
 22 21  1  6
 22 24  1  0
 22 23  1  0
 23 16  1  0
 24 25  1  0
 26 24  2  0
M  END
$$$$
