PHN.pdb
     RDKit          3D

 26 27  0  0  1  0  0  0  0  0999 V2000
   26.9885  -20.1247  -16.0228 N   0  0  0  0  0  0  0  0  0  0  0  0
   27.4002  -19.3516  -17.1813 C   0  0  0  0  0  0  0  0  0  0  0  0
   28.6165  -18.6199  -16.6092 C   0  0  0  0  0  0  0  0  0  0  0  0
   28.0474  -18.1311  -15.2930 C   0  0  0  0  0  0  0  0  0  0  0  0
   26.9062  -19.1094  -14.9924 C   0  0  1  0  0  0  0  0  0  0  0  0
   25.5923  -18.4358  -15.1164 C   0  0  0  0  0  0  0  0  0  0  0  0
   25.2933  -17.4728  -14.3684 O   0  0  0  0  0  0  0  0  0  0  0  0
   24.6213  -18.8481  -16.0805 N   0  0  0  0  0  0  0  0  0  0  0  0
   23.3395  -18.1987  -16.2167 C   0  0  1  0  0  0  0  0  0  0  0  0
   23.1342  -17.8875  -17.6770 C   0  0  0  0  0  0  0  0  0  0  0  0
   21.8488  -17.1849  -17.9173 C   0  0  0  0  0  0  0  0  0  0  0  0
   20.7847  -17.7869  -18.5586 C   0  0  0  0  0  0  0  0  0  0  0  0
   19.7783  -16.8928  -18.6181 N   0  0  0  0  0  0  0  0  0  0  0  0
   20.1877  -15.7576  -18.0336 C   0  0  0  0  0  0  0  0  0  0  0  0
   21.4485  -15.9568  -17.6148 N   0  0  0  0  0  0  0  0  0  0  0  0
   22.2850  -19.1589  -15.8164 C   0  0  0  0  0  0  0  0  0  0  0  0
   22.4028  -20.3765  -16.0939 O   0  0  0  0  0  0  0  0  0  0  0  0
   21.2393  -22.1441  -14.0066 N   0  0  0  0  0  0  0  0  0  0  0  0
   20.8399  -21.3202  -12.9247 C   0  0  0  0  0  0  0  0  0  0  0  0
   21.0620  -21.7322  -11.7602 O   0  0  0  0  0  0  0  0  0  0  0  0
   20.1916  -20.0367  -13.2314 C   0  0  0  0  0  0  0  0  0  0  0  0
   20.1318  -19.7519  -14.7121 C   0  0  2  0  0  0  0  0  0  0  0  0
   21.1100  -18.7629  -15.1129 N   0  0  0  0  0  0  0  0  0  0  0  0
   18.8048  -19.3367  -15.1662 C   0  0  0  0  0  0  0  0  0  0  0  0
   18.3673  -19.4532  -16.4809 O   0  0  0  0  0  0  0  0  0  0  0  0
   17.9928  -18.8441  -14.3475 O   0  0  0  0  0  0  0  0  0  0  0  0
  1  2  1  0
  2  3  1  0
  4  3  1  0
  5  1  1  0
  5  4  1  0
  6  8  1  0
  5  6  1  6
  7  6  2  0
  9  8  1  0
  9 10  1  6
 10 11  1  0
 11 15  1  0
 12 11  2  0
 12 13  1  0
 13 14  1  0
 15 14  2  0
 16  9  1  0
 17 16  2  0
 18 19  1  0
 19 20  2  0
 19 21  1  0
 22 21  1  1
 22 24  1  0
 22 23  1  0
 23 16  1  0
 24 25  1  0
 26 24  2  0
M  END
$$$$
