PHN.pdb
     RDKit          3D

 26 27  0  0  1  0  0  0  0  0999 V2000
   27.7102  -21.8568  -11.0029 N   0  0  0  0  0  0  0  0  0  0  0  0
   28.7847  -20.9761  -11.4262 C   0  0  0  0  0  0  0  0  0  0  0  0
   29.1290  -20.2993  -10.0977 C   0  0  0  0  0  0  0  0  0  0  0  0
   27.7418  -19.9391   -9.6066 C   0  0  0  0  0  0  0  0  0  0  0  0
   26.8230  -20.9441  -10.3105 C   0  0  1  0  0  0  0  0  0  0  0  0
   25.9820  -20.2649  -11.3238 C   0  0  0  0  0  0  0  0  0  0  0  0
   25.5214  -19.1171  -11.1084 O   0  0  0  0  0  0  0  0  0  0  0  0
   25.6631  -20.8796  -12.5740 N   0  0  0  0  0  0  0  0  0  0  0  0
   24.9365  -20.1907  -13.6137 C   0  0  1  0  0  0  0  0  0  0  0  0
   25.4829  -20.6523  -14.9403 C   0  0  0  0  0  0  0  0  0  0  0  0
   26.6691  -19.8620  -15.3549 C   0  0  0  0  0  0  0  0  0  0  0  0
   27.1349  -18.7873  -14.6242 C   0  0  0  0  0  0  0  0  0  0  0  0
   28.2137  -18.2908  -15.2610 N   0  0  0  0  0  0  0  0  0  0  0  0
   28.4286  -19.0253  -16.3621 C   0  0  0  0  0  0  0  0  0  0  0  0
   27.4786  -19.9746  -16.3999 N   0  0  0  0  0  0  0  0  0  0  0  0
   23.5177  -20.6118  -13.5489 C   0  0  0  0  0  0  0  0  0  0  0  0
   23.2197  -21.7649  -13.1553 O   0  0  0  0  0  0  0  0  0  0  0  0
   19.1006  -21.1323  -12.1077 N   0  0  0  0  0  0  0  0  0  0  0  0
   19.2545  -19.7234  -12.1197 C   0  0  0  0  0  0  0  0  0  0  0  0
   18.5423  -19.0485  -11.3372 O   0  0  0  0  0  0  0  0  0  0  0  0
   20.2364  -19.1398  -13.0456 C   0  0  0  0  0  0  0  0  0  0  0  0
   21.0712  -20.1839  -13.7455 C   0  0  2  0  0  0  0  0  0  0  0  0
   22.4421  -19.7529  -13.9201 N   0  0  0  0  0  0  0  0  0  0  0  0
   20.5202  -20.5914  -15.0378 C   0  0  0  0  0  0  0  0  0  0  0  0
   19.4886  -21.5125  -15.1814 O   0  0  0  0  0  0  0  0  0  0  0  0
   20.9831  -20.1000  -16.0945 O   0  0  0  0  0  0  0  0  0  0  0  0
  1  2  1  0
  2  3  1  0
  4  3  1  0
  5  1  1  0
  5  4  1  0
  6  8  1  0
  5  6  1  6
  7  6  2  0
  9  8  1  0
  9 10  1  6
 10 11  1  0
 11 15  1  0
 12 11  2  0
 12 13  1  0
 13 14  1  0
 15 14  2  0
 16  9  1  0
 17 16  2  0
 18 19  1  0
 19 20  2  0
 19 21  1  0
 22 21  1  6
 22 24  1  0
 22 23  1  0
 23 16  1  0
 24 25  1  0
 26 24  2  0
M  END
$$$$
