SPN.pdb
     RDKit          3D

 22 22  0  0  1  0  0  0  0  0999 V2000
    7.5148  -18.2720   18.4538 O   0  0  0  0  0  0  0  0  0  0  0  0
    6.8649  -17.2932   17.7064 C   0  0  0  0  0  0  0  0  0  0  0  0
    7.8452  -16.2869   17.1558 C   0  0  2  0  0  0  0  0  0  0  0  0
    8.5830  -16.9008   16.0832 N   0  0  0  0  0  0  0  0  0  0  0  0
    8.7228  -15.7876   18.2440 C   0  0  0  0  0  0  0  0  0  0  0  0
    9.9048  -16.2925   18.2564 O   0  0  0  0  0  0  0  0  0  0  0  0
    8.3324  -14.8344   19.2107 N   0  0  0  0  0  0  0  0  0  0  0  0
    7.0413  -14.2005   19.2898 C   0  0  0  0  0  0  0  0  0  0  0  0
    7.0695  -13.2285   20.4337 C   0  0  0  0  0  0  0  0  0  0  0  0
    8.5447  -12.9533   20.6156 C   0  0  0  0  0  0  0  0  0  0  0  0
    9.1376  -14.3283   20.2784 C   0  0  1  0  0  0  0  0  0  0  0  0
    9.0334  -15.1507   21.5144 C   0  0  0  0  0  0  0  0  0  0  0  0
    7.9482  -15.6914   21.8229 O   0  0  0  0  0  0  0  0  0  0  0  0
   13.0008  -18.0433   25.1239 N   0  0  0  0  0  0  0  0  0  0  0  0
   11.8532  -18.0189   24.2775 C   0  0  0  0  0  0  0  0  0  0  0  0
   11.0144  -18.9227   24.4190 O   0  0  0  0  0  0  0  0  0  0  0  0
   11.7283  -16.9288   23.2885 C   0  0  0  0  0  0  0  0  0  0  0  0
   10.3422  -16.3809   23.2731 C   0  0  2  0  0  0  0  0  0  0  0  0
   10.1658  -15.3072   22.3211 N   0  0  0  0  0  0  0  0  0  0  0  0
    9.7978  -16.0490   24.6266 C   0  0  0  0  0  0  0  0  0  0  0  0
    9.2380  -17.0180   25.4318 O   0  0  0  0  0  0  0  0  0  0  0  0
    9.8301  -14.8790   25.0846 O   0  0  0  0  0  0  0  0  0  0  0  0
  1  2  1  0
  2  3  1  0
  3  4  1  6
  5  3  1  0
  6  5  2  0
  7 11  1  0
  7  5  1  0
  8  7  1  0
  9 10  1  0
  9  8  1  0
 10 11  1  0
 11 12  1  1
 12 13  2  0
 12 19  1  0
 15 14  1  0
 15 17  1  0
 16 15  2  0
 18 17  1  1
 18 20  1  0
 19 18  1  0
 20 21  1  0
 22 20  2  0
M  END
$$$$
