SPN.pdb
     RDKit          3D

 22 22  0  0  1  0  0  0  0  0999 V2000
    7.3056  -19.0290   18.4557 O   0  0  0  0  0  0  0  0  0  0  0  0
    7.1012  -17.6915   18.7846 C   0  0  0  0  0  0  0  0  0  0  0  0
    8.2893  -16.8465   18.3955 C   0  0  2  0  0  0  0  0  0  0  0  0
    9.2683  -17.6908   17.7629 N   0  0  0  0  0  0  0  0  0  0  0  0
    8.8228  -16.1433   19.5891 C   0  0  0  0  0  0  0  0  0  0  0  0
    9.8771  -16.6731   20.0990 O   0  0  0  0  0  0  0  0  0  0  0  0
    8.2504  -14.9819   20.1538 N   0  0  0  0  0  0  0  0  0  0  0  0
    7.0997  -14.2811   19.6441 C   0  0  0  0  0  0  0  0  0  0  0  0
    6.8596  -13.0837   20.5174 C   0  0  0  0  0  0  0  0  0  0  0  0
    8.2075  -12.8509   21.1610 C   0  0  0  0  0  0  0  0  0  0  0  0
    8.7019  -14.2948   21.3236 C   0  0  1  0  0  0  0  0  0  0  0  0
    8.0815  -14.8184   22.5711 C   0  0  0  0  0  0  0  0  0  0  0  0
    6.8697  -15.1285   22.5911 O   0  0  0  0  0  0  0  0  0  0  0  0
    6.2367  -16.8025   25.1313 N   0  0  0  0  0  0  0  0  0  0  0  0
    6.9809  -17.6813   24.2902 C   0  0  0  0  0  0  0  0  0  0  0  0
    6.4031  -18.6916   23.8587 O   0  0  0  0  0  0  0  0  0  0  0  0
    8.3856  -17.3432   23.9824 C   0  0  0  0  0  0  0  0  0  0  0  0
    8.7811  -16.0648   24.6390 C   0  0  2  0  0  0  0  0  0  0  0  0
    8.8747  -14.9565   23.7155 N   0  0  0  0  0  0  0  0  0  0  0  0
    9.9769  -16.1768   25.5311 C   0  0  0  0  0  0  0  0  0  0  0  0
    9.8435  -16.4074   26.8838 O   0  0  0  0  0  0  0  0  0  0  0  0
   11.1474  -16.0682   25.0863 O   0  0  0  0  0  0  0  0  0  0  0  0
  1  2  1  0
  2  3  1  0
  3  4  1  1
  5  3  1  0
  6  5  2  0
  7 11  1  0
  7  5  1  0
  8  7  1  0
  9 10  1  0
  9  8  1  0
 10 11  1  0
 11 12  1  1
 12 13  2  0
 12 19  1  0
 15 14  1  0
 15 17  1  0
 16 15  2  0
 18 17  1  6
 18 20  1  0
 19 18  1  0
 20 21  1  0
 22 20  2  0
M  END
$$$$
