SPN.pdb
     RDKit          3D

 22 22  0  0  1  0  0  0  0  0999 V2000
    7.8440  -18.3031   18.0150 O   0  0  0  0  0  0  0  0  0  0  0  0
    7.1658  -17.1855   17.5353 C   0  0  0  0  0  0  0  0  0  0  0  0
    8.1038  -16.2427   16.8225 C   0  0  2  0  0  0  0  0  0  0  0  0
    8.8018  -16.9738   15.7979 N   0  0  0  0  0  0  0  0  0  0  0  0
    9.0217  -15.6065   17.8004 C   0  0  0  0  0  0  0  0  0  0  0  0
   10.2165  -16.0803   17.8038 O   0  0  0  0  0  0  0  0  0  0  0  0
    8.6546  -14.5613   18.6770 N   0  0  0  0  0  0  0  0  0  0  0  0
    7.3593  -13.9341   18.7382 C   0  0  0  0  0  0  0  0  0  0  0  0
    7.4168  -12.8480   19.7732 C   0  0  0  0  0  0  0  0  0  0  0  0
    8.8941  -12.5423   19.8701 C   0  0  0  0  0  0  0  0  0  0  0  0
    9.4917  -13.9396   19.6553 C   0  0  1  0  0  0  0  0  0  0  0  0
    9.4430  -14.6297   20.9731 C   0  0  0  0  0  0  0  0  0  0  0  0
    8.4467  -15.3173   21.2888 O   0  0  0  0  0  0  0  0  0  0  0  0
    9.6760  -18.4073   24.6053 N   0  0  0  0  0  0  0  0  0  0  0  0
   10.5976  -17.7069   23.7724 C   0  0  0  0  0  0  0  0  0  0  0  0
   11.8013  -17.9899   23.8808 O   0  0  0  0  0  0  0  0  0  0  0  0
   10.0727  -16.6926   22.8354 C   0  0  0  0  0  0  0  0  0  0  0  0
   11.0325  -15.5624   22.6827 C   0  0  2  0  0  0  0  0  0  0  0  0
   10.5266  -14.4959   21.8480 N   0  0  0  0  0  0  0  0  0  0  0  0
   12.4196  -15.9807   22.3095 C   0  0  0  0  0  0  0  0  0  0  0  0
   12.6468  -16.8917   21.2999 O   0  0  0  0  0  0  0  0  0  0  0  0
   13.4308  -15.5194   22.8964 O   0  0  0  0  0  0  0  0  0  0  0  0
  1  2  1  0
  2  3  1  0
  3  4  1  6
  5  3  1  0
  6  5  2  0
  7 11  1  0
  7  5  1  0
  8  7  1  0
  9 10  1  0
  9  8  1  0
 10 11  1  0
 11 12  1  1
 12 13  2  0
 12 19  1  0
 15 14  1  0
 15 17  1  0
 16 15  2  0
 18 17  1  6
 18 20  1  0
 19 18  1  0
 20 21  1  0
 22 20  2  0
M  END
$$$$
