SPN.pdb
     RDKit          3D

 22 22  0  0  1  0  0  0  0  0999 V2000
    6.9668  -15.9059   21.7570 O   0  0  0  0  0  0  0  0  0  0  0  0
    6.2474  -14.7138   21.7756 C   0  0  0  0  0  0  0  0  0  0  0  0
    7.1699  -13.5209   21.8297 C   0  0  2  0  0  0  0  0  0  0  0  0
    7.9338  -13.4731   20.6108 N   0  0  0  0  0  0  0  0  0  0  0  0
    8.0252  -13.5971   23.0406 C   0  0  0  0  0  0  0  0  0  0  0  0
    9.2544  -13.8960   22.8131 O   0  0  0  0  0  0  0  0  0  0  0  0
    7.5676  -13.3673   24.3571 N   0  0  0  0  0  0  0  0  0  0  0  0
    6.2377  -12.9511   24.7221 C   0  0  0  0  0  0  0  0  0  0  0  0
    6.1954  -12.7839   26.2135 C   0  0  0  0  0  0  0  0  0  0  0  0
    7.6484  -12.5839   26.5791 C   0  0  0  0  0  0  0  0  0  0  0  0
    8.3313  -13.5043   25.5581 C   0  0  1  0  0  0  0  0  0  0  0  0
    8.2723  -14.8809   26.1209 C   0  0  0  0  0  0  0  0  0  0  0  0
    7.1987  -15.5229   26.1066 O   0  0  0  0  0  0  0  0  0  0  0  0
   10.3654  -19.5925   24.6821 N   0  0  0  0  0  0  0  0  0  0  0  0
   10.9681  -18.6886   25.6059 C   0  0  0  0  0  0  0  0  0  0  0  0
   11.7592  -19.1591   26.4387 O   0  0  0  0  0  0  0  0  0  0  0  0
   10.6203  -17.2554   25.5207 C   0  0  0  0  0  0  0  0  0  0  0  0
    9.7358  -16.8547   26.6515 C   0  0  2  0  0  0  0  0  0  0  0  0
    9.4339  -15.4409   26.6637 N   0  0  0  0  0  0  0  0  0  0  0  0
   10.1781  -17.3632   27.9873 C   0  0  0  0  0  0  0  0  0  0  0  0
    9.8390  -18.6269   28.4217 O   0  0  0  0  0  0  0  0  0  0  0  0
   10.8757  -16.6637   28.7642 O   0  0  0  0  0  0  0  0  0  0  0  0
  1  2  1  0
  2  3  1  0
  3  4  1  6
  5  3  1  0
  6  5  2  0
  7 11  1  0
  7  5  1  0
  8  7  1  0
  9 10  1  0
  9  8  1  0
 10 11  1  0
 11 12  1  1
 12 13  2  0
 12 19  1  0
 15 14  1  0
 15 17  1  0
 16 15  2  0
 18 17  1  6
 18 20  1  0
 19 18  1  0
 20 21  1  0
 22 20  2  0
M  END
$$$$
