SPN.pdb
     RDKit          3D

 22 22  0  0  1  0  0  0  0  0999 V2000
    4.8367  -18.2597   20.3706 O   0  0  0  0  0  0  0  0  0  0  0  0
    6.1939  -18.0414   20.5924 C   0  0  0  0  0  0  0  0  0  0  0  0
    6.8419  -17.3801   19.4009 C   0  0  2  0  0  0  0  0  0  0  0  0
    7.1685  -18.3933   18.4322 N   0  0  0  0  0  0  0  0  0  0  0  0
    8.0270  -16.6000   19.8374 C   0  0  0  0  0  0  0  0  0  0  0  0
    9.1456  -17.2271   19.7510 O   0  0  0  0  0  0  0  0  0  0  0  0
    7.9764  -15.2720   20.3165 N   0  0  0  0  0  0  0  0  0  0  0  0
    6.7782  -14.5472   20.6540 C   0  0  0  0  0  0  0  0  0  0  0  0
    7.1755  -13.1626   21.0769 C   0  0  0  0  0  0  0  0  0  0  0  0
    8.5357  -12.9853   20.4416 C   0  0  0  0  0  0  0  0  0  0  0  0
    9.0932  -14.4110   20.5529 C   0  0  1  0  0  0  0  0  0  0  0  0
    9.6402  -14.5471   21.9304 C   0  0  0  0  0  0  0  0  0  0  0  0
   10.6786  -13.9324   22.2604 O   0  0  0  0  0  0  0  0  0  0  0  0
    7.0967  -13.6553   25.3016 N   0  0  0  0  0  0  0  0  0  0  0  0
    7.1079  -14.9992   24.8246 C   0  0  0  0  0  0  0  0  0  0  0  0
    6.1309  -15.3829   24.1621 O   0  0  0  0  0  0  0  0  0  0  0  0
    8.2715  -15.8518   25.1427 C   0  0  0  0  0  0  0  0  0  0  0  0
    9.4019  -15.5786   24.2104 C   0  0  2  0  0  0  0  0  0  0  0  0
    8.9750  -15.3711   22.8448 N   0  0  0  0  0  0  0  0  0  0  0  0
   10.5369  -16.5470   24.3207 C   0  0  0  0  0  0  0  0  0  0  0  0
   10.9808  -17.2593   23.2270 O   0  0  0  0  0  0  0  0  0  0  0  0
   11.1317  -16.7488   25.4094 O   0  0  0  0  0  0  0  0  0  0  0  0
  1  2  1  0
  2  3  1  0
  3  4  1  6
  5  3  1  0
  6  5  2  0
  7 11  1  0
  7  5  1  0
  8  7  1  0
  9 10  1  0
  9  8  1  0
 10 11  1  0
 11 12  1  1
 12 13  2  0
 12 19  1  0
 15 14  1  0
 15 17  1  0
 16 15  2  0
 18 17  1  1
 18 20  1  0
 19 18  1  0
 20 21  1  0
 22 20  2  0
M  END
$$$$
