DPY.pdb
     RDKit          3D

 28 29  0  0  1  0  0  0  0  0999 V2000
   10.3298  -17.3931   17.3620 N   0  0  0  0  0  0  0  0  0  0  0  0
   10.0693  -18.1283   18.5527 C   0  0  1  0  0  0  0  0  0  0  0  0
   11.3219  -18.8547   19.0303 C   0  0  0  0  0  0  0  0  0  0  0  0
   11.7412  -19.7783   17.9483 C   0  0  0  0  0  0  0  0  0  0  0  0
   10.9601  -20.6428   17.5236 O   0  0  0  0  0  0  0  0  0  0  0  0
    9.4137  -17.3937   19.6399 C   0  0  0  0  0  0  0  0  0  0  0  0
    9.8256  -16.1972   19.8672 O   0  0  0  0  0  0  0  0  0  0  0  0
   13.0097  -19.7112   17.3759 O   0  0  0  0  0  0  0  0  0  0  0  0
    8.3646  -17.8866   20.4640 N   0  0  0  0  0  0  0  0  0  0  0  0
    7.6803  -19.1425   20.5065 C   0  0  0  0  0  0  0  0  0  0  0  0
    6.2275  -18.7218   20.7773 C   0  0  0  0  0  0  0  0  0  0  0  0
    6.4516  -17.7215   21.8872 C   0  0  0  0  0  0  0  0  0  0  0  0
    7.7501  -17.0917   21.5199 C   0  0  1  0  0  0  0  0  0  0  0  0
    8.6781  -16.9206   22.6720 C   0  0  0  0  0  0  0  0  0  0  0  0
    9.5125  -17.8244   22.9328 O   0  0  0  0  0  0  0  0  0  0  0  0
    5.1227  -11.9037   27.2386 O   0  0  0  0  0  0  0  0  0  0  0  0
    6.2441  -12.4474   26.6563 C   0  0  0  0  0  0  0  0  0  0  0  0
    7.3146  -12.8226   27.4488 C   0  0  0  0  0  0  0  0  0  0  0  0
    8.4382  -13.3668   26.8710 C   0  0  0  0  0  0  0  0  0  0  0  0
    8.5598  -13.5663   25.4914 C   0  0  0  0  0  0  0  0  0  0  0  0
    9.7977  -14.1295   24.9179 C   0  0  0  0  0  0  0  0  0  0  0  0
    9.6503  -15.5691   24.5822 C   0  0  2  0  0  0  0  0  0  0  0  0
    8.6800  -15.7800   23.5104 N   0  0  0  0  0  0  0  0  0  0  0  0
    9.3482  -16.3643   25.7622 C   0  0  0  0  0  0  0  0  0  0  0  0
    8.1928  -16.8955   25.8991 O   0  0  0  0  0  0  0  0  0  0  0  0
    7.4720  -13.1804   24.7283 C   0  0  0  0  0  0  0  0  0  0  0  0
    6.3479  -12.6366   25.3010 C   0  0  0  0  0  0  0  0  0  0  0  0
   10.2298  -16.6119   26.7902 O   0  0  0  0  0  0  0  0  0  0  0  0
  2  1  1  6
  2  6  1  0
  3  2  1  0
  3  4  1  0
  4  5  2  0
  6  9  1  0
  7  6  2  0
  8  4  1  0
  9 13  1  0
  9 10  1  0
 10 11  1  0
 11 12  1  0
 13 12  1  0
 13 14  1  1
 14 23  1  0
 15 14  2  0
 16 17  1  0
 17 27  2  0
 18 17  1  0
 18 19  2  0
 19 20  1  0
 20 26  2  0
 20 21  1  0
 22 21  1  1
 22 23  1  0
 22 24  1  0
 24 28  1  0
 25 24  2  0
 27 26  1  0
M  END
$$$$
