DPY.pdb
     RDKit          3D

 28 29  0  0  1  0  0  0  0  0999 V2000
   11.4411  -17.3396   18.3861 N   0  0  0  0  0  0  0  0  0  0  0  0
   10.0587  -17.1871   18.6891 C   0  0  1  0  0  0  0  0  0  0  0  0
    9.3719  -18.5437   18.8013 C   0  0  0  0  0  0  0  0  0  0  0  0
    9.4062  -19.1727   17.4586 C   0  0  0  0  0  0  0  0  0  0  0  0
    8.4216  -19.1031   16.7078 O   0  0  0  0  0  0  0  0  0  0  0  0
    9.7342  -16.3132   19.8217 C   0  0  0  0  0  0  0  0  0  0  0  0
   10.6400  -16.1638   20.7217 O   0  0  0  0  0  0  0  0  0  0  0  0
   10.5291  -19.8558   16.9960 O   0  0  0  0  0  0  0  0  0  0  0  0
    8.5083  -15.6180   20.0127 N   0  0  0  0  0  0  0  0  0  0  0  0
    7.3057  -15.5529   19.2401 C   0  0  0  0  0  0  0  0  0  0  0  0
    6.9079  -14.0741   19.3662 C   0  0  0  0  0  0  0  0  0  0  0  0
    7.0961  -13.8825   20.8531 C   0  0  0  0  0  0  0  0  0  0  0  0
    8.2582  -14.7603   21.1643 C   0  0  1  0  0  0  0  0  0  0  0  0
    8.0835  -15.5650   22.4051 C   0  0  0  0  0  0  0  0  0  0  0  0
    7.6608  -16.7462   22.3210 O   0  0  0  0  0  0  0  0  0  0  0  0
    5.9643  -10.2684   27.0882 O   0  0  0  0  0  0  0  0  0  0  0  0
    6.6142  -11.4540   26.8346 C   0  0  0  0  0  0  0  0  0  0  0  0
    7.4180  -12.0174   27.8100 C   0  0  0  0  0  0  0  0  0  0  0  0
    8.0698  -13.2030   27.5609 C   0  0  0  0  0  0  0  0  0  0  0  0
    7.9612  -13.8865   26.3449 C   0  0  0  0  0  0  0  0  0  0  0  0
    8.7026  -15.1423   26.1177 C   0  0  0  0  0  0  0  0  0  0  0  0
    8.2131  -15.8680   24.9174 C   0  0  2  0  0  0  0  0  0  0  0  0
    8.3694  -15.0733   23.7014 N   0  0  0  0  0  0  0  0  0  0  0  0
    6.8477  -16.3365   25.0968 C   0  0  0  0  0  0  0  0  0  0  0  0
    5.8910  -15.7879   24.4490 O   0  0  0  0  0  0  0  0  0  0  0  0
    7.1501  -13.2961   25.3919 C   0  0  0  0  0  0  0  0  0  0  0  0
    6.4972  -12.1123   25.6362 C   0  0  0  0  0  0  0  0  0  0  0  0
    6.4722  -17.3627   25.9341 O   0  0  0  0  0  0  0  0  0  0  0  0
  2  1  1  1
  2  6  1  0
  3  2  1  0
  3  4  1  0
  4  5  2  0
  6  9  1  0
  7  6  2  0
  8  4  1  0
  9 13  1  0
  9 10  1  0
 10 11  1  0
 11 12  1  0
 13 12  1  0
 13 14  1  1
 14 23  1  0
 15 14  2  0
 16 17  1  0
 17 27  2  0
 18 17  1  0
 18 19  2  0
 19 20  1  0
 20 26  2  0
 20 21  1  0
 22 21  1  1
 22 23  1  0
 22 24  1  0
 24 28  1  0
 25 24  2  0
 27 26  1  0
M  END
$$$$
