DPY.pdb
     RDKit          3D

 28 29  0  0  1  0  0  0  0  0999 V2000
    8.7865  -18.9567   19.4447 N   0  0  0  0  0  0  0  0  0  0  0  0
    7.9830  -18.0185   20.1519 C   0  0  1  0  0  0  0  0  0  0  0  0
    7.0221  -18.7281   21.0995 C   0  0  0  0  0  0  0  0  0  0  0  0
    6.1111  -19.5561   20.2725 C   0  0  0  0  0  0  0  0  0  0  0  0
    6.1946  -19.5361   19.0353 O   0  0  0  0  0  0  0  0  0  0  0  0
    8.6960  -16.9213   20.8147 C   0  0  0  0  0  0  0  0  0  0  0  0
    9.9408  -17.1082   21.0765 O   0  0  0  0  0  0  0  0  0  0  0  0
    5.1410  -20.3761   20.8451 O   0  0  0  0  0  0  0  0  0  0  0  0
    8.1337  -15.6711   21.1934 N   0  0  0  0  0  0  0  0  0  0  0  0
    6.7934  -15.1703   21.1728 C   0  0  0  0  0  0  0  0  0  0  0  0
    6.9882  -13.7145   20.7218 C   0  0  0  0  0  0  0  0  0  0  0  0
    8.1388  -13.3190   21.6176 C   0  0  0  0  0  0  0  0  0  0  0  0
    8.9330  -14.5742   21.7246 C   0  0  1  0  0  0  0  0  0  0  0  0
    9.3987  -14.8703   23.1078 C   0  0  0  0  0  0  0  0  0  0  0  0
   10.3206  -14.1787   23.6106 O   0  0  0  0  0  0  0  0  0  0  0  0
    5.9396  -10.7437   26.7159 O   0  0  0  0  0  0  0  0  0  0  0  0
    6.4576  -12.0120   26.5908 C   0  0  0  0  0  0  0  0  0  0  0  0
    5.6817  -13.0184   26.0432 C   0  0  0  0  0  0  0  0  0  0  0  0
    6.1954  -14.2882   25.9160 C   0  0  0  0  0  0  0  0  0  0  0  0
    7.4919  -14.6251   26.3203 C   0  0  0  0  0  0  0  0  0  0  0  0
    7.9869  -16.0091   26.1868 C   0  0  0  0  0  0  0  0  0  0  0  0
    9.1908  -16.0881   25.3201 C   0  0  2  0  0  0  0  0  0  0  0  0
    8.8573  -15.9036   23.9096 N   0  0  0  0  0  0  0  0  0  0  0  0
    9.9370  -17.3148   25.5532 C   0  0  0  0  0  0  0  0  0  0  0  0
   10.3887  -17.5788   26.7203 O   0  0  0  0  0  0  0  0  0  0  0  0
    8.2406  -13.5959   26.8634 C   0  0  0  0  0  0  0  0  0  0  0  0
    7.7316  -12.3263   26.9923 C   0  0  0  0  0  0  0  0  0  0  0  0
   10.2127  -18.2619   24.5929 O   0  0  0  0  0  0  0  0  0  0  0  0
  2  1  1  1
  2  6  1  0
  3  2  1  0
  3  4  1  0
  4  5  2  0
  6  9  1  0
  7  6  2  0
  8  4  1  0
  9 13  1  0
  9 10  1  0
 10 11  1  0
 11 12  1  0
 13 12  1  0
 13 14  1  1
 14 23  1  0
 15 14  2  0
 16 17  1  0
 17 27  2  0
 18 17  1  0
 18 19  2  0
 19 20  1  0
 20 26  2  0
 20 21  1  0
 22 21  1  1
 22 23  1  0
 22 24  1  0
 24 28  1  0
 25 24  2  0
 27 26  1  0
M  END
$$$$
