DPY.pdb
     RDKit          3D

 28 29  0  0  1  0  0  0  0  0999 V2000
   11.6464  -16.9084   18.5835 N   0  0  0  0  0  0  0  0  0  0  0  0
   10.4371  -17.2921   19.2289 C   0  0  1  0  0  0  0  0  0  0  0  0
   10.4587  -18.7727   19.5922 C   0  0  0  0  0  0  0  0  0  0  0  0
   10.5802  -19.5397   18.3288 C   0  0  0  0  0  0  0  0  0  0  0  0
   11.6807  -19.9818   17.9665 O   0  0  0  0  0  0  0  0  0  0  0  0
   10.0089  -16.4572   20.3564 C   0  0  0  0  0  0  0  0  0  0  0  0
   10.9340  -15.9047   21.0578 O   0  0  0  0  0  0  0  0  0  0  0  0
    9.4790  -19.7894   17.5123 O   0  0  0  0  0  0  0  0  0  0  0  0
    8.6635  -16.2054   20.7425 N   0  0  0  0  0  0  0  0  0  0  0  0
    7.4089  -16.6305   20.2015 C   0  0  0  0  0  0  0  0  0  0  0  0
    6.5408  -15.3706   20.3425 C   0  0  0  0  0  0  0  0  0  0  0  0
    6.8825  -14.9798   21.7614 C   0  0  0  0  0  0  0  0  0  0  0  0
    8.3130  -15.3741   21.8872 C   0  0  1  0  0  0  0  0  0  0  0  0
    8.6322  -16.0628   23.1685 C   0  0  0  0  0  0  0  0  0  0  0  0
    8.8638  -17.2986   23.1646 O   0  0  0  0  0  0  0  0  0  0  0  0
    5.0873  -11.2901   27.1247 O   0  0  0  0  0  0  0  0  0  0  0  0
    6.0915  -12.2268   27.0440 C   0  0  0  0  0  0  0  0  0  0  0  0
    7.4101  -11.8135   26.9709 C   0  0  0  0  0  0  0  0  0  0  0  0
    8.4178  -12.7466   26.8901 C   0  0  0  0  0  0  0  0  0  0  0  0
    8.1752  -14.1246   26.8775 C   0  0  0  0  0  0  0  0  0  0  0  0
    9.2903  -15.0847   26.7624 C   0  0  0  0  0  0  0  0  0  0  0  0
    9.0728  -16.0607   25.6637 C   0  0  2  0  0  0  0  0  0  0  0  0
    8.6927  -15.3994   24.4175 N   0  0  0  0  0  0  0  0  0  0  0  0
    8.1257  -17.0955   26.0486 C   0  0  0  0  0  0  0  0  0  0  0  0
    6.9728  -17.1470   25.4973 O   0  0  0  0  0  0  0  0  0  0  0  0
    6.8465  -14.5035   26.9518 C   0  0  0  0  0  0  0  0  0  0  0  0
    5.8370  -13.5752   27.0326 C   0  0  0  0  0  0  0  0  0  0  0  0
    8.3658  -18.0698   26.9911 O   0  0  0  0  0  0  0  0  0  0  0  0
  2  1  1  1
  2  6  1  0
  3  2  1  0
  3  4  1  0
  4  5  2  0
  6  9  1  0
  7  6  2  0
  8  4  1  0
  9 13  1  0
  9 10  1  0
 10 11  1  0
 11 12  1  0
 13 12  1  0
 13 14  1  1
 14 23  1  0
 15 14  2  0
 16 17  1  0
 17 27  2  0
 18 17  1  0
 18 19  2  0
 19 20  1  0
 20 26  2  0
 20 21  1  0
 22 21  1  1
 22 23  1  0
 22 24  1  0
 24 28  1  0
 25 24  2  0
 27 26  1  0
M  END
$$$$
