DPY.pdb
     RDKit          3D

 28 29  0  0  1  0  0  0  0  0999 V2000
   11.8696  -16.5052   18.3556 N   0  0  0  0  0  0  0  0  0  0  0  0
   10.5861  -16.8211   18.8837 C   0  0  1  0  0  0  0  0  0  0  0  0
   10.4633  -18.3152   19.1617 C   0  0  0  0  0  0  0  0  0  0  0  0
   10.6102  -19.0229   17.8667 C   0  0  0  0  0  0  0  0  0  0  0  0
    9.6976  -18.9916   17.0275 O   0  0  0  0  0  0  0  0  0  0  0  0
   10.1346  -16.0130   20.0216 C   0  0  0  0  0  0  0  0  0  0  0  0
   11.0418  -15.5587   20.8112 O   0  0  0  0  0  0  0  0  0  0  0  0
   11.7618  -19.7394   17.5477 O   0  0  0  0  0  0  0  0  0  0  0  0
    8.7846  -15.6882   20.3288 N   0  0  0  0  0  0  0  0  0  0  0  0
    7.5512  -15.9506   19.6524 C   0  0  0  0  0  0  0  0  0  0  0  0
    6.7725  -14.6422   19.8591 C   0  0  0  0  0  0  0  0  0  0  0  0
    7.0224  -14.4239   21.3331 C   0  0  0  0  0  0  0  0  0  0  0  0
    8.4032  -14.9478   21.5249 C   0  0  1  0  0  0  0  0  0  0  0  0
    8.5602  -15.7843   22.7469 C   0  0  0  0  0  0  0  0  0  0  0  0
    8.5675  -17.0372   22.6413 O   0  0  0  0  0  0  0  0  0  0  0  0
    5.1113  -11.1798   26.8579 O   0  0  0  0  0  0  0  0  0  0  0  0
    6.0546  -12.1776   26.7738 C   0  0  0  0  0  0  0  0  0  0  0  0
    7.3588  -11.8612   26.4365 C   0  0  0  0  0  0  0  0  0  0  0  0
    8.3056  -12.8556   26.3512 C   0  0  0  0  0  0  0  0  0  0  0  0
    8.0138  -14.2025   26.5931 C   0  0  0  0  0  0  0  0  0  0  0  0
    9.0601  -15.2352   26.4624 C   0  0  0  0  0  0  0  0  0  0  0  0
    8.8722  -16.0665   25.2456 C   0  0  2  0  0  0  0  0  0  0  0  0
    8.7050  -15.2461   24.0482 N   0  0  0  0  0  0  0  0  0  0  0  0
    7.7882  -17.0218   25.4139 C   0  0  0  0  0  0  0  0  0  0  0  0
    7.8746  -17.9406   26.2995 O   0  0  0  0  0  0  0  0  0  0  0  0
    6.7011  -14.4842   26.9278 C   0  0  0  0  0  0  0  0  0  0  0  0
    5.7523  -13.4944   27.0142 C   0  0  0  0  0  0  0  0  0  0  0  0
    6.6248  -17.0284   24.6780 O   0  0  0  0  0  0  0  0  0  0  0  0
  2  1  1  1
  2  6  1  0
  3  2  1  0
  3  4  1  0
  4  5  2  0
  6  9  1  0
  7  6  2  0
  8  4  1  0
  9 13  1  0
  9 10  1  0
 10 11  1  0
 11 12  1  0
 13 12  1  0
 13 14  1  1
 14 23  1  0
 15 14  2  0
 16 17  1  0
 17 27  2  0
 18 17  1  0
 18 19  2  0
 19 20  1  0
 20 26  2  0
 20 21  1  0
 22 21  1  1
 22 23  1  0
 22 24  1  0
 24 28  1  0
 25 24  2  0
 27 26  1  0
M  END
$$$$
