DPY.pdb
     RDKit          3D

 28 29  0  0  1  0  0  0  0  0999 V2000
    8.5379  -18.1321   17.8169 N   0  0  0  0  0  0  0  0  0  0  0  0
    7.7027  -17.2919   18.6058 C   0  0  1  0  0  0  0  0  0  0  0  0
    6.5854  -18.0950   19.2625 C   0  0  0  0  0  0  0  0  0  0  0  0
    5.7815  -18.7092   18.1781 C   0  0  0  0  0  0  0  0  0  0  0  0
    6.1765  -18.6668   17.0032 O   0  0  0  0  0  0  0  0  0  0  0  0
    8.3830  -16.4143   19.5642 C   0  0  0  0  0  0  0  0  0  0  0  0
    9.4228  -16.8884   20.1533 O   0  0  0  0  0  0  0  0  0  0  0  0
    4.5698  -19.3479   18.4335 O   0  0  0  0  0  0  0  0  0  0  0  0
    7.9952  -15.0878   19.8996 N   0  0  0  0  0  0  0  0  0  0  0  0
    6.9514  -14.2366   19.4166 C   0  0  0  0  0  0  0  0  0  0  0  0
    7.6375  -12.8626   19.3669 C   0  0  0  0  0  0  0  0  0  0  0  0
    8.3165  -12.8648   20.7166 C   0  0  0  0  0  0  0  0  0  0  0  0
    8.6855  -14.2947   20.9090 C   0  0  1  0  0  0  0  0  0  0  0  0
    8.4023  -14.8054   22.2789 C   0  0  0  0  0  0  0  0  0  0  0  0
    7.2137  -15.0327   22.6202 O   0  0  0  0  0  0  0  0  0  0  0  0
    8.0057  -20.2912   28.8812 O   0  0  0  0  0  0  0  0  0  0  0  0
    8.1624  -19.5319   27.7448 C   0  0  0  0  0  0  0  0  0  0  0  0
    7.2113  -18.5810   27.4192 C   0  0  0  0  0  0  0  0  0  0  0  0
    7.3637  -17.8194   26.2838 C   0  0  0  0  0  0  0  0  0  0  0  0
    8.4553  -17.9577   25.4195 C   0  0  0  0  0  0  0  0  0  0  0  0
    8.5589  -17.1341   24.1991 C   0  0  0  0  0  0  0  0  0  0  0  0
    9.1776  -15.8113   24.4716 C   0  0  2  0  0  0  0  0  0  0  0  0
    9.4089  -15.0565   23.2421 N   0  0  0  0  0  0  0  0  0  0  0  0
   10.3847  -15.9413   25.2728 C   0  0  0  0  0  0  0  0  0  0  0  0
   11.5201  -16.0893   24.7026 O   0  0  0  0  0  0  0  0  0  0  0  0
    9.3873  -18.9169   25.7742 C   0  0  0  0  0  0  0  0  0  0  0  0
    9.2392  -19.6798   26.9071 C   0  0  0  0  0  0  0  0  0  0  0  0
   10.4216  -15.9165   26.6487 O   0  0  0  0  0  0  0  0  0  0  0  0
  2  1  1  1
  2  6  1  0
  3  2  1  0
  3  4  1  0
  4  5  2  0
  6  9  1  0
  7  6  2  0
  8  4  1  0
  9 13  1  0
  9 10  1  0
 10 11  1  0
 11 12  1  0
 13 12  1  0
 13 14  1  1
 14 23  1  0
 15 14  2  0
 16 17  1  0
 17 27  2  0
 18 17  1  0
 18 19  2  0
 19 20  1  0
 20 26  2  0
 20 21  1  0
 22 21  1  6
 22 23  1  0
 22 24  1  0
 24 28  1  0
 25 24  2  0
 27 26  1  0
M  END
$$$$
