DPY.pdb
     RDKit          3D

 28 29  0  0  1  0  0  0  0  0999 V2000
   11.1405  -17.4667   18.1992 N   0  0  0  0  0  0  0  0  0  0  0  0
   10.0405  -17.8463   19.0189 C   0  0  1  0  0  0  0  0  0  0  0  0
   10.2245  -19.2604   19.5583 C   0  0  0  0  0  0  0  0  0  0  0  0
   10.3648  -20.1670   18.3930 C   0  0  0  0  0  0  0  0  0  0  0  0
    9.7387  -19.9443   17.3459 O   0  0  0  0  0  0  0  0  0  0  0  0
    9.6607  -16.9020   20.0751 C   0  0  0  0  0  0  0  0  0  0  0  0
   10.6151  -16.3654   20.7490 O   0  0  0  0  0  0  0  0  0  0  0  0
   11.1929  -21.2870   18.4292 O   0  0  0  0  0  0  0  0  0  0  0  0
    8.3325  -16.5280   20.4198 N   0  0  0  0  0  0  0  0  0  0  0  0
    7.0552  -16.9335   19.9184 C   0  0  0  0  0  0  0  0  0  0  0  0
    6.2654  -15.6156   19.9126 C   0  0  0  0  0  0  0  0  0  0  0  0
    6.6280  -15.0918   21.2826 C   0  0  0  0  0  0  0  0  0  0  0  0
    8.0316  -15.5557   21.4631 C   0  0  1  0  0  0  0  0  0  0  0  0
    8.3060  -16.1167   22.8150 C   0  0  0  0  0  0  0  0  0  0  0  0
    8.2412  -17.3598   22.9929 O   0  0  0  0  0  0  0  0  0  0  0  0
    5.2418  -10.9540   26.9164 O   0  0  0  0  0  0  0  0  0  0  0  0
    6.2396  -11.8816   26.7257 C   0  0  0  0  0  0  0  0  0  0  0  0
    6.3325  -12.9724   27.5721 C   0  0  0  0  0  0  0  0  0  0  0  0
    7.3286  -13.9026   27.3853 C   0  0  0  0  0  0  0  0  0  0  0  0
    8.2761  -13.8028   26.3605 C   0  0  0  0  0  0  0  0  0  0  0  0
    9.3419  -14.8139   26.2188 C   0  0  0  0  0  0  0  0  0  0  0  0
    8.9754  -15.8760   25.2470 C   0  0  2  0  0  0  0  0  0  0  0  0
    8.6426  -15.3216   23.9368 N   0  0  0  0  0  0  0  0  0  0  0  0
    7.9209  -16.7334   25.7656 C   0  0  0  0  0  0  0  0  0  0  0  0
    8.1484  -17.4954   26.7673 O   0  0  0  0  0  0  0  0  0  0  0  0
    8.1548  -12.7007   25.5327 C   0  0  0  0  0  0  0  0  0  0  0  0
    7.1616  -11.7692   25.7155 C   0  0  0  0  0  0  0  0  0  0  0  0
    6.6431  -16.8026   25.2582 O   0  0  0  0  0  0  0  0  0  0  0  0
  2  1  1  1
  2  6  1  0
  3  2  1  0
  3  4  1  0
  4  5  2  0
  6  9  1  0
  7  6  2  0
  8  4  1  0
  9 13  1  0
  9 10  1  0
 10 11  1  0
 11 12  1  0
 13 12  1  0
 13 14  1  1
 14 23  1  0
 15 14  2  0
 16 17  1  0
 17 27  2  0
 18 17  1  0
 18 19  2  0
 19 20  1  0
 20 26  2  0
 20 21  1  0
 22 21  1  1
 22 23  1  0
 22 24  1  0
 24 28  1  0
 25 24  2  0
 27 26  1  0
M  END
$$$$
