DPY.pdb
     RDKit          3D

 28 29  0  0  1  0  0  0  0  0999 V2000
    6.1830  -18.5484   21.6136 N   0  0  0  0  0  0  0  0  0  0  0  0
    7.4561  -18.5889   20.9782 C   0  0  1  0  0  0  0  0  0  0  0  0
    7.3156  -18.9148   19.4954 C   0  0  0  0  0  0  0  0  0  0  0  0
    8.6826  -19.0711   18.9421 C   0  0  0  0  0  0  0  0  0  0  0  0
    9.4651  -19.9015   19.4281 O   0  0  0  0  0  0  0  0  0  0  0  0
    8.3327  -17.4349   21.2050 C   0  0  0  0  0  0  0  0  0  0  0  0
    9.5949  -17.6207   21.0457 O   0  0  0  0  0  0  0  0  0  0  0  0
    9.1338  -18.3024   17.8711 O   0  0  0  0  0  0  0  0  0  0  0  0
    7.9114  -16.1309   21.5853 N   0  0  0  0  0  0  0  0  0  0  0  0
    6.6173  -15.5602   21.8021 C   0  0  0  0  0  0  0  0  0  0  0  0
    6.7672  -14.1550   21.1989 C   0  0  0  0  0  0  0  0  0  0  0  0
    8.0958  -13.7575   21.7985 C   0  0  0  0  0  0  0  0  0  0  0  0
    8.8463  -15.0430   21.8436 C   0  0  1  0  0  0  0  0  0  0  0  0
    9.5832  -15.2600   23.1194 C   0  0  0  0  0  0  0  0  0  0  0  0
   10.6660  -14.6526   23.3185 O   0  0  0  0  0  0  0  0  0  0  0  0
    5.1166  -12.4252   26.8406 O   0  0  0  0  0  0  0  0  0  0  0  0
    6.3253  -13.0617   26.6784 C   0  0  0  0  0  0  0  0  0  0  0  0
    6.3543  -14.3887   26.2871 C   0  0  0  0  0  0  0  0  0  0  0  0
    7.5607  -15.0292   26.1236 C   0  0  0  0  0  0  0  0  0  0  0  0
    8.7900  -14.3958   26.3368 C   0  0  0  0  0  0  0  0  0  0  0  0
   10.0568  -15.1353   26.1735 C   0  0  0  0  0  0  0  0  0  0  0  0
    9.8781  -16.3754   25.3753 C   0  0  2  0  0  0  0  0  0  0  0  0
    9.1318  -16.1258   24.1443 N   0  0  0  0  0  0  0  0  0  0  0  0
    9.2880  -17.4414   26.1700 C   0  0  0  0  0  0  0  0  0  0  0  0
    9.8266  -17.7898   27.2766 O   0  0  0  0  0  0  0  0  0  0  0  0
    8.7253  -13.0699   26.7270 C   0  0  0  0  0  0  0  0  0  0  0  0
    7.5228  -12.4261   26.8915 C   0  0  0  0  0  0  0  0  0  0  0  0
    8.1519  -18.1399   25.8286 O   0  0  0  0  0  0  0  0  0  0  0  0
  2  1  1  6
  2  6  1  0
  3  2  1  0
  3  4  1  0
  4  5  2  0
  6  9  1  0
  7  6  2  0
  8  4  1  0
  9 13  1  0
  9 10  1  0
 10 11  1  0
 11 12  1  0
 13 12  1  0
 13 14  1  1
 14 23  1  0
 15 14  2  0
 16 17  1  0
 17 27  2  0
 18 17  1  0
 18 19  2  0
 19 20  1  0
 20 26  2  0
 20 21  1  0
 22 21  1  1
 22 23  1  0
 22 24  1  0
 24 28  1  0
 25 24  2  0
 27 26  1  0
M  END
$$$$
