YWA.pdb
     RDKit          3D

 32 34  0  0  1  0  0  0  0  0999 V2000
    7.3354  -13.4196   14.5634 O   0  0  0  0  0  0  0  0  0  0  0  0
    7.7537  -14.0927   15.7063 C   0  0  0  0  0  0  0  0  0  0  0  0
    7.8347  -13.3646   16.8786 C   0  0  0  0  0  0  0  0  0  0  0  0
    8.2524  -14.0128   18.0470 C   0  0  0  0  0  0  0  0  0  0  0  0
    8.5759  -15.3530   18.0237 C   0  0  0  0  0  0  0  0  0  0  0  0
    9.0124  -15.9868   19.2858 C   0  0  0  0  0  0  0  0  0  0  0  0
   10.1246  -15.1361   19.8584 C   0  0  2  0  0  0  0  0  0  0  0  0
   11.3878  -15.3790   19.2268 N   0  0  0  0  0  0  0  0  0  0  0  0
   10.2387  -15.5178   21.3121 C   0  0  0  0  0  0  0  0  0  0  0  0
   11.3467  -15.5141   21.9039 O   0  0  0  0  0  0  0  0  0  0  0  0
    8.4994  -16.0851   16.8679 C   0  0  0  0  0  0  0  0  0  0  0  0
    8.0826  -15.4325   15.7082 C   0  0  0  0  0  0  0  0  0  0  0  0
    9.0959  -15.8911   22.0499 N   0  0  0  0  0  0  0  0  0  0  0  0
    8.9206  -15.3335   23.3950 C   0  0  1  0  0  0  0  0  0  0  0  0
    7.4437  -15.0803   23.5093 C   0  0  0  0  0  0  0  0  0  0  0  0
    6.9814  -14.6287   24.8236 C   0  0  0  0  0  0  0  0  0  0  0  0
    6.2780  -15.3575   25.7500 C   0  0  0  0  0  0  0  0  0  0  0  0
    6.0360  -14.5667   26.8128 N   0  0  0  0  0  0  0  0  0  0  0  0
    6.5512  -13.3423   26.6279 C   0  0  0  0  0  0  0  0  0  0  0  0
    6.5852  -12.1937   27.3791 C   0  0  0  0  0  0  0  0  0  0  0  0
    7.2077  -11.0363   26.9260 C   0  0  0  0  0  0  0  0  0  0  0  0
    7.8114  -11.0599   25.6672 C   0  0  0  0  0  0  0  0  0  0  0  0
    7.7582  -12.2318   24.9387 C   0  0  0  0  0  0  0  0  0  0  0  0
    7.1435  -13.3793   25.3830 C   0  0  0  0  0  0  0  0  0  0  0  0
    9.4588  -16.3196   24.3450 C   0  0  0  0  0  0  0  0  0  0  0  0
    9.3225  -16.1581   25.5847 O   0  0  0  0  0  0  0  0  0  0  0  0
   10.9048  -19.8106   24.2058 C   0  0  0  0  0  0  0  0  0  0  0  0
   10.5028  -18.5242   24.9158 C   0  0  2  0  0  0  0  0  0  0  0  0
   10.1487  -17.4941   23.9500 N   0  0  0  0  0  0  0  0  0  0  0  0
   11.5418  -18.0958   25.8772 C   0  0  0  0  0  0  0  0  0  0  0  0
   11.5632  -18.6201   27.1604 O   0  0  0  0  0  0  0  0  0  0  0  0
   12.4231  -17.2608   25.5750 O   0  0  0  0  0  0  0  0  0  0  0  0
  2  1  1  0
  3  2  2  0
  4  3  1  0
  5 11  1  0
  5  4  2  0
  6  5  1  0
  7  8  1  6
  7  6  1  0
  9  7  1  0
 10  9  2  0
 11 12  2  0
 12  2  1  0
 13  9  1  0
 14 13  1  0
 14 15  1  1
 16 24  1  0
 16 15  1  0
 17 16  2  0
 18 17  1  0
 18 19  1  0
 19 24  2  0
 20 19  1  0
 20 21  2  0
 21 22  1  0
 22 23  2  0
 24 23  1  0
 25 14  1  0
 26 25  2  0
 28 27  1  6
 28 29  1  0
 29 25  1  0
 30 28  1  0
 30 31  1  0
 32 30  2  0
M  END
$$$$
