YWA.pdb
     RDKit          3D

 32 34  0  0  1  0  0  0  0  0999 V2000
    7.2912  -13.9047   15.8121 O   0  0  0  0  0  0  0  0  0  0  0  0
    7.4349  -13.9854   17.1930 C   0  0  0  0  0  0  0  0  0  0  0  0
    6.7457  -14.9903   17.8458 C   0  0  0  0  0  0  0  0  0  0  0  0
    6.8691  -15.0988   19.2362 C   0  0  0  0  0  0  0  0  0  0  0  0
    7.6647  -14.2171   19.9369 C   0  0  0  0  0  0  0  0  0  0  0  0
    7.7578  -14.3763   21.4034 C   0  0  0  0  0  0  0  0  0  0  0  0
    8.8544  -15.3808   21.6810 C   0  0  2  0  0  0  0  0  0  0  0  0
    8.3972  -16.7363   21.5968 N   0  0  0  0  0  0  0  0  0  0  0  0
    9.3140  -15.1209   23.0928 C   0  0  0  0  0  0  0  0  0  0  0  0
    9.7479  -13.9950   23.4422 O   0  0  0  0  0  0  0  0  0  0  0  0
    8.3526  -13.2171   19.3008 C   0  0  0  0  0  0  0  0  0  0  0  0
    8.2247  -13.1153   17.9159 C   0  0  0  0  0  0  0  0  0  0  0  0
    9.2678  -16.1426   24.0642 N   0  0  0  0  0  0  0  0  0  0  0  0
   10.0196  -15.9562   25.3096 C   0  0  1  0  0  0  0  0  0  0  0  0
    8.9987  -16.1367   26.3975 C   0  0  0  0  0  0  0  0  0  0  0  0
    7.7664  -15.3609   26.2406 C   0  0  0  0  0  0  0  0  0  0  0  0
    6.5301  -15.8337   25.8767 C   0  0  0  0  0  0  0  0  0  0  0  0
    5.6772  -14.7926   25.8320 N   0  0  0  0  0  0  0  0  0  0  0  0
    6.2988  -13.6480   26.1518 C   0  0  0  0  0  0  0  0  0  0  0  0
    5.9009  -12.3382   26.2555 C   0  0  0  0  0  0  0  0  0  0  0  0
    6.7839  -11.3274   26.6172 C   0  0  0  0  0  0  0  0  0  0  0  0
    8.1114  -11.6717   26.8793 C   0  0  0  0  0  0  0  0  0  0  0  0
    8.4772  -12.9985   26.7654 C   0  0  0  0  0  0  0  0  0  0  0  0
    7.6070  -14.0019   26.4079 C   0  0  0  0  0  0  0  0  0  0  0  0
   11.1096  -16.9443   25.3082 C   0  0  0  0  0  0  0  0  0  0  0  0
   11.5401  -17.4274   26.3866 O   0  0  0  0  0  0  0  0  0  0  0  0
   12.7920  -19.3315   23.0197 C   0  0  0  0  0  0  0  0  0  0  0  0
   12.8503  -18.3549   24.1875 C   0  0  2  0  0  0  0  0  0  0  0  0
   11.7384  -17.4172   24.1282 N   0  0  0  0  0  0  0  0  0  0  0  0
   14.1715  -17.6953   24.2686 C   0  0  0  0  0  0  0  0  0  0  0  0
   14.2847  -16.3313   24.0482 O   0  0  0  0  0  0  0  0  0  0  0  0
   15.2162  -18.3305   24.5337 O   0  0  0  0  0  0  0  0  0  0  0  0
  2  1  1  0
  3  2  2  0
  4  3  1  0
  5 11  1  0
  5  4  2  0
  6  5  1  0
  7  8  1  1
  7  6  1  0
  9  7  1  0
 10  9  2  0
 11 12  2  0
 12  2  1  0
 13  9  1  0
 14 13  1  0
 14 15  1  1
 16 24  1  0
 16 15  1  0
 17 16  2  0
 18 17  1  0
 18 19  1  0
 19 24  2  0
 20 19  1  0
 20 21  2  0
 21 22  1  0
 22 23  2  0
 24 23  1  0
 25 14  1  0
 26 25  2  0
 28 27  1  6
 28 29  1  0
 29 25  1  0
 30 28  1  0
 30 31  1  0
 32 30  2  0
M  END
$$$$
