YWA.pdb
     RDKit          3D

 32 34  0  0  1  0  0  0  0  0999 V2000
    8.4607  -19.5279   15.7871 O   0  0  0  0  0  0  0  0  0  0  0  0
    8.8116  -19.1361   17.0745 C   0  0  0  0  0  0  0  0  0  0  0  0
    9.9229  -18.3254   17.2112 C   0  0  0  0  0  0  0  0  0  0  0  0
   10.3027  -17.9133   18.4942 C   0  0  0  0  0  0  0  0  0  0  0  0
    9.5783  -18.3114   19.5978 C   0  0  0  0  0  0  0  0  0  0  0  0
   10.0246  -17.8483   20.9287 C   0  0  0  0  0  0  0  0  0  0  0  0
    9.1771  -16.6512   21.2992 C   0  0  2  0  0  0  0  0  0  0  0  0
    9.3857  -15.5344   20.4259 N   0  0  0  0  0  0  0  0  0  0  0  0
    9.5993  -16.2525   22.6901 C   0  0  0  0  0  0  0  0  0  0  0  0
   10.3900  -15.2960   22.8843 O   0  0  0  0  0  0  0  0  0  0  0  0
    8.4750  -19.1147   19.4748 C   0  0  0  0  0  0  0  0  0  0  0  0
    8.1029  -19.5212   18.1938 C   0  0  0  0  0  0  0  0  0  0  0  0
    9.1135  -16.9483   23.8169 N   0  0  0  0  0  0  0  0  0  0  0  0
    9.5291  -16.4968   25.1488 C   0  0  1  0  0  0  0  0  0  0  0  0
    8.2920  -16.6211   25.9928 C   0  0  0  0  0  0  0  0  0  0  0  0
    7.3285  -15.5256   25.8643 C   0  0  0  0  0  0  0  0  0  0  0  0
    6.0309  -15.6105   25.4245 C   0  0  0  0  0  0  0  0  0  0  0  0
    5.4984  -14.3737   25.4415 N   0  0  0  0  0  0  0  0  0  0  0  0
    6.3914  -13.4719   25.8753 C   0  0  0  0  0  0  0  0  0  0  0  0
    6.3616  -12.1143   26.0767 C   0  0  0  0  0  0  0  0  0  0  0  0
    7.4669  -11.4160   26.5488 C   0  0  0  0  0  0  0  0  0  0  0  0
    8.6341  -12.1320   26.8214 C   0  0  0  0  0  0  0  0  0  0  0  0
    8.6290  -13.4963   26.6074 C   0  0  0  0  0  0  0  0  0  0  0  0
    7.5378  -14.1913   26.1404 C   0  0  0  0  0  0  0  0  0  0  0  0
   10.6539  -17.3500   25.5627 C   0  0  0  0  0  0  0  0  0  0  0  0
   11.0842  -17.3174   26.7441 O   0  0  0  0  0  0  0  0  0  0  0  0
   12.8245  -20.0853   24.0859 C   0  0  0  0  0  0  0  0  0  0  0  0
   12.4186  -19.0812   25.1572 C   0  0  2  0  0  0  0  0  0  0  0  0
   11.3180  -18.2502   24.6910 N   0  0  0  0  0  0  0  0  0  0  0  0
   13.5835  -18.3023   25.6302 C   0  0  0  0  0  0  0  0  0  0  0  0
   14.3236  -18.7443   26.7159 O   0  0  0  0  0  0  0  0  0  0  0  0
   13.9380  -17.2364   25.0794 O   0  0  0  0  0  0  0  0  0  0  0  0
  2  1  1  0
  3  2  2  0
  4  3  1  0
  5 11  1  0
  5  4  2  0
  6  5  1  0
  7  8  1  6
  7  6  1  0
  9  7  1  0
 10  9  2  0
 11 12  2  0
 12  2  1  0
 13  9  1  0
 14 13  1  0
 14 15  1  1
 16 24  1  0
 16 15  1  0
 17 16  2  0
 18 17  1  0
 18 19  1  0
 19 24  2  0
 20 19  1  0
 20 21  2  0
 21 22  1  0
 22 23  2  0
 24 23  1  0
 25 14  1  0
 26 25  2  0
 28 27  1  6
 28 29  1  0
 29 25  1  0
 30 28  1  0
 30 31  1  0
 32 30  2  0
M  END
$$$$
