YWA.pdb
     RDKit          3D

 32 34  0  0  1  0  0  0  0  0999 V2000
   -0.7965  -31.5019   23.9044 O   0  0  0  0  0  0  0  0  0  0  0  0
   -1.4131  -30.5784   24.7417 C   0  0  0  0  0  0  0  0  0  0  0  0
   -2.7580  -30.3334   24.5363 C   0  0  0  0  0  0  0  0  0  0  0  0
   -3.4084  -29.4090   25.3623 C   0  0  0  0  0  0  0  0  0  0  0  0
   -2.7159  -28.7576   26.3611 C   0  0  0  0  0  0  0  0  0  0  0  0
   -3.4515  -27.7906   27.2029 C   0  0  0  0  0  0  0  0  0  0  0  0
   -3.8351  -26.6228   26.3210 C   0  0  2  0  0  0  0  0  0  0  0  0
   -2.6989  -25.8815   25.8597 N   0  0  0  0  0  0  0  0  0  0  0  0
   -4.6819  -25.7133   27.1740 C   0  0  0  0  0  0  0  0  0  0  0  0
   -4.1675  -24.9656   28.0424 O   0  0  0  0  0  0  0  0  0  0  0  0
   -1.3828  -28.9923   26.5743 C   0  0  0  0  0  0  0  0  0  0  0  0
   -0.7418  -29.9143   25.7474 C   0  0  0  0  0  0  0  0  0  0  0  0
   -6.0833  -25.6783   27.0171 N   0  0  0  0  0  0  0  0  0  0  0  0
   -6.8535  -24.7324   27.8314 C   0  0  1  0  0  0  0  0  0  0  0  0
   -7.6806  -23.9655   26.8383 C   0  0  0  0  0  0  0  0  0  0  0  0
   -6.9754  -22.9036   26.1172 C   0  0  0  0  0  0  0  0  0  0  0  0
   -6.7615  -22.8217   24.7637 C   0  0  0  0  0  0  0  0  0  0  0  0
   -6.0584  -21.7004   24.5152 N   0  0  0  0  0  0  0  0  0  0  0  0
   -5.7976  -21.0353   25.6503 C   0  0  0  0  0  0  0  0  0  0  0  0
   -5.1350  -19.8702   25.9474 C   0  0  0  0  0  0  0  0  0  0  0  0
   -5.0145  -19.4043   27.2515 C   0  0  0  0  0  0  0  0  0  0  0  0
   -5.5904  -20.1558   28.2778 C   0  0  0  0  0  0  0  0  0  0  0  0
   -6.2493  -21.3223   27.9431 C   0  0  0  0  0  0  0  0  0  0  0  0
   -6.3710  -21.7871   26.6543 C   0  0  0  0  0  0  0  0  0  0  0  0
   -7.6231  -25.5254   28.8027 C   0  0  0  0  0  0  0  0  0  0  0  0
   -8.3769  -26.4559   28.4186 O   0  0  0  0  0  0  0  0  0  0  0  0
   -7.5057  -26.4876   32.3523 C   0  0  0  0  0  0  0  0  0  0  0  0
   -8.3370  -26.1446   31.1227 C   0  0  2  0  0  0  0  0  0  0  0  0
   -7.5746  -25.3118   30.2038 N   0  0  0  0  0  0  0  0  0  0  0  0
   -9.6402  -25.5582   31.5037 C   0  0  0  0  0  0  0  0  0  0  0  0
   -9.7634  -24.1889   31.6819 O   0  0  0  0  0  0  0  0  0  0  0  0
  -10.6604  -26.2615   31.6761 O   0  0  0  0  0  0  0  0  0  0  0  0
  2  1  1  0
  3  2  2  0
  4  3  1  0
  5 11  1  0
  5  4  2  0
  6  5  1  0
  7  8  1  1
  7  6  1  0
  9  7  1  0
 10  9  2  0
 11 12  2  0
 12  2  1  0
 13  9  1  0
 14 13  1  0
 14 15  1  6
 16 24  1  0
 16 15  1  0
 17 16  2  0
 18 17  1  0
 18 19  1  0
 19 24  2  0
 20 19  1  0
 20 21  2  0
 21 22  1  0
 22 23  2  0
 24 23  1  0
 25 14  1  0
 26 25  2  0
 28 27  1  1
 28 29  1  0
 29 25  1  0
 30 28  1  0
 30 31  1  0
 32 30  2  0
M  END
$$$$
