YWA.pdb
     RDKit          3D

 32 34  0  0  1  0  0  0  0  0999 V2000
    8.1752  -14.3086   13.3103 O   0  0  0  0  0  0  0  0  0  0  0  0
    8.3580  -14.1479   14.6796 C   0  0  0  0  0  0  0  0  0  0  0  0
    7.4079  -13.4149   15.3657 C   0  0  0  0  0  0  0  0  0  0  0  0
    7.5628  -13.2347   16.7454 C   0  0  0  0  0  0  0  0  0  0  0  0
    8.6449  -13.7805   17.4031 C   0  0  0  0  0  0  0  0  0  0  0  0
    8.7600  -13.5580   18.8599 C   0  0  0  0  0  0  0  0  0  0  0  0
    9.2037  -14.8630   19.4834 C   0  0  2  0  0  0  0  0  0  0  0  0
    8.3029  -15.9426   19.2068 N   0  0  0  0  0  0  0  0  0  0  0  0
    9.2245  -14.6307   20.9725 C   0  0  0  0  0  0  0  0  0  0  0  0
    9.0439  -13.4865   21.4583 O   0  0  0  0  0  0  0  0  0  0  0  0
    9.5931  -14.5089   16.7337 C   0  0  0  0  0  0  0  0  0  0  0  0
    9.4320  -14.6840   15.3597 C   0  0  0  0  0  0  0  0  0  0  0  0
    9.4486  -15.7002   21.8646 N   0  0  0  0  0  0  0  0  0  0  0  0
    9.1055  -15.5137   23.2782 C   0  0  1  0  0  0  0  0  0  0  0  0
    7.6566  -15.1150   23.2657 C   0  0  0  0  0  0  0  0  0  0  0  0
    7.0615  -14.8605   24.5795 C   0  0  0  0  0  0  0  0  0  0  0  0
    6.3163  -15.7317   25.3346 C   0  0  0  0  0  0  0  0  0  0  0  0
    5.9460  -15.0995   26.4645 N   0  0  0  0  0  0  0  0  0  0  0  0
    6.4161  -13.8437   26.4888 C   0  0  0  0  0  0  0  0  0  0  0  0
    6.3301  -12.8056   27.3830 C   0  0  0  0  0  0  0  0  0  0  0  0
    6.9334  -11.5763   27.1436 C   0  0  0  0  0  0  0  0  0  0  0  0
    7.6439  -11.4094   25.9533 C   0  0  0  0  0  0  0  0  0  0  0  0
    7.7099  -12.4742   25.0767 C   0  0  0  0  0  0  0  0  0  0  0  0
    7.1147  -13.6922   25.3094 C   0  0  0  0  0  0  0  0  0  0  0  0
    9.3965  -16.7822   23.9644 C   0  0  0  0  0  0  0  0  0  0  0  0
    9.1586  -17.8838   23.4062 O   0  0  0  0  0  0  0  0  0  0  0  0
   11.9625  -18.1934   24.8316 C   0  0  0  0  0  0  0  0  0  0  0  0
   10.7180  -18.0229   25.6935 C   0  0  2  0  0  0  0  0  0  0  0  0
    9.9534  -16.8601   25.2664 N   0  0  0  0  0  0  0  0  0  0  0  0
   11.0612  -18.0042   27.1320 C   0  0  0  0  0  0  0  0  0  0  0  0
   11.6776  -19.1000   27.7162 O   0  0  0  0  0  0  0  0  0  0  0  0
   10.8132  -17.0186   27.8616 O   0  0  0  0  0  0  0  0  0  0  0  0
  2  1  1  0
  3  2  2  0
  4  3  1  0
  5 11  1  0
  5  4  2  0
  6  5  1  0
  7  8  1  1
  7  6  1  0
  9  7  1  0
 10  9  2  0
 11 12  2  0
 12  2  1  0
 13  9  1  0
 14 13  1  0
 14 15  1  6
 16 24  1  0
 16 15  1  0
 17 16  2  0
 18 17  1  0
 18 19  1  0
 19 24  2  0
 20 19  1  0
 20 21  2  0
 21 22  1  0
 22 23  2  0
 24 23  1  0
 25 14  1  0
 26 25  2  0
 28 27  1  6
 28 29  1  0
 29 25  1  0
 30 28  1  0
 30 31  1  0
 32 30  2  0
M  END
$$$$
