YWA.pdb
     RDKit          3D

 32 34  0  0  1  0  0  0  0  0999 V2000
    7.4879  -15.2933   14.6399 O   0  0  0  0  0  0  0  0  0  0  0  0
    7.8508  -15.0069   15.9515 C   0  0  0  0  0  0  0  0  0  0  0  0
    8.4554  -16.0155   16.6782 C   0  0  0  0  0  0  0  0  0  0  0  0
    8.8330  -15.7593   18.0017 C   0  0  0  0  0  0  0  0  0  0  0  0
    8.6040  -14.5219   18.5655 C   0  0  0  0  0  0  0  0  0  0  0  0
    9.0214  -14.3063   19.9670 C   0  0  0  0  0  0  0  0  0  0  0  0
    8.0120  -15.0035   20.8522 C   0  0  2  0  0  0  0  0  0  0  0  0
    6.7390  -14.3456   20.8640 N   0  0  0  0  0  0  0  0  0  0  0  0
    8.5802  -14.9646   22.2477 C   0  0  0  0  0  0  0  0  0  0  0  0
    8.7478  -13.8781   22.8552 O   0  0  0  0  0  0  0  0  0  0  0  0
    8.0056  -13.5144   17.8551 C   0  0  0  0  0  0  0  0  0  0  0  0
    7.6322  -13.7772   16.5375 C   0  0  0  0  0  0  0  0  0  0  0  0
    8.9404  -16.1560   22.9115 N   0  0  0  0  0  0  0  0  0  0  0  0
    9.6552  -16.0551   24.1881 C   0  0  1  0  0  0  0  0  0  0  0  0
    8.6290  -16.4157   25.2250 C   0  0  0  0  0  0  0  0  0  0  0  0
    7.5488  -15.4436   25.4075 C   0  0  0  0  0  0  0  0  0  0  0  0
    6.2148  -15.6271   25.1404 C   0  0  0  0  0  0  0  0  0  0  0  0
    5.5660  -14.4830   25.4295 N   0  0  0  0  0  0  0  0  0  0  0  0
    6.4167  -13.5481   25.8777 C   0  0  0  0  0  0  0  0  0  0  0  0
    6.2775  -12.2486   26.2980 C   0  0  0  0  0  0  0  0  0  0  0  0
    7.3639  -11.4920   26.7219 C   0  0  0  0  0  0  0  0  0  0  0  0
    8.6271  -12.0869   26.7138 C   0  0  0  0  0  0  0  0  0  0  0  0
    8.7306  -13.3954   26.2849 C   0  0  0  0  0  0  0  0  0  0  0  0
    7.6586  -14.1477   25.8646 C   0  0  0  0  0  0  0  0  0  0  0  0
   10.8086  -16.9652   24.1105 C   0  0  0  0  0  0  0  0  0  0  0  0
   10.6615  -18.1588   23.7428 O   0  0  0  0  0  0  0  0  0  0  0  0
   14.5428  -16.8335   24.0533 C   0  0  0  0  0  0  0  0  0  0  0  0
   13.2323  -17.5353   24.3865 C   0  0  2  0  0  0  0  0  0  0  0  0
   12.1352  -16.5795   24.4309 N   0  0  0  0  0  0  0  0  0  0  0  0
   13.3564  -18.3449   25.6180 C   0  0  0  0  0  0  0  0  0  0  0  0
   14.3114  -19.3463   25.7010 O   0  0  0  0  0  0  0  0  0  0  0  0
   12.6189  -18.1603   26.6117 O   0  0  0  0  0  0  0  0  0  0  0  0
  2  1  1  0
  3  2  2  0
  4  3  1  0
  5 11  1  0
  5  4  2  0
  6  5  1  0
  7  8  1  1
  7  6  1  0
  9  7  1  0
 10  9  2  0
 11 12  2  0
 12  2  1  0
 13  9  1  0
 14 13  1  0
 14 15  1  1
 16 24  1  0
 16 15  1  0
 17 16  2  0
 18 17  1  0
 18 19  1  0
 19 24  2  0
 20 19  1  0
 20 21  2  0
 21 22  1  0
 22 23  2  0
 24 23  1  0
 25 14  1  0
 26 25  2  0
 28 27  1  1
 28 29  1  0
 29 25  1  0
 30 28  1  0
 30 31  1  0
 32 30  2  0
M  END
$$$$
