YWA.pdb
     RDKit          3D

 32 34  0  0  1  0  0  0  0  0999 V2000
   12.2787  -20.2141   15.0313 O   0  0  0  0  0  0  0  0  0  0  0  0
   12.0170  -19.4928   16.1912 C   0  0  0  0  0  0  0  0  0  0  0  0
   12.8915  -18.4726   16.5159 C   0  0  0  0  0  0  0  0  0  0  0  0
   12.6560  -17.7273   17.6773 C   0  0  0  0  0  0  0  0  0  0  0  0
   11.5703  -18.0095   18.4793 C   0  0  0  0  0  0  0  0  0  0  0  0
   11.3701  -17.1922   19.6945 C   0  0  0  0  0  0  0  0  0  0  0  0
    9.9223  -16.7538   19.7117 C   0  0  2  0  0  0  0  0  0  0  0  0
    9.5808  -15.9289   18.5908 N   0  0  0  0  0  0  0  0  0  0  0  0
    9.7443  -15.9434   20.9701 C   0  0  0  0  0  0  0  0  0  0  0  0
   10.2627  -14.8060   21.0940 O   0  0  0  0  0  0  0  0  0  0  0  0
   10.6966  -19.0181   18.1677 C   0  0  0  0  0  0  0  0  0  0  0  0
   10.9378  -19.7561   17.0093 C   0  0  0  0  0  0  0  0  0  0  0  0
    8.9852  -16.4453   22.0479 N   0  0  0  0  0  0  0  0  0  0  0  0
    8.8119  -15.5994   23.2333 C   0  0  1  0  0  0  0  0  0  0  0  0
    7.3318  -15.6116   23.4929 C   0  0  0  0  0  0  0  0  0  0  0  0
    6.9134  -15.0588   24.7830 C   0  0  0  0  0  0  0  0  0  0  0  0
    6.3127  -15.7320   25.8175 C   0  0  0  0  0  0  0  0  0  0  0  0
    6.0772  -14.8541   26.8112 N   0  0  0  0  0  0  0  0  0  0  0  0
    6.4981  -13.6254   26.4767 C   0  0  0  0  0  0  0  0  0  0  0  0
    6.4963  -12.4069   27.1091 C   0  0  0  0  0  0  0  0  0  0  0  0
    7.0137  -11.2652   26.5080 C   0  0  0  0  0  0  0  0  0  0  0  0
    7.5473  -11.3788   25.2228 C   0  0  0  0  0  0  0  0  0  0  0  0
    7.5328  -12.6194   24.6164 C   0  0  0  0  0  0  0  0  0  0  0  0
    7.0219  -13.7516   25.2071 C   0  0  0  0  0  0  0  0  0  0  0  0
    9.6367  -16.1814   24.3036 C   0  0  0  0  0  0  0  0  0  0  0  0
    9.7860  -15.5805   25.3984 O   0  0  0  0  0  0  0  0  0  0  0  0
   10.7736  -19.4503   25.4905 C   0  0  0  0  0  0  0  0  0  0  0  0
   11.0828  -17.9717   25.2932 C   0  0  2  0  0  0  0  0  0  0  0  0
   10.3044  -17.4275   24.1900 N   0  0  0  0  0  0  0  0  0  0  0  0
   12.5374  -17.7425   25.1552 C   0  0  0  0  0  0  0  0  0  0  0  0
   13.3956  -18.0618   26.1961 O   0  0  0  0  0  0  0  0  0  0  0  0
   13.0384  -17.2613   24.1147 O   0  0  0  0  0  0  0  0  0  0  0  0
  2  1  1  0
  3  2  2  0
  4  3  1  0
  5 11  1  0
  5  4  2  0
  6  5  1  0
  7  8  1  6
  7  6  1  0
  9  7  1  0
 10  9  2  0
 11 12  2  0
 12  2  1  0
 13  9  1  0
 14 13  1  0
 14 15  1  1
 16 24  1  0
 16 15  1  0
 17 16  2  0
 18 17  1  0
 18 19  1  0
 19 24  2  0
 20 19  1  0
 20 21  2  0
 21 22  1  0
 22 23  2  0
 24 23  1  0
 25 14  1  0
 26 25  2  0
 28 27  1  6
 28 29  1  0
 29 25  1  0
 30 28  1  0
 30 31  1  0
 32 30  2  0
M  END
$$$$
