YWA.pdb
     RDKit          3D

 32 34  0  0  1  0  0  0  0  0999 V2000
    9.0698  -19.6695   16.1770 O   0  0  0  0  0  0  0  0  0  0  0  0
    9.3411  -19.2816   17.4847 C   0  0  0  0  0  0  0  0  0  0  0  0
   10.4652  -18.5055   17.6969 C   0  0  0  0  0  0  0  0  0  0  0  0
   10.7663  -18.0982   19.0021 C   0  0  0  0  0  0  0  0  0  0  0  0
    9.9534  -18.4670   20.0530 C   0  0  0  0  0  0  0  0  0  0  0  0
   10.3191  -18.0106   21.4106 C   0  0  0  0  0  0  0  0  0  0  0  0
    9.5636  -16.7270   21.6754 C   0  0  2  0  0  0  0  0  0  0  0  0
    9.9968  -15.6476   20.8383 N   0  0  0  0  0  0  0  0  0  0  0  0
    9.8488  -16.3605   23.1094 C   0  0  0  0  0  0  0  0  0  0  0  0
   10.7322  -15.5182   23.4056 O   0  0  0  0  0  0  0  0  0  0  0  0
    8.8367  -19.2360   19.8550 C   0  0  0  0  0  0  0  0  0  0  0  0
    8.5433  -19.6378   18.5523 C   0  0  0  0  0  0  0  0  0  0  0  0
    9.1252  -16.9584   24.1624 N   0  0  0  0  0  0  0  0  0  0  0  0
    9.4276  -16.5488   25.5378 C   0  0  1  0  0  0  0  0  0  0  0  0
    8.0838  -16.4247   26.1990 C   0  0  0  0  0  0  0  0  0  0  0  0
    7.2519  -15.3133   25.7322 C   0  0  0  0  0  0  0  0  0  0  0  0
    6.2122  -15.3750   24.8380 C   0  0  0  0  0  0  0  0  0  0  0  0
    5.7272  -14.1301   24.6691 N   0  0  0  0  0  0  0  0  0  0  0  0
    6.4040  -13.2453   25.4159 C   0  0  0  0  0  0  0  0  0  0  0  0
    6.3176  -11.8886   25.6074 C   0  0  0  0  0  0  0  0  0  0  0  0
    7.1745  -11.2108   26.4668 C   0  0  0  0  0  0  0  0  0  0  0  0
    8.1461  -11.9468   27.1477 C   0  0  0  0  0  0  0  0  0  0  0  0
    8.2047  -13.3094   26.9315 C   0  0  0  0  0  0  0  0  0  0  0  0
    7.3590  -13.9843   26.0822 C   0  0  0  0  0  0  0  0  0  0  0  0
   10.3109  -17.5767   26.1103 C   0  0  0  0  0  0  0  0  0  0  0  0
   10.5926  -17.5713   27.3360 O   0  0  0  0  0  0  0  0  0  0  0  0
   12.1649  -20.6829   24.9734 C   0  0  0  0  0  0  0  0  0  0  0  0
   11.8305  -19.5618   25.9491 C   0  0  2  0  0  0  0  0  0  0  0  0
   10.8929  -18.6230   25.3501 N   0  0  0  0  0  0  0  0  0  0  0  0
   13.0575  -18.9177   26.4659 C   0  0  0  0  0  0  0  0  0  0  0  0
   13.4805  -17.7044   25.9453 O   0  0  0  0  0  0  0  0  0  0  0  0
   13.7464  -19.4331   27.3742 O   0  0  0  0  0  0  0  0  0  0  0  0
  2  1  1  0
  3  2  2  0
  4  3  1  0
  5 11  1  0
  5  4  2  0
  6  5  1  0
  7  8  1  6
  7  6  1  0
  9  7  1  0
 10  9  2  0
 11 12  2  0
 12  2  1  0
 13  9  1  0
 14 13  1  0
 14 15  1  1
 16 24  1  0
 16 15  1  0
 17 16  2  0
 18 17  1  0
 18 19  1  0
 19 24  2  0
 20 19  1  0
 20 21  2  0
 21 22  1  0
 22 23  2  0
 24 23  1  0
 25 14  1  0
 26 25  2  0
 28 27  1  6
 28 29  1  0
 29 25  1  0
 30 28  1  0
 30 31  1  0
 32 30  2  0
M  END
$$$$
