YWA.pdb
     RDKit          3D

 32 34  0  0  1  0  0  0  0  0999 V2000
    7.4597  -13.1342   16.6324 O   0  0  0  0  0  0  0  0  0  0  0  0
    7.6582  -13.3665   17.9891 C   0  0  0  0  0  0  0  0  0  0  0  0
    8.9453  -13.2320   18.4751 C   0  0  0  0  0  0  0  0  0  0  0  0
    9.1787  -13.4589   19.8367 C   0  0  0  0  0  0  0  0  0  0  0  0
    8.1405  -13.8099   20.6735 C   0  0  0  0  0  0  0  0  0  0  0  0
    8.4435  -14.0392   22.1020 C   0  0  0  0  0  0  0  0  0  0  0  0
    9.3665  -15.2351   22.1826 C   0  0  2  0  0  0  0  0  0  0  0  0
    8.7142  -16.4618   21.8318 N   0  0  0  0  0  0  0  0  0  0  0  0
    9.8099  -15.3266   23.6202 C   0  0  0  0  0  0  0  0  0  0  0  0
   10.5528  -14.4527   24.1321 O   0  0  0  0  0  0  0  0  0  0  0  0
    6.8606  -13.9462   20.2034 C   0  0  0  0  0  0  0  0  0  0  0  0
    6.6359  -13.7186   18.8460 C   0  0  0  0  0  0  0  0  0  0  0  0
    9.3986  -16.4037   24.4330 N   0  0  0  0  0  0  0  0  0  0  0  0
    9.8557  -16.4413   25.8260 C   0  0  1  0  0  0  0  0  0  0  0  0
    8.5917  -16.4988   26.6368 C   0  0  0  0  0  0  0  0  0  0  0  0
    7.5622  -15.5240   26.2693 C   0  0  0  0  0  0  0  0  0  0  0  0
    6.3484  -15.7820   25.6823 C   0  0  0  0  0  0  0  0  0  0  0  0
    5.7123  -14.6096   25.4969 N   0  0  0  0  0  0  0  0  0  0  0  0
    6.4561  -13.5844   25.9378 C   0  0  0  0  0  0  0  0  0  0  0  0
    6.2805  -12.2236   25.9839 C   0  0  0  0  0  0  0  0  0  0  0  0
    7.2465  -11.3745   26.5116 C   0  0  0  0  0  0  0  0  0  0  0  0
    8.4243  -11.9390   27.0050 C   0  0  0  0  0  0  0  0  0  0  0  0
    8.5676  -13.3110   26.9428 C   0  0  0  0  0  0  0  0  0  0  0  0
    7.6147  -14.1549   26.4217 C   0  0  0  0  0  0  0  0  0  0  0  0
   10.7356  -17.6127   25.9604 C   0  0  0  0  0  0  0  0  0  0  0  0
   11.1371  -17.9882   27.0916 O   0  0  0  0  0  0  0  0  0  0  0  0
   11.8920  -20.5511   23.9539 C   0  0  0  0  0  0  0  0  0  0  0  0
   12.0944  -19.5081   25.0457 C   0  0  2  0  0  0  0  0  0  0  0  0
   11.1835  -18.3879   24.8604 N   0  0  0  0  0  0  0  0  0  0  0  0
   13.5133  -19.1019   25.1419 C   0  0  0  0  0  0  0  0  0  0  0  0
   14.4462  -19.9558   25.7097 O   0  0  0  0  0  0  0  0  0  0  0  0
   13.9172  -17.9944   24.7229 O   0  0  0  0  0  0  0  0  0  0  0  0
  2  1  1  0
  3  2  2  0
  4  3  1  0
  5 11  1  0
  5  4  2  0
  6  5  1  0
  7  8  1  1
  7  6  1  0
  9  7  1  0
 10  9  2  0
 11 12  2  0
 12  2  1  0
 13  9  1  0
 14 13  1  0
 14 15  1  1
 16 24  1  0
 16 15  1  0
 17 16  2  0
 18 17  1  0
 18 19  1  0
 19 24  2  0
 20 19  1  0
 20 21  2  0
 21 22  1  0
 22 23  2  0
 24 23  1  0
 25 14  1  0
 26 25  2  0
 28 27  1  6
 28 29  1  0
 29 25  1  0
 30 28  1  0
 30 31  1  0
 32 30  2  0
M  END
$$$$
