YWA.pdb
     RDKit          3D

 32 34  0  0  1  0  0  0  0  0999 V2000
    7.8339  -14.3144   15.7251 O   0  0  0  0  0  0  0  0  0  0  0  0
    7.9586  -14.1978   17.1053 C   0  0  0  0  0  0  0  0  0  0  0  0
    8.5818  -15.2331   17.7767 C   0  0  0  0  0  0  0  0  0  0  0  0
    8.7233  -15.1463   19.1668 C   0  0  0  0  0  0  0  0  0  0  0  0
    8.2480  -14.0464   19.8491 C   0  0  0  0  0  0  0  0  0  0  0  0
    8.4225  -14.0072   21.3164 C   0  0  0  0  0  0  0  0  0  0  0  0
    9.2401  -15.2186   21.7074 C   0  0  2  0  0  0  0  0  0  0  0  0
    8.5209  -16.4473   21.5445 N   0  0  0  0  0  0  0  0  0  0  0  0
    9.5676  -15.0497   23.1690 C   0  0  0  0  0  0  0  0  0  0  0  0
   10.1234  -14.0081   23.5982 O   0  0  0  0  0  0  0  0  0  0  0  0
    7.6286  -13.0141   19.1946 C   0  0  0  0  0  0  0  0  0  0  0  0
    7.4914  -13.1077   17.8100 C   0  0  0  0  0  0  0  0  0  0  0  0
    9.2559  -16.0641   24.0983 N   0  0  0  0  0  0  0  0  0  0  0  0
    9.5634  -15.8328   25.5134 C   0  0  1  0  0  0  0  0  0  0  0  0
    8.2939  -16.1822   26.2377 C   0  0  0  0  0  0  0  0  0  0  0  0
    7.1793  -15.2528   26.0403 C   0  0  0  0  0  0  0  0  0  0  0  0
    5.9109  -15.5585   25.6136 C   0  0  0  0  0  0  0  0  0  0  0  0
    5.2009  -14.4160   25.5498 N   0  0  0  0  0  0  0  0  0  0  0  0
    5.9482  -13.3647   25.9172 C   0  0  0  0  0  0  0  0  0  0  0  0
    5.7165  -12.0159   26.0265 C   0  0  0  0  0  0  0  0  0  0  0  0
    6.7037  -11.1313   26.4450 C   0  0  0  0  0  0  0  0  0  0  0  0
    7.9628  -11.6464   26.7594 C   0  0  0  0  0  0  0  0  0  0  0  0
    8.1609  -13.0076   26.6382 C   0  0  0  0  0  0  0  0  0  0  0  0
    7.1872  -13.8866   26.2246 C   0  0  0  0  0  0  0  0  0  0  0  0
   10.7227  -16.6751   25.8469 C   0  0  0  0  0  0  0  0  0  0  0  0
   10.7928  -17.8625   25.4382 O   0  0  0  0  0  0  0  0  0  0  0  0
   11.1612  -15.3832   28.8316 C   0  0  0  0  0  0  0  0  0  0  0  0
   11.8810  -16.4817   28.0597 C   0  0  2  0  0  0  0  0  0  0  0  0
   11.8189  -16.2277   26.6276 N   0  0  0  0  0  0  0  0  0  0  0  0
   11.3810  -17.8203   28.4412 C   0  0  0  0  0  0  0  0  0  0  0  0
   12.2264  -18.7318   29.0545 O   0  0  0  0  0  0  0  0  0  0  0  0
   10.1997  -18.1736   28.2292 O   0  0  0  0  0  0  0  0  0  0  0  0
  2  1  1  0
  3  2  2  0
  4  3  1  0
  5 11  1  0
  5  4  2  0
  6  5  1  0
  7  8  1  1
  7  6  1  0
  9  7  1  0
 10  9  2  0
 11 12  2  0
 12  2  1  0
 13  9  1  0
 14 13  1  0
 14 15  1  1
 16 24  1  0
 16 15  1  0
 17 16  2  0
 18 17  1  0
 18 19  1  0
 19 24  2  0
 20 19  1  0
 20 21  2  0
 21 22  1  0
 22 23  2  0
 24 23  1  0
 25 14  1  0
 26 25  2  0
 28 27  1  1
 28 29  1  0
 29 25  1  0
 30 28  1  0
 30 31  1  0
 32 30  2  0
M  END
$$$$
