MYT.pdb
     RDKit          3D

 28 28  0  0  1  0  0  0  0  0999 V2000
   19.6689  -15.9245  -13.4742 C   0  0  0  0  0  0  0  0  0  0  0  0
   18.5179  -16.5731  -14.6889 S   0  0  0  0  0  0  0  0  0  0  0  0
   19.3180  -16.7277  -16.3092 C   0  0  0  0  0  0  0  0  0  0  0  0
   19.7844  -15.3435  -16.7211 C   0  0  0  0  0  0  0  0  0  0  0  0
   18.6002  -14.5909  -17.2916 C   0  0  2  0  0  0  0  0  0  0  0  0
   18.2288  -15.2231  -18.5482 N   0  0  0  0  0  0  0  0  0  0  0  0
   18.8966  -13.1788  -17.5451 C   0  0  0  0  0  0  0  0  0  0  0  0
   19.7353  -12.8318  -18.4403 O   0  0  0  0  0  0  0  0  0  0  0  0
   13.6043  -13.4951  -19.6688 O   0  0  0  0  0  0  0  0  0  0  0  0
   14.5286  -12.6369  -19.0874 C   0  0  0  0  0  0  0  0  0  0  0  0
   14.5438  -12.3901  -17.7458 C   0  0  0  0  0  0  0  0  0  0  0  0
   15.4899  -11.5243  -17.2220 C   0  0  0  0  0  0  0  0  0  0  0  0
   16.4268  -10.8959  -18.0144 C   0  0  0  0  0  0  0  0  0  0  0  0
   17.4432   -9.9668  -17.4618 C   0  0  0  0  0  0  0  0  0  0  0  0
   18.6945  -10.7308  -17.0140 C   0  0  2  0  0  0  0  0  0  0  0  0
   18.2949  -12.0982  -16.8389 N   0  0  0  0  0  0  0  0  0  0  0  0
   19.1786  -10.0947  -15.7650 C   0  0  0  0  0  0  0  0  0  0  0  0
   18.7506  -10.3826  -14.6200 O   0  0  0  0  0  0  0  0  0  0  0  0
   16.3834  -11.1674  -19.3648 C   0  0  0  0  0  0  0  0  0  0  0  0
   15.4429  -12.0304  -19.8987 C   0  0  0  0  0  0  0  0  0  0  0  0
   22.9214   -9.9441  -14.6787 C   0  0  0  0  0  0  0  0  0  0  0  0
   22.3458   -8.5551  -14.7707 C   0  0  1  0  0  0  0  0  0  0  0  0
   22.9350   -7.7980  -15.7801 O   0  0  0  0  0  0  0  0  0  0  0  0
   20.8668   -8.5015  -14.7594 C   0  0  2  0  0  0  0  0  0  0  0  0
   20.1741   -9.1084  -15.8356 N   0  0  0  0  0  0  0  0  0  0  0  0
   20.4457   -7.0842  -14.5590 C   0  0  0  0  0  0  0  0  0  0  0  0
   20.7846   -6.4003  -13.4009 O   0  0  0  0  0  0  0  0  0  0  0  0
   19.7790   -6.4805  -15.4279 O   0  0  0  0  0  0  0  0  0  0  0  0
  2  1  1  0
  3  2  1  0
  4  3  1  0
  5  4  1  0
  5  6  1  6
  7  8  2  0
  7  5  1  0
  9 10  1  0
 10 20  2  0
 11 12  2  0
 11 10  1  0
 12 13  1  0
 13 14  1  0
 13 19  2  0
 15 14  1  1
 15 16  1  0
 16  7  1  0
 17 15  1  0
 18 17  2  0
 20 19  1  0
 22 24  1  0
 22 21  1  6
 23 22  1  0
 24 25  1  6
 25 17  1  0
 26 27  1  0
 26 24  1  0
 28 26  2  0
M  END
$$$$
