MYT.pdb
     RDKit          3D

 28 28  0  0  1  0  0  0  0  0999 V2000
   29.6152  -14.7850  -16.4738 C   0  0  0  0  0  0  0  0  0  0  0  0
   28.3135  -13.6227  -16.8925 S   0  0  0  0  0  0  0  0  0  0  0  0
   27.2581  -13.2991  -15.4535 C   0  0  0  0  0  0  0  0  0  0  0  0
   26.2731  -12.2131  -15.8455 C   0  0  0  0  0  0  0  0  0  0  0  0
   24.8730  -12.7841  -15.7571 C   0  0  2  0  0  0  0  0  0  0  0  0
   24.7410  -13.8110  -16.7791 N   0  0  0  0  0  0  0  0  0  0  0  0
   23.8353  -11.7722  -15.9703 C   0  0  0  0  0  0  0  0  0  0  0  0
   23.4100  -11.5009  -17.1411 O   0  0  0  0  0  0  0  0  0  0  0  0
   18.2754  -14.7004  -16.8121 O   0  0  0  0  0  0  0  0  0  0  0  0
   18.9668  -13.6726  -16.1839 C   0  0  0  0  0  0  0  0  0  0  0  0
   19.8914  -13.9113  -15.2097 C   0  0  0  0  0  0  0  0  0  0  0  0
   20.5502  -12.8457  -14.6184 C   0  0  0  0  0  0  0  0  0  0  0  0
   20.3036  -11.5389  -14.9818 C   0  0  0  0  0  0  0  0  0  0  0  0
   21.0042  -10.3918  -14.3534 C   0  0  0  0  0  0  0  0  0  0  0  0
   22.2458  -10.0009  -15.1630 C   0  0  2  0  0  0  0  0  0  0  0  0
   23.2251  -11.0227  -14.9243 N   0  0  0  0  0  0  0  0  0  0  0  0
   22.6717   -8.6580  -14.7003 C   0  0  0  0  0  0  0  0  0  0  0  0
   23.2379   -8.4423  -13.6002 O   0  0  0  0  0  0  0  0  0  0  0  0
   19.3641  -11.3333  -15.9687 C   0  0  0  0  0  0  0  0  0  0  0  0
   18.7001  -12.3901  -16.5660 C   0  0  0  0  0  0  0  0  0  0  0  0
   21.4086   -5.2431  -17.1423 C   0  0  0  0  0  0  0  0  0  0  0  0
   22.6977   -5.2232  -16.3635 C   0  0  1  0  0  0  0  0  0  0  0  0
   23.0971   -3.9331  -16.0235 O   0  0  0  0  0  0  0  0  0  0  0  0
   22.7530   -6.1884  -15.2430 C   0  0  2  0  0  0  0  0  0  0  0  0
   22.4415   -7.5422  -15.5194 N   0  0  0  0  0  0  0  0  0  0  0  0
   21.9373   -5.6519  -14.1148 C   0  0  0  0  0  0  0  0  0  0  0  0
   20.8568   -6.3658  -13.6182 O   0  0  0  0  0  0  0  0  0  0  0  0
   22.2074   -4.5489  -13.5911 O   0  0  0  0  0  0  0  0  0  0  0  0
  2  1  1  0
  3  2  1  0
  4  3  1  0
  5  4  1  0
  5  6  1  6
  7  8  2  0
  7  5  1  0
  9 10  1  0
 10 20  2  0
 11 12  2  0
 11 10  1  0
 12 13  1  0
 13 14  1  0
 13 19  2  0
 15 14  1  1
 15 16  1  0
 16  7  1  0
 17 15  1  0
 18 17  2  0
 20 19  1  0
 22 24  1  0
 22 21  1  1
 23 22  1  0
 24 25  1  6
 25 17  1  0
 26 27  1  0
 26 24  1  0
 28 26  2  0
M  END
$$$$
