MYT.pdb
     RDKit          3D

 28 28  0  0  1  0  0  0  0  0999 V2000
   20.7792  -28.7921  -18.6319 C   0  0  0  0  0  0  0  0  0  0  0  0
   20.4399  -29.2697  -16.9355 S   0  0  0  0  0  0  0  0  0  0  0  0
   20.9467  -27.9591  -15.7888 C   0  0  0  0  0  0  0  0  0  0  0  0
   20.4728  -28.3573  -14.4032 C   0  0  0  0  0  0  0  0  0  0  0  0
   20.8042  -27.2329  -13.4440 C   0  0  2  0  0  0  0  0  0  0  0  0
   22.1119  -27.5049  -12.8673 N   0  0  0  0  0  0  0  0  0  0  0  0
   19.8280  -27.1096  -12.3586 C   0  0  0  0  0  0  0  0  0  0  0  0
   19.0536  -28.0759  -12.0556 O   0  0  0  0  0  0  0  0  0  0  0  0
   15.7990  -24.3260   -5.0413 O   0  0  0  0  0  0  0  0  0  0  0  0
   16.6859  -24.5272   -6.0910 C   0  0  0  0  0  0  0  0  0  0  0  0
   17.5832  -25.5547   -6.0942 C   0  0  0  0  0  0  0  0  0  0  0  0
   18.4436  -25.7059   -7.1694 C   0  0  0  0  0  0  0  0  0  0  0  0
   18.4266  -24.8475   -8.2480 C   0  0  0  0  0  0  0  0  0  0  0  0
   19.3448  -25.0018   -9.4033 C   0  0  0  0  0  0  0  0  0  0  0  0
   18.6943  -25.8412  -10.5088 C   0  0  2  0  0  0  0  0  0  0  0  0
   19.6593  -25.9378  -11.5669 N   0  0  0  0  0  0  0  0  0  0  0  0
   17.4455  -25.1509  -10.9124 C   0  0  0  0  0  0  0  0  0  0  0  0
   17.4110  -23.9995  -11.4127 O   0  0  0  0  0  0  0  0  0  0  0  0
   17.5081  -23.8207   -8.2127 C   0  0  0  0  0  0  0  0  0  0  0  0
   16.6441  -23.6603   -7.1439 C   0  0  0  0  0  0  0  0  0  0  0  0
   13.9322  -26.7197  -12.8289 C   0  0  0  0  0  0  0  0  0  0  0  0
   13.8654  -26.2527  -11.3984 C   0  0  1  0  0  0  0  0  0  0  0  0
   13.7034  -27.3041  -10.4998 O   0  0  0  0  0  0  0  0  0  0  0  0
   14.9217  -25.2887  -11.0174 C   0  0  2  0  0  0  0  0  0  0  0  0
   16.2131  -25.7983  -10.7367 N   0  0  0  0  0  0  0  0  0  0  0  0
   14.4080  -24.4386   -9.9039 C   0  0  0  0  0  0  0  0  0  0  0  0
   14.9271  -24.5571   -8.6232 O   0  0  0  0  0  0  0  0  0  0  0  0
   13.4997  -23.6012  -10.0980 O   0  0  0  0  0  0  0  0  0  0  0  0
  2  1  1  0
  3  2  1  0
  4  3  1  0
  5  4  1  0
  5  6  1  1
  7  8  2  0
  7  5  1  0
  9 10  1  0
 10 20  2  0
 11 12  2  0
 11 10  1  0
 12 13  1  0
 13 14  1  0
 13 19  2  0
 15 14  1  1
 15 16  1  0
 16  7  1  0
 17 15  1  0
 18 17  2  0
 20 19  1  0
 22 24  1  0
 22 21  1  6
 23 22  1  0
 24 25  1  1
 25 17  1  0
 26 27  1  0
 26 24  1  0
 28 26  2  0
M  END
$$$$
