MYT.pdb
     RDKit          3D

 28 28  0  0  1  0  0  0  0  0999 V2000
   31.8201  -23.2935   -8.9230 C   0  0  0  0  0  0  0  0  0  0  0  0
   30.5923  -21.9925   -8.7777 S   0  0  0  0  0  0  0  0  0  0  0  0
   29.2735  -22.2184  -10.0021 C   0  0  0  0  0  0  0  0  0  0  0  0
   28.3291  -21.0369   -9.8781 C   0  0  0  0  0  0  0  0  0  0  0  0
   27.1392  -21.2800  -10.7832 C   0  0  2  0  0  0  0  0  0  0  0  0
   27.5244  -22.2718  -11.7755 N   0  0  0  0  0  0  0  0  0  0  0  0
   26.6993  -20.0669  -11.4769 C   0  0  0  0  0  0  0  0  0  0  0  0
   26.1614  -19.1021  -10.8406 O   0  0  0  0  0  0  0  0  0  0  0  0
   25.8065  -14.0133  -17.8676 O   0  0  0  0  0  0  0  0  0  0  0  0
   26.2126  -15.0508  -17.0384 C   0  0  0  0  0  0  0  0  0  0  0  0
   26.6062  -14.8365  -15.7500 C   0  0  0  0  0  0  0  0  0  0  0  0
   27.0011  -15.9108  -14.9695 C   0  0  0  0  0  0  0  0  0  0  0  0
   27.0112  -17.2023  -15.4516 C   0  0  0  0  0  0  0  0  0  0  0  0
   27.4332  -18.3586  -14.6228 C   0  0  0  0  0  0  0  0  0  0  0  0
   26.3947  -18.6585  -13.5358 C   0  0  2  0  0  0  0  0  0  0  0  0
   26.8280  -19.8594  -12.8800 N   0  0  0  0  0  0  0  0  0  0  0  0
   25.0791  -18.7957  -14.2059 C   0  0  0  0  0  0  0  0  0  0  0  0
   24.5465  -17.8925  -14.8971 O   0  0  0  0  0  0  0  0  0  0  0  0
   26.6078  -17.3834  -16.7568 C   0  0  0  0  0  0  0  0  0  0  0  0
   26.2114  -16.3177  -17.5452 C   0  0  0  0  0  0  0  0  0  0  0  0
   23.9715  -21.4479  -16.8064 C   0  0  0  0  0  0  0  0  0  0  0  0
   23.1275  -21.5524  -15.5631 C   0  0  1  0  0  0  0  0  0  0  0  0
   23.3390  -22.7426  -14.8718 O   0  0  0  0  0  0  0  0  0  0  0  0
   23.1431  -20.3450  -14.7073 C   0  0  2  0  0  0  0  0  0  0  0  0
   24.3627  -19.9955  -14.0777 N   0  0  0  0  0  0  0  0  0  0  0  0
   22.0227  -20.4447  -13.7270 C   0  0  0  0  0  0  0  0  0  0  0  0
   22.2754  -20.5063  -12.3646 O   0  0  0  0  0  0  0  0  0  0  0  0
   20.8323  -20.4750  -14.1090 O   0  0  0  0  0  0  0  0  0  0  0  0
  2  1  1  0
  3  2  1  0
  4  3  1  0
  5  4  1  0
  5  6  1  6
  7  8  2  0
  7  5  1  0
  9 10  1  0
 10 20  2  0
 11 12  2  0
 11 10  1  0
 12 13  1  0
 13 14  1  0
 13 19  2  0
 15 14  1  6
 15 16  1  0
 16  7  1  0
 17 15  1  0
 18 17  2  0
 20 19  1  0
 22 24  1  0
 22 21  1  6
 23 22  1  0
 24 25  1  1
 25 17  1  0
 26 27  1  0
 26 24  1  0
 28 26  2  0
M  END
$$$$
