MYT.pdb
     RDKit          3D

 28 28  0  0  1  0  0  0  0  0999 V2000
   21.0362  -18.1222  -16.9424 C   0  0  0  0  0  0  0  0  0  0  0  0
   21.6210  -16.7297  -15.9728 S   0  0  0  0  0  0  0  0  0  0  0  0
   22.8358  -15.7630  -16.9103 C   0  0  0  0  0  0  0  0  0  0  0  0
   23.1497  -14.5178  -16.1014 C   0  0  0  0  0  0  0  0  0  0  0  0
   24.0949  -13.6509  -16.9072 C   0  0  2  0  0  0  0  0  0  0  0  0
   25.4429  -14.1681  -16.7274 N   0  0  0  0  0  0  0  0  0  0  0  0
   24.0701  -12.2472  -16.4889 C   0  0  0  0  0  0  0  0  0  0  0  0
   24.5607  -11.8842  -15.3696 O   0  0  0  0  0  0  0  0  0  0  0  0
   29.6668  -10.2848  -17.6199 O   0  0  0  0  0  0  0  0  0  0  0  0
   28.3237   -9.9314  -17.6103 C   0  0  0  0  0  0  0  0  0  0  0  0
   27.8083   -9.0687  -16.6877 C   0  0  0  0  0  0  0  0  0  0  0  0
   26.4600   -8.7528  -16.7274 C   0  0  0  0  0  0  0  0  0  0  0  0
   25.6105   -9.2833  -17.6747 C   0  0  0  0  0  0  0  0  0  0  0  0
   24.1653   -8.9508  -17.7241 C   0  0  0  0  0  0  0  0  0  0  0  0
   23.3655   -9.8521  -16.7766 C   0  0  2  0  0  0  0  0  0  0  0  0
   23.5145  -11.1924  -17.2680 N   0  0  0  0  0  0  0  0  0  0  0  0
   21.9621   -9.3734  -16.7892 C   0  0  0  0  0  0  0  0  0  0  0  0
   21.1496   -9.6076  -17.7178 O   0  0  0  0  0  0  0  0  0  0  0  0
   26.1636  -10.1510  -18.5914 C   0  0  0  0  0  0  0  0  0  0  0  0
   27.5088  -10.4735  -18.5611 C   0  0  0  0  0  0  0  0  0  0  0  0
   19.8290   -9.3413  -13.3663 C   0  0  0  0  0  0  0  0  0  0  0  0
   19.2463   -8.8869  -14.6789 C   0  0  1  0  0  0  0  0  0  0  0  0
   17.9868   -8.3109  -14.5339 O   0  0  0  0  0  0  0  0  0  0  0  0
   20.1752   -8.1050  -15.5252 C   0  0  2  0  0  0  0  0  0  0  0  0
   21.4849   -8.6105  -15.7125 N   0  0  0  0  0  0  0  0  0  0  0  0
   20.1905   -6.6959  -15.0348 C   0  0  0  0  0  0  0  0  0  0  0  0
   21.3739   -6.1005  -14.6238 O   0  0  0  0  0  0  0  0  0  0  0  0
   19.1399   -6.0197  -14.9827 O   0  0  0  0  0  0  0  0  0  0  0  0
  2  1  1  0
  3  2  1  0
  4  3  1  0
  5  4  1  0
  5  6  1  1
  7  8  2  0
  7  5  1  0
  9 10  1  0
 10 20  2  0
 11 12  2  0
 11 10  1  0
 12 13  1  0
 13 14  1  0
 13 19  2  0
 15 14  1  6
 15 16  1  0
 16  7  1  0
 17 15  1  0
 18 17  2  0
 20 19  1  0
 22 24  1  0
 22 21  1  1
 23 22  1  0
 24 25  1  1
 25 17  1  0
 26 27  1  0
 26 24  1  0
 28 26  2  0
M  END
$$$$
