MYT.pdb
     RDKit          3D

 28 28  0  0  1  0  0  0  0  0999 V2000
   24.7655  -21.0467   -8.0675 C   0  0  0  0  0  0  0  0  0  0  0  0
   25.8281  -20.3736   -9.3477 S   0  0  0  0  0  0  0  0  0  0  0  0
   25.6470  -21.3133  -10.8883 C   0  0  0  0  0  0  0  0  0  0  0  0
   26.5061  -20.6351  -11.9396 C   0  0  0  0  0  0  0  0  0  0  0  0
   26.4772  -21.4793  -13.1968 C   0  0  2  0  0  0  0  0  0  0  0  0
   27.4128  -20.9002  -14.1487 N   0  0  0  0  0  0  0  0  0  0  0  0
   25.1494  -21.5296  -13.8137 C   0  0  0  0  0  0  0  0  0  0  0  0
   24.7549  -20.6110  -14.6047 O   0  0  0  0  0  0  0  0  0  0  0  0
   26.4804  -25.9804  -18.5734 O   0  0  0  0  0  0  0  0  0  0  0  0
   25.5573  -25.5292  -17.6389 C   0  0  0  0  0  0  0  0  0  0  0  0
   24.4141  -24.8809  -18.0048 C   0  0  0  0  0  0  0  0  0  0  0  0
   23.5296  -24.4534  -17.0280 C   0  0  0  0  0  0  0  0  0  0  0  0
   23.7641  -24.6610  -15.6855 C   0  0  0  0  0  0  0  0  0  0  0  0
   22.8224  -24.2061  -14.6328 C   0  0  0  0  0  0  0  0  0  0  0  0
   22.9971  -22.7088  -14.3547 C   0  0  2  0  0  0  0  0  0  0  0  0
   24.2072  -22.5749  -13.5947 N   0  0  0  0  0  0  0  0  0  0  0  0
   21.7903  -22.2500  -13.6253 C   0  0  0  0  0  0  0  0  0  0  0  0
   21.6629  -22.3031  -12.3771 O   0  0  0  0  0  0  0  0  0  0  0  0
   24.9278  -25.3188  -15.3506 C   0  0  0  0  0  0  0  0  0  0  0  0
   25.8182  -25.7500  -16.3179 C   0  0  0  0  0  0  0  0  0  0  0  0
   19.8100  -19.0350  -15.3500 C   0  0  0  0  0  0  0  0  0  0  0  0
   19.5716  -19.5503  -13.9549 C   0  0  1  0  0  0  0  0  0  0  0  0
   18.4823  -18.9400  -13.3384 O   0  0  0  0  0  0  0  0  0  0  0  0
   19.5866  -21.0253  -13.8343 C   0  0  2  0  0  0  0  0  0  0  0  0
   20.7096  -21.7201  -14.3466 N   0  0  0  0  0  0  0  0  0  0  0  0
   18.3069  -21.5587  -14.3857 C   0  0  0  0  0  0  0  0  0  0  0  0
   17.0876  -21.1745  -13.8476 O   0  0  0  0  0  0  0  0  0  0  0  0
   18.3028  -22.3628  -15.3434 O   0  0  0  0  0  0  0  0  0  0  0  0
  2  1  1  0
  3  2  1  0
  4  3  1  0
  5  4  1  0
  5  6  1  6
  7  8  2  0
  7  5  1  0
  9 10  1  0
 10 20  2  0
 11 12  2  0
 11 10  1  0
 12 13  1  0
 13 14  1  0
 13 19  2  0
 15 14  1  1
 15 16  1  0
 16  7  1  0
 17 15  1  0
 18 17  2  0
 20 19  1  0
 22 24  1  0
 22 21  1  6
 23 22  1  0
 24 25  1  6
 25 17  1  0
 26 27  1  0
 26 24  1  0
 28 26  2  0
M  END
$$$$
