RTE.pdb
     RDKit          3D

 28 27  0  0  1  0  0  0  0  0999 V2000
   23.3462  -20.1082   -9.9409 N   0  0  0  0  0  0  0  0  0  0  0  0
   24.0066  -20.7024   -8.8198 C   0  0  0  0  0  0  0  0  0  0  0  0
   23.3040  -20.9756   -7.7930 N   0  0  0  0  0  0  0  0  0  0  0  0
   25.3993  -20.9890   -8.8251 N   0  0  0  0  0  0  0  0  0  0  0  0
   25.9727  -21.6651   -9.9786 C   0  0  0  0  0  0  0  0  0  0  0  0
   26.2995  -20.6567  -11.0211 C   0  0  0  0  0  0  0  0  0  0  0  0
   26.8592  -21.2245  -12.2935 C   0  0  0  0  0  0  0  0  0  0  0  0
   25.9025  -21.2050  -13.4566 C   0  0  2  0  0  0  0  0  0  0  0  0
   25.9954  -22.4146  -14.1982 N   0  0  0  0  0  0  0  0  0  0  0  0
   26.1287  -19.9774  -14.2767 C   0  0  0  0  0  0  0  0  0  0  0  0
   27.2588  -19.4451  -14.2146 O   0  0  0  0  0  0  0  0  0  0  0  0
   23.6427  -21.3636   -6.9019 C   0  0  0  0  0  0  0  0  0  0  0  0
   27.7027  -18.4425  -15.6358 C   0  0  2  0  0  0  0  0  0  0  0  0
   26.5537  -18.3440  -16.6513 O   0  0  0  0  0  0  0  0  0  0  0  0
   26.8104  -19.2953  -17.5925 C   0  0  2  0  0  0  0  0  0  0  0  0
   25.2731  -18.3123  -15.9901 N   0  0  0  0  0  0  0  0  0  0  0  0
   25.1145  -19.4348  -15.0901 C   0  0  0  0  0  0  0  0  0  0  0  0
   24.0357  -18.0889  -16.7067 O   0  0  0  0  0  0  0  0  0  0  0  0
   24.0147  -18.2188  -17.9539 N   0  0  0  0  0  0  0  0  0  0  0  0
   22.7957  -17.7254  -16.1346 C   0  0  1  0  0  0  0  0  0  0  0  0
   21.5510  -18.4282  -16.2333 C   0  0  0  0  0  0  0  0  0  0  0  0
   21.6243  -19.8905  -16.2489 C   0  0  0  0  0  0  0  0  0  0  0  0
   20.3929  -20.6931  -16.3770 C   0  0  0  0  0  0  0  0  0  0  0  0
   20.4485  -22.1325  -16.3442 O   0  0  0  0  0  0  0  0  0  0  0  0
   21.0954  -22.6768  -15.3731 C   0  0  0  0  0  0  0  0  0  0  0  0
   20.4892  -17.8030  -15.4256 O   0  0  0  0  0  0  0  0  0  0  0  0
   20.7836  -17.0607  -14.4552 O   0  0  0  0  0  0  0  0  0  0  0  0
   19.9055  -23.0532  -17.2092 O   0  0  0  0  0  0  0  0  0  0  0  0
  2  1  1  0
  2  3  2  0
  4  2  1  0
  5  4  1  0
  6  5  1  0
  7  6  1  0
  8 10  1  0
  8  7  1  0
  8  9  1  6
 10 11  2  0
 13 12  1  6
 13 15  1  0
 14 13  1  0
 15 16  1  6
 16 10  1  0
 17 15  1  0
 18 17  2  0
 19 17  1  0
 20 19  1  0
 20 25  1  0
 20 21  1  6
 22 21  1  0
 23 22  1  0
 24 23  2  0
 25 28  1  0
 26 25  2  0
 27 23  1  0
M  END
$$$$
