RTE.pdb
     RDKit          3D

 28 27  0  0  1  0  0  0  0  0999 V2000
   14.8332  -14.5494  -19.5199 N   0  0  0  0  0  0  0  0  0  0  0  0
   15.6778  -15.0377  -18.4738 C   0  0  0  0  0  0  0  0  0  0  0  0
   15.5444  -16.2547  -18.1221 N   0  0  0  0  0  0  0  0  0  0  0  0
   16.6421  -14.2134  -17.8314 N   0  0  0  0  0  0  0  0  0  0  0  0
   17.0192  -12.9555  -18.4572 C   0  0  0  0  0  0  0  0  0  0  0  0
   17.3112  -11.9534  -17.3983 C   0  0  0  0  0  0  0  0  0  0  0  0
   18.5062  -11.0843  -17.6655 C   0  0  0  0  0  0  0  0  0  0  0  0
   19.8161  -11.6713  -17.2094 C   0  0  2  0  0  0  0  0  0  0  0  0
   19.6391  -13.0185  -16.7904 N   0  0  0  0  0  0  0  0  0  0  0  0
   20.4285  -10.7928  -16.1683 C   0  0  0  0  0  0  0  0  0  0  0  0
   19.8905  -10.7788  -15.0393 O   0  0  0  0  0  0  0  0  0  0  0  0
   16.0828  -16.7473  -17.3962 C   0  0  0  0  0  0  0  0  0  0  0  0
   23.5410  -11.0606  -14.6689 C   0  0  2  0  0  0  0  0  0  0  0  0
   23.5655   -9.6169  -15.1946 O   0  0  0  0  0  0  0  0  0  0  0  0
   24.5261   -9.5921  -16.1607 C   0  0  2  0  0  0  0  0  0  0  0  0
   22.2355   -9.1453  -15.4892 N   0  0  0  0  0  0  0  0  0  0  0  0
   21.5667  -10.0083  -16.4396 C   0  0  0  0  0  0  0  0  0  0  0  0
   21.9569   -7.7625  -15.8128 O   0  0  0  0  0  0  0  0  0  0  0  0
   21.4081   -7.4848  -16.9057 N   0  0  0  0  0  0  0  0  0  0  0  0
   22.2462   -6.6424  -15.0012 C   0  0  1  0  0  0  0  0  0  0  0  0
   21.9060   -5.2734  -15.2519 C   0  0  0  0  0  0  0  0  0  0  0  0
   20.5879   -5.0232  -15.8386 C   0  0  0  0  0  0  0  0  0  0  0  0
   20.0875   -3.6421  -15.9754 C   0  0  0  0  0  0  0  0  0  0  0  0
   18.7450   -3.3901  -16.4339 O   0  0  0  0  0  0  0  0  0  0  0  0
   18.2666   -4.1848  -17.3268 C   0  0  0  0  0  0  0  0  0  0  0  0
   22.3582   -4.3773  -14.1734 O   0  0  0  0  0  0  0  0  0  0  0  0
   22.7165   -4.8485  -13.0649 O   0  0  0  0  0  0  0  0  0  0  0  0
   17.8592   -2.4063  -16.0621 O   0  0  0  0  0  0  0  0  0  0  0  0
  2  1  1  0
  2  3  2  0
  4  2  1  0
  5  4  1  0
  6  5  1  0
  7  6  1  0
  8 10  1  0
  8  7  1  0
  8  9  1  1
 10 11  2  0
 13 12  1  1
 13 15  1  0
 14 13  1  0
 15 16  1  1
 16 10  1  0
 17 15  1  0
 18 17  2  0
 19 17  1  0
 20 19  1  0
 20 25  1  0
 20 21  1  6
 22 21  1  0
 23 22  1  0
 24 23  2  0
 25 28  1  0
 26 25  2  0
 27 23  1  0
M  END
$$$$
