RTE.pdb
     RDKit          3D

 28 27  0  0  1  0  0  0  0  0999 V2000
   27.0584  -18.0680   -6.8554 N   0  0  0  0  0  0  0  0  0  0  0  0
   27.4429  -19.3718   -6.4100 C   0  0  0  0  0  0  0  0  0  0  0  0
   27.7105  -19.5221   -5.1737 N   0  0  0  0  0  0  0  0  0  0  0  0
   27.5312  -20.4800   -7.2966 N   0  0  0  0  0  0  0  0  0  0  0  0
   27.2423  -20.2752   -8.7076 C   0  0  0  0  0  0  0  0  0  0  0  0
   25.7796  -20.0725   -8.8804 C   0  0  0  0  0  0  0  0  0  0  0  0
   25.1731  -20.8135  -10.0372 C   0  0  0  0  0  0  0  0  0  0  0  0
   23.7058  -20.5457  -10.2462 C   0  0  2  0  0  0  0  0  0  0  0  0
   22.9328  -21.2026   -9.2499 N   0  0  0  0  0  0  0  0  0  0  0  0
   23.3200  -20.9076  -11.6430 C   0  0  0  0  0  0  0  0  0  0  0  0
   23.2313  -22.1245  -11.9178 O   0  0  0  0  0  0  0  0  0  0  0  0
   27.9361  -20.4058   -4.6967 C   0  0  0  0  0  0  0  0  0  0  0  0
   20.2623  -20.4121  -13.3089 C   0  0  2  0  0  0  0  0  0  0  0  0
   21.2851  -19.6781  -14.1900 O   0  0  0  0  0  0  0  0  0  0  0  0
   21.0224  -18.3503  -14.0325 C   0  0  2  0  0  0  0  0  0  0  0  0
   22.6188  -20.1793  -13.9708 N   0  0  0  0  0  0  0  0  0  0  0  0
   23.0645  -19.9230  -12.6177 C   0  0  0  0  0  0  0  0  0  0  0  0
   23.7043  -19.9246  -14.8935 O   0  0  0  0  0  0  0  0  0  0  0  0
   24.7206  -19.3085  -14.4930 N   0  0  0  0  0  0  0  0  0  0  0  0
   23.7498  -20.3086  -16.2527 C   0  0  1  0  0  0  0  0  0  0  0  0
   24.8457  -20.1613  -17.1637 C   0  0  0  0  0  0  0  0  0  0  0  0
   26.1774  -20.4754  -16.6421 C   0  0  0  0  0  0  0  0  0  0  0  0
   26.5695  -21.8781  -16.4071 C   0  0  0  0  0  0  0  0  0  0  0  0
   27.8911  -22.2009  -15.9327 O   0  0  0  0  0  0  0  0  0  0  0  0
   28.2513  -21.7020  -14.8018 C   0  0  0  0  0  0  0  0  0  0  0  0
   24.5127  -20.6284  -18.5208 O   0  0  0  0  0  0  0  0  0  0  0  0
   23.4062  -21.1789  -18.7490 O   0  0  0  0  0  0  0  0  0  0  0  0
   28.8657  -22.9815  -16.5088 O   0  0  0  0  0  0  0  0  0  0  0  0
  2  1  1  0
  2  3  2  0
  4  2  1  0
  5  4  1  0
  6  5  1  0
  7  6  1  0
  8 10  1  0
  8  7  1  0
  8  9  1  1
 10 11  2  0
 13 12  1  6
 13 15  1  0
 14 13  1  0
 15 16  1  6
 16 10  1  0
 17 15  1  0
 18 17  2  0
 19 17  1  0
 20 19  1  0
 20 25  1  0
 20 21  1  6
 22 21  1  0
 23 22  1  0
 24 23  2  0
 25 28  1  0
 26 25  2  0
 27 23  1  0
M  END
$$$$
