RTE.pdb
     RDKit          3D

 28 27  0  0  1  0  0  0  0  0999 V2000
   13.5053  -10.1557  -11.3528 N   0  0  0  0  0  0  0  0  0  0  0  0
   12.8865  -10.7340  -12.5056 C   0  0  0  0  0  0  0  0  0  0  0  0
   11.6138  -10.7348  -12.5590 N   0  0  0  0  0  0  0  0  0  0  0  0
   13.6432  -11.2960  -13.5702 N   0  0  0  0  0  0  0  0  0  0  0  0
   14.7142  -10.5093  -14.1621 C   0  0  0  0  0  0  0  0  0  0  0  0
   15.3391  -11.2886  -15.2634 C   0  0  0  0  0  0  0  0  0  0  0  0
   16.4978  -10.6107  -15.9363 C   0  0  0  0  0  0  0  0  0  0  0  0
   17.7650  -11.4243  -15.9609 C   0  0  2  0  0  0  0  0  0  0  0  0
   17.5084  -12.7584  -15.5412 N   0  0  0  0  0  0  0  0  0  0  0  0
   18.8235  -10.7355  -15.1635 C   0  0  0  0  0  0  0  0  0  0  0  0
   18.7967  -10.8854  -13.9221 O   0  0  0  0  0  0  0  0  0  0  0  0
   11.0294  -11.1692  -13.2863 C   0  0  0  0  0  0  0  0  0  0  0  0
   22.0340  -11.4672  -14.8815 C   0  0  2  0  0  0  0  0  0  0  0  0
   22.1528   -9.9915  -15.2930 O   0  0  0  0  0  0  0  0  0  0  0  0
   22.7398   -9.9974  -16.5228 C   0  0  2  0  0  0  0  0  0  0  0  0
   20.9090   -9.2911  -15.0921 N   0  0  0  0  0  0  0  0  0  0  0  0
   19.8159   -9.9467  -15.7781 C   0  0  0  0  0  0  0  0  0  0  0  0
   20.7911   -7.8578  -15.2544 O   0  0  0  0  0  0  0  0  0  0  0  0
   20.1215   -7.3998  -16.2109 N   0  0  0  0  0  0  0  0  0  0  0  0
   21.3703   -6.8745  -14.4209 C   0  0  1  0  0  0  0  0  0  0  0  0
   21.2555   -5.4515  -14.5423 C   0  0  0  0  0  0  0  0  0  0  0  0
   19.9245   -4.9262  -14.8528 C   0  0  0  0  0  0  0  0  0  0  0  0
   18.8114   -5.1199  -13.9040 C   0  0  0  0  0  0  0  0  0  0  0  0
   17.5255   -4.5177  -14.1488 O   0  0  0  0  0  0  0  0  0  0  0  0
   17.4174   -3.7535  -15.1793 C   0  0  0  0  0  0  0  0  0  0  0  0
   22.0571   -4.7369  -13.5336 O   0  0  0  0  0  0  0  0  0  0  0  0
   22.2565   -3.5007  -13.6405 O   0  0  0  0  0  0  0  0  0  0  0  0
   16.3534   -4.6285  -13.4383 O   0  0  0  0  0  0  0  0  0  0  0  0
  2  1  1  0
  2  3  2  0
  4  2  1  0
  5  4  1  0
  6  5  1  0
  7  6  1  0
  8 10  1  0
  8  7  1  0
  8  9  1  1
 10 11  2  0
 13 12  1  1
 13 15  1  0
 14 13  1  0
 15 16  1  1
 16 10  1  0
 17 15  1  0
 18 17  2  0
 19 17  1  0
 20 19  1  0
 20 25  1  0
 20 21  1  6
 22 21  1  0
 23 22  1  0
 24 23  2  0
 25 28  1  0
 26 25  2  0
 27 23  1  0
M  END
$$$$
