RTE.pdb
     RDKit          3D

 28 27  0  0  1  0  0  0  0  0999 V2000
   26.5327  -24.1451  -18.0296 N   0  0  0  0  0  0  0  0  0  0  0  0
   27.1426  -24.6122  -16.8230 C   0  0  0  0  0  0  0  0  0  0  0  0
   28.3580  -24.9896  -16.8793 N   0  0  0  0  0  0  0  0  0  0  0  0
   26.4386  -24.6638  -15.5887 N   0  0  0  0  0  0  0  0  0  0  0  0
   25.0002  -24.4460  -15.5911 C   0  0  0  0  0  0  0  0  0  0  0  0
   24.7234  -23.0272  -15.9386 C   0  0  0  0  0  0  0  0  0  0  0  0
   23.4660  -22.4655  -15.3398 C   0  0  0  0  0  0  0  0  0  0  0  0
   23.6109  -21.9982  -13.9154 C   0  0  2  0  0  0  0  0  0  0  0  0
   24.5730  -22.7877  -13.2277 N   0  0  0  0  0  0  0  0  0  0  0  0
   22.2720  -21.9699  -13.2541 C   0  0  0  0  0  0  0  0  0  0  0  0
   21.9430  -22.9703  -12.5793 O   0  0  0  0  0  0  0  0  0  0  0  0
   28.9193  -25.3720  -16.1060 C   0  0  0  0  0  0  0  0  0  0  0  0
   21.2845  -20.0147  -10.6366 C   0  0  2  0  0  0  0  0  0  0  0  0
   20.2097  -19.6871  -11.6848 O   0  0  0  0  0  0  0  0  0  0  0  0
   20.4234  -18.3888  -12.0391 C   0  0  2  0  0  0  0  0  0  0  0  0
   20.1408  -20.7086  -12.6995 N   0  0  0  0  0  0  0  0  0  0  0  0
   21.4085  -20.8640  -13.3807 C   0  0  0  0  0  0  0  0  0  0  0  0
   19.0632  -20.7725  -13.6636 O   0  0  0  0  0  0  0  0  0  0  0  0
   19.2904  -20.4764  -14.8610 N   0  0  0  0  0  0  0  0  0  0  0  0
   17.7271  -21.1469  -13.3961 C   0  0  1  0  0  0  0  0  0  0  0  0
   16.6381  -21.2137  -14.3249 C   0  0  0  0  0  0  0  0  0  0  0  0
   15.6350  -22.2527  -14.0838 C   0  0  0  0  0  0  0  0  0  0  0  0
   15.9641  -23.4202  -13.2440 C   0  0  0  0  0  0  0  0  0  0  0  0
   15.0016  -24.4731  -13.0414 O   0  0  0  0  0  0  0  0  0  0  0  0
   13.8376  -24.3193  -13.5697 C   0  0  0  0  0  0  0  0  0  0  0  0
   16.1607  -19.8786  -14.7251 O   0  0  0  0  0  0  0  0  0  0  0  0
   16.4151  -18.8739  -14.0143 O   0  0  0  0  0  0  0  0  0  0  0  0
   15.1254  -25.6568  -12.3527 O   0  0  0  0  0  0  0  0  0  0  0  0
  2  1  1  0
  2  3  2  0
  4  2  1  0
  5  4  1  0
  6  5  1  0
  7  6  1  0
  8 10  1  0
  8  7  1  0
  8  9  1  1
 10 11  2  0
 13 12  1  1
 13 15  1  0
 14 13  1  0
 15 16  1  1
 16 10  1  0
 17 15  1  0
 18 17  2  0
 19 17  1  0
 20 19  1  0
 20 25  1  0
 20 21  1  6
 22 21  1  0
 23 22  1  0
 24 23  2  0
 25 28  1  0
 26 25  2  0
 27 23  1  0
M  END
$$$$
