RTE.pdb
     RDKit          3D

 28 27  0  0  1  0  0  0  0  0999 V2000
   23.5022  -29.3105  -17.1695 N   0  0  0  0  0  0  0  0  0  0  0  0
   24.4630  -30.0947  -17.8823 C   0  0  0  0  0  0  0  0  0  0  0  0
   24.4569  -31.3548  -17.6961 N   0  0  0  0  0  0  0  0  0  0  0  0
   25.4047  -29.5123  -18.7745 N   0  0  0  0  0  0  0  0  0  0  0  0
   25.4645  -28.0629  -18.8844 C   0  0  0  0  0  0  0  0  0  0  0  0
   26.4935  -27.5456  -17.9441 C   0  0  0  0  0  0  0  0  0  0  0  0
   27.8553  -27.3496  -18.5459 C   0  0  0  0  0  0  0  0  0  0  0  0
   28.9186  -26.9450  -17.5589 C   0  0  2  0  0  0  0  0  0  0  0  0
   29.0318  -27.9135  -16.5240 N   0  0  0  0  0  0  0  0  0  0  0  0
   28.6477  -25.5626  -17.0625 C   0  0  0  0  0  0  0  0  0  0  0  0
   29.4394  -25.0901  -16.2173 O   0  0  0  0  0  0  0  0  0  0  0  0
   25.1067  -32.0398  -18.1058 C   0  0  0  0  0  0  0  0  0  0  0  0
   29.5877  -23.3774  -16.3566 C   0  0  2  0  0  0  0  0  0  0  0  0
   28.4892  -22.6534  -17.1505 O   0  0  0  0  0  0  0  0  0  0  0  0
   29.0786  -22.2470  -18.3100 C   0  0  2  0  0  0  0  0  0  0  0  0
   27.2763  -23.4313  -17.1933 N   0  0  0  0  0  0  0  0  0  0  0  0
   27.5464  -24.8145  -17.5232 C   0  0  0  0  0  0  0  0  0  0  0  0
   26.0949  -22.9874  -17.9017 O   0  0  0  0  0  0  0  0  0  0  0  0
   25.8758  -23.4137  -19.0606 N   0  0  0  0  0  0  0  0  0  0  0  0
   25.1189  -22.0895  -17.4134 C   0  0  1  0  0  0  0  0  0  0  0  0
   23.9590  -21.6049  -18.1009 C   0  0  0  0  0  0  0  0  0  0  0  0
   22.6661  -22.1224  -17.6486 C   0  0  0  0  0  0  0  0  0  0  0  0
   22.2127  -21.8786  -16.2660 C   0  0  0  0  0  0  0  0  0  0  0  0
   20.9703  -22.4339  -15.7925 O   0  0  0  0  0  0  0  0  0  0  0  0
   21.0369  -23.3297  -14.8702 C   0  0  0  0  0  0  0  0  0  0  0  0
   24.0520  -20.1678  -18.4120 O   0  0  0  0  0  0  0  0  0  0  0  0
   24.9042  -19.4470  -17.8344 O   0  0  0  0  0  0  0  0  0  0  0  0
   19.6798  -22.1551  -16.1767 O   0  0  0  0  0  0  0  0  0  0  0  0
  2  1  1  0
  2  3  2  0
  4  2  1  0
  5  4  1  0
  6  5  1  0
  7  6  1  0
  8 10  1  0
  8  7  1  0
  8  9  1  1
 10 11  2  0
 13 12  1  1
 13 15  1  0
 14 13  1  0
 15 16  1  1
 16 10  1  0
 17 15  1  0
 18 17  2  0
 19 17  1  0
 20 19  1  0
 20 25  1  0
 20 21  1  6
 22 21  1  0
 23 22  1  0
 24 23  2  0
 25 28  1  0
 26 25  2  0
 27 23  1  0
M  END
$$$$
