RTE.pdb
     RDKit          3D

 28 27  0  0  1  0  0  0  0  0999 V2000
   26.4622  -20.6501   -9.4222 N   0  0  0  0  0  0  0  0  0  0  0  0
   25.3646  -20.5376  -10.3325 C   0  0  0  0  0  0  0  0  0  0  0  0
   24.2132  -20.2906   -9.8468 N   0  0  0  0  0  0  0  0  0  0  0  0
   25.5258  -20.6919  -11.7368 N   0  0  0  0  0  0  0  0  0  0  0  0
   26.8518  -20.9741  -12.2646 C   0  0  0  0  0  0  0  0  0  0  0  0
   27.1961  -19.9517  -13.2877 C   0  0  0  0  0  0  0  0  0  0  0  0
   26.7259  -20.2684  -14.6782 C   0  0  0  0  0  0  0  0  0  0  0  0
   26.8655  -21.7169  -15.0666 C   0  0  2  0  0  0  0  0  0  0  0  0
   27.9365  -21.8846  -15.9868 N   0  0  0  0  0  0  0  0  0  0  0  0
   25.5566  -22.2348  -15.5657 C   0  0  0  0  0  0  0  0  0  0  0  0
   25.2529  -21.9812  -16.7522 O   0  0  0  0  0  0  0  0  0  0  0  0
   23.3246  -20.2451  -10.3644 C   0  0  0  0  0  0  0  0  0  0  0  0
   24.6854  -25.6859  -15.4630 C   0  0  2  0  0  0  0  0  0  0  0  0
   23.4326  -25.0013  -14.8944 O   0  0  0  0  0  0  0  0  0  0  0  0
   23.3130  -25.4545  -13.6149 C   0  0  2  0  0  0  0  0  0  0  0  0
   23.4462  -23.5842  -15.1582 N   0  0  0  0  0  0  0  0  0  0  0  0
   24.6930  -22.9801  -14.7389 C   0  0  0  0  0  0  0  0  0  0  0  0
   22.3443  -22.7178  -14.7980 O   0  0  0  0  0  0  0  0  0  0  0  0
   22.5842  -21.5823  -14.3226 N   0  0  0  0  0  0  0  0  0  0  0  0
   20.9700  -23.0203  -14.9274 C   0  0  1  0  0  0  0  0  0  0  0  0
   19.8581  -22.1653  -14.6349 C   0  0  0  0  0  0  0  0  0  0  0  0
   19.9965  -20.7581  -15.0153 C   0  0  0  0  0  0  0  0  0  0  0  0
   18.8675  -19.8262  -14.8318 C   0  0  0  0  0  0  0  0  0  0  0  0
   19.0787  -18.5219  -14.2570 O   0  0  0  0  0  0  0  0  0  0  0  0
   18.7238  -17.5025  -14.9588 C   0  0  0  0  0  0  0  0  0  0  0  0
   18.5642  -22.8214  -14.8916 O   0  0  0  0  0  0  0  0  0  0  0  0
   17.4986  -22.3147  -14.4592 O   0  0  0  0  0  0  0  0  0  0  0  0
   19.6156  -18.1740  -13.0399 O   0  0  0  0  0  0  0  0  0  0  0  0
  2  1  1  0
  2  3  2  0
  4  2  1  0
  5  4  1  0
  6  5  1  0
  7  6  1  0
  8 10  1  0
  8  7  1  0
  8  9  1  6
 10 11  2  0
 13 12  1  6
 13 15  1  0
 14 13  1  0
 15 16  1  6
 16 10  1  0
 17 15  1  0
 18 17  2  0
 19 17  1  0
 20 19  1  0
 20 25  1  0
 20 21  1  1
 22 21  1  0
 23 22  1  0
 24 23  2  0
 25 28  1  0
 26 25  2  0
 27 23  1  0
M  END
$$$$
