QAF.pdb
     RDKit          3D

 26 26  0  0  1  0  0  0  0  0999 V2000
   27.9575  -22.0339  -15.0852 N   0  0  0  0  0  0  0  0  0  0  0  0
   28.9487  -21.3827  -15.8704 C   0  0  0  0  0  0  0  0  0  0  0  0
   29.3972  -22.0061  -16.8643 O   0  0  0  0  0  0  0  0  0  0  0  0
   29.4032  -20.0240  -15.5015 C   0  0  0  0  0  0  0  0  0  0  0  0
   28.7248  -19.4526  -14.3393 C   0  0  0  0  0  0  0  0  0  0  0  0
   27.3045  -19.1425  -14.3287 C   0  0  2  0  0  0  0  0  0  0  0  0
   27.1590  -17.8305  -15.0106 N   0  0  0  0  0  0  0  0  0  0  0  0
   26.5011  -19.1100  -13.1456 C   0  0  0  0  0  0  0  0  0  0  0  0
   26.3469  -18.1503  -12.3449 O   0  0  0  0  0  0  0  0  0  0  0  0
   23.8500  -21.3361  -11.6261 C   0  0  0  0  0  0  0  0  0  0  0  0
   24.9996  -20.3568  -11.5317 C   0  0  2  0  0  0  0  0  0  0  0  0
   25.7503  -20.2841  -12.7653 N   0  0  0  0  0  0  0  0  0  0  0  0
   25.8670  -20.7856  -10.4231 C   0  0  0  0  0  0  0  0  0  0  0  0
   26.9813  -21.3179  -10.6780 O   0  0  0  0  0  0  0  0  0  0  0  0
   25.5161  -20.6320   -9.0691 N   0  0  0  0  0  0  0  0  0  0  0  0
   26.3865  -20.9695   -7.9596 C   0  0  1  0  0  0  0  0  0  0  0  0
   27.4017  -19.8612   -7.8600 C   0  0  0  0  0  0  0  0  0  0  0  0
   28.1930  -19.8628   -6.6293 C   0  0  0  0  0  0  0  0  0  0  0  0
   29.2613  -20.6930   -6.4290 C   0  0  0  0  0  0  0  0  0  0  0  0
   29.9777  -20.6566   -5.2550 C   0  0  0  0  0  0  0  0  0  0  0  0
   29.6584  -19.7857   -4.2235 C   0  0  0  0  0  0  0  0  0  0  0  0
   28.5825  -18.9489   -4.4243 C   0  0  0  0  0  0  0  0  0  0  0  0
   27.8566  -18.9881   -5.6180 C   0  0  0  0  0  0  0  0  0  0  0  0
   25.5462  -21.1118   -6.7515 C   0  0  0  0  0  0  0  0  0  0  0  0
   24.4064  -20.6064   -6.7262 O   0  0  0  0  0  0  0  0  0  0  0  0
   26.0061  -21.8004   -5.6419 O   0  0  0  0  0  0  0  0  0  0  0  0
  2  3  2  0
  2  1  1  0
  4  2  1  0
  5  4  1  0
  6  5  1  0
  6  7  1  1
  8  6  1  0
  9  8  2  0
 11 10  1  6
 11 12  1  0
 12  8  1  0
 13 11  1  0
 14 13  2  0
 15 13  1  0
 16 17  1  1
 16 15  1  0
 17 18  1  0
 18 19  2  0
 19 20  1  0
 21 20  2  0
 22 21  1  0
 23 18  1  0
 23 22  2  0
 24 26  1  0
 24 16  1  0
 25 24  2  0
M  END
$$$$
