QAF.pdb
     RDKit          3D

 26 26  0  0  1  0  0  0  0  0999 V2000
   20.8157  -22.8065  -13.9566 N   0  0  0  0  0  0  0  0  0  0  0  0
   20.4374  -21.6531  -13.2152 C   0  0  0  0  0  0  0  0  0  0  0  0
   19.3246  -21.6820  -12.6334 O   0  0  0  0  0  0  0  0  0  0  0  0
   21.3477  -20.4885  -13.1520 C   0  0  0  0  0  0  0  0  0  0  0  0
   22.6100  -20.6663  -13.8678 C   0  0  0  0  0  0  0  0  0  0  0  0
   23.0276  -19.7991  -14.9574 C   0  0  2  0  0  0  0  0  0  0  0  0
   21.8089  -19.5228  -15.7611 N   0  0  0  0  0  0  0  0  0  0  0  0
   24.0876  -20.1098  -15.8664 C   0  0  0  0  0  0  0  0  0  0  0  0
   25.2624  -20.4671  -15.5872 O   0  0  0  0  0  0  0  0  0  0  0  0
   24.1751  -20.9415  -19.5402 C   0  0  0  0  0  0  0  0  0  0  0  0
   24.8267  -20.4563  -18.2638 C   0  0  2  0  0  0  0  0  0  0  0  0
   23.8503  -20.0243  -17.2888 N   0  0  0  0  0  0  0  0  0  0  0  0
   25.7331  -19.3508  -18.6125 C   0  0  0  0  0  0  0  0  0  0  0  0
   25.2539  -18.2120  -18.8640 O   0  0  0  0  0  0  0  0  0  0  0  0
   27.1310  -19.4962  -18.6824 N   0  0  0  0  0  0  0  0  0  0  0  0
   28.0421  -18.4320  -19.0565 C   0  0  1  0  0  0  0  0  0  0  0  0
   28.8759  -18.1347  -17.8378 C   0  0  0  0  0  0  0  0  0  0  0  0
   28.1654  -17.4421  -16.7623 C   0  0  0  0  0  0  0  0  0  0  0  0
   27.7607  -16.1389  -16.8526 C   0  0  0  0  0  0  0  0  0  0  0  0
   27.0925  -15.5301  -15.8153 C   0  0  0  0  0  0  0  0  0  0  0  0
   26.7971  -16.1981  -14.6360 C   0  0  0  0  0  0  0  0  0  0  0  0
   27.2044  -17.5110  -14.5441 C   0  0  0  0  0  0  0  0  0  0  0  0
   27.8830  -18.1269  -15.5995 C   0  0  0  0  0  0  0  0  0  0  0  0
   28.8336  -18.8992  -20.2146 C   0  0  0  0  0  0  0  0  0  0  0  0
   28.7275  -20.0798  -20.6020 O   0  0  0  0  0  0  0  0  0  0  0  0
   29.6950  -18.0434  -20.8796 O   0  0  0  0  0  0  0  0  0  0  0  0
  2  3  2  0
  2  1  1  0
  4  2  1  0
  5  4  1  0
  6  5  1  0
  6  7  1  6
  8  6  1  0
  9  8  2  0
 11 10  1  6
 11 12  1  0
 12  8  1  0
 13 11  1  0
 14 13  2  0
 15 13  1  0
 16 17  1  1
 16 15  1  0
 17 18  1  0
 18 19  2  0
 19 20  1  0
 21 20  2  0
 22 21  1  0
 23 18  1  0
 23 22  2  0
 24 26  1  0
 24 16  1  0
 25 24  2  0
M  END
$$$$
