QAF.pdb
     RDKit          3D

 26 26  0  0  1  0  0  0  0  0999 V2000
   30.2653  -16.1750  -16.7035 N   0  0  0  0  0  0  0  0  0  0  0  0
   29.1911  -17.0635  -16.9857 C   0  0  0  0  0  0  0  0  0  0  0  0
   28.3390  -16.6874  -17.8284 O   0  0  0  0  0  0  0  0  0  0  0  0
   29.1182  -18.3710  -16.2972 C   0  0  0  0  0  0  0  0  0  0  0  0
   28.4647  -18.3321  -14.9899 C   0  0  0  0  0  0  0  0  0  0  0  0
   27.5470  -19.3642  -14.5360 C   0  0  2  0  0  0  0  0  0  0  0  0
   26.6406  -19.6483  -15.6785 N   0  0  0  0  0  0  0  0  0  0  0  0
   26.7425  -19.2582  -13.3579 C   0  0  0  0  0  0  0  0  0  0  0  0
   26.5051  -18.2257  -12.6771 O   0  0  0  0  0  0  0  0  0  0  0  0
   24.1826  -21.4168  -11.6497 C   0  0  0  0  0  0  0  0  0  0  0  0
   25.3165  -20.4157  -11.6142 C   0  0  2  0  0  0  0  0  0  0  0  0
   26.0956  -20.4380  -12.8320 N   0  0  0  0  0  0  0  0  0  0  0  0
   26.1628  -20.7343  -10.4533 C   0  0  0  0  0  0  0  0  0  0  0  0
   27.3916  -20.9589  -10.6247 O   0  0  0  0  0  0  0  0  0  0  0  0
   25.6681  -20.8037   -9.1377 N   0  0  0  0  0  0  0  0  0  0  0  0
   26.4899  -21.0657   -7.9721 C   0  0  1  0  0  0  0  0  0  0  0  0
   27.4888  -19.9411   -7.8917 C   0  0  0  0  0  0  0  0  0  0  0  0
   28.2269  -19.8651   -6.6307 C   0  0  0  0  0  0  0  0  0  0  0  0
   29.1986  -20.7608   -6.2787 C   0  0  0  0  0  0  0  0  0  0  0  0
   29.8683  -20.6473   -5.0822 C   0  0  0  0  0  0  0  0  0  0  0  0
   29.5968  -19.6297   -4.1793 C   0  0  0  0  0  0  0  0  0  0  0  0
   28.6181  -18.7269   -4.5330 C   0  0  0  0  0  0  0  0  0  0  0  0
   27.9394  -18.8447   -5.7492 C   0  0  0  0  0  0  0  0  0  0  0  0
   25.5965  -21.1480   -6.7970 C   0  0  0  0  0  0  0  0  0  0  0  0
   26.0647  -21.4553   -5.6828 O   0  0  0  0  0  0  0  0  0  0  0  0
   24.2416  -20.8883   -6.9136 O   0  0  0  0  0  0  0  0  0  0  0  0
  2  3  2  0
  2  1  1  0
  4  2  1  0
  5  4  1  0
  6  5  1  0
  6  7  1  6
  8  6  1  0
  9  8  2  0
 11 10  1  6
 11 12  1  0
 12  8  1  0
 13 11  1  0
 14 13  2  0
 15 13  1  0
 16 17  1  1
 16 15  1  0
 17 18  1  0
 18 19  2  0
 19 20  1  0
 21 20  2  0
 22 21  1  0
 23 18  1  0
 23 22  2  0
 24 26  1  0
 24 16  1  0
 25 24  2  0
M  END
$$$$
