QAF.pdb
     RDKit          3D

 26 26  0  0  1  0  0  0  0  0999 V2000
   19.6754  -11.1713  -20.7318 N   0  0  0  0  0  0  0  0  0  0  0  0
   18.8287  -12.0348  -19.9831 C   0  0  0  0  0  0  0  0  0  0  0  0
   17.5924  -11.9482  -20.1875 O   0  0  0  0  0  0  0  0  0  0  0  0
   19.4190  -12.9860  -19.0159 C   0  0  0  0  0  0  0  0  0  0  0  0
   20.5084  -12.4349  -18.2116 C   0  0  0  0  0  0  0  0  0  0  0  0
   20.2817  -11.6100  -17.0362 C   0  0  2  0  0  0  0  0  0  0  0  0
   18.9039  -11.9156  -16.5716 N   0  0  0  0  0  0  0  0  0  0  0  0
   20.4441  -10.1889  -17.0122 C   0  0  0  0  0  0  0  0  0  0  0  0
   21.5130   -9.5333  -17.1287 O   0  0  0  0  0  0  0  0  0  0  0  0
   18.0253   -7.2685  -17.1797 C   0  0  0  0  0  0  0  0  0  0  0  0
   19.3650   -7.9019  -16.8743 C   0  0  2  0  0  0  0  0  0  0  0  0
   19.2847   -9.3451  -16.8372 N   0  0  0  0  0  0  0  0  0  0  0  0
   19.8272   -7.3764  -15.5798 C   0  0  0  0  0  0  0  0  0  0  0  0
   19.2920   -7.7904  -14.5158 O   0  0  0  0  0  0  0  0  0  0  0  0
   20.8523   -6.4198  -15.4607 N   0  0  0  0  0  0  0  0  0  0  0  0
   21.3517   -5.9154  -14.1963 C   0  0  1  0  0  0  0  0  0  0  0  0
   21.9836   -7.0854  -13.4887 C   0  0  0  0  0  0  0  0  0  0  0  0
   23.0852   -7.7190  -14.2140 C   0  0  0  0  0  0  0  0  0  0  0  0
   23.4917   -9.0039  -13.9812 C   0  0  0  0  0  0  0  0  0  0  0  0
   24.5319   -9.5585  -14.6907 C   0  0  0  0  0  0  0  0  0  0  0  0
   25.2161   -8.8519  -15.6690 C   0  0  0  0  0  0  0  0  0  0  0  0
   24.8074   -7.5574  -15.9042 C   0  0  0  0  0  0  0  0  0  0  0  0
   23.7503   -6.9967  -15.1818 C   0  0  0  0  0  0  0  0  0  0  0  0
   22.2995   -4.8190  -14.4882 C   0  0  0  0  0  0  0  0  0  0  0  0
   22.5664   -4.5290  -15.6714 O   0  0  0  0  0  0  0  0  0  0  0  0
   22.8988   -4.1050  -13.4646 O   0  0  0  0  0  0  0  0  0  0  0  0
  2  3  2  0
  2  1  1  0
  4  2  1  0
  5  4  1  0
  6  5  1  0
  6  7  1  6
  8  6  1  0
  9  8  2  0
 11 10  1  1
 11 12  1  0
 12  8  1  0
 13 11  1  0
 14 13  2  0
 15 13  1  0
 16 17  1  6
 16 15  1  0
 17 18  1  0
 18 19  2  0
 19 20  1  0
 21 20  2  0
 22 21  1  0
 23 18  1  0
 23 22  2  0
 24 26  1  0
 24 16  1  0
 25 24  2  0
M  END
$$$$
