QAF.pdb
     RDKit          3D

 26 26  0  0  1  0  0  0  0  0999 V2000
   22.4477  -32.5538  -16.2243 N   0  0  0  0  0  0  0  0  0  0  0  0
   22.1474  -33.8268  -16.7833 C   0  0  0  0  0  0  0  0  0  0  0  0
   20.9885  -33.9977  -17.2365 O   0  0  0  0  0  0  0  0  0  0  0  0
   23.1866  -34.8793  -16.8156 C   0  0  0  0  0  0  0  0  0  0  0  0
   24.4320  -34.5223  -16.1380 C   0  0  0  0  0  0  0  0  0  0  0  0
   25.5605  -33.9193  -16.8282 C   0  0  2  0  0  0  0  0  0  0  0  0
   26.7533  -34.7255  -16.4610 N   0  0  0  0  0  0  0  0  0  0  0  0
   25.9187  -32.5385  -16.7220 C   0  0  0  0  0  0  0  0  0  0  0  0
   25.2110  -31.5349  -17.0013 O   0  0  0  0  0  0  0  0  0  0  0  0
   28.4001  -30.6582  -14.7152 C   0  0  0  0  0  0  0  0  0  0  0  0
   27.6258  -30.8100  -16.0062 C   0  0  2  0  0  0  0  0  0  0  0  0
   27.2342  -32.1814  -16.2436 N   0  0  0  0  0  0  0  0  0  0  0  0
   28.4757  -30.3179  -17.1020 C   0  0  0  0  0  0  0  0  0  0  0  0
   29.2650  -31.1136  -17.6797 O   0  0  0  0  0  0  0  0  0  0  0  0
   28.4565  -28.9840  -17.5498 N   0  0  0  0  0  0  0  0  0  0  0  0
   29.1930  -28.5017  -18.7019 C   0  0  1  0  0  0  0  0  0  0  0  0
   28.3513  -27.4191  -19.3251 C   0  0  0  0  0  0  0  0  0  0  0  0
   28.3566  -26.1461  -18.6038 C   0  0  0  0  0  0  0  0  0  0  0  0
   27.4781  -25.8542  -17.5971 C   0  0  0  0  0  0  0  0  0  0  0  0
   27.5230  -24.6434  -16.9452 C   0  0  0  0  0  0  0  0  0  0  0  0
   28.4513  -23.6652  -17.2706 C   0  0  0  0  0  0  0  0  0  0  0  0
   29.3367  -23.9583  -18.2846 C   0  0  0  0  0  0  0  0  0  0  0  0
   29.2887  -25.1892  -18.9450 C   0  0  0  0  0  0  0  0  0  0  0  0
   30.5118  -28.0277  -18.2308 C   0  0  0  0  0  0  0  0  0  0  0  0
   30.6717  -27.7333  -17.0296 O   0  0  0  0  0  0  0  0  0  0  0  0
   31.5778  -27.9046  -19.1056 O   0  0  0  0  0  0  0  0  0  0  0  0
  2  3  2  0
  2  1  1  0
  4  2  1  0
  5  4  1  0
  6  5  1  0
  6  7  1  1
  8  6  1  0
  9  8  2  0
 11 10  1  1
 11 12  1  0
 12  8  1  0
 13 11  1  0
 14 13  2  0
 15 13  1  0
 16 17  1  1
 16 15  1  0
 17 18  1  0
 18 19  2  0
 19 20  1  0
 21 20  2  0
 22 21  1  0
 23 18  1  0
 23 22  2  0
 24 26  1  0
 24 16  1  0
 25 24  2  0
M  END
$$$$
