QAF.pdb
     RDKit          3D

 26 26  0  0  1  0  0  0  0  0999 V2000
   16.7859  -13.3055  -14.5548 N   0  0  0  0  0  0  0  0  0  0  0  0
   16.5018  -12.3358  -15.5558 C   0  0  0  0  0  0  0  0  0  0  0  0
   15.5110  -11.5872  -15.3676 O   0  0  0  0  0  0  0  0  0  0  0  0
   17.3653  -12.2409  -16.7534 C   0  0  0  0  0  0  0  0  0  0  0  0
   18.5035  -11.3345  -16.6097 C   0  0  0  0  0  0  0  0  0  0  0  0
   19.4330  -11.0580  -17.6928 C   0  0  2  0  0  0  0  0  0  0  0  0
   20.3457  -12.2280  -17.7680 N   0  0  0  0  0  0  0  0  0  0  0  0
   20.2330   -9.8753  -17.7786 C   0  0  0  0  0  0  0  0  0  0  0  0
   21.4183   -9.7162  -17.3840 O   0  0  0  0  0  0  0  0  0  0  0  0
   19.7728   -6.4524  -19.3904 C   0  0  0  0  0  0  0  0  0  0  0  0
   20.3943   -7.4298  -18.4168 C   0  0  2  0  0  0  0  0  0  0  0  0
   19.6770   -8.6846  -18.3787 N   0  0  0  0  0  0  0  0  0  0  0  0
   20.4024   -6.7983  -17.0877 C   0  0  0  0  0  0  0  0  0  0  0  0
   19.4486   -7.0157  -16.2922 O   0  0  0  0  0  0  0  0  0  0  0  0
   21.4345   -5.9496  -16.6465 N   0  0  0  0  0  0  0  0  0  0  0  0
   21.4476   -5.2869  -15.3569 C   0  0  1  0  0  0  0  0  0  0  0  0
   22.7392   -5.6785  -14.6880 C   0  0  0  0  0  0  0  0  0  0  0  0
   22.8207   -7.0829  -14.2857 C   0  0  0  0  0  0  0  0  0  0  0  0
   22.0987   -7.6060  -13.2486 C   0  0  0  0  0  0  0  0  0  0  0  0
   22.2063   -8.9347  -12.9082 C   0  0  0  0  0  0  0  0  0  0  0  0
   23.0435   -9.8049  -13.5911 C   0  0  0  0  0  0  0  0  0  0  0  0
   23.7711   -9.2790  -14.6360 C   0  0  0  0  0  0  0  0  0  0  0  0
   23.6597   -7.9287  -14.9795 C   0  0  0  0  0  0  0  0  0  0  0  0
   21.3214   -3.8329  -15.5931 C   0  0  0  0  0  0  0  0  0  0  0  0
   21.3041   -3.3938  -16.7602 O   0  0  0  0  0  0  0  0  0  0  0  0
   21.2215   -2.9461  -14.5347 O   0  0  0  0  0  0  0  0  0  0  0  0
  2  3  2  0
  2  1  1  0
  4  2  1  0
  5  4  1  0
  6  5  1  0
  6  7  1  1
  8  6  1  0
  9  8  2  0
 11 10  1  6
 11 12  1  0
 12  8  1  0
 13 11  1  0
 14 13  2  0
 15 13  1  0
 16 17  1  6
 16 15  1  0
 17 18  1  0
 18 19  2  0
 19 20  1  0
 21 20  2  0
 22 21  1  0
 23 18  1  0
 23 22  2  0
 24 26  1  0
 24 16  1  0
 25 24  2  0
M  END
$$$$
