QAF.pdb
     RDKit          3D

 26 26  0  0  1  0  0  0  0  0999 V2000
   29.6524  -17.6054  -15.5371 N   0  0  0  0  0  0  0  0  0  0  0  0
   28.9470  -18.0095  -16.7043 C   0  0  0  0  0  0  0  0  0  0  0  0
   29.4335  -17.6793  -17.8142 O   0  0  0  0  0  0  0  0  0  0  0  0
   27.6971  -18.7904  -16.5746 C   0  0  0  0  0  0  0  0  0  0  0  0
   27.3535  -19.1608  -15.2026 C   0  0  0  0  0  0  0  0  0  0  0  0
   26.0037  -19.5162  -14.7963 C   0  0  2  0  0  0  0  0  0  0  0  0
   25.0894  -18.8544  -15.7624 N   0  0  0  0  0  0  0  0  0  0  0  0
   25.4801  -19.2999  -13.4828 C   0  0  0  0  0  0  0  0  0  0  0  0
   25.2444  -18.1989  -12.9187 O   0  0  0  0  0  0  0  0  0  0  0  0
   23.3940  -21.0979  -11.0831 C   0  0  0  0  0  0  0  0  0  0  0  0
   24.6552  -20.2916  -11.3033 C   0  0  2  0  0  0  0  0  0  0  0  0
   25.1612  -20.4364  -12.6500 N   0  0  0  0  0  0  0  0  0  0  0  0
   25.6559  -20.7437  -10.3237 C   0  0  0  0  0  0  0  0  0  0  0  0
   26.3579  -21.7596  -10.5783 O   0  0  0  0  0  0  0  0  0  0  0  0
   25.8773  -20.0935   -9.0955 N   0  0  0  0  0  0  0  0  0  0  0  0
   26.7405  -20.6043   -8.0484 C   0  0  1  0  0  0  0  0  0  0  0  0
   27.6173  -19.4572   -7.6193 C   0  0  0  0  0  0  0  0  0  0  0  0
   28.3080  -19.6560   -6.3449 C   0  0  0  0  0  0  0  0  0  0  0  0
   29.3126  -20.5682   -6.1741 C   0  0  0  0  0  0  0  0  0  0  0  0
   29.9353  -20.7181   -4.9563 C   0  0  0  0  0  0  0  0  0  0  0  0
   29.5813  -19.9605   -3.8494 C   0  0  0  0  0  0  0  0  0  0  0  0
   28.5694  -19.0414   -4.0205 C   0  0  0  0  0  0  0  0  0  0  0  0
   27.9387  -18.8913   -5.2588 C   0  0  0  0  0  0  0  0  0  0  0  0
   25.8795  -21.1273   -6.9662 C   0  0  0  0  0  0  0  0  0  0  0  0
   24.6825  -20.7831   -6.9055 O   0  0  0  0  0  0  0  0  0  0  0  0
   26.3828  -21.9973   -6.0141 O   0  0  0  0  0  0  0  0  0  0  0  0
  2  3  2  0
  2  1  1  0
  4  2  1  0
  5  4  1  0
  6  5  1  0
  6  7  1  6
  8  6  1  0
  9  8  2  0
 11 10  1  6
 11 12  1  0
 12  8  1  0
 13 11  1  0
 14 13  2  0
 15 13  1  0
 16 17  1  1
 16 15  1  0
 17 18  1  0
 18 19  2  0
 19 20  1  0
 21 20  2  0
 22 21  1  0
 23 18  1  0
 23 22  2  0
 24 26  1  0
 24 16  1  0
 25 24  2  0
M  END
$$$$
