QAF.pdb
     RDKit          3D

 26 26  0  0  1  0  0  0  0  0999 V2000
   29.0700  -15.4923  -16.2701 N   0  0  0  0  0  0  0  0  0  0  0  0
   28.0845  -16.2595  -16.9507 C   0  0  0  0  0  0  0  0  0  0  0  0
   27.9856  -16.0985  -18.1924 O   0  0  0  0  0  0  0  0  0  0  0  0
   27.2331  -17.2020  -16.1919 C   0  0  0  0  0  0  0  0  0  0  0  0
   27.5179  -17.2569  -14.7589 C   0  0  0  0  0  0  0  0  0  0  0  0
   27.6852  -18.5068  -14.0355 C   0  0  2  0  0  0  0  0  0  0  0  0
   27.7412  -19.5789  -15.0626 N   0  0  0  0  0  0  0  0  0  0  0  0
   26.8142  -18.9497  -12.9907 C   0  0  0  0  0  0  0  0  0  0  0  0
   26.2946  -18.2581  -12.0755 O   0  0  0  0  0  0  0  0  0  0  0  0
   25.0957  -22.2527  -12.1745 C   0  0  0  0  0  0  0  0  0  0  0  0
   25.6285  -20.8744  -11.8491 C   0  0  2  0  0  0  0  0  0  0  0  0
   26.4455  -20.3446  -12.9178 N   0  0  0  0  0  0  0  0  0  0  0  0
   26.4068  -20.9745  -10.6043 C   0  0  0  0  0  0  0  0  0  0  0  0
   27.5379  -21.5313  -10.6233 O   0  0  0  0  0  0  0  0  0  0  0  0
   25.9508  -20.4740   -9.3707 N   0  0  0  0  0  0  0  0  0  0  0  0
   26.5696  -20.7708   -8.0934 C   0  0  1  0  0  0  0  0  0  0  0  0
   27.3675  -19.5517   -7.7112 C   0  0  0  0  0  0  0  0  0  0  0  0
   27.9269  -19.5833   -6.3595 C   0  0  0  0  0  0  0  0  0  0  0  0
   27.1605  -19.4814   -5.2314 C   0  0  0  0  0  0  0  0  0  0  0  0
   27.7314  -19.5189   -3.9801 C   0  0  0  0  0  0  0  0  0  0  0  0
   29.0994  -19.6606   -3.7982 C   0  0  0  0  0  0  0  0  0  0  0  0
   29.8722  -19.7634   -4.9340 C   0  0  0  0  0  0  0  0  0  0  0  0
   29.2894  -19.7250   -6.2039 C   0  0  0  0  0  0  0  0  0  0  0  0
   25.4936  -21.0978   -7.1336 C   0  0  0  0  0  0  0  0  0  0  0  0
   25.7837  -21.5409   -6.0046 O   0  0  0  0  0  0  0  0  0  0  0  0
   24.1624  -20.9195   -7.4692 O   0  0  0  0  0  0  0  0  0  0  0  0
  2  3  2  0
  2  1  1  0
  4  2  1  0
  5  4  1  0
  6  5  1  0
  6  7  1  6
  8  6  1  0
  9  8  2  0
 11 10  1  6
 11 12  1  0
 12  8  1  0
 13 11  1  0
 14 13  2  0
 15 13  1  0
 16 17  1  1
 16 15  1  0
 17 18  1  0
 18 19  2  0
 19 20  1  0
 21 20  2  0
 22 21  1  0
 23 18  1  0
 23 22  2  0
 24 26  1  0
 24 16  1  0
 25 24  2  0
M  END
$$$$
