QAF.pdb
     RDKit          3D

 26 26  0  0  1  0  0  0  0  0999 V2000
   20.8919  -13.3260  -20.3581 N   0  0  0  0  0  0  0  0  0  0  0  0
   20.2510  -12.0702  -20.5459 C   0  0  0  0  0  0  0  0  0  0  0  0
   20.8264  -11.2352  -21.2871 O   0  0  0  0  0  0  0  0  0  0  0  0
   18.9572  -11.7985  -19.8818 C   0  0  0  0  0  0  0  0  0  0  0  0
   18.9723  -10.6561  -18.9695 C   0  0  0  0  0  0  0  0  0  0  0  0
   19.1490  -10.7962  -17.5333 C   0  0  2  0  0  0  0  0  0  0  0  0
   17.9936  -11.5935  -17.0467 N   0  0  0  0  0  0  0  0  0  0  0  0
   19.3264   -9.6951  -16.6375 C   0  0  0  0  0  0  0  0  0  0  0  0
   18.8017   -8.5524  -16.7073 O   0  0  0  0  0  0  0  0  0  0  0  0
   21.1164   -9.2411  -13.3019 C   0  0  0  0  0  0  0  0  0  0  0  0
   20.4643   -8.7571  -14.5785 C   0  0  2  0  0  0  0  0  0  0  0  0
   20.1978   -9.8434  -15.4948 N   0  0  0  0  0  0  0  0  0  0  0  0
   21.3619   -7.7681  -15.1962 C   0  0  0  0  0  0  0  0  0  0  0  0
   22.2859   -8.1608  -15.9591 O   0  0  0  0  0  0  0  0  0  0  0  0
   21.2447   -6.3828  -14.9791 N   0  0  0  0  0  0  0  0  0  0  0  0
   22.1660   -5.3955  -15.5073 C   0  0  1  0  0  0  0  0  0  0  0  0
   21.3668   -4.5176  -16.4344 C   0  0  0  0  0  0  0  0  0  0  0  0
   21.0369   -5.1264  -17.7234 C   0  0  0  0  0  0  0  0  0  0  0  0
   21.9650   -5.3526  -18.7021 C   0  0  0  0  0  0  0  0  0  0  0  0
   21.6080   -5.9308  -19.8985 C   0  0  0  0  0  0  0  0  0  0  0  0
   20.3023   -6.3107  -20.1727 C   0  0  0  0  0  0  0  0  0  0  0  0
   19.3666   -6.0832  -19.1875 C   0  0  0  0  0  0  0  0  0  0  0  0
   19.7323   -5.4957  -17.9730 C   0  0  0  0  0  0  0  0  0  0  0  0
   22.7539   -4.6665  -14.3633 C   0  0  0  0  0  0  0  0  0  0  0  0
   22.3798   -4.9288  -13.2030 O   0  0  0  0  0  0  0  0  0  0  0  0
   23.7178   -3.6924  -14.5599 O   0  0  0  0  0  0  0  0  0  0  0  0
  2  3  2  0
  2  1  1  0
  4  2  1  0
  5  4  1  0
  6  5  1  0
  6  7  1  1
  8  6  1  0
  9  8  2  0
 11 10  1  1
 11 12  1  0
 12  8  1  0
 13 11  1  0
 14 13  2  0
 15 13  1  0
 16 17  1  6
 16 15  1  0
 17 18  1  0
 18 19  2  0
 19 20  1  0
 21 20  2  0
 22 21  1  0
 23 18  1  0
 23 22  2  0
 24 26  1  0
 24 16  1  0
 25 24  2  0
M  END
$$$$
