YRI.pdb
     RDKit          3D

 32 32  0  0  1  0  0  0  0  0999 V2000
   29.4692  -13.5755  -19.2057 O   0  0  0  0  0  0  0  0  0  0  0  0
   28.6166  -14.5314  -18.6268 C   0  0  0  0  0  0  0  0  0  0  0  0
   27.6610  -15.1804  -19.3761 C   0  0  0  0  0  0  0  0  0  0  0  0
   26.8025  -16.1269  -18.8458 C   0  0  0  0  0  0  0  0  0  0  0  0
   26.8896  -16.4512  -17.5080 C   0  0  0  0  0  0  0  0  0  0  0  0
   25.9807  -17.4604  -16.9057 C   0  0  0  0  0  0  0  0  0  0  0  0
   26.8398  -18.6333  -16.5065 C   0  0  2  0  0  0  0  0  0  0  0  0
   27.4252  -19.2290  -17.6672 N   0  0  0  0  0  0  0  0  0  0  0  0
   26.1298  -19.6104  -15.6482 C   0  0  0  0  0  0  0  0  0  0  0  0
   25.3544  -20.4619  -16.1687 O   0  0  0  0  0  0  0  0  0  0  0  0
   27.8582  -15.7933  -16.7489 C   0  0  0  0  0  0  0  0  0  0  0  0
   28.6996  -14.8576  -17.2948 C   0  0  0  0  0  0  0  0  0  0  0  0
   22.5280  -20.4744   -9.2700 N   0  0  0  0  0  0  0  0  0  0  0  0
   23.3290  -21.2594   -8.3947 C   0  0  0  0  0  0  0  0  0  0  0  0
   22.7565  -21.9375   -7.4678 N   0  0  0  0  0  0  0  0  0  0  0  0
   24.7442  -21.3087   -8.5213 N   0  0  0  0  0  0  0  0  0  0  0  0
   25.4387  -20.5545   -9.5599 C   0  0  0  0  0  0  0  0  0  0  0  0
   24.9097  -20.9061  -10.9406 C   0  0  0  0  0  0  0  0  0  0  0  0
   25.7939  -20.2073  -11.9277 C   0  0  0  0  0  0  0  0  0  0  0  0
   25.4828  -20.4600  -13.3613 C   0  0  2  0  0  0  0  0  0  0  0  0
   26.2757  -19.6410  -14.2525 N   0  0  0  0  0  0  0  0  0  0  0  0
   24.0209  -20.1263  -13.5256 C   0  0  0  0  0  0  0  0  0  0  0  0
   23.6893  -18.9377  -13.3055 O   0  0  0  0  0  0  0  0  0  0  0  0
   23.3311  -22.5019   -6.8150 C   0  0  0  0  0  0  0  0  0  0  0  0
   21.1137  -18.7047  -16.9044 C   0  0  0  0  0  0  0  0  0  0  0  0
   21.9198  -19.7807  -16.2633 C   0  0  1  0  0  0  0  0  0  0  0  0
   21.2030  -20.6835  -15.3309 C   0  0  0  0  0  0  0  0  0  0  0  0
   19.7032  -20.7427  -15.5364 C   0  0  2  0  0  0  0  0  0  0  0  0
   21.6500  -20.6550  -13.9251 N   0  0  0  0  0  0  0  0  0  0  0  0
   23.0730  -21.0815  -13.9031 C   0  0  0  0  0  0  0  0  0  0  0  0
   20.8893  -21.4255  -12.9393 O   0  0  0  0  0  0  0  0  0  0  0  0
   21.1438  -22.5771  -12.5233 O   0  0  0  0  0  0  0  0  0  0  0  0
  2  3  2  0
  2  1  1  0
  4  3  1  0
  5  4  2  0
  6  5  1  0
  7  6  1  0
  7  8  1  6
  9 21  1  0
  9  7  1  0
 10  9  2  0
 11  5  1  0
 11 12  2  0
 12  2  1  0
 14 13  1  0
 15 14  2  0
 16 14  1  0
 17 16  1  0
 18 17  1  0
 18 19  1  0
 20 19  1  1
 20 22  1  0
 20 21  1  0
 22 23  2  0
 24 25  1  0
 26 25  1  0
 26 27  1  6
 28 26  1  0
 29 22  1  0
 28 29  1  1
 30 32  1  0
 30 28  1  0
 31 30  2  0
M  END
$$$$
