YRI.pdb
     RDKit          3D

 32 32  0  0  1  0  0  0  0  0999 V2000
   24.4857  -11.5279  -17.7642 O   0  0  0  0  0  0  0  0  0  0  0  0
   24.3349  -12.8406  -17.2848 C   0  0  0  0  0  0  0  0  0  0  0  0
   25.0210  -13.2762  -16.1733 C   0  0  0  0  0  0  0  0  0  0  0  0
   24.9015  -14.5590  -15.6689 C   0  0  0  0  0  0  0  0  0  0  0  0
   24.0625  -15.4596  -16.2915 C   0  0  0  0  0  0  0  0  0  0  0  0
   23.9136  -16.8459  -15.7782 C   0  0  0  0  0  0  0  0  0  0  0  0
   24.8413  -17.7112  -16.5928 C   0  0  2  0  0  0  0  0  0  0  0  0
   24.2758  -17.9558  -17.8832 N   0  0  0  0  0  0  0  0  0  0  0  0
   25.2462  -18.9524  -15.8920 C   0  0  0  0  0  0  0  0  0  0  0  0
   24.4132  -19.8899  -15.7357 O   0  0  0  0  0  0  0  0  0  0  0  0
   23.3673  -15.0177  -17.4179 C   0  0  0  0  0  0  0  0  0  0  0  0
   23.5006  -13.7411  -17.9015 C   0  0  0  0  0  0  0  0  0  0  0  0
   29.3331  -23.6732  -16.3854 N   0  0  0  0  0  0  0  0  0  0  0  0
   30.5642  -23.7784  -15.6803 C   0  0  0  0  0  0  0  0  0  0  0  0
   31.1980  -24.8940  -15.6982 N   0  0  0  0  0  0  0  0  0  0  0  0
   31.1061  -22.6806  -14.9574 N   0  0  0  0  0  0  0  0  0  0  0  0
   30.3927  -21.4113  -14.8602 C   0  0  0  0  0  0  0  0  0  0  0  0
   29.0108  -21.6027  -14.2573 C   0  0  0  0  0  0  0  0  0  0  0  0
   28.3748  -20.2473  -14.2070 C   0  0  0  0  0  0  0  0  0  0  0  0
   26.9109  -20.2134  -14.4747 C   0  0  2  0  0  0  0  0  0  0  0  0
   26.5380  -19.1469  -15.3787 N   0  0  0  0  0  0  0  0  0  0  0  0
   26.2566  -19.9978  -13.1327 C   0  0  0  0  0  0  0  0  0  0  0  0
   26.4360  -18.8799  -12.5949 O   0  0  0  0  0  0  0  0  0  0  0  0
   32.0856  -24.9887  -15.1707 C   0  0  0  0  0  0  0  0  0  0  0  0
   21.1997  -20.0733  -10.2908 C   0  0  0  0  0  0  0  0  0  0  0  0
   22.6751  -20.2007  -10.1305 C   0  0  2  0  0  0  0  0  0  0  0  0
   23.4480  -20.5574  -11.3444 C   0  0  0  0  0  0  0  0  0  0  0  0
   22.8163  -21.6348  -12.2019 C   0  0  2  0  0  0  0  0  0  0  0  0
   24.9110  -20.6549  -11.1788 N   0  0  0  0  0  0  0  0  0  0  0  0
   25.4872  -20.9835  -12.5082 C   0  0  0  0  0  0  0  0  0  0  0  0
   25.4351  -21.5801  -10.1721 O   0  0  0  0  0  0  0  0  0  0  0  0
   25.2997  -21.4998   -8.9314 O   0  0  0  0  0  0  0  0  0  0  0  0
  2  3  2  0
  2  1  1  0
  4  3  1  0
  5  4  2  0
  6  5  1  0
  7  6  1  0
  7  8  1  6
  9 21  1  0
  9  7  1  0
 10  9  2  0
 11  5  1  0
 11 12  2  0
 12  2  1  0
 14 13  1  0
 15 14  2  0
 16 14  1  0
 17 16  1  0
 18 17  1  0
 18 19  1  0
 20 19  1  1
 20 22  1  0
 20 21  1  0
 22 23  2  0
 24 25  1  0
 26 25  1  0
 26 27  1  6
 28 26  1  0
 29 22  1  0
 28 29  1  1
 30 32  1  0
 30 28  1  0
 31 30  2  0
M  END
$$$$
