YRI.pdb
     RDKit          3D

 32 32  0  0  1  0  0  0  0  0999 V2000
   15.3926  -15.9548  -16.6221 O   0  0  0  0  0  0  0  0  0  0  0  0
   16.4022  -16.7286  -16.0243 C   0  0  0  0  0  0  0  0  0  0  0  0
   17.6833  -16.7410  -16.5289 C   0  0  0  0  0  0  0  0  0  0  0  0
   18.7055  -17.4881  -15.9712 C   0  0  0  0  0  0  0  0  0  0  0  0
   18.4530  -18.2634  -14.8587 C   0  0  0  0  0  0  0  0  0  0  0  0
   19.5269  -19.0805  -14.2370 C   0  0  0  0  0  0  0  0  0  0  0  0
   19.8294  -20.2018  -15.1985 C   0  0  2  0  0  0  0  0  0  0  0  0
   18.7279  -21.1121  -15.2510 N   0  0  0  0  0  0  0  0  0  0  0  0
   21.1228  -20.8710  -14.9250 C   0  0  0  0  0  0  0  0  0  0  0  0
   21.2026  -21.7428  -14.0135 O   0  0  0  0  0  0  0  0  0  0  0  0
   17.1546  -18.2506  -14.3475 C   0  0  0  0  0  0  0  0  0  0  0  0
   16.1555  -17.5024  -14.9162 C   0  0  0  0  0  0  0  0  0  0  0  0
   26.4506  -24.6915  -18.7598 N   0  0  0  0  0  0  0  0  0  0  0  0
   25.7221  -24.0502  -19.8000 C   0  0  0  0  0  0  0  0  0  0  0  0
   25.3795  -24.7325  -20.8314 N   0  0  0  0  0  0  0  0  0  0  0  0
   25.3675  -22.6756  -19.7246 N   0  0  0  0  0  0  0  0  0  0  0  0
   25.6489  -21.8849  -18.5307 C   0  0  0  0  0  0  0  0  0  0  0  0
   24.7473  -22.2923  -17.3771 C   0  0  0  0  0  0  0  0  0  0  0  0
   24.5013  -21.0549  -16.5692 C   0  0  0  0  0  0  0  0  0  0  0  0
   23.5748  -21.2139  -15.4151 C   0  0  2  0  0  0  0  0  0  0  0  0
   22.2938  -20.5804  -15.6421 N   0  0  0  0  0  0  0  0  0  0  0  0
   24.2672  -20.5615  -14.2444 C   0  0  0  0  0  0  0  0  0  0  0  0
   24.0008  -19.3543  -14.0377 O   0  0  0  0  0  0  0  0  0  0  0  0
   24.8767  -24.2683  -21.6102 C   0  0  0  0  0  0  0  0  0  0  0  0
   25.9122  -20.5348   -8.6221 C   0  0  0  0  0  0  0  0  0  0  0  0
   26.3097  -20.1611  -10.0081 C   0  0  2  0  0  0  0  0  0  0  0  0
   25.5923  -20.8421  -11.1126 C   0  0  0  0  0  0  0  0  0  0  0  0
   25.3670  -22.3251  -10.9003 C   0  0  2  0  0  0  0  0  0  0  0  0
   25.9809  -20.4489  -12.4807 N   0  0  0  0  0  0  0  0  0  0  0  0
   25.1617  -21.2536  -13.4233 C   0  0  0  0  0  0  0  0  0  0  0  0
   27.3939  -20.5400  -12.8539 O   0  0  0  0  0  0  0  0  0  0  0  0
   28.3446  -19.8861  -12.3714 O   0  0  0  0  0  0  0  0  0  0  0  0
  2  3  2  0
  2  1  1  0
  4  3  1  0
  5  4  2  0
  6  5  1  0
  7  6  1  0
  7  8  1  1
  9 21  1  0
  9  7  1  0
 10  9  2  0
 11  5  1  0
 11 12  2  0
 12  2  1  0
 14 13  1  0
 15 14  2  0
 16 14  1  0
 17 16  1  0
 18 17  1  0
 18 19  1  0
 20 19  1  6
 20 22  1  0
 20 21  1  0
 22 23  2  0
 24 25  1  0
 26 25  1  0
 26 27  1  6
 28 26  1  0
 29 22  1  0
 28 29  1  6
 30 32  1  0
 30 28  1  0
 31 30  2  0
M  END
$$$$
