YRI.pdb
     RDKit          3D

 32 32  0  0  1  0  0  0  0  0999 V2000
   26.5885  -13.2208  -18.7075 O   0  0  0  0  0  0  0  0  0  0  0  0
   26.3873  -14.3991  -17.9680 C   0  0  0  0  0  0  0  0  0  0  0  0
   26.9859  -14.5814  -16.7415 C   0  0  0  0  0  0  0  0  0  0  0  0
   26.8144  -15.7250  -15.9820 C   0  0  0  0  0  0  0  0  0  0  0  0
   26.0115  -16.7420  -16.4548 C   0  0  0  0  0  0  0  0  0  0  0  0
   25.8088  -17.9849  -15.6665 C   0  0  0  0  0  0  0  0  0  0  0  0
   27.0175  -18.8530  -15.9082 C   0  0  2  0  0  0  0  0  0  0  0  0
   27.0364  -19.2985  -17.2668 N   0  0  0  0  0  0  0  0  0  0  0  0
   27.1440  -19.9608  -14.9323 C   0  0  0  0  0  0  0  0  0  0  0  0
   26.2763  -20.8792  -14.9035 O   0  0  0  0  0  0  0  0  0  0  0  0
   25.4049  -16.5569  -17.6979 C   0  0  0  0  0  0  0  0  0  0  0  0
   25.5886  -15.4148  -18.4349 C   0  0  0  0  0  0  0  0  0  0  0  0
   33.5709  -22.3354   -9.9475 N   0  0  0  0  0  0  0  0  0  0  0  0
   32.7503  -22.8292  -10.9995 C   0  0  0  0  0  0  0  0  0  0  0  0
   33.2507  -23.6576  -11.8422 N   0  0  0  0  0  0  0  0  0  0  0  0
   31.3940  -22.4266  -11.1396 N   0  0  0  0  0  0  0  0  0  0  0  0
   30.7728  -21.5126  -10.1866 C   0  0  0  0  0  0  0  0  0  0  0  0
   29.3388  -21.1994  -10.5807 C   0  0  0  0  0  0  0  0  0  0  0  0
   29.3915  -20.6226  -11.9623 C   0  0  0  0  0  0  0  0  0  0  0  0
   28.1621  -20.8031  -12.7820 C   0  0  2  0  0  0  0  0  0  0  0  0
   28.2025  -20.0463  -14.0146 N   0  0  0  0  0  0  0  0  0  0  0  0
   27.0235  -20.3164  -11.9206 C   0  0  0  0  0  0  0  0  0  0  0  0
   26.9997  -19.0898  -11.6637 O   0  0  0  0  0  0  0  0  0  0  0  0
   32.6695  -24.0055  -12.6271 C   0  0  0  0  0  0  0  0  0  0  0  0
   22.3532  -20.4174  -13.3951 C   0  0  0  0  0  0  0  0  0  0  0  0
   23.6093  -20.1646  -12.6357 C   0  0  2  0  0  0  0  0  0  0  0  0
   23.6948  -20.7509  -11.2766 C   0  0  0  0  0  0  0  0  0  0  0  0
   22.4556  -20.5592  -10.4264 C   0  0  2  0  0  0  0  0  0  0  0  0
   24.9800  -20.5773  -10.5728 N   0  0  0  0  0  0  0  0  0  0  0  0
   26.0381  -21.1759  -11.4268 C   0  0  0  0  0  0  0  0  0  0  0  0
   25.0985  -21.0926   -9.2073 O   0  0  0  0  0  0  0  0  0  0  0  0
   24.6602  -20.5647   -8.1617 O   0  0  0  0  0  0  0  0  0  0  0  0
  2  3  2  0
  2  1  1  0
  4  3  1  0
  5  4  2  0
  6  5  1  0
  7  6  1  0
  7  8  1  6
  9 21  1  0
  9  7  1  0
 10  9  2  0
 11  5  1  0
 11 12  2  0
 12  2  1  0
 14 13  1  0
 15 14  2  0
 16 14  1  0
 17 16  1  0
 18 17  1  0
 18 19  1  0
 20 19  1  1
 20 22  1  0
 20 21  1  0
 22 23  2  0
 24 25  1  0
 26 25  1  0
 26 27  1  6
 28 26  1  0
 29 22  1  0
 28 29  1  1
 30 32  1  0
 30 28  1  0
 31 30  2  0
M  END
$$$$
