YRI.pdb
     RDKit          3D

 32 32  0  0  1  0  0  0  0  0999 V2000
   29.1602  -13.0438  -19.3153 O   0  0  0  0  0  0  0  0  0  0  0  0
   28.2034  -13.8351  -18.6564 C   0  0  0  0  0  0  0  0  0  0  0  0
   28.5117  -15.0999  -18.2080 C   0  0  0  0  0  0  0  0  0  0  0  0
   27.6002  -15.9109  -17.5556 C   0  0  0  0  0  0  0  0  0  0  0  0
   26.3185  -15.4524  -17.3332 C   0  0  0  0  0  0  0  0  0  0  0  0
   25.3139  -16.2988  -16.6390 C   0  0  0  0  0  0  0  0  0  0  0  0
   25.0584  -17.4872  -17.5309 C   0  0  2  0  0  0  0  0  0  0  0  0
   24.0617  -17.1638  -18.5038 N   0  0  0  0  0  0  0  0  0  0  0  0
   24.7537  -18.7263  -16.7777 C   0  0  0  0  0  0  0  0  0  0  0  0
   23.5735  -18.9537  -16.3868 O   0  0  0  0  0  0  0  0  0  0  0  0
   26.0064  -14.1705  -17.7877 C   0  0  0  0  0  0  0  0  0  0  0  0
   26.9256  -13.3827  -18.4327 C   0  0  0  0  0  0  0  0  0  0  0  0
   29.7087  -25.5485  -16.9201 N   0  0  0  0  0  0  0  0  0  0  0  0
   28.5711  -25.1054  -17.6504 C   0  0  0  0  0  0  0  0  0  0  0  0
   28.4835  -25.3903  -18.8985 N   0  0  0  0  0  0  0  0  0  0  0  0
   27.5333  -24.3556  -17.0323 N   0  0  0  0  0  0  0  0  0  0  0  0
   27.5316  -24.1068  -15.5943 C   0  0  0  0  0  0  0  0  0  0  0  0
   26.3721  -23.2098  -15.1935 C   0  0  0  0  0  0  0  0  0  0  0  0
   26.5547  -21.9193  -15.9322 C   0  0  0  0  0  0  0  0  0  0  0  0
   25.4777  -20.9101  -15.7397 C   0  0  2  0  0  0  0  0  0  0  0  0
   25.7307  -19.6849  -16.4668 N   0  0  0  0  0  0  0  0  0  0  0  0
   25.4446  -20.6276  -14.2583 C   0  0  0  0  0  0  0  0  0  0  0  0
   26.3088  -19.8325  -13.8200 O   0  0  0  0  0  0  0  0  0  0  0  0
   27.6629  -25.0657  -19.4429 C   0  0  0  0  0  0  0  0  0  0  0  0
   21.7849  -19.6014   -9.6468 C   0  0  0  0  0  0  0  0  0  0  0  0
   23.1377  -20.0219  -10.1069 C   0  0  2  0  0  0  0  0  0  0  0  0
   23.2535  -20.4629  -11.5177 C   0  0  0  0  0  0  0  0  0  0  0  0
   22.1095  -21.3280  -12.0053 C   0  0  2  0  0  0  0  0  0  0  0  0
   24.5978  -20.8801  -11.9606 N   0  0  0  0  0  0  0  0  0  0  0  0
   24.5053  -21.2139  -13.4053 C   0  0  0  0  0  0  0  0  0  0  0  0
   25.2564  -21.9736  -11.2433 O   0  0  0  0  0  0  0  0  0  0  0  0
   25.7674  -21.9270  -10.1027 O   0  0  0  0  0  0  0  0  0  0  0  0
  2  3  2  0
  2  1  1  0
  4  3  1  0
  5  4  2  0
  6  5  1  0
  7  6  1  0
  7  8  1  6
  9 21  1  0
  9  7  1  0
 10  9  2  0
 11  5  1  0
 11 12  2  0
 12  2  1  0
 14 13  1  0
 15 14  2  0
 16 14  1  0
 17 16  1  0
 18 17  1  0
 18 19  1  0
 20 19  1  1
 20 22  1  0
 20 21  1  0
 22 23  2  0
 24 25  1  0
 26 25  1  0
 26 27  1  6
 28 26  1  0
 29 22  1  0
 28 29  1  1
 30 32  1  0
 30 28  1  0
 31 30  2  0
M  END
$$$$
