YRI.pdb
     RDKit          3D

 32 32  0  0  1  0  0  0  0  0999 V2000
   27.3584  -15.7161  -21.7343 O   0  0  0  0  0  0  0  0  0  0  0  0
   26.9822  -16.6098  -20.7168 C   0  0  0  0  0  0  0  0  0  0  0  0
   26.1734  -17.6921  -20.9823 C   0  0  0  0  0  0  0  0  0  0  0  0
   25.7799  -18.5949  -20.0107 C   0  0  0  0  0  0  0  0  0  0  0  0
   26.2051  -18.4232  -18.7098 C   0  0  0  0  0  0  0  0  0  0  0  0
   25.7982  -19.3719  -17.6413 C   0  0  0  0  0  0  0  0  0  0  0  0
   26.9393  -20.3415  -17.4656 C   0  0  2  0  0  0  0  0  0  0  0  0
   26.9279  -21.3073  -18.5199 N   0  0  0  0  0  0  0  0  0  0  0  0
   26.9807  -20.9547  -16.1173 C   0  0  0  0  0  0  0  0  0  0  0  0
   26.2915  -21.9850  -15.8706 O   0  0  0  0  0  0  0  0  0  0  0  0
   27.0248  -17.3263  -18.4410 C   0  0  0  0  0  0  0  0  0  0  0  0
   27.4031  -16.4428  -19.4197 C   0  0  0  0  0  0  0  0  0  0  0  0
   32.2530  -22.8615  -10.0166 N   0  0  0  0  0  0  0  0  0  0  0  0
   31.2621  -22.2508   -9.1987 C   0  0  0  0  0  0  0  0  0  0  0  0
   31.4777  -22.1398   -7.9385 N   0  0  0  0  0  0  0  0  0  0  0  0
   30.0422  -21.7638   -9.7425 N   0  0  0  0  0  0  0  0  0  0  0  0
   29.9678  -21.2694  -11.1135 C   0  0  0  0  0  0  0  0  0  0  0  0
   28.6408  -20.5767  -11.3763 C   0  0  0  0  0  0  0  0  0  0  0  0
   28.6520  -20.1635  -12.8162 C   0  0  0  0  0  0  0  0  0  0  0  0
   27.6506  -20.8381  -13.6867 C   0  0  2  0  0  0  0  0  0  0  0  0
   27.7636  -20.4387  -15.0729 N   0  0  0  0  0  0  0  0  0  0  0  0
   26.3022  -20.4318  -13.1462 C   0  0  0  0  0  0  0  0  0  0  0  0
   25.9638  -19.2380  -13.3238 O   0  0  0  0  0  0  0  0  0  0  0  0
   30.7854  -21.6524   -7.3402 C   0  0  0  0  0  0  0  0  0  0  0  0
   20.5825  -21.3078  -13.0460 C   0  0  0  0  0  0  0  0  0  0  0  0
   21.7383  -20.8261  -12.2395 C   0  0  2  0  0  0  0  0  0  0  0  0
   23.0864  -21.2464  -12.6915 C   0  0  0  0  0  0  0  0  0  0  0  0
   23.1751  -22.6828  -13.1647 C   0  0  2  0  0  0  0  0  0  0  0  0
   24.2221  -20.7761  -11.8753 N   0  0  0  0  0  0  0  0  0  0  0  0
   25.4618  -21.3281  -12.4799 C   0  0  0  0  0  0  0  0  0  0  0  0
   24.2072  -21.0570  -10.4383 O   0  0  0  0  0  0  0  0  0  0  0  0
   23.3766  -20.6459   -9.5985 O   0  0  0  0  0  0  0  0  0  0  0  0
  2  3  2  0
  2  1  1  0
  4  3  1  0
  5  4  2  0
  6  5  1  0
  7  6  1  0
  7  8  1  6
  9 21  1  0
  9  7  1  0
 10  9  2  0
 11  5  1  0
 11 12  2  0
 12  2  1  0
 14 13  1  0
 15 14  2  0
 16 14  1  0
 17 16  1  0
 18 17  1  0
 18 19  1  0
 20 19  1  1
 20 22  1  0
 20 21  1  0
 22 23  2  0
 24 25  1  0
 26 25  1  0
 26 27  1  6
 28 26  1  0
 29 22  1  0
 28 29  1  1
 30 32  1  0
 30 28  1  0
 31 30  2  0
M  END
$$$$
