YRI.pdb
     RDKit          3D

 32 32  0  0  1  0  0  0  0  0999 V2000
   14.8969  -17.0064  -14.1869 O   0  0  0  0  0  0  0  0  0  0  0  0
   15.9843  -17.7866  -13.7571 C   0  0  0  0  0  0  0  0  0  0  0  0
   15.8363  -18.7299  -12.7651 C   0  0  0  0  0  0  0  0  0  0  0  0
   16.8798  -19.5180  -12.3132 C   0  0  0  0  0  0  0  0  0  0  0  0
   18.1342  -19.3694  -12.8670 C   0  0  0  0  0  0  0  0  0  0  0  0
   19.2774  -20.1969  -12.4025 C   0  0  0  0  0  0  0  0  0  0  0  0
   19.5746  -21.1823  -13.5042 C   0  0  2  0  0  0  0  0  0  0  0  0
   18.5303  -22.1557  -13.5852 N   0  0  0  0  0  0  0  0  0  0  0  0
   20.9236  -21.7860  -13.3980 C   0  0  0  0  0  0  0  0  0  0  0  0
   21.1701  -22.6247  -12.4853 O   0  0  0  0  0  0  0  0  0  0  0  0
   18.2838  -18.4134  -13.8724 C   0  0  0  0  0  0  0  0  0  0  0  0
   17.2355  -17.6421  -14.3058 C   0  0  0  0  0  0  0  0  0  0  0  0
   26.8809  -26.1386  -15.7535 N   0  0  0  0  0  0  0  0  0  0  0  0
   26.9277  -25.0918  -16.7157 C   0  0  0  0  0  0  0  0  0  0  0  0
   27.9342  -25.0202  -17.5086 N   0  0  0  0  0  0  0  0  0  0  0  0
   25.8900  -24.1255  -16.8180 N   0  0  0  0  0  0  0  0  0  0  0  0
   24.6557  -24.2551  -16.0503 C   0  0  0  0  0  0  0  0  0  0  0  0
   23.6860  -23.1309  -16.3755 C   0  0  0  0  0  0  0  0  0  0  0  0
   24.0346  -21.9901  -15.4692 C   0  0  0  0  0  0  0  0  0  0  0  0
   23.3222  -21.9661  -14.1625 C   0  0  2  0  0  0  0  0  0  0  0  0
   21.9689  -21.4673  -14.2788 N   0  0  0  0  0  0  0  0  0  0  0  0
   24.1295  -21.0511  -13.2756 C   0  0  0  0  0  0  0  0  0  0  0  0
   23.9623  -19.8198  -13.4404 O   0  0  0  0  0  0  0  0  0  0  0  0
   27.9509  -24.2989  -18.2532 C   0  0  0  0  0  0  0  0  0  0  0  0
   26.6656  -20.0331   -7.9364 C   0  0  0  0  0  0  0  0  0  0  0  0
   26.6937  -19.8205   -9.4104 C   0  0  2  0  0  0  0  0  0  0  0  0
   25.8642  -20.7354  -10.2307 C   0  0  0  0  0  0  0  0  0  0  0  0
   25.8459  -22.1725   -9.7516 C   0  0  2  0  0  0  0  0  0  0  0  0
   25.9487  -20.5552  -11.6928 N   0  0  0  0  0  0  0  0  0  0  0  0
   25.0219  -21.5355  -12.3150 C   0  0  0  0  0  0  0  0  0  0  0  0
   27.2644  -20.6486  -12.3286 O   0  0  0  0  0  0  0  0  0  0  0  0
   27.6831  -21.5705  -13.0627 O   0  0  0  0  0  0  0  0  0  0  0  0
  2  3  2  0
  2  1  1  0
  4  3  1  0
  5  4  2  0
  6  5  1  0
  7  6  1  0
  7  8  1  1
  9 21  1  0
  9  7  1  0
 10  9  2  0
 11  5  1  0
 11 12  2  0
 12  2  1  0
 14 13  1  0
 15 14  2  0
 16 14  1  0
 17 16  1  0
 18 17  1  0
 18 19  1  0
 20 19  1  6
 20 22  1  0
 20 21  1  0
 22 23  2  0
 24 25  1  0
 26 25  1  0
 26 27  1  1
 28 26  1  0
 29 22  1  0
 28 29  1  6
 30 32  1  0
 30 28  1  0
 31 30  2  0
M  END
$$$$
