YRI.pdb
     RDKit          3D

 32 32  0  0  1  0  0  0  0  0999 V2000
   11.6794  -25.7171   -1.6718 O   0  0  0  0  0  0  0  0  0  0  0  0
   12.8285  -25.3877   -2.4113 C   0  0  0  0  0  0  0  0  0  0  0  0
   13.8447  -24.6438   -1.8548 C   0  0  0  0  0  0  0  0  0  0  0  0
   14.9915  -24.2979   -2.5473 C   0  0  0  0  0  0  0  0  0  0  0  0
   15.1455  -24.7060   -3.8558 C   0  0  0  0  0  0  0  0  0  0  0  0
   16.3627  -24.3489   -4.6293 C   0  0  0  0  0  0  0  0  0  0  0  0
   17.0781  -25.6411   -4.9319 C   0  0  2  0  0  0  0  0  0  0  0  0
   17.6884  -26.1525   -3.7442 N   0  0  0  0  0  0  0  0  0  0  0  0
   18.0221  -25.5323   -6.0689 C   0  0  0  0  0  0  0  0  0  0  0  0
   19.2362  -25.2523   -5.8571 O   0  0  0  0  0  0  0  0  0  0  0  0
   14.1154  -25.4600   -4.4195 C   0  0  0  0  0  0  0  0  0  0  0  0
   12.9863  -25.7919   -3.7149 C   0  0  0  0  0  0  0  0  0  0  0  0
   19.6130  -27.1764  -13.2138 N   0  0  0  0  0  0  0  0  0  0  0  0
   20.9662  -27.2929  -12.7906 C   0  0  0  0  0  0  0  0  0  0  0  0
   21.9026  -27.1667  -13.6589 N   0  0  0  0  0  0  0  0  0  0  0  0
   21.3042  -27.5466  -11.4332 N   0  0  0  0  0  0  0  0  0  0  0  0
   20.3007  -27.4737  -10.3761 C   0  0  0  0  0  0  0  0  0  0  0  0
   19.1379  -26.5838  -10.7831 C   0  0  0  0  0  0  0  0  0  0  0  0
   18.1872  -26.5665   -9.6255 C   0  0  0  0  0  0  0  0  0  0  0  0
   18.5070  -25.5940   -8.5450 C   0  0  2  0  0  0  0  0  0  0  0  0
   17.6296  -25.7278   -7.4022 N   0  0  0  0  0  0  0  0  0  0  0  0
   18.3367  -24.2285   -9.1628 C   0  0  0  0  0  0  0  0  0  0  0  0
   17.1797  -23.7464   -9.1464 O   0  0  0  0  0  0  0  0  0  0  0  0
   22.8925  -27.2523  -13.3626 C   0  0  0  0  0  0  0  0  0  0  0  0
   22.0342  -20.2610   -8.9003 C   0  0  0  0  0  0  0  0  0  0  0  0
   20.7851  -21.0681   -8.9825 C   0  0  2  0  0  0  0  0  0  0  0  0
   20.2936  -21.3972  -10.3421 C   0  0  0  0  0  0  0  0  0  0  0  0
   20.3389  -20.2463  -11.3262 C   0  0  2  0  0  0  0  0  0  0  0  0
   19.0866  -22.2432  -10.4104 N   0  0  0  0  0  0  0  0  0  0  0  0
   19.4035  -23.5244   -9.7283 C   0  0  0  0  0  0  0  0  0  0  0  0
   18.5041  -22.5160  -11.7259 O   0  0  0  0  0  0  0  0  0  0  0  0
   17.6043  -21.8655  -12.3014 O   0  0  0  0  0  0  0  0  0  0  0  0
  2  3  2  0
  2  1  1  0
  4  3  1  0
  5  4  2  0
  6  5  1  0
  7  6  1  0
  7  8  1  1
  9 21  1  0
  9  7  1  0
 10  9  2  0
 11  5  1  0
 11 12  2  0
 12  2  1  0
 14 13  1  0
 15 14  2  0
 16 14  1  0
 17 16  1  0
 18 17  1  0
 18 19  1  0
 20 19  1  6
 20 22  1  0
 20 21  1  0
 22 23  2  0
 24 25  1  0
 26 25  1  0
 26 27  1  6
 28 26  1  0
 29 22  1  0
 28 29  1  1
 30 32  1  0
 30 28  1  0
 31 30  2  0
M  END
$$$$
