YRI.pdb
     RDKit          3D

 32 32  0  0  1  0  0  0  0  0999 V2000
   17.4031  -26.5266   -6.3653 O   0  0  0  0  0  0  0  0  0  0  0  0
   17.9753  -25.4604   -7.0804 C   0  0  0  0  0  0  0  0  0  0  0  0
   17.6036  -24.1574   -6.8354 C   0  0  0  0  0  0  0  0  0  0  0  0
   18.1416  -23.0798   -7.5162 C   0  0  0  0  0  0  0  0  0  0  0  0
   19.0953  -23.2966   -8.4888 C   0  0  0  0  0  0  0  0  0  0  0  0
   19.6908  -22.1623   -9.2413 C   0  0  0  0  0  0  0  0  0  0  0  0
   21.1438  -22.0947   -8.8446 C   0  0  2  0  0  0  0  0  0  0  0  0
   21.2596  -21.6978   -7.4758 N   0  0  0  0  0  0  0  0  0  0  0  0
   21.9600  -21.2640   -9.7608 C   0  0  0  0  0  0  0  0  0  0  0  0
   21.8360  -20.0063   -9.7524 O   0  0  0  0  0  0  0  0  0  0  0  0
   19.4718  -24.6172   -8.7369 C   0  0  0  0  0  0  0  0  0  0  0  0
   18.9254  -25.6714   -8.0501 C   0  0  0  0  0  0  0  0  0  0  0  0
   28.0968  -21.8895  -15.5023 N   0  0  0  0  0  0  0  0  0  0  0  0
   27.8356  -20.5043  -15.3096 C   0  0  0  0  0  0  0  0  0  0  0  0
   27.8695  -19.7180  -16.3232 N   0  0  0  0  0  0  0  0  0  0  0  0
   27.5405  -19.9724  -14.0246 N   0  0  0  0  0  0  0  0  0  0  0  0
   26.9498  -20.8013  -12.9789 C   0  0  0  0  0  0  0  0  0  0  0  0
   25.5117  -21.1632  -13.3116 C   0  0  0  0  0  0  0  0  0  0  0  0
   24.8926  -21.6647  -12.0429 C   0  0  0  0  0  0  0  0  0  0  0  0
   23.5774  -21.0647  -11.6880 C   0  0  2  0  0  0  0  0  0  0  0  0
   22.8865  -21.8135  -10.6606 N   0  0  0  0  0  0  0  0  0  0  0  0
   22.7679  -21.0767  -12.9608 C   0  0  0  0  0  0  0  0  0  0  0  0
   22.3519  -22.1932  -13.3499 O   0  0  0  0  0  0  0  0  0  0  0  0
   27.7194  -18.7010  -16.1891 C   0  0  0  0  0  0  0  0  0  0  0  0
   20.3120  -16.5034  -15.5047 C   0  0  0  0  0  0  0  0  0  0  0  0
   21.2889  -17.6015  -15.2629 C   0  0  2  0  0  0  0  0  0  0  0  0
   20.7253  -18.9395  -14.9625 C   0  0  0  0  0  0  0  0  0  0  0  0
   19.6698  -18.9513  -13.8758 C   0  0  1  0  0  0  0  0  0  0  0  0
   21.6878  -20.0572  -14.9241 N   0  0  0  0  0  0  0  0  0  0  0  0
   22.4874  -19.9117  -13.6804 C   0  0  0  0  0  0  0  0  0  0  0  0
   22.5839  -20.2408  -16.0675 O   0  0  0  0  0  0  0  0  0  0  0  0
   23.8092  -19.9942  -16.1121 O   0  0  0  0  0  0  0  0  0  0  0  0
  2  3  2  0
  2  1  1  0
  4  3  1  0
  5  4  2  0
  6  5  1  0
  7  6  1  0
  7  8  1  1
  9 21  1  0
  9  7  1  0
 10  9  2  0
 11  5  1  0
 11 12  2  0
 12  2  1  0
 14 13  1  0
 15 14  2  0
 16 14  1  0
 17 16  1  0
 18 17  1  0
 18 19  1  0
 20 19  1  6
 20 22  1  0
 20 21  1  0
 22 23  2  0
 24 25  1  0
 26 25  1  0
 26 27  1  6
 28 26  1  0
 29 22  1  0
 28 29  1  1
 30 32  1  0
 30 28  1  0
 31 30  2  0
M  END
$$$$
