GME.pdb
     RDKit          3D

 22 21  0  0  1  0  0  0  0  0999 V2000
   28.3595  -20.6509  -15.3947 N   0  0  0  0  0  0  0  0  0  0  0  0
   27.8002  -19.7969  -14.3666 C   0  0  0  0  0  0  0  0  0  0  0  0
   26.8784  -20.6012  -13.5496 C   0  0  0  0  0  0  0  0  0  0  0  0
   26.3376  -21.6705  -14.0025 O   0  0  0  0  0  0  0  0  0  0  0  0
   28.1641  -20.0867   -6.8066 C   0  0  0  0  0  0  0  0  0  0  0  0
   26.5857  -20.0497   -7.6917 S   0  0  0  0  0  0  0  0  0  0  0  0
   26.7380  -20.7086   -9.3692 C   0  0  0  0  0  0  0  0  0  0  0  0
   25.4170  -20.5167  -10.0689 C   0  0  0  0  0  0  0  0  0  0  0  0
   25.4788  -20.9465  -11.5229 C   0  0  2  0  0  0  0  0  0  0  0  0
   26.5388  -20.2442  -12.2225 N   0  0  0  0  0  0  0  0  0  0  0  0
   24.1864  -20.6489  -12.1534 C   0  0  0  0  0  0  0  0  0  0  0  0
   23.8080  -19.4983  -12.4961 O   0  0  0  0  0  0  0  0  0  0  0  0
   23.2873  -21.7088  -12.4040 N   0  0  0  0  0  0  0  0  0  0  0  0
   22.0542  -21.5517  -13.1892 C   0  0  1  0  0  0  0  0  0  0  0  0
   21.9274  -22.8097  -13.9992 C   0  0  0  0  0  0  0  0  0  0  0  0
   20.7348  -22.8415  -14.8946 C   0  0  0  0  0  0  0  0  0  0  0  0
   20.7735  -24.1207  -15.6469 C   0  0  0  0  0  0  0  0  0  0  0  0
   20.3577  -25.1759  -15.1127 O   0  0  0  0  0  0  0  0  0  0  0  0
   20.9287  -21.2463  -12.3164 C   0  0  0  0  0  0  0  0  0  0  0  0
   20.9414  -21.6280  -11.1235 O   0  0  0  0  0  0  0  0  0  0  0  0
   21.2615  -24.1923  -16.9532 O   0  0  0  0  0  0  0  0  0  0  0  0
   19.8275  -20.5388  -12.7667 O   0  0  0  0  0  0  0  0  0  0  0  0
  2  3  1  0
  2  1  1  0
  3 10  1  0
  4  3  2  0
  6  7  1  0
  6  5  1  0
  9  8  1  1
  8  7  1  0
  9 11  1  0
 10  9  1  0
 11 13  1  0
 11 12  2  0
 13 14  1  0
 14 19  1  0
 14 15  1  1
 16 17  1  0
 16 15  1  0
 17 18  2  0
 19 22  1  0
 20 19  2  0
 21 17  1  0
M  END
$$$$
