GME.pdb
     RDKit          3D

 22 21  0  0  1  0  0  0  0  0999 V2000
   27.0247  -24.5361  -16.3764 N   0  0  0  0  0  0  0  0  0  0  0  0
   27.0559  -23.1166  -16.0873 C   0  0  0  0  0  0  0  0  0  0  0  0
   25.9832  -22.8178  -15.1260 C   0  0  0  0  0  0  0  0  0  0  0  0
   25.0416  -23.6533  -14.8886 O   0  0  0  0  0  0  0  0  0  0  0  0
   26.3002  -20.9465   -9.6007 C   0  0  0  0  0  0  0  0  0  0  0  0
   24.5856  -21.1479  -10.1445 S   0  0  0  0  0  0  0  0  0  0  0  0
   24.1617  -20.0002  -11.4767 C   0  0  0  0  0  0  0  0  0  0  0  0
   25.1768  -20.1666  -12.5781 C   0  0  0  0  0  0  0  0  0  0  0  0
   24.8443  -21.3392  -13.4820 C   0  0  2  0  0  0  0  0  0  0  0  0
   25.9301  -21.5979  -14.4096 N   0  0  0  0  0  0  0  0  0  0  0  0
   23.6199  -21.0217  -14.2278 C   0  0  0  0  0  0  0  0  0  0  0  0
   23.5600  -20.2111  -15.1891 O   0  0  0  0  0  0  0  0  0  0  0  0
   22.4122  -21.6560  -13.8620 N   0  0  0  0  0  0  0  0  0  0  0  0
   21.1362  -21.4209  -14.5537 C   0  0  1  0  0  0  0  0  0  0  0  0
   20.2679  -22.5970  -14.2112 C   0  0  0  0  0  0  0  0  0  0  0  0
   18.9038  -22.5444  -14.8126 C   0  0  0  0  0  0  0  0  0  0  0  0
   18.0840  -23.5934  -14.1560 C   0  0  0  0  0  0  0  0  0  0  0  0
   18.5361  -24.7559  -14.0296 O   0  0  0  0  0  0  0  0  0  0  0  0
   20.5976  -20.1142  -14.2010 C   0  0  0  0  0  0  0  0  0  0  0  0
   20.7940  -19.6456  -13.0562 O   0  0  0  0  0  0  0  0  0  0  0  0
   16.8055  -23.3271  -13.6617 O   0  0  0  0  0  0  0  0  0  0  0  0
   19.8635  -19.3609  -15.1008 O   0  0  0  0  0  0  0  0  0  0  0  0
  2  3  1  0
  2  1  1  0
  3 10  1  0
  4  3  2  0
  6  7  1  0
  6  5  1  0
  9  8  1  1
  8  7  1  0
  9 11  1  0
 10  9  1  0
 11 13  1  0
 11 12  2  0
 13 14  1  0
 14 19  1  0
 14 15  1  1
 16 17  1  0
 16 15  1  0
 17 18  2  0
 19 22  1  0
 20 19  2  0
 21 17  1  0
M  END
$$$$
