GME.pdb
     RDKit          3D

 22 21  0  0  1  0  0  0  0  0999 V2000
   29.2181  -10.2446  -18.0961 N   0  0  0  0  0  0  0  0  0  0  0  0
   30.6292  -10.2169  -18.4240 C   0  0  0  0  0  0  0  0  0  0  0  0
   31.3198   -9.3912  -17.4214 C   0  0  0  0  0  0  0  0  0  0  0  0
   30.6751   -8.6259  -16.6216 O   0  0  0  0  0  0  0  0  0  0  0  0
   37.5427   -8.7308  -12.6525 C   0  0  0  0  0  0  0  0  0  0  0  0
   36.7271   -9.5013  -14.0728 S   0  0  0  0  0  0  0  0  0  0  0  0
   35.2663   -8.5724  -14.5969 C   0  0  0  0  0  0  0  0  0  0  0  0
   34.5913   -9.3457  -15.7003 C   0  0  0  0  0  0  0  0  0  0  0  0
   33.3622   -8.6270  -16.2254 C   0  0  2  0  0  0  0  0  0  0  0  0
   32.7285   -9.3955  -17.2809 N   0  0  0  0  0  0  0  0  0  0  0  0
   33.7735   -7.3164  -16.7445 C   0  0  0  0  0  0  0  0  0  0  0  0
   34.3822   -7.1388  -17.8319 O   0  0  0  0  0  0  0  0  0  0  0  0
   33.4777   -6.1589  -15.9914 N   0  0  0  0  0  0  0  0  0  0  0  0
   33.7574   -4.7953  -16.4651 C   0  0  1  0  0  0  0  0  0  0  0  0
   32.5099   -4.0069  -16.1876 C   0  0  0  0  0  0  0  0  0  0  0  0
   32.5962   -2.5701  -16.5789 C   0  0  0  0  0  0  0  0  0  0  0  0
   31.3115   -1.9264  -16.2061 C   0  0  0  0  0  0  0  0  0  0  0  0
   30.2635   -2.2064  -16.8346 O   0  0  0  0  0  0  0  0  0  0  0  0
   34.9770   -4.2831  -15.8553 C   0  0  0  0  0  0  0  0  0  0  0  0
   35.8320   -3.7008  -16.5615 O   0  0  0  0  0  0  0  0  0  0  0  0
   31.2253   -1.0062  -15.1594 O   0  0  0  0  0  0  0  0  0  0  0  0
   35.2287   -4.4206  -14.5011 O   0  0  0  0  0  0  0  0  0  0  0  0
  2  3  1  0
  2  1  1  0
  3 10  1  0
  4  3  2  0
  6  7  1  0
  6  5  1  0
  9  8  1  6
  8  7  1  0
  9 11  1  0
 10  9  1  0
 11 13  1  0
 11 12  2  0
 13 14  1  0
 14 19  1  0
 14 15  1  1
 16 17  1  0
 16 15  1  0
 17 18  2  0
 19 22  1  0
 20 19  2  0
 21 17  1  0
M  END
$$$$
