GME.pdb
     RDKit          3D

 22 21  0  0  1  0  0  0  0  0999 V2000
   27.9209  -22.4109  -15.4850 N   0  0  0  0  0  0  0  0  0  0  0  0
   27.9258  -21.2986  -14.5564 C   0  0  0  0  0  0  0  0  0  0  0  0
   26.8757  -21.5309  -13.5527 C   0  0  0  0  0  0  0  0  0  0  0  0
   25.8964  -22.3258  -13.7763 O   0  0  0  0  0  0  0  0  0  0  0  0
   26.0588  -19.9150   -6.8856 C   0  0  0  0  0  0  0  0  0  0  0  0
   27.5543  -20.1100   -7.8863 S   0  0  0  0  0  0  0  0  0  0  0  0
   27.2178  -20.9716   -9.4406 C   0  0  0  0  0  0  0  0  0  0  0  0
   26.0102  -20.3332  -10.0773 C   0  0  0  0  0  0  0  0  0  0  0  0
   25.7088  -20.9270  -11.4409 C   0  0  2  0  0  0  0  0  0  0  0  0
   26.8870  -20.8952  -12.2878 N   0  0  0  0  0  0  0  0  0  0  0  0
   24.6304  -20.1473  -12.0619 C   0  0  0  0  0  0  0  0  0  0  0  0
   24.7968  -19.0577  -12.6699 O   0  0  0  0  0  0  0  0  0  0  0  0
   23.3058  -20.6312  -11.9868 N   0  0  0  0  0  0  0  0  0  0  0  0
   22.2540  -20.2540  -12.9424 C   0  0  1  0  0  0  0  0  0  0  0  0
   22.7982  -20.5972  -14.2991 C   0  0  0  0  0  0  0  0  0  0  0  0
   22.5861  -22.0181  -14.7003 C   0  0  0  0  0  0  0  0  0  0  0  0
   22.6711  -22.0831  -16.1809 C   0  0  0  0  0  0  0  0  0  0  0  0
   22.6234  -23.1918  -16.7643 O   0  0  0  0  0  0  0  0  0  0  0  0
   20.9916  -20.8891  -12.5891 C   0  0  0  0  0  0  0  0  0  0  0  0
   19.9220  -20.4776  -13.0946 O   0  0  0  0  0  0  0  0  0  0  0  0
   22.8010  -20.9332  -16.9624 O   0  0  0  0  0  0  0  0  0  0  0  0
   20.9316  -21.9476  -11.6992 O   0  0  0  0  0  0  0  0  0  0  0  0
  2  3  1  0
  2  1  1  0
  3 10  1  0
  4  3  2  0
  6  7  1  0
  6  5  1  0
  9  8  1  1
  8  7  1  0
  9 11  1  0
 10  9  1  0
 11 13  1  0
 11 12  2  0
 13 14  1  0
 14 19  1  0
 14 15  1  6
 16 17  1  0
 16 15  1  0
 17 18  2  0
 19 22  1  0
 20 19  2  0
 21 17  1  0
M  END
$$$$
