GME.pdb
     RDKit          3D

 22 21  0  0  1  0  0  0  0  0999 V2000
   27.6350  -22.0886  -15.9927 N   0  0  0  0  0  0  0  0  0  0  0  0
   27.4528  -20.9300  -15.1420 C   0  0  0  0  0  0  0  0  0  0  0  0
   26.5703  -21.3096  -14.0280 C   0  0  0  0  0  0  0  0  0  0  0  0
   25.6464  -22.1853  -14.1709 O   0  0  0  0  0  0  0  0  0  0  0  0
   27.5655  -20.6836   -7.4748 C   0  0  0  0  0  0  0  0  0  0  0  0
   25.8410  -20.1936   -7.7240 S   0  0  0  0  0  0  0  0  0  0  0  0
   25.1773  -20.8314   -9.2810 C   0  0  0  0  0  0  0  0  0  0  0  0
   26.0968  -20.3985  -10.3938 C   0  0  0  0  0  0  0  0  0  0  0  0
   25.6717  -20.9695  -11.7339 C   0  0  2  0  0  0  0  0  0  0  0  0
   26.6910  -20.7347  -12.7400 N   0  0  0  0  0  0  0  0  0  0  0  0
   24.4165  -20.3244  -12.1396 C   0  0  0  0  0  0  0  0  0  0  0  0
   24.3146  -19.1201  -12.4916 O   0  0  0  0  0  0  0  0  0  0  0  0
   23.2267  -21.0852  -12.1445 N   0  0  0  0  0  0  0  0  0  0  0  0
   21.9381  -20.5640  -12.6236 C   0  0  1  0  0  0  0  0  0  0  0  0
   21.7035  -21.2239  -13.9518 C   0  0  0  0  0  0  0  0  0  0  0  0
   21.9606  -20.3407  -15.1261 C   0  0  0  0  0  0  0  0  0  0  0  0
   21.6357  -21.1162  -16.3495 C   0  0  0  0  0  0  0  0  0  0  0  0
   21.5380  -20.5328  -17.4549 O   0  0  0  0  0  0  0  0  0  0  0  0
   20.8998  -20.7714  -11.6232 C   0  0  0  0  0  0  0  0  0  0  0  0
   21.0367  -21.6653  -10.7565 O   0  0  0  0  0  0  0  0  0  0  0  0
   21.4349  -22.4975  -16.3143 O   0  0  0  0  0  0  0  0  0  0  0  0
   19.7483  -20.0037  -11.5971 O   0  0  0  0  0  0  0  0  0  0  0  0
  2  3  1  0
  2  1  1  0
  3 10  1  0
  4  3  2  0
  6  7  1  0
  6  5  1  0
  9  8  1  1
  8  7  1  0
  9 11  1  0
 10  9  1  0
 11 13  1  0
 11 12  2  0
 13 14  1  0
 14 19  1  0
 14 15  1  6
 16 17  1  0
 16 15  1  0
 17 18  2  0
 19 22  1  0
 20 19  2  0
 21 17  1  0
M  END
$$$$
