GME.pdb
     RDKit          3D

 22 21  0  0  1  0  0  0  0  0999 V2000
   20.5490  -12.6711  -15.6141 N   0  0  0  0  0  0  0  0  0  0  0  0
   20.4048  -11.4281  -14.8836 C   0  0  0  0  0  0  0  0  0  0  0  0
   21.6996  -10.7303  -14.9000 C   0  0  0  0  0  0  0  0  0  0  0  0
   21.9067   -9.6813  -14.1944 O   0  0  0  0  0  0  0  0  0  0  0  0
   27.5524  -14.4523  -14.9789 C   0  0  0  0  0  0  0  0  0  0  0  0
   26.9253  -13.1782  -16.1013 S   0  0  0  0  0  0  0  0  0  0  0  0
   25.5572  -12.2489  -15.3690 C   0  0  0  0  0  0  0  0  0  0  0  0
   25.1402  -11.1814  -16.3477 C   0  0  0  0  0  0  0  0  0  0  0  0
   23.9780  -10.3573  -15.8252 C   0  0  2  0  0  0  0  0  0  0  0  0
   22.7869  -11.1754  -15.6898 N   0  0  0  0  0  0  0  0  0  0  0  0
   23.7219   -9.2606  -16.7676 C   0  0  0  0  0  0  0  0  0  0  0  0
   22.8298   -9.2767  -17.6555 O   0  0  0  0  0  0  0  0  0  0  0  0
   24.5170   -8.0958  -16.6940 N   0  0  0  0  0  0  0  0  0  0  0  0
   24.1027   -6.8000  -17.2519 C   0  0  1  0  0  0  0  0  0  0  0  0
   22.8209   -6.4498  -16.5525 C   0  0  0  0  0  0  0  0  0  0  0  0
   22.3020   -5.0889  -16.8745 C   0  0  0  0  0  0  0  0  0  0  0  0
   21.0041   -4.9266  -16.1723 C   0  0  0  0  0  0  0  0  0  0  0  0
   20.2315   -3.9917  -16.4895 O   0  0  0  0  0  0  0  0  0  0  0  0
   25.1768   -5.8239  -17.1279 C   0  0  0  0  0  0  0  0  0  0  0  0
   26.1111   -6.0223  -16.3175 O   0  0  0  0  0  0  0  0  0  0  0  0
   20.6033   -5.7954  -15.1552 O   0  0  0  0  0  0  0  0  0  0  0  0
   25.2010   -4.6659  -17.8857 O   0  0  0  0  0  0  0  0  0  0  0  0
  2  3  1  0
  2  1  1  0
  3 10  1  0
  4  3  2  0
  6  7  1  0
  6  5  1  0
  9  8  1  6
  8  7  1  0
  9 11  1  0
 10  9  1  0
 11 13  1  0
 11 12  2  0
 13 14  1  0
 14 19  1  0
 14 15  1  1
 16 17  1  0
 16 15  1  0
 17 18  2  0
 19 22  1  0
 20 19  2  0
 21 17  1  0
M  END
$$$$
