GME.pdb
     RDKit          3D

 22 21  0  0  1  0  0  0  0  0999 V2000
   20.5466  -12.7302  -18.5996 N   0  0  0  0  0  0  0  0  0  0  0  0
   20.8301  -11.3144  -18.7207 C   0  0  0  0  0  0  0  0  0  0  0  0
   21.5330  -10.8788  -17.5040 C   0  0  0  0  0  0  0  0  0  0  0  0
   21.0414  -11.0746  -16.3374 O   0  0  0  0  0  0  0  0  0  0  0  0
   27.5317  -12.0350  -14.5197 C   0  0  0  0  0  0  0  0  0  0  0  0
   27.0275  -11.3834  -16.1313 S   0  0  0  0  0  0  0  0  0  0  0  0
   25.2283  -11.2735  -16.2811 C   0  0  0  0  0  0  0  0  0  0  0  0
   24.8492   -9.8151  -16.3049 C   0  0  0  0  0  0  0  0  0  0  0  0
   23.3448   -9.6220  -16.3535 C   0  0  2  0  0  0  0  0  0  0  0  0
   22.7871  -10.2239  -17.5507 N   0  0  0  0  0  0  0  0  0  0  0  0
   23.0580   -8.1819  -16.3426 C   0  0  0  0  0  0  0  0  0  0  0  0
   23.3049   -7.3981  -17.2961 O   0  0  0  0  0  0  0  0  0  0  0  0
   22.4638   -7.6114  -15.1954 N   0  0  0  0  0  0  0  0  0  0  0  0
   22.1610   -6.1779  -15.0724 C   0  0  1  0  0  0  0  0  0  0  0  0
   20.8578   -5.9767  -15.7907 C   0  0  0  0  0  0  0  0  0  0  0  0
   20.2776   -4.6117  -15.6318 C   0  0  0  0  0  0  0  0  0  0  0  0
   18.9386   -4.6167  -16.2727 C   0  0  0  0  0  0  0  0  0  0  0  0
   18.2598   -3.5636  -16.3164 O   0  0  0  0  0  0  0  0  0  0  0  0
   22.1809   -5.7701  -13.6741 C   0  0  0  0  0  0  0  0  0  0  0  0
   22.1750   -4.5531  -13.3779 O   0  0  0  0  0  0  0  0  0  0  0  0
   18.3990   -5.7717  -16.8423 O   0  0  0  0  0  0  0  0  0  0  0  0
   22.2077   -6.6953  -12.6449 O   0  0  0  0  0  0  0  0  0  0  0  0
  2  3  1  0
  2  1  1  0
  3 10  1  0
  4  3  2  0
  6  7  1  0
  6  5  1  0
  9  8  1  6
  8  7  1  0
  9 11  1  0
 10  9  1  0
 11 13  1  0
 11 12  2  0
 13 14  1  0
 14 19  1  0
 14 15  1  1
 16 17  1  0
 16 15  1  0
 17 18  2  0
 19 22  1  0
 20 19  2  0
 21 17  1  0
M  END
$$$$
