GME.pdb
     RDKit          3D

 22 21  0  0  1  0  0  0  0  0999 V2000
   21.9713  -12.7504  -18.6893 N   0  0  0  0  0  0  0  0  0  0  0  0
   21.7740  -11.3243  -18.8527 C   0  0  0  0  0  0  0  0  0  0  0  0
   22.2467  -10.6503  -17.6336 C   0  0  0  0  0  0  0  0  0  0  0  0
   21.4434  -10.3283  -16.6892 O   0  0  0  0  0  0  0  0  0  0  0  0
   27.9233  -13.3817  -15.1188 C   0  0  0  0  0  0  0  0  0  0  0  0
   27.5160  -11.6514  -15.4599 S   0  0  0  0  0  0  0  0  0  0  0  0
   25.7329  -11.3994  -15.6288 C   0  0  0  0  0  0  0  0  0  0  0  0
   25.4924   -9.9410  -15.9232 C   0  0  0  0  0  0  0  0  0  0  0  0
   24.0307   -9.6558  -16.2143 C   0  0  2  0  0  0  0  0  0  0  0  0
   23.6091  -10.3221  -17.4327 N   0  0  0  0  0  0  0  0  0  0  0  0
   23.8573   -8.2046  -16.3571 C   0  0  0  0  0  0  0  0  0  0  0  0
   24.1844   -7.5441  -17.3775 O   0  0  0  0  0  0  0  0  0  0  0  0
   23.2861   -7.4757  -15.2909 N   0  0  0  0  0  0  0  0  0  0  0  0
   22.8126   -6.0900  -15.4236 C   0  0  1  0  0  0  0  0  0  0  0  0
   21.7273   -6.1310  -16.4605 C   0  0  0  0  0  0  0  0  0  0  0  0
   20.9483   -4.8645  -16.5792 C   0  0  0  0  0  0  0  0  0  0  0  0
   19.8587   -5.0989  -17.5598 C   0  0  0  0  0  0  0  0  0  0  0  0
   18.7622   -4.5044  -17.4336 O   0  0  0  0  0  0  0  0  0  0  0  0
   22.4254   -5.5562  -14.1248 C   0  0  0  0  0  0  0  0  0  0  0  0
   22.4793   -4.3226  -13.9149 O   0  0  0  0  0  0  0  0  0  0  0  0
   20.0145   -5.9706  -18.6395 O   0  0  0  0  0  0  0  0  0  0  0  0
   21.9942   -6.3778  -13.0977 O   0  0  0  0  0  0  0  0  0  0  0  0
  2  3  1  0
  2  1  1  0
  3 10  1  0
  4  3  2  0
  6  7  1  0
  6  5  1  0
  9  8  1  6
  8  7  1  0
  9 11  1  0
 10  9  1  0
 11 13  1  0
 11 12  2  0
 13 14  1  0
 14 19  1  0
 14 15  1  6
 16 17  1  0
 16 15  1  0
 17 18  2  0
 19 22  1  0
 20 19  2  0
 21 17  1  0
M  END
$$$$
