GME.pdb
     RDKit          3D

 22 21  0  0  1  0  0  0  0  0999 V2000
   20.1489  -12.1433  -17.7335 N   0  0  0  0  0  0  0  0  0  0  0  0
   21.2381  -11.3745  -18.3009 C   0  0  0  0  0  0  0  0  0  0  0  0
   21.8887  -10.6251  -17.2151 C   0  0  0  0  0  0  0  0  0  0  0  0
   21.5198  -10.7534  -15.9950 O   0  0  0  0  0  0  0  0  0  0  0  0
   27.9579  -12.1491  -15.7013 C   0  0  0  0  0  0  0  0  0  0  0  0
   27.3007  -10.5192  -16.1344 S   0  0  0  0  0  0  0  0  0  0  0  0
   25.4921  -10.4986  -16.1294 C   0  0  0  0  0  0  0  0  0  0  0  0
   25.0398   -9.0786  -16.3536 C   0  0  0  0  0  0  0  0  0  0  0  0
   23.5269   -8.9606  -16.3597 C   0  0  2  0  0  0  0  0  0  0  0  0
   22.9555   -9.7254  -17.4528 N   0  0  0  0  0  0  0  0  0  0  0  0
   23.1694   -7.5438  -16.5056 C   0  0  0  0  0  0  0  0  0  0  0  0
   23.1641   -6.9182  -17.5979 O   0  0  0  0  0  0  0  0  0  0  0  0
   22.8019   -6.8092  -15.3568 N   0  0  0  0  0  0  0  0  0  0  0  0
   22.2998   -5.4283  -15.4090 C   0  0  1  0  0  0  0  0  0  0  0  0
   21.0493   -5.4836  -16.2384 C   0  0  0  0  0  0  0  0  0  0  0  0
   19.9244   -6.2248  -15.5979 C   0  0  0  0  0  0  0  0  0  0  0  0
   18.7387   -6.0899  -16.4809 C   0  0  0  0  0  0  0  0  0  0  0  0
   18.5605   -5.0357  -17.1357 O   0  0  0  0  0  0  0  0  0  0  0  0
   22.1425   -4.8911  -14.0642 C   0  0  0  0  0  0  0  0  0  0  0  0
   22.3039   -5.6365  -13.0707 O   0  0  0  0  0  0  0  0  0  0  0  0
   17.7992   -7.1142  -16.6141 O   0  0  0  0  0  0  0  0  0  0  0  0
   21.8146   -3.5647  -13.8424 O   0  0  0  0  0  0  0  0  0  0  0  0
  2  3  1  0
  2  1  1  0
  3 10  1  0
  4  3  2  0
  6  7  1  0
  6  5  1  0
  9  8  1  6
  8  7  1  0
  9 11  1  0
 10  9  1  0
 11 13  1  0
 11 12  2  0
 13 14  1  0
 14 19  1  0
 14 15  1  1
 16 17  1  0
 16 15  1  0
 17 18  2  0
 19 22  1  0
 20 19  2  0
 21 17  1  0
M  END
$$$$
