GME.pdb
     RDKit          3D

 22 21  0  0  1  0  0  0  0  0999 V2000
   21.0386  -13.0840  -19.6460 N   0  0  0  0  0  0  0  0  0  0  0  0
   20.7249  -11.6696  -19.6623 C   0  0  0  0  0  0  0  0  0  0  0  0
   21.3744  -11.0394  -18.5026 C   0  0  0  0  0  0  0  0  0  0  0  0
   20.8386  -11.0593  -17.3393 O   0  0  0  0  0  0  0  0  0  0  0  0
   27.0239  -11.3349  -15.4482 C   0  0  0  0  0  0  0  0  0  0  0  0
   25.5296  -10.3734  -15.1040 S   0  0  0  0  0  0  0  0  0  0  0  0
   25.3004   -9.0335  -16.2972 C   0  0  0  0  0  0  0  0  0  0  0  0
   24.6895   -9.6177  -17.5449 C   0  0  0  0  0  0  0  0  0  0  0  0
   23.1756   -9.6783  -17.4591 C   0  0  2  0  0  0  0  0  0  0  0  0
   22.6231  -10.3799  -18.6031 N   0  0  0  0  0  0  0  0  0  0  0  0
   22.6546   -8.3060  -17.4198 C   0  0  0  0  0  0  0  0  0  0  0  0
   22.7294   -7.4869  -18.3728 O   0  0  0  0  0  0  0  0  0  0  0  0
   22.0208   -7.8482  -16.2437 N   0  0  0  0  0  0  0  0  0  0  0  0
   21.4510   -6.4997  -16.1072 C   0  0  1  0  0  0  0  0  0  0  0  0
   19.9702   -6.6995  -15.9590 C   0  0  0  0  0  0  0  0  0  0  0  0
   19.2405   -6.8387  -17.2524 C   0  0  0  0  0  0  0  0  0  0  0  0
   18.4306   -8.0807  -17.1786 C   0  0  0  0  0  0  0  0  0  0  0  0
   18.3797   -8.7341  -16.1098 O   0  0  0  0  0  0  0  0  0  0  0  0
   22.1025   -5.7775  -15.0229 C   0  0  0  0  0  0  0  0  0  0  0  0
   22.7645   -6.4041  -14.1639 O   0  0  0  0  0  0  0  0  0  0  0  0
   17.7074   -8.5546  -18.2749 O   0  0  0  0  0  0  0  0  0  0  0  0
   22.0133   -4.4011  -14.9062 O   0  0  0  0  0  0  0  0  0  0  0  0
  2  3  1  0
  2  1  1  0
  3 10  1  0
  4  3  2  0
  6  7  1  0
  6  5  1  0
  9  8  1  6
  8  7  1  0
  9 11  1  0
 10  9  1  0
 11 13  1  0
 11 12  2  0
 13 14  1  0
 14 19  1  0
 14 15  1  1
 16 17  1  0
 16 15  1  0
 17 18  2  0
 19 22  1  0
 20 19  2  0
 21 17  1  0
M  END
$$$$
