CSL.pdb
     RDKit          3D

 21 20  0  0  1  0  0  0  0  0999 V2000
    8.2451  -14.7945   17.5437 N   0  0  0  0  0  0  0  0  0  0  0  0
    8.7715  -14.2153   18.7606 C   0  0  1  0  0  0  0  0  0  0  0  0
    8.0797  -12.8552   18.9165 C   0  0  0  0  0  0  0  0  0  0  0  0
    9.2295  -11.5655   19.3955 S   0  0  0  0  0  0  0  0  0  0  0  0
    8.3804  -15.0292   19.9115 C   0  0  0  0  0  0  0  0  0  0  0  0
    7.2041  -15.5312   19.9131 O   0  0  0  0  0  0  0  0  0  0  0  0
   10.5691  -17.5481   22.0267 O   0  0  0  0  0  0  0  0  0  0  0  0
    9.1813  -17.4594   21.9972 C   0  0  0  0  0  0  0  0  0  0  0  0
    8.7011  -16.0254   22.1099 C   0  0  2  0  0  0  0  0  0  0  0  0
    9.2306  -15.2924   21.0232 N   0  0  0  0  0  0  0  0  0  0  0  0
    9.0769  -15.5242   23.4485 C   0  0  0  0  0  0  0  0  0  0  0  0
   10.2648  -15.1768   23.6065 O   0  0  0  0  0  0  0  0  0  0  0  0
    5.8317  -12.4510   26.8043 C   0  0  0  0  0  0  0  0  0  0  0  0
    7.0460  -12.9699   26.0145 C   0  0  1  0  0  0  0  0  0  0  0  0
    8.1498  -11.9181   26.3260 C   0  0  0  0  0  0  0  0  0  0  0  0
    7.4004  -14.2764   26.6095 C   0  0  0  0  0  0  0  0  0  0  0  0
    8.4818  -15.0573   25.8895 C   0  0  2  0  0  0  0  0  0  0  0  0
    8.1863  -15.4173   24.5391 N   0  0  0  0  0  0  0  0  0  0  0  0
    8.9275  -16.1346   26.7679 C   0  0  0  0  0  0  0  0  0  0  0  0
    8.7651  -17.3340   26.4336 O   0  0  0  0  0  0  0  0  0  0  0  0
    9.5367  -15.8805   27.9837 O   0  0  0  0  0  0  0  0  0  0  0  0
  2  1  1  6
  2  3  1  0
  3  4  1  0
  5  6  2  0
  5  2  1  0
  7  8  1  0
  9  8  1  6
  9 10  1  0
 10  5  1  0
 11  9  1  0
 11 12  2  0
 14 15  1  1
 14 13  1  0
 16 14  1  0
 17 18  1  0
 17 16  1  1
 18 11  1  0
 19 17  1  0
 20 19  2  0
 21 19  1  0
M  END
$$$$
