CSL.pdb
     RDKit          3D

 21 20  0  0  1  0  0  0  0  0999 V2000
    8.0521  -15.1705   17.3913 N   0  0  0  0  0  0  0  0  0  0  0  0
    8.6324  -14.5106   18.5407 C   0  0  1  0  0  0  0  0  0  0  0  0
    8.2262  -13.0354   18.4325 C   0  0  0  0  0  0  0  0  0  0  0  0
    8.8291  -12.0674   19.8160 S   0  0  0  0  0  0  0  0  0  0  0  0
    8.0343  -15.0304   19.7704 C   0  0  0  0  0  0  0  0  0  0  0  0
    6.7601  -15.1319   19.8157 O   0  0  0  0  0  0  0  0  0  0  0  0
    9.4762  -17.8457   22.1798 O   0  0  0  0  0  0  0  0  0  0  0  0
    8.1630  -17.3964   22.0881 C   0  0  0  0  0  0  0  0  0  0  0  0
    8.0819  -15.8825   22.0507 C   0  0  2  0  0  0  0  0  0  0  0  0
    8.7863  -15.4274   20.9127 N   0  0  0  0  0  0  0  0  0  0  0  0
    8.5787  -15.3687   23.3443 C   0  0  0  0  0  0  0  0  0  0  0  0
    9.8015  -15.1341   23.4246 O   0  0  0  0  0  0  0  0  0  0  0  0
    5.5794  -12.2129   26.9904 C   0  0  0  0  0  0  0  0  0  0  0  0
    6.6782  -12.7321   26.0466 C   0  0  1  0  0  0  0  0  0  0  0  0
    7.7959  -11.6570   26.1753 C   0  0  0  0  0  0  0  0  0  0  0  0
    7.1371  -14.0189   26.6123 C   0  0  0  0  0  0  0  0  0  0  0  0
    8.1706  -14.7676   25.7944 C   0  0  2  0  0  0  0  0  0  0  0  0
    7.7652  -15.1320   24.4740 N   0  0  0  0  0  0  0  0  0  0  0  0
    8.7224  -15.8346   26.6237 C   0  0  0  0  0  0  0  0  0  0  0  0
    8.3781  -17.0273   26.4351 O   0  0  0  0  0  0  0  0  0  0  0  0
    9.6320  -15.5778   27.6339 O   0  0  0  0  0  0  0  0  0  0  0  0
  2  1  1  6
  2  3  1  0
  3  4  1  0
  5  6  2  0
  5  2  1  0
  7  8  1  0
  9  8  1  1
  9 10  1  0
 10  5  1  0
 11  9  1  0
 11 12  2  0
 14 15  1  1
 14 13  1  0
 16 14  1  0
 17 18  1  0
 17 16  1  1
 18 11  1  0
 19 17  1  0
 20 19  2  0
 21 19  1  0
M  END
$$$$
