CSL.pdb
     RDKit          3D

 21 20  0  0  1  0  0  0  0  0999 V2000
    7.5304  -20.4332   22.1167 N   0  0  0  0  0  0  0  0  0  0  0  0
    7.0293  -19.3051   22.8715 C   0  0  1  0  0  0  0  0  0  0  0  0
    7.2425  -19.6555   24.3495 C   0  0  0  0  0  0  0  0  0  0  0  0
    5.9190  -20.6769   24.9974 S   0  0  0  0  0  0  0  0  0  0  0  0
    7.8373  -18.1181   22.5919 C   0  0  0  0  0  0  0  0  0  0  0  0
    9.1010  -18.2735   22.4702 O   0  0  0  0  0  0  0  0  0  0  0  0
    6.1570  -14.5190   21.7492 O   0  0  0  0  0  0  0  0  0  0  0  0
    7.4609  -14.7268   21.3117 C   0  0  0  0  0  0  0  0  0  0  0  0
    8.1903  -15.7473   22.1639 C   0  0  2  0  0  0  0  0  0  0  0  0
    7.2993  -16.8074   22.4485 N   0  0  0  0  0  0  0  0  0  0  0  0
    8.7321  -15.0471   23.3473 C   0  0  0  0  0  0  0  0  0  0  0  0
    8.9545  -13.8255   23.2256 O   0  0  0  0  0  0  0  0  0  0  0  0
    6.0468  -12.5025   26.0794 C   0  0  0  0  0  0  0  0  0  0  0  0
    7.4236  -13.0379   25.6488 C   0  0  1  0  0  0  0  0  0  0  0  0
    8.4186  -12.1403   26.4402 C   0  0  0  0  0  0  0  0  0  0  0  0
    7.4960  -14.4333   26.1326 C   0  0  0  0  0  0  0  0  0  0  0  0
    8.8142  -15.1445   25.8997 C   0  0  2  0  0  0  0  0  0  0  0  0
    9.0077  -15.6686   24.5850 N   0  0  0  0  0  0  0  0  0  0  0  0
    9.0357  -16.0683   27.0079 C   0  0  0  0  0  0  0  0  0  0  0  0
    9.1973  -15.6328   28.1744 O   0  0  0  0  0  0  0  0  0  0  0  0
    9.0757  -17.4383   26.8194 O   0  0  0  0  0  0  0  0  0  0  0  0
  2  1  1  6
  2  3  1  0
  3  4  1  0
  5  6  2  0
  5  2  1  0
  7  8  1  0
  9  8  1  6
  9 10  1  0
 10  5  1  0
 11  9  1  0
 11 12  2  0
 14 15  1  1
 14 13  1  0
 16 14  1  0
 17 18  1  0
 17 16  1  6
 18 11  1  0
 19 17  1  0
 20 19  2  0
 21 19  1  0
M  END
$$$$
