CSL.pdb
     RDKit          3D

 21 20  0  0  1  0  0  0  0  0999 V2000
    7.5164  -15.0694   17.9010 N   0  0  0  0  0  0  0  0  0  0  0  0
    8.2967  -14.4815   18.9682 C   0  0  1  0  0  0  0  0  0  0  0  0
    7.8423  -13.0200   19.0701 C   0  0  0  0  0  0  0  0  0  0  0  0
    8.7117  -12.1328   20.3630 S   0  0  0  0  0  0  0  0  0  0  0  0
    7.9658  -15.1226   20.2409 C   0  0  0  0  0  0  0  0  0  0  0  0
    6.7295  -15.3133   20.5075 O   0  0  0  0  0  0  0  0  0  0  0  0
   10.3302  -17.6694   22.3653 O   0  0  0  0  0  0  0  0  0  0  0  0
    8.9454  -17.5651   22.4431 C   0  0  0  0  0  0  0  0  0  0  0  0
    8.4811  -16.1221   22.4005 C   0  0  2  0  0  0  0  0  0  0  0  0
    8.9367  -15.5436   21.1937 N   0  0  0  0  0  0  0  0  0  0  0  0
    8.9519  -15.4566   23.6333 C   0  0  0  0  0  0  0  0  0  0  0  0
   10.1781  -15.2457   23.7260 O   0  0  0  0  0  0  0  0  0  0  0  0
    5.5889  -12.2200   26.8294 C   0  0  0  0  0  0  0  0  0  0  0  0
    6.7375  -12.7370   25.9456 C   0  0  1  0  0  0  0  0  0  0  0  0
    7.6603  -11.4929   25.7964 C   0  0  0  0  0  0  0  0  0  0  0  0
    7.4201  -13.7907   26.7268 C   0  0  0  0  0  0  0  0  0  0  0  0
    8.4846  -14.5755   25.9862 C   0  0  2  0  0  0  0  0  0  0  0  0
    8.1103  -15.0529   24.6929 N   0  0  0  0  0  0  0  0  0  0  0  0
    9.0477  -15.5597   26.9055 C   0  0  0  0  0  0  0  0  0  0  0  0
    9.5709  -15.1921   27.9861 O   0  0  0  0  0  0  0  0  0  0  0  0
    9.0273  -16.9147   26.6267 O   0  0  0  0  0  0  0  0  0  0  0  0
  2  1  1  6
  2  3  1  0
  3  4  1  0
  5  6  2  0
  5  2  1  0
  7  8  1  0
  9  8  1  1
  9 10  1  0
 10  5  1  0
 11  9  1  0
 11 12  2  0
 14 15  1  1
 14 13  1  0
 16 14  1  0
 17 18  1  0
 17 16  1  1
 18 11  1  0
 19 17  1  0
 20 19  2  0
 21 19  1  0
M  END
$$$$
