CSL.pdb
     RDKit          3D

 21 20  0  0  1  0  0  0  0  0999 V2000
    8.1562  -15.2524   17.0284 N   0  0  0  0  0  0  0  0  0  0  0  0
    9.0855  -15.0287   18.1146 C   0  0  1  0  0  0  0  0  0  0  0  0
    9.3594  -13.5196   18.1341 C   0  0  0  0  0  0  0  0  0  0  0  0
    8.0001  -12.5974   18.8527 S   0  0  0  0  0  0  0  0  0  0  0  0
    8.4538  -15.3659   19.3903 C   0  0  0  0  0  0  0  0  0  0  0  0
    7.1775  -15.3136   19.4546 O   0  0  0  0  0  0  0  0  0  0  0  0
   10.1183  -17.7456   22.3206 O   0  0  0  0  0  0  0  0  0  0  0  0
    8.7705  -17.5730   22.0228 C   0  0  0  0  0  0  0  0  0  0  0  0
    8.4399  -16.1281   21.7027 C   0  0  2  0  0  0  0  0  0  0  0  0
    9.1756  -15.7467   20.5573 N   0  0  0  0  0  0  0  0  0  0  0  0
    8.7013  -15.3229   22.9141 C   0  0  0  0  0  0  0  0  0  0  0  0
    9.8809  -14.9667   23.1096 O   0  0  0  0  0  0  0  0  0  0  0  0
    7.8811  -11.5952   26.5807 C   0  0  0  0  0  0  0  0  0  0  0  0
    6.9221  -12.7612   26.8780 C   0  0  1  0  0  0  0  0  0  0  0  0
    5.6106  -12.0431   27.3093 C   0  0  0  0  0  0  0  0  0  0  0  0
    6.7206  -13.4699   25.5960 C   0  0  0  0  0  0  0  0  0  0  0  0
    7.8899  -14.3051   25.1134 C   0  0  2  0  0  0  0  0  0  0  0  0
    7.7120  -14.9403   23.8463 N   0  0  0  0  0  0  0  0  0  0  0  0
    8.3252  -15.1591   26.2143 C   0  0  0  0  0  0  0  0  0  0  0  0
    7.7588  -16.2596   26.4258 O   0  0  0  0  0  0  0  0  0  0  0  0
    9.3623  -14.7953   27.0545 O   0  0  0  0  0  0  0  0  0  0  0  0
  2  1  1  6
  2  3  1  0
  3  4  1  0
  5  6  2  0
  5  2  1  0
  7  8  1  0
  9  8  1  1
  9 10  1  0
 10  5  1  0
 11  9  1  0
 11 12  2  0
 14 15  1  6
 14 13  1  0
 16 14  1  0
 17 18  1  0
 17 16  1  1
 18 11  1  0
 19 17  1  0
 20 19  2  0
 21 19  1  0
M  END
$$$$
