CSL.pdb
     RDKit          3D

 21 20  0  0  1  0  0  0  0  0999 V2000
    7.1385  -20.0380   21.5237 N   0  0  0  0  0  0  0  0  0  0  0  0
    6.6186  -18.7914   22.0423 C   0  0  1  0  0  0  0  0  0  0  0  0
    6.3870  -19.0195   23.5413 C   0  0  0  0  0  0  0  0  0  0  0  0
    4.8345  -19.8566   23.8636 S   0  0  0  0  0  0  0  0  0  0  0  0
    7.6278  -17.7395   21.9200 C   0  0  0  0  0  0  0  0  0  0  0  0
    8.8409  -18.0447   22.1866 O   0  0  0  0  0  0  0  0  0  0  0  0
    6.6966  -13.9122   20.7969 O   0  0  0  0  0  0  0  0  0  0  0  0
    7.9638  -14.3740   20.4566 C   0  0  0  0  0  0  0  0  0  0  0  0
    8.4171  -15.5057   21.3586 C   0  0  2  0  0  0  0  0  0  0  0  0
    7.3373  -16.4030   21.5232 N   0  0  0  0  0  0  0  0  0  0  0  0
    8.9360  -14.9110   22.6081 C   0  0  0  0  0  0  0  0  0  0  0  0
    9.4310  -13.7687   22.5247 O   0  0  0  0  0  0  0  0  0  0  0  0
    8.2088  -12.1797   26.5333 C   0  0  0  0  0  0  0  0  0  0  0  0
    7.2608  -13.3916   26.5515 C   0  0  1  0  0  0  0  0  0  0  0  0
    5.8495  -12.7393   26.6170 C   0  0  0  0  0  0  0  0  0  0  0  0
    7.4464  -14.0830   25.2577 C   0  0  0  0  0  0  0  0  0  0  0  0
    8.6771  -14.9614   25.1500 C   0  0  2  0  0  0  0  0  0  0  0  0
    8.9049  -15.5483   23.8678 N   0  0  0  0  0  0  0  0  0  0  0  0
    8.6907  -15.8690   26.2931 C   0  0  0  0  0  0  0  0  0  0  0  0
    7.8541  -16.8020   26.3725 O   0  0  0  0  0  0  0  0  0  0  0  0
    9.6113  -15.7390   27.3177 O   0  0  0  0  0  0  0  0  0  0  0  0
  2  1  1  1
  2  3  1  0
  3  4  1  0
  5  6  2  0
  5  2  1  0
  7  8  1  0
  9  8  1  6
  9 10  1  0
 10  5  1  0
 11  9  1  0
 11 12  2  0
 14 15  1  6
 14 13  1  0
 16 14  1  0
 17 18  1  0
 17 16  1  6
 18 11  1  0
 19 17  1  0
 20 19  2  0
 21 19  1  0
M  END
$$$$
