CSL.pdb
     RDKit          3D

 21 20  0  0  1  0  0  0  0  0999 V2000
    8.1016  -14.5043   17.5892 N   0  0  0  0  0  0  0  0  0  0  0  0
    9.0960  -14.5239   18.6399 C   0  0  1  0  0  0  0  0  0  0  0  0
    9.5123  -13.0637   18.8570 C   0  0  0  0  0  0  0  0  0  0  0  0
    8.2329  -12.1132   19.6782 S   0  0  0  0  0  0  0  0  0  0  0  0
    8.4935  -14.9878   19.8897 C   0  0  0  0  0  0  0  0  0  0  0  0
    7.2257  -14.8764   20.0164 O   0  0  0  0  0  0  0  0  0  0  0  0
   10.1927  -17.7490   22.4162 O   0  0  0  0  0  0  0  0  0  0  0  0
    8.8324  -17.5197   22.2381 C   0  0  0  0  0  0  0  0  0  0  0  0
    8.5206  -16.0437   22.0834 C   0  0  2  0  0  0  0  0  0  0  0  0
    9.2346  -15.5530   20.9664 N   0  0  0  0  0  0  0  0  0  0  0  0
    8.8266  -15.3776   23.3668 C   0  0  0  0  0  0  0  0  0  0  0  0
   10.0113  -15.0345   23.5545 O   0  0  0  0  0  0  0  0  0  0  0  0
    7.8441  -11.9507   25.7848 C   0  0  0  0  0  0  0  0  0  0  0  0
    7.0218  -12.6745   26.8654 C   0  0  1  0  0  0  0  0  0  0  0  0
    5.6408  -11.9602   26.8006 C   0  0  0  0  0  0  0  0  0  0  0  0
    6.8942  -14.0784   26.4187 C   0  0  0  0  0  0  0  0  0  0  0  0
    8.1023  -14.6570   25.7092 C   0  0  2  0  0  0  0  0  0  0  0  0
    7.8738  -15.1117   24.3745 N   0  0  0  0  0  0  0  0  0  0  0  0
    8.7554  -15.5976   26.6145 C   0  0  0  0  0  0  0  0  0  0  0  0
    9.3114  -15.1872   27.6629 O   0  0  0  0  0  0  0  0  0  0  0  0
    8.7868  -16.9565   26.3571 O   0  0  0  0  0  0  0  0  0  0  0  0
  2  1  1  6
  2  3  1  0
  3  4  1  0
  5  6  2  0
  5  2  1  0
  7  8  1  0
  9  8  1  1
  9 10  1  0
 10  5  1  0
 11  9  1  0
 11 12  2  0
 14 15  1  6
 14 13  1  0
 16 14  1  0
 17 18  1  0
 17 16  1  1
 18 11  1  0
 19 17  1  0
 20 19  2  0
 21 19  1  0
M  END
$$$$
