CSL.pdb
     RDKit          3D

 21 20  0  0  1  0  0  0  0  0999 V2000
    7.9829  -20.5039   23.7696 N   0  0  0  0  0  0  0  0  0  0  0  0
    7.0147  -19.5126   23.3532 C   0  0  1  0  0  0  0  0  0  0  0  0
    6.2295  -19.1310   24.6144 C   0  0  0  0  0  0  0  0  0  0  0  0
    6.8979  -17.6684   25.4074 S   0  0  0  0  0  0  0  0  0  0  0  0
    7.7014  -18.3051   22.8944 C   0  0  0  0  0  0  0  0  0  0  0  0
    8.9293  -18.1584   23.2209 O   0  0  0  0  0  0  0  0  0  0  0  0
    5.8597  -15.0875   20.9797 O   0  0  0  0  0  0  0  0  0  0  0  0
    7.1301  -15.4798   20.5710 C   0  0  0  0  0  0  0  0  0  0  0  0
    7.8803  -16.2088   21.6689 C   0  0  2  0  0  0  0  0  0  0  0  0
    7.0834  -17.2902   22.1096 N   0  0  0  0  0  0  0  0  0  0  0  0
    8.2324  -15.2221   22.7113 C   0  0  0  0  0  0  0  0  0  0  0  0
    8.9976  -14.2961   22.3743 O   0  0  0  0  0  0  0  0  0  0  0  0
    7.6397  -11.3642   25.9831 C   0  0  0  0  0  0  0  0  0  0  0  0
    7.0062  -12.5925   26.6596 C   0  0  1  0  0  0  0  0  0  0  0  0
    5.6525  -12.0447   27.1973 C   0  0  0  0  0  0  0  0  0  0  0  0
    6.7689  -13.5812   25.5859 C   0  0  0  0  0  0  0  0  0  0  0  0
    7.9937  -14.3255   25.0924 C   0  0  2  0  0  0  0  0  0  0  0  0
    7.7619  -15.2653   24.0420 N   0  0  0  0  0  0  0  0  0  0  0  0
    8.7280  -14.8162   26.2547 C   0  0  0  0  0  0  0  0  0  0  0  0
    8.9379  -14.0628   27.2370 O   0  0  0  0  0  0  0  0  0  0  0  0
    9.2136  -16.1100   26.3186 O   0  0  0  0  0  0  0  0  0  0  0  0
  2  1  1  1
  2  3  1  0
  3  4  1  0
  5  6  2  0
  5  2  1  0
  7  8  1  0
  9  8  1  6
  9 10  1  0
 10  5  1  0
 11  9  1  0
 11 12  2  0
 14 15  1  6
 14 13  1  0
 16 14  1  0
 17 18  1  0
 17 16  1  1
 18 11  1  0
 19 17  1  0
 20 19  2  0
 21 19  1  0
M  END
$$$$
