CSL.pdb
     RDKit          3D

 21 20  0  0  1  0  0  0  0  0999 V2000
    7.7745  -14.9886   17.7259 N   0  0  0  0  0  0  0  0  0  0  0  0
    8.5226  -14.3877   18.8087 C   0  0  1  0  0  0  0  0  0  0  0  0
    7.9867  -12.9576   18.9519 C   0  0  0  0  0  0  0  0  0  0  0  0
    8.7846  -12.0699   20.2898 S   0  0  0  0  0  0  0  0  0  0  0  0
    8.2313  -15.0818   20.0631 C   0  0  0  0  0  0  0  0  0  0  0  0
    7.0396  -15.5097   20.2437 O   0  0  0  0  0  0  0  0  0  0  0  0
   10.8191  -17.3623   22.0158 O   0  0  0  0  0  0  0  0  0  0  0  0
    9.4341  -17.4322   22.1231 C   0  0  0  0  0  0  0  0  0  0  0  0
    8.8016  -16.0573   22.2198 C   0  0  2  0  0  0  0  0  0  0  0  0
    9.1941  -15.3066   21.0880 N   0  0  0  0  0  0  0  0  0  0  0  0
    9.1808  -15.4733   23.5235 C   0  0  0  0  0  0  0  0  0  0  0  0
   10.4007  -15.3302   23.7427 O   0  0  0  0  0  0  0  0  0  0  0  0
    5.5303  -12.5083   26.7565 C   0  0  0  0  0  0  0  0  0  0  0  0
    6.7669  -12.8956   25.9267 C   0  0  1  0  0  0  0  0  0  0  0  0
    7.6858  -11.6459   26.0517 C   0  0  0  0  0  0  0  0  0  0  0  0
    7.3804  -14.0534   26.6121 C   0  0  0  0  0  0  0  0  0  0  0  0
    8.5231  -14.7253   25.8769 C   0  0  2  0  0  0  0  0  0  0  0  0
    8.2599  -15.0752   24.5172 N   0  0  0  0  0  0  0  0  0  0  0  0
    9.0546  -15.7836   26.7303 C   0  0  0  0  0  0  0  0  0  0  0  0
    9.5135  -15.5117   27.8670 O   0  0  0  0  0  0  0  0  0  0  0  0
    9.0732  -17.1068   26.3266 O   0  0  0  0  0  0  0  0  0  0  0  0
  2  1  1  6
  2  3  1  0
  3  4  1  0
  5  6  2  0
  5  2  1  0
  7  8  1  0
  9  8  1  6
  9 10  1  0
 10  5  1  0
 11  9  1  0
 11 12  2  0
 14 15  1  1
 14 13  1  0
 16 14  1  0
 17 18  1  0
 17 16  1  1
 18 11  1  0
 19 17  1  0
 20 19  2  0
 21 19  1  0
M  END
$$$$
