LSF.pdb
     RDKit          3D

 26 26  0  0  1  0  0  0  0  0999 V2000
    7.2758  -11.7797   20.0407 C   0  0  0  0  0  0  0  0  0  0  0  0
    7.9074  -13.1277   19.8067 C   0  0  1  0  0  0  0  0  0  0  0  0
    9.3871  -13.0326   19.6046 C   0  0  0  0  0  0  0  0  0  0  0  0
    7.5641  -14.0593   20.9456 C   0  0  0  0  0  0  0  0  0  0  0  0
    8.1385  -15.4376   20.7368 C   0  0  2  0  0  0  0  0  0  0  0  0
    7.3923  -16.1984   19.7727 N   0  0  0  0  0  0  0  0  0  0  0  0
    8.1565  -16.1317   22.0511 C   0  0  0  0  0  0  0  0  0  0  0  0
    7.0979  -16.4906   22.6157 O   0  0  0  0  0  0  0  0  0  0  0  0
   11.5436  -18.1701   23.4417 O   0  0  0  0  0  0  0  0  0  0  0  0
   10.2733  -18.3740   23.9491 C   0  0  0  0  0  0  0  0  0  0  0  0
    9.4465  -17.1228   23.9819 C   0  0  2  0  0  0  0  0  0  0  0  0
    9.3631  -16.4308   22.7463 N   0  0  0  0  0  0  0  0  0  0  0  0
    9.8905  -16.2053   25.0581 C   0  0  0  0  0  0  0  0  0  0  0  0
   10.7264  -15.3024   24.8003 O   0  0  0  0  0  0  0  0  0  0  0  0
    9.4143  -16.2904   26.3944 N   0  0  0  0  0  0  0  0  0  0  0  0
    9.9421  -15.4980   27.4893 C   0  0  1  0  0  0  0  0  0  0  0  0
    8.7897  -14.8106   28.1625 C   0  0  0  0  0  0  0  0  0  0  0  0
    8.0946  -13.8215   27.3130 C   0  0  0  0  0  0  0  0  0  0  0  0
    8.5934  -12.5397   27.1295 C   0  0  0  0  0  0  0  0  0  0  0  0
    7.9604  -11.6048   26.3385 C   0  0  0  0  0  0  0  0  0  0  0  0
    6.7903  -12.0128   25.7300 C   0  0  0  0  0  0  0  0  0  0  0  0
    6.2768  -13.2826   25.8990 C   0  0  0  0  0  0  0  0  0  0  0  0
    6.9272  -14.1950   26.6924 C   0  0  0  0  0  0  0  0  0  0  0  0
   10.7365  -16.3733   28.3497 C   0  0  0  0  0  0  0  0  0  0  0  0
   10.8841  -17.7376   28.1673 O   0  0  0  0  0  0  0  0  0  0  0  0
   11.3350  -15.8620   29.3311 O   0  0  0  0  0  0  0  0  0  0  0  0
  2  1  1  1
  2  4  1  0
  3  2  1  0
  5  4  1  0
  5  6  1  6
  7  5  1  0
  7  8  2  0
  9 10  1  0
 11 10  1  6
 11 12  1  0
 11 13  1  0
 12  7  1  0
 13 15  1  0
 14 13  2  0
 15 16  1  0
 16 24  1  0
 17 18  1  0
 16 17  1  1
 18 19  2  0
 19 20  1  0
 21 20  2  0
 22 21  1  0
 23 22  2  0
 23 18  1  0
 24 26  2  0
 24 25  1  0
M  END
$$$$
