LSF.pdb
     RDKit          3D

 26 26  0  0  1  0  0  0  0  0999 V2000
    7.2660  -12.1103   19.5736 C   0  0  0  0  0  0  0  0  0  0  0  0
    7.6860  -13.4089   18.9347 C   0  0  1  0  0  0  0  0  0  0  0  0
    8.9336  -13.2628   18.1215 C   0  0  0  0  0  0  0  0  0  0  0  0
    7.8387  -14.4754   19.9940 C   0  0  0  0  0  0  0  0  0  0  0  0
    8.3026  -15.7856   19.4096 C   0  0  2  0  0  0  0  0  0  0  0  0
    7.2842  -16.4202   18.6188 N   0  0  0  0  0  0  0  0  0  0  0  0
    8.7195  -16.6671   20.5314 C   0  0  0  0  0  0  0  0  0  0  0  0
    7.8820  -17.1653   21.3178 O   0  0  0  0  0  0  0  0  0  0  0  0
   12.8683  -17.7591   21.2496 O   0  0  0  0  0  0  0  0  0  0  0  0
   11.7964  -18.5430   21.6361 C   0  0  0  0  0  0  0  0  0  0  0  0
   10.5504  -17.7480   21.8930 C   0  0  2  0  0  0  0  0  0  0  0  0
   10.0816  -16.9991   20.7831 N   0  0  0  0  0  0  0  0  0  0  0  0
   10.6984  -16.8730   23.0802 C   0  0  0  0  0  0  0  0  0  0  0  0
   10.8841  -15.6395   22.9247 O   0  0  0  0  0  0  0  0  0  0  0  0
   10.6410  -17.3604   24.4140 N   0  0  0  0  0  0  0  0  0  0  0  0
   10.9594  -16.5567   25.5794 C   0  0  1  0  0  0  0  0  0  0  0  0
    9.6685  -16.1374   26.2209 C   0  0  0  0  0  0  0  0  0  0  0  0
    9.8355  -15.3031   27.4289 C   0  0  0  0  0  0  0  0  0  0  0  0
    9.6832  -13.9245   27.3894 C   0  0  0  0  0  0  0  0  0  0  0  0
    9.8323  -13.1306   28.5065 C   0  0  0  0  0  0  0  0  0  0  0  0
   10.1448  -13.7842   29.6817 C   0  0  0  0  0  0  0  0  0  0  0  0
   10.3007  -15.1541   29.7431 C   0  0  0  0  0  0  0  0  0  0  0  0
   10.1466  -15.9220   28.6154 C   0  0  0  0  0  0  0  0  0  0  0  0
   11.8619  -17.3249   26.4355 C   0  0  0  0  0  0  0  0  0  0  0  0
   11.7134  -18.6682   26.7354 O   0  0  0  0  0  0  0  0  0  0  0  0
   12.8497  -16.7339   26.9432 O   0  0  0  0  0  0  0  0  0  0  0  0
  2  1  1  1
  2  4  1  0
  3  2  1  0
  5  4  1  0
  5  6  1  1
  7  5  1  0
  7  8  2  0
  9 10  1  0
 11 10  1  6
 11 12  1  0
 11 13  1  0
 12  7  1  0
 13 15  1  0
 14 13  2  0
 15 16  1  0
 16 24  1  0
 17 18  1  0
 16 17  1  1
 18 19  2  0
 19 20  1  0
 21 20  2  0
 22 21  1  0
 23 22  2  0
 23 18  1  0
 24 26  2  0
 24 25  1  0
M  END
$$$$
