LSF.pdb
     RDKit          3D

 26 26  0  0  1  0  0  0  0  0999 V2000
    7.6974  -11.7786   20.2689 C   0  0  0  0  0  0  0  0  0  0  0  0
    7.8145  -13.2540   19.9856 C   0  0  1  0  0  0  0  0  0  0  0  0
    9.0542  -13.5866   19.2165 C   0  0  0  0  0  0  0  0  0  0  0  0
    7.7413  -14.0316   21.2790 C   0  0  0  0  0  0  0  0  0  0  0  0
    7.8616  -15.5169   21.0493 C   0  0  2  0  0  0  0  0  0  0  0  0
    6.6843  -16.0709   20.4391 N   0  0  0  0  0  0  0  0  0  0  0  0
    8.1259  -16.1647   22.3607 C   0  0  0  0  0  0  0  0  0  0  0  0
    7.2270  -16.2834   23.2245 O   0  0  0  0  0  0  0  0  0  0  0  0
   11.4353  -18.3841   22.6353 O   0  0  0  0  0  0  0  0  0  0  0  0
   10.7667  -18.3942   23.8459 C   0  0  0  0  0  0  0  0  0  0  0  0
    9.7095  -17.3342   23.9414 C   0  0  2  0  0  0  0  0  0  0  0  0
    9.4024  -16.6866   22.7172 N   0  0  0  0  0  0  0  0  0  0  0  0
   10.0344  -16.3345   24.9866 C   0  0  0  0  0  0  0  0  0  0  0  0
   10.8105  -15.3830   24.7175 O   0  0  0  0  0  0  0  0  0  0  0  0
    9.5063  -16.3921   26.3048 N   0  0  0  0  0  0  0  0  0  0  0  0
    9.9842  -15.5694   27.4003 C   0  0  1  0  0  0  0  0  0  0  0  0
    8.7939  -14.9280   28.0527 C   0  0  0  0  0  0  0  0  0  0  0  0
    8.0756  -13.9669   27.1905 C   0  0  0  0  0  0  0  0  0  0  0  0
    6.9027  -14.3117   26.5340 C   0  0  0  0  0  0  0  0  0  0  0  0
    6.2175  -13.4276   25.7283 C   0  0  0  0  0  0  0  0  0  0  0  0
    6.7636  -12.1655   25.6054 C   0  0  0  0  0  0  0  0  0  0  0  0
    7.9288  -11.8019   26.2494 C   0  0  0  0  0  0  0  0  0  0  0  0
    8.5919  -12.7018   27.0466 C   0  0  0  0  0  0  0  0  0  0  0  0
   10.8042  -16.4029   28.2780 C   0  0  0  0  0  0  0  0  0  0  0  0
   11.0237  -17.7582   28.1013 O   0  0  0  0  0  0  0  0  0  0  0  0
   11.3564  -15.8612   29.2703 O   0  0  0  0  0  0  0  0  0  0  0  0
  2  1  1  1
  2  4  1  0
  3  2  1  0
  5  4  1  0
  5  6  1  1
  7  5  1  0
  7  8  2  0
  9 10  1  0
 11 10  1  6
 11 12  1  0
 11 13  1  0
 12  7  1  0
 13 15  1  0
 14 13  2  0
 15 16  1  0
 16 24  1  0
 17 18  1  0
 16 17  1  1
 18 19  2  0
 19 20  1  0
 21 20  2  0
 22 21  1  0
 23 22  2  0
 23 18  1  0
 24 26  2  0
 24 25  1  0
M  END
$$$$
