LSF.pdb
     RDKit          3D

 26 26  0  0  1  0  0  0  0  0999 V2000
    6.6463  -12.4171   18.9161 C   0  0  0  0  0  0  0  0  0  0  0  0
    7.8971  -13.1957   19.2328 C   0  0  1  0  0  0  0  0  0  0  0  0
    9.0934  -12.3093   19.3830 C   0  0  0  0  0  0  0  0  0  0  0  0
    7.6768  -14.0401   20.4662 C   0  0  0  0  0  0  0  0  0  0  0  0
    8.9504  -14.7005   20.9300 C   0  0  2  0  0  0  0  0  0  0  0  0
    9.4454  -15.6573   19.9788 N   0  0  0  0  0  0  0  0  0  0  0  0
    8.6794  -15.3539   22.2372 C   0  0  0  0  0  0  0  0  0  0  0  0
    7.9176  -14.8326   23.0835 O   0  0  0  0  0  0  0  0  0  0  0  0
   10.7781  -18.8974   23.5072 O   0  0  0  0  0  0  0  0  0  0  0  0
    9.4487  -18.7191   23.8443 C   0  0  0  0  0  0  0  0  0  0  0  0
    9.0284  -17.2791   23.8329 C   0  0  2  0  0  0  0  0  0  0  0  0
    9.2607  -16.5999   22.6093 N   0  0  0  0  0  0  0  0  0  0  0  0
    9.6282  -16.5284   24.9616 C   0  0  0  0  0  0  0  0  0  0  0  0
   10.6375  -15.8061   24.7618 O   0  0  0  0  0  0  0  0  0  0  0  0
    9.1155  -16.5800   26.2861 N   0  0  0  0  0  0  0  0  0  0  0  0
    9.7550  -15.9438   27.4225 C   0  0  1  0  0  0  0  0  0  0  0  0
    8.7051  -15.1847   28.1810 C   0  0  0  0  0  0  0  0  0  0  0  0
    8.0594  -14.1053   27.4055 C   0  0  0  0  0  0  0  0  0  0  0  0
    6.8087  -14.2707   26.8279 C   0  0  0  0  0  0  0  0  0  0  0  0
    6.1897  -13.2743   26.1037 C   0  0  0  0  0  0  0  0  0  0  0  0
    6.8854  -12.0882   25.9804 C   0  0  0  0  0  0  0  0  0  0  0  0
    8.1302  -11.9027   26.5468 C   0  0  0  0  0  0  0  0  0  0  0  0
    8.7246  -12.9116   27.2635 C   0  0  0  0  0  0  0  0  0  0  0  0
   10.4594  -16.9706   28.1885 C   0  0  0  0  0  0  0  0  0  0  0  0
   10.4178  -18.3271   27.9156 O   0  0  0  0  0  0  0  0  0  0  0  0
   11.1581  -16.6085   29.1701 O   0  0  0  0  0  0  0  0  0  0  0  0
  2  1  1  1
  2  4  1  0
  3  2  1  0
  5  4  1  0
  5  6  1  6
  7  5  1  0
  7  8  2  0
  9 10  1  0
 11 10  1  6
 11 12  1  0
 11 13  1  0
 12  7  1  0
 13 15  1  0
 14 13  2  0
 15 16  1  0
 16 24  1  0
 17 18  1  0
 16 17  1  1
 18 19  2  0
 19 20  1  0
 21 20  2  0
 22 21  1  0
 23 22  2  0
 23 18  1  0
 24 26  2  0
 24 25  1  0
M  END
$$$$
