LSF.pdb
     RDKit          3D

 26 26  0  0  1  0  0  0  0  0999 V2000
    7.4738  -11.7883   19.9715 C   0  0  0  0  0  0  0  0  0  0  0  0
    7.9163  -13.2054   19.7128 C   0  0  1  0  0  0  0  0  0  0  0  0
    9.3803  -13.2967   19.4168 C   0  0  0  0  0  0  0  0  0  0  0  0
    7.5330  -14.0834   20.8811 C   0  0  0  0  0  0  0  0  0  0  0  0
    7.9106  -15.5245   20.6487 C   0  0  2  0  0  0  0  0  0  0  0  0
    6.9856  -16.1963   19.7779 N   0  0  0  0  0  0  0  0  0  0  0  0
    7.9722  -16.2021   21.9702 C   0  0  0  0  0  0  0  0  0  0  0  0
    6.9400  -16.6344   22.5323 O   0  0  0  0  0  0  0  0  0  0  0  0
   10.2443  -19.1071   24.9313 O   0  0  0  0  0  0  0  0  0  0  0  0
   10.1114  -18.4227   23.7369 C   0  0  0  0  0  0  0  0  0  0  0  0
    9.3339  -17.1471   23.8747 C   0  0  2  0  0  0  0  0  0  0  0  0
    9.1934  -16.4022   22.6756 N   0  0  0  0  0  0  0  0  0  0  0  0
    9.8813  -16.2901   24.9531 C   0  0  0  0  0  0  0  0  0  0  0  0
   10.8780  -15.5598   24.7220 O   0  0  0  0  0  0  0  0  0  0  0  0
    9.3310  -16.2465   26.2628 N   0  0  0  0  0  0  0  0  0  0  0  0
    9.8909  -15.4596   27.3456 C   0  0  1  0  0  0  0  0  0  0  0  0
    8.7573  -14.7903   28.0674 C   0  0  0  0  0  0  0  0  0  0  0  0
    8.0051  -13.8199   27.2455 C   0  0  0  0  0  0  0  0  0  0  0  0
    6.7692  -14.1322   26.6973 C   0  0  0  0  0  0  0  0  0  0  0  0
    6.0518  -13.2389   25.9307 C   0  0  0  0  0  0  0  0  0  0  0  0
    6.6319  -12.0018   25.7330 C   0  0  0  0  0  0  0  0  0  0  0  0
    7.8599  -11.6706   26.2689 C   0  0  0  0  0  0  0  0  0  0  0  0
    8.5539  -12.5791   27.0291 C   0  0  0  0  0  0  0  0  0  0  0  0
   10.7246  -16.3353   28.1675 C   0  0  0  0  0  0  0  0  0  0  0  0
   10.8888  -17.6938   27.9582 O   0  0  0  0  0  0  0  0  0  0  0  0
   11.3436  -15.8300   29.1393 O   0  0  0  0  0  0  0  0  0  0  0  0
  2  1  1  1
  2  4  1  0
  3  2  1  0
  5  4  1  0
  5  6  1  6
  7  5  1  0
  7  8  2  0
  9 10  1  0
 11 10  1  6
 11 12  1  0
 11 13  1  0
 12  7  1  0
 13 15  1  0
 14 13  2  0
 15 16  1  0
 16 24  1  0
 17 18  1  0
 16 17  1  1
 18 19  2  0
 19 20  1  0
 21 20  2  0
 22 21  1  0
 23 22  2  0
 23 18  1  0
 24 26  2  0
 24 25  1  0
M  END
$$$$
