LSF.pdb
     RDKit          3D

 26 26  0  0  1  0  0  0  0  0999 V2000
    7.8751  -11.9241   19.6291 C   0  0  0  0  0  0  0  0  0  0  0  0
    8.0350  -13.4192   19.5293 C   0  0  1  0  0  0  0  0  0  0  0  0
    9.3870  -13.8118   19.0220 C   0  0  0  0  0  0  0  0  0  0  0  0
    7.7403  -14.0567   20.8670 C   0  0  0  0  0  0  0  0  0  0  0  0
    7.9034  -15.5550   20.8237 C   0  0  2  0  0  0  0  0  0  0  0  0
    6.8551  -16.1957   20.0783 N   0  0  0  0  0  0  0  0  0  0  0  0
    7.9314  -16.0547   22.2233 C   0  0  0  0  0  0  0  0  0  0  0  0
    6.9185  -16.0002   22.9576 O   0  0  0  0  0  0  0  0  0  0  0  0
   11.0855  -18.5700   23.5272 O   0  0  0  0  0  0  0  0  0  0  0  0
    9.8205  -18.5993   24.0855 C   0  0  0  0  0  0  0  0  0  0  0  0
    9.1454  -17.2597   24.0803 C   0  0  2  0  0  0  0  0  0  0  0  0
    9.0969  -16.6214   22.8143 N   0  0  0  0  0  0  0  0  0  0  0  0
    9.7320  -16.3509   25.0939 C   0  0  0  0  0  0  0  0  0  0  0  0
   10.5768  -15.4891   24.7421 O   0  0  0  0  0  0  0  0  0  0  0  0
    9.3858  -16.4000   26.4714 N   0  0  0  0  0  0  0  0  0  0  0  0
   10.0648  -15.6344   27.5001 C   0  0  1  0  0  0  0  0  0  0  0  0
    9.0217  -14.9364   28.3239 C   0  0  0  0  0  0  0  0  0  0  0  0
    8.2205  -13.9467   27.5743 C   0  0  0  0  0  0  0  0  0  0  0  0
    8.6904  -12.6645   27.3282 C   0  0  0  0  0  0  0  0  0  0  0  0
    7.9584  -11.7291   26.6284 C   0  0  0  0  0  0  0  0  0  0  0  0
    6.7185  -12.1371   26.1788 C   0  0  0  0  0  0  0  0  0  0  0  0
    6.2322  -13.4074   26.4125 C   0  0  0  0  0  0  0  0  0  0  0  0
    6.9817  -14.3202   27.1124 C   0  0  0  0  0  0  0  0  0  0  0  0
   10.9445  -16.5373   28.2405 C   0  0  0  0  0  0  0  0  0  0  0  0
   11.9164  -16.1322   29.1393 O   0  0  0  0  0  0  0  0  0  0  0  0
   10.8197  -17.7757   28.0567 O   0  0  0  0  0  0  0  0  0  0  0  0
  2  1  1  1
  2  4  1  0
  3  2  1  0
  5  4  1  0
  5  6  1  6
  7  5  1  0
  7  8  2  0
  9 10  1  0
 11 10  1  6
 11 12  1  0
 11 13  1  0
 12  7  1  0
 13 15  1  0
 14 13  2  0
 15 16  1  0
 16 24  1  0
 17 18  1  0
 16 17  1  1
 18 19  2  0
 19 20  1  0
 21 20  2  0
 22 21  1  0
 23 22  2  0
 23 18  1  0
 24 26  2  0
 24 25  1  0
M  END
$$$$
