LSF.pdb
     RDKit          3D

 26 26  0  0  1  0  0  0  0  0999 V2000
    6.8117  -12.7919   18.5437 C   0  0  0  0  0  0  0  0  0  0  0  0
    8.0932  -13.4217   19.0255 C   0  0  1  0  0  0  0  0  0  0  0  0
    9.2137  -12.4334   19.1090 C   0  0  0  0  0  0  0  0  0  0  0  0
    7.8605  -14.1066   20.3520 C   0  0  0  0  0  0  0  0  0  0  0  0
    9.1315  -14.6934   20.9120 C   0  0  2  0  0  0  0  0  0  0  0  0
    9.7711  -15.5893   19.9881 N   0  0  0  0  0  0  0  0  0  0  0  0
    8.7940  -15.3984   22.1763 C   0  0  0  0  0  0  0  0  0  0  0  0
    7.9612  -14.9285   22.9849 O   0  0  0  0  0  0  0  0  0  0  0  0
   10.9639  -18.8805   23.4420 O   0  0  0  0  0  0  0  0  0  0  0  0
    9.6326  -18.7465   23.7920 C   0  0  0  0  0  0  0  0  0  0  0  0
    9.1601  -17.3229   23.7690 C   0  0  2  0  0  0  0  0  0  0  0  0
    9.3876  -16.6389   22.5471 N   0  0  0  0  0  0  0  0  0  0  0  0
    9.7132  -16.5476   24.9049 C   0  0  0  0  0  0  0  0  0  0  0  0
   10.7467  -15.8516   24.7384 O   0  0  0  0  0  0  0  0  0  0  0  0
    9.1283  -16.5466   26.2001 N   0  0  0  0  0  0  0  0  0  0  0  0
    9.6871  -15.8366   27.3354 C   0  0  1  0  0  0  0  0  0  0  0  0
    8.5689  -15.1090   28.0240 C   0  0  0  0  0  0  0  0  0  0  0  0
    7.9642  -14.0274   27.2193 C   0  0  0  0  0  0  0  0  0  0  0  0
    8.6234  -12.8262   27.0000 C   0  0  0  0  0  0  0  0  0  0  0  0
    8.0763  -11.8073   26.2497 C   0  0  0  0  0  0  0  0  0  0  0  0
    6.8235  -12.0447   25.7206 C   0  0  0  0  0  0  0  0  0  0  0  0
    6.1504  -13.2319   25.9263 C   0  0  0  0  0  0  0  0  0  0  0  0
    6.7180  -14.2310   26.6778 C   0  0  0  0  0  0  0  0  0  0  0  0
   10.4133  -16.7958   28.1660 C   0  0  0  0  0  0  0  0  0  0  0  0
   10.4411  -18.1633   27.9525 O   0  0  0  0  0  0  0  0  0  0  0  0
   11.0647  -16.3599   29.1501 O   0  0  0  0  0  0  0  0  0  0  0  0
  2  1  1  1
  2  4  1  0
  3  2  1  0
  5  4  1  0
  5  6  1  6
  7  5  1  0
  7  8  2  0
  9 10  1  0
 11 10  1  6
 11 12  1  0
 11 13  1  0
 12  7  1  0
 13 15  1  0
 14 13  2  0
 15 16  1  0
 16 24  1  0
 17 18  1  0
 16 17  1  1
 18 19  2  0
 19 20  1  0
 21 20  2  0
 22 21  1  0
 23 22  2  0
 23 18  1  0
 24 26  2  0
 24 25  1  0
M  END
$$$$
