LSF.pdb
     RDKit          3D

 26 26  0  0  1  0  0  0  0  0999 V2000
    7.7746  -11.7040   19.9180 C   0  0  0  0  0  0  0  0  0  0  0  0
    7.7412  -13.1881   19.6590 C   0  0  1  0  0  0  0  0  0  0  0  0
    8.7789  -13.6139   18.6684 C   0  0  0  0  0  0  0  0  0  0  0  0
    7.8806  -13.9391   20.9626 C   0  0  0  0  0  0  0  0  0  0  0  0
    7.7333  -15.4276   20.7721 C   0  0  2  0  0  0  0  0  0  0  0  0
    6.4313  -15.7878   20.2820 N   0  0  0  0  0  0  0  0  0  0  0  0
    8.0023  -16.0865   22.0770 C   0  0  0  0  0  0  0  0  0  0  0  0
    7.1084  -16.2062   22.9459 O   0  0  0  0  0  0  0  0  0  0  0  0
   11.8130  -17.9105   22.9442 O   0  0  0  0  0  0  0  0  0  0  0  0
   10.6239  -18.4012   23.4519 C   0  0  0  0  0  0  0  0  0  0  0  0
    9.5703  -17.3443   23.6047 C   0  0  2  0  0  0  0  0  0  0  0  0
    9.2779  -16.6185   22.4213 N   0  0  0  0  0  0  0  0  0  0  0  0
    9.8891  -16.4147   24.7144 C   0  0  0  0  0  0  0  0  0  0  0  0
   10.6636  -15.4456   24.5111 O   0  0  0  0  0  0  0  0  0  0  0  0
    9.3570  -16.5602   26.0242 N   0  0  0  0  0  0  0  0  0  0  0  0
    9.8148  -15.7952   27.1689 C   0  0  1  0  0  0  0  0  0  0  0  0
    8.6086  -15.2346   27.8650 C   0  0  0  0  0  0  0  0  0  0  0  0
    7.9837  -14.0916   27.1677 C   0  0  0  0  0  0  0  0  0  0  0  0
    8.6070  -12.8541   27.0932 C   0  0  0  0  0  0  0  0  0  0  0  0
    8.0407  -11.7775   26.4446 C   0  0  0  0  0  0  0  0  0  0  0  0
    6.8066  -11.9948   25.8653 C   0  0  0  0  0  0  0  0  0  0  0  0
    6.1693  -13.2174   25.9276 C   0  0  0  0  0  0  0  0  0  0  0  0
    6.7553  -14.2738   26.5800 C   0  0  0  0  0  0  0  0  0  0  0  0
   10.6647  -16.6573   27.9884 C   0  0  0  0  0  0  0  0  0  0  0  0
   10.9228  -17.9918   27.7258 O   0  0  0  0  0  0  0  0  0  0  0  0
   11.2075  -16.1628   29.0101 O   0  0  0  0  0  0  0  0  0  0  0  0
  2  1  1  1
  2  4  1  0
  3  2  1  0
  5  4  1  0
  5  6  1  1
  7  5  1  0
  7  8  2  0
  9 10  1  0
 11 10  1  6
 11 12  1  0
 11 13  1  0
 12  7  1  0
 13 15  1  0
 14 13  2  0
 15 16  1  0
 16 24  1  0
 17 18  1  0
 16 17  1  1
 18 19  2  0
 19 20  1  0
 21 20  2  0
 22 21  1  0
 23 22  2  0
 23 18  1  0
 24 26  2  0
 24 25  1  0
M  END
$$$$
