VQF.pdb
     RDKit          3D

 28 28  0  0  1  0  0  0  0  0999 V2000
   45.4722  -12.6350   -7.9176 C   0  0  0  0  0  0  0  0  0  0  0  0
   44.3335  -11.7218   -7.6397 C   0  0  2  0  0  0  0  0  0  0  0  0
   43.4799  -11.5381   -8.8707 C   0  0  0  0  0  0  0  0  0  0  0  0
   44.7020  -10.4042   -7.0063 C   0  0  2  0  0  0  0  0  0  0  0  0
   45.3620  -10.7299   -5.7290 N   0  0  0  0  0  0  0  0  0  0  0  0
   43.5404   -9.5526   -6.6709 C   0  0  0  0  0  0  0  0  0  0  0  0
   42.7635   -9.9013   -5.7571 O   0  0  0  0  0  0  0  0  0  0  0  0
   41.4736   -3.9628   -5.7221 N   0  0  0  0  0  0  0  0  0  0  0  0
   42.2555   -4.7162   -4.8080 C   0  0  0  0  0  0  0  0  0  0  0  0
   42.3140   -4.3909   -3.5991 O   0  0  0  0  0  0  0  0  0  0  0  0
   42.9880   -5.8791   -5.3177 C   0  0  0  0  0  0  0  0  0  0  0  0
   42.6422   -6.0886   -6.7802 C   0  0  0  0  0  0  0  0  0  0  0  0
   42.1025   -7.4998   -6.9839 C   0  0  2  0  0  0  0  0  0  0  0  0
   43.2360   -8.3280   -7.3336 N   0  0  0  0  0  0  0  0  0  0  0  0
   41.1357   -7.4082   -8.1319 C   0  0  0  0  0  0  0  0  0  0  0  0
   41.5841   -7.4745   -9.3080 O   0  0  0  0  0  0  0  0  0  0  0  0
   39.7561   -7.2522   -7.9468 N   0  0  0  0  0  0  0  0  0  0  0  0
   38.7957   -7.1314   -9.0468 C   0  0  1  0  0  0  0  0  0  0  0  0
   37.6148   -7.9928   -8.7067 C   0  0  0  0  0  0  0  0  0  0  0  0
   37.0981   -7.7937   -7.3333 C   0  0  0  0  0  0  0  0  0  0  0  0
   37.3700   -8.7298   -6.3611 C   0  0  0  0  0  0  0  0  0  0  0  0
   36.8810   -8.5299   -5.0703 C   0  0  0  0  0  0  0  0  0  0  0  0
   36.1301   -7.4218   -4.7303 C   0  0  0  0  0  0  0  0  0  0  0  0
   35.8637   -6.4910   -5.7115 C   0  0  0  0  0  0  0  0  0  0  0  0
   36.3450   -6.6825   -6.9921 C   0  0  0  0  0  0  0  0  0  0  0  0
   38.4516   -5.6958   -9.1854 C   0  0  0  0  0  0  0  0  0  0  0  0
   37.6890   -5.2245  -10.2655 O   0  0  0  0  0  0  0  0  0  0  0  0
   38.8116   -4.8164   -8.3615 O   0  0  0  0  0  0  0  0  0  0  0  0
  2  1  1  6
  2  4  1  0
  2  3  1  0
  4  5  1  1
  6  4  1  0
  6 14  1  0
  7  6  2  0
  8  9  1  0
  9 11  1  0
  9 10  2  0
 11 12  1  0
 13 12  1  6
 13 14  1  0
 15 13  1  0
 16 15  2  0
 17 15  1  0
 18 17  1  0
 18 26  1  0
 18 19  1  1
 20 25  2  0
 20 19  1  0
 21 20  1  0
 22 23  1  0
 22 21  2  0
 23 24  2  0
 24 25  1  0
 26 27  1  0
 28 26  2  0
M  END
$$$$
