VQF.pdb
     RDKit          3D

 28 28  0  0  1  0  0  0  0  0999 V2000
   28.1508  -18.6008  -17.5848 C   0  0  0  0  0  0  0  0  0  0  0  0
   27.3154  -18.6983  -16.3598 C   0  0  2  0  0  0  0  0  0  0  0  0
   26.7731  -17.3447  -15.9707 C   0  0  0  0  0  0  0  0  0  0  0  0
   27.9589  -19.4053  -15.1939 C   0  0  2  0  0  0  0  0  0  0  0  0
   28.4362  -20.7015  -15.7089 N   0  0  0  0  0  0  0  0  0  0  0  0
   27.0262  -19.7131  -14.0883 C   0  0  0  0  0  0  0  0  0  0  0  0
   26.4857  -18.7790  -13.4594 O   0  0  0  0  0  0  0  0  0  0  0  0
   23.5578  -25.0047  -12.8865 N   0  0  0  0  0  0  0  0  0  0  0  0
   23.2376  -23.9235  -13.7485 C   0  0  0  0  0  0  0  0  0  0  0  0
   22.5405  -24.1093  -14.7733 O   0  0  0  0  0  0  0  0  0  0  0  0
   23.7437  -22.5913  -13.4056 C   0  0  0  0  0  0  0  0  0  0  0  0
   25.1751  -22.7087  -12.9160 C   0  0  0  0  0  0  0  0  0  0  0  0
   25.7358  -21.3205  -12.6286 C   0  0  2  0  0  0  0  0  0  0  0  0
   26.6900  -21.0361  -13.6782 N   0  0  0  0  0  0  0  0  0  0  0  0
   26.4249  -21.4234  -11.2961 C   0  0  0  0  0  0  0  0  0  0  0  0
   27.2852  -22.3289  -11.1276 O   0  0  0  0  0  0  0  0  0  0  0  0
   26.1491  -20.5529  -10.2340 N   0  0  0  0  0  0  0  0  0  0  0  0
   26.6139  -20.7702   -8.8616 C   0  0  1  0  0  0  0  0  0  0  0  0
   27.6961  -19.7665   -8.5911 C   0  0  0  0  0  0  0  0  0  0  0  0
   28.1356  -19.7187   -7.1778 C   0  0  0  0  0  0  0  0  0  0  0  0
   29.1191  -20.5774   -6.7412 C   0  0  0  0  0  0  0  0  0  0  0  0
   29.5274  -20.5210   -5.4088 C   0  0  0  0  0  0  0  0  0  0  0  0
   28.9781  -19.6307   -4.5070 C   0  0  0  0  0  0  0  0  0  0  0  0
   27.9940  -18.7758   -4.9548 C   0  0  0  0  0  0  0  0  0  0  0  0
   27.5848  -18.8261   -6.2733 C   0  0  0  0  0  0  0  0  0  0  0  0
   25.4430  -20.6240   -7.9637 C   0  0  0  0  0  0  0  0  0  0  0  0
   24.3308  -19.8488   -8.3278 O   0  0  0  0  0  0  0  0  0  0  0  0
   25.3651  -21.1731   -6.8349 O   0  0  0  0  0  0  0  0  0  0  0  0
  2  1  1  6
  2  4  1  0
  2  3  1  0
  4  5  1  6
  6  4  1  0
  6 14  1  0
  7  6  2  0
  8  9  1  0
  9 11  1  0
  9 10  2  0
 11 12  1  0
 13 12  1  6
 13 14  1  0
 15 13  1  0
 16 15  2  0
 17 15  1  0
 18 17  1  0
 18 26  1  0
 18 19  1  1
 20 25  2  0
 20 19  1  0
 21 20  1  0
 22 23  1  0
 22 21  2  0
 23 24  2  0
 24 25  1  0
 26 27  1  0
 28 26  2  0
M  END
$$$$
