VQF.pdb
     RDKit          3D

 28 28  0  0  1  0  0  0  0  0999 V2000
   28.3052  -16.4743  -16.1533 C   0  0  0  0  0  0  0  0  0  0  0  0
   27.6492  -17.1428  -14.9998 C   0  0  2  0  0  0  0  0  0  0  0  0
   28.6713  -17.5728  -13.9761 C   0  0  0  0  0  0  0  0  0  0  0  0
   26.7007  -18.2599  -15.3547 C   0  0  2  0  0  0  0  0  0  0  0  0
   25.7325  -17.6920  -16.3101 N   0  0  0  0  0  0  0  0  0  0  0  0
   25.9114  -18.7647  -14.2104 C   0  0  0  0  0  0  0  0  0  0  0  0
   24.9962  -18.0606  -13.7342 O   0  0  0  0  0  0  0  0  0  0  0  0
   21.5101  -22.4930  -11.5356 N   0  0  0  0  0  0  0  0  0  0  0  0
   22.6163  -22.6650  -12.4081 C   0  0  0  0  0  0  0  0  0  0  0  0
   22.4380  -22.9300  -13.6200 O   0  0  0  0  0  0  0  0  0  0  0  0
   23.9652  -22.5240  -11.8520 C   0  0  0  0  0  0  0  0  0  0  0  0
   24.8871  -21.9484  -12.9108 C   0  0  0  0  0  0  0  0  0  0  0  0
   25.3059  -20.5368  -12.5156 C   0  0  2  0  0  0  0  0  0  0  0  0
   26.1258  -20.0326  -13.5957 N   0  0  0  0  0  0  0  0  0  0  0  0
   26.1156  -20.6855  -11.2573 C   0  0  0  0  0  0  0  0  0  0  0  0
   27.3005  -21.1059  -11.3458 O   0  0  0  0  0  0  0  0  0  0  0  0
   25.6059  -20.3755   -9.9901 N   0  0  0  0  0  0  0  0  0  0  0  0
   26.3133  -20.6540   -8.7375 C   0  0  1  0  0  0  0  0  0  0  0  0
   26.8186  -19.3440   -8.2079 C   0  0  0  0  0  0  0  0  0  0  0  0
   27.5018  -19.4457   -6.8980 C   0  0  0  0  0  0  0  0  0  0  0  0
   28.2737  -18.3977   -6.4494 C   0  0  0  0  0  0  0  0  0  0  0  0
   28.9096  -18.5034   -5.2127 C   0  0  0  0  0  0  0  0  0  0  0  0
   28.7926  -19.6267   -4.4177 C   0  0  0  0  0  0  0  0  0  0  0  0
   28.0174  -20.6700   -4.8765 C   0  0  0  0  0  0  0  0  0  0  0  0
   27.3847  -20.5720   -6.1007 C   0  0  0  0  0  0  0  0  0  0  0  0
   25.3580  -21.3250   -7.8232 C   0  0  0  0  0  0  0  0  0  0  0  0
   25.7991  -22.0702   -6.7185 O   0  0  0  0  0  0  0  0  0  0  0  0
   24.1099  -21.2748   -7.9700 O   0  0  0  0  0  0  0  0  0  0  0  0
  2  1  1  6
  2  4  1  0
  2  3  1  0
  4  5  1  6
  6  4  1  0
  6 14  1  0
  7  6  2  0
  8  9  1  0
  9 11  1  0
  9 10  2  0
 11 12  1  0
 13 12  1  6
 13 14  1  0
 15 13  1  0
 16 15  2  0
 17 15  1  0
 18 17  1  0
 18 26  1  0
 18 19  1  1
 20 25  2  0
 20 19  1  0
 21 20  1  0
 22 23  1  0
 22 21  2  0
 23 24  2  0
 24 25  1  0
 26 27  1  0
 28 26  2  0
M  END
$$$$
