VQF.pdb
     RDKit          3D

 28 28  0  0  1  0  0  0  0  0999 V2000
   33.3272  -23.1721  -12.0557 C   0  0  0  0  0  0  0  0  0  0  0  0
   32.1931  -22.2121  -12.0467 C   0  0  2  0  0  0  0  0  0  0  0  0
   31.5530  -22.1501  -10.6813 C   0  0  0  0  0  0  0  0  0  0  0  0
   31.1734  -22.4069  -13.1401 C   0  0  2  0  0  0  0  0  0  0  0  0
   31.9054  -22.2865  -14.4140 N   0  0  0  0  0  0  0  0  0  0  0  0
   30.1158  -21.3735  -13.1669 C   0  0  0  0  0  0  0  0  0  0  0  0
   30.3604  -20.2536  -13.6630 O   0  0  0  0  0  0  0  0  0  0  0  0
   26.4116  -20.5119  -16.7205 N   0  0  0  0  0  0  0  0  0  0  0  0
   25.8732  -19.5082  -15.8735 C   0  0  0  0  0  0  0  0  0  0  0  0
   25.0485  -18.6748  -16.3161 O   0  0  0  0  0  0  0  0  0  0  0  0
   26.3084  -19.4764  -14.4742 C   0  0  0  0  0  0  0  0  0  0  0  0
   27.3380  -20.5668  -14.2437 C   0  0  0  0  0  0  0  0  0  0  0  0
   27.7486  -20.5843  -12.7756 C   0  0  2  0  0  0  0  0  0  0  0  0
   28.8007  -21.5699  -12.6537 N   0  0  0  0  0  0  0  0  0  0  0  0
   26.5263  -21.0133  -12.0121 C   0  0  0  0  0  0  0  0  0  0  0  0
   26.0227  -22.1418  -12.2597 O   0  0  0  0  0  0  0  0  0  0  0  0
   25.9244  -20.2087  -11.0363 N   0  0  0  0  0  0  0  0  0  0  0  0
   24.8675  -20.6751  -10.1350 C   0  0  1  0  0  0  0  0  0  0  0  0
   24.8205  -19.7279   -8.9721 C   0  0  0  0  0  0  0  0  0  0  0  0
   26.0589  -19.7067   -8.1604 C   0  0  0  0  0  0  0  0  0  0  0  0
   26.7204  -20.8849   -7.8967 C   0  0  0  0  0  0  0  0  0  0  0  0
   27.8877  -20.8523   -7.1340 C   0  0  0  0  0  0  0  0  0  0  0  0
   28.4065  -19.6753   -6.6312 C   0  0  0  0  0  0  0  0  0  0  0  0
   27.7361  -18.5016   -6.9012 C   0  0  0  0  0  0  0  0  0  0  0  0
   26.5794  -18.5265   -7.6560 C   0  0  0  0  0  0  0  0  0  0  0  0
   23.6034  -20.7138  -10.9092 C   0  0  0  0  0  0  0  0  0  0  0  0
   23.5284  -20.2125  -12.2181 O   0  0  0  0  0  0  0  0  0  0  0  0
   22.5305  -21.1890  -10.4567 O   0  0  0  0  0  0  0  0  0  0  0  0
  2  1  1  1
  2  4  1  0
  2  3  1  0
  4  5  1  6
  6  4  1  0
  6 14  1  0
  7  6  2  0
  8  9  1  0
  9 11  1  0
  9 10  2  0
 11 12  1  0
 13 12  1  6
 13 14  1  0
 15 13  1  0
 16 15  2  0
 17 15  1  0
 18 17  1  0
 18 26  1  0
 18 19  1  1
 20 25  2  0
 20 19  1  0
 21 20  1  0
 22 23  1  0
 22 21  2  0
 23 24  2  0
 24 25  1  0
 26 27  1  0
 28 26  2  0
M  END
$$$$
