VQF.pdb
     RDKit          3D

 28 28  0  0  1  0  0  0  0  0999 V2000
   21.8485  -21.1139  -19.9076 C   0  0  0  0  0  0  0  0  0  0  0  0
   22.5110  -19.8869  -19.3945 C   0  0  2  0  0  0  0  0  0  0  0  0
   22.3902  -18.7564  -20.3870 C   0  0  0  0  0  0  0  0  0  0  0  0
   23.9295  -20.0703  -18.9173 C   0  0  2  0  0  0  0  0  0  0  0  0
   24.7006  -20.5377  -20.0834 N   0  0  0  0  0  0  0  0  0  0  0  0
   24.0832  -21.1057  -17.8726 C   0  0  0  0  0  0  0  0  0  0  0  0
   23.6295  -22.2526  -18.0697 O   0  0  0  0  0  0  0  0  0  0  0  0
   28.7592  -22.2567  -14.5031 N   0  0  0  0  0  0  0  0  0  0  0  0
   28.4943  -22.1659  -15.8946 C   0  0  0  0  0  0  0  0  0  0  0  0
   29.4250  -22.2584  -16.7287 O   0  0  0  0  0  0  0  0  0  0  0  0
   27.1075  -21.9622  -16.3236 C   0  0  0  0  0  0  0  0  0  0  0  0
   26.1968  -21.9947  -15.1104 C   0  0  0  0  0  0  0  0  0  0  0  0
   24.7447  -21.8573  -15.5537 C   0  0  2  0  0  0  0  0  0  0  0  0
   24.7306  -20.8824  -16.6226 N   0  0  0  0  0  0  0  0  0  0  0  0
   23.9958  -21.3439  -14.3551 C   0  0  0  0  0  0  0  0  0  0  0  0
   24.6516  -20.8683  -13.3895 O   0  0  0  0  0  0  0  0  0  0  0  0
   22.5982  -21.3730  -14.2684 N   0  0  0  0  0  0  0  0  0  0  0  0
   21.8409  -20.8246  -13.1402 C   0  0  1  0  0  0  0  0  0  0  0  0
   22.1546  -19.3593  -13.0604 C   0  0  0  0  0  0  0  0  0  0  0  0
   21.7408  -18.5876  -14.2547 C   0  0  0  0  0  0  0  0  0  0  0  0
   20.4072  -18.3146  -14.4606 C   0  0  0  0  0  0  0  0  0  0  0  0
   20.0297  -17.5840  -15.5870 C   0  0  0  0  0  0  0  0  0  0  0  0
   20.9495  -17.1222  -16.5079 C   0  0  0  0  0  0  0  0  0  0  0  0
   22.2819  -17.4013  -16.2920 C   0  0  0  0  0  0  0  0  0  0  0  0
   22.6630  -18.1245  -15.1784 C   0  0  0  0  0  0  0  0  0  0  0  0
   20.4055  -21.1028  -13.3868 C   0  0  0  0  0  0  0  0  0  0  0  0
   19.9691  -21.7134  -14.5730 O   0  0  0  0  0  0  0  0  0  0  0  0
   19.4957  -20.8171  -12.5668 O   0  0  0  0  0  0  0  0  0  0  0  0
  2  1  1  6
  2  4  1  0
  2  3  1  0
  4  5  1  6
  6  4  1  0
  6 14  1  0
  7  6  2  0
  8  9  1  0
  9 11  1  0
  9 10  2  0
 11 12  1  0
 13 12  1  1
 13 14  1  0
 15 13  1  0
 16 15  2  0
 17 15  1  0
 18 17  1  0
 18 26  1  0
 18 19  1  6
 20 25  2  0
 20 19  1  0
 21 20  1  0
 22 23  1  0
 22 21  2  0
 23 24  2  0
 24 25  1  0
 26 27  1  0
 28 26  2  0
M  END
$$$$
