VQF.pdb
     RDKit          3D

 28 28  0  0  1  0  0  0  0  0999 V2000
   13.0041   -6.4696   -6.9018 C   0  0  0  0  0  0  0  0  0  0  0  0
   14.1771   -7.1020   -7.5590 C   0  0  2  0  0  0  0  0  0  0  0  0
   15.1508   -6.0551   -8.0423 C   0  0  0  0  0  0  0  0  0  0  0  0
   13.8507   -8.1085   -8.6332 C   0  0  2  0  0  0  0  0  0  0  0  0
   13.2162   -9.2505   -7.9504 N   0  0  0  0  0  0  0  0  0  0  0  0
   15.0370   -8.6469   -9.3331 C   0  0  0  0  0  0  0  0  0  0  0  0
   15.8302   -9.3912   -8.7190 O   0  0  0  0  0  0  0  0  0  0  0  0
   14.9366  -11.0760  -14.5597 N   0  0  0  0  0  0  0  0  0  0  0  0
   14.8720  -11.7163  -13.2946 C   0  0  0  0  0  0  0  0  0  0  0  0
   14.3457  -12.8478  -13.1782 O   0  0  0  0  0  0  0  0  0  0  0  0
   15.4360  -11.0183  -12.1357 C   0  0  0  0  0  0  0  0  0  0  0  0
   15.9937   -9.6786  -12.5790 C   0  0  0  0  0  0  0  0  0  0  0  0
   16.5102   -8.9104  -11.3677 C   0  0  2  0  0  0  0  0  0  0  0  0
   15.3482   -8.3702  -10.6962 N   0  0  0  0  0  0  0  0  0  0  0  0
   17.3690   -7.8053  -11.9175 C   0  0  0  0  0  0  0  0  0  0  0  0
   16.8171   -6.7293  -12.2729 O   0  0  0  0  0  0  0  0  0  0  0  0
   18.7582   -7.9235  -12.0508 N   0  0  0  0  0  0  0  0  0  0  0  0
   19.5880   -6.9750  -12.7982 C   0  0  1  0  0  0  0  0  0  0  0  0
   21.0220   -7.3257  -12.5287 C   0  0  0  0  0  0  0  0  0  0  0  0
   21.9896   -6.6230  -13.4022 C   0  0  0  0  0  0  0  0  0  0  0  0
   22.2346   -5.2824  -13.2069 C   0  0  0  0  0  0  0  0  0  0  0  0
   23.1505   -4.6321  -14.0335 C   0  0  0  0  0  0  0  0  0  0  0  0
   23.8238   -5.2871  -15.0459 C   0  0  0  0  0  0  0  0  0  0  0  0
   23.5708   -6.6291  -15.2328 C   0  0  0  0  0  0  0  0  0  0  0  0
   22.6649   -7.2796  -14.4176 C   0  0  0  0  0  0  0  0  0  0  0  0
   19.2177   -7.0870  -14.2296 C   0  0  0  0  0  0  0  0  0  0  0  0
   19.1193   -5.9546  -15.0533 O   0  0  0  0  0  0  0  0  0  0  0  0
   18.9706   -8.1826  -14.7956 O   0  0  0  0  0  0  0  0  0  0  0  0
  2  1  1  6
  2  4  1  0
  2  3  1  0
  4  5  1  1
  6  4  1  0
  6 14  1  0
  7  6  2  0
  8  9  1  0
  9 11  1  0
  9 10  2  0
 11 12  1  0
 13 12  1  6
 13 14  1  0
 15 13  1  0
 16 15  2  0
 17 15  1  0
 18 17  1  0
 18 26  1  0
 18 19  1  6
 20 25  2  0
 20 19  1  0
 21 20  1  0
 22 23  1  0
 22 21  2  0
 23 24  2  0
 24 25  1  0
 26 27  1  0
 28 26  2  0
M  END
$$$$
