VQF.pdb
     RDKit          3D

 28 28  0  0  1  0  0  0  0  0999 V2000
   29.9558  -19.3966  -15.7908 C   0  0  0  0  0  0  0  0  0  0  0  0
   28.9916  -19.3787  -14.6604 C   0  0  2  0  0  0  0  0  0  0  0  0
   29.5689  -20.0733  -13.4512 C   0  0  0  0  0  0  0  0  0  0  0  0
   27.6047  -19.8721  -14.9866 C   0  0  2  0  0  0  0  0  0  0  0  0
   27.1450  -19.0794  -16.1413 N   0  0  0  0  0  0  0  0  0  0  0  0
   26.6181  -19.6493  -13.9077 C   0  0  0  0  0  0  0  0  0  0  0  0
   26.2984  -18.4829  -13.5956 O   0  0  0  0  0  0  0  0  0  0  0  0
   22.8847  -17.7523  -13.6555 N   0  0  0  0  0  0  0  0  0  0  0  0
   22.4820  -19.0318  -13.1913 C   0  0  0  0  0  0  0  0  0  0  0  0
   21.5009  -19.1512  -12.4207 O   0  0  0  0  0  0  0  0  0  0  0  0
   23.2439  -20.2017  -13.6378 C   0  0  0  0  0  0  0  0  0  0  0  0
   23.7435  -20.9675  -12.4270 C   0  0  0  0  0  0  0  0  0  0  0  0
   25.1297  -20.4662  -12.0377 C   0  0  2  0  0  0  0  0  0  0  0  0
   25.9878  -20.6996  -13.1789 N   0  0  0  0  0  0  0  0  0  0  0  0
   25.5580  -21.3091  -10.8684 C   0  0  0  0  0  0  0  0  0  0  0  0
   25.7246  -22.5462  -11.0424 O   0  0  0  0  0  0  0  0  0  0  0  0
   25.7793  -20.7743   -9.5929 N   0  0  0  0  0  0  0  0  0  0  0  0
   25.9373  -21.5885   -8.3850 C   0  0  1  0  0  0  0  0  0  0  0  0
   27.3822  -21.5212   -7.9854 C   0  0  0  0  0  0  0  0  0  0  0  0
   27.6908  -20.4454   -7.0156 C   0  0  0  0  0  0  0  0  0  0  0  0
   26.7658  -20.1114   -6.0521 C   0  0  0  0  0  0  0  0  0  0  0  0
   27.0689  -19.0990   -5.1420 C   0  0  0  0  0  0  0  0  0  0  0  0
   28.2688  -18.4160   -5.1723 C   0  0  0  0  0  0  0  0  0  0  0  0
   29.1875  -18.7584   -6.1412 C   0  0  0  0  0  0  0  0  0  0  0  0
   28.8940  -19.7603   -7.0459 C   0  0  0  0  0  0  0  0  0  0  0  0
   25.0198  -21.0446   -7.3550 C   0  0  0  0  0  0  0  0  0  0  0  0
   24.3562  -19.8209   -7.5353 O   0  0  0  0  0  0  0  0  0  0  0  0
   24.7762  -21.6295   -6.2685 O   0  0  0  0  0  0  0  0  0  0  0  0
  2  1  1  6
  2  4  1  0
  2  3  1  0
  4  5  1  6
  6  4  1  0
  6 14  1  0
  7  6  2  0
  8  9  1  0
  9 11  1  0
  9 10  2  0
 11 12  1  0
 13 12  1  6
 13 14  1  0
 15 13  1  0
 16 15  2  0
 17 15  1  0
 18 17  1  0
 18 26  1  0
 18 19  1  1
 20 25  2  0
 20 19  1  0
 21 20  1  0
 22 23  1  0
 22 21  2  0
 23 24  2  0
 24 25  1  0
 26 27  1  0
 28 26  2  0
M  END
$$$$
