TAM.pdb
     RDKit          3D

 21 20  0  0  1  0  0  0  0  0999 V2000
    5.7554  -19.2608   20.8765 C   0  0  0  0  0  0  0  0  0  0  0  0
    6.7329  -18.1308   21.1197 C   0  0  1  0  0  0  0  0  0  0  0  0
    7.9010  -18.5791   21.7349 O   0  0  0  0  0  0  0  0  0  0  0  0
    7.0504  -17.5080   19.7779 C   0  0  2  0  0  0  0  0  0  0  0  0
    7.6906  -18.5193   18.9587 N   0  0  0  0  0  0  0  0  0  0  0  0
    7.9653  -16.3506   19.8877 C   0  0  0  0  0  0  0  0  0  0  0  0
    9.2113  -16.5166   19.8859 O   0  0  0  0  0  0  0  0  0  0  0  0
    7.5717  -12.5749   20.0405 C   0  0  0  0  0  0  0  0  0  0  0  0
    8.3084  -13.8975   20.2958 C   0  0  2  0  0  0  0  0  0  0  0  0
    7.4469  -15.0226   19.9981 N   0  0  0  0  0  0  0  0  0  0  0  0
    8.6933  -13.8721   21.7305 C   0  0  0  0  0  0  0  0  0  0  0  0
    9.5140  -12.9910   22.0900 O   0  0  0  0  0  0  0  0  0  0  0  0
    5.6738  -11.5282   26.9372 C   0  0  0  0  0  0  0  0  0  0  0  0
    7.3660  -12.1905   26.8786 S   0  0  0  0  0  0  0  0  0  0  0  0
    7.3924  -13.8806   26.2909 C   0  0  0  0  0  0  0  0  0  0  0  0
    7.2520  -13.9598   24.7980 C   0  0  0  0  0  0  0  0  0  0  0  0
    8.4235  -14.6230   24.1427 C   0  0  2  0  0  0  0  0  0  0  0  0
    8.2013  -14.7612   22.6943 N   0  0  0  0  0  0  0  0  0  0  0  0
    8.6872  -15.9875   24.6385 C   0  0  0  0  0  0  0  0  0  0  0  0
    9.2999  -16.2478   25.8547 O   0  0  0  0  0  0  0  0  0  0  0  0
    8.3535  -16.9854   23.9508 O   0  0  0  0  0  0  0  0  0  0  0  0
  2  1  1  6
  3  2  1  0
  4  2  1  0
  4  5  1  6
  6  4  1  0
  6 10  1  0
  7  6  2  0
  9  8  1  1
  9 10  1  0
  9 11  1  0
 11 18  1  0
 12 11  2  0
 14 13  1  0
 15 14  1  0
 16 15  1  0
 17 19  1  0
 17 16  1  1
 18 17  1  0
 19 20  1  0
 21 19  2  0
M  END
$$$$
