TAM.pdb
     RDKit          3D

 21 20  0  0  1  0  0  0  0  0999 V2000
    7.2375  -19.8909   20.8582 C   0  0  0  0  0  0  0  0  0  0  0  0
    7.7416  -18.5214   21.2606 C   0  0  1  0  0  0  0  0  0  0  0  0
    8.8726  -18.6029   22.0719 O   0  0  0  0  0  0  0  0  0  0  0  0
    8.0586  -17.7627   19.9905 C   0  0  2  0  0  0  0  0  0  0  0  0
    9.1032  -18.4851   19.2901 N   0  0  0  0  0  0  0  0  0  0  0  0
    8.5384  -16.3878   20.2513 C   0  0  0  0  0  0  0  0  0  0  0  0
    9.7591  -16.1620   20.4487 O   0  0  0  0  0  0  0  0  0  0  0  0
    6.9029  -12.9482   20.3182 C   0  0  0  0  0  0  0  0  0  0  0  0
    8.0779  -13.9278   20.4485 C   0  0  2  0  0  0  0  0  0  0  0  0
    7.6206  -15.2918   20.2834 N   0  0  0  0  0  0  0  0  0  0  0  0
    8.6393  -13.7031   21.8055 C   0  0  0  0  0  0  0  0  0  0  0  0
    9.1448  -12.5766   22.0392 O   0  0  0  0  0  0  0  0  0  0  0  0
    6.6905  -11.5598   27.9585 C   0  0  0  0  0  0  0  0  0  0  0  0
    7.0445  -12.0229   26.2364 S   0  0  0  0  0  0  0  0  0  0  0  0
    6.6523  -13.7403   25.9217 C   0  0  0  0  0  0  0  0  0  0  0  0
    6.9386  -14.1320   24.5006 C   0  0  0  0  0  0  0  0  0  0  0  0
    8.3965  -14.3603   24.2477 C   0  0  2  0  0  0  0  0  0  0  0  0
    8.6383  -14.6610   22.8273 N   0  0  0  0  0  0  0  0  0  0  0  0
    8.9581  -15.4998   24.9985 C   0  0  0  0  0  0  0  0  0  0  0  0
    9.5547  -16.5915   24.3868 O   0  0  0  0  0  0  0  0  0  0  0  0
    8.9102  -15.5142   26.2545 O   0  0  0  0  0  0  0  0  0  0  0  0
  2  1  1  6
  3  2  1  0
  4  2  1  0
  4  5  1  1
  6  4  1  0
  6 10  1  0
  7  6  2  0
  9  8  1  1
  9 10  1  0
  9 11  1  0
 11 18  1  0
 12 11  2  0
 14 13  1  0
 15 14  1  0
 16 15  1  0
 17 19  1  0
 17 16  1  6
 18 17  1  0
 19 20  1  0
 21 19  2  0
M  END
$$$$
