TAM.pdb
     RDKit          3D

 21 20  0  0  1  0  0  0  0  0999 V2000
    7.4066  -20.0478   21.5020 C   0  0  0  0  0  0  0  0  0  0  0  0
    7.8995  -18.6452   21.7872 C   0  0  1  0  0  0  0  0  0  0  0  0
    9.0388  -18.6493   22.5909 O   0  0  0  0  0  0  0  0  0  0  0  0
    8.1964  -17.9887   20.4567 C   0  0  2  0  0  0  0  0  0  0  0  0
    9.2564  -18.7430   19.8155 N   0  0  0  0  0  0  0  0  0  0  0  0
    8.6445  -16.5860   20.5996 C   0  0  0  0  0  0  0  0  0  0  0  0
    9.8601  -16.3162   20.7721 O   0  0  0  0  0  0  0  0  0  0  0  0
    6.9577  -13.1818   20.3931 C   0  0  0  0  0  0  0  0  0  0  0  0
    8.1101  -14.1368   20.7355 C   0  0  2  0  0  0  0  0  0  0  0  0
    7.7013  -15.5127   20.5439 N   0  0  0  0  0  0  0  0  0  0  0  0
    8.4498  -13.8632   22.1556 C   0  0  0  0  0  0  0  0  0  0  0  0
    8.9056  -12.7245   22.4286 O   0  0  0  0  0  0  0  0  0  0  0  0
    6.7508  -10.6570   26.5328 C   0  0  0  0  0  0  0  0  0  0  0  0
    6.2824  -12.2789   27.2079 S   0  0  0  0  0  0  0  0  0  0  0  0
    7.4054  -13.5651   26.6723 C   0  0  0  0  0  0  0  0  0  0  0  0
    7.2611  -13.8647   25.2080 C   0  0  0  0  0  0  0  0  0  0  0  0
    8.4939  -14.4783   24.6204 C   0  0  2  0  0  0  0  0  0  0  0  0
    8.2936  -14.7883   23.1956 N   0  0  0  0  0  0  0  0  0  0  0  0
    8.8838  -15.7519   25.2555 C   0  0  0  0  0  0  0  0  0  0  0  0
    9.0341  -16.9364   24.5509 O   0  0  0  0  0  0  0  0  0  0  0  0
    9.0978  -15.8014   26.4931 O   0  0  0  0  0  0  0  0  0  0  0  0
  2  1  1  6
  3  2  1  0
  4  2  1  0
  4  5  1  1
  6  4  1  0
  6 10  1  0
  7  6  2  0
  9  8  1  1
  9 10  1  0
  9 11  1  0
 11 18  1  0
 12 11  2  0
 14 13  1  0
 15 14  1  0
 16 15  1  0
 17 19  1  0
 17 16  1  1
 18 17  1  0
 19 20  1  0
 21 19  2  0
M  END
$$$$
