TAM.pdb
     RDKit          3D

 21 20  0  0  1  0  0  0  0  0999 V2000
    7.5782  -12.5978   19.4000 C   0  0  0  0  0  0  0  0  0  0  0  0
    8.1728  -13.5378   20.4269 C   0  0  1  0  0  0  0  0  0  0  0  0
    7.2854  -13.7928   21.4716 O   0  0  0  0  0  0  0  0  0  0  0  0
    8.5291  -14.8236   19.7133 C   0  0  2  0  0  0  0  0  0  0  0  0
    7.3325  -15.3138   19.0565 N   0  0  0  0  0  0  0  0  0  0  0  0
    9.0163  -15.8724   20.6359 C   0  0  0  0  0  0  0  0  0  0  0  0
    8.2628  -16.8142   20.9903 O   0  0  0  0  0  0  0  0  0  0  0  0
   12.3214  -16.6618   22.3440 C   0  0  0  0  0  0  0  0  0  0  0  0
   10.7968  -16.7387   22.1791 C   0  0  2  0  0  0  0  0  0  0  0  0
   10.3536  -15.8323   21.1404 N   0  0  0  0  0  0  0  0  0  0  0  0
   10.2309  -16.3683   23.5019 C   0  0  0  0  0  0  0  0  0  0  0  0
   10.6767  -16.9748   24.5081 O   0  0  0  0  0  0  0  0  0  0  0  0
    5.8158  -11.3025   27.7674 C   0  0  0  0  0  0  0  0  0  0  0  0
    6.4453  -11.8048   26.1374 S   0  0  0  0  0  0  0  0  0  0  0  0
    7.1443  -13.4516   26.1796 C   0  0  0  0  0  0  0  0  0  0  0  0
    7.8128  -13.8128   24.8844 C   0  0  0  0  0  0  0  0  0  0  0  0
    8.6695  -15.0353   24.9987 C   0  0  2  0  0  0  0  0  0  0  0  0
    9.2419  -15.3948   23.6912 N   0  0  0  0  0  0  0  0  0  0  0  0
    7.9383  -16.2321   25.4575 C   0  0  0  0  0  0  0  0  0  0  0  0
    7.7671  -16.5499   26.7960 O   0  0  0  0  0  0  0  0  0  0  0  0
    7.4335  -17.0233   24.6214 O   0  0  0  0  0  0  0  0  0  0  0  0
  2  1  1  6
  3  2  1  0
  4  2  1  0
  4  5  1  1
  6  4  1  0
  6 10  1  0
  7  6  2  0
  9  8  1  1
  9 10  1  0
  9 11  1  0
 11 18  1  0
 12 11  2  0
 14 13  1  0
 15 14  1  0
 16 15  1  0
 17 19  1  0
 17 16  1  6
 18 17  1  0
 19 20  1  0
 21 19  2  0
M  END
$$$$
