TAM.pdb
     RDKit          3D

 21 20  0  0  1  0  0  0  0  0999 V2000
    4.4444  -18.5962   21.1086 C   0  0  0  0  0  0  0  0  0  0  0  0
    5.5732  -17.6201   21.3623 C   0  0  1  0  0  0  0  0  0  0  0  0
    6.5320  -18.1490   22.2254 O   0  0  0  0  0  0  0  0  0  0  0  0
    6.1959  -17.2880   20.0239 C   0  0  2  0  0  0  0  0  0  0  0  0
    6.6597  -18.5270   19.4296 N   0  0  0  0  0  0  0  0  0  0  0  0
    7.3490  -16.3688   20.1431 C   0  0  0  0  0  0  0  0  0  0  0  0
    8.5159  -16.8185   20.2716 O   0  0  0  0  0  0  0  0  0  0  0  0
    7.8313  -12.6003   19.9762 C   0  0  0  0  0  0  0  0  0  0  0  0
    8.2563  -14.0349   20.3208 C   0  0  2  0  0  0  0  0  0  0  0  0
    7.1553  -14.9525   20.1141 N   0  0  0  0  0  0  0  0  0  0  0  0
    8.6736  -13.9985   21.7461 C   0  0  0  0  0  0  0  0  0  0  0  0
    9.6870  -13.3123   22.0311 O   0  0  0  0  0  0  0  0  0  0  0  0
    5.3187  -11.7834   26.9676 C   0  0  0  0  0  0  0  0  0  0  0  0
    7.1023  -12.0990   27.1240 S   0  0  0  0  0  0  0  0  0  0  0  0
    7.5593  -13.6713   26.4019 C   0  0  0  0  0  0  0  0  0  0  0  0
    7.3552  -13.6883   24.9144 C   0  0  0  0  0  0  0  0  0  0  0  0
    8.3521  -14.5512   24.2051 C   0  0  2  0  0  0  0  0  0  0  0  0
    8.0122  -14.6757   22.7784 N   0  0  0  0  0  0  0  0  0  0  0  0
    8.4168  -15.9317   24.7223 C   0  0  0  0  0  0  0  0  0  0  0  0
    8.9168  -16.2498   25.9756 O   0  0  0  0  0  0  0  0  0  0  0  0
    8.0077  -16.8899   24.0191 O   0  0  0  0  0  0  0  0  0  0  0  0
  2  1  1  6
  3  2  1  0
  4  2  1  0
  4  5  1  1
  6  4  1  0
  6 10  1  0
  7  6  2  0
  9  8  1  1
  9 10  1  0
  9 11  1  0
 11 18  1  0
 12 11  2  0
 14 13  1  0
 15 14  1  0
 16 15  1  0
 17 19  1  0
 17 16  1  1
 18 17  1  0
 19 20  1  0
 21 19  2  0
M  END
$$$$
