AGC.pdb
     RDKit          3D

 16 15  0  0  1  0  0  0  0  0999 V2000
    6.6758  -19.2717   22.0074 C   0  0  0  0  0  0  0  0  0  0  0  0
    7.0952  -18.3401   23.1438 C   0  0  2  0  0  0  0  0  0  0  0  0
    5.9622  -18.1976   24.0054 N   0  0  0  0  0  0  0  0  0  0  0  0
    7.4822  -17.0220   22.5674 C   0  0  0  0  0  0  0  0  0  0  0  0
    8.5244  -16.9776   21.8324 O   0  0  0  0  0  0  0  0  0  0  0  0
    6.7392  -15.8329   22.8068 N   0  0  0  0  0  0  0  0  0  0  0  0
    7.2390  -14.6098   22.2399 C   0  0  0  0  0  0  0  0  0  0  0  0
    7.7677  -13.6809   23.2607 C   0  0  0  0  0  0  0  0  0  0  0  0
    8.4121  -12.6348   22.9658 O   0  0  0  0  0  0  0  0  0  0  0  0
    7.5538  -13.9570   24.6378 N   0  0  0  0  0  0  0  0  0  0  0  0
    8.2252  -13.2644   25.7120 C   0  0  1  0  0  0  0  0  0  0  0  0
    7.2580  -12.1832   26.1968 C   0  0  0  0  0  0  0  0  0  0  0  0
    5.6931  -13.0540   26.5739 S   0  0  0  0  0  0  0  0  0  0  0  0
    8.6237  -14.1736   26.8065 C   0  0  0  0  0  0  0  0  0  0  0  0
    9.2277  -13.7177   27.7913 O   0  0  0  0  0  0  0  0  0  0  0  0
    8.3347  -15.5212   26.7507 O   0  0  0  0  0  0  0  0  0  0  0  0
  2  1  1  6
  2  3  1  0
  4  2  1  0
  4  5  2  0
  6  4  1  0
  7  6  1  0
  8  7  1  0
  9  8  2  0
 10  8  1  0
 11 12  1  1
 11 10  1  0
 12 13  1  0
 14 11  1  0
 15 14  2  0
 16 14  1  0
M  END
$$$$
