AGC.pdb
     RDKit          3D

 16 15  0  0  1  0  0  0  0  0999 V2000
    6.3704  -19.4401   22.2577 C   0  0  0  0  0  0  0  0  0  0  0  0
    6.4060  -18.3632   23.3413 C   0  0  2  0  0  0  0  0  0  0  0  0
    5.0744  -17.8560   23.4686 N   0  0  0  0  0  0  0  0  0  0  0  0
    7.3382  -17.2821   22.9149 C   0  0  0  0  0  0  0  0  0  0  0  0
    8.5852  -17.5512   22.8821 O   0  0  0  0  0  0  0  0  0  0  0  0
    6.8893  -15.9827   22.5498 N   0  0  0  0  0  0  0  0  0  0  0  0
    7.8808  -15.0275   22.1358 C   0  0  0  0  0  0  0  0  0  0  0  0
    8.2732  -14.1042   23.2211 C   0  0  0  0  0  0  0  0  0  0  0  0
    9.2165  -13.2716   23.1038 O   0  0  0  0  0  0  0  0  0  0  0  0
    7.5734  -14.1374   24.4571 N   0  0  0  0  0  0  0  0  0  0  0  0
    7.9929  -13.4234   25.6397 C   0  0  1  0  0  0  0  0  0  0  0  0
    6.8644  -12.4469   25.9749 C   0  0  0  0  0  0  0  0  0  0  0  0
    5.4940  -13.4774   26.6151 S   0  0  0  0  0  0  0  0  0  0  0  0
    8.2875  -14.3287   26.7697 C   0  0  0  0  0  0  0  0  0  0  0  0
    7.9284  -15.5161   26.7123 O   0  0  0  0  0  0  0  0  0  0  0  0
    8.9557  -13.8743   27.8878 O   0  0  0  0  0  0  0  0  0  0  0  0
  2  1  1  6
  2  3  1  0
  4  2  1  0
  4  5  2  0
  6  4  1  0
  7  6  1  0
  8  7  1  0
  9  8  2  0
 10  8  1  0
 11 12  1  1
 11 10  1  0
 12 13  1  0
 14 11  1  0
 15 14  2  0
 16 14  1  0
M  END
$$$$
