AGC.pdb
     RDKit          3D

 16 15  0  0  1  0  0  0  0  0999 V2000
    6.5816  -20.5629   22.3317 C   0  0  0  0  0  0  0  0  0  0  0  0
    7.5948  -19.9457   23.2948 C   0  0  2  0  0  0  0  0  0  0  0  0
    6.9427  -19.8211   24.5620 N   0  0  0  0  0  0  0  0  0  0  0  0
    7.9948  -18.6064   22.7793 C   0  0  0  0  0  0  0  0  0  0  0  0
    8.7717  -18.5667   21.7678 O   0  0  0  0  0  0  0  0  0  0  0  0
    7.5456  -17.3925   23.3692 N   0  0  0  0  0  0  0  0  0  0  0  0
    7.9510  -16.1606   22.7488 C   0  0  0  0  0  0  0  0  0  0  0  0
    8.7541  -15.3052   23.6476 C   0  0  0  0  0  0  0  0  0  0  0  0
    9.2268  -14.1897   23.2890 O   0  0  0  0  0  0  0  0  0  0  0  0
    9.0176  -15.7365   24.9753 N   0  0  0  0  0  0  0  0  0  0  0  0
    9.3566  -14.8454   26.0595 C   0  0  1  0  0  0  0  0  0  0  0  0
    8.1226  -13.9748   26.3019 C   0  0  0  0  0  0  0  0  0  0  0  0
    8.6177  -12.7619   27.5799 S   0  0  0  0  0  0  0  0  0  0  0  0
    9.7626  -15.5720   27.2803 C   0  0  0  0  0  0  0  0  0  0  0  0
   10.2644  -14.9446   28.2275 O   0  0  0  0  0  0  0  0  0  0  0  0
    9.5925  -16.9370   27.3837 O   0  0  0  0  0  0  0  0  0  0  0  0
  2  1  1  6
  2  3  1  0
  4  2  1  0
  4  5  2  0
  6  4  1  0
  7  6  1  0
  8  7  1  0
  9  8  2  0
 10  8  1  0
 11 12  1  1
 11 10  1  0
 12 13  1  0
 14 11  1  0
 15 14  2  0
 16 14  1  0
M  END
$$$$
