AGC.pdb
     RDKit          3D

 16 15  0  0  1  0  0  0  0  0999 V2000
   12.1202  -20.8515   18.7017 C   0  0  0  0  0  0  0  0  0  0  0  0
   11.5412  -19.4552   18.4784 C   0  0  2  0  0  0  0  0  0  0  0  0
   12.6495  -18.5665   18.3102 N   0  0  0  0  0  0  0  0  0  0  0  0
   10.7396  -19.0699   19.6736 C   0  0  0  0  0  0  0  0  0  0  0  0
   10.0126  -19.9674   20.2162 O   0  0  0  0  0  0  0  0  0  0  0  0
   10.7591  -17.7562   20.2188 N   0  0  0  0  0  0  0  0  0  0  0  0
    9.9187  -17.4943   21.3554 C   0  0  0  0  0  0  0  0  0  0  0  0
   10.6898  -17.1663   22.5729 C   0  0  0  0  0  0  0  0  0  0  0  0
   10.1496  -16.7281   23.6278 O   0  0  0  0  0  0  0  0  0  0  0  0
   12.0993  -17.3438   22.5790 N   0  0  0  0  0  0  0  0  0  0  0  0
   12.9555  -16.9546   23.6744 C   0  0  1  0  0  0  0  0  0  0  0  0
   13.7363  -18.2072   24.0754 C   0  0  0  0  0  0  0  0  0  0  0  0
   14.5592  -17.7908   25.6562 S   0  0  0  0  0  0  0  0  0  0  0  0
   13.8560  -15.8389   23.3171 C   0  0  0  0  0  0  0  0  0  0  0  0
   14.0846  -15.5962   22.1207 O   0  0  0  0  0  0  0  0  0  0  0  0
   14.4466  -15.0629   24.2927 O   0  0  0  0  0  0  0  0  0  0  0  0
  2  1  1  1
  2  3  1  0
  4  2  1  0
  4  5  2  0
  6  4  1  0
  7  6  1  0
  8  7  1  0
  9  8  2  0
 10  8  1  0
 11 12  1  6
 11 10  1  0
 12 13  1  0
 14 11  1  0
 15 14  2  0
 16 14  1  0
M  END
$$$$
