AGC.pdb
     RDKit          3D

 16 15  0  0  1  0  0  0  0  0999 V2000
    7.5752  -13.0030   18.5054 C   0  0  0  0  0  0  0  0  0  0  0  0
    8.6368  -13.5551   19.4557 C   0  0  2  0  0  0  0  0  0  0  0  0
    9.2288  -14.6850   18.8080 N   0  0  0  0  0  0  0  0  0  0  0  0
    7.9775  -13.9677   20.7263 C   0  0  0  0  0  0  0  0  0  0  0  0
    7.4211  -13.0595   21.4293 O   0  0  0  0  0  0  0  0  0  0  0  0
    7.9493  -15.3182   21.1721 N   0  0  0  0  0  0  0  0  0  0  0  0
    7.2439  -15.6023   22.3922 C   0  0  0  0  0  0  0  0  0  0  0  0
    7.8114  -14.8939   23.5586 C   0  0  0  0  0  0  0  0  0  0  0  0
    9.0536  -14.8253   23.7798 O   0  0  0  0  0  0  0  0  0  0  0  0
    6.9412  -14.2562   24.4830 N   0  0  0  0  0  0  0  0  0  0  0  0
    7.3916  -13.5611   25.6655 C   0  0  1  0  0  0  0  0  0  0  0  0
    6.1468  -12.9344   26.2958 C   0  0  0  0  0  0  0  0  0  0  0  0
    6.7571  -11.9258   27.6958 S   0  0  0  0  0  0  0  0  0  0  0  0
    8.0939  -14.4536   26.6108 C   0  0  0  0  0  0  0  0  0  0  0  0
    7.7490  -15.6433   26.7002 O   0  0  0  0  0  0  0  0  0  0  0  0
    9.1270  -13.9848   27.3956 O   0  0  0  0  0  0  0  0  0  0  0  0
  2  1  1  6
  2  3  1  0
  4  2  1  0
  4  5  2  0
  6  4  1  0
  7  6  1  0
  8  7  1  0
  9  8  2  0
 10  8  1  0
 11 12  1  1
 11 10  1  0
 12 13  1  0
 14 11  1  0
 15 14  2  0
 16 14  1  0
M  END
$$$$
