EVG.pdb
     RDKit          3D

 21 20  0  0  1  0  0  0  0  0999 V2000
   18.6526  -13.1518  -16.6214 N   0  0  0  0  0  0  0  0  0  0  0  0
   19.5266  -12.1279  -17.0882 C   0  0  1  0  0  0  0  0  0  0  0  0
   19.0694  -11.3552  -18.2665 C   0  0  0  0  0  0  0  0  0  0  0  0
   18.8411  -12.0946  -19.5281 C   0  0  0  0  0  0  0  0  0  0  0  0
   18.6479  -11.2611  -20.7318 C   0  0  0  0  0  0  0  0  0  0  0  0
   17.5042  -10.8012  -20.9802 O   0  0  0  0  0  0  0  0  0  0  0  0
   19.9734  -11.2666  -15.9570 C   0  0  0  0  0  0  0  0  0  0  0  0
   19.1488  -10.9975  -15.0599 O   0  0  0  0  0  0  0  0  0  0  0  0
   19.6538  -10.9400  -21.6293 O   0  0  0  0  0  0  0  0  0  0  0  0
   22.4435  -11.9112  -13.5165 C   0  0  0  0  0  0  0  0  0  0  0  0
   22.8379  -10.5127  -13.9745 C   0  0  1  0  0  0  0  0  0  0  0  0
   24.1174  -10.6860  -14.7594 C   0  0  0  0  0  0  0  0  0  0  0  0
   21.7356   -9.9025  -14.7803 C   0  0  2  0  0  0  0  0  0  0  0  0
   21.2900  -10.7423  -15.8578 N   0  0  0  0  0  0  0  0  0  0  0  0
   22.1080   -8.5386  -15.2659 C   0  0  0  0  0  0  0  0  0  0  0  0
   23.0433   -8.3783  -16.1236 O   0  0  0  0  0  0  0  0  0  0  0  0
   21.4509   -7.3666  -14.8059 N   0  0  0  0  0  0  0  0  0  0  0  0
   21.8485   -6.0340  -15.2729 C   0  0  0  0  0  0  0  0  0  0  0  0
   22.1579   -5.2293  -14.0646 C   0  0  0  0  0  0  0  0  0  0  0  0
   22.5464   -3.9026  -14.0888 O   0  0  0  0  0  0  0  0  0  0  0  0
   22.0598   -5.7935  -12.9464 O   0  0  0  0  0  0  0  0  0  0  0  0
  2  1  1  1
  3  2  1  0
  3  4  1  0
  4  5  1  0
  5  9  1  0
  5  6  2  0
  7  2  1  0
  8  7  2  0
 11 12  1  6
 11 10  1  0
 13 11  1  0
 13 14  1  6
 14  7  1  0
 15 17  1  0
 15 13  1  0
 16 15  2  0
 18 17  1  0
 19 18  1  0
 20 19  1  0
 21 19  2  0
M  END
$$$$
