EVG.pdb
     RDKit          3D

 21 20  0  0  1  0  0  0  0  0999 V2000
   18.3885  -11.2141  -17.1824 N   0  0  0  0  0  0  0  0  0  0  0  0
   19.1618  -10.0174  -17.1964 C   0  0  1  0  0  0  0  0  0  0  0  0
   18.5213   -8.8237  -17.7959 C   0  0  0  0  0  0  0  0  0  0  0  0
   18.0094   -8.9392  -19.1798 C   0  0  0  0  0  0  0  0  0  0  0  0
   17.4256   -7.7085  -19.7505 C   0  0  0  0  0  0  0  0  0  0  0  0
   16.8786   -7.7586  -20.8818 O   0  0  0  0  0  0  0  0  0  0  0  0
   19.7469   -9.7577  -15.8507 C   0  0  0  0  0  0  0  0  0  0  0  0
   19.0668  -10.0497  -14.8460 O   0  0  0  0  0  0  0  0  0  0  0  0
   17.4349   -6.4744  -19.1203 O   0  0  0  0  0  0  0  0  0  0  0  0
   22.5602  -11.2750  -14.2858 C   0  0  0  0  0  0  0  0  0  0  0  0
   22.8741   -9.7897  -14.1574 C   0  0  1  0  0  0  0  0  0  0  0  0
   23.9516   -9.5105  -15.1793 C   0  0  0  0  0  0  0  0  0  0  0  0
   21.6365   -8.9790  -14.3761 C   0  0  2  0  0  0  0  0  0  0  0  0
   21.0381   -9.1952  -15.6646 N   0  0  0  0  0  0  0  0  0  0  0  0
   21.8863   -7.5268  -14.1242 C   0  0  0  0  0  0  0  0  0  0  0  0
   22.3235   -7.1210  -12.9927 O   0  0  0  0  0  0  0  0  0  0  0  0
   21.6540   -6.5365  -15.1154 N   0  0  0  0  0  0  0  0  0  0  0  0
   21.7997   -5.1076  -14.8172 C   0  0  0  0  0  0  0  0  0  0  0  0
   20.4301   -4.5379  -14.7617 C   0  0  0  0  0  0  0  0  0  0  0  0
   20.1498   -3.1893  -14.6419 O   0  0  0  0  0  0  0  0  0  0  0  0
   19.4624   -5.3365  -14.8279 O   0  0  0  0  0  0  0  0  0  0  0  0
  2  1  1  1
  3  2  1  0
  3  4  1  0
  4  5  1  0
  5  9  1  0
  5  6  2  0
  7  2  1  0
  8  7  2  0
 11 12  1  6
 11 10  1  0
 13 11  1  0
 13 14  1  6
 14  7  1  0
 15 17  1  0
 15 13  1  0
 16 15  2  0
 18 17  1  0
 19 18  1  0
 20 19  1  0
 21 19  2  0
M  END
$$$$
