EVG.pdb
     RDKit          3D

 21 20  0  0  1  0  0  0  0  0999 V2000
   15.9722  -12.5307  -15.0991 N   0  0  0  0  0  0  0  0  0  0  0  0
   17.2643  -12.1716  -14.6173 C   0  0  1  0  0  0  0  0  0  0  0  0
   18.4182  -12.8495  -15.2523 C   0  0  0  0  0  0  0  0  0  0  0  0
   18.3910  -13.0234  -16.7218 C   0  0  0  0  0  0  0  0  0  0  0  0
   19.5759  -13.6800  -17.3102 C   0  0  0  0  0  0  0  0  0  0  0  0
   20.3771  -12.9952  -17.9961 O   0  0  0  0  0  0  0  0  0  0  0  0
   17.4087  -10.6893  -14.5646 C   0  0  0  0  0  0  0  0  0  0  0  0
   16.8659  -10.0121  -15.4612 O   0  0  0  0  0  0  0  0  0  0  0  0
   19.8790  -15.0239  -17.1610 O   0  0  0  0  0  0  0  0  0  0  0  0
   16.0581   -8.4992  -12.2483 C   0  0  0  0  0  0  0  0  0  0  0  0
   17.5098   -8.0369  -12.2482 C   0  0  1  0  0  0  0  0  0  0  0  0
   18.0891   -8.5113  -10.9358 C   0  0  0  0  0  0  0  0  0  0  0  0
   18.2281   -8.5891  -13.4382 C   0  0  2  0  0  0  0  0  0  0  0  0
   18.1340  -10.0192  -13.5432 N   0  0  0  0  0  0  0  0  0  0  0  0
   19.6498   -8.1288  -13.4768 C   0  0  0  0  0  0  0  0  0  0  0  0
   20.5722   -8.7919  -12.8888 O   0  0  0  0  0  0  0  0  0  0  0  0
   20.0439   -6.9474  -14.1594 N   0  0  0  0  0  0  0  0  0  0  0  0
   21.4331   -6.4770  -14.1339 C   0  0  0  0  0  0  0  0  0  0  0  0
   21.4473   -5.2202  -13.3443 C   0  0  0  0  0  0  0  0  0  0  0  0
   22.5920   -4.5184  -13.0145 O   0  0  0  0  0  0  0  0  0  0  0  0
   20.3443   -4.7657  -12.9502 O   0  0  0  0  0  0  0  0  0  0  0  0
  2  1  1  6
  3  2  1  0
  3  4  1  0
  4  5  1  0
  5  9  1  0
  5  6  2  0
  7  2  1  0
  8  7  2  0
 11 12  1  1
 11 10  1  0
 13 11  1  0
 13 14  1  1
 14  7  1  0
 15 17  1  0
 15 13  1  0
 16 15  2  0
 18 17  1  0
 19 18  1  0
 20 19  1  0
 21 19  2  0
M  END
$$$$
