EVG.pdb
     RDKit          3D

 21 20  0  0  1  0  0  0  0  0999 V2000
   27.0764  -22.7889  -16.2113 N   0  0  0  0  0  0  0  0  0  0  0  0
   26.7420  -21.5236  -15.6477 C   0  0  1  0  0  0  0  0  0  0  0  0
   26.2325  -20.4964  -16.5857 C   0  0  0  0  0  0  0  0  0  0  0  0
   25.5399  -20.9630  -17.8076 C   0  0  0  0  0  0  0  0  0  0  0  0
   24.3241  -20.2119  -18.1799 C   0  0  0  0  0  0  0  0  0  0  0  0
   24.4384  -19.1643  -18.8661 O   0  0  0  0  0  0  0  0  0  0  0  0
   25.8821  -21.6989  -14.4433 C   0  0  0  0  0  0  0  0  0  0  0  0
   25.2045  -22.7425  -14.3499 O   0  0  0  0  0  0  0  0  0  0  0  0
   23.0373  -20.5817  -17.8224 O   0  0  0  0  0  0  0  0  0  0  0  0
   24.8414  -20.7144   -9.7512 C   0  0  0  0  0  0  0  0  0  0  0  0
   25.7477  -20.5400  -10.9633 C   0  0  1  0  0  0  0  0  0  0  0  0
   26.9491  -21.4192  -10.7044 C   0  0  0  0  0  0  0  0  0  0  0  0
   25.0141  -20.9059  -12.2142 C   0  0  2  0  0  0  0  0  0  0  0  0
   25.8019  -20.7340  -13.4037 N   0  0  0  0  0  0  0  0  0  0  0  0
   23.7098  -20.1819  -12.3109 C   0  0  0  0  0  0  0  0  0  0  0  0
   23.6698  -18.9302  -12.5711 O   0  0  0  0  0  0  0  0  0  0  0  0
   22.4647  -20.8384  -12.1216 N   0  0  0  0  0  0  0  0  0  0  0  0
   21.1946  -20.1104  -12.2153 C   0  0  0  0  0  0  0  0  0  0  0  0
   20.3908  -20.7814  -13.2674 C   0  0  0  0  0  0  0  0  0  0  0  0
   19.0091  -20.8301  -13.2820 O   0  0  0  0  0  0  0  0  0  0  0  0
   21.0094  -21.3421  -14.2063 O   0  0  0  0  0  0  0  0  0  0  0  0
  2  1  1  6
  3  2  1  0
  3  4  1  0
  4  5  1  0
  5  9  1  0
  5  6  2  0
  7  2  1  0
  8  7  2  0
 11 12  1  1
 11 10  1  0
 13 11  1  0
 13 14  1  6
 14  7  1  0
 15 17  1  0
 15 13  1  0
 16 15  2  0
 18 17  1  0
 19 18  1  0
 20 19  1  0
 21 19  2  0
M  END
$$$$
