EVG.pdb
     RDKit          3D

 21 20  0  0  1  0  0  0  0  0999 V2000
   24.2158  -20.5180  -15.9123 N   0  0  0  0  0  0  0  0  0  0  0  0
   23.3764  -19.9703  -14.8994 C   0  0  1  0  0  0  0  0  0  0  0  0
   21.9868  -19.6458  -15.2968 C   0  0  0  0  0  0  0  0  0  0  0  0
   21.7944  -18.6709  -16.3936 C   0  0  0  0  0  0  0  0  0  0  0  0
   22.0397  -17.2574  -16.0432 C   0  0  0  0  0  0  0  0  0  0  0  0
   23.2193  -16.8216  -16.0490 O   0  0  0  0  0  0  0  0  0  0  0  0
   23.4572  -20.7875  -13.6557 C   0  0  0  0  0  0  0  0  0  0  0  0
   23.3959  -22.0293  -13.7616 O   0  0  0  0  0  0  0  0  0  0  0  0
   21.0465  -16.3538  -15.7004 O   0  0  0  0  0  0  0  0  0  0  0  0
   24.7866  -19.1727   -9.8808 C   0  0  0  0  0  0  0  0  0  0  0  0
   24.8636  -20.6332  -10.3076 C   0  0  1  0  0  0  0  0  0  0  0  0
   24.9323  -21.4300   -9.0256 C   0  0  0  0  0  0  0  0  0  0  0  0
   23.6823  -20.9875  -11.1537 C   0  0  2  0  0  0  0  0  0  0  0  0
   23.6000  -20.2158  -12.3631 N   0  0  0  0  0  0  0  0  0  0  0  0
   22.4113  -20.9160  -10.3700 C   0  0  0  0  0  0  0  0  0  0  0  0
   21.6141  -19.9240  -10.4985 O   0  0  0  0  0  0  0  0  0  0  0  0
   22.0291  -21.9325   -9.4548 N   0  0  0  0  0  0  0  0  0  0  0  0
   20.8322  -21.7966   -8.6175 C   0  0  0  0  0  0  0  0  0  0  0  0
   19.7548  -22.5757   -9.2775 C   0  0  0  0  0  0  0  0  0  0  0  0
   18.6169  -23.0313   -8.6378 O   0  0  0  0  0  0  0  0  0  0  0  0
   19.8880  -22.8375  -10.4991 O   0  0  0  0  0  0  0  0  0  0  0  0
  2  1  1  6
  3  2  1  0
  3  4  1  0
  4  5  1  0
  5  9  1  0
  5  6  2  0
  7  2  1  0
  8  7  2  0
 11 12  1  1
 11 10  1  0
 13 11  1  0
 13 14  1  6
 14  7  1  0
 15 17  1  0
 15 13  1  0
 16 15  2  0
 18 17  1  0
 19 18  1  0
 20 19  1  0
 21 19  2  0
M  END
$$$$
