HEP.pdb
     RDKit          3D

 27 28  0  0  1  0  0  0  0  0999 V2000
   39.4117  -25.8325    3.6932 N   0  0  0  0  0  0  0  0  0  0  0  0
   39.0706  -25.0041    4.8236 C   0  0  1  0  0  0  0  0  0  0  0  0
   39.8322  -23.6917    4.6451 C   0  0  0  0  0  0  0  0  0  0  0  0
   41.2879  -23.9232    4.9572 C   0  0  0  0  0  0  0  0  0  0  0  0
   41.8461  -24.1131    6.2023 C   0  0  0  0  0  0  0  0  0  0  0  0
   43.1705  -24.2869    6.0865 N   0  0  0  0  0  0  0  0  0  0  0  0
   43.4541  -24.2084    4.7764 C   0  0  0  0  0  0  0  0  0  0  0  0
   42.3199  -23.9892    4.0955 N   0  0  0  0  0  0  0  0  0  0  0  0
   37.6258  -24.7935    4.9702 C   0  0  0  0  0  0  0  0  0  0  0  0
   36.9453  -24.3590    4.0104 O   0  0  0  0  0  0  0  0  0  0  0  0
   36.9466  -25.0628    6.1752 N   0  0  0  0  0  0  0  0  0  0  0  0
   35.5063  -24.9171    6.3109 C   0  0  1  0  0  0  0  0  0  0  0  0
   34.9552  -26.0481    7.1132 C   0  0  0  0  0  0  0  0  0  0  0  0
   33.5016  -26.0514    7.4179 C   0  0  0  0  0  0  0  0  0  0  0  0
   33.0052  -27.1346    8.2331 C   0  0  0  0  0  0  0  0  0  0  0  0
   33.4711  -28.2804    8.2759 O   0  0  0  0  0  0  0  0  0  0  0  0
   35.1260  -23.6035    6.7948 C   0  0  0  0  0  0  0  0  0  0  0  0
   35.7780  -23.0628    7.7083 O   0  0  0  0  0  0  0  0  0  0  0  0
   31.8897  -26.8686    9.0557 O   0  0  0  0  0  0  0  0  0  0  0  0
   34.0204  -22.8830    6.2599 N   0  0  0  0  0  0  0  0  0  0  0  0
   33.1144  -23.4144    5.2288 C   0  0  0  0  0  0  0  0  0  0  0  0
   31.9486  -22.4884    5.1247 C   0  0  0  0  0  0  0  0  0  0  0  0
   32.5804  -21.1528    5.4892 C   0  0  0  0  0  0  0  0  0  0  0  0
   33.5690  -21.5537    6.5828 C   0  0  1  0  0  0  0  0  0  0  0  0
   32.8994  -21.5051    7.9115 C   0  0  0  0  0  0  0  0  0  0  0  0
   32.3962  -22.6424    8.4960 O   0  0  0  0  0  0  0  0  0  0  0  0
   32.8003  -20.4085    8.4909 O   0  0  0  0  0  0  0  0  0  0  0  0
  2  1  1  6
  2  3  1  0
  3  4  1  0
  4  5  2  0
  4  8  1  0
  5  6  1  0
  6  7  1  0
  8  7  2  0
  9  2  1  0
  9 10  2  0
 11  9  1  0
 12 11  1  0
 12 17  1  0
 12 13  1  1
 14 13  1  0
 15 14  1  0
 16 15  2  0
 17 20  1  0
 18 17  2  0
 19 15  1  0
 20 24  1  0
 20 21  1  0
 21 22  1  0
 23 22  1  0
 24 23  1  0
 25 26  1  0
 24 25  1  1
 27 25  2  0
M  END
$$$$
