HEP.pdb
     RDKit          3D

 27 28  0  0  1  0  0  0  0  0999 V2000
   25.5547  -14.5377  -17.8178 N   0  0  0  0  0  0  0  0  0  0  0  0
   24.6681  -14.2760  -16.7105 C   0  0  1  0  0  0  0  0  0  0  0  0
   25.5469  -14.1805  -15.4644 C   0  0  0  0  0  0  0  0  0  0  0  0
   26.1964  -15.5176  -15.2188 C   0  0  0  0  0  0  0  0  0  0  0  0
   26.0553  -16.6572  -15.9799 C   0  0  0  0  0  0  0  0  0  0  0  0
   26.7840  -17.6511  -15.4522 N   0  0  0  0  0  0  0  0  0  0  0  0
   27.3856  -17.1481  -14.3622 C   0  0  0  0  0  0  0  0  0  0  0  0
   27.0317  -15.8625  -14.2212 N   0  0  0  0  0  0  0  0  0  0  0  0
   23.8425  -13.0781  -16.9024 C   0  0  0  0  0  0  0  0  0  0  0  0
   24.3568  -12.0095  -17.3106 O   0  0  0  0  0  0  0  0  0  0  0  0
   22.4580  -13.0711  -16.6401 N   0  0  0  0  0  0  0  0  0  0  0  0
   21.6298  -11.8929  -16.8404 C   0  0  1  0  0  0  0  0  0  0  0  0
   20.1943  -12.2905  -16.9278 C   0  0  0  0  0  0  0  0  0  0  0  0
   19.1702  -11.2170  -16.9969 C   0  0  0  0  0  0  0  0  0  0  0  0
   17.7901  -11.6322  -17.0834 C   0  0  0  0  0  0  0  0  0  0  0  0
   17.3849  -12.8016  -17.0825 O   0  0  0  0  0  0  0  0  0  0  0  0
   21.9010  -10.8535  -15.8654 C   0  0  0  0  0  0  0  0  0  0  0  0
   22.1094  -11.1547  -14.6746 O   0  0  0  0  0  0  0  0  0  0  0  0
   16.8127  -10.6186  -17.1780 O   0  0  0  0  0  0  0  0  0  0  0  0
   21.9467   -9.4734  -16.2128 N   0  0  0  0  0  0  0  0  0  0  0  0
   21.8200   -8.9677  -17.5892 C   0  0  0  0  0  0  0  0  0  0  0  0
   21.6524   -7.4864  -17.5175 C   0  0  0  0  0  0  0  0  0  0  0  0
   22.4397   -7.1461  -16.2604 C   0  0  0  0  0  0  0  0  0  0  0  0
   22.1204   -8.3319  -15.3515 C   0  0  1  0  0  0  0  0  0  0  0  0
   20.8927   -8.0452  -14.5598 C   0  0  0  0  0  0  0  0  0  0  0  0
   20.9413   -7.2637  -13.4306 O   0  0  0  0  0  0  0  0  0  0  0  0
   19.8109   -8.5288  -14.9389 O   0  0  0  0  0  0  0  0  0  0  0  0
  2  1  1  6
  2  3  1  0
  3  4  1  0
  4  5  2  0
  4  8  1  0
  5  6  1  0
  6  7  1  0
  8  7  2  0
  9  2  1  0
  9 10  2  0
 11  9  1  0
 12 11  1  0
 12 17  1  0
 12 13  1  1
 14 13  1  0
 15 14  1  0
 16 15  2  0
 17 20  1  0
 18 17  2  0
 19 15  1  0
 20 24  1  0
 20 21  1  0
 21 22  1  0
 23 22  1  0
 24 23  1  0
 25 26  1  0
 24 25  1  6
 27 25  2  0
M  END
$$$$
