HEP.pdb
     RDKit          3D

 27 28  0  0  1  0  0  0  0  0999 V2000
   18.4350  -12.3927  -16.1659 N   0  0  0  0  0  0  0  0  0  0  0  0
   18.3926  -11.0622  -16.7212 C   0  0  1  0  0  0  0  0  0  0  0  0
   16.9821  -10.5318  -16.4695 C   0  0  0  0  0  0  0  0  0  0  0  0
   16.0109  -11.2910  -17.3359 C   0  0  0  0  0  0  0  0  0  0  0  0
   15.3805  -12.4765  -17.0276 C   0  0  0  0  0  0  0  0  0  0  0  0
   14.5894  -12.8499  -18.0436 N   0  0  0  0  0  0  0  0  0  0  0  0
   14.7149  -11.9085  -18.9928 C   0  0  0  0  0  0  0  0  0  0  0  0
   15.5715  -10.9690  -18.5668 N   0  0  0  0  0  0  0  0  0  0  0  0
   19.4263  -10.1753  -16.1751 C   0  0  0  0  0  0  0  0  0  0  0  0
   19.5162   -9.9888  -14.9381 O   0  0  0  0  0  0  0  0  0  0  0  0
   20.3493   -9.5016  -16.9998 N   0  0  0  0  0  0  0  0  0  0  0  0
   21.3806   -8.6259  -16.4671 C   0  0  1  0  0  0  0  0  0  0  0  0
   22.5855   -8.6675  -17.3462 C   0  0  0  0  0  0  0  0  0  0  0  0
   23.7506   -7.8211  -16.9828 C   0  0  0  0  0  0  0  0  0  0  0  0
   24.8587   -7.7990  -17.9081 C   0  0  0  0  0  0  0  0  0  0  0  0
   26.0517   -7.9433  -17.6120 O   0  0  0  0  0  0  0  0  0  0  0  0
   20.8864   -7.2889  -16.1977 C   0  0  0  0  0  0  0  0  0  0  0  0
   20.1920   -6.6980  -17.0467 O   0  0  0  0  0  0  0  0  0  0  0  0
   24.5603   -7.5948  -19.2723 O   0  0  0  0  0  0  0  0  0  0  0  0
   21.1588   -6.6050  -14.9788 N   0  0  0  0  0  0  0  0  0  0  0  0
   21.9033   -7.1945  -13.8543 C   0  0  0  0  0  0  0  0  0  0  0  0
   22.2079   -6.1009  -12.8854 C   0  0  0  0  0  0  0  0  0  0  0  0
   21.0208   -5.1699  -13.0860 C   0  0  0  0  0  0  0  0  0  0  0  0
   20.7878   -5.2677  -14.5927 C   0  0  1  0  0  0  0  0  0  0  0  0
   21.6049   -4.2423  -15.2977 C   0  0  0  0  0  0  0  0  0  0  0  0
   22.7504   -4.5876  -15.9738 O   0  0  0  0  0  0  0  0  0  0  0  0
   21.2322   -3.0556  -15.2653 O   0  0  0  0  0  0  0  0  0  0  0  0
  2  1  1  1
  2  3  1  0
  3  4  1  0
  4  5  2  0
  4  8  1  0
  5  6  1  0
  6  7  1  0
  8  7  2  0
  9  2  1  0
  9 10  2  0
 11  9  1  0
 12 11  1  0
 12 17  1  0
 12 13  1  6
 14 13  1  0
 15 14  1  0
 16 15  2  0
 17 20  1  0
 18 17  2  0
 19 15  1  0
 20 24  1  0
 20 21  1  0
 21 22  1  0
 23 22  1  0
 24 23  1  0
 25 26  1  0
 24 25  1  6
 27 25  2  0
M  END
$$$$
