HEP.pdb
     RDKit          3D

 27 28  0  0  1  0  0  0  0  0999 V2000
   19.0271  -12.2106  -16.6741 N   0  0  0  0  0  0  0  0  0  0  0  0
   20.0739  -11.4337  -17.2916 C   0  0  1  0  0  0  0  0  0  0  0  0
   20.1269  -11.8642  -18.7566 C   0  0  0  0  0  0  0  0  0  0  0  0
   20.5081  -13.3202  -18.8263 C   0  0  0  0  0  0  0  0  0  0  0  0
   19.6862  -14.3745  -19.1592 C   0  0  0  0  0  0  0  0  0  0  0  0
   20.3766  -15.5229  -19.1130 N   0  0  0  0  0  0  0  0  0  0  0  0
   21.6299  -15.2023  -18.7533 C   0  0  0  0  0  0  0  0  0  0  0  0
   21.7095  -13.8750  -18.5804 N   0  0  0  0  0  0  0  0  0  0  0  0
   19.8828   -9.9863  -17.1434 C   0  0  0  0  0  0  0  0  0  0  0  0
   18.7373   -9.4833  -17.2320 O   0  0  0  0  0  0  0  0  0  0  0  0
   20.9580   -9.1084  -16.9009 N   0  0  0  0  0  0  0  0  0  0  0  0
   20.7741   -7.6775  -16.7194 C   0  0  1  0  0  0  0  0  0  0  0  0
   21.3633   -7.2514  -15.4164 C   0  0  0  0  0  0  0  0  0  0  0  0
   21.2957   -5.8134  -15.0509 C   0  0  0  0  0  0  0  0  0  0  0  0
   21.9161   -5.4234  -13.8069 C   0  0  0  0  0  0  0  0  0  0  0  0
   21.3622   -5.3923  -12.7007 O   0  0  0  0  0  0  0  0  0  0  0  0
   21.2367   -6.9109  -17.8607 C   0  0  0  0  0  0  0  0  0  0  0  0
   22.3826   -7.0960  -18.3130 O   0  0  0  0  0  0  0  0  0  0  0  0
   23.2744   -5.0427  -13.8511 O   0  0  0  0  0  0  0  0  0  0  0  0
   20.4232   -5.9376  -18.5076 N   0  0  0  0  0  0  0  0  0  0  0  0
   19.0372   -5.6338  -18.1164 C   0  0  0  0  0  0  0  0  0  0  0  0
   18.6191   -4.3979  -18.8412 C   0  0  0  0  0  0  0  0  0  0  0  0
   19.4304   -4.5020  -20.1246 C   0  0  0  0  0  0  0  0  0  0  0  0
   20.7497   -5.0867  -19.6232 C   0  0  1  0  0  0  0  0  0  0  0  0
   21.6717   -3.9869  -19.2278 C   0  0  0  0  0  0  0  0  0  0  0  0
   22.0060   -3.7781  -17.9113 O   0  0  0  0  0  0  0  0  0  0  0  0
   22.1398   -3.2514  -20.1155 O   0  0  0  0  0  0  0  0  0  0  0  0
  2  1  1  1
  2  3  1  0
  3  4  1  0
  4  5  2  0
  4  8  1  0
  5  6  1  0
  6  7  1  0
  8  7  2  0
  9  2  1  0
  9 10  2  0
 11  9  1  0
 12 11  1  0
 12 17  1  0
 12 13  1  1
 14 13  1  0
 15 14  1  0
 16 15  2  0
 17 20  1  0
 18 17  2  0
 19 15  1  0
 20 24  1  0
 20 21  1  0
 21 22  1  0
 23 22  1  0
 24 23  1  0
 25 26  1  0
 24 25  1  1
 27 25  2  0
M  END
$$$$
