HEP.pdb
     RDKit          3D

 27 28  0  0  1  0  0  0  0  0999 V2000
   23.4089  -11.2033  -19.4318 N   0  0  0  0  0  0  0  0  0  0  0  0
   22.1591  -10.5176  -19.2122 C   0  0  1  0  0  0  0  0  0  0  0  0
   21.0661  -11.5843  -19.2527 C   0  0  0  0  0  0  0  0  0  0  0  0
   20.9550  -12.1194  -20.6568 C   0  0  0  0  0  0  0  0  0  0  0  0
   20.2416  -11.5669  -21.6978 C   0  0  0  0  0  0  0  0  0  0  0  0
   20.3782  -12.3234  -22.7963 N   0  0  0  0  0  0  0  0  0  0  0  0
   21.1733  -13.3509  -22.4574 C   0  0  0  0  0  0  0  0  0  0  0  0
   21.5211  -13.2284  -21.1682 N   0  0  0  0  0  0  0  0  0  0  0  0
   22.1360   -9.7443  -17.9653 C   0  0  0  0  0  0  0  0  0  0  0  0
   22.6633  -10.2014  -16.9231 O   0  0  0  0  0  0  0  0  0  0  0  0
   21.5297   -8.4751  -17.8804 N   0  0  0  0  0  0  0  0  0  0  0  0
   21.5414   -7.6823  -16.6616 C   0  0  1  0  0  0  0  0  0  0  0  0
   22.1010   -6.3279  -16.9425 C   0  0  0  0  0  0  0  0  0  0  0  0
   22.0761   -5.3173  -15.8544 C   0  0  0  0  0  0  0  0  0  0  0  0
   22.6051   -4.0096  -16.1623 C   0  0  0  0  0  0  0  0  0  0  0  0
   23.4638   -3.4041  -15.5083 O   0  0  0  0  0  0  0  0  0  0  0  0
   20.2512   -7.6673  -15.9987 C   0  0  0  0  0  0  0  0  0  0  0  0
   19.2178   -7.4254  -16.6511 O   0  0  0  0  0  0  0  0  0  0  0  0
   22.1012   -3.3599  -17.3093 O   0  0  0  0  0  0  0  0  0  0  0  0
   20.1047   -7.9270  -14.6063 N   0  0  0  0  0  0  0  0  0  0  0  0
   21.2175   -8.3006  -13.7184 C   0  0  0  0  0  0  0  0  0  0  0  0
   20.7231   -8.2284  -12.3120 C   0  0  0  0  0  0  0  0  0  0  0  0
   19.2518   -8.5780  -12.4826 C   0  0  0  0  0  0  0  0  0  0  0  0
   18.9097   -7.8895  -13.8028 C   0  0  1  0  0  0  0  0  0  0  0  0
   18.4621   -6.4936  -13.5432 C   0  0  0  0  0  0  0  0  0  0  0  0
   17.1886   -6.2258  -13.1018 O   0  0  0  0  0  0  0  0  0  0  0  0
   19.2657   -5.5632  -13.7341 O   0  0  0  0  0  0  0  0  0  0  0  0
  2  1  1  1
  2  3  1  0
  3  4  1  0
  4  5  2  0
  4  8  1  0
  5  6  1  0
  6  7  1  0
  8  7  2  0
  9  2  1  0
  9 10  2  0
 11  9  1  0
 12 11  1  0
 12 17  1  0
 12 13  1  6
 14 13  1  0
 15 14  1  0
 16 15  2  0
 17 20  1  0
 18 17  2  0
 19 15  1  0
 20 24  1  0
 20 21  1  0
 21 22  1  0
 23 22  1  0
 24 23  1  0
 25 26  1  0
 24 25  1  1
 27 25  2  0
M  END
$$$$
