HEP.pdb
     RDKit          3D

 27 28  0  0  1  0  0  0  0  0999 V2000
   24.4548  -15.7498  -17.0427 N   0  0  0  0  0  0  0  0  0  0  0  0
   24.9139  -17.1147  -16.9612 C   0  0  1  0  0  0  0  0  0  0  0  0
   26.4309  -17.0735  -17.1380 C   0  0  0  0  0  0  0  0  0  0  0  0
   26.7486  -16.6745  -18.5557 C   0  0  0  0  0  0  0  0  0  0  0  0
   26.6023  -17.4499  -19.6849 C   0  0  0  0  0  0  0  0  0  0  0  0
   26.9874  -16.7575  -20.7665 N   0  0  0  0  0  0  0  0  0  0  0  0
   27.3764  -15.5490  -20.3292 C   0  0  0  0  0  0  0  0  0  0  0  0
   27.2327  -15.4986  -18.9969 N   0  0  0  0  0  0  0  0  0  0  0  0
   24.5165  -17.7843  -15.7173 C   0  0  0  0  0  0  0  0  0  0  0  0
   24.7979  -17.2787  -14.6045 O   0  0  0  0  0  0  0  0  0  0  0  0
   23.8144  -19.0061  -15.7139 N   0  0  0  0  0  0  0  0  0  0  0  0
   23.4784  -19.7119  -14.4879 C   0  0  1  0  0  0  0  0  0  0  0  0
   22.0130  -19.9903  -14.4479 C   0  0  0  0  0  0  0  0  0  0  0  0
   21.0774  -18.8369  -14.4658 C   0  0  0  0  0  0  0  0  0  0  0  0
   19.6654  -19.1382  -14.4615 C   0  0  0  0  0  0  0  0  0  0  0  0
   18.9870  -19.4120  -13.4633 O   0  0  0  0  0  0  0  0  0  0  0  0
   24.3119  -20.8800  -14.2757 C   0  0  0  0  0  0  0  0  0  0  0  0
   24.6404  -21.5954  -15.2412 O   0  0  0  0  0  0  0  0  0  0  0  0
   18.9948  -19.1205  -15.7032 O   0  0  0  0  0  0  0  0  0  0  0  0
   24.7884  -21.2545  -12.9871 N   0  0  0  0  0  0  0  0  0  0  0  0
   24.4428  -20.5448  -11.7449 C   0  0  0  0  0  0  0  0  0  0  0  0
   24.9088  -21.3788  -10.5982 C   0  0  0  0  0  0  0  0  0  0  0  0
   26.1211  -22.0779  -11.1962 C   0  0  0  0  0  0  0  0  0  0  0  0
   25.6644  -22.3410  -12.6301 C   0  0  1  0  0  0  0  0  0  0  0  0
   24.9721  -23.6567  -12.7064 C   0  0  0  0  0  0  0  0  0  0  0  0
   25.6814  -24.8271  -12.8300 O   0  0  0  0  0  0  0  0  0  0  0  0
   23.7291  -23.6816  -12.6567 O   0  0  0  0  0  0  0  0  0  0  0  0
  2  1  1  1
  2  3  1  0
  3  4  1  0
  4  5  2  0
  4  8  1  0
  5  6  1  0
  6  7  1  0
  8  7  2  0
  9  2  1  0
  9 10  2  0
 11  9  1  0
 12 11  1  0
 12 17  1  0
 12 13  1  6
 14 13  1  0
 15 14  1  0
 16 15  2  0
 17 20  1  0
 18 17  2  0
 19 15  1  0
 20 24  1  0
 20 21  1  0
 21 22  1  0
 23 22  1  0
 24 23  1  0
 25 26  1  0
 24 25  1  1
 27 25  2  0
M  END
$$$$
