HEP.pdb
     RDKit          3D

 27 28  0  0  1  0  0  0  0  0999 V2000
   24.9209  -19.4028  -16.3978 N   0  0  0  0  0  0  0  0  0  0  0  0
   25.8708  -19.3599  -15.3133 C   0  0  1  0  0  0  0  0  0  0  0  0
   26.7432  -18.1280  -15.5492 C   0  0  0  0  0  0  0  0  0  0  0  0
   27.6796  -18.4028  -16.6972 C   0  0  0  0  0  0  0  0  0  0  0  0
   27.8331  -19.5943  -17.3713 C   0  0  0  0  0  0  0  0  0  0  0  0
   28.7586  -19.4587  -18.3319 N   0  0  0  0  0  0  0  0  0  0  0  0
   29.1917  -18.1893  -18.2701 C   0  0  0  0  0  0  0  0  0  0  0  0
   28.5417  -17.5526  -17.2851 N   0  0  0  0  0  0  0  0  0  0  0  0
   25.2365  -19.3475  -13.9901 C   0  0  0  0  0  0  0  0  0  0  0  0
   24.4892  -18.3987  -13.6515 O   0  0  0  0  0  0  0  0  0  0  0  0
   25.4347  -20.3811  -13.0531 N   0  0  0  0  0  0  0  0  0  0  0  0
   24.8087  -20.3781  -11.7408 C   0  0  1  0  0  0  0  0  0  0  0  0
   23.4250  -20.9281  -11.8373 C   0  0  0  0  0  0  0  0  0  0  0  0
   22.5000  -20.3333  -12.8357 C   0  0  0  0  0  0  0  0  0  0  0  0
   21.1697  -20.8895  -12.9095 C   0  0  0  0  0  0  0  0  0  0  0  0
   20.5906  -21.2454  -13.9438 O   0  0  0  0  0  0  0  0  0  0  0  0
   25.6336  -21.0164  -10.7327 C   0  0  0  0  0  0  0  0  0  0  0  0
   26.0113  -22.1932  -10.8896 O   0  0  0  0  0  0  0  0  0  0  0  0
   20.4626  -21.0423  -11.6978 O   0  0  0  0  0  0  0  0  0  0  0  0
   26.0467  -20.3454   -9.5466 N   0  0  0  0  0  0  0  0  0  0  0  0
   25.7894  -18.9217   -9.2759 C   0  0  0  0  0  0  0  0  0  0  0  0
   26.1320  -18.6599   -7.8470 C   0  0  0  0  0  0  0  0  0  0  0  0
   27.2448  -19.6694   -7.6053 C   0  0  0  0  0  0  0  0  0  0  0  0
   26.7677  -20.8728   -8.4165 C   0  0  1  0  0  0  0  0  0  0  0  0
   25.9071  -21.7437   -7.5697 C   0  0  0  0  0  0  0  0  0  0  0  0
   26.4464  -22.5287   -6.5791 O   0  0  0  0  0  0  0  0  0  0  0  0
   24.6798  -21.7511   -7.7741 O   0  0  0  0  0  0  0  0  0  0  0  0
  2  1  1  6
  2  3  1  0
  3  4  1  0
  4  5  2  0
  4  8  1  0
  5  6  1  0
  6  7  1  0
  8  7  2  0
  9  2  1  0
  9 10  2  0
 11  9  1  0
 12 11  1  0
 12 17  1  0
 12 13  1  6
 14 13  1  0
 15 14  1  0
 16 15  2  0
 17 20  1  0
 18 17  2  0
 19 15  1  0
 20 24  1  0
 20 21  1  0
 21 22  1  0
 23 22  1  0
 24 23  1  0
 25 26  1  0
 24 25  1  1
 27 25  2  0
M  END
$$$$
