HEP.pdb
     RDKit          3D

 27 28  0  0  1  0  0  0  0  0999 V2000
   18.2677  -16.1651  -16.9269 N   0  0  0  0  0  0  0  0  0  0  0  0
   18.0368  -14.7421  -16.8786 C   0  0  1  0  0  0  0  0  0  0  0  0
   16.8018  -14.5324  -16.0039 C   0  0  0  0  0  0  0  0  0  0  0  0
   16.4632  -13.0645  -15.9775 C   0  0  0  0  0  0  0  0  0  0  0  0
   17.0045  -12.1063  -15.1488 C   0  0  0  0  0  0  0  0  0  0  0  0
   16.4574  -10.9116  -15.4150 N   0  0  0  0  0  0  0  0  0  0  0  0
   15.5735  -11.1074  -16.4066 C   0  0  0  0  0  0  0  0  0  0  0  0
   15.5766  -12.4047  -16.7458 N   0  0  0  0  0  0  0  0  0  0  0  0
   19.1969  -13.9850  -16.3942 C   0  0  0  0  0  0  0  0  0  0  0  0
   19.7552  -14.2972  -15.3153 O   0  0  0  0  0  0  0  0  0  0  0  0
   19.7279  -12.8899  -17.1044 N   0  0  0  0  0  0  0  0  0  0  0  0
   20.8695  -12.1268  -16.6262 C   0  0  1  0  0  0  0  0  0  0  0  0
   21.8539  -11.9397  -17.7319 C   0  0  0  0  0  0  0  0  0  0  0  0
   21.4431  -11.1347  -18.9105 C   0  0  0  0  0  0  0  0  0  0  0  0
   22.4425  -10.9023  -19.9261 C   0  0  0  0  0  0  0  0  0  0  0  0
   22.2926  -10.2163  -20.9453 O   0  0  0  0  0  0  0  0  0  0  0  0
   20.4756  -10.8967  -15.9659 C   0  0  0  0  0  0  0  0  0  0  0  0
   19.3905  -10.3555  -16.2517 O   0  0  0  0  0  0  0  0  0  0  0  0
   23.7038  -11.5092  -19.7456 O   0  0  0  0  0  0  0  0  0  0  0  0
   21.2860  -10.2658  -14.9796 N   0  0  0  0  0  0  0  0  0  0  0  0
   22.5788  -10.7955  -14.5165 C   0  0  0  0  0  0  0  0  0  0  0  0
   23.2363   -9.7386  -13.6930 C   0  0  0  0  0  0  0  0  0  0  0  0
   22.0353   -9.0184  -13.0971 C   0  0  0  0  0  0  0  0  0  0  0  0
   21.0384   -9.0461  -14.2543 C   0  0  1  0  0  0  0  0  0  0  0  0
   21.2277   -7.8447  -15.1129 C   0  0  0  0  0  0  0  0  0  0  0  0
   20.7762   -6.6090  -14.7161 O   0  0  0  0  0  0  0  0  0  0  0  0
   21.8060   -7.9770  -16.2065 O   0  0  0  0  0  0  0  0  0  0  0  0
  2  1  1  1
  2  3  1  0
  3  4  1  0
  4  5  2  0
  4  8  1  0
  5  6  1  0
  6  7  1  0
  8  7  2  0
  9  2  1  0
  9 10  2  0
 11  9  1  0
 12 11  1  0
 12 17  1  0
 12 13  1  6
 14 13  1  0
 15 14  1  0
 16 15  2  0
 17 20  1  0
 18 17  2  0
 19 15  1  0
 20 24  1  0
 20 21  1  0
 21 22  1  0
 23 22  1  0
 24 23  1  0
 25 26  1  0
 24 25  1  6
 27 25  2  0
M  END
$$$$
