GEG.pdb
     RDKit          3D

 18 17  0  0  1  0  0  0  0  0999 V2000
   -1.1451  -22.2221   24.8835 N   0  0  0  0  0  0  0  0  0  0  0  0
   -2.5154  -22.6737   25.0362 C   0  0  0  0  0  0  0  0  0  0  0  0
   -2.8985  -22.6960   26.4621 C   0  0  0  0  0  0  0  0  0  0  0  0
   -2.0458  -22.5113   27.3900 O   0  0  0  0  0  0  0  0  0  0  0  0
   -4.2570  -22.9303   26.8077 N   0  0  0  0  0  0  0  0  0  0  0  0
   -4.6481  -23.1142   28.1899 C   0  0  1  0  0  0  0  0  0  0  0  0
   -6.0214  -22.5914   28.4762 C   0  0  0  0  0  0  0  0  0  0  0  0
   -6.3884  -22.5270   29.9107 C   0  0  0  0  0  0  0  0  0  0  0  0
   -7.7397  -22.0629   30.2039 C   0  0  0  0  0  0  0  0  0  0  0  0
   -8.0637  -20.9008   29.8314 O   0  0  0  0  0  0  0  0  0  0  0  0
   -4.6323  -24.5493   28.5780 C   0  0  0  0  0  0  0  0  0  0  0  0
   -5.0304  -25.4245   27.7699 O   0  0  0  0  0  0  0  0  0  0  0  0
   -8.7306  -22.7757   30.8625 O   0  0  0  0  0  0  0  0  0  0  0  0
   -4.1820  -25.0093   29.8435 N   0  0  0  0  0  0  0  0  0  0  0  0
   -4.2033  -26.3809   30.2489 C   0  0  0  0  0  0  0  0  0  0  0  0
   -3.6500  -26.4917   31.6179 C   0  0  0  0  0  0  0  0  0  0  0  0
   -3.6505  -27.7193   32.2579 O   0  0  0  0  0  0  0  0  0  0  0  0
   -3.1934  -25.4770   32.1699 O   0  0  0  0  0  0  0  0  0  0  0  0
  2  1  1  0
  3  4  2  0
  3  2  1  0
  5  3  1  0
  6  5  1  0
  6  7  1  6
  8  7  1  0
  9  8  1  0
 10  9  2  0
 11  6  1  0
 11 14  1  0
 12 11  2  0
 13  9  1  0
 15 14  1  0
 16 15  1  0
 17 16  1  0
 18 16  2  0
M  END
$$$$
