GEG.pdb
     RDKit          3D

 18 17  0  0  1  0  0  0  0  0999 V2000
    7.7402  -12.7361   18.6522 N   0  0  0  0  0  0  0  0  0  0  0  0
    8.3947  -13.8357   19.3359 C   0  0  0  0  0  0  0  0  0  0  0  0
    7.5295  -14.3695   20.4068 C   0  0  0  0  0  0  0  0  0  0  0  0
    6.4156  -13.8278   20.7034 O   0  0  0  0  0  0  0  0  0  0  0  0
    7.9525  -15.5200   21.1262 N   0  0  0  0  0  0  0  0  0  0  0  0
    7.1079  -16.1077   22.1452 C   0  0  1  0  0  0  0  0  0  0  0  0
    6.5156  -17.4156   21.7209 C   0  0  0  0  0  0  0  0  0  0  0  0
    5.1458  -17.3385   21.1601 C   0  0  0  0  0  0  0  0  0  0  0  0
    4.1211  -18.0941   21.8715 C   0  0  0  0  0  0  0  0  0  0  0  0
    4.4761  -18.7911   22.8626 O   0  0  0  0  0  0  0  0  0  0  0  0
    7.8577  -16.3511   23.4057 C   0  0  0  0  0  0  0  0  0  0  0  0
    9.0987  -16.5419   23.3733 O   0  0  0  0  0  0  0  0  0  0  0  0
    2.7674  -18.1311   21.5710 O   0  0  0  0  0  0  0  0  0  0  0  0
    7.2422  -16.3827   24.6848 N   0  0  0  0  0  0  0  0  0  0  0  0
    7.9646  -16.3845   25.9194 C   0  0  0  0  0  0  0  0  0  0  0  0
    7.8901  -17.7340   26.5241 C   0  0  0  0  0  0  0  0  0  0  0  0
    8.5196  -17.9769   27.7329 O   0  0  0  0  0  0  0  0  0  0  0  0
    7.2613  -18.6278   25.9335 O   0  0  0  0  0  0  0  0  0  0  0  0
  2  1  1  0
  3  4  2  0
  3  2  1  0
  5  3  1  0
  6  5  1  0
  6  7  1  6
  8  7  1  0
  9  8  1  0
 10  9  2  0
 11  6  1  0
 11 14  1  0
 12 11  2  0
 13  9  1  0
 15 14  1  0
 16 15  1  0
 17 16  1  0
 18 16  2  0
M  END
$$$$
