GEG.pdb
     RDKit          3D

 18 17  0  0  1  0  0  0  0  0999 V2000
    6.1679  -24.6228   22.0627 N   0  0  0  0  0  0  0  0  0  0  0  0
    5.1068  -23.7703   22.5650 C   0  0  0  0  0  0  0  0  0  0  0  0
    5.3925  -22.3535   22.2628 C   0  0  0  0  0  0  0  0  0  0  0  0
    6.5641  -21.9532   21.9639 O   0  0  0  0  0  0  0  0  0  0  0  0
    4.3297  -21.4110   22.3069 N   0  0  0  0  0  0  0  0  0  0  0  0
    4.5695  -20.0111   22.0241 C   0  0  1  0  0  0  0  0  0  0  0  0
    3.4377  -19.3690   21.2840 C   0  0  0  0  0  0  0  0  0  0  0  0
    2.8624  -20.1760   20.1820 C   0  0  0  0  0  0  0  0  0  0  0  0
    1.5440  -19.7666   19.7116 C   0  0  0  0  0  0  0  0  0  0  0  0
    1.4456  -18.6666   19.0995 O   0  0  0  0  0  0  0  0  0  0  0  0
    4.7825  -19.2285   23.2701 C   0  0  0  0  0  0  0  0  0  0  0  0
    4.0125  -19.3834   24.2502 O   0  0  0  0  0  0  0  0  0  0  0  0
    0.3588  -20.4704   19.8669 O   0  0  0  0  0  0  0  0  0  0  0  0
    5.8335  -18.2871   23.4290 N   0  0  0  0  0  0  0  0  0  0  0  0
    6.0571  -17.5334   24.6240 C   0  0  0  0  0  0  0  0  0  0  0  0
    7.2328  -18.0862   25.3343 C   0  0  0  0  0  0  0  0  0  0  0  0
    7.6170  -17.5408   26.5473 O   0  0  0  0  0  0  0  0  0  0  0  0
    7.8560  -19.0334   24.8270 O   0  0  0  0  0  0  0  0  0  0  0  0
  2  1  1  0
  3  4  2  0
  3  2  1  0
  5  3  1  0
  6  5  1  0
  6  7  1  1
  8  7  1  0
  9  8  1  0
 10  9  2  0
 11  6  1  0
 11 14  1  0
 12 11  2  0
 13  9  1  0
 15 14  1  0
 16 15  1  0
 17 16  1  0
 18 16  2  0
M  END
$$$$
