GEG.pdb
     RDKit          3D

 18 17  0  0  1  0  0  0  0  0999 V2000
    8.3006  -15.2916   19.1646 N   0  0  0  0  0  0  0  0  0  0  0  0
    7.2810  -15.0166   20.1595 C   0  0  0  0  0  0  0  0  0  0  0  0
    7.8919  -14.8315   21.4910 C   0  0  0  0  0  0  0  0  0  0  0  0
    9.1167  -15.1024   21.7119 O   0  0  0  0  0  0  0  0  0  0  0  0
    7.0899  -14.3373   22.5551 N   0  0  0  0  0  0  0  0  0  0  0  0
    7.6351  -14.1968   23.8894 C   0  0  1  0  0  0  0  0  0  0  0  0
    6.8121  -13.2971   24.7580 C   0  0  0  0  0  0  0  0  0  0  0  0
    7.3556  -13.0563   26.1157 C   0  0  0  0  0  0  0  0  0  0  0  0
    6.5567  -12.1949   26.9798 C   0  0  0  0  0  0  0  0  0  0  0  0
    5.3155  -12.1191   26.7613 O   0  0  0  0  0  0  0  0  0  0  0  0
    7.7348  -15.5086   24.5820 C   0  0  0  0  0  0  0  0  0  0  0  0
    6.7380  -16.2710   24.6329 O   0  0  0  0  0  0  0  0  0  0  0  0
    7.0229  -11.4320   28.0405 O   0  0  0  0  0  0  0  0  0  0  0  0
    8.9218  -15.9700   25.2097 N   0  0  0  0  0  0  0  0  0  0  0  0
    9.0703  -17.2747   25.7771 C   0  0  0  0  0  0  0  0  0  0  0  0
   10.4273  -17.4014   26.3558 C   0  0  0  0  0  0  0  0  0  0  0  0
   10.7542  -18.5280   27.0910 O   0  0  0  0  0  0  0  0  0  0  0  0
   11.2515  -16.4908   26.1706 O   0  0  0  0  0  0  0  0  0  0  0  0
  2  1  1  0
  3  4  2  0
  3  2  1  0
  5  3  1  0
  6  5  1  0
  6  7  1  1
  8  7  1  0
  9  8  1  0
 10  9  2  0
 11  6  1  0
 11 14  1  0
 12 11  2  0
 13  9  1  0
 15 14  1  0
 16 15  1  0
 17 16  1  0
 18 16  2  0
M  END
$$$$
