GEG.pdb
     RDKit          3D

 18 17  0  0  1  0  0  0  0  0999 V2000
   -5.2272  -23.9644   24.3113 N   0  0  0  0  0  0  0  0  0  0  0  0
   -5.3109  -25.1493   25.1444 C   0  0  0  0  0  0  0  0  0  0  0  0
   -4.8922  -24.8423   26.5267 C   0  0  0  0  0  0  0  0  0  0  0  0
   -3.6853  -24.5555   26.8153 O   0  0  0  0  0  0  0  0  0  0  0  0
   -5.8640  -24.8678   27.5635 N   0  0  0  0  0  0  0  0  0  0  0  0
   -5.5084  -24.5077   28.9204 C   0  0  1  0  0  0  0  0  0  0  0  0
   -6.5711  -23.7031   29.6020 C   0  0  0  0  0  0  0  0  0  0  0  0
   -6.3462  -22.2382   29.6152 C   0  0  0  0  0  0  0  0  0  0  0  0
   -7.2478  -21.4613   30.4582 C   0  0  0  0  0  0  0  0  0  0  0  0
   -8.2686  -22.0377   30.9273 O   0  0  0  0  0  0  0  0  0  0  0  0
   -5.2585  -25.7094   29.7592 C   0  0  0  0  0  0  0  0  0  0  0  0
   -6.0751  -26.6637   29.7512 O   0  0  0  0  0  0  0  0  0  0  0  0
   -7.1028  -20.1271   30.8088 O   0  0  0  0  0  0  0  0  0  0  0  0
   -4.1201  -25.8529   30.5956 N   0  0  0  0  0  0  0  0  0  0  0  0
   -3.8544  -27.0113   31.3915 C   0  0  0  0  0  0  0  0  0  0  0  0
   -2.5806  -26.8178   32.1212 C   0  0  0  0  0  0  0  0  0  0  0  0
   -2.5987  -26.6506   33.4953 O   0  0  0  0  0  0  0  0  0  0  0  0
   -1.5140  -26.8090   31.4846 O   0  0  0  0  0  0  0  0  0  0  0  0
  2  1  1  0
  3  4  2  0
  3  2  1  0
  5  3  1  0
  6  5  1  0
  6  7  1  1
  8  7  1  0
  9  8  1  0
 10  9  2  0
 11  6  1  0
 11 14  1  0
 12 11  2  0
 13  9  1  0
 15 14  1  0
 16 15  1  0
 17 16  1  0
 18 16  2  0
M  END
$$$$
