GEG.pdb
     RDKit          3D

 18 17  0  0  1  0  0  0  0  0999 V2000
   -0.7213  -26.0650   28.6353 N   0  0  0  0  0  0  0  0  0  0  0  0
   -1.8473  -26.9409   28.8998 C   0  0  0  0  0  0  0  0  0  0  0  0
   -3.1093  -26.3092   28.4654 C   0  0  0  0  0  0  0  0  0  0  0  0
   -3.3628  -26.0899   27.2367 O   0  0  0  0  0  0  0  0  0  0  0  0
   -4.0672  -25.9360   29.4468 N   0  0  0  0  0  0  0  0  0  0  0  0
   -5.3683  -25.4332   29.0575 C   0  0  1  0  0  0  0  0  0  0  0  0
   -6.4908  -26.2928   29.5499 C   0  0  0  0  0  0  0  0  0  0  0  0
   -7.1244  -27.1560   28.5251 C   0  0  0  0  0  0  0  0  0  0  0  0
   -8.5655  -27.0016   28.3626 C   0  0  0  0  0  0  0  0  0  0  0  0
   -9.2971  -27.1342   29.3830 O   0  0  0  0  0  0  0  0  0  0  0  0
   -5.6036  -24.0601   29.5766 C   0  0  0  0  0  0  0  0  0  0  0  0
   -5.2830  -23.7693   30.7557 O   0  0  0  0  0  0  0  0  0  0  0  0
   -9.2355  -26.7183   27.1815 O   0  0  0  0  0  0  0  0  0  0  0  0
   -6.1856  -23.0230   28.8011 N   0  0  0  0  0  0  0  0  0  0  0  0
   -6.3472  -21.6775   29.2589 C   0  0  0  0  0  0  0  0  0  0  0  0
   -7.4711  -21.6233   30.2214 C   0  0  0  0  0  0  0  0  0  0  0  0
   -7.8147  -20.4152   30.8035 O   0  0  0  0  0  0  0  0  0  0  0  0
   -8.0881  -22.6673   30.4905 O   0  0  0  0  0  0  0  0  0  0  0  0
  2  1  1  0
  3  4  2  0
  3  2  1  0
  5  3  1  0
  6  5  1  0
  6  7  1  1
  8  7  1  0
  9  8  1  0
 10  9  2  0
 11  6  1  0
 11 14  1  0
 12 11  2  0
 13  9  1  0
 15 14  1  0
 16 15  1  0
 17 16  1  0
 18 16  2  0
M  END
$$$$
