GEG.pdb
     RDKit          3D

 18 17  0  0  1  0  0  0  0  0999 V2000
   11.3436  -23.6232   24.3257 N   0  0  0  0  0  0  0  0  0  0  0  0
   11.7602  -24.3616   25.5031 C   0  0  0  0  0  0  0  0  0  0  0  0
   11.6036  -23.5347   26.7164 C   0  0  0  0  0  0  0  0  0  0  0  0
   11.2944  -22.3007   26.6534 O   0  0  0  0  0  0  0  0  0  0  0  0
   11.8037  -24.1335   27.9898 N   0  0  0  0  0  0  0  0  0  0  0  0
   11.5787  -23.3799   29.2057 C   0  0  1  0  0  0  0  0  0  0  0  0
   10.8071  -24.1526   30.2299 C   0  0  0  0  0  0  0  0  0  0  0  0
    9.3324  -24.0612   30.1141 C   0  0  0  0  0  0  0  0  0  0  0  0
    8.5665  -24.7996   31.1117 C   0  0  0  0  0  0  0  0  0  0  0  0
    9.1582  -25.1650   32.1655 O   0  0  0  0  0  0  0  0  0  0  0  0
   12.8583  -22.9643   29.8382 C   0  0  0  0  0  0  0  0  0  0  0  0
   13.8390  -23.7489   29.8495 O   0  0  0  0  0  0  0  0  0  0  0  0
    7.2276  -25.1523   31.0270 O   0  0  0  0  0  0  0  0  0  0  0  0
   13.0498  -21.6973   30.4500 N   0  0  0  0  0  0  0  0  0  0  0  0
   14.3019  -21.2428   30.9712 C   0  0  0  0  0  0  0  0  0  0  0  0
   14.1040  -19.9378   31.6422 C   0  0  0  0  0  0  0  0  0  0  0  0
   15.1496  -19.3662   32.3467 O   0  0  0  0  0  0  0  0  0  0  0  0
   12.9987  -19.3770   31.5607 O   0  0  0  0  0  0  0  0  0  0  0  0
  2  1  1  0
  3  4  2  0
  3  2  1  0
  5  3  1  0
  6  5  1  0
  6  7  1  1
  8  7  1  0
  9  8  1  0
 10  9  2  0
 11  6  1  0
 11 14  1  0
 12 11  2  0
 13  9  1  0
 15 14  1  0
 16 15  1  0
 17 16  1  0
 18 16  2  0
M  END
$$$$
