GEG.pdb
     RDKit          3D

 18 17  0  0  1  0  0  0  0  0999 V2000
    2.6092  -20.9974   22.5582 N   0  0  0  0  0  0  0  0  0  0  0  0
    3.2456  -19.6995   22.4339 C   0  0  0  0  0  0  0  0  0  0  0  0
    4.6057  -19.7313   23.0079 C   0  0  0  0  0  0  0  0  0  0  0  0
    5.0619  -20.7634   23.5983 O   0  0  0  0  0  0  0  0  0  0  0  0
    5.4278  -18.5772   22.8979 N   0  0  0  0  0  0  0  0  0  0  0  0
    6.7702  -18.5702   23.4411 C   0  0  1  0  0  0  0  0  0  0  0  0
    7.7218  -17.7576   22.6192 C   0  0  0  0  0  0  0  0  0  0  0  0
    7.9632  -18.2614   21.2464 C   0  0  0  0  0  0  0  0  0  0  0  0
    8.8578  -17.4590   20.4199 C   0  0  0  0  0  0  0  0  0  0  0  0
    8.5686  -17.3118   19.1997 O   0  0  0  0  0  0  0  0  0  0  0  0
    6.8001  -18.0213   24.8224 C   0  0  0  0  0  0  0  0  0  0  0  0
    6.0336  -17.0791   25.1422 O   0  0  0  0  0  0  0  0  0  0  0  0
   10.0187  -16.8253   20.8381 O   0  0  0  0  0  0  0  0  0  0  0  0
    7.6667  -18.5087   25.8361 N   0  0  0  0  0  0  0  0  0  0  0  0
    7.6899  -18.0084   27.1760 C   0  0  0  0  0  0  0  0  0  0  0  0
    8.7412  -18.7169   27.9410 C   0  0  0  0  0  0  0  0  0  0  0  0
    8.9319  -18.4171   29.2790 O   0  0  0  0  0  0  0  0  0  0  0  0
    9.4362  -19.5710   27.3662 O   0  0  0  0  0  0  0  0  0  0  0  0
  2  1  1  0
  3  4  2  0
  3  2  1  0
  5  3  1  0
  6  5  1  0
  6  7  1  6
  8  7  1  0
  9  8  1  0
 10  9  2  0
 11  6  1  0
 11 14  1  0
 12 11  2  0
 13  9  1  0
 15 14  1  0
 16 15  1  0
 17 16  1  0
 18 16  2  0
M  END
$$$$
