GEG.pdb
     RDKit          3D

 18 17  0  0  1  0  0  0  0  0999 V2000
   17.7438  -12.0390   14.9606 N   0  0  0  0  0  0  0  0  0  0  0  0
   17.0377  -13.2489   15.3379 C   0  0  0  0  0  0  0  0  0  0  0  0
   16.7835  -13.2691   16.7924 C   0  0  0  0  0  0  0  0  0  0  0  0
   17.4387  -12.5331   17.5993 O   0  0  0  0  0  0  0  0  0  0  0  0
   15.7793  -14.1344   17.3051 N   0  0  0  0  0  0  0  0  0  0  0  0
   15.5567  -14.2467   18.7316 C   0  0  1  0  0  0  0  0  0  0  0  0
   14.2381  -14.8732   19.0630 C   0  0  0  0  0  0  0  0  0  0  0  0
   13.0523  -14.1969   18.4858 C   0  0  0  0  0  0  0  0  0  0  0  0
   11.7715  -14.8611   18.6991 C   0  0  0  0  0  0  0  0  0  0  0  0
   11.1958  -14.7005   19.8114 O   0  0  0  0  0  0  0  0  0  0  0  0
   16.6110  -15.0634   19.3887 C   0  0  0  0  0  0  0  0  0  0  0  0
   16.8843  -16.2086   18.9512 O   0  0  0  0  0  0  0  0  0  0  0  0
   11.1012  -15.6686   17.7922 O   0  0  0  0  0  0  0  0  0  0  0  0
   17.3527  -14.6186   20.5147 N   0  0  0  0  0  0  0  0  0  0  0  0
   18.3534  -15.4012   21.1722 C   0  0  0  0  0  0  0  0  0  0  0  0
   18.9906  -14.5852   22.2308 C   0  0  0  0  0  0  0  0  0  0  0  0
   19.9373  -15.1611   23.0606 O   0  0  0  0  0  0  0  0  0  0  0  0
   18.6630  -13.3936   22.3558 O   0  0  0  0  0  0  0  0  0  0  0  0
  2  1  1  0
  3  4  2  0
  3  2  1  0
  5  3  1  0
  6  5  1  0
  6  7  1  6
  8  7  1  0
  9  8  1  0
 10  9  2  0
 11  6  1  0
 11 14  1  0
 12 11  2  0
 13  9  1  0
 15 14  1  0
 16 15  1  0
 17 16  1  0
 18 16  2  0
M  END
$$$$
