RDG.pdb
     RDKit          3D

 24 23  0  0  1  0  0  0  0  0999 V2000
   31.7832  -23.0270  -11.1592 N   0  0  0  0  0  0  0  0  0  0  0  0
   31.4052  -22.4002   -9.9427 C   0  0  0  0  0  0  0  0  0  0  0  0
   32.1787  -22.5442   -8.9277 N   0  0  0  0  0  0  0  0  0  0  0  0
   30.2087  -21.6355   -9.8472 N   0  0  0  0  0  0  0  0  0  0  0  0
   29.1412  -21.9579  -10.7687 C   0  0  0  0  0  0  0  0  0  0  0  0
   29.0239  -21.0042  -11.9033 C   0  0  0  0  0  0  0  0  0  0  0  0
   27.7023  -20.3632  -12.1095 C   0  0  0  0  0  0  0  0  0  0  0  0
   26.8855  -20.9608  -13.2316 C   0  0  2  0  0  0  0  0  0  0  0  0
   27.6577  -20.9593  -14.4315 N   0  0  0  0  0  0  0  0  0  0  0  0
   25.6281  -20.1575  -13.3695 C   0  0  0  0  0  0  0  0  0  0  0  0
   24.8409  -19.9986  -12.4037 O   0  0  0  0  0  0  0  0  0  0  0  0
   32.0194  -22.1135   -7.9917 N   0  0  0  0  0  0  0  0  0  0  0  0
   25.2531  -19.5296  -14.5972 C   0  0  1  0  0  0  0  0  0  0  0  0
   24.0055  -18.7720  -14.6983 C   0  0  0  0  0  0  0  0  0  0  0  0
   24.0985  -17.9600  -15.9954 C   0  0  0  0  0  0  0  0  0  0  0  0
   22.9814  -16.9900  -16.0795 O   0  0  0  0  0  0  0  0  0  0  0  0
   22.2125  -16.7509  -15.1028 C   0  0  0  0  0  0  0  0  0  0  0  0
   22.8379  -19.6630  -14.7197 O   0  0  0  0  0  0  0  0  0  0  0  0
   21.6888  -19.2987  -14.3228 O   0  0  0  0  0  0  0  0  0  0  0  0
   22.7212  -16.2864  -17.2520 N   0  0  0  0  0  0  0  0  0  0  0  0
   22.9567  -20.9795  -15.1909 C   0  0  0  0  0  0  0  0  0  0  0  0
   21.8701  -21.9504  -15.1159 C   0  0  0  0  0  0  0  0  0  0  0  0
   21.0973  -21.9758  -16.3823 O   0  0  0  0  0  0  0  0  0  0  0  0
   21.3357  -21.1507  -17.2981 O   0  0  0  0  0  0  0  0  0  0  0  0
  1  2  1  0
  2  4  1  0
  3  2  2  0
  5  6  1  0
  5  4  1  0
  7  6  1  0
  7  8  1  0
  8  9  1  6
 10  8  1  0
 10 12  1  0
 11 10  2  0
 13 12  1  0
 13 17  1  0
 13 14  1  1
 15 16  2  0
 15 14  1  0
 17 18  2  0
 19 15  1  0
 20 17  1  0
 20 21  1  0
 22 21  1  0
 22 24  1  0
 23 22  2  0
M  END
$$$$
