RDG.pdb
     RDKit          3D

 24 23  0  0  1  0  0  0  0  0999 V2000
   19.2033  -24.4241   -7.2250 N   0  0  0  0  0  0  0  0  0  0  0  0
   18.4080  -25.5650   -7.5104 C   0  0  0  0  0  0  0  0  0  0  0  0
   17.8387  -26.1615   -6.5258 N   0  0  0  0  0  0  0  0  0  0  0  0
   18.2439  -26.0355   -8.8436 N   0  0  0  0  0  0  0  0  0  0  0  0
   18.6734  -25.1603   -9.9124 C   0  0  0  0  0  0  0  0  0  0  0  0
   17.5754  -24.3414  -10.4908 C   0  0  0  0  0  0  0  0  0  0  0  0
   17.9270  -23.4458  -11.6196 C   0  0  0  0  0  0  0  0  0  0  0  0
   18.2817  -22.0347  -11.2115 C   0  0  2  0  0  0  0  0  0  0  0  0
   17.0885  -21.3212  -10.8902 N   0  0  0  0  0  0  0  0  0  0  0  0
   19.0317  -21.3989  -12.3422 C   0  0  0  0  0  0  0  0  0  0  0  0
   18.4388  -20.7603  -13.2469 O   0  0  0  0  0  0  0  0  0  0  0  0
   17.2174  -26.9942   -6.6127 N   0  0  0  0  0  0  0  0  0  0  0  0
   20.4538  -21.4801  -12.4575 C   0  0  2  0  0  0  0  0  0  0  0  0
   21.1325  -21.0223  -13.6701 C   0  0  0  0  0  0  0  0  0  0  0  0
   22.6022  -20.8119  -13.2878 C   0  0  0  0  0  0  0  0  0  0  0  0
   23.3728  -20.3129  -14.4511 O   0  0  0  0  0  0  0  0  0  0  0  0
   22.8423  -20.1090  -15.5822 C   0  0  0  0  0  0  0  0  0  0  0  0
   21.0081  -22.0031  -14.7564 O   0  0  0  0  0  0  0  0  0  0  0  0
   20.8149  -23.2396  -14.5462 O   0  0  0  0  0  0  0  0  0  0  0  0
   24.7345  -20.0412  -14.3538 N   0  0  0  0  0  0  0  0  0  0  0  0
   21.1011  -21.5959  -16.0961 C   0  0  0  0  0  0  0  0  0  0  0  0
   20.0798  -21.9033  -17.0918 C   0  0  0  0  0  0  0  0  0  0  0  0
   20.1575  -23.3263  -17.5050 O   0  0  0  0  0  0  0  0  0  0  0  0
   19.4348  -23.7673  -18.4321 O   0  0  0  0  0  0  0  0  0  0  0  0
  1  2  1  0
  2  4  1  0
  3  2  2  0
  5  6  1  0
  5  4  1  0
  7  6  1  0
  7  8  1  0
  8  9  1  6
 10  8  1  0
 10 12  1  0
 11 10  2  0
 13 12  1  0
 13 17  1  0
 13 14  1  1
 15 16  2  0
 15 14  1  0
 17 18  2  0
 19 15  1  0
 20 17  1  0
 20 21  1  0
 22 21  1  0
 22 24  1  0
 23 22  2  0
M  END
$$$$
