RDG.pdb
     RDKit          3D

 24 23  0  0  1  0  0  0  0  0999 V2000
   24.2189  -21.0218   -8.4899 N   0  0  0  0  0  0  0  0  0  0  0  0
   25.6253  -20.8355   -8.5476 C   0  0  0  0  0  0  0  0  0  0  0  0
   26.1682  -20.0847   -7.6583 N   0  0  0  0  0  0  0  0  0  0  0  0
   26.4116  -21.4595   -9.5565 N   0  0  0  0  0  0  0  0  0  0  0  0
   25.8949  -21.4367  -10.9076 C   0  0  0  0  0  0  0  0  0  0  0  0
   26.6841  -20.5825  -11.8339 C   0  0  0  0  0  0  0  0  0  0  0  0
   25.9290  -19.8404  -12.8727 C   0  0  0  0  0  0  0  0  0  0  0  0
   24.9084  -20.6701  -13.6167 C   0  0  2  0  0  0  0  0  0  0  0  0
   25.5816  -21.6248  -14.4361 N   0  0  0  0  0  0  0  0  0  0  0  0
   24.0518  -19.7407  -14.4215 C   0  0  0  0  0  0  0  0  0  0  0  0
   23.4548  -18.7717  -13.8902 O   0  0  0  0  0  0  0  0  0  0  0  0
   27.1937  -19.9251   -7.5592 N   0  0  0  0  0  0  0  0  0  0  0  0
   23.8651  -19.8997  -15.8294 C   0  0  1  0  0  0  0  0  0  0  0  0
   23.0755  -18.9327  -16.5923 C   0  0  0  0  0  0  0  0  0  0  0  0
   23.6491  -18.9345  -18.0142 C   0  0  0  0  0  0  0  0  0  0  0  0
   25.0671  -18.5043  -18.0002 O   0  0  0  0  0  0  0  0  0  0  0  0
   25.5711  -17.8516  -17.0398 C   0  0  0  0  0  0  0  0  0  0  0  0
   21.6512  -19.2917  -16.6007 O   0  0  0  0  0  0  0  0  0  0  0  0
   21.1160  -19.9560  -17.5402 O   0  0  0  0  0  0  0  0  0  0  0  0
   25.9235  -18.8014  -19.0566 N   0  0  0  0  0  0  0  0  0  0  0  0
   20.8137  -18.9023  -15.5441 C   0  0  0  0  0  0  0  0  0  0  0  0
   19.3870  -19.2059  -15.5091 C   0  0  0  0  0  0  0  0  0  0  0  0
   19.1528  -20.5812  -15.0038 O   0  0  0  0  0  0  0  0  0  0  0  0
   19.8233  -21.5494  -15.4391 O   0  0  0  0  0  0  0  0  0  0  0  0
  1  2  1  0
  2  4  1  0
  3  2  2  0
  5  6  1  0
  5  4  1  0
  7  6  1  0
  7  8  1  0
  8  9  1  6
 10  8  1  0
 10 12  1  0
 11 10  2  0
 13 12  1  0
 13 17  1  0
 13 14  1  1
 15 16  2  0
 15 14  1  0
 17 18  2  0
 19 15  1  0
 20 17  1  0
 20 21  1  0
 22 21  1  0
 22 24  1  0
 23 22  2  0
M  END
$$$$
