RDG.pdb
     RDKit          3D

 24 23  0  0  1  0  0  0  0  0999 V2000
   26.1092  -20.2731   -8.7739 N   0  0  0  0  0  0  0  0  0  0  0  0
   25.0899  -20.9907   -9.4534 C   0  0  0  0  0  0  0  0  0  0  0  0
   23.8704  -20.7548   -9.1273 N   0  0  0  0  0  0  0  0  0  0  0  0
   25.4054  -21.9414  -10.4645 N   0  0  0  0  0  0  0  0  0  0  0  0
   25.6647  -21.4331  -11.7939 C   0  0  0  0  0  0  0  0  0  0  0  0
   26.8595  -20.5518  -11.8732 C   0  0  0  0  0  0  0  0  0  0  0  0
   27.1141  -19.8789  -13.1702 C   0  0  0  0  0  0  0  0  0  0  0  0
   26.2403  -20.3586  -14.3059 C   0  0  2  0  0  0  0  0  0  0  0  0
   27.0524  -20.9966  -15.2906 N   0  0  0  0  0  0  0  0  0  0  0  0
   25.5077  -19.1747  -14.8602 C   0  0  0  0  0  0  0  0  0  0  0  0
   24.7925  -18.4442  -14.1305 O   0  0  0  0  0  0  0  0  0  0  0  0
   23.0418  -21.2481   -9.5238 N   0  0  0  0  0  0  0  0  0  0  0  0
   25.5787  -18.8094  -16.2400 C   0  0  1  0  0  0  0  0  0  0  0  0
   24.8350  -17.6558  -16.7466 C   0  0  0  0  0  0  0  0  0  0  0  0
   25.5973  -17.1603  -17.9812 C   0  0  0  0  0  0  0  0  0  0  0  0
   24.9967  -15.9049  -18.4903 O   0  0  0  0  0  0  0  0  0  0  0  0
   24.0194  -15.3375  -17.9199 C   0  0  0  0  0  0  0  0  0  0  0  0
   23.4544  -18.0185  -17.0930 O   0  0  0  0  0  0  0  0  0  0  0  0
   23.1705  -19.0019  -17.8432 O   0  0  0  0  0  0  0  0  0  0  0  0
   25.4852  -15.2818  -19.6351 N   0  0  0  0  0  0  0  0  0  0  0  0
   22.3765  -17.2714  -16.5939 C   0  0  0  0  0  0  0  0  0  0  0  0
   20.9840  -17.5938  -16.8873 C   0  0  0  0  0  0  0  0  0  0  0  0
   20.3774  -18.3699  -15.7777 O   0  0  0  0  0  0  0  0  0  0  0  0
   21.0329  -19.2590  -15.1809 O   0  0  0  0  0  0  0  0  0  0  0  0
  1  2  1  0
  2  4  1  0
  3  2  2  0
  5  6  1  0
  5  4  1  0
  7  6  1  0
  7  8  1  0
  8  9  1  6
 10  8  1  0
 10 12  1  0
 11 10  2  0
 13 12  1  0
 13 17  1  0
 13 14  1  6
 15 16  2  0
 15 14  1  0
 17 18  2  0
 19 15  1  0
 20 17  1  0
 20 21  1  0
 22 21  1  0
 22 24  1  0
 23 22  2  0
M  END
$$$$
