RDG.pdb
     RDKit          3D

 24 23  0  0  1  0  0  0  0  0999 V2000
   28.7462  -22.6345  -16.1806 N   0  0  0  0  0  0  0  0  0  0  0  0
   27.4028  -23.0209  -16.4284 C   0  0  0  0  0  0  0  0  0  0  0  0
   27.1794  -23.8215  -17.4074 N   0  0  0  0  0  0  0  0  0  0  0  0
   26.3352  -22.5393  -15.6198 N   0  0  0  0  0  0  0  0  0  0  0  0
   26.6305  -21.4533  -14.7109 C   0  0  0  0  0  0  0  0  0  0  0  0
   25.4803  -21.0636  -13.8530 C   0  0  0  0  0  0  0  0  0  0  0  0
   24.2917  -21.9505  -13.8780 C   0  0  0  0  0  0  0  0  0  0  0  0
   23.2179  -21.5301  -14.8546 C   0  0  2  0  0  0  0  0  0  0  0  0
   23.1279  -20.1062  -14.8745 N   0  0  0  0  0  0  0  0  0  0  0  0
   21.9304  -22.1706  -14.4334 C   0  0  0  0  0  0  0  0  0  0  0  0
   21.8968  -23.3413  -13.9795 O   0  0  0  0  0  0  0  0  0  0  0  0
   26.2424  -24.1977  -17.6672 N   0  0  0  0  0  0  0  0  0  0  0  0
   20.6751  -21.4934  -14.5219 C   0  0  1  0  0  0  0  0  0  0  0  0
   19.4279  -22.1863  -14.1978 C   0  0  0  0  0  0  0  0  0  0  0  0
   19.5399  -22.6102  -12.7287 C   0  0  0  0  0  0  0  0  0  0  0  0
   18.9039  -23.9326  -12.5221 O   0  0  0  0  0  0  0  0  0  0  0  0
   18.3478  -24.5746  -13.4607 C   0  0  0  0  0  0  0  0  0  0  0  0
   18.2624  -21.3169  -14.4057 O   0  0  0  0  0  0  0  0  0  0  0  0
   17.6637  -20.7315  -13.4521 O   0  0  0  0  0  0  0  0  0  0  0  0
   18.8876  -24.5396  -11.2696 N   0  0  0  0  0  0  0  0  0  0  0  0
   17.7592  -21.0991  -15.6974 C   0  0  0  0  0  0  0  0  0  0  0  0
   18.0310  -19.8858  -16.4609 C   0  0  0  0  0  0  0  0  0  0  0  0
   17.7838  -18.6773  -15.6363 O   0  0  0  0  0  0  0  0  0  0  0  0
   18.6244  -18.2963  -14.7851 O   0  0  0  0  0  0  0  0  0  0  0  0
  1  2  1  0
  2  4  1  0
  3  2  2  0
  5  6  1  0
  5  4  1  0
  7  6  1  0
  7  8  1  0
  8  9  1  1
 10  8  1  0
 10 12  1  0
 11 10  2  0
 13 12  1  0
 13 17  1  0
 13 14  1  6
 15 16  2  0
 15 14  1  0
 17 18  2  0
 19 15  1  0
 20 17  1  0
 20 21  1  0
 22 21  1  0
 22 24  1  0
 23 22  2  0
M  END
$$$$
