RDG.pdb
     RDKit          3D

 24 23  0  0  1  0  0  0  0  0999 V2000
   13.8300   -8.3850   -7.3645 N   0  0  0  0  0  0  0  0  0  0  0  0
   14.3235   -7.2961   -8.1302 C   0  0  0  0  0  0  0  0  0  0  0  0
   14.1026   -6.1079   -7.6957 N   0  0  0  0  0  0  0  0  0  0  0  0
   15.0410   -7.5102   -9.3405 N   0  0  0  0  0  0  0  0  0  0  0  0
   15.4604   -8.8639   -9.6314 C   0  0  0  0  0  0  0  0  0  0  0  0
   14.5124   -9.6082  -10.5019 C   0  0  0  0  0  0  0  0  0  0  0  0
   14.1623   -8.9857  -11.8018 C   0  0  0  0  0  0  0  0  0  0  0  0
   14.5032   -9.8267  -13.0101 C   0  0  2  0  0  0  0  0  0  0  0  0
   14.4768  -11.2068  -12.6485 N   0  0  0  0  0  0  0  0  0  0  0  0
   15.8506   -9.3999  -13.5078 C   0  0  0  0  0  0  0  0  0  0  0  0
   16.8968  -10.0113  -13.1773 O   0  0  0  0  0  0  0  0  0  0  0  0
   14.3894   -5.2324   -8.1839 N   0  0  0  0  0  0  0  0  0  0  0  0
   16.0239   -8.2819  -14.3809 C   0  0  2  0  0  0  0  0  0  0  0  0
   17.3526   -7.9169  -14.8726 C   0  0  0  0  0  0  0  0  0  0  0  0
   17.1326   -6.8744  -15.9750 C   0  0  0  0  0  0  0  0  0  0  0  0
   18.3991   -6.6108  -16.6978 O   0  0  0  0  0  0  0  0  0  0  0  0
   19.4436   -7.3022  -16.5152 C   0  0  0  0  0  0  0  0  0  0  0  0
   18.1915   -7.3733  -13.7963 O   0  0  0  0  0  0  0  0  0  0  0  0
   17.7416   -6.5921  -12.9031 O   0  0  0  0  0  0  0  0  0  0  0  0
   18.5016   -5.5769  -17.6241 N   0  0  0  0  0  0  0  0  0  0  0  0
   19.5521   -7.7076  -13.7176 C   0  0  0  0  0  0  0  0  0  0  0  0
   20.3973   -7.3333  -12.5886 C   0  0  0  0  0  0  0  0  0  0  0  0
   21.7582   -7.9059  -12.7361 O   0  0  0  0  0  0  0  0  0  0  0  0
   22.0298   -8.6835  -13.6837 O   0  0  0  0  0  0  0  0  0  0  0  0
  1  2  1  0
  2  4  1  0
  3  2  2  0
  5  6  1  0
  5  4  1  0
  7  6  1  0
  7  8  1  0
  8  9  1  1
 10  8  1  0
 10 12  1  0
 11 10  2  0
 13 12  1  0
 13 17  1  0
 13 14  1  6
 15 16  2  0
 15 14  1  0
 17 18  2  0
 19 15  1  0
 20 17  1  0
 20 21  1  0
 22 21  1  0
 22 24  1  0
 23 22  2  0
M  END
$$$$
