RDG.pdb
     RDKit          3D

 24 23  0  0  1  0  0  0  0  0999 V2000
   18.3875  -24.4213   -6.9613 N   0  0  0  0  0  0  0  0  0  0  0  0
   17.4393  -24.8899   -7.9085 C   0  0  0  0  0  0  0  0  0  0  0  0
   16.2043  -24.9189   -7.5575 N   0  0  0  0  0  0  0  0  0  0  0  0
   17.8405  -25.3142   -9.2064 N   0  0  0  0  0  0  0  0  0  0  0  0
   19.1354  -24.8727   -9.6768 C   0  0  0  0  0  0  0  0  0  0  0  0
   19.1787  -23.4317  -10.0404 C   0  0  0  0  0  0  0  0  0  0  0  0
   19.4701  -23.1039  -11.4573 C   0  0  0  0  0  0  0  0  0  0  0  0
   20.9390  -23.1128  -11.8120 C   0  0  2  0  0  0  0  0  0  0  0  0
   21.6994  -22.6677  -10.6896 N   0  0  0  0  0  0  0  0  0  0  0  0
   21.1330  -22.2327  -13.0091 C   0  0  0  0  0  0  0  0  0  0  0  0
   20.5865  -22.4913  -14.1101 O   0  0  0  0  0  0  0  0  0  0  0  0
   15.4328  -25.3283   -8.1269 N   0  0  0  0  0  0  0  0  0  0  0  0
   21.9440  -21.0567  -12.9697 C   0  0  1  0  0  0  0  0  0  0  0  0
   22.1258  -20.2340  -14.1659 C   0  0  0  0  0  0  0  0  0  0  0  0
   21.6840  -18.8162  -13.7848 C   0  0  0  0  0  0  0  0  0  0  0  0
   20.2199  -18.7738  -13.5597 O   0  0  0  0  0  0  0  0  0  0  0  0
   19.4196  -19.5689  -14.1340 C   0  0  0  0  0  0  0  0  0  0  0  0
   23.5240  -20.2448  -14.6161 O   0  0  0  0  0  0  0  0  0  0  0  0
   23.9340  -19.5554  -15.5995 O   0  0  0  0  0  0  0  0  0  0  0  0
   19.6478  -17.8455  -12.6947 N   0  0  0  0  0  0  0  0  0  0  0  0
   24.4767  -21.0375  -13.9579 C   0  0  0  0  0  0  0  0  0  0  0  0
   25.8842  -21.0689  -14.3412 C   0  0  0  0  0  0  0  0  0  0  0  0
   26.1230  -22.0931  -15.3879 O   0  0  0  0  0  0  0  0  0  0  0  0
   25.1684  -22.7400  -15.8846 O   0  0  0  0  0  0  0  0  0  0  0  0
  1  2  1  0
  2  4  1  0
  3  2  2  0
  5  6  1  0
  5  4  1  0
  7  6  1  0
  7  8  1  0
  8  9  1  1
 10  8  1  0
 10 12  1  0
 11 10  2  0
 13 12  1  0
 13 17  1  0
 13 14  1  6
 15 16  2  0
 15 14  1  0
 17 18  2  0
 19 15  1  0
 20 17  1  0
 20 21  1  0
 22 21  1  0
 22 24  1  0
 23 22  2  0
M  END
$$$$
