RDG.pdb
     RDKit          3D

 24 23  0  0  1  0  0  0  0  0999 V2000
   28.0273  -31.4781  -14.0554 N   0  0  0  0  0  0  0  0  0  0  0  0
   28.1631  -32.4152  -15.1133 C   0  0  0  0  0  0  0  0  0  0  0  0
   28.4738  -31.9670  -16.2760 N   0  0  0  0  0  0  0  0  0  0  0  0
   27.9629  -33.8074  -14.8961 N   0  0  0  0  0  0  0  0  0  0  0  0
   27.2830  -34.1971  -13.6800 C   0  0  0  0  0  0  0  0  0  0  0  0
   25.8052  -34.2780  -13.8223 C   0  0  0  0  0  0  0  0  0  0  0  0
   25.0306  -34.6287  -12.6070 C   0  0  0  0  0  0  0  0  0  0  0  0
   23.9486  -33.6371  -12.2470 C   0  0  2  0  0  0  0  0  0  0  0  0
   24.0076  -32.5271  -13.1417 N   0  0  0  0  0  0  0  0  0  0  0  0
   24.1531  -33.2237  -10.8213 C   0  0  0  0  0  0  0  0  0  0  0  0
   24.2861  -32.0167  -10.5000 O   0  0  0  0  0  0  0  0  0  0  0  0
   28.5694  -32.5519  -17.1337 N   0  0  0  0  0  0  0  0  0  0  0  0
   24.2081  -34.1697   -9.7516 C   0  0  1  0  0  0  0  0  0  0  0  0
   24.2569  -33.7216   -8.3597 C   0  0  0  0  0  0  0  0  0  0  0  0
   23.3303  -34.6565   -7.5735 C   0  0  0  0  0  0  0  0  0  0  0  0
   21.9306  -34.1746   -7.6416 O   0  0  0  0  0  0  0  0  0  0  0  0
   21.6294  -32.9469   -7.5750 C   0  0  0  0  0  0  0  0  0  0  0  0
   25.6255  -33.7709   -7.8286 O   0  0  0  0  0  0  0  0  0  0  0  0
   26.3780  -34.7839   -7.9628 O   0  0  0  0  0  0  0  0  0  0  0  0
   20.8667  -35.0607   -7.7841 N   0  0  0  0  0  0  0  0  0  0  0  0
   26.1600  -32.6726   -7.1378 C   0  0  0  0  0  0  0  0  0  0  0  0
   26.6796  -32.7670   -5.7776 C   0  0  0  0  0  0  0  0  0  0  0  0
   27.9386  -33.5516   -5.7474 O   0  0  0  0  0  0  0  0  0  0  0  0
   28.3700  -34.1159   -6.7827 O   0  0  0  0  0  0  0  0  0  0  0  0
  1  2  1  0
  2  4  1  0
  3  2  2  0
  5  6  1  0
  5  4  1  0
  7  6  1  0
  7  8  1  0
  8  9  1  6
 10  8  1  0
 10 12  1  0
 11 10  2  0
 13 12  1  0
 13 17  1  0
 13 14  1  1
 15 16  2  0
 15 14  1  0
 17 18  2  0
 19 15  1  0
 20 17  1  0
 20 21  1  0
 22 21  1  0
 22 24  1  0
 23 22  2  0
M  END
$$$$
