QRD.pdb
     RDKit          3D

 29 28  0  0  1  0  0  0  0  0999 V2000
   16.6167  -15.0176   16.9315 N   0  0  0  0  0  0  0  0  0  0  0  0
   15.4410  -14.4513   16.2888 C   0  0  0  0  0  0  0  0  0  0  0  0
   15.2842  -14.8077   15.0998 O   0  0  0  0  0  0  0  0  0  0  0  0
   14.5619  -13.5389   17.0418 C   0  0  0  0  0  0  0  0  0  0  0  0
   13.2994  -14.1181   17.5753 C   0  0  0  0  0  0  0  0  0  0  0  0
   13.5852  -15.1250   18.6548 C   0  0  2  0  0  0  0  0  0  0  0  0
   13.4418  -16.4558   18.1760 N   0  0  0  0  0  0  0  0  0  0  0  0
   12.7106  -14.8514   19.8526 C   0  0  0  0  0  0  0  0  0  0  0  0
   12.8561  -13.7476   20.4316 O   0  0  0  0  0  0  0  0  0  0  0  0
    8.1225  -13.0884   16.0486 N   0  0  0  0  0  0  0  0  0  0  0  0
    8.0266  -13.7486   17.3034 C   0  0  0  0  0  0  0  0  0  0  0  0
    8.0781  -15.0490   17.3687 N   0  0  0  0  0  0  0  0  0  0  0  0
    7.8739  -13.0238   18.5146 N   0  0  0  0  0  0  0  0  0  0  0  0
    7.7607  -13.7643   19.8067 C   0  0  0  0  0  0  0  0  0  0  0  0
    9.1132  -13.9030   20.3749 C   0  0  0  0  0  0  0  0  0  0  0  0
    9.5804  -15.0907   21.0379 C   0  0  0  0  0  0  0  0  0  0  0  0
   10.9515  -15.3231   21.5494 C   0  0  2  0  0  0  0  0  0  0  0  0
   11.7611  -15.7641   20.3345 N   0  0  0  0  0  0  0  0  0  0  0  0
   11.0245  -16.5337   22.3874 C   0  0  0  0  0  0  0  0  0  0  0  0
   11.2760  -17.6370   21.7825 O   0  0  0  0  0  0  0  0  0  0  0  0
    8.0363  -15.5442   18.2849 N   0  0  0  0  0  0  0  0  0  0  0  0
   10.8649  -16.6479   23.7772 C   0  0  1  0  0  0  0  0  0  0  0  0
   11.9057  -17.2013   24.6068 C   0  0  0  0  0  0  0  0  0  0  0  0
   13.2505  -16.5495   24.3278 C   0  0  0  0  0  0  0  0  0  0  0  0
   14.3113  -17.5110   24.0052 O   0  0  0  0  0  0  0  0  0  0  0  0
   14.3932  -18.6274   24.5726 C   0  0  0  0  0  0  0  0  0  0  0  0
   11.5512  -17.1557   26.0211 O   0  0  0  0  0  0  0  0  0  0  0  0
   10.9548  -18.2487   26.6275 O   0  0  0  0  0  0  0  0  0  0  0  0
   15.2644  -17.2026   23.0488 O   0  0  0  0  0  0  0  0  0  0  0  0
  2  1  1  0
  2  3  2  0
  4  2  1  0
  5  4  1  0
  5  6  1  0
  6  7  1  6
  8  6  1  0
  8  9  2  0
 10 11  1  0
 11 13  1  0
 11 12  2  0
 13 14  1  0
 15 14  1  0
 16 15  1  0
 17 16  1  6
 17 18  1  0
 18  8  1  0
 19 17  1  0
 20 19  2  0
 21 19  1  0
 22 21  1  0
 22 26  1  0
 23 24  1  0
 22 23  1  1
 24 25  2  0
 26 27  1  0
 28 24  1  0
 29 26  2  0
M  END
$$$$
