QRD.pdb
     RDKit          3D

 29 28  0  0  1  0  0  0  0  0999 V2000
   11.5854  -20.0989   15.0795 N   0  0  0  0  0  0  0  0  0  0  0  0
   12.5689  -19.0398   14.9148 C   0  0  0  0  0  0  0  0  0  0  0  0
   13.7565  -19.4253   14.9937 O   0  0  0  0  0  0  0  0  0  0  0  0
   12.1223  -17.6544   14.6828 C   0  0  0  0  0  0  0  0  0  0  0  0
   10.6542  -17.4355   14.5789 C   0  0  0  0  0  0  0  0  0  0  0  0
   10.3450  -15.9879   14.3150 C   0  0  2  0  0  0  0  0  0  0  0  0
   11.0962  -15.4873   13.2170 N   0  0  0  0  0  0  0  0  0  0  0  0
   10.5629  -15.1822   15.5713 C   0  0  0  0  0  0  0  0  0  0  0  0
   11.6722  -14.6109   15.7037 O   0  0  0  0  0  0  0  0  0  0  0  0
    8.2461  -14.4377   22.5869 N   0  0  0  0  0  0  0  0  0  0  0  0
    7.8019  -13.0973   22.7462 C   0  0  0  0  0  0  0  0  0  0  0  0
    7.7606  -12.5537   23.9298 N   0  0  0  0  0  0  0  0  0  0  0  0
    7.3932  -12.3129   21.6355 N   0  0  0  0  0  0  0  0  0  0  0  0
    7.1628  -12.9707   20.3146 C   0  0  0  0  0  0  0  0  0  0  0  0
    8.4759  -13.2413   19.7028 C   0  0  0  0  0  0  0  0  0  0  0  0
    8.6419  -13.8593   18.4147 C   0  0  0  0  0  0  0  0  0  0  0  0
    9.9291  -14.1007   17.7217 C   0  0  2  0  0  0  0  0  0  0  0  0
    9.5937  -15.0500   16.5763 N   0  0  0  0  0  0  0  0  0  0  0  0
   10.8334  -14.9427   18.5258 C   0  0  0  0  0  0  0  0  0  0  0  0
   10.6250  -16.2083   18.4883 O   0  0  0  0  0  0  0  0  0  0  0  0
    7.5505  -11.5399   24.0497 N   0  0  0  0  0  0  0  0  0  0  0  0
   11.9131  -14.5479   19.3309 C   0  0  2  0  0  0  0  0  0  0  0  0
   12.7102  -15.5164   20.0412 C   0  0  0  0  0  0  0  0  0  0  0  0
   14.1499  -15.0530   20.1944 C   0  0  0  0  0  0  0  0  0  0  0  0
   14.8276  -14.8147   18.9147 O   0  0  0  0  0  0  0  0  0  0  0  0
   14.5951  -15.5129   17.8980 C   0  0  0  0  0  0  0  0  0  0  0  0
   12.1069  -15.8807   21.3184 O   0  0  0  0  0  0  0  0  0  0  0  0
   10.9820  -15.2146   21.7751 O   0  0  0  0  0  0  0  0  0  0  0  0
   15.7569  -13.7945   18.7972 O   0  0  0  0  0  0  0  0  0  0  0  0
  2  1  1  0
  2  3  2  0
  4  2  1  0
  5  4  1  0
  5  6  1  0
  6  7  1  6
  8  6  1  0
  8  9  2  0
 10 11  1  0
 11 13  1  0
 11 12  2  0
 13 14  1  0
 15 14  1  0
 16 15  1  0
 17 16  1  1
 17 18  1  0
 18  8  1  0
 19 17  1  0
 20 19  2  0
 21 19  1  0
 22 21  1  0
 22 26  1  0
 23 24  1  0
 22 23  1  6
 24 25  2  0
 26 27  1  0
 28 24  1  0
 29 26  2  0
M  END
$$$$
