QRD.pdb
     RDKit          3D

 29 28  0  0  1  0  0  0  0  0999 V2000
    7.8901  -12.7687   22.0249 N   0  0  0  0  0  0  0  0  0  0  0  0
    7.0350  -13.1143   20.9000 C   0  0  0  0  0  0  0  0  0  0  0  0
    5.8226  -12.8639   21.0810 O   0  0  0  0  0  0  0  0  0  0  0  0
    7.6240  -13.7099   19.6873 C   0  0  0  0  0  0  0  0  0  0  0  0
    9.0971  -13.9197   19.6953 C   0  0  0  0  0  0  0  0  0  0  0  0
    9.5676  -14.4716   18.3781 C   0  0  2  0  0  0  0  0  0  0  0  0
    8.7042  -15.4973   17.9058 N   0  0  0  0  0  0  0  0  0  0  0  0
   10.9962  -14.9389   18.5015 C   0  0  0  0  0  0  0  0  0  0  0  0
   11.2164  -16.1647   18.3481 O   0  0  0  0  0  0  0  0  0  0  0  0
   18.3143  -12.3968   16.3543 N   0  0  0  0  0  0  0  0  0  0  0  0
   18.3507  -13.8001   16.1329 C   0  0  0  0  0  0  0  0  0  0  0  0
   18.8301  -14.2786   15.0197 N   0  0  0  0  0  0  0  0  0  0  0  0
   17.8728  -14.7183   17.1046 N   0  0  0  0  0  0  0  0  0  0  0  0
   16.4195  -15.0605   17.1424 C   0  0  0  0  0  0  0  0  0  0  0  0
   15.6939  -13.9133   17.7159 C   0  0  0  0  0  0  0  0  0  0  0  0
   14.2640  -13.8695   17.8649 C   0  0  0  0  0  0  0  0  0  0  0  0
   13.4569  -14.6990   18.7901 C   0  0  2  0  0  0  0  0  0  0  0  0
   12.0658  -14.0742   18.7757 N   0  0  0  0  0  0  0  0  0  0  0  0
   13.8444  -14.4843   20.1961 C   0  0  0  0  0  0  0  0  0  0  0  0
   14.5671  -13.4529   20.4419 O   0  0  0  0  0  0  0  0  0  0  0  0
   18.8377  -15.3041   14.8335 N   0  0  0  0  0  0  0  0  0  0  0  0
   13.5196  -15.2569   21.3220 C   0  0  2  0  0  0  0  0  0  0  0  0
   14.4979  -16.1060   21.9543 C   0  0  0  0  0  0  0  0  0  0  0  0
   14.4022  -17.5389   21.4555 C   0  0  0  0  0  0  0  0  0  0  0  0
   13.8114  -18.4607   22.4327 O   0  0  0  0  0  0  0  0  0  0  0  0
   13.4842  -18.0887   23.5857 C   0  0  0  0  0  0  0  0  0  0  0  0
   15.8464  -15.5645   21.8272 O   0  0  0  0  0  0  0  0  0  0  0  0
   16.5185  -15.0941   22.9429 O   0  0  0  0  0  0  0  0  0  0  0  0
   13.5971  -19.7876   22.0985 O   0  0  0  0  0  0  0  0  0  0  0  0
  2  1  1  0
  2  3  2  0
  4  2  1  0
  5  4  1  0
  5  6  1  0
  6  7  1  1
  8  6  1  0
  8  9  2  0
 10 11  1  0
 11 13  1  0
 11 12  2  0
 13 14  1  0
 15 14  1  0
 16 15  1  0
 17 16  1  6
 17 18  1  0
 18  8  1  0
 19 17  1  0
 20 19  2  0
 21 19  1  0
 22 21  1  0
 22 26  1  0
 23 24  1  0
 22 23  1  6
 24 25  2  0
 26 27  1  0
 28 24  1  0
 29 26  2  0
M  END
$$$$
