QRD.pdb
     RDKit          3D

 29 28  0  0  1  0  0  0  0  0999 V2000
   15.4398  -13.2540   18.3445 N   0  0  0  0  0  0  0  0  0  0  0  0
   15.4226  -14.3583   17.3978 C   0  0  0  0  0  0  0  0  0  0  0  0
   15.9929  -14.1123   16.3117 O   0  0  0  0  0  0  0  0  0  0  0  0
   14.7639  -15.6256   17.7617 C   0  0  0  0  0  0  0  0  0  0  0  0
   14.1341  -15.6871   19.1084 C   0  0  0  0  0  0  0  0  0  0  0  0
   12.6604  -15.9653   18.9994 C   0  0  2  0  0  0  0  0  0  0  0  0
   12.1334  -15.5002   17.7639 N   0  0  0  0  0  0  0  0  0  0  0  0
   11.9404  -15.3755   20.1861 C   0  0  0  0  0  0  0  0  0  0  0  0
   12.6300  -14.7420   21.0214 O   0  0  0  0  0  0  0  0  0  0  0  0
    8.1105  -12.7246   16.6386 N   0  0  0  0  0  0  0  0  0  0  0  0
    8.3587  -13.9906   17.2346 C   0  0  0  0  0  0  0  0  0  0  0  0
    8.6596  -15.0194   16.4937 N   0  0  0  0  0  0  0  0  0  0  0  0
    8.2891  -14.1764   18.6405 N   0  0  0  0  0  0  0  0  0  0  0  0
    8.2074  -12.9851   19.5376 C   0  0  0  0  0  0  0  0  0  0  0  0
    8.0061  -13.4636   20.9168 C   0  0  0  0  0  0  0  0  0  0  0  0
    8.5713  -14.6839   21.4266 C   0  0  0  0  0  0  0  0  0  0  0  0
   10.0070  -14.9372   21.6913 C   0  0  2  0  0  0  0  0  0  0  0  0
   10.5587  -15.5056   20.3881 N   0  0  0  0  0  0  0  0  0  0  0  0
   10.2018  -16.0822   22.5992 C   0  0  0  0  0  0  0  0  0  0  0  0
   10.6843  -17.1517   22.0799 O   0  0  0  0  0  0  0  0  0  0  0  0
    8.9193  -15.9336   16.9216 N   0  0  0  0  0  0  0  0  0  0  0  0
    9.9385  -16.1634   23.9755 C   0  0  1  0  0  0  0  0  0  0  0  0
   10.4116  -17.2738   24.7635 C   0  0  0  0  0  0  0  0  0  0  0  0
   11.9188  -17.4383   24.6515 C   0  0  0  0  0  0  0  0  0  0  0  0
   12.3417  -18.8271   24.4365 O   0  0  0  0  0  0  0  0  0  0  0  0
   11.9210  -19.7694   25.1507 C   0  0  0  0  0  0  0  0  0  0  0  0
    9.9662  -17.1817   26.1495 O   0  0  0  0  0  0  0  0  0  0  0  0
    9.1768  -16.1208   26.5607 O   0  0  0  0  0  0  0  0  0  0  0  0
   13.2316  -19.1356   23.4211 O   0  0  0  0  0  0  0  0  0  0  0  0
  2  1  1  0
  2  3  2  0
  4  2  1  0
  5  4  1  0
  5  6  1  0
  6  7  1  6
  8  6  1  0
  8  9  2  0
 10 11  1  0
 11 13  1  0
 11 12  2  0
 13 14  1  0
 15 14  1  0
 16 15  1  0
 17 16  1  6
 17 18  1  0
 18  8  1  0
 19 17  1  0
 20 19  2  0
 21 19  1  0
 22 21  1  0
 22 26  1  0
 23 24  1  0
 22 23  1  1
 24 25  2  0
 26 27  1  0
 28 24  1  0
 29 26  2  0
M  END
$$$$
