QRD.pdb
     RDKit          3D

 29 28  0  0  1  0  0  0  0  0999 V2000
   17.1337  -14.7780   19.9412 N   0  0  0  0  0  0  0  0  0  0  0  0
   17.4136  -14.1502   18.6591 C   0  0  0  0  0  0  0  0  0  0  0  0
   18.4663  -13.4744   18.6374 O   0  0  0  0  0  0  0  0  0  0  0  0
   16.4831  -14.3392   17.5318 C   0  0  0  0  0  0  0  0  0  0  0  0
   15.4919  -15.4412   17.6627 C   0  0  0  0  0  0  0  0  0  0  0  0
   14.1143  -14.9712   17.2855 C   0  0  2  0  0  0  0  0  0  0  0  0
   14.1675  -13.8312   16.4381 N   0  0  0  0  0  0  0  0  0  0  0  0
   13.3018  -14.7199   18.5312 C   0  0  0  0  0  0  0  0  0  0  0  0
   13.7429  -13.8729   19.3451 O   0  0  0  0  0  0  0  0  0  0  0  0
    7.4259  -12.7340   15.8784 N   0  0  0  0  0  0  0  0  0  0  0  0
    7.3309  -13.3490   17.1560 C   0  0  0  0  0  0  0  0  0  0  0  0
    7.3272  -12.6225   18.2377 N   0  0  0  0  0  0  0  0  0  0  0  0
    7.2371  -14.7587   17.2970 N   0  0  0  0  0  0  0  0  0  0  0  0
    7.7600  -15.4114   18.5344 C   0  0  0  0  0  0  0  0  0  0  0  0
    9.1040  -14.8707   18.8043 C   0  0  0  0  0  0  0  0  0  0  0  0
    9.9549  -15.3440   19.8628 C   0  0  0  0  0  0  0  0  0  0  0  0
   11.3700  -14.9630   20.0818 C   0  0  2  0  0  0  0  0  0  0  0  0
   12.0977  -15.3830   18.8091 N   0  0  0  0  0  0  0  0  0  0  0  0
   12.0228  -15.8336   21.0763 C   0  0  0  0  0  0  0  0  0  0  0  0
   13.0461  -16.4964   20.6761 O   0  0  0  0  0  0  0  0  0  0  0  0
    7.3307  -13.0630   19.1823 N   0  0  0  0  0  0  0  0  0  0  0  0
   11.6821  -16.0339   22.4231 C   0  0  2  0  0  0  0  0  0  0  0  0
   12.6653  -16.4566   23.3887 C   0  0  0  0  0  0  0  0  0  0  0  0
   13.9267  -15.6117   23.3105 C   0  0  0  0  0  0  0  0  0  0  0  0
   15.1521  -16.4028   23.1485 O   0  0  0  0  0  0  0  0  0  0  0  0
   15.1677  -17.4830   22.5099 C   0  0  0  0  0  0  0  0  0  0  0  0
   12.1127  -16.5029   24.7380 O   0  0  0  0  0  0  0  0  0  0  0  0
   12.2309  -17.6517   25.5023 O   0  0  0  0  0  0  0  0  0  0  0  0
   16.3422  -15.9670   23.7072 O   0  0  0  0  0  0  0  0  0  0  0  0
  2  1  1  0
  2  3  2  0
  4  2  1  0
  5  4  1  0
  5  6  1  0
  6  7  1  1
  8  6  1  0
  8  9  2  0
 10 11  1  0
 11 13  1  0
 11 12  2  0
 13 14  1  0
 15 14  1  0
 16 15  1  0
 17 16  1  6
 17 18  1  0
 18  8  1  0
 19 17  1  0
 20 19  2  0
 21 19  1  0
 22 21  1  0
 22 26  1  0
 23 24  1  0
 22 23  1  6
 24 25  2  0
 26 27  1  0
 28 24  1  0
 29 26  2  0
M  END
$$$$
