VWV.pdb
     RDKit          3D

 29 30  0  0  1  0  0  0  0  0999 V2000
   10.7804  -20.6811   22.8807 C   0  0  0  0  0  0  0  0  0  0  0  0
   10.9609  -20.2157   21.4729 C   0  0  1  0  0  0  0  0  0  0  0  0
   10.6693  -21.4556   20.5921 C   0  0  0  0  0  0  0  0  0  0  0  0
   10.0218  -19.1633   20.9952 C   0  0  2  0  0  0  0  0  0  0  0  0
   10.4483  -18.8602   19.6094 N   0  0  0  0  0  0  0  0  0  0  0  0
   10.0137  -17.8968   21.7206 C   0  0  0  0  0  0  0  0  0  0  0  0
   11.0628  -17.1461   21.6897 O   0  0  0  0  0  0  0  0  0  0  0  0
    8.9663  -17.3431   22.4916 N   0  0  0  0  0  0  0  0  0  0  0  0
    9.0052  -16.1831   23.3246 C   0  0  1  0  0  0  0  0  0  0  0  0
    7.6779  -15.4779   23.2626 C   0  0  0  0  0  0  0  0  0  0  0  0
    7.6699  -14.1212   23.8089 C   0  0  0  0  0  0  0  0  0  0  0  0
    8.3906  -13.0502   23.3468 C   0  0  0  0  0  0  0  0  0  0  0  0
    8.0863  -11.9806   24.1187 N   0  0  0  0  0  0  0  0  0  0  0  0
    7.1868  -12.3396   25.0656 C   0  0  0  0  0  0  0  0  0  0  0  0
    6.5457  -11.6800   26.0856 C   0  0  0  0  0  0  0  0  0  0  0  0
    5.6362  -12.3193   26.9369 C   0  0  0  0  0  0  0  0  0  0  0  0
    5.3703  -13.6509   26.7519 C   0  0  0  0  0  0  0  0  0  0  0  0
    6.0116  -14.3093   25.7318 C   0  0  0  0  0  0  0  0  0  0  0  0
    6.9113  -13.7023   24.8811 C   0  0  0  0  0  0  0  0  0  0  0  0
    9.2598  -16.4845   24.7704 C   0  0  0  0  0  0  0  0  0  0  0  0
    8.7771  -17.5751   25.2171 O   0  0  0  0  0  0  0  0  0  0  0  0
   12.2965  -14.3677   26.8566 C   0  0  0  0  0  0  0  0  0  0  0  0
   11.2326  -15.0713   27.6655 C   0  0  2  0  0  0  0  0  0  0  0  0
   11.8258  -15.6520   28.9324 C   0  0  0  0  0  0  0  0  0  0  0  0
   10.5312  -16.1259   26.8774 C   0  0  2  0  0  0  0  0  0  0  0  0
    9.9785  -15.6608   25.6438 N   0  0  0  0  0  0  0  0  0  0  0  0
    9.5024  -16.7595   27.7590 C   0  0  0  0  0  0  0  0  0  0  0  0
    9.8503  -17.3809   28.8043 O   0  0  0  0  0  0  0  0  0  0  0  0
    8.1573  -16.6684   27.4342 O   0  0  0  0  0  0  0  0  0  0  0  0
  2  1  1  1
  2  4  1  0
  3  2  1  0
  4  5  1  6
  6  4  1  0
  6  7  2  0
  8  6  1  0
  9  8  1  0
  9 10  1  1
 11 10  1  0
 11 19  1  0
 12 13  1  0
 12 11  2  0
 13 14  1  0
 14 15  1  0
 14 19  2  0
 15 16  2  0
 16 17  1  0
 18 17  2  0
 19 18  1  0
 20  9  1  0
 21 20  2  0
 23 22  1  6
 23 25  1  0
 24 23  1  0
 25 27  1  0
 25 26  1  6
 26 20  1  0
 27 29  1  0
 28 27  2  0
M  END
$$$$
