VWV.pdb
     RDKit          3D

 29 30  0  0  1  0  0  0  0  0999 V2000
   13.5087  -17.9752   21.9327 C   0  0  0  0  0  0  0  0  0  0  0  0
   12.9358  -17.3344   20.7112 C   0  0  1  0  0  0  0  0  0  0  0  0
   13.3777  -18.2351   19.5316 C   0  0  0  0  0  0  0  0  0  0  0  0
   11.4501  -17.2748   20.6264 C   0  0  2  0  0  0  0  0  0  0  0  0
   11.1586  -16.6961   19.2944 N   0  0  0  0  0  0  0  0  0  0  0  0
   10.7584  -16.4446   21.6076 C   0  0  0  0  0  0  0  0  0  0  0  0
   10.9187  -15.1646   21.5751 O   0  0  0  0  0  0  0  0  0  0  0  0
    9.8903  -16.8620   22.6423 N   0  0  0  0  0  0  0  0  0  0  0  0
    9.2892  -16.0629   23.6624 C   0  0  1  0  0  0  0  0  0  0  0  0
    7.8070  -16.3179   23.6893 C   0  0  0  0  0  0  0  0  0  0  0  0
    7.0683  -15.5776   24.7119 C   0  0  0  0  0  0  0  0  0  0  0  0
    6.2997  -16.1135   25.7129 C   0  0  0  0  0  0  0  0  0  0  0  0
    5.8047  -15.0910   26.4491 N   0  0  0  0  0  0  0  0  0  0  0  0
    6.2376  -13.9110   25.9444 C   0  0  0  0  0  0  0  0  0  0  0  0
    6.0541  -12.5925   26.2824 C   0  0  0  0  0  0  0  0  0  0  0  0
    6.6413  -11.5450   25.5622 C   0  0  0  0  0  0  0  0  0  0  0  0
    7.4295  -11.8378   24.4800 C   0  0  0  0  0  0  0  0  0  0  0  0
    7.6125  -13.1563   24.1430 C   0  0  0  0  0  0  0  0  0  0  0  0
    7.0448  -14.2048   24.8357 C   0  0  0  0  0  0  0  0  0  0  0  0
    9.7970  -16.3589   25.0411 C   0  0  0  0  0  0  0  0  0  0  0  0
   10.0393  -17.5805   25.3072 O   0  0  0  0  0  0  0  0  0  0  0  0
    9.0209  -14.4129   28.8444 C   0  0  0  0  0  0  0  0  0  0  0  0
   10.4234  -14.6011   28.3165 C   0  0  2  0  0  0  0  0  0  0  0  0
   10.9388  -13.3136   27.7074 C   0  0  0  0  0  0  0  0  0  0  0  0
   10.5108  -15.7225   27.3366 C   0  0  2  0  0  0  0  0  0  0  0  0
   10.0166  -15.3988   26.0349 N   0  0  0  0  0  0  0  0  0  0  0  0
    9.8225  -16.9118   27.9272 C   0  0  0  0  0  0  0  0  0  0  0  0
   10.3168  -17.5056   28.9287 O   0  0  0  0  0  0  0  0  0  0  0  0
    8.6347  -17.3713   27.3783 O   0  0  0  0  0  0  0  0  0  0  0  0
  2  1  1  1
  2  4  1  0
  3  2  1  0
  4  5  1  6
  6  4  1  0
  6  7  2  0
  8  6  1  0
  9  8  1  0
  9 10  1  1
 11 10  1  0
 11 19  1  0
 12 13  1  0
 12 11  2  0
 13 14  1  0
 14 15  1  0
 14 19  2  0
 15 16  2  0
 16 17  1  0
 18 17  2  0
 19 18  1  0
 20  9  1  0
 21 20  2  0
 23 22  1  6
 23 25  1  0
 24 23  1  0
 25 27  1  0
 25 26  1  6
 26 20  1  0
 27 29  1  0
 28 27  2  0
M  END
$$$$
