VWV.pdb
     RDKit          3D

 29 30  0  0  1  0  0  0  0  0999 V2000
   11.5913  -19.5323   19.0353 C   0  0  0  0  0  0  0  0  0  0  0  0
   11.3014  -18.7446   20.2708 C   0  0  1  0  0  0  0  0  0  0  0  0
   12.6867  -18.3341   20.8282 C   0  0  0  0  0  0  0  0  0  0  0  0
   10.5569  -17.4682   20.0859 C   0  0  2  0  0  0  0  0  0  0  0  0
   11.4175  -16.6382   19.2114 N   0  0  0  0  0  0  0  0  0  0  0  0
   10.2820  -16.6767   21.2810 C   0  0  0  0  0  0  0  0  0  0  0  0
   11.2415  -16.0121   21.8313 O   0  0  0  0  0  0  0  0  0  0  0  0
    9.0505  -16.5230   21.9579 N   0  0  0  0  0  0  0  0  0  0  0  0
    8.8160  -15.9215   23.2322 C   0  0  1  0  0  0  0  0  0  0  0  0
    7.3369  -15.7351   23.4329 C   0  0  0  0  0  0  0  0  0  0  0  0
    6.9567  -15.1026   24.6957 C   0  0  0  0  0  0  0  0  0  0  0  0
    6.4146  -15.7253   25.7904 C   0  0  0  0  0  0  0  0  0  0  0  0
    6.2253  -14.7889   26.7494 N   0  0  0  0  0  0  0  0  0  0  0  0
    6.6334  -13.5794   26.2963 C   0  0  0  0  0  0  0  0  0  0  0  0
    6.6736  -12.3139   26.8285 C   0  0  0  0  0  0  0  0  0  0  0  0
    7.1627  -11.2145   26.1125 C   0  0  0  0  0  0  0  0  0  0  0  0
    7.6204  -11.3998   24.8341 C   0  0  0  0  0  0  0  0  0  0  0  0
    7.5800  -12.6654   24.3030 C   0  0  0  0  0  0  0  0  0  0  0  0
    7.1026  -13.7632   24.9874 C   0  0  0  0  0  0  0  0  0  0  0  0
    9.3021  -16.7428   24.3878 C   0  0  0  0  0  0  0  0  0  0  0  0
    9.0043  -17.9808   24.3700 O   0  0  0  0  0  0  0  0  0  0  0  0
   12.4619  -15.5463   27.0680 C   0  0  0  0  0  0  0  0  0  0  0  0
   12.0619  -16.9472   26.6692 C   0  0  2  0  0  0  0  0  0  0  0  0
   12.7976  -17.3729   25.4155 C   0  0  0  0  0  0  0  0  0  0  0  0
   10.5872  -17.0823   26.4895 C   0  0  2  0  0  0  0  0  0  0  0  0
   10.0461  -16.2465   25.4638 N   0  0  0  0  0  0  0  0  0  0  0  0
    9.9334  -16.8525   27.8149 C   0  0  0  0  0  0  0  0  0  0  0  0
    9.1794  -15.8526   27.9919 O   0  0  0  0  0  0  0  0  0  0  0  0
   10.1511  -17.7375   28.8603 O   0  0  0  0  0  0  0  0  0  0  0  0
  2  1  1  6
  2  4  1  0
  3  2  1  0
  4  5  1  6
  6  4  1  0
  6  7  2  0
  8  6  1  0
  9  8  1  0
  9 10  1  1
 11 10  1  0
 11 19  1  0
 12 13  1  0
 12 11  2  0
 13 14  1  0
 14 15  1  0
 14 19  2  0
 15 16  2  0
 16 17  1  0
 18 17  2  0
 19 18  1  0
 20  9  1  0
 21 20  2  0
 23 22  1  6
 23 25  1  0
 24 23  1  0
 25 27  1  0
 25 26  1  6
 26 20  1  0
 27 29  1  0
 28 27  2  0
M  END
$$$$
