VWV.pdb
     RDKit          3D

 29 30  0  0  1  0  0  0  0  0999 V2000
    9.1051  -15.9238   18.0136 C   0  0  0  0  0  0  0  0  0  0  0  0
    9.0038  -15.3184   19.3754 C   0  0  1  0  0  0  0  0  0  0  0  0
    7.5203  -15.4847   19.7873 C   0  0  0  0  0  0  0  0  0  0  0  0
    9.7891  -15.9773   20.4558 C   0  0  2  0  0  0  0  0  0  0  0  0
    9.3527  -17.3928   20.4469 N   0  0  0  0  0  0  0  0  0  0  0  0
    9.5963  -15.4850   21.8162 C   0  0  0  0  0  0  0  0  0  0  0  0
   10.0138  -14.3034   22.1238 O   0  0  0  0  0  0  0  0  0  0  0  0
    8.9842  -16.1501   22.9030 N   0  0  0  0  0  0  0  0  0  0  0  0
    8.8108  -15.6765   24.2396 C   0  0  1  0  0  0  0  0  0  0  0  0
    7.5564  -16.2687   24.8214 C   0  0  0  0  0  0  0  0  0  0  0  0
    6.6377  -15.3047   25.4264 C   0  0  0  0  0  0  0  0  0  0  0  0
    5.3971  -15.5731   25.9451 C   0  0  0  0  0  0  0  0  0  0  0  0
    4.8847  -14.4128   26.4179 N   0  0  0  0  0  0  0  0  0  0  0  0
    5.7673  -13.4055   26.2152 C   0  0  0  0  0  0  0  0  0  0  0  0
    5.7731  -12.0594   26.4878 C   0  0  0  0  0  0  0  0  0  0  0  0
    6.8535  -11.2322   26.1580 C   0  0  0  0  0  0  0  0  0  0  0  0
    7.9490  -11.7779   25.5412 C   0  0  0  0  0  0  0  0  0  0  0  0
    7.9423  -13.1239   25.2692 C   0  0  0  0  0  0  0  0  0  0  0  0
    6.8906  -13.9586   25.5835 C   0  0  0  0  0  0  0  0  0  0  0  0
    9.9281  -16.0530   25.1648 C   0  0  0  0  0  0  0  0  0  0  0  0
   10.6941  -16.9936   24.7772 O   0  0  0  0  0  0  0  0  0  0  0  0
   10.2051  -15.2598   29.5303 C   0  0  0  0  0  0  0  0  0  0  0  0
   11.3286  -15.0860   28.5358 C   0  0  2  0  0  0  0  0  0  0  0  0
   11.4713  -13.6296   28.1450 C   0  0  0  0  0  0  0  0  0  0  0  0
   11.1496  -15.9432   27.3282 C   0  0  2  0  0  0  0  0  0  0  0  0
   10.1779  -15.4505   26.4026 N   0  0  0  0  0  0  0  0  0  0  0  0
   10.8459  -17.3345   27.7853 C   0  0  0  0  0  0  0  0  0  0  0  0
    9.6739  -17.7995   27.6859 O   0  0  0  0  0  0  0  0  0  0  0  0
   11.8511  -18.1249   28.3221 O   0  0  0  0  0  0  0  0  0  0  0  0
  2  1  1  6
  2  4  1  0
  3  2  1  0
  4  5  1  1
  6  4  1  0
  6  7  2  0
  8  6  1  0
  9  8  1  0
  9 10  1  1
 11 10  1  0
 11 19  1  0
 12 13  1  0
 12 11  2  0
 13 14  1  0
 14 15  1  0
 14 19  2  0
 15 16  2  0
 16 17  1  0
 18 17  2  0
 19 18  1  0
 20  9  1  0
 21 20  2  0
 23 22  1  1
 23 25  1  0
 24 23  1  0
 25 27  1  0
 25 26  1  6
 26 20  1  0
 27 29  1  0
 28 27  2  0
M  END
$$$$
