VWV.pdb
     RDKit          3D

 29 30  0  0  1  0  0  0  0  0999 V2000
    8.4819  -14.9253   17.9252 C   0  0  0  0  0  0  0  0  0  0  0  0
    8.6438  -14.4267   19.3239 C   0  0  1  0  0  0  0  0  0  0  0  0
    7.2219  -14.4586   19.9363 C   0  0  0  0  0  0  0  0  0  0  0  0
    9.4830  -15.2563   20.2323 C   0  0  2  0  0  0  0  0  0  0  0  0
    8.9570  -16.6345   20.0984 N   0  0  0  0  0  0  0  0  0  0  0  0
    9.4516  -14.9291   21.6544 C   0  0  0  0  0  0  0  0  0  0  0  0
    9.9409  -13.8036   22.0530 O   0  0  0  0  0  0  0  0  0  0  0  0
    8.9333  -15.7075   22.7145 N   0  0  0  0  0  0  0  0  0  0  0  0
    8.7611  -15.3293   24.0812 C   0  0  1  0  0  0  0  0  0  0  0  0
    7.4905  -15.9351   24.6117 C   0  0  0  0  0  0  0  0  0  0  0  0
    6.5445  -14.9830   25.1930 C   0  0  0  0  0  0  0  0  0  0  0  0
    5.3053  -15.2715   25.7041 C   0  0  0  0  0  0  0  0  0  0  0  0
    4.7623  -14.1160   26.1539 N   0  0  0  0  0  0  0  0  0  0  0  0
    5.6238  -13.0922   25.9439 C   0  0  0  0  0  0  0  0  0  0  0  0
    5.5967  -11.7423   26.1956 C   0  0  0  0  0  0  0  0  0  0  0  0
    6.6614  -10.8959   25.8631 C   0  0  0  0  0  0  0  0  0  0  0  0
    7.7748  -11.4261   25.2652 C   0  0  0  0  0  0  0  0  0  0  0  0
    7.8011  -12.7759   25.0142 C   0  0  0  0  0  0  0  0  0  0  0  0
    6.7655  -13.6293   25.3315 C   0  0  0  0  0  0  0  0  0  0  0  0
    9.8639  -15.7966   24.9821 C   0  0  0  0  0  0  0  0  0  0  0  0
   10.5665  -16.7718   24.5613 O   0  0  0  0  0  0  0  0  0  0  0  0
   10.0485  -15.5487   29.3232 C   0  0  0  0  0  0  0  0  0  0  0  0
   11.2060  -15.1317   28.4471 C   0  0  2  0  0  0  0  0  0  0  0  0
   11.2543  -13.6237   28.3132 C   0  0  0  0  0  0  0  0  0  0  0  0
   11.1591  -15.7812   27.1049 C   0  0  2  0  0  0  0  0  0  0  0  0
   10.1643  -15.2422   26.2311 N   0  0  0  0  0  0  0  0  0  0  0  0
   11.0020  -17.2550   27.3058 C   0  0  0  0  0  0  0  0  0  0  0  0
   12.0176  -17.9898   27.4742 O   0  0  0  0  0  0  0  0  0  0  0  0
    9.7379  -17.8254   27.3088 O   0  0  0  0  0  0  0  0  0  0  0  0
  2  1  1  6
  2  4  1  0
  3  2  1  0
  4  5  1  1
  6  4  1  0
  6  7  2  0
  8  6  1  0
  9  8  1  0
  9 10  1  1
 11 10  1  0
 11 19  1  0
 12 13  1  0
 12 11  2  0
 13 14  1  0
 14 15  1  0
 14 19  2  0
 15 16  2  0
 16 17  1  0
 18 17  2  0
 19 18  1  0
 20  9  1  0
 21 20  2  0
 23 22  1  1
 23 25  1  0
 24 23  1  0
 25 27  1  0
 25 26  1  6
 26 20  1  0
 27 29  1  0
 28 27  2  0
M  END
$$$$
