VWV.pdb
     RDKit          3D

 29 30  0  0  1  0  0  0  0  0999 V2000
   13.1572  -18.9608   19.8407 C   0  0  0  0  0  0  0  0  0  0  0  0
   12.5108  -18.1314   20.9016 C   0  0  1  0  0  0  0  0  0  0  0  0
   13.3016  -16.8001   20.9181 C   0  0  0  0  0  0  0  0  0  0  0  0
   11.0916  -17.7440   20.6699 C   0  0  2  0  0  0  0  0  0  0  0  0
   11.0804  -17.0783   19.3467 N   0  0  0  0  0  0  0  0  0  0  0  0
   10.4915  -16.8098   21.6172 C   0  0  0  0  0  0  0  0  0  0  0  0
   10.7436  -15.5493   21.5048 O   0  0  0  0  0  0  0  0  0  0  0  0
    9.6264  -17.1014   22.6964 N   0  0  0  0  0  0  0  0  0  0  0  0
    9.1502  -16.2118   23.7076 C   0  0  1  0  0  0  0  0  0  0  0  0
    7.6589  -16.3572   23.8402 C   0  0  0  0  0  0  0  0  0  0  0  0
    7.0289  -15.4463   24.7955 C   0  0  0  0  0  0  0  0  0  0  0  0
    6.2886  -15.7991   25.8944 C   0  0  0  0  0  0  0  0  0  0  0  0
    5.9021  -14.6612   26.5175 N   0  0  0  0  0  0  0  0  0  0  0  0
    6.3771  -13.5859   25.8447 C   0  0  0  0  0  0  0  0  0  0  0  0
    6.2959  -12.2260   26.0198 C   0  0  0  0  0  0  0  0  0  0  0  0
    6.9036  -11.3194   25.1427 C   0  0  0  0  0  0  0  0  0  0  0  0
    7.6072  -11.7983   24.0685 C   0  0  0  0  0  0  0  0  0  0  0  0
    7.6879  -13.1580   23.8944 C   0  0  0  0  0  0  0  0  0  0  0  0
    7.0979  -14.0704   24.7435 C   0  0  0  0  0  0  0  0  0  0  0  0
    9.7260  -16.4756   25.0659 C   0  0  0  0  0  0  0  0  0  0  0  0
    9.8975  -17.6971   25.3828 O   0  0  0  0  0  0  0  0  0  0  0  0
    9.2866  -14.7085   28.9836 C   0  0  0  0  0  0  0  0  0  0  0  0
   10.6030  -14.6776   28.2438 C   0  0  2  0  0  0  0  0  0  0  0  0
   10.8129  -13.3278   27.5895 C   0  0  0  0  0  0  0  0  0  0  0  0
   10.7107  -15.7753   27.2395 C   0  0  2  0  0  0  0  0  0  0  0  0
   10.0790  -15.4862   25.9901 N   0  0  0  0  0  0  0  0  0  0  0  0
   10.1894  -17.0306   27.8637 C   0  0  0  0  0  0  0  0  0  0  0  0
    9.0363  -17.4600   27.5709 O   0  0  0  0  0  0  0  0  0  0  0  0
   10.9703  -17.7328   28.7695 O   0  0  0  0  0  0  0  0  0  0  0  0
  2  1  1  6
  2  4  1  0
  3  2  1  0
  4  5  1  6
  6  4  1  0
  6  7  2  0
  8  6  1  0
  9  8  1  0
  9 10  1  1
 11 10  1  0
 11 19  1  0
 12 13  1  0
 12 11  2  0
 13 14  1  0
 14 15  1  0
 14 19  2  0
 15 16  2  0
 16 17  1  0
 18 17  2  0
 19 18  1  0
 20  9  1  0
 21 20  2  0
 23 22  1  6
 23 25  1  0
 24 23  1  0
 25 27  1  0
 25 26  1  6
 26 20  1  0
 27 29  1  0
 28 27  2  0
M  END
$$$$
