VWV.pdb
     RDKit          3D

 29 30  0  0  1  0  0  0  0  0999 V2000
    8.7429  -16.4729   17.8831 C   0  0  0  0  0  0  0  0  0  0  0  0
    8.6833  -15.0226   17.5304 C   0  0  1  0  0  0  0  0  0  0  0  0
    8.0155  -14.9686   16.1343 C   0  0  0  0  0  0  0  0  0  0  0  0
    7.8404  -14.1602   18.4042 C   0  0  2  0  0  0  0  0  0  0  0  0
    8.0348  -12.7824   17.8961 N   0  0  0  0  0  0  0  0  0  0  0  0
    8.1628  -14.1344   19.8275 C   0  0  0  0  0  0  0  0  0  0  0  0
    9.2486  -13.5562   20.2173 O   0  0  0  0  0  0  0  0  0  0  0  0
    7.4169  -14.6784   20.8980 N   0  0  0  0  0  0  0  0  0  0  0  0
    7.7645  -14.7155   22.2831 C   0  0  1  0  0  0  0  0  0  0  0  0
    6.5175  -14.8834   23.1075 C   0  0  0  0  0  0  0  0  0  0  0  0
    6.7182  -14.8268   24.5551 C   0  0  0  0  0  0  0  0  0  0  0  0
    6.7745  -15.8938   25.4144 C   0  0  0  0  0  0  0  0  0  0  0  0
    6.9875  -15.4121   26.6613 N   0  0  0  0  0  0  0  0  0  0  0  0
    7.0696  -14.0607   26.6231 C   0  0  0  0  0  0  0  0  0  0  0  0
    7.2716  -13.0801   27.5633 C   0  0  0  0  0  0  0  0  0  0  0  0
    7.3123  -11.7203   27.2317 C   0  0  0  0  0  0  0  0  0  0  0  0
    7.1461  -11.3462   25.9238 C   0  0  0  0  0  0  0  0  0  0  0  0
    6.9445  -12.3273   24.9845 C   0  0  0  0  0  0  0  0  0  0  0  0
    6.8997  -13.6721   25.2862 C   0  0  0  0  0  0  0  0  0  0  0  0
    8.6725  -15.8502   22.6490 C   0  0  0  0  0  0  0  0  0  0  0  0
    8.3431  -17.0029   22.2193 O   0  0  0  0  0  0  0  0  0  0  0  0
   12.2797  -16.3003   21.8587 C   0  0  0  0  0  0  0  0  0  0  0  0
   12.1225  -16.6032   23.3300 C   0  0  2  0  0  0  0  0  0  0  0  0
   12.9781  -17.7900   23.7222 C   0  0  0  0  0  0  0  0  0  0  0  0
   10.6976  -16.8293   23.7095 C   0  0  2  0  0  0  0  0  0  0  0  0
    9.8350  -15.7273   23.4179 N   0  0  0  0  0  0  0  0  0  0  0  0
   10.6561  -17.2182   25.1531 C   0  0  0  0  0  0  0  0  0  0  0  0
   10.3883  -16.3575   26.0404 O   0  0  0  0  0  0  0  0  0  0  0  0
   10.9116  -18.5288   25.5277 O   0  0  0  0  0  0  0  0  0  0  0  0
  2  1  1  1
  2  4  1  0
  3  2  1  0
  4  5  1  6
  6  4  1  0
  6  7  2  0
  8  6  1  0
  9  8  1  0
  9 10  1  1
 11 10  1  0
 11 19  1  0
 12 13  1  0
 12 11  2  0
 13 14  1  0
 14 15  1  0
 14 19  2  0
 15 16  2  0
 16 17  1  0
 18 17  2  0
 19 18  1  0
 20  9  1  0
 21 20  2  0
 23 22  1  6
 23 25  1  0
 24 23  1  0
 25 27  1  0
 25 26  1  1
 26 20  1  0
 27 29  1  0
 28 27  2  0
M  END
$$$$
