VWV.pdb
     RDKit          3D

 29 30  0  0  1  0  0  0  0  0999 V2000
    8.0920  -15.5080   18.7217 C   0  0  0  0  0  0  0  0  0  0  0  0
    8.4601  -14.9712   20.0661 C   0  0  1  0  0  0  0  0  0  0  0  0
    7.1247  -14.8633   20.8427 C   0  0  0  0  0  0  0  0  0  0  0  0
    9.3372  -15.8314   20.9080 C   0  0  2  0  0  0  0  0  0  0  0  0
    8.7035  -17.1701   20.8899 N   0  0  0  0  0  0  0  0  0  0  0  0
    9.4921  -15.4569   22.3101 C   0  0  0  0  0  0  0  0  0  0  0  0
   10.1112  -14.3640   22.6058 O   0  0  0  0  0  0  0  0  0  0  0  0
    9.0360  -16.1544   23.4519 N   0  0  0  0  0  0  0  0  0  0  0  0
    9.1306  -15.7581   24.8211 C   0  0  1  0  0  0  0  0  0  0  0  0
    7.9110  -16.2305   25.5641 C   0  0  0  0  0  0  0  0  0  0  0  0
    6.7952  -15.2853   25.5901 C   0  0  0  0  0  0  0  0  0  0  0  0
    5.4748  -15.5735   25.3584 C   0  0  0  0  0  0  0  0  0  0  0  0
    4.7694  -14.4261   25.4930 N   0  0  0  0  0  0  0  0  0  0  0  0
    5.6058  -13.4076   25.8060 C   0  0  0  0  0  0  0  0  0  0  0  0
    5.4418  -12.0664   26.0521 C   0  0  0  0  0  0  0  0  0  0  0  0
    6.5164  -11.2241   26.3624 C   0  0  0  0  0  0  0  0  0  0  0  0
    7.7806  -11.7495   26.4255 C   0  0  0  0  0  0  0  0  0  0  0  0
    7.9435  -13.0906   26.1795 C   0  0  0  0  0  0  0  0  0  0  0  0
    6.9017  -13.9399   25.8714 C   0  0  0  0  0  0  0  0  0  0  0  0
   10.3147  -16.3336   25.5373 C   0  0  0  0  0  0  0  0  0  0  0  0
   10.9024  -17.3104   24.9696 O   0  0  0  0  0  0  0  0  0  0  0  0
   13.2905  -16.6368   29.5135 C   0  0  0  0  0  0  0  0  0  0  0  0
   12.2180  -15.8780   28.7683 C   0  0  2  0  0  0  0  0  0  0  0  0
   11.0154  -15.6455   29.6594 C   0  0  0  0  0  0  0  0  0  0  0  0
   11.8168  -16.5638   27.5057 C   0  0  2  0  0  0  0  0  0  0  0  0
   10.8054  -15.8765   26.7652 N   0  0  0  0  0  0  0  0  0  0  0  0
   11.4215  -17.9663   27.8427 C   0  0  0  0  0  0  0  0  0  0  0  0
   12.2684  -18.9035   27.7766 O   0  0  0  0  0  0  0  0  0  0  0  0
   10.1202  -18.2476   28.2310 O   0  0  0  0  0  0  0  0  0  0  0  0
  2  1  1  6
  2  4  1  0
  3  2  1  0
  4  5  1  1
  6  4  1  0
  6  7  2  0
  8  6  1  0
  9  8  1  0
  9 10  1  1
 11 10  1  0
 11 19  1  0
 12 13  1  0
 12 11  2  0
 13 14  1  0
 14 15  1  0
 14 19  2  0
 15 16  2  0
 16 17  1  0
 18 17  2  0
 19 18  1  0
 20  9  1  0
 21 20  2  0
 23 22  1  1
 23 25  1  0
 24 23  1  0
 25 27  1  0
 25 26  1  1
 26 20  1  0
 27 29  1  0
 28 27  2  0
M  END
$$$$
