VWV.pdb
     RDKit          3D

 29 30  0  0  1  0  0  0  0  0999 V2000
   12.0663  -17.3575   18.2696 C   0  0  0  0  0  0  0  0  0  0  0  0
   11.5640  -16.4884   19.3757 C   0  0  1  0  0  0  0  0  0  0  0  0
   10.0425  -16.3465   19.1251 C   0  0  0  0  0  0  0  0  0  0  0  0
   11.6869  -17.0325   20.7566 C   0  0  2  0  0  0  0  0  0  0  0  0
   11.0052  -18.3471   20.7196 N   0  0  0  0  0  0  0  0  0  0  0  0
   11.0677  -16.2663   21.8335 C   0  0  0  0  0  0  0  0  0  0  0  0
   11.6958  -15.2534   22.3281 O   0  0  0  0  0  0  0  0  0  0  0  0
    9.8116  -16.4838   22.4444 N   0  0  0  0  0  0  0  0  0  0  0  0
    9.2196  -15.7564   23.5220 C   0  0  1  0  0  0  0  0  0  0  0  0
    7.7394  -16.0229   23.5519 C   0  0  0  0  0  0  0  0  0  0  0  0
    7.0029  -15.3178   24.6005 C   0  0  0  0  0  0  0  0  0  0  0  0
    6.2269  -15.8866   25.5773 C   0  0  0  0  0  0  0  0  0  0  0  0
    5.7371  -14.8901   26.3516 N   0  0  0  0  0  0  0  0  0  0  0  0
    6.1807  -13.6945   25.8950 C   0  0  0  0  0  0  0  0  0  0  0  0
    6.0060  -12.3889   26.2840 C   0  0  0  0  0  0  0  0  0  0  0  0
    6.6034  -11.3185   25.6073 C   0  0  0  0  0  0  0  0  0  0  0  0
    7.3931  -11.5746   24.5168 C   0  0  0  0  0  0  0  0  0  0  0  0
    7.5673  -12.8802   24.1288 C   0  0  0  0  0  0  0  0  0  0  0  0
    6.9894  -13.9507   24.7781 C   0  0  0  0  0  0  0  0  0  0  0  0
    9.7480  -16.1374   24.8717 C   0  0  0  0  0  0  0  0  0  0  0  0
   10.3150  -17.2742   24.9597 O   0  0  0  0  0  0  0  0  0  0  0  0
   10.0887  -13.2729   27.9706 C   0  0  0  0  0  0  0  0  0  0  0  0
   10.0192  -14.7293   28.3646 C   0  0  2  0  0  0  0  0  0  0  0  0
   10.9147  -15.0005   29.5557 C   0  0  0  0  0  0  0  0  0  0  0  0
   10.3580  -15.6366   27.2300 C   0  0  2  0  0  0  0  0  0  0  0  0
    9.6591  -15.3407   26.0185 N   0  0  0  0  0  0  0  0  0  0  0  0
   10.1437  -17.0465   27.6809 C   0  0  0  0  0  0  0  0  0  0  0  0
    9.0123  -17.5961   27.5477 O   0  0  0  0  0  0  0  0  0  0  0  0
   11.1877  -17.7610   28.2491 O   0  0  0  0  0  0  0  0  0  0  0  0
  2  1  1  6
  2  4  1  0
  3  2  1  0
  4  5  1  6
  6  4  1  0
  6  7  2  0
  8  6  1  0
  9  8  1  0
  9 10  1  1
 11 10  1  0
 11 19  1  0
 12 13  1  0
 12 11  2  0
 13 14  1  0
 14 15  1  0
 14 19  2  0
 15 16  2  0
 16 17  1  0
 18 17  2  0
 19 18  1  0
 20  9  1  0
 21 20  2  0
 23 22  1  6
 23 25  1  0
 24 23  1  0
 25 27  1  0
 25 26  1  6
 26 20  1  0
 27 29  1  0
 28 27  2  0
M  END
$$$$
