AEC.pdb
     RDKit          3D

 21 20  0  0  1  0  0  0  0  0999 V2000
    7.9849  -12.2717   19.7472 C   0  0  0  0  0  0  0  0  0  0  0  0
    8.2607  -13.7348   19.4905 C   0  0  2  0  0  0  0  0  0  0  0  0
    7.4287  -14.1533   18.3776 N   0  0  0  0  0  0  0  0  0  0  0  0
    7.9235  -14.5294   20.7000 C   0  0  0  0  0  0  0  0  0  0  0  0
    6.7717  -14.9290   20.9355 O   0  0  0  0  0  0  0  0  0  0  0  0
    8.9407  -14.8510   21.6282 N   0  0  0  0  0  0  0  0  0  0  0  0
    8.7661  -15.6017   22.8252 C   0  0  1  0  0  0  0  0  0  0  0  0
    9.7708  -16.7339   22.8174 C   0  0  0  0  0  0  0  0  0  0  0  0
    9.2236  -17.8727   21.9857 C   0  0  0  0  0  0  0  0  0  0  0  0
   10.3346  -18.8146   21.7326 C   0  0  0  0  0  0  0  0  0  0  0  0
   10.5831  -19.7414   22.5489 O   0  0  0  0  0  0  0  0  0  0  0  0
    8.9799  -14.8166   24.0584 C   0  0  0  0  0  0  0  0  0  0  0  0
   10.1235  -14.3413   24.2710 O   0  0  0  0  0  0  0  0  0  0  0  0
   11.0904  -18.6552   20.5855 O   0  0  0  0  0  0  0  0  0  0  0  0
    7.9776  -14.5625   25.0224 N   0  0  0  0  0  0  0  0  0  0  0  0
    8.2031  -13.7953   26.2329 C   0  0  1  0  0  0  0  0  0  0  0  0
    6.9087  -13.3078   26.8433 C   0  0  0  0  0  0  0  0  0  0  0  0
    6.1350  -11.9828   25.9263 S   0  0  0  0  0  0  0  0  0  0  0  0
    8.7880  -14.7514   27.2351 C   0  0  0  0  0  0  0  0  0  0  0  0
    8.8567  -15.9874   27.0167 O   0  0  0  0  0  0  0  0  0  0  0  0
    9.2817  -14.3002   28.4570 O   0  0  0  0  0  0  0  0  0  0  0  0
  2  1  1  1
  2  3  1  0
  4  6  1  0
  4  2  1  0
  5  4  2  0
  7  6  1  0
  7 12  1  0
  7  8  1  6
  9  8  1  0
 10  9  1  0
 11 10  2  0
 12 15  1  0
 13 12  2  0
 14 10  1  0
 15 16  1  0
 16 19  1  0
 16 17  1  1
 17 18  1  0
 19 21  1  0
 20 19  2  0
M  END
$$$$
