AEC.pdb
     RDKit          3D

 21 20  0  0  1  0  0  0  0  0999 V2000
    8.2862  -12.3246   19.4668 C   0  0  0  0  0  0  0  0  0  0  0  0
    8.6248  -13.3102   18.3730 C   0  0  2  0  0  0  0  0  0  0  0  0
    7.4215  -13.5379   17.5944 N   0  0  0  0  0  0  0  0  0  0  0  0
    9.0869  -14.5884   18.9739 C   0  0  0  0  0  0  0  0  0  0  0  0
    8.3003  -15.4814   19.3283 O   0  0  0  0  0  0  0  0  0  0  0  0
   10.4712  -14.8121   19.1563 N   0  0  0  0  0  0  0  0  0  0  0  0
   11.0535  -15.9505   19.7824 C   0  0  1  0  0  0  0  0  0  0  0  0
   12.3682  -16.2423   19.0913 C   0  0  0  0  0  0  0  0  0  0  0  0
   13.0016  -17.4582   19.7302 C   0  0  0  0  0  0  0  0  0  0  0  0
   14.2488  -17.7515   18.9925 C   0  0  0  0  0  0  0  0  0  0  0  0
   14.2086  -18.0755   17.7758 O   0  0  0  0  0  0  0  0  0  0  0  0
   11.3313  -15.7632   21.2213 C   0  0  0  0  0  0  0  0  0  0  0  0
   11.9063  -14.7065   21.5841 O   0  0  0  0  0  0  0  0  0  0  0  0
   15.4536  -17.6624   19.6656 O   0  0  0  0  0  0  0  0  0  0  0  0
   10.9917  -16.6995   22.2246 N   0  0  0  0  0  0  0  0  0  0  0  0
   11.1588  -16.4519   23.6443 C   0  0  1  0  0  0  0  0  0  0  0  0
    9.8338  -16.2463   24.3427 C   0  0  0  0  0  0  0  0  0  0  0  0
    9.9736  -16.0849   26.1175 S   0  0  0  0  0  0  0  0  0  0  0  0
   11.7319  -17.7136   24.2276 C   0  0  0  0  0  0  0  0  0  0  0  0
   11.4613  -18.8482   23.7589 O   0  0  0  0  0  0  0  0  0  0  0  0
   12.5938  -17.6740   25.3212 O   0  0  0  0  0  0  0  0  0  0  0  0
  2  1  1  1
  2  3  1  0
  4  6  1  0
  4  2  1  0
  5  4  2  0
  7  6  1  0
  7 12  1  0
  7  8  1  6
  9  8  1  0
 10  9  1  0
 11 10  2  0
 12 15  1  0
 13 12  2  0
 14 10  1  0
 15 16  1  0
 16 19  1  0
 16 17  1  1
 17 18  1  0
 19 21  1  0
 20 19  2  0
M  END
$$$$
