AEC.pdb
     RDKit          3D

 21 20  0  0  1  0  0  0  0  0999 V2000
    7.8984  -12.5419   18.9583 C   0  0  0  0  0  0  0  0  0  0  0  0
    8.6575  -13.4132   17.9851 C   0  0  2  0  0  0  0  0  0  0  0  0
    7.6860  -14.0868   17.1434 N   0  0  0  0  0  0  0  0  0  0  0  0
    9.4618  -14.4162   18.7304 C   0  0  0  0  0  0  0  0  0  0  0  0
    9.0054  -15.5217   19.0645 O   0  0  0  0  0  0  0  0  0  0  0  0
   10.7986  -14.1165   19.0802 N   0  0  0  0  0  0  0  0  0  0  0  0
   11.7111  -15.0066   19.7143 C   0  0  1  0  0  0  0  0  0  0  0  0
   13.1144  -14.5884   19.3308 C   0  0  0  0  0  0  0  0  0  0  0  0
   13.5162  -15.3131   18.0654 C   0  0  0  0  0  0  0  0  0  0  0  0
   14.9064  -14.9219   17.7491 C   0  0  0  0  0  0  0  0  0  0  0  0
   15.2976  -14.8698   16.5528 O   0  0  0  0  0  0  0  0  0  0  0  0
   11.6246  -14.9990   21.1891 C   0  0  0  0  0  0  0  0  0  0  0  0
   11.7595  -13.9025   21.7879 O   0  0  0  0  0  0  0  0  0  0  0  0
   15.7623  -14.6162   18.7914 O   0  0  0  0  0  0  0  0  0  0  0  0
   11.3991  -16.1503   21.9779 N   0  0  0  0  0  0  0  0  0  0  0  0
   11.3170  -16.1286   23.4262 C   0  0  1  0  0  0  0  0  0  0  0  0
    9.8855  -16.0975   23.9114 C   0  0  0  0  0  0  0  0  0  0  0  0
    8.7965  -17.1917   23.0103 S   0  0  0  0  0  0  0  0  0  0  0  0
   11.8761  -17.4415   23.8999 C   0  0  0  0  0  0  0  0  0  0  0  0
   12.0866  -18.3995   23.1137 O   0  0  0  0  0  0  0  0  0  0  0  0
   12.1860  -17.6495   25.2419 O   0  0  0  0  0  0  0  0  0  0  0  0
  2  1  1  1
  2  3  1  0
  4  6  1  0
  4  2  1  0
  5  4  2  0
  7  6  1  0
  7 12  1  0
  7  8  1  1
  9  8  1  0
 10  9  1  0
 11 10  2  0
 12 15  1  0
 13 12  2  0
 14 10  1  0
 15 16  1  0
 16 19  1  0
 16 17  1  6
 17 18  1  0
 19 21  1  0
 20 19  2  0
M  END
$$$$
