AEC.pdb
     RDKit          3D

 21 20  0  0  1  0  0  0  0  0999 V2000
    7.8422  -12.2454   19.8979 C   0  0  0  0  0  0  0  0  0  0  0  0
    8.1743  -13.7019   19.6719 C   0  0  2  0  0  0  0  0  0  0  0  0
    7.3221  -14.1893   18.6031 N   0  0  0  0  0  0  0  0  0  0  0  0
    7.9175  -14.4746   20.9149 C   0  0  0  0  0  0  0  0  0  0  0  0
    6.7900  -14.8998   21.2147 O   0  0  0  0  0  0  0  0  0  0  0  0
    8.9861  -14.7443   21.8009 N   0  0  0  0  0  0  0  0  0  0  0  0
    8.8964  -15.4969   23.0061 C   0  0  1  0  0  0  0  0  0  0  0  0
   10.0111  -16.5210   23.0013 C   0  0  0  0  0  0  0  0  0  0  0  0
    9.6739  -17.6119   22.0093 C   0  0  0  0  0  0  0  0  0  0  0  0
   10.7664  -18.6071   22.0518 C   0  0  0  0  0  0  0  0  0  0  0  0
   10.6617  -19.6385   22.7674 O   0  0  0  0  0  0  0  0  0  0  0  0
    9.0370  -14.6819   24.2303 C   0  0  0  0  0  0  0  0  0  0  0  0
   10.1177  -14.0686   24.4166 O   0  0  0  0  0  0  0  0  0  0  0  0
   11.8995  -18.3803   21.2921 O   0  0  0  0  0  0  0  0  0  0  0  0
    8.0304  -14.5448   25.2136 N   0  0  0  0  0  0  0  0  0  0  0  0
    8.1844  -13.7466   26.4151 C   0  0  1  0  0  0  0  0  0  0  0  0
    6.8513  -13.3147   26.9824 C   0  0  0  0  0  0  0  0  0  0  0  0
    6.1422  -11.8980   26.1545 S   0  0  0  0  0  0  0  0  0  0  0  0
    8.7892  -14.6545   27.4498 C   0  0  0  0  0  0  0  0  0  0  0  0
    8.9120  -15.8914   27.2620 O   0  0  0  0  0  0  0  0  0  0  0  0
    9.2415  -14.1555   28.6691 O   0  0  0  0  0  0  0  0  0  0  0  0
  2  1  1  1
  2  3  1  0
  4  6  1  0
  4  2  1  0
  5  4  2  0
  7  6  1  0
  7 12  1  0
  7  8  1  6
  9  8  1  0
 10  9  1  0
 11 10  2  0
 12 15  1  0
 13 12  2  0
 14 10  1  0
 15 16  1  0
 16 19  1  0
 16 17  1  1
 17 18  1  0
 19 21  1  0
 20 19  2  0
M  END
$$$$
