AEC.pdb
     RDKit          3D

 21 20  0  0  1  0  0  0  0  0999 V2000
    7.7726  -12.4821   20.3926 C   0  0  0  0  0  0  0  0  0  0  0  0
    7.9962  -13.9604   20.1756 C   0  0  2  0  0  0  0  0  0  0  0  0
    6.9962  -14.4255   19.2324 N   0  0  0  0  0  0  0  0  0  0  0  0
    7.8504  -14.6852   21.4646 C   0  0  0  0  0  0  0  0  0  0  0  0
    6.7449  -14.8985   21.9882 O   0  0  0  0  0  0  0  0  0  0  0  0
    9.0039  -15.1561   22.1335 N   0  0  0  0  0  0  0  0  0  0  0  0
    9.0234  -15.7998   23.4032 C   0  0  1  0  0  0  0  0  0  0  0  0
   10.1052  -16.8582   23.3737 C   0  0  0  0  0  0  0  0  0  0  0  0
    9.7242  -17.9245   22.3708 C   0  0  0  0  0  0  0  0  0  0  0  0
   10.8294  -18.9052   22.3206 C   0  0  0  0  0  0  0  0  0  0  0  0
   11.3660  -19.2051   21.2210 O   0  0  0  0  0  0  0  0  0  0  0  0
    9.3133  -14.8888   24.5295 C   0  0  0  0  0  0  0  0  0  0  0  0
   10.3296  -14.1536   24.4545 O   0  0  0  0  0  0  0  0  0  0  0  0
   11.2577  -19.4823   23.5021 O   0  0  0  0  0  0  0  0  0  0  0  0
    8.5190  -14.7878   25.6947 N   0  0  0  0  0  0  0  0  0  0  0  0
    8.8095  -13.8808   26.7890 C   0  0  1  0  0  0  0  0  0  0  0  0
    7.5651  -13.1869   27.2944 C   0  0  0  0  0  0  0  0  0  0  0  0
    6.5862  -12.4339   26.0021 S   0  0  0  0  0  0  0  0  0  0  0  0
    9.2873  -14.7358   27.9298 C   0  0  0  0  0  0  0  0  0  0  0  0
    9.2411  -15.9913   27.8873 O   0  0  0  0  0  0  0  0  0  0  0  0
    9.8049  -14.1644   29.0898 O   0  0  0  0  0  0  0  0  0  0  0  0
  2  1  1  1
  2  3  1  0
  4  6  1  0
  4  2  1  0
  5  4  2  0
  7  6  1  0
  7 12  1  0
  7  8  1  6
  9  8  1  0
 10  9  1  0
 11 10  2  0
 12 15  1  0
 13 12  2  0
 14 10  1  0
 15 16  1  0
 16 19  1  0
 16 17  1  1
 17 18  1  0
 19 21  1  0
 20 19  2  0
M  END
$$$$
