AEC.pdb
     RDKit          3D

 21 20  0  0  1  0  0  0  0  0999 V2000
    8.1941  -12.3494   18.9125 C   0  0  0  0  0  0  0  0  0  0  0  0
    8.1832  -13.6204   18.0958 C   0  0  2  0  0  0  0  0  0  0  0  0
    6.8413  -13.7988   17.5728 N   0  0  0  0  0  0  0  0  0  0  0  0
    8.5469  -14.7748   18.9580 C   0  0  0  0  0  0  0  0  0  0  0  0
    7.7022  -15.4188   19.6012 O   0  0  0  0  0  0  0  0  0  0  0  0
    9.9013  -15.1677   19.0614 N   0  0  0  0  0  0  0  0  0  0  0  0
   10.3914  -16.2693   19.8185 C   0  0  1  0  0  0  0  0  0  0  0  0
   11.6577  -16.7661   19.1543 C   0  0  0  0  0  0  0  0  0  0  0  0
   11.2881  -17.5698   17.9274 C   0  0  0  0  0  0  0  0  0  0  0  0
   12.5439  -18.0555   17.3169 C   0  0  0  0  0  0  0  0  0  0  0  0
   13.1813  -19.0071   17.8414 O   0  0  0  0  0  0  0  0  0  0  0  0
   10.7184  -15.9323   21.2192 C   0  0  0  0  0  0  0  0  0  0  0  0
   11.7007  -15.1796   21.4370 O   0  0  0  0  0  0  0  0  0  0  0  0
   12.9999  -17.4441   16.1634 O   0  0  0  0  0  0  0  0  0  0  0  0
    9.9956  -16.4031   22.3394 N   0  0  0  0  0  0  0  0  0  0  0  0
   10.2549  -15.9746   23.7009 C   0  0  1  0  0  0  0  0  0  0  0  0
    8.9895  -15.9147   24.5260 C   0  0  0  0  0  0  0  0  0  0  0  0
    7.9418  -14.5199   24.1361 S   0  0  0  0  0  0  0  0  0  0  0  0
   11.0964  -17.0509   24.3285 C   0  0  0  0  0  0  0  0  0  0  0  0
   11.2890  -18.1593   23.7676 O   0  0  0  0  0  0  0  0  0  0  0  0
   11.7016  -16.8600   25.5686 O   0  0  0  0  0  0  0  0  0  0  0  0
  2  1  1  1
  2  3  1  0
  4  6  1  0
  4  2  1  0
  5  4  2  0
  7  6  1  0
  7 12  1  0
  7  8  1  6
  9  8  1  0
 10  9  1  0
 11 10  2  0
 12 15  1  0
 13 12  2  0
 14 10  1  0
 15 16  1  0
 16 19  1  0
 16 17  1  1
 17 18  1  0
 19 21  1  0
 20 19  2  0
M  END
$$$$
