AEC.pdb
     RDKit          3D

 21 20  0  0  1  0  0  0  0  0999 V2000
    7.7192  -12.3338   20.0818 C   0  0  0  0  0  0  0  0  0  0  0  0
    8.0973  -13.7801   19.8630 C   0  0  2  0  0  0  0  0  0  0  0  0
    7.2157  -14.3186   18.8438 N   0  0  0  0  0  0  0  0  0  0  0  0
    7.9297  -14.5402   21.1288 C   0  0  0  0  0  0  0  0  0  0  0  0
    6.8137  -14.8280   21.5910 O   0  0  0  0  0  0  0  0  0  0  0  0
    9.0738  -14.9590   21.8466 N   0  0  0  0  0  0  0  0  0  0  0  0
    9.0667  -15.6542   23.0890 C   0  0  1  0  0  0  0  0  0  0  0  0
   10.1862  -16.6726   23.0607 C   0  0  0  0  0  0  0  0  0  0  0  0
    9.8092  -17.7935   22.1176 C   0  0  0  0  0  0  0  0  0  0  0  0
   10.9373  -18.7484   22.0856 C   0  0  0  0  0  0  0  0  0  0  0  0
   11.1015  -19.5730   23.0237 O   0  0  0  0  0  0  0  0  0  0  0  0
    9.2793  -14.7817   24.2622 C   0  0  0  0  0  0  0  0  0  0  0  0
   10.3829  -14.1913   24.3731 O   0  0  0  0  0  0  0  0  0  0  0  0
   11.8034  -18.7153   21.0079 O   0  0  0  0  0  0  0  0  0  0  0  0
    8.3180  -14.5650   25.2759 N   0  0  0  0  0  0  0  0  0  0  0  0
    8.5382  -13.7015   26.4207 C   0  0  1  0  0  0  0  0  0  0  0  0
    7.3267  -12.8518   26.7300 C   0  0  0  0  0  0  0  0  0  0  0  0
    5.7721  -13.6574   26.3701 S   0  0  0  0  0  0  0  0  0  0  0  0
    8.7090  -14.6095   27.6069 C   0  0  0  0  0  0  0  0  0  0  0  0
    8.5255  -15.8506   27.5289 O   0  0  0  0  0  0  0  0  0  0  0  0
    9.0809  -14.1056   28.8511 O   0  0  0  0  0  0  0  0  0  0  0  0
  2  1  1  1
  2  3  1  0
  4  6  1  0
  4  2  1  0
  5  4  2  0
  7  6  1  0
  7 12  1  0
  7  8  1  6
  9  8  1  0
 10  9  1  0
 11 10  2  0
 12 15  1  0
 13 12  2  0
 14 10  1  0
 15 16  1  0
 16 19  1  0
 16 17  1  1
 17 18  1  0
 19 21  1  0
 20 19  2  0
M  END
$$$$
