AEC.pdb
     RDKit          3D

 21 20  0  0  1  0  0  0  0  0999 V2000
   -1.9387  -25.3503   28.5675 C   0  0  0  0  0  0  0  0  0  0  0  0
   -3.3130  -25.9718   28.4801 C   0  0  2  0  0  0  0  0  0  0  0  0
   -4.0467  -25.2787   27.4374 N   0  0  0  0  0  0  0  0  0  0  0  0
   -4.0170  -25.8192   29.7799 C   0  0  0  0  0  0  0  0  0  0  0  0
   -3.5925  -26.3251   30.8315 O   0  0  0  0  0  0  0  0  0  0  0  0
   -5.2168  -25.0733   29.8390 N   0  0  0  0  0  0  0  0  0  0  0  0
   -6.0617  -24.9475   30.9780 C   0  0  1  0  0  0  0  0  0  0  0  0
   -6.5447  -23.5145   31.0454 C   0  0  0  0  0  0  0  0  0  0  0  0
   -7.4394  -23.2395   29.8572 C   0  0  0  0  0  0  0  0  0  0  0  0
   -7.9348  -21.8523   29.9831 C   0  0  0  0  0  0  0  0  0  0  0  0
   -8.7581  -21.3912   29.1486 O   0  0  0  0  0  0  0  0  0  0  0  0
   -7.2508  -25.8235   30.9385 C   0  0  0  0  0  0  0  0  0  0  0  0
   -7.7291  -26.1280   29.8172 O   0  0  0  0  0  0  0  0  0  0  0  0
   -7.4757  -21.0772   31.0323 O   0  0  0  0  0  0  0  0  0  0  0  0
   -7.8914  -26.3458   32.0854 N   0  0  0  0  0  0  0  0  0  0  0  0
   -8.9998  -27.2803   32.0311 C   0  0  1  0  0  0  0  0  0  0  0  0
   -8.7196  -28.5373   32.8228 C   0  0  0  0  0  0  0  0  0  0  0  0
   -7.8188  -29.7794   31.9056 S   0  0  0  0  0  0  0  0  0  0  0  0
  -10.1505  -26.6105   32.7296 C   0  0  0  0  0  0  0  0  0  0  0  0
  -10.0080  -25.5413   33.3751 O   0  0  0  0  0  0  0  0  0  0  0  0
  -11.4323  -27.1541   32.6881 O   0  0  0  0  0  0  0  0  0  0  0  0
  2  1  1  1
  2  3  1  0
  4  6  1  0
  4  2  1  0
  5  4  2  0
  7  6  1  0
  7 12  1  0
  7  8  1  6
  9  8  1  0
 10  9  1  0
 11 10  2  0
 12 15  1  0
 13 12  2  0
 14 10  1  0
 15 16  1  0
 16 19  1  0
 16 17  1  1
 17 18  1  0
 19 21  1  0
 20 19  2  0
M  END
$$$$
