AEC.pdb
     RDKit          3D

 21 20  0  0  1  0  0  0  0  0999 V2000
    7.1592  -13.2629   19.2760 C   0  0  0  0  0  0  0  0  0  0  0  0
    8.5262  -13.4134   19.9014 C   0  0  2  0  0  0  0  0  0  0  0  0
    9.3613  -14.1472   18.9685 N   0  0  0  0  0  0  0  0  0  0  0  0
    8.4145  -14.1650   21.1784 C   0  0  0  0  0  0  0  0  0  0  0  0
    7.6305  -13.8318   22.0818 O   0  0  0  0  0  0  0  0  0  0  0  0
    9.2245  -15.3048   21.3891 N   0  0  0  0  0  0  0  0  0  0  0  0
    9.2417  -16.1058   22.5660 C   0  0  1  0  0  0  0  0  0  0  0  0
   10.1594  -17.2834   22.3161 C   0  0  0  0  0  0  0  0  0  0  0  0
    9.4416  -18.2920   21.4470 C   0  0  0  0  0  0  0  0  0  0  0  0
   10.4153  -18.8028   20.4588 C   0  0  0  0  0  0  0  0  0  0  0  0
   11.5670  -19.1593   20.8241 O   0  0  0  0  0  0  0  0  0  0  0  0
    9.7343  -15.3954   23.7640 C   0  0  0  0  0  0  0  0  0  0  0  0
   10.6894  -14.5903   23.6283 O   0  0  0  0  0  0  0  0  0  0  0  0
   10.0344  -18.8795   19.1316 O   0  0  0  0  0  0  0  0  0  0  0  0
    9.2001  -15.5618   25.0623 N   0  0  0  0  0  0  0  0  0  0  0  0
    9.5627  -14.7287   26.1933 C   0  0  1  0  0  0  0  0  0  0  0  0
    8.3824  -13.9441   26.7196 C   0  0  0  0  0  0  0  0  0  0  0  0
    8.7836  -12.8792   28.0982 S   0  0  0  0  0  0  0  0  0  0  0  0
    9.9506  -15.6678   27.3015 C   0  0  0  0  0  0  0  0  0  0  0  0
    9.6457  -16.8872   27.2800 O   0  0  0  0  0  0  0  0  0  0  0  0
   10.6702  -15.2188   28.4064 O   0  0  0  0  0  0  0  0  0  0  0  0
  2  1  1  6
  2  3  1  0
  4  6  1  0
  4  2  1  0
  5  4  2  0
  7  6  1  0
  7 12  1  0
  7  8  1  6
  9  8  1  0
 10  9  1  0
 11 10  2  0
 12 15  1  0
 13 12  2  0
 14 10  1  0
 15 16  1  0
 16 19  1  0
 16 17  1  1
 17 18  1  0
 19 21  1  0
 20 19  2  0
M  END
$$$$
