AEC.pdb
     RDKit          3D

 21 20  0  0  1  0  0  0  0  0999 V2000
    7.2200  -13.2603   17.9866 C   0  0  0  0  0  0  0  0  0  0  0  0
    8.3128  -13.1488   19.0239 C   0  0  2  0  0  0  0  0  0  0  0  0
    9.5633  -13.5262   18.3917 N   0  0  0  0  0  0  0  0  0  0  0  0
    8.0239  -14.0640   20.1585 C   0  0  0  0  0  0  0  0  0  0  0  0
    6.9224  -14.0890   20.7312 O   0  0  0  0  0  0  0  0  0  0  0  0
    9.0302  -14.9460   20.6157 N   0  0  0  0  0  0  0  0  0  0  0  0
    8.8625  -15.9571   21.6038 C   0  0  1  0  0  0  0  0  0  0  0  0
    9.8288  -17.0798   21.2920 C   0  0  0  0  0  0  0  0  0  0  0  0
    9.3542  -17.8091   20.0547 C   0  0  0  0  0  0  0  0  0  0  0  0
   10.3518  -18.8545   19.7426 C   0  0  0  0  0  0  0  0  0  0  0  0
   10.6165  -19.7545   20.5834 O   0  0  0  0  0  0  0  0  0  0  0  0
    9.1346  -15.4965   22.9810 C   0  0  0  0  0  0  0  0  0  0  0  0
   10.2188  -14.9030   23.2072 O   0  0  0  0  0  0  0  0  0  0  0  0
   10.9841  -18.8214   18.5131 O   0  0  0  0  0  0  0  0  0  0  0  0
    8.2512  -15.6800   24.0694 N   0  0  0  0  0  0  0  0  0  0  0  0
    8.4980  -15.1600   25.4010 C   0  0  1  0  0  0  0  0  0  0  0  0
    7.2347  -14.6400   26.0486 C   0  0  0  0  0  0  0  0  0  0  0  0
    6.5662  -13.1844   25.2552 S   0  0  0  0  0  0  0  0  0  0  0  0
    8.9286  -16.3323   26.2383 C   0  0  0  0  0  0  0  0  0  0  0  0
    8.9409  -17.5056   25.7871 O   0  0  0  0  0  0  0  0  0  0  0  0
    9.3348  -16.1623   27.5597 O   0  0  0  0  0  0  0  0  0  0  0  0
  2  1  1  6
  2  3  1  0
  4  6  1  0
  4  2  1  0
  5  4  2  0
  7  6  1  0
  7 12  1  0
  7  8  1  6
  9  8  1  0
 10  9  1  0
 11 10  2  0
 12 15  1  0
 13 12  2  0
 14 10  1  0
 15 16  1  0
 16 19  1  0
 16 17  1  1
 17 18  1  0
 19 21  1  0
 20 19  2  0
M  END
$$$$
