AEC.pdb
     RDKit          3D

 21 20  0  0  1  0  0  0  0  0999 V2000
    6.8768  -13.3405   19.3765 C   0  0  0  0  0  0  0  0  0  0  0  0
    8.1995  -13.4583   20.0971 C   0  0  2  0  0  0  0  0  0  0  0  0
    9.0150  -14.4147   19.3718 N   0  0  0  0  0  0  0  0  0  0  0  0
    7.9742  -13.9371   21.4857 C   0  0  0  0  0  0  0  0  0  0  0  0
    7.1778  -13.3832   22.2610 O   0  0  0  0  0  0  0  0  0  0  0  0
    8.6854  -15.0643   21.9580 N   0  0  0  0  0  0  0  0  0  0  0  0
    8.5076  -15.6876   23.2256 C   0  0  1  0  0  0  0  0  0  0  0  0
    9.3993  -16.9099   23.2743 C   0  0  0  0  0  0  0  0  0  0  0  0
    9.1630  -17.6408   24.5773 C   0  0  0  0  0  0  0  0  0  0  0  0
   10.0263  -18.8409   24.5788 C   0  0  0  0  0  0  0  0  0  0  0  0
   10.7984  -19.0721   23.6107 O   0  0  0  0  0  0  0  0  0  0  0  0
    8.8626  -14.8237   24.3703 C   0  0  0  0  0  0  0  0  0  0  0  0
   10.0306  -14.3642   24.4299 O   0  0  0  0  0  0  0  0  0  0  0  0
    9.9665  -19.6990   25.6617 O   0  0  0  0  0  0  0  0  0  0  0  0
    7.9705  -14.4768   25.4108 N   0  0  0  0  0  0  0  0  0  0  0  0
    8.2729  -13.4939   26.4340 C   0  0  1  0  0  0  0  0  0  0  0  0
    7.0230  -12.8392   26.9769 C   0  0  0  0  0  0  0  0  0  0  0  0
    5.9045  -12.2613   25.7079 S   0  0  0  0  0  0  0  0  0  0  0  0
    8.8645  -14.2549   27.5879 C   0  0  0  0  0  0  0  0  0  0  0  0
    8.9531  -15.5089   27.5847 O   0  0  0  0  0  0  0  0  0  0  0  0
    9.3424  -13.5935   28.7168 O   0  0  0  0  0  0  0  0  0  0  0  0
  2  1  1  6
  2  3  1  0
  4  6  1  0
  4  2  1  0
  5  4  2  0
  7  6  1  0
  7 12  1  0
  7  8  1  6
  9  8  1  0
 10  9  1  0
 11 10  2  0
 12 15  1  0
 13 12  2  0
 14 10  1  0
 15 16  1  0
 16 19  1  0
 16 17  1  1
 17 18  1  0
 19 21  1  0
 20 19  2  0
M  END
$$$$
