AEC.pdb
     RDKit          3D

 21 20  0  0  1  0  0  0  0  0999 V2000
    8.0905  -12.4124   19.1324 C   0  0  0  0  0  0  0  0  0  0  0  0
    8.2081  -13.9185   19.1096 C   0  0  2  0  0  0  0  0  0  0  0  0
    7.2127  -14.4261   18.1835 N   0  0  0  0  0  0  0  0  0  0  0  0
    7.9570  -14.4628   20.4694 C   0  0  0  0  0  0  0  0  0  0  0  0
    6.8180  -14.5351   20.9587 O   0  0  0  0  0  0  0  0  0  0  0  0
    9.0448  -14.9195   21.2488 N   0  0  0  0  0  0  0  0  0  0  0  0
    8.9512  -15.5090   22.5413 C   0  0  1  0  0  0  0  0  0  0  0  0
   10.1711  -16.3815   22.7463 C   0  0  0  0  0  0  0  0  0  0  0  0
   10.0446  -17.1026   24.0699 C   0  0  0  0  0  0  0  0  0  0  0  0
   11.2779  -17.8937   24.2669 C   0  0  0  0  0  0  0  0  0  0  0  0
   12.2802  -17.3816   24.8327 O   0  0  0  0  0  0  0  0  0  0  0  0
    8.9083  -14.5263   23.6437 C   0  0  0  0  0  0  0  0  0  0  0  0
    9.4426  -13.4037   23.4618 O   0  0  0  0  0  0  0  0  0  0  0  0
   11.3054  -19.2014   23.8178 O   0  0  0  0  0  0  0  0  0  0  0  0
    8.3026  -14.7657   24.8985 N   0  0  0  0  0  0  0  0  0  0  0  0
    8.1558  -13.7523   25.9261 C   0  0  1  0  0  0  0  0  0  0  0  0
    6.8583  -12.9889   25.7868 C   0  0  0  0  0  0  0  0  0  0  0  0
    6.5413  -11.8571   27.1336 S   0  0  0  0  0  0  0  0  0  0  0  0
    8.0533  -14.4887   27.2329 C   0  0  0  0  0  0  0  0  0  0  0  0
    7.7926  -15.7172   27.2877 O   0  0  0  0  0  0  0  0  0  0  0  0
    8.2454  -13.8318   28.4461 O   0  0  0  0  0  0  0  0  0  0  0  0
  2  1  1  1
  2  3  1  0
  4  6  1  0
  4  2  1  0
  5  4  2  0
  7  6  1  0
  7 12  1  0
  7  8  1  1
  9  8  1  0
 10  9  1  0
 11 10  2  0
 12 15  1  0
 13 12  2  0
 14 10  1  0
 15 16  1  0
 16 19  1  0
 16 17  1  6
 17 18  1  0
 19 21  1  0
 20 19  2  0
M  END
$$$$
