AEC.pdb
     RDKit          3D

 21 20  0  0  1  0  0  0  0  0999 V2000
    8.1415  -12.5763   19.4109 C   0  0  0  0  0  0  0  0  0  0  0  0
    8.4478  -13.7535   18.5147 C   0  0  2  0  0  0  0  0  0  0  0  0
    7.2770  -14.0011   17.6938 N   0  0  0  0  0  0  0  0  0  0  0  0
    8.7466  -14.9508   19.3426 C   0  0  0  0  0  0  0  0  0  0  0  0
    7.8620  -15.7318   19.7292 O   0  0  0  0  0  0  0  0  0  0  0  0
   10.0833  -15.2256   19.7132 N   0  0  0  0  0  0  0  0  0  0  0  0
   10.5097  -16.2917   20.5550 C   0  0  1  0  0  0  0  0  0  0  0  0
   11.8485  -16.7817   20.0464 C   0  0  0  0  0  0  0  0  0  0  0  0
   11.6194  -17.7317   18.8918 C   0  0  0  0  0  0  0  0  0  0  0  0
   12.7442  -18.6909   18.8731 C   0  0  0  0  0  0  0  0  0  0  0  0
   12.5246  -19.9297   18.8082 O   0  0  0  0  0  0  0  0  0  0  0  0
   10.6789  -15.9031   21.9703 C   0  0  0  0  0  0  0  0  0  0  0  0
   11.6025  -15.1025   22.2618 O   0  0  0  0  0  0  0  0  0  0  0  0
   14.0356  -18.1993   18.9284 O   0  0  0  0  0  0  0  0  0  0  0  0
    9.8662  -16.3749   23.0266 N   0  0  0  0  0  0  0  0  0  0  0  0
   10.0125  -15.9479   24.4053 C   0  0  1  0  0  0  0  0  0  0  0  0
    8.6765  -15.6728   25.0573 C   0  0  0  0  0  0  0  0  0  0  0  0
    7.6982  -14.4450   24.2026 S   0  0  0  0  0  0  0  0  0  0  0  0
   10.5925  -17.1184   25.1499 C   0  0  0  0  0  0  0  0  0  0  0  0
   10.8164  -18.2210   24.5893 O   0  0  0  0  0  0  0  0  0  0  0  0
   10.9074  -17.0256   26.5036 O   0  0  0  0  0  0  0  0  0  0  0  0
  2  1  1  1
  2  3  1  0
  4  6  1  0
  4  2  1  0
  5  4  2  0
  7  6  1  0
  7 12  1  0
  7  8  1  6
  9  8  1  0
 10  9  1  0
 11 10  2  0
 12 15  1  0
 13 12  2  0
 14 10  1  0
 15 16  1  0
 16 19  1  0
 16 17  1  1
 17 18  1  0
 19 21  1  0
 20 19  2  0
M  END
$$$$
