GPV.pdb
     RDKit          3D

 19 19  0  0  1  0  0  0  0  0999 V2000
   19.0175  -15.7290  -18.5326 N   0  0  0  0  0  0  0  0  0  0  0  0
   18.8790  -14.4006  -19.0148 C   0  0  0  0  0  0  0  0  0  0  0  0
   19.8175  -13.4092  -18.4788 C   0  0  0  0  0  0  0  0  0  0  0  0
   20.4347  -13.6315  -17.3767 O   0  0  0  0  0  0  0  0  0  0  0  0
   20.1138  -12.1600  -19.1101 N   0  0  0  0  0  0  0  0  0  0  0  0
   19.5987  -11.8521  -20.4212 C   0  0  0  0  0  0  0  0  0  0  0  0
   20.2800  -10.5655  -20.8481 C   0  0  0  0  0  0  0  0  0  0  0  0
   20.5664   -9.9115  -19.5286 C   0  0  0  0  0  0  0  0  0  0  0  0
   20.8911  -11.0691  -18.6352 C   0  0  1  0  0  0  0  0  0  0  0  0
   20.6778  -10.7138  -17.2093 C   0  0  0  0  0  0  0  0  0  0  0  0
   19.5697  -10.8757  -16.6937 O   0  0  0  0  0  0  0  0  0  0  0  0
   24.1023   -9.8796  -14.6443 C   0  0  0  0  0  0  0  0  0  0  0  0
   22.7610  -10.4392  -14.2511 C   0  0  2  0  0  0  0  0  0  0  0  0
   22.7776  -11.9498  -14.3162 C   0  0  0  0  0  0  0  0  0  0  0  0
   21.6371   -9.8527  -15.0719 C   0  0  2  0  0  0  0  0  0  0  0  0
   21.7486  -10.1942  -16.4604 N   0  0  0  0  0  0  0  0  0  0  0  0
   21.6386   -8.3809  -14.8591 C   0  0  0  0  0  0  0  0  0  0  0  0
   21.1315   -7.8721  -13.6793 O   0  0  0  0  0  0  0  0  0  0  0  0
   22.0816   -7.5604  -15.7041 O   0  0  0  0  0  0  0  0  0  0  0  0
  2  1  1  0
  3  4  2  0
  3  2  1  0
  5  3  1  0
  6  5  1  0
  7  6  1  0
  8  7  1  0
  8  9  1  0
  9  5  1  0
  9 10  1  1
 10 16  1  0
 11 10  2  0
 13 12  1  6
 13 15  1  0
 14 13  1  0
 15 16  1  6
 17 15  1  0
 18 17  1  0
 19 17  2  0
M  END
$$$$
