GPV.pdb
     RDKit          3D

 19 19  0  0  1  0  0  0  0  0999 V2000
   19.1055  -24.4403    6.8996 N   0  0  0  0  0  0  0  0  0  0  0  0
   18.8677  -23.2812    6.1146 C   0  0  0  0  0  0  0  0  0  0  0  0
   18.9174  -21.9945    6.8167 C   0  0  0  0  0  0  0  0  0  0  0  0
   18.1916  -21.7950    7.8551 O   0  0  0  0  0  0  0  0  0  0  0  0
   19.7434  -20.8952    6.4215 N   0  0  0  0  0  0  0  0  0  0  0  0
   20.6615  -21.0183    5.3164 C   0  0  0  0  0  0  0  0  0  0  0  0
   21.5022  -19.7553    5.3267 C   0  0  0  0  0  0  0  0  0  0  0  0
   20.5690  -18.7646    5.9580 C   0  0  0  0  0  0  0  0  0  0  0  0
   19.8285  -19.5861    6.9682 C   0  0  1  0  0  0  0  0  0  0  0  0
   18.5274  -18.9579    7.3107 C   0  0  0  0  0  0  0  0  0  0  0  0
   17.4984  -19.3217    6.7374 O   0  0  0  0  0  0  0  0  0  0  0  0
   17.9554  -17.5227   11.0662 C   0  0  0  0  0  0  0  0  0  0  0  0
   17.3991  -16.6014   10.0134 C   0  0  2  0  0  0  0  0  0  0  0  0
   16.0848  -16.0086   10.4692 C   0  0  0  0  0  0  0  0  0  0  0  0
   17.2743  -17.2815    8.6708 C   0  0  2  0  0  0  0  0  0  0  0  0
   18.4848  -17.9501    8.2905 N   0  0  0  0  0  0  0  0  0  0  0  0
   16.8708  -16.2527    7.6756 C   0  0  0  0  0  0  0  0  0  0  0  0
   15.5283  -16.0639    7.4110 O   0  0  0  0  0  0  0  0  0  0  0  0
   17.6939  -15.5339    7.0516 O   0  0  0  0  0  0  0  0  0  0  0  0
  2  1  1  0
  3  4  2  0
  3  2  1  0
  5  3  1  0
  6  5  1  0
  7  6  1  0
  8  7  1  0
  8  9  1  0
  9  5  1  0
  9 10  1  6
 10 16  1  0
 11 10  2  0
 13 12  1  1
 13 15  1  0
 14 13  1  0
 15 16  1  6
 17 15  1  0
 18 17  1  0
 19 17  2  0
M  END
$$$$
