GPV.pdb
     RDKit          3D

 19 19  0  0  1  0  0  0  0  0999 V2000
   22.7891  -20.7692  -13.9442 N   0  0  0  0  0  0  0  0  0  0  0  0
   23.9774  -20.1009  -13.5473 C   0  0  0  0  0  0  0  0  0  0  0  0
   24.6558  -20.6246  -12.3571 C   0  0  0  0  0  0  0  0  0  0  0  0
   23.9973  -20.8359  -11.2770 O   0  0  0  0  0  0  0  0  0  0  0  0
   26.0519  -20.9317  -12.2980 N   0  0  0  0  0  0  0  0  0  0  0  0
   26.8565  -20.9547  -13.4944 C   0  0  0  0  0  0  0  0  0  0  0  0
   28.2045  -21.5161  -13.0826 C   0  0  0  0  0  0  0  0  0  0  0  0
   28.2803  -21.1178  -11.6382 C   0  0  0  0  0  0  0  0  0  0  0  0
   26.8621  -21.2433  -11.1727 C   0  0  1  0  0  0  0  0  0  0  0  0
   26.6232  -20.4059   -9.9700 C   0  0  0  0  0  0  0  0  0  0  0  0
   26.2381  -19.2416  -10.0972 O   0  0  0  0  0  0  0  0  0  0  0  0
   24.9718  -21.5285   -6.4514 C   0  0  0  0  0  0  0  0  0  0  0  0
   26.3700  -20.9919   -6.2969 C   0  0  2  0  0  0  0  0  0  0  0  0
   26.4999  -20.2159   -5.0056 C   0  0  0  0  0  0  0  0  0  0  0  0
   26.8004  -20.1736   -7.4911 C   0  0  2  0  0  0  0  0  0  0  0  0
   26.8404  -20.9544   -8.6935 N   0  0  0  0  0  0  0  0  0  0  0  0
   28.1222  -19.5694   -7.1758 C   0  0  0  0  0  0  0  0  0  0  0  0
   28.1685  -18.3980   -6.4454 O   0  0  0  0  0  0  0  0  0  0  0  0
   29.2167  -20.0712   -7.5415 O   0  0  0  0  0  0  0  0  0  0  0  0
  2  1  1  0
  3  4  2  0
  3  2  1  0
  5  3  1  0
  6  5  1  0
  7  6  1  0
  8  7  1  0
  8  9  1  0
  9  5  1  0
  9 10  1  1
 10 16  1  0
 11 10  2  0
 13 12  1  6
 13 15  1  0
 14 13  1  0
 15 16  1  6
 17 15  1  0
 18 17  1  0
 19 17  2  0
M  END
$$$$
