GPV.pdb
     RDKit          3D

 19 19  0  0  1  0  0  0  0  0999 V2000
   27.7153  -21.4499  -12.4273 N   0  0  0  0  0  0  0  0  0  0  0  0
   28.9279  -20.9927  -11.8470 C   0  0  0  0  0  0  0  0  0  0  0  0
   29.0907  -21.2208  -10.4073 C   0  0  0  0  0  0  0  0  0  0  0  0
   28.1188  -20.9933   -9.6019 O   0  0  0  0  0  0  0  0  0  0  0  0
   30.2961  -21.6956   -9.8004 N   0  0  0  0  0  0  0  0  0  0  0  0
   31.3835  -22.1950  -10.6049 C   0  0  0  0  0  0  0  0  0  0  0  0
   32.3822  -22.7962   -9.6338 C   0  0  0  0  0  0  0  0  0  0  0  0
   32.1281  -21.9965   -8.3901 C   0  0  0  0  0  0  0  0  0  0  0  0
   30.6481  -21.7680   -8.4254 C   0  0  1  0  0  0  0  0  0  0  0  0
   30.2758  -20.5816   -7.6139 C   0  0  0  0  0  0  0  0  0  0  0  0
   30.4060  -19.4491   -8.0835 O   0  0  0  0  0  0  0  0  0  0  0  0
   27.4872  -20.7403   -4.4050 C   0  0  0  0  0  0  0  0  0  0  0  0
   28.0418  -19.5329   -5.1130 C   0  0  2  0  0  0  0  0  0  0  0  0
   27.2375  -19.2330   -6.3579 C   0  0  0  0  0  0  0  0  0  0  0  0
   29.5144  -19.6772   -5.4155 C   0  0  2  0  0  0  0  0  0  0  0  0
   29.7764  -20.7655   -6.3122 N   0  0  0  0  0  0  0  0  0  0  0  0
   30.2308  -19.8374   -4.1221 C   0  0  0  0  0  0  0  0  0  0  0  0
   30.3541  -18.7473   -3.2829 O   0  0  0  0  0  0  0  0  0  0  0  0
   30.7383  -20.9246   -3.7428 O   0  0  0  0  0  0  0  0  0  0  0  0
  2  1  1  0
  3  4  2  0
  3  2  1  0
  5  3  1  0
  6  5  1  0
  7  6  1  0
  8  7  1  0
  8  9  1  0
  9  5  1  0
  9 10  1  1
 10 16  1  0
 11 10  2  0
 13 12  1  6
 13 15  1  0
 14 13  1  0
 15 16  1  6
 17 15  1  0
 18 17  1  0
 19 17  2  0
M  END
$$$$
