GPV.pdb
     RDKit          3D

 19 19  0  0  1  0  0  0  0  0999 V2000
   28.9603  -23.3105  -17.3486 N   0  0  0  0  0  0  0  0  0  0  0  0
   28.1702  -22.1327  -17.2814 C   0  0  0  0  0  0  0  0  0  0  0  0
   28.0012  -21.5335  -15.9534 C   0  0  0  0  0  0  0  0  0  0  0  0
   28.0725  -22.2624  -14.9005 O   0  0  0  0  0  0  0  0  0  0  0  0
   27.7514  -20.1435  -15.7251 N   0  0  0  0  0  0  0  0  0  0  0  0
   27.9267  -19.1764  -16.7802 C   0  0  0  0  0  0  0  0  0  0  0  0
   27.7834  -17.8138  -16.1285 C   0  0  0  0  0  0  0  0  0  0  0  0
   26.8835  -18.1167  -14.9669 C   0  0  0  0  0  0  0  0  0  0  0  0
   27.3208  -19.4848  -14.5417 C   0  0  1  0  0  0  0  0  0  0  0  0
   26.2427  -20.1757  -13.7899 C   0  0  0  0  0  0  0  0  0  0  0  0
   25.4644  -20.9273  -14.3809 O   0  0  0  0  0  0  0  0  0  0  0  0
   26.6364  -20.7122   -9.6234 C   0  0  0  0  0  0  0  0  0  0  0  0
   25.2845  -20.2896  -10.1340 C   0  0  2  0  0  0  0  0  0  0  0  0
   24.1859  -20.9080   -9.2990 C   0  0  0  0  0  0  0  0  0  0  0  0
   25.1119  -20.5909  -11.6037 C   0  0  2  0  0  0  0  0  0  0  0  0
   26.1221  -19.9629  -12.4051 N   0  0  0  0  0  0  0  0  0  0  0  0
   23.7433  -20.1630  -11.9980 C   0  0  0  0  0  0  0  0  0  0  0  0
   22.7046  -21.0693  -11.9104 O   0  0  0  0  0  0  0  0  0  0  0  0
   23.4731  -19.0061  -12.4128 O   0  0  0  0  0  0  0  0  0  0  0  0
  2  1  1  0
  3  4  2  0
  3  2  1  0
  5  3  1  0
  6  5  1  0
  7  6  1  0
  8  7  1  0
  8  9  1  0
  9  5  1  0
  9 10  1  6
 10 16  1  0
 11 10  2  0
 13 12  1  1
 13 15  1  0
 14 13  1  0
 15 16  1  6
 17 15  1  0
 18 17  1  0
 19 17  2  0
M  END
$$$$
