GPV.pdb
     RDKit          3D

 19 19  0  0  1  0  0  0  0  0999 V2000
   24.2179  -19.5586  -16.9456 N   0  0  0  0  0  0  0  0  0  0  0  0
   25.4023  -19.1798  -16.2601 C   0  0  0  0  0  0  0  0  0  0  0  0
   25.6479  -19.8320  -14.9696 C   0  0  0  0  0  0  0  0  0  0  0  0
   24.6686  -20.1213  -14.1936 O   0  0  0  0  0  0  0  0  0  0  0  0
   26.9456  -20.1867  -14.4829 N   0  0  0  0  0  0  0  0  0  0  0  0
   28.1005  -20.1317  -15.3446 C   0  0  0  0  0  0  0  0  0  0  0  0
   29.2360  -20.7686  -14.5657 C   0  0  0  0  0  0  0  0  0  0  0  0
   28.8305  -20.4990  -13.1466 C   0  0  0  0  0  0  0  0  0  0  0  0
   27.3380  -20.6196  -13.1873 C   0  0  1  0  0  0  0  0  0  0  0  0
   26.7160  -19.8821  -12.0587 C   0  0  0  0  0  0  0  0  0  0  0  0
   26.5398  -18.6647  -12.1415 O   0  0  0  0  0  0  0  0  0  0  0  0
   24.7093  -21.9954   -8.8175 C   0  0  0  0  0  0  0  0  0  0  0  0
   24.5113  -20.5750   -9.2758 C   0  0  2  0  0  0  0  0  0  0  0  0
   23.4385  -20.5061  -10.3391 C   0  0  0  0  0  0  0  0  0  0  0  0
   25.8022  -19.9408   -9.7366 C   0  0  2  0  0  0  0  0  0  0  0  0
   26.3333  -20.5853  -10.9027 N   0  0  0  0  0  0  0  0  0  0  0  0
   26.7580  -19.9757   -8.5978 C   0  0  0  0  0  0  0  0  0  0  0  0
   27.8438  -20.8273   -8.6578 O   0  0  0  0  0  0  0  0  0  0  0  0
   26.6326  -19.2637   -7.5678 O   0  0  0  0  0  0  0  0  0  0  0  0
  2  1  1  0
  3  4  2  0
  3  2  1  0
  5  3  1  0
  6  5  1  0
  7  6  1  0
  8  7  1  0
  8  9  1  0
  9  5  1  0
  9 10  1  1
 10 16  1  0
 11 10  2  0
 13 12  1  6
 13 15  1  0
 14 13  1  0
 15 16  1  6
 17 15  1  0
 18 17  1  0
 19 17  2  0
M  END
$$$$
