GPV.pdb
     RDKit          3D

 19 19  0  0  1  0  0  0  0  0999 V2000
   16.2910  -19.0504    1.8199 N   0  0  0  0  0  0  0  0  0  0  0  0
   16.1907  -17.7220    2.3113 C   0  0  0  0  0  0  0  0  0  0  0  0
   17.1372  -17.3413    3.3650 C   0  0  0  0  0  0  0  0  0  0  0  0
   17.7591  -18.2424    4.0329 O   0  0  0  0  0  0  0  0  0  0  0  0
   17.4364  -15.9897    3.7260 N   0  0  0  0  0  0  0  0  0  0  0  0
   16.8872  -14.8848    2.9799 C   0  0  0  0  0  0  0  0  0  0  0  0
   17.5781  -13.6399    3.5041 C   0  0  0  0  0  0  0  0  0  0  0  0
   17.9162  -14.0394    4.9101 C   0  0  0  0  0  0  0  0  0  0  0  0
   18.2472  -15.4947    4.7831 C   0  0  1  0  0  0  0  0  0  0  0  0
   18.0840  -16.1906    6.0846 C   0  0  0  0  0  0  0  0  0  0  0  0
   16.9999  -16.6984    6.3793 O   0  0  0  0  0  0  0  0  0  0  0  0
   21.5428  -17.4223    8.3108 C   0  0  0  0  0  0  0  0  0  0  0  0
   20.1453  -17.9718    8.4192 C   0  0  2  0  0  0  0  0  0  0  0  0
   19.9460  -19.1089    7.4425 C   0  0  0  0  0  0  0  0  0  0  0  0
   19.0971  -16.8973    8.2536 C   0  0  2  0  0  0  0  0  0  0  0  0
   19.1741  -16.2622    6.9699 N   0  0  0  0  0  0  0  0  0  0  0  0
   19.2631  -15.9247    9.3663 C   0  0  0  0  0  0  0  0  0  0  0  0
   18.6287  -16.1655   10.5694 O   0  0  0  0  0  0  0  0  0  0  0  0
   19.9582  -14.8799    9.2735 O   0  0  0  0  0  0  0  0  0  0  0  0
  2  1  1  0
  3  4  2  0
  3  2  1  0
  5  3  1  0
  6  5  1  0
  7  6  1  0
  8  7  1  0
  8  9  1  0
  9  5  1  0
  9 10  1  1
 10 16  1  0
 11 10  2  0
 13 12  1  6
 13 15  1  0
 14 13  1  0
 15 16  1  6
 17 15  1  0
 18 17  1  0
 19 17  2  0
M  END
$$$$
