GPV.pdb
     RDKit          3D

 19 19  0  0  1  0  0  0  0  0999 V2000
   23.7816  -18.3798  -74.0829 N   0  0  0  0  0  0  0  0  0  0  0  0
   22.5371  -18.6851  -74.6947 C   0  0  0  0  0  0  0  0  0  0  0  0
   22.1735  -17.8878  -75.8707 C   0  0  0  0  0  0  0  0  0  0  0  0
   22.8208  -18.0227  -76.9697 O   0  0  0  0  0  0  0  0  0  0  0  0
   21.1114  -16.9296  -75.8945 N   0  0  0  0  0  0  0  0  0  0  0  0
   20.7908  -16.2090  -77.1017 C   0  0  0  0  0  0  0  0  0  0  0  0
   19.7793  -15.1509  -76.7026 C   0  0  0  0  0  0  0  0  0  0  0  0
   19.1152  -15.7858  -75.5166 C   0  0  0  0  0  0  0  0  0  0  0  0
   20.2350  -16.5253  -74.8513 C   0  0  1  0  0  0  0  0  0  0  0  0
   19.7124  -17.6257  -74.0022 C   0  0  0  0  0  0  0  0  0  0  0  0
   20.3466  -17.9924  -73.0106 O   0  0  0  0  0  0  0  0  0  0  0  0
   16.9852  -20.0429  -73.1717 C   0  0  0  0  0  0  0  0  0  0  0  0
   17.6556  -20.5322  -74.4279 C   0  0  2  0  0  0  0  0  0  0  0  0
   18.5378  -21.7232  -74.1280 C   0  0  0  0  0  0  0  0  0  0  0  0
   18.4142  -19.4331  -75.1330 C   0  0  2  0  0  0  0  0  0  0  0  0
   18.4936  -18.2395  -74.3417 N   0  0  0  0  0  0  0  0  0  0  0  0
   17.7509  -19.1899  -76.4416 C   0  0  0  0  0  0  0  0  0  0  0  0
   18.5026  -18.7120  -77.4974 O   0  0  0  0  0  0  0  0  0  0  0  0
   16.5266  -19.3974  -76.6455 O   0  0  0  0  0  0  0  0  0  0  0  0
  2  1  1  0
  3  4  2  0
  3  2  1  0
  5  3  1  0
  6  5  1  0
  7  6  1  0
  8  7  1  0
  8  9  1  0
  9  5  1  0
  9 10  1  6
 10 16  1  0
 11 10  2  0
 13 12  1  1
 13 15  1  0
 14 13  1  0
 15 16  1  1
 17 15  1  0
 18 17  1  0
 19 17  2  0
M  END
$$$$
