GPV.pdb
     RDKit          3D

 19 19  0  0  1  0  0  0  0  0999 V2000
   20.5628  -11.6622  -18.9509 N   0  0  0  0  0  0  0  0  0  0  0  0
   21.6741  -10.9555  -18.4199 C   0  0  0  0  0  0  0  0  0  0  0  0
   21.4043  -10.0751  -17.2783 C   0  0  0  0  0  0  0  0  0  0  0  0
   20.5628   -9.1134  -17.3871 O   0  0  0  0  0  0  0  0  0  0  0  0
   22.0299  -10.2051  -15.9983 N   0  0  0  0  0  0  0  0  0  0  0  0
   22.8190  -11.3676  -15.6740 C   0  0  0  0  0  0  0  0  0  0  0  0
   23.1361  -11.2600  -14.1943 C   0  0  0  0  0  0  0  0  0  0  0  0
   23.1088   -9.7759  -13.9765 C   0  0  0  0  0  0  0  0  0  0  0  0
   22.0152   -9.3150  -14.8904 C   0  0  1  0  0  0  0  0  0  0  0  0
   22.1792   -7.8789  -15.2306 C   0  0  0  0  0  0  0  0  0  0  0  0
   22.8574   -7.5511  -16.2066 O   0  0  0  0  0  0  0  0  0  0  0  0
   19.3161   -5.1016  -13.9064 C   0  0  0  0  0  0  0  0  0  0  0  0
   20.3185   -4.8792  -15.0075 C   0  0  2  0  0  0  0  0  0  0  0  0
   19.7708   -5.3682  -16.3293 C   0  0  0  0  0  0  0  0  0  0  0  0
   21.6590   -5.4983  -14.6900 C   0  0  2  0  0  0  0  0  0  0  0  0
   21.5552   -6.9051  -14.4308 N   0  0  0  0  0  0  0  0  0  0  0  0
   22.2385   -4.7612  -13.5357 C   0  0  0  0  0  0  0  0  0  0  0  0
   22.9167   -3.5799  -13.7649 O   0  0  0  0  0  0  0  0  0  0  0  0
   22.1451   -5.1574  -12.3449 O   0  0  0  0  0  0  0  0  0  0  0  0
  2  1  1  0
  3  4  2  0
  3  2  1  0
  5  3  1  0
  6  5  1  0
  7  6  1  0
  8  7  1  0
  8  9  1  0
  9  5  1  0
  9 10  1  6
 10 16  1  0
 11 10  2  0
 13 12  1  1
 13 15  1  0
 14 13  1  0
 15 16  1  1
 17 15  1  0
 18 17  1  0
 19 17  2  0
M  END
$$$$
