GPV.pdb
     RDKit          3D

 19 19  0  0  1  0  0  0  0  0999 V2000
   23.3598  -20.0524  -15.5921 N   0  0  0  0  0  0  0  0  0  0  0  0
   24.6701  -19.6874  -15.1846 C   0  0  0  0  0  0  0  0  0  0  0  0
   25.1803  -20.3315  -13.9698 C   0  0  0  0  0  0  0  0  0  0  0  0
   24.3685  -20.7538  -13.0711 O   0  0  0  0  0  0  0  0  0  0  0  0
   26.5687  -20.5359  -13.6914 N   0  0  0  0  0  0  0  0  0  0  0  0
   27.5615  -20.3866  -14.7264 C   0  0  0  0  0  0  0  0  0  0  0  0
   28.8665  -20.8798  -14.1303 C   0  0  0  0  0  0  0  0  0  0  0  0
   28.6622  -20.6127  -12.6682 C   0  0  0  0  0  0  0  0  0  0  0  0
   27.2034  -20.8882  -12.4696 C   0  0  1  0  0  0  0  0  0  0  0  0
   26.6910  -20.1867  -11.2654 C   0  0  0  0  0  0  0  0  0  0  0  0
   26.3415  -19.0069  -11.3424 O   0  0  0  0  0  0  0  0  0  0  0  0
   23.8924  -21.1666   -8.8663 C   0  0  0  0  0  0  0  0  0  0  0  0
   25.1705  -21.0510   -8.0791 C   0  0  2  0  0  0  0  0  0  0  0  0
   24.8961  -20.4870   -6.7032 C   0  0  0  0  0  0  0  0  0  0  0  0
   26.2216  -20.2541   -8.8147 C   0  0  2  0  0  0  0  0  0  0  0  0
   26.6102  -20.8806  -10.0450 N   0  0  0  0  0  0  0  0  0  0  0  0
   27.3763  -20.0675   -7.8964 C   0  0  0  0  0  0  0  0  0  0  0  0
   28.4839  -20.8810   -8.0358 O   0  0  0  0  0  0  0  0  0  0  0  0
   27.4029  -19.1986   -6.9866 O   0  0  0  0  0  0  0  0  0  0  0  0
  2  1  1  0
  3  4  2  0
  3  2  1  0
  5  3  1  0
  6  5  1  0
  7  6  1  0
  8  7  1  0
  8  9  1  0
  9  5  1  0
  9 10  1  1
 10 16  1  0
 11 10  2  0
 13 12  1  6
 13 15  1  0
 14 13  1  0
 15 16  1  6
 17 15  1  0
 18 17  1  0
 19 17  2  0
M  END
$$$$
