TEG.pdb
     RDKit          3D

 21 20  0  0  1  0  0  0  0  0999 V2000
   10.0322  -12.6233   20.2563 C   0  0  0  0  0  0  0  0  0  0  0  0
    8.6221  -12.6010   19.7111 C   0  0  1  0  0  0  0  0  0  0  0  0
    8.4674  -11.4503   18.9801 O   0  0  0  0  0  0  0  0  0  0  0  0
    8.2716  -13.8571   18.9679 C   0  0  2  0  0  0  0  0  0  0  0  0
    6.9409  -13.6754   18.3959 N   0  0  0  0  0  0  0  0  0  0  0  0
    8.2814  -15.0675   19.8122 C   0  0  0  0  0  0  0  0  0  0  0  0
    7.2636  -15.4368   20.4885 O   0  0  0  0  0  0  0  0  0  0  0  0
    9.4252  -15.8983   19.9250 N   0  0  0  0  0  0  0  0  0  0  0  0
    9.4417  -17.1183   20.6995 C   0  0  1  0  0  0  0  0  0  0  0  0
    9.9564  -18.2543   19.8410 C   0  0  0  0  0  0  0  0  0  0  0  0
    9.1561  -18.4086   18.5776 C   0  0  0  0  0  0  0  0  0  0  0  0
    9.7596  -19.5002   17.7701 C   0  0  0  0  0  0  0  0  0  0  0  0
   10.7537  -19.2907   17.0233 O   0  0  0  0  0  0  0  0  0  0  0  0
   10.3028  -17.0054   21.9025 C   0  0  0  0  0  0  0  0  0  0  0  0
   10.3451  -17.9362   22.7477 O   0  0  0  0  0  0  0  0  0  0  0  0
    9.2328  -20.8044   17.8192 O   0  0  0  0  0  0  0  0  0  0  0  0
   11.1184  -15.8692   22.1775 N   0  0  0  0  0  0  0  0  0  0  0  0
   11.9439  -15.7968   23.3514 C   0  0  0  0  0  0  0  0  0  0  0  0
   13.3429  -16.2101   23.0853 C   0  0  0  0  0  0  0  0  0  0  0  0
   13.6089  -16.6464   21.9356 O   0  0  0  0  0  0  0  0  0  0  0  0
   14.3607  -16.1464   24.0113 O   0  0  0  0  0  0  0  0  0  0  0  0
  2  1  1  6
  3  2  1  0
  4  5  1  1
  4  2  1  0
  6  4  1  0
  6  7  2  0
  8  6  1  0
  9  8  1  0
  9 14  1  0
  9 10  1  6
 11 10  1  0
 12 11  1  0
 13 12  2  0
 14 17  1  0
 15 14  2  0
 16 12  1  0
 17 18  1  0
 19 21  1  0
 19 18  1  0
 20 19  2  0
M  END
$$$$
