TEG.pdb
     RDKit          3D

 21 20  0  0  1  0  0  0  0  0999 V2000
    9.9981  -19.5986   16.6137 C   0  0  0  0  0  0  0  0  0  0  0  0
    8.8919  -18.7578   16.0175 C   0  0  1  0  0  0  0  0  0  0  0  0
    9.0806  -18.7086   14.6594 O   0  0  0  0  0  0  0  0  0  0  0  0
    7.5268  -19.2213   16.4353 C   0  0  2  0  0  0  0  0  0  0  0  0
    6.5475  -18.4768   15.6493 N   0  0  0  0  0  0  0  0  0  0  0  0
    7.2500  -19.0298   17.8722 C   0  0  0  0  0  0  0  0  0  0  0  0
    7.1269  -17.8721   18.3957 O   0  0  0  0  0  0  0  0  0  0  0  0
    7.1030  -20.1231   18.7635 N   0  0  0  0  0  0  0  0  0  0  0  0
    6.9411  -19.9622   20.1905 C   0  0  1  0  0  0  0  0  0  0  0  0
    6.2340  -21.1748   20.7582 C   0  0  0  0  0  0  0  0  0  0  0  0
    7.0357  -22.4319   20.5653 C   0  0  0  0  0  0  0  0  0  0  0  0
    6.2757  -23.5675   21.1491 C   0  0  0  0  0  0  0  0  0  0  0  0
    6.8374  -24.4222   21.8865 O   0  0  0  0  0  0  0  0  0  0  0  0
    8.2417  -19.8028   20.8864 C   0  0  0  0  0  0  0  0  0  0  0  0
    8.2825  -19.6149   22.1297 O   0  0  0  0  0  0  0  0  0  0  0  0
    4.9002  -23.7182   20.8917 O   0  0  0  0  0  0  0  0  0  0  0  0
    9.4989  -19.8499   20.2164 N   0  0  0  0  0  0  0  0  0  0  0  0
   10.7388  -19.6733   20.9209 C   0  0  0  0  0  0  0  0  0  0  0  0
   11.3982  -20.9633   21.2372 C   0  0  0  0  0  0  0  0  0  0  0  0
   10.8740  -22.0097   20.7757 O   0  0  0  0  0  0  0  0  0  0  0  0
   12.5396  -21.0856   21.9986 O   0  0  0  0  0  0  0  0  0  0  0  0
  2  1  1  1
  3  2  1  0
  4  5  1  6
  4  2  1  0
  6  4  1  0
  6  7  2  0
  8  6  1  0
  9  8  1  0
  9 14  1  0
  9 10  1  1
 11 10  1  0
 12 11  1  0
 13 12  2  0
 14 17  1  0
 15 14  2  0
 16 12  1  0
 17 18  1  0
 19 21  1  0
 19 18  1  0
 20 19  2  0
M  END
$$$$
