TEG.pdb
     RDKit          3D

 21 20  0  0  1  0  0  0  0  0999 V2000
    8.3073  -12.4518   20.7050 C   0  0  0  0  0  0  0  0  0  0  0  0
    8.0167  -12.9110   19.2941 C   0  0  1  0  0  0  0  0  0  0  0  0
    8.0301  -11.8087   18.4772 O   0  0  0  0  0  0  0  0  0  0  0  0
    8.9256  -14.0200   18.8503 C   0  0  2  0  0  0  0  0  0  0  0  0
    8.5663  -14.3635   17.4778 N   0  0  0  0  0  0  0  0  0  0  0  0
    8.8439  -15.2272   19.6954 C   0  0  0  0  0  0  0  0  0  0  0  0
    8.2925  -16.3061   19.2935 O   0  0  0  0  0  0  0  0  0  0  0  0
    9.3745  -15.2641   21.0100 N   0  0  0  0  0  0  0  0  0  0  0  0
    9.4379  -16.4710   21.8023 C   0  0  1  0  0  0  0  0  0  0  0  0
   10.3465  -17.4737   21.1229 C   0  0  0  0  0  0  0  0  0  0  0  0
   11.6873  -16.8798   20.7913 C   0  0  0  0  0  0  0  0  0  0  0  0
   12.5323  -17.9394   20.1821 C   0  0  0  0  0  0  0  0  0  0  0  0
   12.9448  -17.8469   18.9942 O   0  0  0  0  0  0  0  0  0  0  0  0
    9.9526  -16.2156   23.1702 C   0  0  0  0  0  0  0  0  0  0  0  0
   10.9307  -15.4455   23.3516 O   0  0  0  0  0  0  0  0  0  0  0  0
   12.8957  -19.0806   20.9213 O   0  0  0  0  0  0  0  0  0  0  0  0
    9.3926  -16.8065   24.3403 N   0  0  0  0  0  0  0  0  0  0  0  0
    9.8292  -16.4358   25.6582 C   0  0  0  0  0  0  0  0  0  0  0  0
   10.9831  -17.2445   26.1200 C   0  0  0  0  0  0  0  0  0  0  0  0
   11.3240  -17.1309   27.3257 O   0  0  0  0  0  0  0  0  0  0  0  0
   11.6989  -18.1052   25.3172 O   0  0  0  0  0  0  0  0  0  0  0  0
  2  1  1  1
  3  2  1  0
  4  5  1  6
  4  2  1  0
  6  4  1  0
  6  7  2  0
  8  6  1  0
  9  8  1  0
  9 14  1  0
  9 10  1  6
 11 10  1  0
 12 11  1  0
 13 12  2  0
 14 17  1  0
 15 14  2  0
 16 12  1  0
 17 18  1  0
 19 21  1  0
 19 18  1  0
 20 19  2  0
M  END
$$$$
