TEG.pdb
     RDKit          3D

 21 20  0  0  1  0  0  0  0  0999 V2000
    8.9387  -15.2627   16.9095 C   0  0  0  0  0  0  0  0  0  0  0  0
    8.0929  -14.0539   17.2405 C   0  0  1  0  0  0  0  0  0  0  0  0
    6.9416  -14.1245   16.4975 O   0  0  0  0  0  0  0  0  0  0  0  0
    7.8673  -13.8949   18.7159 C   0  0  2  0  0  0  0  0  0  0  0  0
    6.8975  -12.8197   18.9014 N   0  0  0  0  0  0  0  0  0  0  0  0
    9.0953  -13.5836   19.4730 C   0  0  0  0  0  0  0  0  0  0  0  0
    9.5866  -12.4064   19.5233 O   0  0  0  0  0  0  0  0  0  0  0  0
    9.8079  -14.5754   20.1938 N   0  0  0  0  0  0  0  0  0  0  0  0
   11.1359  -14.3651   20.7236 C   0  0  1  0  0  0  0  0  0  0  0  0
   11.1825  -14.8240   22.1658 C   0  0  0  0  0  0  0  0  0  0  0  0
   10.3381  -16.0471   22.3919 C   0  0  0  0  0  0  0  0  0  0  0  0
   10.4213  -16.4158   23.8290 C   0  0  0  0  0  0  0  0  0  0  0  0
   11.0014  -15.6706   24.6644 O   0  0  0  0  0  0  0  0  0  0  0  0
   12.1677  -15.1059   19.9569 C   0  0  0  0  0  0  0  0  0  0  0  0
   12.4557  -16.2936   20.2552 O   0  0  0  0  0  0  0  0  0  0  0  0
    9.8506  -17.6144   24.2964 O   0  0  0  0  0  0  0  0  0  0  0  0
   12.8841  -14.5418   18.8612 N   0  0  0  0  0  0  0  0  0  0  0  0
   14.1287  -13.8483   19.0478 C   0  0  0  0  0  0  0  0  0  0  0  0
   15.2688  -14.7757   19.2449 C   0  0  0  0  0  0  0  0  0  0  0  0
   16.1369  -14.8272   18.3356 O   0  0  0  0  0  0  0  0  0  0  0  0
   15.4349  -15.5774   20.3526 O   0  0  0  0  0  0  0  0  0  0  0  0
  2  1  1  1
  3  2  1  0
  4  5  1  6
  4  2  1  0
  6  4  1  0
  6  7  2  0
  8  6  1  0
  9  8  1  0
  9 14  1  0
  9 10  1  1
 11 10  1  0
 12 11  1  0
 13 12  2  0
 14 17  1  0
 15 14  2  0
 16 12  1  0
 17 18  1  0
 19 21  1  0
 19 18  1  0
 20 19  2  0
M  END
$$$$
