TEG.pdb
     RDKit          3D

 21 20  0  0  1  0  0  0  0  0999 V2000
    7.4319  -12.1677   19.1738 C   0  0  0  0  0  0  0  0  0  0  0  0
    8.5551  -13.1341   19.4747 C   0  0  1  0  0  0  0  0  0  0  0  0
    8.0991  -14.0417   20.3972 O   0  0  0  0  0  0  0  0  0  0  0  0
    9.1324  -13.7510   18.2341 C   0  0  2  0  0  0  0  0  0  0  0  0
    8.0695  -14.5099   17.5821 N   0  0  0  0  0  0  0  0  0  0  0  0
   10.2814  -14.6402   18.4940 C   0  0  0  0  0  0  0  0  0  0  0  0
   10.1568  -15.9071   18.5886 O   0  0  0  0  0  0  0  0  0  0  0  0
   11.5990  -14.1412   18.6550 N   0  0  0  0  0  0  0  0  0  0  0  0
   12.7164  -14.9724   19.0413 C   0  0  1  0  0  0  0  0  0  0  0  0
   14.0041  -14.3500   18.5441 C   0  0  0  0  0  0  0  0  0  0  0  0
   15.1881  -15.2445   18.7854 C   0  0  0  0  0  0  0  0  0  0  0  0
   16.3971  -14.5828   18.2300 C   0  0  0  0  0  0  0  0  0  0  0  0
   16.9371  -14.9903   17.1659 O   0  0  0  0  0  0  0  0  0  0  0  0
   12.8074  -15.1386   20.5128 C   0  0  0  0  0  0  0  0  0  0  0  0
   12.6698  -14.1491   21.2774 O   0  0  0  0  0  0  0  0  0  0  0  0
   16.9735  -13.4770   18.8826 O   0  0  0  0  0  0  0  0  0  0  0  0
   13.0496  -16.3928   21.1453 N   0  0  0  0  0  0  0  0  0  0  0  0
   12.9704  -16.5486   22.5716 C   0  0  0  0  0  0  0  0  0  0  0  0
   13.4635  -17.8717   23.0242 C   0  0  0  0  0  0  0  0  0  0  0  0
   13.5787  -18.0535   24.2638 O   0  0  0  0  0  0  0  0  0  0  0  0
   13.8005  -18.9055   22.1785 O   0  0  0  0  0  0  0  0  0  0  0  0
  2  1  1  6
  3  2  1  0
  4  5  1  1
  4  2  1  0
  6  4  1  0
  6  7  2  0
  8  6  1  0
  9  8  1  0
  9 14  1  0
  9 10  1  1
 11 10  1  0
 12 11  1  0
 13 12  2  0
 14 17  1  0
 15 14  2  0
 16 12  1  0
 17 18  1  0
 19 21  1  0
 19 18  1  0
 20 19  2  0
M  END
$$$$
