TEG.pdb
     RDKit          3D

 21 20  0  0  1  0  0  0  0  0999 V2000
    0.5401  -23.4439   21.2437 C   0  0  0  0  0  0  0  0  0  0  0  0
    1.1250  -23.2274   22.6211 C   0  0  1  0  0  0  0  0  0  0  0  0
    0.8195  -21.9495   23.0163 O   0  0  0  0  0  0  0  0  0  0  0  0
    0.7120  -24.2912   23.5962 C   0  0  2  0  0  0  0  0  0  0  0  0
   -0.7441  -24.2587   23.6953 N   0  0  0  0  0  0  0  0  0  0  0  0
    1.2988  -24.1235   24.9399 C   0  0  0  0  0  0  0  0  0  0  0  0
    0.6126  -23.7252   25.9400 O   0  0  0  0  0  0  0  0  0  0  0  0
    2.6652  -24.3951   25.2046 N   0  0  0  0  0  0  0  0  0  0  0  0
    3.2882  -24.1376   26.4830 C   0  0  1  0  0  0  0  0  0  0  0  0
    3.8086  -25.4364   27.0617 C   0  0  0  0  0  0  0  0  0  0  0  0
    3.0069  -25.8794   28.2538 C   0  0  0  0  0  0  0  0  0  0  0  0
    3.9484  -26.2267   29.3497 C   0  0  0  0  0  0  0  0  0  0  0  0
    4.6292  -27.2875   29.3177 O   0  0  0  0  0  0  0  0  0  0  0  0
    4.4175  -23.1817   26.3724 C   0  0  0  0  0  0  0  0  0  0  0  0
    5.0366  -22.8022   27.3997 O   0  0  0  0  0  0  0  0  0  0  0  0
    4.1046  -25.3741   30.4586 O   0  0  0  0  0  0  0  0  0  0  0  0
    4.8675  -22.6420   25.1322 N   0  0  0  0  0  0  0  0  0  0  0  0
    5.9679  -21.7204   25.0630 C   0  0  0  0  0  0  0  0  0  0  0  0
    7.2499  -22.3933   24.7429 C   0  0  0  0  0  0  0  0  0  0  0  0
    7.2326  -23.6458   24.6254 O   0  0  0  0  0  0  0  0  0  0  0  0
    8.4485  -21.7374   24.5678 O   0  0  0  0  0  0  0  0  0  0  0  0
  2  1  1  6
  3  2  1  0
  4  5  1  1
  4  2  1  0
  6  4  1  0
  6  7  2  0
  8  6  1  0
  9  8  1  0
  9 14  1  0
  9 10  1  6
 11 10  1  0
 12 11  1  0
 13 12  2  0
 14 17  1  0
 15 14  2  0
 16 12  1  0
 17 18  1  0
 19 21  1  0
 19 18  1  0
 20 19  2  0
M  END
$$$$
