TEG.pdb
     RDKit          3D

 21 20  0  0  1  0  0  0  0  0999 V2000
    8.6364  -12.9629   21.3618 C   0  0  0  0  0  0  0  0  0  0  0  0
    7.8191  -13.6374   20.2833 C   0  0  1  0  0  0  0  0  0  0  0  0
    7.5815  -12.7181   19.2928 O   0  0  0  0  0  0  0  0  0  0  0  0
    8.4416  -14.9160   19.8032 C   0  0  2  0  0  0  0  0  0  0  0  0
    7.6132  -15.4302   18.7167 N   0  0  0  0  0  0  0  0  0  0  0  0
    8.5668  -15.9451   20.8537 C   0  0  0  0  0  0  0  0  0  0  0  0
    8.1060  -17.1270   20.7103 O   0  0  0  0  0  0  0  0  0  0  0  0
    9.2086  -15.6846   22.0911 N   0  0  0  0  0  0  0  0  0  0  0  0
   10.0509  -16.6484   22.7621 C   0  0  1  0  0  0  0  0  0  0  0  0
   11.2282  -16.9941   21.8749 C   0  0  0  0  0  0  0  0  0  0  0  0
   12.0887  -18.0684   22.4795 C   0  0  0  0  0  0  0  0  0  0  0  0
   13.5079  -17.7713   22.1545 C   0  0  0  0  0  0  0  0  0  0  0  0
   14.2012  -17.0090   22.8811 O   0  0  0  0  0  0  0  0  0  0  0  0
   10.5664  -16.1360   24.0556 C   0  0  0  0  0  0  0  0  0  0  0  0
   10.8913  -14.9271   24.1802 O   0  0  0  0  0  0  0  0  0  0  0  0
   14.1177  -18.3376   21.0194 O   0  0  0  0  0  0  0  0  0  0  0  0
   10.7252  -16.9521   25.2134 N   0  0  0  0  0  0  0  0  0  0  0  0
    9.8736  -16.8096   26.3620 C   0  0  0  0  0  0  0  0  0  0  0  0
   10.2036  -17.7791   27.4344 C   0  0  0  0  0  0  0  0  0  0  0  0
   11.0227  -18.6927   27.1567 O   0  0  0  0  0  0  0  0  0  0  0  0
    9.6733  -17.7414   28.7052 O   0  0  0  0  0  0  0  0  0  0  0  0
  2  1  1  1
  3  2  1  0
  4  5  1  6
  4  2  1  0
  6  4  1  0
  6  7  2  0
  8  6  1  0
  9  8  1  0
  9 14  1  0
  9 10  1  6
 11 10  1  0
 12 11  1  0
 13 12  2  0
 14 17  1  0
 15 14  2  0
 16 12  1  0
 17 18  1  0
 19 21  1  0
 19 18  1  0
 20 19  2  0
M  END
$$$$
