AEF.pdb
     RDKit          3D

 26 26  0  0  1  0  0  0  0  0999 V2000
    8.1263  -12.2207   20.2041 C   0  0  0  0  0  0  0  0  0  0  0  0
    7.9998  -13.5880   19.5753 C   0  0  2  0  0  0  0  0  0  0  0  0
    6.7506  -13.7243   18.8617 N   0  0  0  0  0  0  0  0  0  0  0  0
    8.0286  -14.6151   20.6492 C   0  0  0  0  0  0  0  0  0  0  0  0
    6.9622  -14.9510   21.2254 O   0  0  0  0  0  0  0  0  0  0  0  0
    9.2596  -15.2372   21.0461 N   0  0  0  0  0  0  0  0  0  0  0  0
    9.1810  -16.3444   21.9740 C   0  0  1  0  0  0  0  0  0  0  0  0
   10.0839  -17.4926   21.5906 C   0  0  0  0  0  0  0  0  0  0  0  0
    9.6728  -18.1056   20.2716 C   0  0  0  0  0  0  0  0  0  0  0  0
   10.5708  -19.2309   19.9276 C   0  0  0  0  0  0  0  0  0  0  0  0
   11.5469  -19.5970   20.6380 O   0  0  0  0  0  0  0  0  0  0  0  0
    9.4643  -15.8849   23.3692 C   0  0  0  0  0  0  0  0  0  0  0  0
   10.4987  -15.1926   23.5656 O   0  0  0  0  0  0  0  0  0  0  0  0
   10.3443  -19.9394   18.7590 O   0  0  0  0  0  0  0  0  0  0  0  0
    8.5760  -16.2338   24.4190 N   0  0  0  0  0  0  0  0  0  0  0  0
    8.8697  -15.8653   25.8075 C   0  0  1  0  0  0  0  0  0  0  0  0
    7.5726  -15.4326   26.4136 C   0  0  0  0  0  0  0  0  0  0  0  0
    7.2953  -14.0006   26.3722 C   0  0  0  0  0  0  0  0  0  0  0  0
    8.2777  -13.0607   26.6559 C   0  0  0  0  0  0  0  0  0  0  0  0
    7.9539  -11.7236   26.6023 C   0  0  0  0  0  0  0  0  0  0  0  0
    6.6849  -11.2954   26.2757 C   0  0  0  0  0  0  0  0  0  0  0  0
    5.6985  -12.2452   25.9906 C   0  0  0  0  0  0  0  0  0  0  0  0
    6.0115  -13.5859   26.0412 C   0  0  0  0  0  0  0  0  0  0  0  0
    9.4799  -17.0245   26.4571 C   0  0  0  0  0  0  0  0  0  0  0  0
    9.4507  -18.2514   25.8195 O   0  0  0  0  0  0  0  0  0  0  0  0
   10.0299  -16.9446   27.5754 O   0  0  0  0  0  0  0  0  0  0  0  0
  2  4  1  0
  2  1  1  1
  3  2  1  0
  4  5  2  0
  6  7  1  0
  6  4  1  0
  7  8  1  6
  8  9  1  0
  9 10  1  0
 10 14  1  0
 11 10  2  0
 12 13  2  0
 12  7  1  0
 15 12  1  0
 16 24  1  0
 16 15  1  0
 16 17  1  1
 18 23  2  0
 18 17  1  0
 19 18  1  0
 20 21  1  0
 20 19  2  0
 21 22  2  0
 22 23  1  0
 24 25  1  0
 26 24  2  0
M  END
$$$$
