AEF.pdb
     RDKit          3D

 26 26  0  0  1  0  0  0  0  0999 V2000
    8.1952  -12.3870   20.4931 C   0  0  0  0  0  0  0  0  0  0  0  0
    8.1286  -13.7491   19.8440 C   0  0  2  0  0  0  0  0  0  0  0  0
    6.8261  -13.9929   19.2676 N   0  0  0  0  0  0  0  0  0  0  0  0
    8.3732  -14.7870   20.8793 C   0  0  0  0  0  0  0  0  0  0  0  0
    7.4049  -15.2916   21.5035 O   0  0  0  0  0  0  0  0  0  0  0  0
    9.7041  -15.2294   21.1843 N   0  0  0  0  0  0  0  0  0  0  0  0
    9.8454  -16.3648   22.0697 C   0  0  1  0  0  0  0  0  0  0  0  0
   11.0254  -17.2381   21.7156 C   0  0  0  0  0  0  0  0  0  0  0  0
   10.8640  -17.8614   20.3481 C   0  0  0  0  0  0  0  0  0  0  0  0
   12.1048  -18.5678   19.9574 C   0  0  0  0  0  0  0  0  0  0  0  0
   12.3540  -19.7696   20.2490 O   0  0  0  0  0  0  0  0  0  0  0  0
    9.9213  -15.9165   23.4949 C   0  0  0  0  0  0  0  0  0  0  0  0
   10.8799  -15.1705   23.8303 O   0  0  0  0  0  0  0  0  0  0  0  0
   13.0648  -17.8872   19.2265 O   0  0  0  0  0  0  0  0  0  0  0  0
    8.9286  -16.3349   24.4182 N   0  0  0  0  0  0  0  0  0  0  0  0
    8.9995  -15.9429   25.8293 C   0  0  1  0  0  0  0  0  0  0  0  0
    7.6042  -15.5982   26.2431 C   0  0  0  0  0  0  0  0  0  0  0  0
    7.2554  -14.1822   26.1938 C   0  0  0  0  0  0  0  0  0  0  0  0
    5.9883  -13.7577   25.8152 C   0  0  0  0  0  0  0  0  0  0  0  0
    5.7206  -12.4076   25.7860 C   0  0  0  0  0  0  0  0  0  0  0  0
    6.6739  -11.4699   26.1213 C   0  0  0  0  0  0  0  0  0  0  0  0
    7.9487  -11.9017   26.5020 C   0  0  0  0  0  0  0  0  0  0  0  0
    8.2275  -13.2504   26.5348 C   0  0  0  0  0  0  0  0  0  0  0  0
    9.5895  -17.0555   26.5722 C   0  0  0  0  0  0  0  0  0  0  0  0
   10.1140  -16.8267   27.8313 O   0  0  0  0  0  0  0  0  0  0  0  0
    9.6369  -18.2130   26.1059 O   0  0  0  0  0  0  0  0  0  0  0  0
  2  4  1  0
  2  1  1  1
  3  2  1  0
  4  5  2  0
  6  7  1  0
  6  4  1  0
  7  8  1  6
  8  9  1  0
  9 10  1  0
 10 14  1  0
 11 10  2  0
 12 13  2  0
 12  7  1  0
 15 12  1  0
 16 24  1  0
 16 15  1  0
 16 17  1  1
 18 23  2  0
 18 17  1  0
 19 18  1  0
 20 21  1  0
 20 19  2  0
 21 22  2  0
 22 23  1  0
 24 25  1  0
 26 24  2  0
M  END
$$$$
