AEF.pdb
     RDKit          3D

 26 26  0  0  1  0  0  0  0  0999 V2000
   10.4700  -20.7610   21.3237 C   0  0  0  0  0  0  0  0  0  0  0  0
    9.8558  -19.9107   20.2371 C   0  0  2  0  0  0  0  0  0  0  0  0
   10.6904  -19.8823   19.0578 N   0  0  0  0  0  0  0  0  0  0  0  0
    9.7203  -18.5174   20.7364 C   0  0  0  0  0  0  0  0  0  0  0  0
   10.7349  -17.7786   20.8189 O   0  0  0  0  0  0  0  0  0  0  0  0
    8.4437  -17.9927   21.1302 N   0  0  0  0  0  0  0  0  0  0  0  0
    8.3977  -16.6237   21.5957 C   0  0  1  0  0  0  0  0  0  0  0  0
    7.0868  -15.9437   21.2804 C   0  0  0  0  0  0  0  0  0  0  0  0
    7.1481  -14.4606   21.5658 C   0  0  0  0  0  0  0  0  0  0  0  0
    7.6576  -13.7318   20.3824 C   0  0  0  0  0  0  0  0  0  0  0  0
    8.0158  -14.2911   19.3099 O   0  0  0  0  0  0  0  0  0  0  0  0
    8.6972  -16.5538   23.0597 C   0  0  0  0  0  0  0  0  0  0  0  0
    8.3258  -17.5142   23.7862 O   0  0  0  0  0  0  0  0  0  0  0  0
    7.7556  -12.3510   20.4334 O   0  0  0  0  0  0  0  0  0  0  0  0
    9.3807  -15.4271   23.5853 N   0  0  0  0  0  0  0  0  0  0  0  0
    9.8357  -15.4049   24.9789 C   0  0  1  0  0  0  0  0  0  0  0  0
    9.7722  -13.9778   25.4220 C   0  0  0  0  0  0  0  0  0  0  0  0
    8.4501  -13.4825   25.7907 C   0  0  0  0  0  0  0  0  0  0  0  0
    7.3806  -13.5349   24.9061 C   0  0  0  0  0  0  0  0  0  0  0  0
    6.1579  -13.0495   25.3117 C   0  0  0  0  0  0  0  0  0  0  0  0
    5.9683  -12.5147   26.5682 C   0  0  0  0  0  0  0  0  0  0  0  0
    7.0480  -12.4639   27.4560 C   0  0  0  0  0  0  0  0  0  0  0  0
    8.2761  -12.9469   27.0605 C   0  0  0  0  0  0  0  0  0  0  0  0
    8.9783  -16.3103   25.7425 C   0  0  0  0  0  0  0  0  0  0  0  0
    7.9648  -16.9917   25.0935 O   0  0  0  0  0  0  0  0  0  0  0  0
    9.1303  -16.4907   26.9689 O   0  0  0  0  0  0  0  0  0  0  0  0
  2  4  1  0
  2  1  1  1
  3  2  1  0
  4  5  2  0
  6  7  1  0
  6  4  1  0
  7  8  1  1
  8  9  1  0
  9 10  1  0
 10 14  1  0
 11 10  2  0
 12 13  2  0
 12  7  1  0
 15 12  1  0
 16 24  1  0
 16 15  1  0
 16 17  1  1
 18 23  2  0
 18 17  1  0
 19 18  1  0
 20 21  1  0
 20 19  2  0
 21 22  2  0
 22 23  1  0
 24 25  1  0
 26 24  2  0
M  END
$$$$
