AEF.pdb
     RDKit          3D

 26 26  0  0  1  0  0  0  0  0999 V2000
    7.6378  -13.0981   21.3266 C   0  0  0  0  0  0  0  0  0  0  0  0
    7.6018  -14.5541   20.9271 C   0  0  2  0  0  0  0  0  0  0  0  0
    6.2469  -15.0036   20.7028 N   0  0  0  0  0  0  0  0  0  0  0  0
    8.1785  -15.3687   22.0284 C   0  0  0  0  0  0  0  0  0  0  0  0
    7.4394  -15.7778   22.9602 O   0  0  0  0  0  0  0  0  0  0  0  0
    9.5746  -15.7012   22.0507 N   0  0  0  0  0  0  0  0  0  0  0  0
   10.0155  -16.6729   23.0277 C   0  0  1  0  0  0  0  0  0  0  0  0
   11.2978  -17.3627   22.6273 C   0  0  0  0  0  0  0  0  0  0  0  0
   11.1206  -18.1742   21.3645 C   0  0  0  0  0  0  0  0  0  0  0  0
   12.4139  -18.7604   20.9464 C   0  0  0  0  0  0  0  0  0  0  0  0
   12.9533  -19.7525   21.5088 O   0  0  0  0  0  0  0  0  0  0  0  0
   10.1475  -16.0416   24.3775 C   0  0  0  0  0  0  0  0  0  0  0  0
   10.9276  -15.0593   24.4976 O   0  0  0  0  0  0  0  0  0  0  0  0
   13.0908  -18.2017   19.8747 O   0  0  0  0  0  0  0  0  0  0  0  0
    9.4034  -16.5557   25.4706 N   0  0  0  0  0  0  0  0  0  0  0  0
    9.5710  -16.0070   26.8200 C   0  0  1  0  0  0  0  0  0  0  0  0
    8.2167  -15.5524   27.2629 C   0  0  0  0  0  0  0  0  0  0  0  0
    7.7317  -14.3137   26.6630 C   0  0  0  0  0  0  0  0  0  0  0  0
    6.6533  -14.3027   25.7878 C   0  0  0  0  0  0  0  0  0  0  0  0
    6.2439  -13.1022   25.2523 C   0  0  0  0  0  0  0  0  0  0  0  0
    6.8741  -11.9157   25.5612 C   0  0  0  0  0  0  0  0  0  0  0  0
    7.9597  -11.9313   26.4431 C   0  0  0  0  0  0  0  0  0  0  0  0
    8.3779  -13.1269   26.9848 C   0  0  0  0  0  0  0  0  0  0  0  0
   10.1577  -17.0526   27.6569 C   0  0  0  0  0  0  0  0  0  0  0  0
   10.2619  -18.3390   27.1600 O   0  0  0  0  0  0  0  0  0  0  0  0
   10.5706  -16.8228   28.8129 O   0  0  0  0  0  0  0  0  0  0  0  0
  2  4  1  0
  2  1  1  1
  3  2  1  0
  4  5  2  0
  6  7  1  0
  6  4  1  0
  7  8  1  6
  8  9  1  0
  9 10  1  0
 10 14  1  0
 11 10  2  0
 12 13  2  0
 12  7  1  0
 15 12  1  0
 16 24  1  0
 16 15  1  0
 16 17  1  1
 18 23  2  0
 18 17  1  0
 19 18  1  0
 20 21  1  0
 20 19  2  0
 21 22  2  0
 22 23  1  0
 24 25  1  0
 26 24  2  0
M  END
$$$$
