AEF.pdb
     RDKit          3D

 26 26  0  0  1  0  0  0  0  0999 V2000
    8.4052  -12.5485   19.1221 C   0  0  0  0  0  0  0  0  0  0  0  0
    8.2143  -13.9907   18.7166 C   0  0  2  0  0  0  0  0  0  0  0  0
    6.8542  -14.2432   18.2991 N   0  0  0  0  0  0  0  0  0  0  0  0
    8.5037  -14.8608   19.8863 C   0  0  0  0  0  0  0  0  0  0  0  0
    7.5975  -15.1116   20.7216 O   0  0  0  0  0  0  0  0  0  0  0  0
    9.8081  -15.4259   20.0842 N   0  0  0  0  0  0  0  0  0  0  0  0
    9.9688  -16.3770   21.1624 C   0  0  1  0  0  0  0  0  0  0  0  0
   11.1479  -17.2980   20.9577 C   0  0  0  0  0  0  0  0  0  0  0  0
   10.9531  -18.1898   19.7530 C   0  0  0  0  0  0  0  0  0  0  0  0
   12.1557  -19.0245   19.5336 C   0  0  0  0  0  0  0  0  0  0  0  0
   12.1462  -20.1288   18.9237 O   0  0  0  0  0  0  0  0  0  0  0  0
   10.0639  -15.6719   22.4783 C   0  0  0  0  0  0  0  0  0  0  0  0
   10.7635  -14.6256   22.5398 O   0  0  0  0  0  0  0  0  0  0  0  0
   13.3768  -18.5859   20.0187 O   0  0  0  0  0  0  0  0  0  0  0  0
    9.3755  -16.1896   23.6057 N   0  0  0  0  0  0  0  0  0  0  0  0
    9.1426  -15.3602   24.7921 C   0  0  1  0  0  0  0  0  0  0  0  0
    8.0443  -14.4098   24.4349 C   0  0  0  0  0  0  0  0  0  0  0  0
    7.6161  -13.5023   25.4943 C   0  0  0  0  0  0  0  0  0  0  0  0
    8.5285  -12.7393   26.2116 C   0  0  0  0  0  0  0  0  0  0  0  0
    8.0632  -11.9029   27.2011 C   0  0  0  0  0  0  0  0  0  0  0  0
    6.7205  -11.8035   27.4973 C   0  0  0  0  0  0  0  0  0  0  0  0
    5.8050  -12.5736   26.7724 C   0  0  0  0  0  0  0  0  0  0  0  0
    6.2597  -13.4140   25.7800 C   0  0  0  0  0  0  0  0  0  0  0  0
    8.8263  -16.2534   25.9057 C   0  0  0  0  0  0  0  0  0  0  0  0
    8.5901  -17.5926   25.6538 O   0  0  0  0  0  0  0  0  0  0  0  0
    8.7614  -15.8461   27.0845 O   0  0  0  0  0  0  0  0  0  0  0  0
  2  4  1  0
  2  1  1  1
  3  2  1  0
  4  5  2  0
  6  7  1  0
  6  4  1  0
  7  8  1  6
  8  9  1  0
  9 10  1  0
 10 14  1  0
 11 10  2  0
 12 13  2  0
 12  7  1  0
 15 12  1  0
 16 24  1  0
 16 15  1  0
 16 17  1  6
 18 23  2  0
 18 17  1  0
 19 18  1  0
 20 21  1  0
 20 19  2  0
 21 22  2  0
 22 23  1  0
 24 25  1  0
 26 24  2  0
M  END
$$$$
