AEF.pdb
     RDKit          3D

 26 26  0  0  1  0  0  0  0  0999 V2000
    7.0024  -18.2514   18.3617 C   0  0  0  0  0  0  0  0  0  0  0  0
    7.7588  -17.0786   18.9392 C   0  0  2  0  0  0  0  0  0  0  0  0
    8.8855  -16.7201   18.1085 N   0  0  0  0  0  0  0  0  0  0  0  0
    8.2791  -17.4555   20.2794 C   0  0  0  0  0  0  0  0  0  0  0  0
    7.4853  -17.8434   21.1747 O   0  0  0  0  0  0  0  0  0  0  0  0
    9.6816  -17.3853   20.5759 N   0  0  0  0  0  0  0  0  0  0  0  0
   10.1018  -17.7449   21.9128 C   0  0  1  0  0  0  0  0  0  0  0  0
   11.4919  -18.3335   21.9493 C   0  0  0  0  0  0  0  0  0  0  0  0
   11.8401  -19.0160   20.6465 C   0  0  0  0  0  0  0  0  0  0  0  0
   13.2958  -18.9253   20.3935 C   0  0  0  0  0  0  0  0  0  0  0  0
   13.9463  -17.8444   20.3969 O   0  0  0  0  0  0  0  0  0  0  0  0
    9.9944  -16.5707   22.8335 C   0  0  0  0  0  0  0  0  0  0  0  0
   10.7347  -15.5754   22.6119 O   0  0  0  0  0  0  0  0  0  0  0  0
   14.0075  -20.0853   20.1352 O   0  0  0  0  0  0  0  0  0  0  0  0
    9.0770  -16.6061   23.9152 N   0  0  0  0  0  0  0  0  0  0  0  0
    8.9929  -15.4947   24.8679 C   0  0  1  0  0  0  0  0  0  0  0  0
    7.8080  -14.6776   24.4611 C   0  0  0  0  0  0  0  0  0  0  0  0
    7.4121  -13.6224   25.3879 C   0  0  0  0  0  0  0  0  0  0  0  0
    8.2549  -12.5582   25.6817 C   0  0  0  0  0  0  0  0  0  0  0  0
    7.8254  -11.5946   26.5663 C   0  0  0  0  0  0  0  0  0  0  0  0
    6.5855  -11.6585   27.1655 C   0  0  0  0  0  0  0  0  0  0  0  0
    5.7399  -12.7319   26.8667 C   0  0  0  0  0  0  0  0  0  0  0  0
    6.1595  -13.7018   25.9830 C   0  0  0  0  0  0  0  0  0  0  0  0
    8.8976  -16.0648   26.2110 C   0  0  0  0  0  0  0  0  0  0  0  0
    8.1971  -17.2424   26.3988 O   0  0  0  0  0  0  0  0  0  0  0  0
    9.4303  -15.5214   27.2012 O   0  0  0  0  0  0  0  0  0  0  0  0
  2  4  1  0
  2  1  1  6
  3  2  1  0
  4  5  2  0
  6  7  1  0
  6  4  1  0
  7  8  1  6
  8  9  1  0
  9 10  1  0
 10 14  1  0
 11 10  2  0
 12 13  2  0
 12  7  1  0
 15 12  1  0
 16 24  1  0
 16 15  1  0
 16 17  1  6
 18 23  2  0
 18 17  1  0
 19 18  1  0
 20 21  1  0
 20 19  2  0
 21 22  2  0
 22 23  1  0
 24 25  1  0
 26 24  2  0
M  END
$$$$
