AEF.pdb
     RDKit          3D

 26 26  0  0  1  0  0  0  0  0999 V2000
    7.9734  -12.4154   20.5363 C   0  0  0  0  0  0  0  0  0  0  0  0
    7.9005  -13.7928   19.9211 C   0  0  2  0  0  0  0  0  0  0  0  0
    6.6360  -14.0037   19.2543 N   0  0  0  0  0  0  0  0  0  0  0  0
    8.0249  -14.8078   20.9997 C   0  0  0  0  0  0  0  0  0  0  0  0
    6.9920  -15.2714   21.5476 O   0  0  0  0  0  0  0  0  0  0  0  0
    9.3113  -15.2740   21.4330 N   0  0  0  0  0  0  0  0  0  0  0  0
    9.3451  -16.4180   22.3180 C   0  0  1  0  0  0  0  0  0  0  0  0
   10.4237  -17.4088   21.9504 C   0  0  0  0  0  0  0  0  0  0  0  0
   10.1942  -17.9946   20.5760 C   0  0  0  0  0  0  0  0  0  0  0  0
   11.2663  -18.9602   20.2451 C   0  0  0  0  0  0  0  0  0  0  0  0
   11.1302  -20.2130   20.3042 O   0  0  0  0  0  0  0  0  0  0  0  0
    9.4849  -15.9799   23.7416 C   0  0  0  0  0  0  0  0  0  0  0  0
   10.3811  -15.1378   24.0162 O   0  0  0  0  0  0  0  0  0  0  0  0
   12.5026  -18.4814   19.8435 O   0  0  0  0  0  0  0  0  0  0  0  0
    8.6192  -16.5142   24.7306 N   0  0  0  0  0  0  0  0  0  0  0  0
    8.7971  -16.1799   26.1471 C   0  0  1  0  0  0  0  0  0  0  0  0
    7.4735  -15.6813   26.6334 C   0  0  0  0  0  0  0  0  0  0  0  0
    7.2162  -14.2585   26.4365 C   0  0  0  0  0  0  0  0  0  0  0  0
    8.1346  -13.2922   26.8264 C   0  0  0  0  0  0  0  0  0  0  0  0
    7.8334  -11.9655   26.6161 C   0  0  0  0  0  0  0  0  0  0  0  0
    6.6485  -11.5727   26.0310 C   0  0  0  0  0  0  0  0  0  0  0  0
    5.7264  -12.5490   25.6399 C   0  0  0  0  0  0  0  0  0  0  0  0
    6.0175  -13.8797   25.8455 C   0  0  0  0  0  0  0  0  0  0  0  0
    9.2761  -17.3798   26.8318 C   0  0  0  0  0  0  0  0  0  0  0  0
    9.7637  -17.2743   28.1217 O   0  0  0  0  0  0  0  0  0  0  0  0
    9.2603  -18.5041   26.2886 O   0  0  0  0  0  0  0  0  0  0  0  0
  2  4  1  0
  2  1  1  1
  3  2  1  0
  4  5  2  0
  6  7  1  0
  6  4  1  0
  7  8  1  6
  8  9  1  0
  9 10  1  0
 10 14  1  0
 11 10  2  0
 12 13  2  0
 12  7  1  0
 15 12  1  0
 16 24  1  0
 16 15  1  0
 16 17  1  1
 18 23  2  0
 18 17  1  0
 19 18  1  0
 20 21  1  0
 20 19  2  0
 21 22  2  0
 22 23  1  0
 24 25  1  0
 26 24  2  0
M  END
$$$$
