AEF.pdb
     RDKit          3D

 26 26  0  0  1  0  0  0  0  0999 V2000
    8.0774  -12.2822   20.3583 C   0  0  0  0  0  0  0  0  0  0  0  0
    8.1082  -13.6387   19.6950 C   0  0  2  0  0  0  0  0  0  0  0  0
    6.9141  -13.8686   18.9144 N   0  0  0  0  0  0  0  0  0  0  0  0
    8.1770  -14.6863   20.7469 C   0  0  0  0  0  0  0  0  0  0  0  0
    7.1173  -15.1597   21.2318 O   0  0  0  0  0  0  0  0  0  0  0  0
    9.4394  -15.1735   21.2256 N   0  0  0  0  0  0  0  0  0  0  0  0
    9.4225  -16.3130   22.1167 C   0  0  1  0  0  0  0  0  0  0  0  0
   10.4410  -17.3629   21.7412 C   0  0  0  0  0  0  0  0  0  0  0  0
   10.1472  -17.9612   20.3846 C   0  0  0  0  0  0  0  0  0  0  0  0
   11.1472  -19.0020   20.0562 C   0  0  0  0  0  0  0  0  0  0  0  0
   11.7198  -19.1016   18.9365 O   0  0  0  0  0  0  0  0  0  0  0  0
    9.6043  -15.8760   23.5358 C   0  0  0  0  0  0  0  0  0  0  0  0
   10.5183  -15.0457   23.7868 O   0  0  0  0  0  0  0  0  0  0  0  0
   11.4905  -19.9338   21.0219 O   0  0  0  0  0  0  0  0  0  0  0  0
    8.7570  -16.3981   24.5470 N   0  0  0  0  0  0  0  0  0  0  0  0
    8.9038  -15.9772   25.9439 C   0  0  1  0  0  0  0  0  0  0  0  0
    7.5378  -15.5912   26.4151 C   0  0  0  0  0  0  0  0  0  0  0  0
    7.1988  -14.1766   26.2987 C   0  0  0  0  0  0  0  0  0  0  0  0
    6.0052  -13.7594   25.7240 C   0  0  0  0  0  0  0  0  0  0  0  0
    5.7433  -12.4104   25.6407 C   0  0  0  0  0  0  0  0  0  0  0  0
    6.6315  -11.4669   26.1109 C   0  0  0  0  0  0  0  0  0  0  0  0
    7.8324  -11.8914   26.6890 C   0  0  0  0  0  0  0  0  0  0  0  0
    8.1048  -13.2389   26.7775 C   0  0  0  0  0  0  0  0  0  0  0  0
    9.5037  -17.0868   26.6833 C   0  0  0  0  0  0  0  0  0  0  0  0
   10.0244  -16.8577   27.9439 O   0  0  0  0  0  0  0  0  0  0  0  0
    9.5628  -18.2421   26.2128 O   0  0  0  0  0  0  0  0  0  0  0  0
  2  4  1  0
  2  1  1  1
  3  2  1  0
  4  5  2  0
  6  7  1  0
  6  4  1  0
  7  8  1  6
  8  9  1  0
  9 10  1  0
 10 14  1  0
 11 10  2  0
 12 13  2  0
 12  7  1  0
 15 12  1  0
 16 24  1  0
 16 15  1  0
 16 17  1  1
 18 23  2  0
 18 17  1  0
 19 18  1  0
 20 21  1  0
 20 19  2  0
 21 22  2  0
 22 23  1  0
 24 25  1  0
 26 24  2  0
M  END
$$$$
