AEF.pdb
     RDKit          3D

 26 26  0  0  1  0  0  0  0  0999 V2000
    7.5082  -13.2262   18.7315 C   0  0  0  0  0  0  0  0  0  0  0  0
    8.5716  -14.1096   19.3397 C   0  0  2  0  0  0  0  0  0  0  0  0
    8.8267  -15.2681   18.5146 N   0  0  0  0  0  0  0  0  0  0  0  0
    8.0992  -14.5864   20.6658 C   0  0  0  0  0  0  0  0  0  0  0  0
    7.8929  -13.7615   21.5926 O   0  0  0  0  0  0  0  0  0  0  0  0
    7.8716  -15.9818   20.9129 N   0  0  0  0  0  0  0  0  0  0  0  0
    7.4870  -16.3700   22.2525 C   0  0  1  0  0  0  0  0  0  0  0  0
    6.9534  -17.7811   22.3207 C   0  0  0  0  0  0  0  0  0  0  0  0
    6.6525  -18.1925   23.7437 C   0  0  0  0  0  0  0  0  0  0  0  0
    6.2052  -19.6030   23.7856 C   0  0  0  0  0  0  0  0  0  0  0  0
    6.0753  -20.3323   22.7645 O   0  0  0  0  0  0  0  0  0  0  0  0
    8.6263  -16.1832   23.2038 C   0  0  0  0  0  0  0  0  0  0  0  0
    9.7749  -16.5414   22.8290 O   0  0  0  0  0  0  0  0  0  0  0  0
    5.9057  -20.1777   25.0099 O   0  0  0  0  0  0  0  0  0  0  0  0
    8.3896  -15.6167   24.4828 N   0  0  0  0  0  0  0  0  0  0  0  0
    9.4866  -15.4267   25.4370 C   0  0  1  0  0  0  0  0  0  0  0  0
    9.4974  -13.9721   25.7849 C   0  0  0  0  0  0  0  0  0  0  0  0
    8.2489  -13.4335   26.3146 C   0  0  0  0  0  0  0  0  0  0  0  0
    8.0318  -13.3092   27.6808 C   0  0  0  0  0  0  0  0  0  0  0  0
    6.8320  -12.7959   28.1193 C   0  0  0  0  0  0  0  0  0  0  0  0
    5.8445  -12.4037   27.2410 C   0  0  0  0  0  0  0  0  0  0  0  0
    6.0673  -12.5305   25.8659 C   0  0  0  0  0  0  0  0  0  0  0  0
    7.2643  -13.0429   25.4160 C   0  0  0  0  0  0  0  0  0  0  0  0
    9.2479  -16.3151   26.5736 C   0  0  0  0  0  0  0  0  0  0  0  0
   10.1648  -16.3522   27.6084 O   0  0  0  0  0  0  0  0  0  0  0  0
    8.2382  -17.0466   26.6427 O   0  0  0  0  0  0  0  0  0  0  0  0
  2  4  1  0
  2  1  1  6
  3  2  1  0
  4  5  2  0
  6  7  1  0
  6  4  1  0
  7  8  1  6
  8  9  1  0
  9 10  1  0
 10 14  1  0
 11 10  2  0
 12 13  2  0
 12  7  1  0
 15 12  1  0
 16 24  1  0
 16 15  1  0
 16 17  1  1
 18 23  2  0
 18 17  1  0
 19 18  1  0
 20 21  1  0
 20 19  2  0
 21 22  2  0
 22 23  1  0
 24 25  1  0
 26 24  2  0
M  END
$$$$
