LNE.pdb
     RDKit          3D

 26 25  0  0  1  0  0  0  0  0999 V2000
   19.8038  -29.0504  -13.3341 C   0  0  0  0  0  0  0  0  0  0  0  0
   20.5102  -28.9846  -12.0167 C   0  0  1  0  0  0  0  0  0  0  0  0
   19.7495  -27.9696  -11.1520 C   0  0  0  0  0  0  0  0  0  0  0  0
   20.5254  -30.2744  -11.2624 C   0  0  0  0  0  0  0  0  0  0  0  0
   21.4861  -30.1813  -10.1005 C   0  0  2  0  0  0  0  0  0  0  0  0
   22.5068  -29.2208  -10.4704 N   0  0  0  0  0  0  0  0  0  0  0  0
   22.1656  -31.4676   -9.8339 C   0  0  0  0  0  0  0  0  0  0  0  0
   21.9299  -32.4733  -10.5443 O   0  0  0  0  0  0  0  0  0  0  0  0
   24.9003  -35.4659   -8.4568 N   0  0  0  0  0  0  0  0  0  0  0  0
   25.1879  -34.6081   -9.5429 C   0  0  0  0  0  0  0  0  0  0  0  0
   25.9770  -35.0521  -10.4147 O   0  0  0  0  0  0  0  0  0  0  0  0
   24.6083  -33.2667   -9.6677 C   0  0  0  0  0  0  0  0  0  0  0  0
   23.7749  -32.8530   -8.4755 C   0  0  2  0  0  0  0  0  0  0  0  0
   23.1152  -31.6005   -8.7530 N   0  0  0  0  0  0  0  0  0  0  0  0
   24.5852  -32.8197   -7.2541 C   0  0  0  0  0  0  0  0  0  0  0  0
   25.3243  -31.8283   -7.0354 O   0  0  0  0  0  0  0  0  0  0  0  0
   24.5657  -33.8665   -6.3089 N   0  0  0  0  0  0  0  0  0  0  0  0
   25.1102  -33.7485   -4.9553 C   0  0  1  0  0  0  0  0  0  0  0  0
   24.0864  -34.1678   -3.9424 C   0  0  0  0  0  0  0  0  0  0  0  0
   24.5843  -34.1297   -2.5238 C   0  0  0  0  0  0  0  0  0  0  0  0
   23.4617  -34.5234   -1.5828 C   0  0  0  0  0  0  0  0  0  0  0  0
   22.3066  -34.7360   -1.9783 O   0  0  0  0  0  0  0  0  0  0  0  0
   26.2801  -34.6278   -4.8819 C   0  0  0  0  0  0  0  0  0  0  0  0
   26.4295  -35.5970   -5.6520 O   0  0  0  0  0  0  0  0  0  0  0  0
   23.8012  -34.6334   -0.2446 O   0  0  0  0  0  0  0  0  0  0  0  0
   27.2837  -34.4110   -3.9356 O   0  0  0  0  0  0  0  0  0  0  0  0
  2  1  1  6
  3  2  1  0
  4  5  1  0
  4  2  1  0
  5  6  1  6
  7  5  1  0
  7  8  2  0
  9 10  1  0
 10 11  2  0
 12 10  1  0
 13 12  1  6
 13 14  1  0
 14  7  1  0
 15 17  1  0
 15 13  1  0
 16 15  2  0
 18 17  1  0
 18 19  1  1
 19 20  1  0
 20 21  1  0
 21 22  2  0
 23 18  1  0
 24 23  2  0
 25 21  1  0
 26 23  1  0
M  END
$$$$
