LNE.pdb
     RDKit          3D

 26 25  0  0  1  0  0  0  0  0999 V2000
   22.9636  -15.1604  -18.0753 C   0  0  0  0  0  0  0  0  0  0  0  0
   23.6458  -14.3824  -16.9945 C   0  0  1  0  0  0  0  0  0  0  0  0
   23.9095  -15.3587  -15.8396 C   0  0  0  0  0  0  0  0  0  0  0  0
   24.9677  -13.8092  -17.3907 C   0  0  0  0  0  0  0  0  0  0  0  0
   25.1657  -12.4649  -16.7308 C   0  0  2  0  0  0  0  0  0  0  0  0
   25.0874  -12.6796  -15.2994 N   0  0  0  0  0  0  0  0  0  0  0  0
   24.1013  -11.5038  -17.0924 C   0  0  0  0  0  0  0  0  0  0  0  0
   23.9338  -11.1556  -18.2850 O   0  0  0  0  0  0  0  0  0  0  0  0
   18.8057   -9.9722  -14.8115 N   0  0  0  0  0  0  0  0  0  0  0  0
   20.2020  -10.1568  -14.9324 C   0  0  0  0  0  0  0  0  0  0  0  0
   20.8916   -9.9045  -13.9122 O   0  0  0  0  0  0  0  0  0  0  0  0
   20.8356  -10.6175  -16.1722 C   0  0  0  0  0  0  0  0  0  0  0  0
   22.1920   -9.9989  -16.4260 C   0  0  2  0  0  0  0  0  0  0  0  0
   23.2293  -10.9421  -16.0864 N   0  0  0  0  0  0  0  0  0  0  0  0
   22.3251   -8.7183  -15.7246 C   0  0  0  0  0  0  0  0  0  0  0  0
   22.8172   -8.7001  -14.5694 O   0  0  0  0  0  0  0  0  0  0  0  0
   21.9185   -7.4975  -16.3024 N   0  0  0  0  0  0  0  0  0  0  0  0
   22.1124   -6.1936  -15.6662 C   0  0  1  0  0  0  0  0  0  0  0  0
   21.7801   -5.0898  -16.6260 C   0  0  0  0  0  0  0  0  0  0  0  0
   21.9097   -3.7125  -16.0362 C   0  0  0  0  0  0  0  0  0  0  0  0
   21.4854   -2.6803  -17.0635 C   0  0  0  0  0  0  0  0  0  0  0  0
   21.2161   -2.9804  -18.2354 O   0  0  0  0  0  0  0  0  0  0  0  0
   21.2161   -6.1400  -14.5081 C   0  0  0  0  0  0  0  0  0  0  0  0
   20.1005   -6.6970  -14.5078 O   0  0  0  0  0  0  0  0  0  0  0  0
   21.4147   -1.3715  -16.6161 O   0  0  0  0  0  0  0  0  0  0  0  0
   21.5818   -5.4553  -13.3475 O   0  0  0  0  0  0  0  0  0  0  0  0
  2  1  1  6
  3  2  1  0
  4  5  1  0
  4  2  1  0
  5  6  1  1
  7  5  1  0
  7  8  2  0
  9 10  1  0
 10 11  2  0
 12 10  1  0
 13 12  1  1
 13 14  1  0
 14  7  1  0
 15 17  1  0
 15 13  1  0
 16 15  2  0
 18 17  1  0
 18 19  1  6
 19 20  1  0
 20 21  1  0
 21 22  2  0
 23 18  1  0
 24 23  2  0
 25 21  1  0
 26 23  1  0
M  END
$$$$
