LNE.pdb
     RDKit          3D

 26 25  0  0  1  0  0  0  0  0999 V2000
   29.0089  -20.3621  -10.3495 C   0  0  0  0  0  0  0  0  0  0  0  0
   28.1900  -20.4194  -11.6004 C   0  0  1  0  0  0  0  0  0  0  0  0
   28.9056  -21.3810  -12.5595 C   0  0  0  0  0  0  0  0  0  0  0  0
   26.8062  -20.9485  -11.4053 C   0  0  0  0  0  0  0  0  0  0  0  0
   25.9921  -20.7393  -12.6604 C   0  0  2  0  0  0  0  0  0  0  0  0
   26.5556  -19.5925  -13.3449 N   0  0  0  0  0  0  0  0  0  0  0  0
   24.5780  -20.4250  -12.3622 C   0  0  0  0  0  0  0  0  0  0  0  0
   24.2836  -19.5621  -11.5017 O   0  0  0  0  0  0  0  0  0  0  0  0
   19.5858  -18.4551  -13.4773 N   0  0  0  0  0  0  0  0  0  0  0  0
   20.0738  -19.7601  -13.7160 C   0  0  0  0  0  0  0  0  0  0  0  0
   19.2178  -20.6796  -13.7608 O   0  0  0  0  0  0  0  0  0  0  0  0
   21.4989  -20.0507  -13.9045 C   0  0  0  0  0  0  0  0  0  0  0  0
   22.1189  -20.8147  -12.7561 C   0  0  2  0  0  0  0  0  0  0  0  0
   23.5019  -21.1001  -13.0508 N   0  0  0  0  0  0  0  0  0  0  0  0
   21.3373  -22.0142  -12.4401 C   0  0  0  0  0  0  0  0  0  0  0  0
   21.4070  -23.0099  -13.2021 O   0  0  0  0  0  0  0  0  0  0  0  0
   20.5042  -22.0925  -11.3046 N   0  0  0  0  0  0  0  0  0  0  0  0
   19.7518  -23.2910  -10.9306 C   0  0  1  0  0  0  0  0  0  0  0  0
   19.3949  -23.2501   -9.4743 C   0  0  0  0  0  0  0  0  0  0  0  0
   18.6893  -24.4855   -8.9868 C   0  0  0  0  0  0  0  0  0  0  0  0
   18.5185  -24.4099   -7.4815 C   0  0  0  0  0  0  0  0  0  0  0  0
   17.8696  -23.5093   -6.9305 O   0  0  0  0  0  0  0  0  0  0  0  0
   18.5347  -23.3096  -11.7466 C   0  0  0  0  0  0  0  0  0  0  0  0
   17.8560  -22.2829  -11.9468 O   0  0  0  0  0  0  0  0  0  0  0  0
   19.1333  -25.4120   -6.7494 O   0  0  0  0  0  0  0  0  0  0  0  0
   18.0838  -24.4915  -12.3376 O   0  0  0  0  0  0  0  0  0  0  0  0
  2  1  1  1
  3  2  1  0
  4  5  1  0
  4  2  1  0
  5  6  1  1
  7  5  1  0
  7  8  2  0
  9 10  1  0
 10 11  2  0
 12 10  1  0
 13 12  1  6
 13 14  1  0
 14  7  1  0
 15 17  1  0
 15 13  1  0
 16 15  2  0
 18 17  1  0
 18 19  1  1
 19 20  1  0
 20 21  1  0
 21 22  2  0
 23 18  1  0
 24 23  2  0
 25 21  1  0
 26 23  1  0
M  END
$$$$
