LNE.pdb
     RDKit          3D

 26 25  0  0  1  0  0  0  0  0999 V2000
   19.4150  -14.6881  -15.4756 C   0  0  0  0  0  0  0  0  0  0  0  0
   18.8105  -13.4298  -16.0144 C   0  0  1  0  0  0  0  0  0  0  0  0
   17.2870  -13.5838  -15.9057 C   0  0  0  0  0  0  0  0  0  0  0  0
   19.1789  -12.1968  -15.2548 C   0  0  0  0  0  0  0  0  0  0  0  0
   18.4560  -11.0016  -15.8296 C   0  0  2  0  0  0  0  0  0  0  0  0
   18.8424  -10.9022  -17.2232 N   0  0  0  0  0  0  0  0  0  0  0  0
   18.8532   -9.7389  -15.1698 C   0  0  0  0  0  0  0  0  0  0  0  0
   18.5771   -9.5344  -13.9641 O   0  0  0  0  0  0  0  0  0  0  0  0
   21.2786   -5.1862  -14.1611 N   0  0  0  0  0  0  0  0  0  0  0  0
   22.0836   -6.2525  -14.6229 C   0  0  0  0  0  0  0  0  0  0  0  0
   23.3204   -6.1489  -14.4233 O   0  0  0  0  0  0  0  0  0  0  0  0
   21.5282   -7.4279  -15.3018 C   0  0  0  0  0  0  0  0  0  0  0  0
   20.0191   -7.5052  -15.2429 C   0  0  2  0  0  0  0  0  0  0  0  0
   19.5670   -8.7113  -15.8925 N   0  0  0  0  0  0  0  0  0  0  0  0
   19.4088   -6.2907  -15.7927 C   0  0  0  0  0  0  0  0  0  0  0  0
   19.3111   -6.1635  -17.0381 O   0  0  0  0  0  0  0  0  0  0  0  0
   18.9240   -5.2528  -14.9697 N   0  0  0  0  0  0  0  0  0  0  0  0
   18.1476   -4.1167  -15.4684 C   0  0  1  0  0  0  0  0  0  0  0  0
   16.7749   -4.1166  -14.8636 C   0  0  0  0  0  0  0  0  0  0  0  0
   15.9488   -2.9152  -15.2320 C   0  0  0  0  0  0  0  0  0  0  0  0
   14.5775   -3.0290  -14.5936 C   0  0  0  0  0  0  0  0  0  0  0  0
   14.2497   -3.9957  -13.8908 O   0  0  0  0  0  0  0  0  0  0  0  0
   18.8669   -2.8993  -15.0838 C   0  0  0  0  0  0  0  0  0  0  0  0
   19.5551   -2.8368  -14.0459 O   0  0  0  0  0  0  0  0  0  0  0  0
   13.7035   -1.9837  -14.8413 O   0  0  0  0  0  0  0  0  0  0  0  0
   18.8082   -1.7498  -15.8742 O   0  0  0  0  0  0  0  0  0  0  0  0
  2  1  1  1
  3  2  1  0
  4  5  1  0
  4  2  1  0
  5  6  1  6
  7  5  1  0
  7  8  2  0
  9 10  1  0
 10 11  2  0
 12 10  1  0
 13 12  1  6
 13 14  1  0
 14  7  1  0
 15 17  1  0
 15 13  1  0
 16 15  2  0
 18 17  1  0
 18 19  1  1
 19 20  1  0
 20 21  1  0
 21 22  2  0
 23 18  1  0
 24 23  2  0
 25 21  1  0
 26 23  1  0
M  END
$$$$
