LNE.pdb
     RDKit          3D

 26 25  0  0  1  0  0  0  0  0999 V2000
   18.1515  -14.6948  -17.7291 C   0  0  0  0  0  0  0  0  0  0  0  0
   17.8220  -13.8852  -16.5147 C   0  0  1  0  0  0  0  0  0  0  0  0
   18.8817  -14.2178  -15.4549 C   0  0  0  0  0  0  0  0  0  0  0  0
   17.8701  -12.4073  -16.7297 C   0  0  0  0  0  0  0  0  0  0  0  0
   17.5507  -11.6877  -15.4406 C   0  0  2  0  0  0  0  0  0  0  0  0
   16.2817  -12.2057  -14.9690 N   0  0  0  0  0  0  0  0  0  0  0  0
   17.3867  -10.2314  -15.6403 C   0  0  0  0  0  0  0  0  0  0  0  0
   18.3214   -9.5428  -16.1133 O   0  0  0  0  0  0  0  0  0  0  0  0
   12.2456   -8.8140  -16.1549 N   0  0  0  0  0  0  0  0  0  0  0  0
   13.5725   -8.4177  -16.4387 C   0  0  0  0  0  0  0  0  0  0  0  0
   13.9666   -8.5831  -17.6208 O   0  0  0  0  0  0  0  0  0  0  0  0
   14.4612   -7.8417  -15.4242 C   0  0  0  0  0  0  0  0  0  0  0  0
   15.9200   -8.1813  -15.6330 C   0  0  2  0  0  0  0  0  0  0  0  0
   16.1511   -9.5653  -15.2978 N   0  0  0  0  0  0  0  0  0  0  0  0
   16.7857   -7.2569  -14.8943 C   0  0  0  0  0  0  0  0  0  0  0  0
   17.1145   -7.5349  -13.7147 O   0  0  0  0  0  0  0  0  0  0  0  0
   17.2665   -6.0589  -15.4627 N   0  0  0  0  0  0  0  0  0  0  0  0
   18.2909   -5.2188  -14.8404 C   0  0  1  0  0  0  0  0  0  0  0  0
   19.5858   -5.9682  -14.7322 C   0  0  0  0  0  0  0  0  0  0  0  0
   20.7288   -5.1353  -14.2210 C   0  0  0  0  0  0  0  0  0  0  0  0
   21.9675   -6.0012  -14.0915 C   0  0  0  0  0  0  0  0  0  0  0  0
   22.9121   -5.9341  -14.8909 O   0  0  0  0  0  0  0  0  0  0  0  0
   18.4614   -4.0405  -15.6948 C   0  0  0  0  0  0  0  0  0  0  0  0
   18.0328   -4.0036  -16.8652 O   0  0  0  0  0  0  0  0  0  0  0  0
   21.9854   -6.8794  -13.0207 O   0  0  0  0  0  0  0  0  0  0  0  0
   19.1179   -2.9012  -15.2252 O   0  0  0  0  0  0  0  0  0  0  0  0
  2  1  1  6
  3  2  1  0
  4  5  1  0
  4  2  1  0
  5  6  1  6
  7  5  1  0
  7  8  2  0
  9 10  1  0
 10 11  2  0
 12 10  1  0
 13 12  1  1
 13 14  1  0
 14  7  1  0
 15 17  1  0
 15 13  1  0
 16 15  2  0
 18 17  1  0
 18 19  1  6
 19 20  1  0
 20 21  1  0
 21 22  2  0
 23 18  1  0
 24 23  2  0
 25 21  1  0
 26 23  1  0
M  END
$$$$
