LNE.pdb
     RDKit          3D

 26 25  0  0  1  0  0  0  0  0999 V2000
   27.5932  -12.7068  -15.5755 C   0  0  0  0  0  0  0  0  0  0  0  0
   26.2601  -13.2098  -16.0323 C   0  0  1  0  0  0  0  0  0  0  0  0
   25.7523  -14.1746  -14.9516 C   0  0  0  0  0  0  0  0  0  0  0  0
   25.2224  -12.1460  -16.1886 C   0  0  0  0  0  0  0  0  0  0  0  0
   23.9306  -12.7538  -16.6818 C   0  0  2  0  0  0  0  0  0  0  0  0
   24.2008  -13.3221  -17.9877 N   0  0  0  0  0  0  0  0  0  0  0  0
   22.8667  -11.7407  -16.8524 C   0  0  0  0  0  0  0  0  0  0  0  0
   22.9354  -10.8915  -17.7721 O   0  0  0  0  0  0  0  0  0  0  0  0
   17.0472  -10.4299  -15.3321 N   0  0  0  0  0  0  0  0  0  0  0  0
   18.2262  -10.3861  -16.1108 C   0  0  0  0  0  0  0  0  0  0  0  0
   18.2834   -9.4918  -16.9922 O   0  0  0  0  0  0  0  0  0  0  0  0
   19.3374  -11.3238  -15.9189 C   0  0  0  0  0  0  0  0  0  0  0  0
   20.7002  -10.6941  -16.1003 C   0  0  2  0  0  0  0  0  0  0  0  0
   21.7242  -11.7017  -15.9685 N   0  0  0  0  0  0  0  0  0  0  0  0
   20.8828   -9.5634  -15.1850 C   0  0  0  0  0  0  0  0  0  0  0  0
   21.1084   -9.7881  -13.9703 O   0  0  0  0  0  0  0  0  0  0  0  0
   20.8142   -8.2236  -15.6205 N   0  0  0  0  0  0  0  0  0  0  0  0
   20.9515   -7.0716  -14.7279 C   0  0  1  0  0  0  0  0  0  0  0  0
   21.7760   -6.0015  -15.3797 C   0  0  0  0  0  0  0  0  0  0  0  0
   21.9742   -4.7811  -14.5235 C   0  0  0  0  0  0  0  0  0  0  0  0
   22.7976   -3.7584  -15.2830 C   0  0  0  0  0  0  0  0  0  0  0  0
   22.5515   -2.5445  -15.2429 O   0  0  0  0  0  0  0  0  0  0  0  0
   19.6012   -6.5713  -14.4568 C   0  0  0  0  0  0  0  0  0  0  0  0
   18.6694   -6.7033  -15.2749 O   0  0  0  0  0  0  0  0  0  0  0  0
   23.8497   -4.2601  -16.0311 O   0  0  0  0  0  0  0  0  0  0  0  0
   19.3032   -5.9203  -13.2581 O   0  0  0  0  0  0  0  0  0  0  0  0
  2  1  1  1
  3  2  1  0
  4  5  1  0
  4  2  1  0
  5  6  1  6
  7  5  1  0
  7  8  2  0
  9 10  1  0
 10 11  2  0
 12 10  1  0
 13 12  1  1
 13 14  1  0
 14  7  1  0
 15 17  1  0
 15 13  1  0
 16 15  2  0
 18 17  1  0
 18 19  1  6
 19 20  1  0
 20 21  1  0
 21 22  2  0
 23 18  1  0
 24 23  2  0
 25 21  1  0
 26 23  1  0
M  END
$$$$
