LNE.pdb
     RDKit          3D

 26 25  0  0  1  0  0  0  0  0999 V2000
   14.6142   -5.6436   -6.6642 C   0  0  0  0  0  0  0  0  0  0  0  0
   14.1874   -6.4057   -7.8791 C   0  0  1  0  0  0  0  0  0  0  0  0
   13.0238   -5.6273   -8.5089 C   0  0  0  0  0  0  0  0  0  0  0  0
   15.2444   -6.5329   -8.9276 C   0  0  0  0  0  0  0  0  0  0  0  0
   14.7876   -7.4850  -10.0077 C   0  0  2  0  0  0  0  0  0  0  0  0
   14.7931   -8.8148   -9.4307 N   0  0  0  0  0  0  0  0  0  0  0  0
   15.7100   -7.5012  -11.1637 C   0  0  0  0  0  0  0  0  0  0  0  0
   16.5023   -8.4576  -11.3349 O   0  0  0  0  0  0  0  0  0  0  0  0
   14.8019   -7.2253  -16.2458 N   0  0  0  0  0  0  0  0  0  0  0  0
   14.7089   -6.5370  -15.0146 C   0  0  0  0  0  0  0  0  0  0  0  0
   13.6077   -6.6101  -14.4128 O   0  0  0  0  0  0  0  0  0  0  0  0
   15.8245   -5.7712  -14.4491 C   0  0  0  0  0  0  0  0  0  0  0  0
   16.5330   -6.4790  -13.3160 C   0  0  2  0  0  0  0  0  0  0  0  0
   15.7238   -6.4208  -12.1231 N   0  0  0  0  0  0  0  0  0  0  0  0
   17.8834   -5.9417  -13.1233 C   0  0  0  0  0  0  0  0  0  0  0  0
   18.0425   -4.9281  -12.3993 O   0  0  0  0  0  0  0  0  0  0  0  0
   19.0185   -6.5244  -13.7246 N   0  0  0  0  0  0  0  0  0  0  0  0
   20.3739   -5.9886  -13.5900 C   0  0  1  0  0  0  0  0  0  0  0  0
   21.3299   -6.7656  -14.4458 C   0  0  0  0  0  0  0  0  0  0  0  0
   22.7383   -6.2392  -14.4153 C   0  0  0  0  0  0  0  0  0  0  0  0
   23.5865   -7.0053  -15.4124 C   0  0  0  0  0  0  0  0  0  0  0  0
   23.2753   -8.1328  -15.8221 O   0  0  0  0  0  0  0  0  0  0  0  0
   20.3312   -4.5901  -14.0255 C   0  0  0  0  0  0  0  0  0  0  0  0
   19.6793   -4.2274  -15.0246 O   0  0  0  0  0  0  0  0  0  0  0  0
   24.7389   -6.3700  -15.8442 O   0  0  0  0  0  0  0  0  0  0  0  0
   21.0270   -3.5993  -13.3301 O   0  0  0  0  0  0  0  0  0  0  0  0
  2  1  1  1
  3  2  1  0
  4  5  1  0
  4  2  1  0
  5  6  1  1
  7  5  1  0
  7  8  2  0
  9 10  1  0
 10 11  2  0
 12 10  1  0
 13 12  1  6
 13 14  1  0
 14  7  1  0
 15 17  1  0
 15 13  1  0
 16 15  2  0
 18 17  1  0
 18 19  1  6
 19 20  1  0
 20 21  1  0
 21 22  2  0
 23 18  1  0
 24 23  2  0
 25 21  1  0
 26 23  1  0
M  END
$$$$
