DPA.pdb
     RDKit          3D

 21 21  0  0  1  0  0  0  0  0999 V2000
    9.3744  -15.3377   14.1187 N   0  0  0  0  0  0  0  0  0  0  0  0
    8.7053  -15.6042   15.3831 C   0  0  1  0  0  0  0  0  0  0  0  0
    8.5563  -17.0893   15.6145 C   0  0  0  0  0  0  0  0  0  0  0  0
    7.7221  -17.7416   14.5947 C   0  0  0  0  0  0  0  0  0  0  0  0
    6.5992  -17.2526   14.3147 O   0  0  0  0  0  0  0  0  0  0  0  0
    9.4972  -14.9803   16.4631 C   0  0  0  0  0  0  0  0  0  0  0  0
   10.7581  -15.0562   16.4597 O   0  0  0  0  0  0  0  0  0  0  0  0
    8.0996  -18.8800   13.9099 O   0  0  0  0  0  0  0  0  0  0  0  0
    8.8830  -14.2776   17.5349 N   0  0  0  0  0  0  0  0  0  0  0  0
    7.4383  -14.0361   17.7078 C   0  0  0  0  0  0  0  0  0  0  0  0
    7.4682  -12.7139   18.4934 C   0  0  0  0  0  0  0  0  0  0  0  0
    8.5558  -13.0571   19.4855 C   0  0  0  0  0  0  0  0  0  0  0  0
    9.5998  -13.6660   18.6260 C   0  0  1  0  0  0  0  0  0  0  0  0
   10.4708  -14.6279   19.3392 C   0  0  0  0  0  0  0  0  0  0  0  0
   10.0825  -15.8210   19.3988 O   0  0  0  0  0  0  0  0  0  0  0  0
   14.0241  -14.9330   20.3856 C   0  0  0  0  0  0  0  0  0  0  0  0
   12.5750  -15.3333   20.4375 C   0  0  2  0  0  0  0  0  0  0  0  0
   11.6883  -14.2930   19.9453 N   0  0  0  0  0  0  0  0  0  0  0  0
   12.2321  -15.7262   21.8278 C   0  0  0  0  0  0  0  0  0  0  0  0
   11.3651  -15.0781   22.4500 O   0  0  0  0  0  0  0  0  0  0  0  0
   12.8725  -16.7997   22.4170 O   0  0  0  0  0  0  0  0  0  0  0  0
  2  1  1  6
  2  3  1  0
  3  4  1  0
  4  8  1  0
  5  4  2  0
  6  2  1  0
  7  6  2  0
  9 13  1  0
  9  6  1  0
 10  9  1  0
 11 12  1  0
 11 10  1  0
 12 13  1  0
 13 14  1  1
 14 18  1  0
 15 14  2  0
 17 16  1  1
 17 19  1  0
 18 17  1  0
 19 20  2  0
 19 21  1  0
M  END
$$$$
