DPA.pdb
     RDKit          3D

 21 21  0  0  1  0  0  0  0  0999 V2000
    8.1949  -14.1973   21.2878 N   0  0  0  0  0  0  0  0  0  0  0  0
    7.2519  -14.1688   22.3957 C   0  0  1  0  0  0  0  0  0  0  0  0
    6.4427  -15.4429   22.4511 C   0  0  0  0  0  0  0  0  0  0  0  0
    7.2757  -16.6494   22.3410 C   0  0  0  0  0  0  0  0  0  0  0  0
    8.0419  -16.7789   21.3538 O   0  0  0  0  0  0  0  0  0  0  0  0
    8.0159  -13.9760   23.6453 C   0  0  0  0  0  0  0  0  0  0  0  0
    9.2309  -14.3147   23.7130 O   0  0  0  0  0  0  0  0  0  0  0  0
    7.2713  -17.6706   23.2707 O   0  0  0  0  0  0  0  0  0  0  0  0
    7.4253  -13.4084   24.8068 N   0  0  0  0  0  0  0  0  0  0  0  0
    6.0413  -12.9138   24.9309 C   0  0  0  0  0  0  0  0  0  0  0  0
    6.2281  -11.8281   26.0046 C   0  0  0  0  0  0  0  0  0  0  0  0
    7.1106  -12.5964   26.9616 C   0  0  0  0  0  0  0  0  0  0  0  0
    8.1137  -13.2099   26.0578 C   0  0  1  0  0  0  0  0  0  0  0  0
    8.7009  -14.4631   26.5844 C   0  0  0  0  0  0  0  0  0  0  0  0
    8.0511  -15.5229   26.4047 O   0  0  0  0  0  0  0  0  0  0  0  0
   11.7683  -16.1669   27.3403 C   0  0  0  0  0  0  0  0  0  0  0  0
   10.3851  -15.8046   27.8073 C   0  0  2  0  0  0  0  0  0  0  0  0
    9.9236  -14.5389   27.2634 N   0  0  0  0  0  0  0  0  0  0  0  0
   10.3630  -15.7981   29.2920 C   0  0  0  0  0  0  0  0  0  0  0  0
   10.0405  -14.7529   29.8939 O   0  0  0  0  0  0  0  0  0  0  0  0
   10.6979  -16.9428   29.9898 O   0  0  0  0  0  0  0  0  0  0  0  0
  2  1  1  6
  2  3  1  0
  3  4  1  0
  4  8  1  0
  5  4  2  0
  6  2  1  0
  7  6  2  0
  9 13  1  0
  9  6  1  0
 10  9  1  0
 11 12  1  0
 11 10  1  0
 12 13  1  0
 13 14  1  1
 14 18  1  0
 15 14  2  0
 17 16  1  1
 17 19  1  0
 18 17  1  0
 19 20  2  0
 19 21  1  0
M  END
$$$$
