DPA.pdb
     RDKit          3D

 21 21  0  0  1  0  0  0  0  0999 V2000
    8.8897  -14.7994   21.3369 N   0  0  0  0  0  0  0  0  0  0  0  0
    8.0135  -15.1378   22.4482 C   0  0  1  0  0  0  0  0  0  0  0  0
    7.9135  -16.6348   22.6226 C   0  0  0  0  0  0  0  0  0  0  0  0
    7.8096  -17.3496   21.3420 C   0  0  0  0  0  0  0  0  0  0  0  0
    6.7241  -17.3235   20.7102 O   0  0  0  0  0  0  0  0  0  0  0  0
    8.5505  -14.5008   23.6681 C   0  0  0  0  0  0  0  0  0  0  0  0
    9.7974  -14.4167   23.8520 O   0  0  0  0  0  0  0  0  0  0  0  0
    8.8485  -18.0624   20.7763 O   0  0  0  0  0  0  0  0  0  0  0  0
    7.6997  -13.9622   24.6710 N   0  0  0  0  0  0  0  0  0  0  0  0
    6.2270  -13.8954   24.6244 C   0  0  0  0  0  0  0  0  0  0  0  0
    5.9765  -12.6488   25.4902 C   0  0  0  0  0  0  0  0  0  0  0  0
    6.9336  -12.9537   26.6197 C   0  0  0  0  0  0  0  0  0  0  0  0
    8.1624  -13.3703   25.9014 C   0  0  1  0  0  0  0  0  0  0  0  0
    9.0244  -14.2881   26.6805 C   0  0  0  0  0  0  0  0  0  0  0  0
    8.9675  -15.5105   26.3970 O   0  0  0  0  0  0  0  0  0  0  0  0
   11.7393  -14.2071   29.2958 C   0  0  0  0  0  0  0  0  0  0  0  0
   10.7331  -14.8514   28.3819 C   0  0  2  0  0  0  0  0  0  0  0  0
    9.8905  -13.8816   27.7035 N   0  0  0  0  0  0  0  0  0  0  0  0
    9.9243  -15.8221   29.1620 C   0  0  0  0  0  0  0  0  0  0  0  0
    8.7178  -15.5812   29.3742 O   0  0  0  0  0  0  0  0  0  0  0  0
   10.5115  -16.9767   29.6433 O   0  0  0  0  0  0  0  0  0  0  0  0
  2  1  1  6
  2  3  1  0
  3  4  1  0
  4  8  1  0
  5  4  2  0
  6  2  1  0
  7  6  2  0
  9 13  1  0
  9  6  1  0
 10  9  1  0
 11 12  1  0
 11 10  1  0
 12 13  1  0
 13 14  1  1
 14 18  1  0
 15 14  2  0
 17 16  1  1
 17 19  1  0
 18 17  1  0
 19 20  2  0
 19 21  1  0
M  END
$$$$
