DPA.pdb
     RDKit          3D

 21 21  0  0  1  0  0  0  0  0999 V2000
-161805.2188418849.7188287323.6250 N   0  0  0  0  0  0  0  0  0  0  0  0
-161805.5625418848.9688287322.4688 C   0  0  1  0  0  0  0  0  0  0  0  0
-161804.4219418848.6875287321.4062 C   0  0  0  0  0  0  0  0  0  0  0  0
-161804.0312418849.8125287320.7812 C   0  0  0  0  0  0  0  0  0  0  0  0
-161804.9375418850.3438287319.9375 O   0  0  0  0  0  0  0  0  0  0  0  0
-161806.0938418847.6875287323.0000 C   0  0  0  0  0  0  0  0  0  0  0  0
-161807.3594418847.6562287323.2812 O   0  0  0  0  0  0  0  0  0  0  0  0
-161802.8281418850.3438287320.6562 O   0  0  0  0  0  0  0  0  0  0  0  0
-161805.3281418846.6562287323.3125 N   0  0  0  0  0  0  0  0  0  0  0  0
-161805.6406418845.5625287324.4062 C   0  0  0  0  0  0  0  0  0  0  0  0
-161804.2500418845.1250287324.7500 C   0  0  0  0  0  0  0  0  0  0  0  0
-161803.7031418845.0312287323.3438 C   0  0  0  0  0  0  0  0  0  0  0  0
-161804.0938418846.2812287322.8125 C   0  0  1  0  0  0  0  0  0  0  0  0
-161804.1719418846.0625287321.2500 C   0  0  0  0  0  0  0  0  0  0  0  0
-161805.2500418846.5938287320.7812 O   0  0  0  0  0  0  0  0  0  0  0  0
-161805.2812418844.1562287319.8438 C   0  0  0  0  0  0  0  0  0  0  0  0
-161803.9219418844.5625287319.4688 C   0  0  2  0  0  0  0  0  0  0  0  0
-161803.3594418845.4688287320.4688 N   0  0  0  0  0  0  0  0  0  0  0  0
-161803.7969418845.0938287318.1250 C   0  0  0  0  0  0  0  0  0  0  0  0
-161802.8438418845.6875287317.7500 O   0  0  0  0  0  0  0  0  0  0  0  0
-161804.6406418844.7500287317.1875 O   0  0  0  0  0  0  0  0  0  0  0  0
  2  1  1  1
  2  3  1  0
  3  4  1  0
  4  8  1  0
  5  4  2  0
  6  2  1  0
  7  6  2  0
  9 13  1  0
  9  6  1  0
 10  9  1  0
 11 12  1  0
 11 10  1  0
 12 13  1  0
 13 14  1  6
 14 18  1  0
 15 14  2  0
 17 16  1  1
 17 19  1  0
 18 17  1  0
 19 20  2  0
 19 21  1  0
M  END
$$$$
