DPA.pdb
     RDKit          3D

 21 21  0  0  1  0  0  0  0  0999 V2000
    8.7359  -14.7504   21.5338 N   0  0  0  0  0  0  0  0  0  0  0  0
    7.8194  -14.8998   22.6540 C   0  0  1  0  0  0  0  0  0  0  0  0
    7.2722  -16.3060   22.7223 C   0  0  0  0  0  0  0  0  0  0  0  0
    6.5583  -16.6972   21.4981 C   0  0  0  0  0  0  0  0  0  0  0  0
    6.0324  -15.8081   20.7829 O   0  0  0  0  0  0  0  0  0  0  0  0
    8.5476  -14.5579   23.8931 C   0  0  0  0  0  0  0  0  0  0  0  0
    9.7606  -14.8808   24.0340 O   0  0  0  0  0  0  0  0  0  0  0  0
    6.4251  -18.0046   21.0737 O   0  0  0  0  0  0  0  0  0  0  0  0
    7.9238  -13.8602   24.9627 N   0  0  0  0  0  0  0  0  0  0  0  0
    6.5551  -13.3107   24.9675 C   0  0  0  0  0  0  0  0  0  0  0  0
    6.7309  -12.1317   25.9399 C   0  0  0  0  0  0  0  0  0  0  0  0
    7.5371  -12.8310   27.0103 C   0  0  0  0  0  0  0  0  0  0  0  0
    8.5586  -13.5627   26.2225 C   0  0  1  0  0  0  0  0  0  0  0  0
    9.0724  -14.7768   26.8967 C   0  0  0  0  0  0  0  0  0  0  0  0
    8.3447  -15.8004   26.8716 O   0  0  0  0  0  0  0  0  0  0  0  0
   12.1822  -16.3211   28.1774 C   0  0  0  0  0  0  0  0  0  0  0  0
   10.6999  -16.0725   28.2397 C   0  0  2  0  0  0  0  0  0  0  0  0
   10.3069  -14.8536   27.5538 N   0  0  0  0  0  0  0  0  0  0  0  0
   10.2722  -16.0578   29.6615 C   0  0  0  0  0  0  0  0  0  0  0  0
    9.7704  -15.0187   30.1381 O   0  0  0  0  0  0  0  0  0  0  0  0
   10.4327  -17.1883   30.4398 O   0  0  0  0  0  0  0  0  0  0  0  0
  2  1  1  6
  2  3  1  0
  3  4  1  0
  4  8  1  0
  5  4  2  0
  6  2  1  0
  7  6  2  0
  9 13  1  0
  9  6  1  0
 10  9  1  0
 11 12  1  0
 11 10  1  0
 12 13  1  0
 13 14  1  1
 14 18  1  0
 15 14  2  0
 17 16  1  1
 17 19  1  0
 18 17  1  0
 19 20  2  0
 19 21  1  0
M  END
$$$$
