DPA.pdb
     RDKit          3D

 21 21  0  0  1  0  0  0  0  0999 V2000
    9.4171  -16.5508   16.0087 N   0  0  0  0  0  0  0  0  0  0  0  0
    8.3982  -16.0951   16.9422 C   0  0  1  0  0  0  0  0  0  0  0  0
    7.4127  -17.1978   17.2491 C   0  0  0  0  0  0  0  0  0  0  0  0
    8.0423  -18.5257   17.2926 C   0  0  0  0  0  0  0  0  0  0  0  0
    7.3720  -19.5107   17.6912 O   0  0  0  0  0  0  0  0  0  0  0  0
    9.0742  -15.6362   18.1731 C   0  0  0  0  0  0  0  0  0  0  0  0
   10.2005  -16.1058   18.4995 O   0  0  0  0  0  0  0  0  0  0  0  0
    9.3491  -18.7664   16.9162 O   0  0  0  0  0  0  0  0  0  0  0  0
    8.4952  -14.6602   19.0287 N   0  0  0  0  0  0  0  0  0  0  0  0
    7.2067  -13.9722   18.8238 C   0  0  0  0  0  0  0  0  0  0  0  0
    7.4845  -12.6398   19.5407 C   0  0  0  0  0  0  0  0  0  0  0  0
    8.1488  -13.1797   20.7865 C   0  0  0  0  0  0  0  0  0  0  0  0
    9.1052  -14.1731   20.2407 C   0  0  1  0  0  0  0  0  0  0  0  0
    9.4333  -15.2646   21.1860 C   0  0  0  0  0  0  0  0  0  0  0  0
    8.6640  -16.2573   21.2079 O   0  0  0  0  0  0  0  0  0  0  0  0
   12.1948  -16.6446   23.2271 C   0  0  0  0  0  0  0  0  0  0  0  0
   10.7396  -16.3456   22.9905 C   0  0  2  0  0  0  0  0  0  0  0  0
   10.5369  -15.2585   22.0484 N   0  0  0  0  0  0  0  0  0  0  0  0
   10.0865  -16.0637   24.2939 C   0  0  0  0  0  0  0  0  0  0  0  0
    9.5441  -14.9545   24.4785 O   0  0  0  0  0  0  0  0  0  0  0  0
   10.0853  -17.0266   25.2850 O   0  0  0  0  0  0  0  0  0  0  0  0
  2  1  1  6
  2  3  1  0
  3  4  1  0
  4  8  1  0
  5  4  2  0
  6  2  1  0
  7  6  2  0
  9 13  1  0
  9  6  1  0
 10  9  1  0
 11 12  1  0
 11 10  1  0
 12 13  1  0
 13 14  1  1
 14 18  1  0
 15 14  2  0
 17 16  1  1
 17 19  1  0
 18 17  1  0
 19 20  2  0
 19 21  1  0
M  END
$$$$
