DPA.pdb
     RDKit          3D

 21 21  0  0  1  0  0  0  0  0999 V2000
   10.5317  -16.3503   20.9129 N   0  0  0  0  0  0  0  0  0  0  0  0
    9.4205  -16.6187   21.8132 C   0  0  1  0  0  0  0  0  0  0  0  0
    9.3275  -18.0916   22.1348 C   0  0  0  0  0  0  0  0  0  0  0  0
    9.0346  -18.9134   20.9514 C   0  0  0  0  0  0  0  0  0  0  0  0
    8.2750  -18.4584   20.0602 O   0  0  0  0  0  0  0  0  0  0  0  0
    9.6215  -15.8236   23.0420 C   0  0  0  0  0  0  0  0  0  0  0  0
   10.7696  -15.7208   23.5588 O   0  0  0  0  0  0  0  0  0  0  0  0
    9.5505  -20.1787   20.7509 O   0  0  0  0  0  0  0  0  0  0  0  0
    8.5479  -15.1495   23.6844 N   0  0  0  0  0  0  0  0  0  0  0  0
    7.1379  -15.1400   23.2518 C   0  0  0  0  0  0  0  0  0  0  0  0
    6.6885  -13.7724   23.7943 C   0  0  0  0  0  0  0  0  0  0  0  0
    7.3185  -13.8478   25.1662 C   0  0  0  0  0  0  0  0  0  0  0  0
    8.6855  -14.3407   24.8699 C   0  0  1  0  0  0  0  0  0  0  0  0
    9.3062  -15.0827   25.9909 C   0  0  0  0  0  0  0  0  0  0  0  0
    9.2225  -16.3358   25.9677 O   0  0  0  0  0  0  0  0  0  0  0  0
   11.5594  -14.4933   28.9473 C   0  0  0  0  0  0  0  0  0  0  0  0
   10.6398  -15.2941   28.0666 C   0  0  2  0  0  0  0  0  0  0  0  0
    9.9739  -14.4799   27.0644 N   0  0  0  0  0  0  0  0  0  0  0  0
    9.6606  -16.0144   28.9193 C   0  0  0  0  0  0  0  0  0  0  0  0
   10.0724  -16.8490   29.7516 O   0  0  0  0  0  0  0  0  0  0  0  0
    8.3098  -15.7558   28.7844 O   0  0  0  0  0  0  0  0  0  0  0  0
  2  1  1  6
  2  3  1  0
  3  4  1  0
  4  8  1  0
  5  4  2  0
  6  2  1  0
  7  6  2  0
  9 13  1  0
  9  6  1  0
 10  9  1  0
 11 12  1  0
 11 10  1  0
 12 13  1  0
 13 14  1  1
 14 18  1  0
 15 14  2  0
 17 16  1  1
 17 19  1  0
 18 17  1  0
 19 20  2  0
 19 21  1  0
M  END
$$$$
