RMH.pdb
     RDKit          3D

 30 30  0  0  1  0  0  0  0  0999 V2000
    9.1515  -21.3567   17.9447 N   0  0  0  0  0  0  0  0  0  0  0  0
    8.6839  -21.1711   19.2677 C   0  0  0  0  0  0  0  0  0  0  0  0
    8.2949  -22.1630   19.9871 N   0  0  0  0  0  0  0  0  0  0  0  0
    8.6285  -19.8653   19.8500 N   0  0  0  0  0  0  0  0  0  0  0  0
    9.0574  -18.6866   19.1290 C   0  0  0  0  0  0  0  0  0  0  0  0
    7.8347  -17.9133   18.6871 C   0  0  0  0  0  0  0  0  0  0  0  0
    7.1516  -17.2318   19.8410 C   0  0  0  0  0  0  0  0  0  0  0  0
    7.5016  -15.7768   19.8260 C   0  0  2  0  0  0  0  0  0  0  0  0
    8.2397  -15.4393   18.6446 N   0  0  0  0  0  0  0  0  0  0  0  0
    8.1838  -15.3434   21.0702 C   0  0  0  0  0  0  0  0  0  0  0  0
    9.4349  -15.4501   21.1265 O   0  0  0  0  0  0  0  0  0  0  0  0
    7.9873  -22.0468   20.9538 C   0  0  0  0  0  0  0  0  0  0  0  0
    7.1274  -11.6402   28.0598 S   0  0  0  0  0  0  0  0  0  0  0  0
    6.4607  -12.2709   26.4943 C   0  0  0  0  0  0  0  0  0  0  0  0
    7.7148  -13.2104   25.5761 C   0  0  0  0  0  0  0  0  0  0  0  0
    7.0947  -13.6467   24.2704 C   0  0  1  0  0  0  0  0  0  0  0  0
    8.0768  -14.4039   23.3999 N   0  0  0  0  0  0  0  0  0  0  0  0
    7.4443  -14.8286   22.1519 C   0  0  0  0  0  0  0  0  0  0  0  0
    8.5142  -15.5929   24.1838 O   0  0  0  0  0  0  0  0  0  0  0  0
    7.7312  -16.5622   24.2881 N   0  0  0  0  0  0  0  0  0  0  0  0
    9.7838  -15.6670   24.8154 C   0  0  1  0  0  0  0  0  0  0  0  0
   10.3165  -16.8683   25.4158 C   0  0  0  0  0  0  0  0  0  0  0  0
   11.7929  -17.0428   25.1498 C   0  0  0  0  0  0  0  0  0  0  0  0
   12.3457  -18.2140   25.8574 C   0  0  0  0  0  0  0  0  0  0  0  0
   12.7527  -18.2489   27.1716 N   0  0  0  0  0  0  0  0  0  0  0  0
   13.1822  -19.5072   27.3869 C   0  0  0  0  0  0  0  0  0  0  0  0
   13.0584  -20.2426   26.2713 N   0  0  0  0  0  0  0  0  0  0  0  0
   12.5458  -19.4451   25.3392 C   0  0  0  0  0  0  0  0  0  0  0  0
   10.1375  -16.7632   26.8877 O   0  0  0  0  0  0  0  0  0  0  0  0
   10.0645  -17.9127   27.6791 O   0  0  0  0  0  0  0  0  0  0  0  0
  2  1  1  0
  2  4  1  0
  3  2  2  0
  4  5  1  0
  5  6  1  0
  7  6  1  0
  7  8  1  0
  8 10  1  0
  8  9  1  6
 10 11  2  0
 13 14  1  0
 13 12  1  0
 14 15  1  0
 16 15  1  6
 17 16  1  0
 17 10  1  0
 18 20  1  0
 18 16  1  0
 19 18  2  0
 21 20  1  0
 21 22  1  1
 23 27  1  0
 23 22  1  0
 24 23  2  0
 25 24  1  0
 25 26  1  0
 26 27  2  0
 28 21  1  0
 29 28  1  0
 30 28  2  0
M  END
$$$$
