RMH.pdb
     RDKit          3D

 30 30  0  0  1  0  0  0  0  0999 V2000
    8.3614  -12.8685   17.6015 N   0  0  0  0  0  0  0  0  0  0  0  0
    8.1609  -13.8564   16.6079 C   0  0  0  0  0  0  0  0  0  0  0  0
    7.2688  -13.7162   15.6928 N   0  0  0  0  0  0  0  0  0  0  0  0
    8.9494  -15.0502   16.5903 N   0  0  0  0  0  0  0  0  0  0  0  0
    9.8883  -15.3633   17.6456 C   0  0  0  0  0  0  0  0  0  0  0  0
    9.2042  -15.1687   18.9806 C   0  0  0  0  0  0  0  0  0  0  0  0
   10.1035  -15.5265   20.1321 C   0  0  0  0  0  0  0  0  0  0  0  0
    9.3102  -16.2736   21.1580 C   0  0  2  0  0  0  0  0  0  0  0  0
    7.9131  -16.2555   20.8386 N   0  0  0  0  0  0  0  0  0  0  0  0
    9.5873  -15.8094   22.5396 C   0  0  0  0  0  0  0  0  0  0  0  0
   10.7874  -15.6879   22.8931 O   0  0  0  0  0  0  0  0  0  0  0  0
    7.0970  -14.4325   14.9857 C   0  0  0  0  0  0  0  0  0  0  0  0
    5.8107  -11.3861   27.6936 S   0  0  0  0  0  0  0  0  0  0  0  0
    6.3658  -11.6278   25.9829 C   0  0  0  0  0  0  0  0  0  0  0  0
    7.7983  -12.7417   25.9073 C   0  0  0  0  0  0  0  0  0  0  0  0
    7.5756  -13.6964   24.7589 C   0  0  2  0  0  0  0  0  0  0  0  0
    8.7149  -14.6843   24.6119 N   0  0  0  0  0  0  0  0  0  0  0  0
    8.5314  -15.5155   23.4231 C   0  0  0  0  0  0  0  0  0  0  0  0
    8.7060  -15.5321   25.8370 O   0  0  0  0  0  0  0  0  0  0  0  0
    9.0543  -15.0186   26.9227 N   0  0  0  0  0  0  0  0  0  0  0  0
    8.3178  -16.8978   25.8186 C   0  0  2  0  0  0  0  0  0  0  0  0
    9.2137  -17.9944   26.1050 C   0  0  0  0  0  0  0  0  0  0  0  0
   10.1538  -18.2880   24.9600 C   0  0  0  0  0  0  0  0  0  0  0  0
   10.9811  -19.4824   25.2186 C   0  0  0  0  0  0  0  0  0  0  0  0
   10.5600  -20.6440   25.8248 N   0  0  0  0  0  0  0  0  0  0  0  0
   11.6367  -21.4528   25.8507 C   0  0  0  0  0  0  0  0  0  0  0  0
   12.6939  -20.8446   25.2912 N   0  0  0  0  0  0  0  0  0  0  0  0
   12.2858  -19.6392   24.9065 C   0  0  0  0  0  0  0  0  0  0  0  0
   10.0440  -17.6134   27.2776 O   0  0  0  0  0  0  0  0  0  0  0  0
   10.8840  -16.4978   27.2220 O   0  0  0  0  0  0  0  0  0  0  0  0
  2  1  1  0
  2  4  1  0
  3  2  2  0
  4  5  1  0
  5  6  1  0
  7  6  1  0
  7  8  1  0
  8 10  1  0
  8  9  1  6
 10 11  2  0
 13 14  1  0
 13 12  1  0
 14 15  1  0
 16 15  1  6
 17 16  1  0
 17 10  1  0
 18 20  1  0
 18 16  1  0
 19 18  2  0
 21 20  1  0
 21 22  1  6
 23 27  1  0
 23 22  1  0
 24 23  2  0
 25 24  1  0
 25 26  1  0
 26 27  2  0
 28 21  1  0
 29 28  1  0
 30 28  2  0
M  END
$$$$
