RMH.pdb
     RDKit          3D

 30 30  0  0  1  0  0  0  0  0999 V2000
    7.3693  -14.6668   15.8514 N   0  0  0  0  0  0  0  0  0  0  0  0
    8.0006  -13.4073   15.7150 C   0  0  0  0  0  0  0  0  0  0  0  0
    8.6590  -13.0981   14.6549 N   0  0  0  0  0  0  0  0  0  0  0  0
    7.9258  -12.4320   16.7592 N   0  0  0  0  0  0  0  0  0  0  0  0
    7.3136  -12.7239   18.0372 C   0  0  0  0  0  0  0  0  0  0  0  0
    7.5698  -14.1746   18.3806 C   0  0  0  0  0  0  0  0  0  0  0  0
    6.9407  -14.5632   19.6906 C   0  0  0  0  0  0  0  0  0  0  0  0
    7.8010  -15.5880   20.3610 C   0  0  2  0  0  0  0  0  0  0  0  0
    7.1523  -16.8659   20.3841 N   0  0  0  0  0  0  0  0  0  0  0  0
    8.2595  -15.1548   21.7039 C   0  0  0  0  0  0  0  0  0  0  0  0
    8.1936  -13.9315   21.9850 O   0  0  0  0  0  0  0  0  0  0  0  0
    9.1558  -12.2109   14.5620 C   0  0  0  0  0  0  0  0  0  0  0  0
    7.3692  -11.7689   26.5134 S   0  0  0  0  0  0  0  0  0  0  0  0
    6.5826  -12.7966   25.2413 C   0  0  0  0  0  0  0  0  0  0  0  0
    7.8226  -13.5996   24.1849 C   0  0  0  0  0  0  0  0  0  0  0  0
    8.0238  -15.0039   24.7019 C   0  0  2  0  0  0  0  0  0  0  0  0
    9.1528  -15.7168   23.9859 N   0  0  0  0  0  0  0  0  0  0  0  0
    8.7529  -16.0927   22.6306 C   0  0  0  0  0  0  0  0  0  0  0  0
    9.4640  -16.9349   24.7853 O   0  0  0  0  0  0  0  0  0  0  0  0
    8.5675  -17.7921   24.9436 N   0  0  0  0  0  0  0  0  0  0  0  0
   10.7372  -17.1589   25.3728 C   0  0  2  0  0  0  0  0  0  0  0  0
   11.0319  -16.9323   26.7688 C   0  0  0  0  0  0  0  0  0  0  0  0
   10.6571  -15.5408   27.2210 C   0  0  0  0  0  0  0  0  0  0  0  0
   10.9182  -15.3399   28.6595 C   0  0  0  0  0  0  0  0  0  0  0  0
   12.0306  -15.7663   29.3485 N   0  0  0  0  0  0  0  0  0  0  0  0
   11.8456  -15.3684   30.6218 C   0  0  0  0  0  0  0  0  0  0  0  0
   10.6770  -14.7205   30.7459 N   0  0  0  0  0  0  0  0  0  0  0  0
   10.1145  -14.7067   29.5413 C   0  0  0  0  0  0  0  0  0  0  0  0
   10.2280  -17.8932   27.5687 O   0  0  0  0  0  0  0  0  0  0  0  0
   10.8289  -18.6650   28.5670 O   0  0  0  0  0  0  0  0  0  0  0  0
  2  1  1  0
  2  4  1  0
  3  2  2  0
  4  5  1  0
  5  6  1  0
  7  6  1  0
  7  8  1  0
  8 10  1  0
  8  9  1  1
 10 11  2  0
 13 14  1  0
 13 12  1  0
 14 15  1  0
 16 15  1  6
 17 16  1  0
 17 10  1  0
 18 20  1  0
 18 16  1  0
 19 18  2  0
 21 20  1  0
 21 22  1  6
 23 27  1  0
 23 22  1  0
 24 23  2  0
 25 24  1  0
 25 26  1  0
 26 27  2  0
 28 21  1  0
 29 28  1  0
 30 28  2  0
M  END
$$$$
