RMH.pdb
     RDKit          3D

 30 30  0  0  1  0  0  0  0  0999 V2000
    7.9753  -12.1627   16.1321 N   0  0  0  0  0  0  0  0  0  0  0  0
    7.6946  -13.4505   15.6162 C   0  0  0  0  0  0  0  0  0  0  0  0
    7.1059  -13.6059   14.4839 N   0  0  0  0  0  0  0  0  0  0  0  0
    8.0591  -14.6277   16.3432 N   0  0  0  0  0  0  0  0  0  0  0  0
    8.9816  -14.5850   17.4569 C   0  0  0  0  0  0  0  0  0  0  0  0
    8.4093  -15.3996   18.5957 C   0  0  0  0  0  0  0  0  0  0  0  0
    9.3311  -15.4321   19.7840 C   0  0  0  0  0  0  0  0  0  0  0  0
    8.6955  -16.2375   20.8737 C   0  0  2  0  0  0  0  0  0  0  0  0
    7.2674  -16.2276   20.7520 N   0  0  0  0  0  0  0  0  0  0  0  0
    9.1574  -15.8316   22.2239 C   0  0  0  0  0  0  0  0  0  0  0  0
   10.3296  -15.3932   22.3408 O   0  0  0  0  0  0  0  0  0  0  0  0
    7.0080  -14.5213   14.0423 C   0  0  0  0  0  0  0  0  0  0  0  0
    7.4295  -11.5076   27.1246 S   0  0  0  0  0  0  0  0  0  0  0  0
    6.4165  -12.3797   25.8972 C   0  0  0  0  0  0  0  0  0  0  0  0
    7.4493  -13.3516   24.7627 C   0  0  0  0  0  0  0  0  0  0  0  0
    7.6038  -14.7324   25.3538 C   0  0  2  0  0  0  0  0  0  0  0  0
    8.7079  -15.5196   24.6779 N   0  0  0  0  0  0  0  0  0  0  0  0
    8.3018  -15.9374   23.3368 C   0  0  0  0  0  0  0  0  0  0  0  0
    8.9654  -16.7135   25.5312 O   0  0  0  0  0  0  0  0  0  0  0  0
    8.0064  -17.4639   25.8156 N   0  0  0  0  0  0  0  0  0  0  0  0
   10.2555  -17.0309   26.0324 C   0  0  1  0  0  0  0  0  0  0  0  0
   10.5568  -18.2290   26.7814 C   0  0  0  0  0  0  0  0  0  0  0  0
   11.9977  -18.6568   26.6338 C   0  0  0  0  0  0  0  0  0  0  0  0
   12.3298  -19.7894   27.5199 C   0  0  0  0  0  0  0  0  0  0  0  0
   12.1372  -19.8362   28.8818 N   0  0  0  0  0  0  0  0  0  0  0  0
   12.5795  -21.0474   29.2710 C   0  0  0  0  0  0  0  0  0  0  0  0
   13.0323  -21.7428   28.2165 N   0  0  0  0  0  0  0  0  0  0  0  0
   12.8766  -20.9670   27.1480 C   0  0  0  0  0  0  0  0  0  0  0  0
   10.3220  -17.9408   28.2206 O   0  0  0  0  0  0  0  0  0  0  0  0
   10.0047  -18.9713   29.1097 O   0  0  0  0  0  0  0  0  0  0  0  0
  2  1  1  0
  2  4  1  0
  3  2  2  0
  4  5  1  0
  5  6  1  0
  7  6  1  0
  7  8  1  0
  8 10  1  0
  8  9  1  1
 10 11  2  0
 13 14  1  0
 13 12  1  0
 14 15  1  0
 16 15  1  6
 17 16  1  0
 17 10  1  0
 18 20  1  0
 18 16  1  0
 19 18  2  0
 21 20  1  0
 21 22  1  1
 23 27  1  0
 23 22  1  0
 24 23  2  0
 25 24  1  0
 25 26  1  0
 26 27  2  0
 28 21  1  0
 29 28  1  0
 30 28  2  0
M  END
$$$$
