RMH.pdb
     RDKit          3D

 30 30  0  0  1  0  0  0  0  0999 V2000
    8.8329  -12.4246   17.2087 N   0  0  0  0  0  0  0  0  0  0  0  0
    8.3511  -13.5440   16.4889 C   0  0  0  0  0  0  0  0  0  0  0  0
    8.9801  -14.0062   15.4674 N   0  0  0  0  0  0  0  0  0  0  0  0
    7.1408  -14.2008   16.8775 N   0  0  0  0  0  0  0  0  0  0  0  0
    6.4577  -13.8798   18.1119 C   0  0  0  0  0  0  0  0  0  0  0  0
    6.6214  -15.0351   19.0745 C   0  0  0  0  0  0  0  0  0  0  0  0
    7.1745  -14.5895   20.4006 C   0  0  0  0  0  0  0  0  0  0  0  0
    8.0659  -15.6622   20.9435 C   0  0  2  0  0  0  0  0  0  0  0  0
    7.3513  -16.8955   21.0932 N   0  0  0  0  0  0  0  0  0  0  0  0
    8.7601  -15.2485   22.1878 C   0  0  0  0  0  0  0  0  0  0  0  0
    9.7053  -14.4255   22.0920 O   0  0  0  0  0  0  0  0  0  0  0  0
    8.5617  -14.6885   14.8334 C   0  0  0  0  0  0  0  0  0  0  0  0
    6.1730  -11.4118   25.9987 S   0  0  0  0  0  0  0  0  0  0  0  0
    7.4127  -12.6985   26.3160 C   0  0  0  0  0  0  0  0  0  0  0  0
    6.9688  -14.2566   25.4951 C   0  0  0  0  0  0  0  0  0  0  0  0
    8.0466  -15.2649   25.8134 C   0  0  2  0  0  0  0  0  0  0  0  0
    9.0429  -15.4084   24.6810 N   0  0  0  0  0  0  0  0  0  0  0  0
    8.3658  -15.7672   23.4357 C   0  0  0  0  0  0  0  0  0  0  0  0
    9.9899  -16.4874   25.0793 O   0  0  0  0  0  0  0  0  0  0  0  0
    9.6524  -17.6775   24.8963 N   0  0  0  0  0  0  0  0  0  0  0  0
   11.2583  -16.2163   25.6572 C   0  0  2  0  0  0  0  0  0  0  0  0
   11.8703  -17.0348   26.6783 C   0  0  0  0  0  0  0  0  0  0  0  0
   11.0079  -17.1630   27.9115 C   0  0  0  0  0  0  0  0  0  0  0  0
   10.8528  -15.8734   28.6120 C   0  0  0  0  0  0  0  0  0  0  0  0
   11.3985  -14.6706   28.2254 N   0  0  0  0  0  0  0  0  0  0  0  0
   11.0001  -13.7756   29.1498 C   0  0  0  0  0  0  0  0  0  0  0  0
   10.2389  -14.3704   30.0812 N   0  0  0  0  0  0  0  0  0  0  0  0
   10.1528  -15.6540   29.7460 C   0  0  0  0  0  0  0  0  0  0  0  0
   12.0571  -18.3999   26.1204 O   0  0  0  0  0  0  0  0  0  0  0  0
   11.0971  -18.9591   25.2724 O   0  0  0  0  0  0  0  0  0  0  0  0
  2  1  1  0
  2  4  1  0
  3  2  2  0
  4  5  1  0
  5  6  1  0
  7  6  1  0
  7  8  1  0
  8 10  1  0
  8  9  1  1
 10 11  2  0
 13 14  1  0
 13 12  1  0
 14 15  1  0
 16 15  1  6
 17 16  1  0
 17 10  1  0
 18 20  1  0
 18 16  1  0
 19 18  2  0
 21 20  1  0
 21 22  1  6
 23 27  1  0
 23 22  1  0
 24 23  2  0
 25 24  1  0
 25 26  1  0
 26 27  2  0
 28 21  1  0
 29 28  1  0
 30 28  2  0
M  END
$$$$
