RMH.pdb
     RDKit          3D

 30 30  0  0  1  0  0  0  0  0999 V2000
   11.3880  -17.5790   15.1109 N   0  0  0  0  0  0  0  0  0  0  0  0
   10.1064  -18.1207   14.8509 C   0  0  0  0  0  0  0  0  0  0  0  0
    9.9463  -19.1063   14.0412 N   0  0  0  0  0  0  0  0  0  0  0  0
    8.9409  -17.5848   15.4846 N   0  0  0  0  0  0  0  0  0  0  0  0
    9.0276  -16.5922   16.5337 C   0  0  0  0  0  0  0  0  0  0  0  0
    8.1816  -17.0437   17.7035 C   0  0  0  0  0  0  0  0  0  0  0  0
    8.2004  -16.0474   18.8303 C   0  0  0  0  0  0  0  0  0  0  0  0
    7.8934  -16.7545   20.1131 C   0  0  2  0  0  0  0  0  0  0  0  0
    6.4792  -16.9101   20.2868 N   0  0  0  0  0  0  0  0  0  0  0  0
    8.5470  -16.1184   21.2833 C   0  0  0  0  0  0  0  0  0  0  0  0
    9.7820  -15.8931   21.2208 O   0  0  0  0  0  0  0  0  0  0  0  0
    9.0535  -19.5924   13.9450 C   0  0  0  0  0  0  0  0  0  0  0  0
    7.2331  -11.5662   27.6320 S   0  0  0  0  0  0  0  0  0  0  0  0
    6.6489  -12.4386   26.1519 C   0  0  0  0  0  0  0  0  0  0  0  0
    7.9348  -13.5329   25.4829 C   0  0  0  0  0  0  0  0  0  0  0  0
    7.3834  -14.1764   24.2332 C   0  0  1  0  0  0  0  0  0  0  0  0
    8.3918  -15.0958   23.5750 N   0  0  0  0  0  0  0  0  0  0  0  0
    7.7989  -15.7801   22.4269 C   0  0  0  0  0  0  0  0  0  0  0  0
    8.8030  -16.0882   24.6074 O   0  0  0  0  0  0  0  0  0  0  0  0
    7.9243  -16.8111   25.1260 N   0  0  0  0  0  0  0  0  0  0  0  0
   10.1516  -16.2439   25.0236 C   0  0  1  0  0  0  0  0  0  0  0  0
   10.6034  -17.2821   25.9209 C   0  0  0  0  0  0  0  0  0  0  0  0
   12.1076  -17.4168   25.9397 C   0  0  0  0  0  0  0  0  0  0  0  0
   12.5635  -18.3597   26.9793 C   0  0  0  0  0  0  0  0  0  0  0  0
   12.0862  -18.4381   28.2678 N   0  0  0  0  0  0  0  0  0  0  0  0
   12.7830  -19.4299   28.8550 C   0  0  0  0  0  0  0  0  0  0  0  0
   13.6617  -19.9613   27.9911 N   0  0  0  0  0  0  0  0  0  0  0  0
   13.5221  -19.3018   26.8452 C   0  0  0  0  0  0  0  0  0  0  0  0
   10.1706  -16.9196   27.2960 O   0  0  0  0  0  0  0  0  0  0  0  0
    9.9602  -17.9099   28.2596 O   0  0  0  0  0  0  0  0  0  0  0  0
  2  1  1  0
  2  4  1  0
  3  2  2  0
  4  5  1  0
  5  6  1  0
  7  6  1  0
  7  8  1  0
  8 10  1  0
  8  9  1  1
 10 11  2  0
 13 14  1  0
 13 12  1  0
 14 15  1  0
 16 15  1  6
 17 16  1  0
 17 10  1  0
 18 20  1  0
 18 16  1  0
 19 18  2  0
 21 20  1  0
 21 22  1  1
 23 27  1  0
 23 22  1  0
 24 23  2  0
 25 24  1  0
 25 26  1  0
 26 27  2  0
 28 21  1  0
 29 28  1  0
 30 28  2  0
M  END
$$$$
