RMH.pdb
     RDKit          3D

 30 30  0  0  1  0  0  0  0  0999 V2000
    6.4635  -20.0199   17.9080 N   0  0  0  0  0  0  0  0  0  0  0  0
    6.9500  -19.2951   16.7937 C   0  0  0  0  0  0  0  0  0  0  0  0
    7.2891  -19.8874   15.7042 N   0  0  0  0  0  0  0  0  0  0  0  0
    7.0810  -17.8712   16.8449 N   0  0  0  0  0  0  0  0  0  0  0  0
    7.0112  -17.1402   18.0915 C   0  0  0  0  0  0  0  0  0  0  0  0
    8.0604  -17.6845   19.0355 C   0  0  0  0  0  0  0  0  0  0  0  0
    8.7780  -16.5875   19.7733 C   0  0  0  0  0  0  0  0  0  0  0  0
    7.7764  -15.7671   20.5241 C   0  0  2  0  0  0  0  0  0  0  0  0
    6.8851  -15.0965   19.6239 N   0  0  0  0  0  0  0  0  0  0  0  0
    8.4121  -14.8423   21.4946 C   0  0  0  0  0  0  0  0  0  0  0  0
    9.3556  -14.1172   21.0897 O   0  0  0  0  0  0  0  0  0  0  0  0
    7.6772  -19.3808   14.9072 C   0  0  0  0  0  0  0  0  0  0  0  0
    5.9870  -12.7587   27.9888 S   0  0  0  0  0  0  0  0  0  0  0  0
    6.4500  -11.6784   26.6061 C   0  0  0  0  0  0  0  0  0  0  0  0
    7.8910  -12.3320   25.7146 C   0  0  0  0  0  0  0  0  0  0  0  0
    7.3789  -13.1319   24.5410 C   0  0  1  0  0  0  0  0  0  0  0  0
    8.5000  -13.8218   23.7908 N   0  0  0  0  0  0  0  0  0  0  0  0
    7.9657  -14.7844   22.8285 C   0  0  0  0  0  0  0  0  0  0  0  0
    9.3290  -14.5227   24.8112 O   0  0  0  0  0  0  0  0  0  0  0  0
    9.7491  -13.8704   25.7918 N   0  0  0  0  0  0  0  0  0  0  0  0
    9.6590  -15.9003   24.7127 C   0  0  1  0  0  0  0  0  0  0  0  0
   10.1798  -16.6847   25.8085 C   0  0  0  0  0  0  0  0  0  0  0  0
    9.1134  -17.5123   26.4860 C   0  0  0  0  0  0  0  0  0  0  0  0
    9.6729  -18.3664   27.5516 C   0  0  0  0  0  0  0  0  0  0  0  0
   10.9860  -18.3937   27.9626 N   0  0  0  0  0  0  0  0  0  0  0  0
   11.0408  -19.3108   28.9474 C   0  0  0  0  0  0  0  0  0  0  0  0
    9.8282  -19.8451   29.1590 N   0  0  0  0  0  0  0  0  0  0  0  0
    8.9958  -19.2628   28.3015 C   0  0  0  0  0  0  0  0  0  0  0  0
   11.1921  -17.6242   25.2590 O   0  0  0  0  0  0  0  0  0  0  0  0
   10.8752  -18.4644   24.1881 O   0  0  0  0  0  0  0  0  0  0  0  0
  2  1  1  0
  2  4  1  0
  3  2  2  0
  4  5  1  0
  5  6  1  0
  7  6  1  0
  7  8  1  0
  8 10  1  0
  8  9  1  6
 10 11  2  0
 13 14  1  0
 13 12  1  0
 14 15  1  0
 16 15  1  6
 17 16  1  0
 17 10  1  0
 18 20  1  0
 18 16  1  0
 19 18  2  0
 21 20  1  0
 21 22  1  1
 23 27  1  0
 23 22  1  0
 24 23  2  0
 25 24  1  0
 25 26  1  0
 26 27  2  0
 28 21  1  0
 29 28  1  0
 30 28  2  0
M  END
$$$$
