RMH.pdb
     RDKit          3D

 30 30  0  0  1  0  0  0  0  0999 V2000
   10.0876  -13.0499   18.0005 N   0  0  0  0  0  0  0  0  0  0  0  0
    9.1903  -12.6700   19.0271 C   0  0  0  0  0  0  0  0  0  0  0  0
    9.5341  -11.8378   19.9447 N   0  0  0  0  0  0  0  0  0  0  0  0
    7.8636  -13.2037   19.0767 N   0  0  0  0  0  0  0  0  0  0  0  0
    7.3499  -14.0756   18.0428 C   0  0  0  0  0  0  0  0  0  0  0  0
    8.1197  -15.3773   18.0756 C   0  0  0  0  0  0  0  0  0  0  0  0
    7.7276  -16.2344   19.2480 C   0  0  0  0  0  0  0  0  0  0  0  0
    8.6536  -17.4076   19.3270 C   0  0  2  0  0  0  0  0  0  0  0  0
    8.1361  -18.5199   18.5859 N   0  0  0  0  0  0  0  0  0  0  0  0
    9.0019  -17.7636   20.7245 C   0  0  0  0  0  0  0  0  0  0  0  0
    8.2510  -18.5656   21.3352 O   0  0  0  0  0  0  0  0  0  0  0  0
    8.8986  -11.5611   20.6945 C   0  0  0  0  0  0  0  0  0  0  0  0
   14.6814  -18.8878   23.6304 S   0  0  0  0  0  0  0  0  0  0  0  0
   13.7903  -19.9385   22.4493 C   0  0  0  0  0  0  0  0  0  0  0  0
   12.0430  -19.4579   22.3291 C   0  0  0  0  0  0  0  0  0  0  0  0
   11.9267  -18.0314   22.8100 C   0  0  2  0  0  0  0  0  0  0  0  0
   10.5039  -17.5175   22.7258 N   0  0  0  0  0  0  0  0  0  0  0  0
   10.1420  -17.2149   21.3418 C   0  0  0  0  0  0  0  0  0  0  0  0
   10.4469  -16.2798   23.5532 O   0  0  0  0  0  0  0  0  0  0  0  0
   10.5052  -15.1715   22.9770 N   0  0  0  0  0  0  0  0  0  0  0  0
   10.3290  -16.3109   24.9679 C   0  0  1  0  0  0  0  0  0  0  0  0
    9.6276  -15.3117   25.7404 C   0  0  0  0  0  0  0  0  0  0  0  0
    8.1696  -15.2052   25.3614 C   0  0  0  0  0  0  0  0  0  0  0  0
    7.4786  -14.1453   26.1210 C   0  0  0  0  0  0  0  0  0  0  0  0
    8.0480  -13.3244   27.0676 N   0  0  0  0  0  0  0  0  0  0  0  0
    7.0570  -12.5183   27.4946 C   0  0  0  0  0  0  0  0  0  0  0  0
    5.9115  -12.8049   26.8572 N   0  0  0  0  0  0  0  0  0  0  0  0
    6.1765  -13.8015   26.0181 C   0  0  0  0  0  0  0  0  0  0  0  0
    9.6890  -15.7118   27.1707 O   0  0  0  0  0  0  0  0  0  0  0  0
    9.6282  -14.7489   28.1818 O   0  0  0  0  0  0  0  0  0  0  0  0
  2  1  1  0
  2  4  1  0
  3  2  2  0
  4  5  1  0
  5  6  1  0
  7  6  1  0
  7  8  1  0
  8 10  1  0
  8  9  1  1
 10 11  2  0
 13 14  1  0
 13 12  1  0
 14 15  1  0
 16 15  1  6
 17 16  1  0
 17 10  1  0
 18 20  1  0
 18 16  1  0
 19 18  2  0
 21 20  1  0
 21 22  1  1
 23 27  1  0
 23 22  1  0
 24 23  2  0
 25 24  1  0
 25 26  1  0
 26 27  2  0
 28 21  1  0
 29 28  1  0
 30 28  2  0
M  END
$$$$
