RMH.pdb
     RDKit          3D

 30 30  0  0  1  0  0  0  0  0999 V2000
    7.4539  -12.6287   18.0195 N   0  0  0  0  0  0  0  0  0  0  0  0
    8.8229  -12.7961   18.3375 C   0  0  0  0  0  0  0  0  0  0  0  0
    9.5821  -11.7886   18.5853 N   0  0  0  0  0  0  0  0  0  0  0  0
    9.4092  -14.1001   18.3932 N   0  0  0  0  0  0  0  0  0  0  0  0
    8.6674  -15.2891   18.0339 C   0  0  0  0  0  0  0  0  0  0  0  0
    8.2584  -16.0098   19.2994 C   0  0  0  0  0  0  0  0  0  0  0  0
    9.4040  -16.7691   19.9108 C   0  0  0  0  0  0  0  0  0  0  0  0
    8.9259  -17.4620   21.1482 C   0  0  2  0  0  0  0  0  0  0  0  0
    7.5528  -17.8521   21.0193 N   0  0  0  0  0  0  0  0  0  0  0  0
    9.1832  -16.6721   22.3775 C   0  0  0  0  0  0  0  0  0  0  0  0
   10.3770  -16.4176   22.6778 O   0  0  0  0  0  0  0  0  0  0  0  0
   10.5803  -11.8925   18.7737 C   0  0  0  0  0  0  0  0  0  0  0  0
    6.3747  -11.2286   27.3240 S   0  0  0  0  0  0  0  0  0  0  0  0
    6.1905  -12.2969   25.8686 C   0  0  0  0  0  0  0  0  0  0  0  0
    7.4744  -13.5807   25.8281 C   0  0  0  0  0  0  0  0  0  0  0  0
    7.2837  -14.3789   24.5608 C   0  0  1  0  0  0  0  0  0  0  0  0
    8.3282  -15.4662   24.4113 N   0  0  0  0  0  0  0  0  0  0  0  0
    8.1161  -16.2242   23.1790 C   0  0  0  0  0  0  0  0  0  0  0  0
    8.1866  -16.3605   25.5945 O   0  0  0  0  0  0  0  0  0  0  0  0
    7.1342  -17.0239   25.7207 N   0  0  0  0  0  0  0  0  0  0  0  0
    9.1991  -16.4879   26.5818 C   0  0  1  0  0  0  0  0  0  0  0  0
    9.8019  -17.7450   26.9606 C   0  0  0  0  0  0  0  0  0  0  0  0
   10.5548  -18.3922   25.8225 C   0  0  0  0  0  0  0  0  0  0  0  0
   11.1807  -19.6652   26.2292 C   0  0  0  0  0  0  0  0  0  0  0  0
   10.5548  -20.7049   26.8783 N   0  0  0  0  0  0  0  0  0  0  0  0
   11.4989  -21.6506   27.0470 C   0  0  0  0  0  0  0  0  0  0  0  0
   12.6696  -21.2416   26.5341 N   0  0  0  0  0  0  0  0  0  0  0  0
   12.4678  -20.0259   26.0353 C   0  0  0  0  0  0  0  0  0  0  0  0
   10.7803  -17.4752   28.0467 O   0  0  0  0  0  0  0  0  0  0  0  0
   11.4099  -16.2312   28.1439 O   0  0  0  0  0  0  0  0  0  0  0  0
  2  1  1  0
  2  4  1  0
  3  2  2  0
  4  5  1  0
  5  6  1  0
  7  6  1  0
  7  8  1  0
  8 10  1  0
  8  9  1  6
 10 11  2  0
 13 14  1  0
 13 12  1  0
 14 15  1  0
 16 15  1  6
 17 16  1  0
 17 10  1  0
 18 20  1  0
 18 16  1  0
 19 18  2  0
 21 20  1  0
 21 22  1  1
 23 27  1  0
 23 22  1  0
 24 23  2  0
 25 24  1  0
 25 26  1  0
 26 27  2  0
 28 21  1  0
 29 28  1  0
 30 28  2  0
M  END
$$$$
