YTC.pdb
     RDKit          3D

 26 26  0  0  1  0  0  0  0  0999 V2000
   20.3489  -20.8812   17.4287 O   0  0  0  0  0  0  0  0  0  0  0  0
   19.3298  -20.1801   18.0611 C   0  0  0  0  0  0  0  0  0  0  0  0
   19.4583  -18.8269   18.3007 C   0  0  0  0  0  0  0  0  0  0  0  0
   18.4298  -18.1681   18.9281 C   0  0  0  0  0  0  0  0  0  0  0  0
   17.2688  -18.8191   19.3273 C   0  0  0  0  0  0  0  0  0  0  0  0
   16.1916  -18.0555   20.0007 C   0  0  0  0  0  0  0  0  0  0  0  0
   14.9239  -18.0997   19.1575 C   0  0  2  0  0  0  0  0  0  0  0  0
   15.2257  -17.4990   17.8749 N   0  0  0  0  0  0  0  0  0  0  0  0
   13.8728  -17.2902   19.8117 C   0  0  0  0  0  0  0  0  0  0  0  0
   13.6772  -16.0986   19.4765 O   0  0  0  0  0  0  0  0  0  0  0  0
   17.1656  -20.1595   19.0787 C   0  0  0  0  0  0  0  0  0  0  0  0
   18.1896  -20.8412   18.4483 C   0  0  0  0  0  0  0  0  0  0  0  0
   10.5144  -17.2862   19.6122 C   0  0  0  0  0  0  0  0  0  0  0  0
   10.6521  -17.5327   21.0947 C   0  0  1  0  0  0  0  0  0  0  0  0
   10.6045  -18.9193   21.3537 O   0  0  0  0  0  0  0  0  0  0  0  0
   12.0410  -17.0894   21.5342 C   0  0  2  0  0  0  0  0  0  0  0  0
   13.0577  -17.8409   20.8360 N   0  0  0  0  0  0  0  0  0  0  0  0
   12.1969  -17.2190   23.0189 C   0  0  0  0  0  0  0  0  0  0  0  0
   12.9406  -18.1337   23.4504 O   0  0  0  0  0  0  0  0  0  0  0  0
   11.5478  -16.3634   23.9257 N   0  0  0  0  0  0  0  0  0  0  0  0
   11.4811  -16.4967   25.3487 C   0  0  1  0  0  0  0  0  0  0  0  0
   10.6426  -15.4895   26.0539 C   0  0  0  0  0  0  0  0  0  0  0  0
   10.8513  -15.5343   27.8480 S   0  0  0  0  0  0  0  0  0  0  0  0
   11.1645  -17.8992   25.7498 C   0  0  0  0  0  0  0  0  0  0  0  0
   11.9386  -18.5794   26.6879 O   0  0  0  0  0  0  0  0  0  0  0  0
   10.2086  -18.4992   25.2637 O   0  0  0  0  0  0  0  0  0  0  0  0
  2  1  1  0
  2  3  2  0
  4  3  1  0
  5  4  2  0
  6  5  1  0
  7  6  1  0
  7  9  1  0
  7  8  1  6
  9 17  1  0
  9 10  2  0
 11 12  2  0
 11  5  1  0
 12  2  1  0
 14 13  1  6
 14 15  1  0
 16 14  1  0
 16 17  1  6
 18 16  1  0
 18 19  2  0
 20 18  1  0
 21 20  1  0
 21 22  1  6
 23 22  1  0
 24 21  1  0
 25 24  1  0
 26 24  2  0
M  END
$$$$
