YTC.pdb
     RDKit          3D

 26 26  0  0  1  0  0  0  0  0999 V2000
    5.8589  -10.0126   27.5729 O   0  0  0  0  0  0  0  0  0  0  0  0
    6.3724  -11.2130   27.0982 C   0  0  0  0  0  0  0  0  0  0  0  0
    7.1970  -11.2301   25.9915 C   0  0  0  0  0  0  0  0  0  0  0  0
    7.6851  -12.4359   25.5519 C   0  0  0  0  0  0  0  0  0  0  0  0
    7.3758  -13.6340   26.1844 C   0  0  0  0  0  0  0  0  0  0  0  0
    7.9325  -14.9055   25.6646 C   0  0  0  0  0  0  0  0  0  0  0  0
    6.9397  -15.5490   24.7053 C   0  0  2  0  0  0  0  0  0  0  0  0
    6.1098  -16.4553   25.4711 N   0  0  0  0  0  0  0  0  0  0  0  0
    7.6771  -16.3386   23.6949 C   0  0  0  0  0  0  0  0  0  0  0  0
    8.0692  -17.5015   23.9487 O   0  0  0  0  0  0  0  0  0  0  0  0
    6.5572  -13.5906   27.2785 C   0  0  0  0  0  0  0  0  0  0  0  0
    6.0552  -12.3871   27.7369 C   0  0  0  0  0  0  0  0  0  0  0  0
    7.2210  -15.5374   19.8283 C   0  0  0  0  0  0  0  0  0  0  0  0
    8.6854  -15.7991   20.0825 C   0  0  1  0  0  0  0  0  0  0  0  0
    9.3807  -14.5738   20.1678 O   0  0  0  0  0  0  0  0  0  0  0  0
    8.8332  -16.4413   21.4553 C   0  0  2  0  0  0  0  0  0  0  0  0
    7.9604  -15.8008   22.4114 N   0  0  0  0  0  0  0  0  0  0  0  0
   10.2595  -16.3991   21.9126 C   0  0  0  0  0  0  0  0  0  0  0  0
   10.6823  -15.3260   22.4086 O   0  0  0  0  0  0  0  0  0  0  0  0
   11.1219  -17.5037   21.8050 N   0  0  0  0  0  0  0  0  0  0  0  0
   12.5152  -17.5514   22.1268 C   0  0  1  0  0  0  0  0  0  0  0  0
   12.8831  -18.4161   23.2810 C   0  0  0  0  0  0  0  0  0  0  0  0
   11.8527  -18.1215   24.7356 S   0  0  0  0  0  0  0  0  0  0  0  0
   13.3451  -17.8167   20.9147 C   0  0  0  0  0  0  0  0  0  0  0  0
   14.7369  -17.7625   20.9605 O   0  0  0  0  0  0  0  0  0  0  0  0
   12.8252  -18.0918   19.8359 O   0  0  0  0  0  0  0  0  0  0  0  0
  2  1  1  0
  2  3  2  0
  4  3  1  0
  5  4  2  0
  6  5  1  0
  7  6  1  0
  7  9  1  0
  7  8  1  1
  9 17  1  0
  9 10  2  0
 11 12  2  0
 11  5  1  0
 12  2  1  0
 14 13  1  1
 14 15  1  0
 16 14  1  0
 16 17  1  1
 18 16  1  0
 18 19  2  0
 20 18  1  0
 21 20  1  0
 21 22  1  1
 23 22  1  0
 24 21  1  0
 25 24  1  0
 26 24  2  0
M  END
$$$$
