YTC.pdb
     RDKit          3D

 26 26  0  0  1  0  0  0  0  0999 V2000
    8.0208  -12.8450   16.4352 O   0  0  0  0  0  0  0  0  0  0  0  0
    8.0235  -13.3399   17.7334 C   0  0  0  0  0  0  0  0  0  0  0  0
    9.0435  -14.1640   18.1638 C   0  0  0  0  0  0  0  0  0  0  0  0
    9.0117  -14.6334   19.4538 C   0  0  0  0  0  0  0  0  0  0  0  0
    7.9885  -14.3056   20.3352 C   0  0  0  0  0  0  0  0  0  0  0  0
    8.0072  -14.8424   21.7166 C   0  0  0  0  0  0  0  0  0  0  0  0
    8.2791  -16.3406   21.6838 C   0  0  2  0  0  0  0  0  0  0  0  0
    7.1274  -16.9855   21.0884 N   0  0  0  0  0  0  0  0  0  0  0  0
    8.4259  -16.8416   23.0679 C   0  0  0  0  0  0  0  0  0  0  0  0
    7.4193  -17.0920   23.7711 O   0  0  0  0  0  0  0  0  0  0  0  0
    6.9897  -13.4877   19.8849 C   0  0  0  0  0  0  0  0  0  0  0  0
    7.0032  -13.0045   18.5900 C   0  0  0  0  0  0  0  0  0  0  0  0
   10.0848  -19.8501   23.9548 C   0  0  0  0  0  0  0  0  0  0  0  0
   10.7643  -18.8681   24.8777 C   0  0  1  0  0  0  0  0  0  0  0  0
   11.9922  -18.4574   24.3160 O   0  0  0  0  0  0  0  0  0  0  0  0
    9.9156  -17.6061   24.9545 C   0  0  2  0  0  0  0  0  0  0  0  0
    9.7102  -17.0522   23.6366 N   0  0  0  0  0  0  0  0  0  0  0  0
   10.5393  -16.5995   25.8727 C   0  0  0  0  0  0  0  0  0  0  0  0
   10.9366  -15.5192   25.3716 O   0  0  0  0  0  0  0  0  0  0  0  0
   10.6900  -16.8242   27.2520 N   0  0  0  0  0  0  0  0  0  0  0  0
   10.6700  -15.8477   28.2975 C   0  0  1  0  0  0  0  0  0  0  0  0
    9.5327  -14.8883   28.2644 C   0  0  0  0  0  0  0  0  0  0  0  0
   10.0005  -13.2263   28.7969 S   0  0  0  0  0  0  0  0  0  0  0  0
   10.8575  -16.4801   29.6366 C   0  0  0  0  0  0  0  0  0  0  0  0
   11.6747  -15.9014   30.6058 O   0  0  0  0  0  0  0  0  0  0  0  0
   10.2954  -17.5336   29.9267 O   0  0  0  0  0  0  0  0  0  0  0  0
  2  1  1  0
  2  3  2  0
  4  3  1  0
  5  4  2  0
  6  5  1  0
  7  6  1  0
  7  9  1  0
  7  8  1  1
  9 17  1  0
  9 10  2  0
 11 12  2  0
 11  5  1  0
 12  2  1  0
 14 13  1  6
 14 15  1  0
 16 14  1  0
 16 17  1  6
 18 16  1  0
 18 19  2  0
 20 18  1  0
 21 20  1  0
 21 22  1  1
 23 22  1  0
 24 21  1  0
 25 24  1  0
 26 24  2  0
M  END
$$$$
