YTC.pdb
     RDKit          3D

 26 26  0  0  1  0  0  0  0  0999 V2000
    3.4825  -27.4106   37.8735 O   0  0  0  0  0  0  0  0  0  0  0  0
    4.6061  -27.0457   37.1424 C   0  0  0  0  0  0  0  0  0  0  0  0
    4.4727  -26.3408   35.9633 C   0  0  0  0  0  0  0  0  0  0  0  0
    5.6064  -25.9980   35.2686 C   0  0  0  0  0  0  0  0  0  0  0  0
    6.8782  -26.3374   35.7144 C   0  0  0  0  0  0  0  0  0  0  0  0
    8.0660  -25.9399   34.9220 C   0  0  0  0  0  0  0  0  0  0  0  0
    8.1593  -26.7982   33.6671 C   0  0  2  0  0  0  0  0  0  0  0  0
    8.3804  -28.1672   34.0840 N   0  0  0  0  0  0  0  0  0  0  0  0
    9.3236  -26.3653   32.8639 C   0  0  0  0  0  0  0  0  0  0  0  0
   10.4856  -26.7170   33.1747 O   0  0  0  0  0  0  0  0  0  0  0  0
    6.9838  -27.0356   36.8850 C   0  0  0  0  0  0  0  0  0  0  0  0
    5.8549  -27.3904   37.5994 C   0  0  0  0  0  0  0  0  0  0  0  0
    9.2754  -26.3415   28.9550 C   0  0  0  0  0  0  0  0  0  0  0  0
    9.7780  -24.9982   29.4246 C   0  0  1  0  0  0  0  0  0  0  0  0
    8.7093  -24.0771   29.4652 O   0  0  0  0  0  0  0  0  0  0  0  0
   10.2478  -25.1322   30.8669 C   0  0  2  0  0  0  0  0  0  0  0  0
    9.1563  -25.5404   31.7199 N   0  0  0  0  0  0  0  0  0  0  0  0
   10.8609  -23.8526   31.3487 C   0  0  0  0  0  0  0  0  0  0  0  0
   10.4670  -23.3943   32.4490 O   0  0  0  0  0  0  0  0  0  0  0  0
   11.8452  -23.1632   30.6195 N   0  0  0  0  0  0  0  0  0  0  0  0
   12.4652  -21.9195   30.9598 C   0  0  1  0  0  0  0  0  0  0  0  0
   13.2083  -21.8988   32.2491 C   0  0  0  0  0  0  0  0  0  0  0  0
   14.0860  -20.3445   32.5289 S   0  0  0  0  0  0  0  0  0  0  0  0
   13.2644  -21.3800   29.8202 C   0  0  0  0  0  0  0  0  0  0  0  0
   13.4795  -22.1284   28.6645 O   0  0  0  0  0  0  0  0  0  0  0  0
   13.7587  -20.2559   29.8661 O   0  0  0  0  0  0  0  0  0  0  0  0
  2  1  1  0
  2  3  2  0
  4  3  1  0
  5  4  2  0
  6  5  1  0
  7  6  1  0
  7  9  1  0
  7  8  1  1
  9 17  1  0
  9 10  2  0
 11 12  2  0
 11  5  1  0
 12  2  1  0
 14 13  1  1
 14 15  1  0
 16 14  1  0
 16 17  1  1
 18 16  1  0
 18 19  2  0
 20 18  1  0
 21 20  1  0
 21 22  1  1
 23 22  1  0
 24 21  1  0
 25 24  1  0
 26 24  2  0
M  END
$$$$
