YTC.pdb
     RDKit          3D

 26 26  0  0  1  0  0  0  0  0999 V2000
    7.4637  -12.7254   16.3258 O   0  0  0  0  0  0  0  0  0  0  0  0
    7.5496  -13.2904   17.5921 C   0  0  0  0  0  0  0  0  0  0  0  0
    6.7283  -14.3424   17.9438 C   0  0  0  0  0  0  0  0  0  0  0  0
    6.8424  -14.8746   19.2044 C   0  0  0  0  0  0  0  0  0  0  0  0
    7.7553  -14.3886   20.1327 C   0  0  0  0  0  0  0  0  0  0  0  0
    7.8335  -15.0033   21.4791 C   0  0  0  0  0  0  0  0  0  0  0  0
    8.6646  -16.2781   21.4163 C   0  0  2  0  0  0  0  0  0  0  0  0
    7.9485  -17.2321   20.5955 N   0  0  0  0  0  0  0  0  0  0  0  0
    8.7954  -16.8444   22.7767 C   0  0  0  0  0  0  0  0  0  0  0  0
    8.1686  -17.8785   23.1055 O   0  0  0  0  0  0  0  0  0  0  0  0
    8.5574  -13.3460   19.7602 C   0  0  0  0  0  0  0  0  0  0  0  0
    8.4583  -12.7961   18.4960 C   0  0  0  0  0  0  0  0  0  0  0  0
   10.0973  -19.0284   23.7458 C   0  0  0  0  0  0  0  0  0  0  0  0
   10.8969  -18.1158   24.6431 C   0  0  1  0  0  0  0  0  0  0  0  0
   12.0209  -17.6255   23.9444 O   0  0  0  0  0  0  0  0  0  0  0  0
   10.0548  -16.8876   24.9617 C   0  0  2  0  0  0  0  0  0  0  0  0
    9.6339  -16.2320   23.7457 N   0  0  0  0  0  0  0  0  0  0  0  0
   10.8042  -15.9443   25.8529 C   0  0  0  0  0  0  0  0  0  0  0  0
   11.6278  -15.1636   25.3159 O   0  0  0  0  0  0  0  0  0  0  0  0
   10.6161  -15.9079   27.2453 N   0  0  0  0  0  0  0  0  0  0  0  0
   10.9177  -14.8276   28.1337 C   0  0  1  0  0  0  0  0  0  0  0  0
   10.1161  -13.5886   27.9406 C   0  0  0  0  0  0  0  0  0  0  0  0
    8.3374  -13.9029   27.8963 S   0  0  0  0  0  0  0  0  0  0  0  0
   10.9485  -15.2838   29.5547 C   0  0  0  0  0  0  0  0  0  0  0  0
   10.5688  -16.5763   29.9116 O   0  0  0  0  0  0  0  0  0  0  0  0
   11.3108  -14.5317   30.4563 O   0  0  0  0  0  0  0  0  0  0  0  0
  2  1  1  0
  2  3  2  0
  4  3  1  0
  5  4  2  0
  6  5  1  0
  7  6  1  0
  7  9  1  0
  7  8  1  6
  9 17  1  0
  9 10  2  0
 11 12  2  0
 11  5  1  0
 12  2  1  0
 14 13  1  6
 14 15  1  0
 16 14  1  0
 16 17  1  6
 18 16  1  0
 18 19  2  0
 20 18  1  0
 21 20  1  0
 21 22  1  1
 23 22  1  0
 24 21  1  0
 25 24  1  0
 26 24  2  0
M  END
$$$$
