YTC.pdb
     RDKit          3D

 26 26  0  0  1  0  0  0  0  0999 V2000
    8.0598  -12.6246   16.4645 O   0  0  0  0  0  0  0  0  0  0  0  0
    8.0241  -13.1167   17.7632 C   0  0  0  0  0  0  0  0  0  0  0  0
    6.8176  -13.2882   18.4114 C   0  0  0  0  0  0  0  0  0  0  0  0
    6.8225  -13.7769   19.6946 C   0  0  0  0  0  0  0  0  0  0  0  0
    7.9996  -14.1026   20.3576 C   0  0  0  0  0  0  0  0  0  0  0  0
    7.9430  -14.6265   21.7430 C   0  0  0  0  0  0  0  0  0  0  0  0
    8.4399  -16.0659   21.7705 C   0  0  2  0  0  0  0  0  0  0  0  0
    7.4643  -16.8832   21.0798 N   0  0  0  0  0  0  0  0  0  0  0  0
    8.5213  -16.5286   23.1732 C   0  0  0  0  0  0  0  0  0  0  0  0
    7.4891  -16.8607   23.8015 O   0  0  0  0  0  0  0  0  0  0  0  0
    9.1815  -13.9238   19.6942 C   0  0  0  0  0  0  0  0  0  0  0  0
    9.1983  -13.4331   18.4021 C   0  0  0  0  0  0  0  0  0  0  0  0
   10.1683  -19.4235   24.2925 C   0  0  0  0  0  0  0  0  0  0  0  0
   10.8134  -18.3747   25.1651 C   0  0  1  0  0  0  0  0  0  0  0  0
   12.0275  -17.9514   24.5831 O   0  0  0  0  0  0  0  0  0  0  0  0
    9.9228  -17.1396   25.1795 C   0  0  2  0  0  0  0  0  0  0  0  0
    9.7700  -16.6090   23.8450 N   0  0  0  0  0  0  0  0  0  0  0  0
   10.4654  -16.1022   26.1148 C   0  0  0  0  0  0  0  0  0  0  0  0
   11.3226  -15.3023   25.6659 O   0  0  0  0  0  0  0  0  0  0  0  0
   10.0514  -15.9997   27.4541 N   0  0  0  0  0  0  0  0  0  0  0  0
   10.5653  -15.1170   28.4561 C   0  0  1  0  0  0  0  0  0  0  0  0
    9.6353  -14.0501   28.9164 C   0  0  0  0  0  0  0  0  0  0  0  0
    8.3386  -13.6818   27.7132 S   0  0  0  0  0  0  0  0  0  0  0  0
   11.1835  -15.8747   29.5838 C   0  0  0  0  0  0  0  0  0  0  0  0
   11.8394  -15.2213   30.6254 O   0  0  0  0  0  0  0  0  0  0  0  0
   11.1331  -17.1017   29.6288 O   0  0  0  0  0  0  0  0  0  0  0  0
  2  1  1  0
  2  3  2  0
  4  3  1  0
  5  4  2  0
  6  5  1  0
  7  6  1  0
  7  9  1  0
  7  8  1  6
  9 17  1  0
  9 10  2  0
 11 12  2  0
 11  5  1  0
 12  2  1  0
 14 13  1  6
 14 15  1  0
 16 14  1  0
 16 17  1  6
 18 16  1  0
 18 19  2  0
 20 18  1  0
 21 20  1  0
 21 22  1  1
 23 22  1  0
 24 21  1  0
 25 24  1  0
 26 24  2  0
M  END
$$$$
