YTC.pdb
     RDKit          3D

 26 26  0  0  1  0  0  0  0  0999 V2000
   18.8321  -14.4055   17.5566 O   0  0  0  0  0  0  0  0  0  0  0  0
   17.5230  -14.3766   18.0209 C   0  0  0  0  0  0  0  0  0  0  0  0
   16.6604  -13.3788   17.6144 C   0  0  0  0  0  0  0  0  0  0  0  0
   15.3740  -13.3835   18.0946 C   0  0  0  0  0  0  0  0  0  0  0  0
   14.9162  -14.3579   18.9735 C   0  0  0  0  0  0  0  0  0  0  0  0
   13.5164  -14.3118   19.4587 C   0  0  0  0  0  0  0  0  0  0  0  0
   12.7011  -15.4079   18.7852 C   0  0  2  0  0  0  0  0  0  0  0  0
   12.4425  -14.9918   17.4226 N   0  0  0  0  0  0  0  0  0  0  0  0
   11.4029  -15.5491   19.4802 C   0  0  0  0  0  0  0  0  0  0  0  0
   10.3238  -15.4822   18.8465 O   0  0  0  0  0  0  0  0  0  0  0  0
   15.7898  -15.3354   19.3611 C   0  0  0  0  0  0  0  0  0  0  0  0
   17.0889  -15.3486   18.8892 C   0  0  0  0  0  0  0  0  0  0  0  0
    9.3562  -17.1947   19.5268 C   0  0  0  0  0  0  0  0  0  0  0  0
    9.5023  -17.3568   21.0201 C   0  0  1  0  0  0  0  0  0  0  0  0
   10.4280  -18.3849   21.2997 O   0  0  0  0  0  0  0  0  0  0  0  0
   10.1265  -16.0891   21.5878 C   0  0  2  0  0  0  0  0  0  0  0  0
   11.3444  -15.7640   20.8829 N   0  0  0  0  0  0  0  0  0  0  0  0
   10.3746  -16.2298   23.0589 C   0  0  0  0  0  0  0  0  0  0  0  0
   11.5465  -16.4819   23.4320 O   0  0  0  0  0  0  0  0  0  0  0  0
    9.3541  -16.0907   24.0154 N   0  0  0  0  0  0  0  0  0  0  0  0
    9.5024  -16.0002   25.4356 C   0  0  1  0  0  0  0  0  0  0  0  0
    8.4808  -15.1797   26.1414 C   0  0  0  0  0  0  0  0  0  0  0  0
    7.9053  -13.7771   25.1585 S   0  0  0  0  0  0  0  0  0  0  0  0
    9.6910  -17.3474   26.0501 C   0  0  0  0  0  0  0  0  0  0  0  0
    9.9851  -17.4940   27.4043 O   0  0  0  0  0  0  0  0  0  0  0  0
    9.5923  -18.3720   25.3789 O   0  0  0  0  0  0  0  0  0  0  0  0
  2  1  1  0
  2  3  2  0
  4  3  1  0
  5  4  2  0
  6  5  1  0
  7  6  1  0
  7  9  1  0
  7  8  1  6
  9 17  1  0
  9 10  2  0
 11 12  2  0
 11  5  1  0
 12  2  1  0
 14 13  1  6
 14 15  1  0
 16 14  1  0
 16 17  1  6
 18 16  1  0
 18 19  2  0
 20 18  1  0
 21 20  1  0
 21 22  1  1
 23 22  1  0
 24 21  1  0
 25 24  1  0
 26 24  2  0
M  END
$$$$
