YTC.pdb
     RDKit          3D

 26 26  0  0  1  0  0  0  0  0999 V2000
   10.3520  -14.1397   31.1089 O   0  0  0  0  0  0  0  0  0  0  0  0
   10.3810  -14.5099   29.7702 C   0  0  0  0  0  0  0  0  0  0  0  0
   10.0126  -13.6111   28.7896 C   0  0  0  0  0  0  0  0  0  0  0  0
   10.0542  -14.0135   27.4775 C   0  0  0  0  0  0  0  0  0  0  0  0
   10.4540  -15.2922   27.1082 C   0  0  0  0  0  0  0  0  0  0  0  0
   10.4790  -15.6702   25.6753 C   0  0  0  0  0  0  0  0  0  0  0  0
    9.0677  -15.9942   25.2029 C   0  0  2  0  0  0  0  0  0  0  0  0
    8.4670  -16.8781   26.1800 N   0  0  0  0  0  0  0  0  0  0  0  0
    9.1368  -16.7114   23.9110 C   0  0  0  0  0  0  0  0  0  0  0  0
    8.7959  -17.9142   23.8243 O   0  0  0  0  0  0  0  0  0  0  0  0
   10.8140  -16.1639   28.0980 C   0  0  0  0  0  0  0  0  0  0  0  0
   10.7791  -15.7785   29.4249 C   0  0  0  0  0  0  0  0  0  0  0  0
    7.7799  -15.5265   20.6426 C   0  0  0  0  0  0  0  0  0  0  0  0
    9.2150  -15.8754   20.3320 C   0  0  1  0  0  0  0  0  0  0  0  0
   10.0012  -14.7032   20.3318 O   0  0  0  0  0  0  0  0  0  0  0  0
    9.7647  -16.7276   21.4680 C   0  0  2  0  0  0  0  0  0  0  0  0
    9.5907  -16.0569   22.7351 N   0  0  0  0  0  0  0  0  0  0  0  0
   11.2043  -17.0684   21.2300 C   0  0  0  0  0  0  0  0  0  0  0  0
   12.0737  -16.3181   21.7373 O   0  0  0  0  0  0  0  0  0  0  0  0
   11.6031  -18.1818   20.4703 N   0  0  0  0  0  0  0  0  0  0  0  0
   12.9333  -18.6760   20.2874 C   0  0  1  0  0  0  0  0  0  0  0  0
   13.0444  -20.1164   19.9295 C   0  0  0  0  0  0  0  0  0  0  0  0
   12.2851  -21.2051   21.1554 S   0  0  0  0  0  0  0  0  0  0  0  0
   13.7235  -17.7901   19.3824 C   0  0  0  0  0  0  0  0  0  0  0  0
   15.0450  -17.4524   19.6679 O   0  0  0  0  0  0  0  0  0  0  0  0
   13.2318  -17.3300   18.3546 O   0  0  0  0  0  0  0  0  0  0  0  0
  2  1  1  0
  2  3  2  0
  4  3  1  0
  5  4  2  0
  6  5  1  0
  7  6  1  0
  7  9  1  0
  7  8  1  1
  9 17  1  0
  9 10  2  0
 11 12  2  0
 11  5  1  0
 12  2  1  0
 14 13  1  1
 14 15  1  0
 16 14  1  0
 16 17  1  1
 18 16  1  0
 18 19  2  0
 20 18  1  0
 21 20  1  0
 21 22  1  6
 23 22  1  0
 24 21  1  0
 25 24  1  0
 26 24  2  0
M  END
$$$$
