YTC.pdb
     RDKit          3D

 26 26  0  0  1  0  0  0  0  0999 V2000
    7.6586  -12.4769   16.9062 O   0  0  0  0  0  0  0  0  0  0  0  0
    7.7677  -13.0482   18.1678 C   0  0  0  0  0  0  0  0  0  0  0  0
    6.6588  -13.1582   18.9822 C   0  0  0  0  0  0  0  0  0  0  0  0
    6.8059  -13.7286   20.2225 C   0  0  0  0  0  0  0  0  0  0  0  0
    8.0316  -14.1964   20.6809 C   0  0  0  0  0  0  0  0  0  0  0  0
    8.1298  -14.8032   22.0296 C   0  0  0  0  0  0  0  0  0  0  0  0
    8.5763  -16.2545   21.9106 C   0  0  2  0  0  0  0  0  0  0  0  0
    7.5041  -16.9960   21.2802 N   0  0  0  0  0  0  0  0  0  0  0  0
    8.7916  -16.8126   23.2635 C   0  0  0  0  0  0  0  0  0  0  0  0
    7.8322  -17.2580   23.9355 O   0  0  0  0  0  0  0  0  0  0  0  0
    9.1148  -14.0761   19.8556 C   0  0  0  0  0  0  0  0  0  0  0  0
    8.9879  -13.5049   18.6033 C   0  0  0  0  0  0  0  0  0  0  0  0
   10.9982  -19.5365   23.8943 C   0  0  0  0  0  0  0  0  0  0  0  0
   11.4515  -18.5524   24.9447 C   0  0  1  0  0  0  0  0  0  0  0  0
   12.5962  -17.8632   24.4899 O   0  0  0  0  0  0  0  0  0  0  0  0
   10.3776  -17.4848   25.1062 C   0  0  2  0  0  0  0  0  0  0  0  0
   10.0902  -16.8587   23.8369 N   0  0  0  0  0  0  0  0  0  0  0  0
   10.7854  -16.4693   26.1298 C   0  0  0  0  0  0  0  0  0  0  0  0
   11.0136  -15.3000   25.7337 O   0  0  0  0  0  0  0  0  0  0  0  0
   10.9175  -16.7805   27.4941 N   0  0  0  0  0  0  0  0  0  0  0  0
   10.6751  -15.9167   28.6086 C   0  0  1  0  0  0  0  0  0  0  0  0
    9.3962  -15.1564   28.5712 C   0  0  0  0  0  0  0  0  0  0  0  0
    9.5519  -13.5610   27.7375 S   0  0  0  0  0  0  0  0  0  0  0  0
   10.8914  -16.6259   29.9042 C   0  0  0  0  0  0  0  0  0  0  0  0
   11.4873  -15.9888   30.9910 O   0  0  0  0  0  0  0  0  0  0  0  0
   10.5498  -17.7968   30.0529 O   0  0  0  0  0  0  0  0  0  0  0  0
  2  1  1  0
  2  3  2  0
  4  3  1  0
  5  4  2  0
  6  5  1  0
  7  6  1  0
  7  9  1  0
  7  8  1  1
  9 17  1  0
  9 10  2  0
 11 12  2  0
 11  5  1  0
 12  2  1  0
 14 13  1  6
 14 15  1  0
 16 14  1  0
 16 17  1  6
 18 16  1  0
 18 19  2  0
 20 18  1  0
 21 20  1  0
 21 22  1  1
 23 22  1  0
 24 21  1  0
 25 24  1  0
 26 24  2  0
M  END
$$$$
