FHF.pdb
     RDKit          3D

 33 35  0  0  1  0  0  0  0  0999 V2000
    6.9808  -17.5468   18.4630 N   0  0  0  0  0  0  0  0  0  0  0  0
    7.5298  -16.5042   19.2718 C   0  0  1  0  0  0  0  0  0  0  0  0
    6.7000  -15.2581   19.1244 C   0  0  0  0  0  0  0  0  0  0  0  0
    7.2915  -14.1381   19.8690 C   0  0  0  0  0  0  0  0  0  0  0  0
    8.1275  -13.2684   19.2164 C   0  0  0  0  0  0  0  0  0  0  0  0
    8.7028  -12.2059   19.8761 C   0  0  0  0  0  0  0  0  0  0  0  0
    8.4165  -12.0299   21.2321 C   0  0  0  0  0  0  0  0  0  0  0  0
    7.5706  -12.9029   21.9089 C   0  0  0  0  0  0  0  0  0  0  0  0
    7.0125  -13.9582   21.2103 C   0  0  0  0  0  0  0  0  0  0  0  0
    7.6848  -16.9016   20.6948 C   0  0  0  0  0  0  0  0  0  0  0  0
    6.7270  -17.4603   21.2619 O   0  0  0  0  0  0  0  0  0  0  0  0
    8.8603  -16.6791   21.4367 N   0  0  0  0  0  0  0  0  0  0  0  0
    9.1865  -17.2993   22.6915 C   0  0  1  0  0  0  0  0  0  0  0  0
    9.8308  -18.6433   22.5490 C   0  0  0  0  0  0  0  0  0  0  0  0
   10.0410  -19.3678   23.7958 C   0  0  0  0  0  0  0  0  0  0  0  0
    9.2535  -19.4710   24.8981 C   0  0  0  0  0  0  0  0  0  0  0  0
    9.8839  -20.2544   25.7876 N   0  0  0  0  0  0  0  0  0  0  0  0
   11.0628  -20.6457   25.2539 C   0  0  0  0  0  0  0  0  0  0  0  0
   11.1634  -20.1043   24.0322 N   0  0  0  0  0  0  0  0  0  0  0  0
    9.8822  -16.3761   23.6173 C   0  0  0  0  0  0  0  0  0  0  0  0
   10.8774  -15.6980   23.2258 O   0  0  0  0  0  0  0  0  0  0  0  0
    9.4831  -16.1989   24.9699 N   0  0  0  0  0  0  0  0  0  0  0  0
   10.4391  -15.7340   25.9579 C   0  0  1  0  0  0  0  0  0  0  0  0
   10.0301  -14.3297   26.3393 C   0  0  0  0  0  0  0  0  0  0  0  0
    8.5976  -14.1808   26.6482 C   0  0  0  0  0  0  0  0  0  0  0  0
    8.0650  -12.9749   27.0909 C   0  0  0  0  0  0  0  0  0  0  0  0
    6.7204  -12.9032   27.3488 C   0  0  0  0  0  0  0  0  0  0  0  0
    5.8449  -13.9556   27.1988 C   0  0  0  0  0  0  0  0  0  0  0  0
    6.3701  -15.1542   26.7594 C   0  0  0  0  0  0  0  0  0  0  0  0
    7.7165  -15.2532   26.4931 C   0  0  0  0  0  0  0  0  0  0  0  0
   10.3646  -16.5972   27.1529 C   0  0  0  0  0  0  0  0  0  0  0  0
    9.5115  -17.6940   27.2366 O   0  0  0  0  0  0  0  0  0  0  0  0
   11.0910  -16.3489   28.1458 O   0  0  0  0  0  0  0  0  0  0  0  0
  2  1  1  6
  2  3  1  0
  3  4  1  0
  4  5  2  0
  5  6  1  0
  7  6  2  0
  8  7  1  0
  9  4  1  0
  9  8  2  0
 10  2  1  0
 11 10  2  0
 12 10  1  0
 13 20  1  0
 13 12  1  0
 13 14  1  6
 15 14  1  0
 16 15  2  0
 17 18  1  0
 17 16  1  0
 18 19  2  0
 19 15  1  0
 20 22  1  0
 21 20  2  0
 22 23  1  0
 23 31  1  0
 23 24  1  1
 25 24  1  0
 26 25  2  0
 27 26  1  0
 28 27  2  0
 28 29  1  0
 29 30  2  0
 30 25  1  0
 31 33  2  0
 31 32  1  0
M  END
$$$$
