FHF.pdb
     RDKit          3D

 33 35  0  0  1  0  0  0  0  0999 V2000
    5.5926  -17.8560   21.1429 N   0  0  0  0  0  0  0  0  0  0  0  0
    6.5283  -16.7810   21.2488 C   0  0  1  0  0  0  0  0  0  0  0  0
    5.7980  -15.5012   21.5520 C   0  0  0  0  0  0  0  0  0  0  0  0
    6.7028  -14.3461   21.4779 C   0  0  0  0  0  0  0  0  0  0  0  0
    7.0355  -13.8348   20.2495 C   0  0  0  0  0  0  0  0  0  0  0  0
    7.8797  -12.7535   20.1350 C   0  0  0  0  0  0  0  0  0  0  0  0
    8.3943  -12.1836   21.3021 C   0  0  0  0  0  0  0  0  0  0  0  0
    8.0668  -12.6900   22.5559 C   0  0  0  0  0  0  0  0  0  0  0  0
    7.2152  -13.7776   22.6284 C   0  0  0  0  0  0  0  0  0  0  0  0
    7.6055  -17.0514   22.2355 C   0  0  0  0  0  0  0  0  0  0  0  0
    7.2886  -17.5175   23.3460 O   0  0  0  0  0  0  0  0  0  0  0  0
    8.9681  -16.8077   21.9796 N   0  0  0  0  0  0  0  0  0  0  0  0
   10.0632  -17.2371   22.8053 C   0  0  1  0  0  0  0  0  0  0  0  0
   11.3395  -17.4470   22.0510 C   0  0  0  0  0  0  0  0  0  0  0  0
   12.4366  -18.0085   22.8285 C   0  0  0  0  0  0  0  0  0  0  0  0
   13.4195  -17.3934   23.5367 C   0  0  0  0  0  0  0  0  0  0  0  0
   14.1957  -18.3433   24.0822 N   0  0  0  0  0  0  0  0  0  0  0  0
   13.7092  -19.5525   23.7231 C   0  0  0  0  0  0  0  0  0  0  0  0
   12.6302  -19.3520   22.9540 N   0  0  0  0  0  0  0  0  0  0  0  0
   10.1998  -16.4238   24.0355 C   0  0  0  0  0  0  0  0  0  0  0  0
   10.7521  -15.2849   23.9984 O   0  0  0  0  0  0  0  0  0  0  0  0
    9.7290  -16.8624   25.3029 N   0  0  0  0  0  0  0  0  0  0  0  0
   10.0742  -16.1255   26.5045 C   0  0  1  0  0  0  0  0  0  0  0  0
    8.7747  -15.7492   27.1787 C   0  0  0  0  0  0  0  0  0  0  0  0
    8.0688  -14.6231   26.5435 C   0  0  0  0  0  0  0  0  0  0  0  0
    6.9148  -14.8125   25.7912 C   0  0  0  0  0  0  0  0  0  0  0  0
    6.3017  -13.7182   25.2377 C   0  0  0  0  0  0  0  0  0  0  0  0
    6.7531  -12.4244   25.3750 C   0  0  0  0  0  0  0  0  0  0  0  0
    7.8985  -12.2327   26.1213 C   0  0  0  0  0  0  0  0  0  0  0  0
    8.5333  -13.3140   26.6880 C   0  0  0  0  0  0  0  0  0  0  0  0
   10.8482  -16.9996   27.4076 C   0  0  0  0  0  0  0  0  0  0  0  0
   11.5245  -16.5171   28.5245 O   0  0  0  0  0  0  0  0  0  0  0  0
   10.9131  -18.2315   27.1763 O   0  0  0  0  0  0  0  0  0  0  0  0
  2  1  1  1
  2  3  1  0
  3  4  1  0
  4  5  2  0
  5  6  1  0
  7  6  2  0
  8  7  1  0
  9  4  1  0
  9  8  2  0
 10  2  1  0
 11 10  2  0
 12 10  1  0
 13 20  1  0
 13 12  1  0
 13 14  1  6
 15 14  1  0
 16 15  2  0
 17 18  1  0
 17 16  1  0
 18 19  2  0
 19 15  1  0
 20 22  1  0
 21 20  2  0
 22 23  1  0
 23 31  1  0
 23 24  1  1
 25 24  1  0
 26 25  2  0
 27 26  1  0
 28 27  2  0
 28 29  1  0
 29 30  2  0
 30 25  1  0
 31 33  2  0
 31 32  1  0
M  END
$$$$
