FHF.pdb
     RDKit          3D

 33 35  0  0  1  0  0  0  0  0999 V2000
    5.9059  -18.1525   25.8987 N   0  0  0  0  0  0  0  0  0  0  0  0
    6.4273  -16.8960   25.4607 C   0  0  1  0  0  0  0  0  0  0  0  0
    6.5698  -15.9687   26.6366 C   0  0  0  0  0  0  0  0  0  0  0  0
    6.4268  -14.5659   26.2239 C   0  0  0  0  0  0  0  0  0  0  0  0
    7.5018  -13.7219   26.3389 C   0  0  0  0  0  0  0  0  0  0  0  0
    7.4110  -12.4005   25.9637 C   0  0  0  0  0  0  0  0  0  0  0  0
    6.1945  -11.9331   25.4603 C   0  0  0  0  0  0  0  0  0  0  0  0
    5.0945  -12.7760   25.3371 C   0  0  0  0  0  0  0  0  0  0  0  0
    5.2264  -14.0971   25.7251 C   0  0  0  0  0  0  0  0  0  0  0  0
    7.6994  -17.0331   24.7058 C   0  0  0  0  0  0  0  0  0  0  0  0
    8.5611  -17.8232   25.1349 O   0  0  0  0  0  0  0  0  0  0  0  0
    7.9816  -16.3150   23.5283 N   0  0  0  0  0  0  0  0  0  0  0  0
    9.2012  -16.3959   22.7723 C   0  0  1  0  0  0  0  0  0  0  0  0
    9.1006  -15.8001   21.4023 C   0  0  0  0  0  0  0  0  0  0  0  0
   10.2590  -16.0136   20.5444 C   0  0  0  0  0  0  0  0  0  0  0  0
   11.2936  -15.1874   20.2395 C   0  0  0  0  0  0  0  0  0  0  0  0
   12.1158  -15.8417   19.4038 N   0  0  0  0  0  0  0  0  0  0  0  0
   11.6069  -17.0740   19.1798 C   0  0  0  0  0  0  0  0  0  0  0  0
   10.4680  -17.1839   19.8774 N   0  0  0  0  0  0  0  0  0  0  0  0
   10.3822  -15.9576   23.5510 C   0  0  0  0  0  0  0  0  0  0  0  0
   10.5956  -14.7274   23.7625 O   0  0  0  0  0  0  0  0  0  0  0  0
   11.3253  -16.8706   24.0963 N   0  0  0  0  0  0  0  0  0  0  0  0
   12.5244  -16.3783   24.7488 C   0  0  1  0  0  0  0  0  0  0  0  0
   12.4826  -16.8718   26.1769 C   0  0  0  0  0  0  0  0  0  0  0  0
   11.7500  -15.9880   27.1000 C   0  0  0  0  0  0  0  0  0  0  0  0
   11.2759  -14.7430   26.7010 C   0  0  0  0  0  0  0  0  0  0  0  0
   10.5916  -13.9765   27.6085 C   0  0  0  0  0  0  0  0  0  0  0  0
   10.3355  -14.3560   28.9074 C   0  0  0  0  0  0  0  0  0  0  0  0
   10.8046  -15.5913   29.3068 C   0  0  0  0  0  0  0  0  0  0  0  0
   11.4944  -16.3807   28.4155 C   0  0  0  0  0  0  0  0  0  0  0  0
   13.7117  -16.9449   24.0795 C   0  0  0  0  0  0  0  0  0  0  0  0
   15.0062  -16.5082   24.3470 O   0  0  0  0  0  0  0  0  0  0  0  0
   13.5705  -17.8580   23.2300 O   0  0  0  0  0  0  0  0  0  0  0  0
  2  1  1  1
  2  3  1  0
  3  4  1  0
  4  5  2  0
  5  6  1  0
  7  6  2  0
  8  7  1  0
  9  4  1  0
  9  8  2  0
 10  2  1  0
 11 10  2  0
 12 10  1  0
 13 20  1  0
 13 12  1  0
 13 14  1  6
 15 14  1  0
 16 15  2  0
 17 18  1  0
 17 16  1  0
 18 19  2  0
 19 15  1  0
 20 22  1  0
 21 20  2  0
 22 23  1  0
 23 31  1  0
 23 24  1  1
 25 24  1  0
 26 25  2  0
 27 26  1  0
 28 27  2  0
 28 29  1  0
 29 30  2  0
 30 25  1  0
 31 33  2  0
 31 32  1  0
M  END
$$$$
