FHF.pdb
     RDKit          3D

 33 35  0  0  1  0  0  0  0  0999 V2000
    5.4265  -17.6214   21.7705 N   0  0  0  0  0  0  0  0  0  0  0  0
    6.4065  -16.6050   21.5490 C   0  0  1  0  0  0  0  0  0  0  0  0
    5.7877  -15.2499   21.7587 C   0  0  0  0  0  0  0  0  0  0  0  0
    6.6809  -14.1826   21.2878 C   0  0  0  0  0  0  0  0  0  0  0  0
    6.8974  -14.0372   19.9413 C   0  0  0  0  0  0  0  0  0  0  0  0
    7.7265  -13.0505   19.4574 C   0  0  0  0  0  0  0  0  0  0  0  0
    8.3470  -12.1946   20.3708 C   0  0  0  0  0  0  0  0  0  0  0  0
    8.1379  -12.3285   21.7398 C   0  0  0  0  0  0  0  0  0  0  0  0
    7.2977  -13.3326   22.1858 C   0  0  0  0  0  0  0  0  0  0  0  0
    7.6256  -16.7916   22.3771 C   0  0  0  0  0  0  0  0  0  0  0  0
    7.4992  -17.2767   23.5172 O   0  0  0  0  0  0  0  0  0  0  0  0
    8.9186  -16.4480   21.9391 N   0  0  0  0  0  0  0  0  0  0  0  0
   10.1453  -16.7930   22.6038 C   0  0  1  0  0  0  0  0  0  0  0  0
   11.3620  -16.6227   21.7479 C   0  0  0  0  0  0  0  0  0  0  0  0
   12.5930  -17.1736   22.2999 C   0  0  0  0  0  0  0  0  0  0  0  0
   13.0991  -17.1109   23.5592 C   0  0  0  0  0  0  0  0  0  0  0  0
   14.2649  -17.7765   23.5724 N   0  0  0  0  0  0  0  0  0  0  0  0
   14.4973  -18.2581   22.3307 C   0  0  0  0  0  0  0  0  0  0  0  0
   13.4743  -17.8907   21.5468 N   0  0  0  0  0  0  0  0  0  0  0  0
   10.2495  -16.1897   23.9523 C   0  0  0  0  0  0  0  0  0  0  0  0
   10.6413  -14.9942   24.0960 O   0  0  0  0  0  0  0  0  0  0  0  0
    9.9228  -16.9000   25.1393 N   0  0  0  0  0  0  0  0  0  0  0  0
   10.1385  -16.2892   26.4380 C   0  0  1  0  0  0  0  0  0  0  0  0
    8.8027  -16.2753   27.1453 C   0  0  0  0  0  0  0  0  0  0  0  0
    7.9729  -15.0957   26.8455 C   0  0  0  0  0  0  0  0  0  0  0  0
    8.3769  -13.8097   27.1871 C   0  0  0  0  0  0  0  0  0  0  0  0
    7.5606  -12.7556   26.8676 C   0  0  0  0  0  0  0  0  0  0  0  0
    6.3502  -12.8799   26.2226 C   0  0  0  0  0  0  0  0  0  0  0  0
    5.9461  -14.1552   25.8819 C   0  0  0  0  0  0  0  0  0  0  0  0
    6.7467  -15.2308   26.1909 C   0  0  0  0  0  0  0  0  0  0  0  0
   11.0845  -17.1145   27.2143 C   0  0  0  0  0  0  0  0  0  0  0  0
   11.6542  -18.2805   26.7107 O   0  0  0  0  0  0  0  0  0  0  0  0
   11.4005  -16.7694   28.3788 O   0  0  0  0  0  0  0  0  0  0  0  0
  2  1  1  1
  2  3  1  0
  3  4  1  0
  4  5  2  0
  5  6  1  0
  7  6  2  0
  8  7  1  0
  9  4  1  0
  9  8  2  0
 10  2  1  0
 11 10  2  0
 12 10  1  0
 13 20  1  0
 13 12  1  0
 13 14  1  6
 15 14  1  0
 16 15  2  0
 17 18  1  0
 17 16  1  0
 18 19  2  0
 19 15  1  0
 20 22  1  0
 21 20  2  0
 22 23  1  0
 23 31  1  0
 23 24  1  1
 25 24  1  0
 26 25  2  0
 27 26  1  0
 28 27  2  0
 28 29  1  0
 29 30  2  0
 30 25  1  0
 31 33  2  0
 31 32  1  0
M  END
$$$$
