FHF.pdb
     RDKit          3D

 33 35  0  0  1  0  0  0  0  0999 V2000
    6.9268  -17.6879   19.5262 N   0  0  0  0  0  0  0  0  0  0  0  0
    7.5087  -16.5929   20.2368 C   0  0  1  0  0  0  0  0  0  0  0  0
    6.4393  -15.6001   20.6024 C   0  0  0  0  0  0  0  0  0  0  0  0
    7.0264  -14.3622   21.1329 C   0  0  0  0  0  0  0  0  0  0  0  0
    7.4481  -13.3937   20.2581 C   0  0  0  0  0  0  0  0  0  0  0  0
    8.0037  -12.2190   20.7126 C   0  0  0  0  0  0  0  0  0  0  0  0
    8.1302  -12.0317   22.0912 C   0  0  0  0  0  0  0  0  0  0  0  0
    7.7075  -13.0041   22.9920 C   0  0  0  0  0  0  0  0  0  0  0  0
    7.1545  -14.1705   22.4953 C   0  0  0  0  0  0  0  0  0  0  0  0
    8.2901  -17.0277   21.4231 C   0  0  0  0  0  0  0  0  0  0  0  0
    7.7995  -17.8943   22.1709 O   0  0  0  0  0  0  0  0  0  0  0  0
    9.5587  -16.5100   21.7461 N   0  0  0  0  0  0  0  0  0  0  0  0
   10.4353  -17.0209   22.7641 C   0  0  1  0  0  0  0  0  0  0  0  0
   11.8339  -17.2633   22.2877 C   0  0  0  0  0  0  0  0  0  0  0  0
   11.9598  -18.1988   21.1775 C   0  0  0  0  0  0  0  0  0  0  0  0
   12.1095  -17.9711   19.8465 C   0  0  0  0  0  0  0  0  0  0  0  0
   12.1812  -19.1599   19.2268 N   0  0  0  0  0  0  0  0  0  0  0  0
   12.0778  -20.1350   20.1574 C   0  0  0  0  0  0  0  0  0  0  0  0
   11.9417  -19.5501   21.3555 N   0  0  0  0  0  0  0  0  0  0  0  0
   10.3377  -16.2607   24.0314 C   0  0  0  0  0  0  0  0  0  0  0  0
   10.9385  -15.1545   24.1684 O   0  0  0  0  0  0  0  0  0  0  0  0
    9.5801  -16.7164   25.1444 N   0  0  0  0  0  0  0  0  0  0  0  0
    9.8541  -16.2016   26.4734 C   0  0  1  0  0  0  0  0  0  0  0  0
    8.5209  -15.8498   27.0926 C   0  0  0  0  0  0  0  0  0  0  0  0
    7.9490  -14.5795   26.6138 C   0  0  0  0  0  0  0  0  0  0  0  0
    6.7550  -14.5356   25.9022 C   0  0  0  0  0  0  0  0  0  0  0  0
    6.2737  -13.3176   25.4967 C   0  0  0  0  0  0  0  0  0  0  0  0
    6.8969  -12.1153   25.7469 C   0  0  0  0  0  0  0  0  0  0  0  0
    8.0823  -12.1551   26.4532 C   0  0  0  0  0  0  0  0  0  0  0  0
    8.5874  -13.3646   26.8721 C   0  0  0  0  0  0  0  0  0  0  0  0
   10.4960  -17.2562   27.2824 C   0  0  0  0  0  0  0  0  0  0  0  0
   10.7552  -18.5311   26.7872 O   0  0  0  0  0  0  0  0  0  0  0  0
   10.8285  -17.0148   28.4682 O   0  0  0  0  0  0  0  0  0  0  0  0
  2  1  1  1
  2  3  1  0
  3  4  1  0
  4  5  2  0
  5  6  1  0
  7  6  2  0
  8  7  1  0
  9  4  1  0
  9  8  2  0
 10  2  1  0
 11 10  2  0
 12 10  1  0
 13 20  1  0
 13 12  1  0
 13 14  1  6
 15 14  1  0
 16 15  2  0
 17 18  1  0
 17 16  1  0
 18 19  2  0
 19 15  1  0
 20 22  1  0
 21 20  2  0
 22 23  1  0
 23 31  1  0
 23 24  1  1
 25 24  1  0
 26 25  2  0
 27 26  1  0
 28 27  2  0
 28 29  1  0
 29 30  2  0
 30 25  1  0
 31 33  2  0
 31 32  1  0
M  END
$$$$
