FHF.pdb
     RDKit          3D

 33 35  0  0  1  0  0  0  0  0999 V2000
    5.8700  -18.1334   23.6590 N   0  0  0  0  0  0  0  0  0  0  0  0
    6.7247  -17.0311   23.9703 C   0  0  1  0  0  0  0  0  0  0  0  0
    6.4160  -16.5250   25.3530 C   0  0  0  0  0  0  0  0  0  0  0  0
    6.8009  -15.1145   25.4976 C   0  0  0  0  0  0  0  0  0  0  0  0
    6.5911  -14.4836   26.6972 C   0  0  0  0  0  0  0  0  0  0  0  0
    6.9370  -13.1632   26.8757 C   0  0  0  0  0  0  0  0  0  0  0  0
    7.5098  -12.4740   25.8039 C   0  0  0  0  0  0  0  0  0  0  0  0
    7.7295  -13.0992   24.5805 C   0  0  0  0  0  0  0  0  0  0  0  0
    7.3679  -14.4270   24.4416 C   0  0  0  0  0  0  0  0  0  0  0  0
    8.1651  -17.3569   23.8083 C   0  0  0  0  0  0  0  0  0  0  0  0
    8.5972  -18.4053   24.3230 O   0  0  0  0  0  0  0  0  0  0  0  0
    9.0682  -16.5403   23.1017 N   0  0  0  0  0  0  0  0  0  0  0  0
   10.4256  -16.8827   22.7762 C   0  0  1  0  0  0  0  0  0  0  0  0
   10.8993  -16.2995   21.4811 C   0  0  0  0  0  0  0  0  0  0  0  0
   10.1914  -16.7624   20.2944 C   0  0  0  0  0  0  0  0  0  0  0  0
    9.6329  -17.9694   20.0167 C   0  0  0  0  0  0  0  0  0  0  0  0
    9.0935  -17.9053   18.7889 N   0  0  0  0  0  0  0  0  0  0  0  0
    9.3080  -16.6668   18.2909 C   0  0  0  0  0  0  0  0  0  0  0  0
    9.9811  -15.9623   19.2110 N   0  0  0  0  0  0  0  0  0  0  0  0
   11.3499  -16.6862   23.9166 C   0  0  0  0  0  0  0  0  0  0  0  0
   12.3965  -15.9855   23.7857 O   0  0  0  0  0  0  0  0  0  0  0  0
   11.1225  -17.2586   25.1976 N   0  0  0  0  0  0  0  0  0  0  0  0
   12.0972  -17.0835   26.2585 C   0  0  1  0  0  0  0  0  0  0  0  0
   12.2753  -15.5950   26.4513 C   0  0  0  0  0  0  0  0  0  0  0  0
   11.1545  -14.9376   27.1451 C   0  0  0  0  0  0  0  0  0  0  0  0
   10.1898  -14.2119   26.4546 C   0  0  0  0  0  0  0  0  0  0  0  0
    9.1667  -13.6355   27.1622 C   0  0  0  0  0  0  0  0  0  0  0  0
    9.0228  -13.7244   28.5289 C   0  0  0  0  0  0  0  0  0  0  0  0
    9.9785  -14.4441   29.2175 C   0  0  0  0  0  0  0  0  0  0  0  0
   11.0158  -15.0329   28.5314 C   0  0  0  0  0  0  0  0  0  0  0  0
   11.5706  -17.6699   27.5065 C   0  0  0  0  0  0  0  0  0  0  0  0
   12.3037  -17.7042   28.6894 O   0  0  0  0  0  0  0  0  0  0  0  0
   10.4171  -18.1643   27.5232 O   0  0  0  0  0  0  0  0  0  0  0  0
  2  1  1  1
  2  3  1  0
  3  4  1  0
  4  5  2  0
  5  6  1  0
  7  6  2  0
  8  7  1  0
  9  4  1  0
  9  8  2  0
 10  2  1  0
 11 10  2  0
 12 10  1  0
 13 20  1  0
 13 12  1  0
 13 14  1  6
 15 14  1  0
 16 15  2  0
 17 18  1  0
 17 16  1  0
 18 19  2  0
 19 15  1  0
 20 22  1  0
 21 20  2  0
 22 23  1  0
 23 31  1  0
 23 24  1  1
 25 24  1  0
 26 25  2  0
 27 26  1  0
 28 27  2  0
 28 29  1  0
 29 30  2  0
 30 25  1  0
 31 33  2  0
 31 32  1  0
M  END
$$$$
