FHF.pdb
     RDKit          3D

 33 35  0  0  1  0  0  0  0  0999 V2000
    8.0001  -17.3227   17.3925 N   0  0  0  0  0  0  0  0  0  0  0  0
    8.1184  -16.6150   18.6285 C   0  0  1  0  0  0  0  0  0  0  0  0
    6.9405  -15.6952   18.8007 C   0  0  0  0  0  0  0  0  0  0  0  0
    7.3202  -14.4828   19.5385 C   0  0  0  0  0  0  0  0  0  0  0  0
    7.0320  -14.3964   20.8767 C   0  0  0  0  0  0  0  0  0  0  0  0
    7.3702  -13.2787   21.6056 C   0  0  0  0  0  0  0  0  0  0  0  0
    8.0169  -12.2273   20.9513 C   0  0  0  0  0  0  0  0  0  0  0  0
    8.3164  -12.2989   19.5945 C   0  0  0  0  0  0  0  0  0  0  0  0
    7.9599  -13.4392   18.8975 C   0  0  0  0  0  0  0  0  0  0  0  0
    8.2904  -17.5193   19.7945 C   0  0  0  0  0  0  0  0  0  0  0  0
    7.8582  -18.6842   19.7100 O   0  0  0  0  0  0  0  0  0  0  0  0
    8.9178  -17.1269   20.9920 N   0  0  0  0  0  0  0  0  0  0  0  0
    9.3473  -18.0122   22.0395 C   0  0  1  0  0  0  0  0  0  0  0  0
   10.1430  -19.1823   21.5500 C   0  0  0  0  0  0  0  0  0  0  0  0
   10.6038  -20.0983   22.5854 C   0  0  0  0  0  0  0  0  0  0  0  0
   10.4335  -20.0621   23.9329 C   0  0  0  0  0  0  0  0  0  0  0  0
   11.0471  -21.1344   24.4584 N   0  0  0  0  0  0  0  0  0  0  0  0
   11.6028  -21.8459   23.4521 C   0  0  0  0  0  0  0  0  0  0  0  0
   11.3334  -21.2141   22.3014 N   0  0  0  0  0  0  0  0  0  0  0  0
    9.9517  -17.2891   23.1820 C   0  0  0  0  0  0  0  0  0  0  0  0
   11.0149  -16.6180   23.0315 O   0  0  0  0  0  0  0  0  0  0  0  0
    9.3870  -17.3039   24.4863 N   0  0  0  0  0  0  0  0  0  0  0  0
    9.4472  -16.1183   25.3210 C   0  0  1  0  0  0  0  0  0  0  0  0
    8.6724  -15.0359   24.6047 C   0  0  0  0  0  0  0  0  0  0  0  0
    8.0316  -14.0582   25.5009 C   0  0  0  0  0  0  0  0  0  0  0  0
    6.7268  -14.2235   25.9525 C   0  0  0  0  0  0  0  0  0  0  0  0
    6.1962  -13.2805   26.7945 C   0  0  0  0  0  0  0  0  0  0  0  0
    6.8726  -12.1637   27.2325 C   0  0  0  0  0  0  0  0  0  0  0  0
    8.1681  -11.9965   26.7863 C   0  0  0  0  0  0  0  0  0  0  0  0
    8.7248  -12.9283   25.9405 C   0  0  0  0  0  0  0  0  0  0  0  0
    8.7953  -16.3991   26.6152 C   0  0  0  0  0  0  0  0  0  0  0  0
    7.8452  -17.4036   26.7766 O   0  0  0  0  0  0  0  0  0  0  0  0
    9.0947  -15.7150   27.6239 O   0  0  0  0  0  0  0  0  0  0  0  0
  2  1  1  6
  2  3  1  0
  3  4  1  0
  4  5  2  0
  5  6  1  0
  7  6  2  0
  8  7  1  0
  9  4  1  0
  9  8  2  0
 10  2  1  0
 11 10  2  0
 12 10  1  0
 13 20  1  0
 13 12  1  0
 13 14  1  6
 15 14  1  0
 16 15  2  0
 17 18  1  0
 17 16  1  0
 18 19  2  0
 19 15  1  0
 20 22  1  0
 21 20  2  0
 22 23  1  0
 23 31  1  0
 23 24  1  6
 25 24  1  0
 26 25  2  0
 27 26  1  0
 28 27  2  0
 28 29  1  0
 29 30  2  0
 30 25  1  0
 31 33  2  0
 31 32  1  0
M  END
$$$$
