GDL.pdb
     RDKit          3D

 21 20  0  0  1  0  0  0  0  0999 V2000
   15.2044  -12.5899  -15.0963 N   0  0  0  0  0  0  0  0  0  0  0  0
   14.7719  -11.4049  -15.7896 C   0  0  0  0  0  0  0  0  0  0  0  0
   15.9033  -10.5229  -16.1598 C   0  0  0  0  0  0  0  0  0  0  0  0
   16.8326  -11.0041  -16.8558 O   0  0  0  0  0  0  0  0  0  0  0  0
   15.9667   -9.1798  -15.7599 N   0  0  0  0  0  0  0  0  0  0  0  0
   17.0293   -8.2707  -16.0975 C   0  0  1  0  0  0  0  0  0  0  0  0
   16.6621   -6.8382  -15.8713 C   0  0  0  0  0  0  0  0  0  0  0  0
   15.6296   -6.3306  -16.7870 C   0  0  0  0  0  0  0  0  0  0  0  0
   15.6177   -6.5009  -18.0240 O   0  0  0  0  0  0  0  0  0  0  0  0
   18.1747   -8.5724  -15.1626 C   0  0  0  0  0  0  0  0  0  0  0  0
   17.9621   -8.8188  -13.9461 O   0  0  0  0  0  0  0  0  0  0  0  0
   14.5852   -5.6038  -16.2295 O   0  0  0  0  0  0  0  0  0  0  0  0
   23.5378  -10.1180  -14.2405 C   0  0  0  0  0  0  0  0  0  0  0  0
   22.3617  -10.9121  -14.6813 C   0  0  2  0  0  0  0  0  0  0  0  0
   22.8364  -12.1550  -15.4743 C   0  0  0  0  0  0  0  0  0  0  0  0
   21.2463  -10.2451  -15.3725 C   0  0  0  0  0  0  0  0  0  0  0  0
   20.6369   -9.0719  -14.7631 C   0  0  2  0  0  0  0  0  0  0  0  0
   19.5113   -8.5896  -15.6101 N   0  0  0  0  0  0  0  0  0  0  0  0
   21.4790   -7.9498  -14.3844 C   0  0  0  0  0  0  0  0  0  0  0  0
   21.9543   -7.8880  -13.0504 O   0  0  0  0  0  0  0  0  0  0  0  0
   21.8450   -7.0136  -15.1013 O   0  0  0  0  0  0  0  0  0  0  0  0
  1  2  1  0
  3  2  1  0
  4  3  2  0
  5  3  1  0
  6  5  1  0
  6  7  1  1
  8  7  1  0
  8 12  1  0
  9  8  2  0
 10  6  1  0
 10 18  1  0
 11 10  2  0
 14 13  1  6
 14 16  1  0
 14 15  1  0
 17 18  1  0
 17 16  1  6
 19 17  1  0
 20 19  1  0
 21 19  2  0
M  END
$$$$
