GDL.pdb
     RDKit          3D

 21 20  0  0  1  0  0  0  0  0999 V2000
   21.9087  -19.2642  -14.3075 N   0  0  0  0  0  0  0  0  0  0  0  0
   23.2492  -18.9832  -13.8646 C   0  0  0  0  0  0  0  0  0  0  0  0
   24.0257  -20.2164  -13.5977 C   0  0  0  0  0  0  0  0  0  0  0  0
   23.4217  -21.3184  -13.6179 O   0  0  0  0  0  0  0  0  0  0  0  0
   25.4016  -20.1899  -13.3258 N   0  0  0  0  0  0  0  0  0  0  0  0
   26.2184  -21.3533  -13.1043 C   0  0  1  0  0  0  0  0  0  0  0  0
   27.6147  -21.1887  -13.6156 C   0  0  0  0  0  0  0  0  0  0  0  0
   27.6980  -20.9079  -15.0566 C   0  0  0  0  0  0  0  0  0  0  0  0
   27.7258  -21.7715  -15.9579 O   0  0  0  0  0  0  0  0  0  0  0  0
   26.3273  -21.5315  -11.6099 C   0  0  0  0  0  0  0  0  0  0  0  0
   26.5222  -22.6718  -11.1123 O   0  0  0  0  0  0  0  0  0  0  0  0
   27.7499  -19.5748  -15.4439 O   0  0  0  0  0  0  0  0  0  0  0  0
   28.0779  -18.8972   -6.4406 C   0  0  0  0  0  0  0  0  0  0  0  0
   27.5417  -19.9591   -7.3312 C   0  0  2  0  0  0  0  0  0  0  0  0
   28.6588  -20.9806   -7.6594 C   0  0  0  0  0  0  0  0  0  0  0  0
   26.7984  -19.5881   -8.5463 C   0  0  0  0  0  0  0  0  0  0  0  0
   26.0447  -20.6125   -9.2547 C   0  0  2  0  0  0  0  0  0  0  0  0
   26.2164  -20.4409  -10.7237 N   0  0  0  0  0  0  0  0  0  0  0  0
   24.6372  -20.7999   -8.9459 C   0  0  0  0  0  0  0  0  0  0  0  0
   24.2978  -21.4828   -7.7509 O   0  0  0  0  0  0  0  0  0  0  0  0
   23.6685  -20.4270   -9.6142 O   0  0  0  0  0  0  0  0  0  0  0  0
  1  2  1  0
  3  2  1  0
  4  3  2  0
  5  3  1  0
  6  5  1  0
  6  7  1  1
  8  7  1  0
  8 12  1  0
  9  8  2  0
 10  6  1  0
 10 18  1  0
 11 10  2  0
 14 13  1  6
 14 16  1  0
 14 15  1  0
 17 18  1  0
 17 16  1  1
 19 17  1  0
 20 19  1  0
 21 19  2  0
M  END
$$$$
