GDL.pdb
     RDKit          3D

 21 20  0  0  1  0  0  0  0  0999 V2000
   22.5409  -22.8704  -15.7836 N   0  0  0  0  0  0  0  0  0  0  0  0
   22.4817  -22.2890  -14.4681 C   0  0  0  0  0  0  0  0  0  0  0  0
   23.8055  -22.2605  -13.8034 C   0  0  0  0  0  0  0  0  0  0  0  0
   24.2818  -23.3417  -13.3747 O   0  0  0  0  0  0  0  0  0  0  0  0
   24.5354  -21.0737  -13.6403 N   0  0  0  0  0  0  0  0  0  0  0  0
   25.8423  -20.9874  -13.0451 C   0  0  1  0  0  0  0  0  0  0  0  0
   26.6108  -19.7880  -13.5023 C   0  0  0  0  0  0  0  0  0  0  0  0
   27.5400  -20.0558  -14.6099 C   0  0  0  0  0  0  0  0  0  0  0  0
   28.2880  -21.0518  -14.6972 O   0  0  0  0  0  0  0  0  0  0  0  0
   25.6349  -20.8230  -11.5596 C   0  0  0  0  0  0  0  0  0  0  0  0
   24.6316  -20.2041  -11.1164 O   0  0  0  0  0  0  0  0  0  0  0  0
   27.5881  -19.1254  -15.6404 O   0  0  0  0  0  0  0  0  0  0  0  0
   27.1307  -19.3879   -6.6234 C   0  0  0  0  0  0  0  0  0  0  0  0
   27.9141  -20.5195   -7.1841 C   0  0  2  0  0  0  0  0  0  0  0  0
   29.4054  -20.3680   -6.7941 C   0  0  0  0  0  0  0  0  0  0  0  0
   27.7783  -20.8686   -8.6076 C   0  0  0  0  0  0  0  0  0  0  0  0
   26.4478  -21.0726   -9.1620 C   0  0  2  0  0  0  0  0  0  0  0  0
   26.5457  -21.3499  -10.6216 N   0  0  0  0  0  0  0  0  0  0  0  0
   25.4177  -20.0762   -8.9219 C   0  0  0  0  0  0  0  0  0  0  0  0
   24.2823  -20.4548   -8.1624 O   0  0  0  0  0  0  0  0  0  0  0  0
   25.4067  -18.9036   -9.3079 O   0  0  0  0  0  0  0  0  0  0  0  0
  1  2  1  0
  3  2  1  0
  4  3  2  0
  5  3  1  0
  6  5  1  0
  6  7  1  6
  8  7  1  0
  8 12  1  0
  9  8  2  0
 10  6  1  0
 10 18  1  0
 11 10  2  0
 14 13  1  6
 14 16  1  0
 14 15  1  0
 17 18  1  0
 17 16  1  6
 19 17  1  0
 20 19  1  0
 21 19  2  0
M  END
$$$$
