GDL.pdb
     RDKit          3D

 21 20  0  0  1  0  0  0  0  0999 V2000
   15.4944  -11.9202  -17.3122 N   0  0  0  0  0  0  0  0  0  0  0  0
   15.8114  -11.3254  -18.5842 C   0  0  0  0  0  0  0  0  0  0  0  0
   17.1112  -10.6148  -18.5668 C   0  0  0  0  0  0  0  0  0  0  0  0
   18.1590  -11.2819  -18.7585 O   0  0  0  0  0  0  0  0  0  0  0  0
   17.2055   -9.2330  -18.3446 N   0  0  0  0  0  0  0  0  0  0  0  0
   18.4363   -8.4895  -18.2993 C   0  0  1  0  0  0  0  0  0  0  0  0
   18.2656   -7.0582  -18.6997 C   0  0  0  0  0  0  0  0  0  0  0  0
   19.5040   -6.2672  -18.6463 C   0  0  0  0  0  0  0  0  0  0  0  0
   20.6189   -6.6466  -19.0612 O   0  0  0  0  0  0  0  0  0  0  0  0
   18.8878   -8.4810  -16.8596 C   0  0  0  0  0  0  0  0  0  0  0  0
   18.0651   -8.2672  -15.9304 O   0  0  0  0  0  0  0  0  0  0  0  0
   19.4251   -4.9970  -18.0894 O   0  0  0  0  0  0  0  0  0  0  0  0
   21.0676  -10.1237  -12.3646 C   0  0  0  0  0  0  0  0  0  0  0  0
   21.9625  -10.3140  -13.5357 C   0  0  2  0  0  0  0  0  0  0  0  0
   23.3283   -9.6350  -13.2668 C   0  0  0  0  0  0  0  0  0  0  0  0
   21.4760   -9.9938  -14.8875 C   0  0  0  0  0  0  0  0  0  0  0  0
   20.6878   -8.7865  -15.0880 C   0  0  2  0  0  0  0  0  0  0  0  0
   20.2325   -8.7094  -16.5035 N   0  0  0  0  0  0  0  0  0  0  0  0
   21.2366   -7.5041  -14.6807 C   0  0  0  0  0  0  0  0  0  0  0  0
   21.0540   -7.0926  -13.3366 O   0  0  0  0  0  0  0  0  0  0  0  0
   21.8625   -6.7020  -15.3802 O   0  0  0  0  0  0  0  0  0  0  0  0
  1  2  1  0
  3  2  1  0
  4  3  2  0
  5  3  1  0
  6  5  1  0
  6  7  1  1
  8  7  1  0
  8 12  1  0
  9  8  2  0
 10  6  1  0
 10 18  1  0
 11 10  2  0
 14 13  1  1
 14 16  1  0
 14 15  1  0
 17 18  1  0
 17 16  1  6
 19 17  1  0
 20 19  1  0
 21 19  2  0
M  END
$$$$
