GDL.pdb
     RDKit          3D

 21 20  0  0  1  0  0  0  0  0999 V2000
   21.1880  -21.0448  -12.0383 N   0  0  0  0  0  0  0  0  0  0  0  0
   22.2394  -20.1015  -11.7609 C   0  0  0  0  0  0  0  0  0  0  0  0
   23.4153  -20.7383  -11.1232 C   0  0  0  0  0  0  0  0  0  0  0  0
   23.2799  -21.8883  -10.6347 O   0  0  0  0  0  0  0  0  0  0  0  0
   24.6628  -20.1012  -11.0495 N   0  0  0  0  0  0  0  0  0  0  0  0
   25.8625  -20.7001  -10.5281 C   0  0  1  0  0  0  0  0  0  0  0  0
   27.0950  -20.2553  -11.2500 C   0  0  0  0  0  0  0  0  0  0  0  0
   27.3109  -20.9262  -12.5405 C   0  0  0  0  0  0  0  0  0  0  0  0
   28.1896  -20.6197  -13.3731 O   0  0  0  0  0  0  0  0  0  0  0  0
   26.0043  -20.2233   -9.1035 C   0  0  0  0  0  0  0  0  0  0  0  0
   25.4312  -19.1698   -8.7195 O   0  0  0  0  0  0  0  0  0  0  0  0
   26.4691  -21.9850  -12.8568 O   0  0  0  0  0  0  0  0  0  0  0  0
   30.3811  -21.0664   -4.7574 C   0  0  0  0  0  0  0  0  0  0  0  0
   29.0213  -20.5908   -5.1222 C   0  0  2  0  0  0  0  0  0  0  0  0
   28.0471  -20.8356   -3.9432 C   0  0  0  0  0  0  0  0  0  0  0  0
   28.4167  -21.0119   -6.3965 C   0  0  0  0  0  0  0  0  0  0  0  0
   27.2229  -20.3284   -6.8729 C   0  0  2  0  0  0  0  0  0  0  0  0
   26.7750  -20.9308   -8.1588 N   0  0  0  0  0  0  0  0  0  0  0  0
   27.2323  -18.8799   -6.9890 C   0  0  0  0  0  0  0  0  0  0  0  0
   26.8592  -18.1138   -5.8562 O   0  0  0  0  0  0  0  0  0  0  0  0
   27.5344  -18.2108   -7.9816 O   0  0  0  0  0  0  0  0  0  0  0  0
  1  2  1  0
  3  2  1  0
  4  3  2  0
  5  3  1  0
  6  5  1  0
  6  7  1  6
  8  7  1  0
  8 12  1  0
  9  8  2  0
 10  6  1  0
 10 18  1  0
 11 10  2  0
 14 13  1  1
 14 16  1  0
 14 15  1  0
 17 18  1  0
 17 16  1  6
 19 17  1  0
 20 19  1  0
 21 19  2  0
M  END
$$$$
