GDL.pdb
     RDKit          3D

 21 20  0  0  1  0  0  0  0  0999 V2000
   28.5888  -28.8887  -15.3222 N   0  0  0  0  0  0  0  0  0  0  0  0
   27.5310  -29.5474  -16.0427 C   0  0  0  0  0  0  0  0  0  0  0  0
   26.8042  -28.6254  -16.9464 C   0  0  0  0  0  0  0  0  0  0  0  0
   27.1614  -27.4210  -16.9837 O   0  0  0  0  0  0  0  0  0  0  0  0
   25.7396  -29.0534  -17.7534 N   0  0  0  0  0  0  0  0  0  0  0  0
   25.0876  -28.2468  -18.7503 C   0  0  1  0  0  0  0  0  0  0  0  0
   24.7530  -29.0138  -19.9905 C   0  0  0  0  0  0  0  0  0  0  0  0
   25.8821  -29.1794  -20.9177 C   0  0  0  0  0  0  0  0  0  0  0  0
   26.4654  -28.2509  -21.5150 O   0  0  0  0  0  0  0  0  0  0  0  0
   23.7751  -27.7970  -18.1573 C   0  0  0  0  0  0  0  0  0  0  0  0
   22.9937  -28.6281  -17.6237 O   0  0  0  0  0  0  0  0  0  0  0  0
   26.3344  -30.4729  -21.1462 O   0  0  0  0  0  0  0  0  0  0  0  0
   21.0330  -26.1308  -14.7386 C   0  0  0  0  0  0  0  0  0  0  0  0
   22.1786  -25.2765  -15.1461 C   0  0  2  0  0  0  0  0  0  0  0  0
   22.2084  -23.9925  -14.2804 C   0  0  0  0  0  0  0  0  0  0  0  0
   22.3807  -24.9537  -16.5680 C   0  0  0  0  0  0  0  0  0  0  0  0
   22.1029  -25.9717  -17.5708 C   0  0  2  0  0  0  0  0  0  0  0  0
   23.3777  -26.4446  -18.1774 N   0  0  0  0  0  0  0  0  0  0  0  0
   21.1372  -25.6907  -18.6197 C   0  0  0  0  0  0  0  0  0  0  0  0
   21.5915  -25.6726  -19.9623 O   0  0  0  0  0  0  0  0  0  0  0  0
   19.9322  -25.4588  -18.4846 O   0  0  0  0  0  0  0  0  0  0  0  0
  1  2  1  0
  3  2  1  0
  4  3  2  0
  5  3  1  0
  6  5  1  0
  6  7  1  6
  8  7  1  0
  8 12  1  0
  9  8  2  0
 10  6  1  0
 10 18  1  0
 11 10  2  0
 14 13  1  6
 14 16  1  0
 14 15  1  0
 17 18  1  0
 17 16  1  6
 19 17  1  0
 20 19  1  0
 21 19  2  0
M  END
$$$$
