GDL.pdb
     RDKit          3D

 21 20  0  0  1  0  0  0  0  0999 V2000
   16.0987  -13.6305  -14.3909 N   0  0  0  0  0  0  0  0  0  0  0  0
   15.5367  -12.3087  -14.4865 C   0  0  0  0  0  0  0  0  0  0  0  0
   16.3738  -11.3969  -15.3006 C   0  0  0  0  0  0  0  0  0  0  0  0
   17.0978  -11.8941  -16.1995 O   0  0  0  0  0  0  0  0  0  0  0  0
   16.3816  -10.0087  -15.0992 N   0  0  0  0  0  0  0  0  0  0  0  0
   17.0632   -9.0599  -15.9387 C   0  0  1  0  0  0  0  0  0  0  0  0
   16.2157   -7.8768  -16.2852 C   0  0  0  0  0  0  0  0  0  0  0  0
   16.8690   -6.9112  -17.1813 C   0  0  0  0  0  0  0  0  0  0  0  0
   16.8380   -5.6700  -17.0478 O   0  0  0  0  0  0  0  0  0  0  0  0
   18.2307   -8.5322  -15.1416 C   0  0  0  0  0  0  0  0  0  0  0  0
   18.0990   -8.2490  -13.9216 O   0  0  0  0  0  0  0  0  0  0  0  0
   17.5767   -7.4225  -18.2618 O   0  0  0  0  0  0  0  0  0  0  0  0
   22.2504   -9.8054  -13.0349 C   0  0  0  0  0  0  0  0  0  0  0  0
   22.1562   -9.8971  -14.5151 C   0  0  2  0  0  0  0  0  0  0  0  0
   23.4090  -10.6145  -15.0761 C   0  0  0  0  0  0  0  0  0  0  0  0
   21.8449   -8.6940  -15.3040 C   0  0  0  0  0  0  0  0  0  0  0  0
   20.6848   -7.8922  -14.9430 C   0  0  2  0  0  0  0  0  0  0  0  0
   19.4990   -8.3382  -15.7253 N   0  0  0  0  0  0  0  0  0  0  0  0
   20.7817   -6.4429  -14.9862 C   0  0  0  0  0  0  0  0  0  0  0  0
   20.0373   -5.7500  -15.9736 O   0  0  0  0  0  0  0  0  0  0  0  0
   21.4519   -5.7156  -14.2472 O   0  0  0  0  0  0  0  0  0  0  0  0
  1  2  1  0
  3  2  1  0
  4  3  2  0
  5  3  1  0
  6  5  1  0
  6  7  1  1
  8  7  1  0
  8 12  1  0
  9  8  2  0
 10  6  1  0
 10 18  1  0
 11 10  2  0
 14 13  1  1
 14 16  1  0
 14 15  1  0
 17 18  1  0
 17 16  1  6
 19 17  1  0
 20 19  1  0
 21 19  2  0
M  END
$$$$
