GDL.pdb
     RDKit          3D

 21 20  0  0  1  0  0  0  0  0999 V2000
   20.6965  -21.7356   -7.5100 N   0  0  0  0  0  0  0  0  0  0  0  0
   20.8507  -20.6993   -8.4972 C   0  0  0  0  0  0  0  0  0  0  0  0
   21.7086  -21.1210   -9.6290 C   0  0  0  0  0  0  0  0  0  0  0  0
   22.3648  -22.1870   -9.5160 O   0  0  0  0  0  0  0  0  0  0  0  0
   21.8088  -20.3726  -10.8112 N   0  0  0  0  0  0  0  0  0  0  0  0
   22.5530  -20.7712  -11.9761 C   0  0  1  0  0  0  0  0  0  0  0  0
   21.9865  -20.2170  -13.2450 C   0  0  0  0  0  0  0  0  0  0  0  0
   22.6113  -20.7493  -14.4650 C   0  0  0  0  0  0  0  0  0  0  0  0
   22.7001  -20.1418  -15.5524 O   0  0  0  0  0  0  0  0  0  0  0  0
   23.9358  -20.1848  -11.8319 C   0  0  0  0  0  0  0  0  0  0  0  0
   24.1032  -18.9371  -11.7970 O   0  0  0  0  0  0  0  0  0  0  0  0
   23.1448  -22.0304  -14.4008 O   0  0  0  0  0  0  0  0  0  0  0  0
   26.5882  -18.9835   -8.9210 C   0  0  0  0  0  0  0  0  0  0  0  0
   26.7053  -20.4444   -9.1669 C   0  0  2  0  0  0  0  0  0  0  0  0
   27.5347  -21.1010   -8.0354 C   0  0  0  0  0  0  0  0  0  0  0  0
   27.1416  -20.9314  -10.4856 C   0  0  0  0  0  0  0  0  0  0  0  0
   26.4614  -20.4482  -11.6785 C   0  0  2  0  0  0  0  0  0  0  0  0
   25.0802  -21.0017  -11.7317 N   0  0  0  0  0  0  0  0  0  0  0  0
   27.1010  -20.6055  -12.9738 C   0  0  0  0  0  0  0  0  0  0  0  0
   26.4706  -21.4324  -13.9372 O   0  0  0  0  0  0  0  0  0  0  0  0
   28.1580  -20.0928  -13.3534 O   0  0  0  0  0  0  0  0  0  0  0  0
  1  2  1  0
  3  2  1  0
  4  3  2  0
  5  3  1  0
  6  5  1  0
  6  7  1  6
  8  7  1  0
  8 12  1  0
  9  8  2  0
 10  6  1  0
 10 18  1  0
 11 10  2  0
 14 13  1  6
 14 16  1  0
 14 15  1  0
 17 18  1  0
 17 16  1  1
 19 17  1  0
 20 19  1  0
 21 19  2  0
M  END
$$$$
