GDL.pdb
     RDKit          3D

 21 20  0  0  1  0  0  0  0  0999 V2000
   18.1332  -12.0119  -17.9360 N   0  0  0  0  0  0  0  0  0  0  0  0
   18.3425  -11.3609  -16.6693 C   0  0  0  0  0  0  0  0  0  0  0  0
   18.3819   -9.8850  -16.7928 C   0  0  0  0  0  0  0  0  0  0  0  0
   18.8843   -9.3859  -17.8311 O   0  0  0  0  0  0  0  0  0  0  0  0
   17.8797   -9.0371  -15.7946 N   0  0  0  0  0  0  0  0  0  0  0  0
   17.9750   -7.6017  -15.8104 C   0  0  1  0  0  0  0  0  0  0  0  0
   16.9852   -6.9436  -14.9019 C   0  0  0  0  0  0  0  0  0  0  0  0
   16.9798   -5.4754  -14.9816 C   0  0  0  0  0  0  0  0  0  0  0  0
   17.6842   -4.7937  -15.7551 O   0  0  0  0  0  0  0  0  0  0  0  0
   19.3433   -7.2497  -15.2806 C   0  0  0  0  0  0  0  0  0  0  0  0
   19.7594   -7.7438  -14.1996 O   0  0  0  0  0  0  0  0  0  0  0  0
   16.1219   -4.7942  -14.1273 O   0  0  0  0  0  0  0  0  0  0  0  0
   24.7233   -5.3344  -17.6451 C   0  0  0  0  0  0  0  0  0  0  0  0
   23.9158   -5.8439  -16.5064 C   0  0  2  0  0  0  0  0  0  0  0  0
   24.6351   -7.0497  -15.8524 C   0  0  0  0  0  0  0  0  0  0  0  0
   22.4839   -6.1280  -16.6945 C   0  0  0  0  0  0  0  0  0  0  0  0
   21.6002   -6.1042  -15.5379 C   0  0  2  0  0  0  0  0  0  0  0  0
   20.1985   -6.3643  -15.9676 N   0  0  0  0  0  0  0  0  0  0  0  0
   21.6325   -4.9601  -14.6427 C   0  0  0  0  0  0  0  0  0  0  0  0
   20.6018   -3.9932  -14.7524 O   0  0  0  0  0  0  0  0  0  0  0  0
   22.4713   -4.7164  -13.7701 O   0  0  0  0  0  0  0  0  0  0  0  0
  1  2  1  0
  3  2  1  0
  4  3  2  0
  5  3  1  0
  6  5  1  0
  6  7  1  1
  8  7  1  0
  8 12  1  0
  9  8  2  0
 10  6  1  0
 10 18  1  0
 11 10  2  0
 14 13  1  6
 14 16  1  0
 14 15  1  0
 17 18  1  0
 17 16  1  6
 19 17  1  0
 20 19  1  0
 21 19  2  0
M  END
$$$$
