CEG.pdb
     RDKit          3D

 20 19  0  0  1  0  0  0  0  0999 V2000
   -1.9835  -21.1542   23.5411 N   0  0  0  0  0  0  0  0  0  0  0  0
   -3.2509  -20.5318   23.9251 C   0  0  1  0  0  0  0  0  0  0  0  0
   -4.0265  -20.2904   22.6390 C   0  0  0  0  0  0  0  0  0  0  0  0
   -5.5881  -19.4696   23.0086 S   0  0  0  0  0  0  0  0  0  0  0  0
   -3.9769  -21.4337   24.8255 C   0  0  0  0  0  0  0  0  0  0  0  0
   -3.9530  -22.6715   24.5540 O   0  0  0  0  0  0  0  0  0  0  0  0
   -4.6847  -20.9886   25.9561 N   0  0  0  0  0  0  0  0  0  0  0  0
   -5.5282  -21.8712   26.7745 C   0  0  1  0  0  0  0  0  0  0  0  0
   -4.9615  -22.0145   28.1524 C   0  0  0  0  0  0  0  0  0  0  0  0
   -5.6989  -22.9365   29.0579 C   0  0  0  0  0  0  0  0  0  0  0  0
   -4.9077  -24.1079   29.5138 C   0  0  0  0  0  0  0  0  0  0  0  0
   -3.6634  -24.2076   29.4037 O   0  0  0  0  0  0  0  0  0  0  0  0
   -6.9317  -21.3778   26.7458 C   0  0  0  0  0  0  0  0  0  0  0  0
   -7.2215  -20.1788   26.5269 O   0  0  0  0  0  0  0  0  0  0  0  0
   -5.5521  -25.1896   30.1087 O   0  0  0  0  0  0  0  0  0  0  0  0
   -8.0383  -22.2554   26.9690 N   0  0  0  0  0  0  0  0  0  0  0  0
   -9.3821  -21.7504   27.0931 C   0  0  0  0  0  0  0  0  0  0  0  0
  -10.3699  -22.8232   27.3330 C   0  0  0  0  0  0  0  0  0  0  0  0
  -11.5649  -22.5303   27.5591 O   0  0  0  0  0  0  0  0  0  0  0  0
   -9.9976  -24.1515   27.3124 O   0  0  0  0  0  0  0  0  0  0  0  0
  2  1  1  6
  3  2  1  0
  4  3  1  0
  5  2  1  0
  6  5  2  0
  7  5  1  0
  8  7  1  0
  8  9  1  1
 10  9  1  0
 11 10  1  0
 11 12  2  0
 13 14  2  0
 13  8  1  0
 15 11  1  0
 16 13  1  0
 17 18  1  0
 17 16  1  0
 18 20  1  0
 19 18  2  0
M  END
$$$$
