CEG.pdb
     RDKit          3D

 20 19  0  0  1  0  0  0  0  0999 V2000
    5.1594  -13.4720   26.2438 N   0  0  0  0  0  0  0  0  0  0  0  0
    6.4877  -13.1629   25.7134 C   0  0  1  0  0  0  0  0  0  0  0  0
    7.1945  -12.3237   26.7671 C   0  0  0  0  0  0  0  0  0  0  0  0
    8.9112  -12.0551   26.2881 S   0  0  0  0  0  0  0  0  0  0  0  0
    7.2071  -14.4150   25.4569 C   0  0  0  0  0  0  0  0  0  0  0  0
    7.0298  -15.3670   26.2747 O   0  0  0  0  0  0  0  0  0  0  0  0
    8.0691  -14.5981   24.3610 N   0  0  0  0  0  0  0  0  0  0  0  0
    8.6965  -15.8876   24.0391 C   0  0  1  0  0  0  0  0  0  0  0  0
    9.2469  -15.8742   22.6473 C   0  0  0  0  0  0  0  0  0  0  0  0
    9.8846  -17.1406   22.1962 C   0  0  0  0  0  0  0  0  0  0  0  0
   10.5082  -17.0652   20.8503 C   0  0  0  0  0  0  0  0  0  0  0  0
    9.9597  -16.5593   19.8435 O   0  0  0  0  0  0  0  0  0  0  0  0
    9.7017  -16.2216   25.0841 C   0  0  0  0  0  0  0  0  0  0  0  0
   10.5494  -15.3953   25.4942 O   0  0  0  0  0  0  0  0  0  0  0  0
   11.7869  -17.5791   20.6498 O   0  0  0  0  0  0  0  0  0  0  0  0
    9.7551  -17.5185   25.6840 N   0  0  0  0  0  0  0  0  0  0  0  0
   10.6948  -17.8205   26.7338 C   0  0  0  0  0  0  0  0  0  0  0  0
   11.7211  -18.7963   26.3111 C   0  0  0  0  0  0  0  0  0  0  0  0
   11.3729  -19.8985   25.8328 O   0  0  0  0  0  0  0  0  0  0  0  0
   13.0659  -18.5137   26.4344 O   0  0  0  0  0  0  0  0  0  0  0  0
  2  1  1  1
  3  2  1  0
  4  3  1  0
  5  2  1  0
  6  5  2  0
  7  5  1  0
  8  7  1  0
  8  9  1  6
 10  9  1  0
 11 10  1  0
 11 12  2  0
 13 14  2  0
 13  8  1  0
 15 11  1  0
 16 13  1  0
 17 18  1  0
 17 16  1  0
 18 20  1  0
 19 18  2  0
M  END
$$$$
