CEG.pdb
     RDKit          3D

 20 19  0  0  1  0  0  0  0  0999 V2000
    5.4460  -13.8979   25.9396 N   0  0  0  0  0  0  0  0  0  0  0  0
    6.8207  -13.6127   25.5273 C   0  0  1  0  0  0  0  0  0  0  0  0
    7.4208  -12.7148   26.5987 C   0  0  0  0  0  0  0  0  0  0  0  0
    6.6638  -11.0807   26.5250 S   0  0  0  0  0  0  0  0  0  0  0  0
    7.5603  -14.8740   25.4118 C   0  0  0  0  0  0  0  0  0  0  0  0
    7.1970  -15.8328   26.1568 O   0  0  0  0  0  0  0  0  0  0  0  0
    8.6355  -15.0585   24.5245 N   0  0  0  0  0  0  0  0  0  0  0  0
    9.4134  -16.3035   24.4530 C   0  0  1  0  0  0  0  0  0  0  0  0
   10.1805  -16.3738   23.1697 C   0  0  0  0  0  0  0  0  0  0  0  0
    9.3660  -16.6035   21.9458 C   0  0  0  0  0  0  0  0  0  0  0  0
   10.1434  -16.5777   20.6805 C   0  0  0  0  0  0  0  0  0  0  0  0
    9.7979  -15.9533   19.6503 O   0  0  0  0  0  0  0  0  0  0  0  0
   10.2591  -16.4274   25.6710 C   0  0  0  0  0  0  0  0  0  0  0  0
   10.9587  -15.4836   26.1061 O   0  0  0  0  0  0  0  0  0  0  0  0
   11.3421  -17.2806   20.5897 O   0  0  0  0  0  0  0  0  0  0  0  0
   10.3196  -17.6442   26.4195 N   0  0  0  0  0  0  0  0  0  0  0  0
   11.1427  -17.7598   27.5966 C   0  0  0  0  0  0  0  0  0  0  0  0
   10.9939  -19.0697   28.2648 C   0  0  0  0  0  0  0  0  0  0  0  0
   10.1999  -19.9182   27.8018 O   0  0  0  0  0  0  0  0  0  0  0  0
   11.7188  -19.3776   29.3975 O   0  0  0  0  0  0  0  0  0  0  0  0
  2  1  1  1
  3  2  1  0
  4  3  1  0
  5  2  1  0
  6  5  2  0
  7  5  1  0
  8  7  1  0
  8  9  1  6
 10  9  1  0
 11 10  1  0
 11 12  2  0
 13 14  2  0
 13  8  1  0
 15 11  1  0
 16 13  1  0
 17 18  1  0
 17 16  1  0
 18 20  1  0
 19 18  2  0
M  END
$$$$
