CEG.pdb
     RDKit          3D

 20 19  0  0  1  0  0  0  0  0999 V2000
    5.2225  -13.2711   26.3640 N   0  0  0  0  0  0  0  0  0  0  0  0
    6.4367  -12.9577   25.6098 C   0  0  1  0  0  0  0  0  0  0  0  0
    7.3074  -12.1035   26.5188 C   0  0  0  0  0  0  0  0  0  0  0  0
    6.4940  -10.5286   26.8456 S   0  0  0  0  0  0  0  0  0  0  0  0
    7.1118  -14.2072   25.2433 C   0  0  0  0  0  0  0  0  0  0  0  0
    7.0456  -15.1685   26.0667 O   0  0  0  0  0  0  0  0  0  0  0  0
    7.8160  -14.3779   24.0382 N   0  0  0  0  0  0  0  0  0  0  0  0
    8.5432  -15.6097   23.7003 C   0  0  1  0  0  0  0  0  0  0  0  0
    8.8606  -15.6513   22.2382 C   0  0  0  0  0  0  0  0  0  0  0  0
    7.6877  -15.5990   21.3242 C   0  0  0  0  0  0  0  0  0  0  0  0
    8.0378  -15.4508   19.8884 C   0  0  0  0  0  0  0  0  0  0  0  0
    8.7854  -16.2343   19.2578 O   0  0  0  0  0  0  0  0  0  0  0  0
    9.7350  -15.7365   24.5821 C   0  0  0  0  0  0  0  0  0  0  0  0
   10.5569  -14.8050   24.7445 O   0  0  0  0  0  0  0  0  0  0  0  0
    7.5226  -14.3840   19.1565 O   0  0  0  0  0  0  0  0  0  0  0  0
   10.0098  -16.9421   25.3002 N   0  0  0  0  0  0  0  0  0  0  0  0
   11.1710  -17.0631   26.1449 C   0  0  0  0  0  0  0  0  0  0  0  0
   11.2007  -18.3413   26.8862 C   0  0  0  0  0  0  0  0  0  0  0  0
   10.2824  -19.1754   26.7264 O   0  0  0  0  0  0  0  0  0  0  0  0
   12.2292  -18.6352   27.7576 O   0  0  0  0  0  0  0  0  0  0  0  0
  2  1  1  1
  3  2  1  0
  4  3  1  0
  5  2  1  0
  6  5  2  0
  7  5  1  0
  8  7  1  0
  8  9  1  6
 10  9  1  0
 11 10  1  0
 11 12  2  0
 13 14  2  0
 13  8  1  0
 15 11  1  0
 16 13  1  0
 17 18  1  0
 17 16  1  0
 18 20  1  0
 19 18  2  0
M  END
$$$$
