CEG.pdb
     RDKit          3D

 20 19  0  0  1  0  0  0  0  0999 V2000
    8.5890  -12.9075   18.0097 N   0  0  0  0  0  0  0  0  0  0  0  0
    8.9612  -14.2280   18.5186 C   0  0  1  0  0  0  0  0  0  0  0  0
    9.0207  -15.1586   17.3167 C   0  0  0  0  0  0  0  0  0  0  0  0
   10.3144  -14.6173   16.1844 S   0  0  0  0  0  0  0  0  0  0  0  0
   10.2629  -14.1366   19.1883 C   0  0  0  0  0  0  0  0  0  0  0  0
   10.9642  -13.1057   18.9606 O   0  0  0  0  0  0  0  0  0  0  0  0
   10.7544  -15.1279   20.0561 N   0  0  0  0  0  0  0  0  0  0  0  0
   12.0247  -15.0000   20.7843 C   0  0  1  0  0  0  0  0  0  0  0  0
   12.0166  -15.8531   22.0141 C   0  0  0  0  0  0  0  0  0  0  0  0
   13.2161  -15.7347   22.8864 C   0  0  0  0  0  0  0  0  0  0  0  0
   13.1567  -16.5564   24.1223 C   0  0  0  0  0  0  0  0  0  0  0  0
   13.5556  -17.7416   24.2039 O   0  0  0  0  0  0  0  0  0  0  0  0
   13.1546  -15.2834   19.8587 C   0  0  0  0  0  0  0  0  0  0  0  0
   13.1091  -16.1903   18.9955 O   0  0  0  0  0  0  0  0  0  0  0  0
   12.6299  -16.0123   25.2909 O   0  0  0  0  0  0  0  0  0  0  0  0
   14.3675  -14.5275   19.9045 N   0  0  0  0  0  0  0  0  0  0  0  0
   15.5000  -14.8771   19.0850 C   0  0  0  0  0  0  0  0  0  0  0  0
   16.6263  -13.9336   19.2440 C   0  0  0  0  0  0  0  0  0  0  0  0
   16.9646  -13.5546   20.3871 O   0  0  0  0  0  0  0  0  0  0  0  0
   17.3176  -13.4589   18.1484 O   0  0  0  0  0  0  0  0  0  0  0  0
  2  1  1  6
  3  2  1  0
  4  3  1  0
  5  2  1  0
  6  5  2  0
  7  5  1  0
  8  7  1  0
  8  9  1  1
 10  9  1  0
 11 10  1  0
 11 12  2  0
 13 14  2  0
 13  8  1  0
 15 11  1  0
 16 13  1  0
 17 18  1  0
 17 16  1  0
 18 20  1  0
 19 18  2  0
M  END
$$$$
