CEG.pdb
     RDKit          3D

 20 19  0  0  1  0  0  0  0  0999 V2000
    4.8294  -12.7707   25.9335 N   0  0  0  0  0  0  0  0  0  0  0  0
    6.2908  -12.8379   25.8973 C   0  0  1  0  0  0  0  0  0  0  0  0
    6.7853  -12.3210   27.2398 C   0  0  0  0  0  0  0  0  0  0  0  0
    8.1552  -11.1766   26.9904 S   0  0  0  0  0  0  0  0  0  0  0  0
    6.7035  -14.2276   25.6750 C   0  0  0  0  0  0  0  0  0  0  0  0
    5.9486  -15.1393   26.1282 O   0  0  0  0  0  0  0  0  0  0  0  0
    7.8806  -14.5822   24.9923 N   0  0  0  0  0  0  0  0  0  0  0  0
    8.2786  -15.9758   24.7478 C   0  0  1  0  0  0  0  0  0  0  0  0
    8.6902  -16.1649   23.3212 C   0  0  0  0  0  0  0  0  0  0  0  0
    8.3240  -17.4733   22.7147 C   0  0  0  0  0  0  0  0  0  0  0  0
    9.4020  -18.0936   21.9028 C   0  0  0  0  0  0  0  0  0  0  0  0
   10.0712  -19.0914   22.2590 O   0  0  0  0  0  0  0  0  0  0  0  0
    9.3187  -16.3722   25.7353 C   0  0  0  0  0  0  0  0  0  0  0  0
   10.5327  -16.1035   25.5819 O   0  0  0  0  0  0  0  0  0  0  0  0
    9.7228  -17.5625   20.6561 O   0  0  0  0  0  0  0  0  0  0  0  0
    8.9851  -17.0894   26.9265 N   0  0  0  0  0  0  0  0  0  0  0  0
    8.6948  -18.5005   26.8952 C   0  0  0  0  0  0  0  0  0  0  0  0
    9.8817  -19.3292   27.1934 C   0  0  0  0  0  0  0  0  0  0  0  0
    9.9976  -19.8701   28.3153 O   0  0  0  0  0  0  0  0  0  0  0  0
   10.8719  -19.5196   26.2518 O   0  0  0  0  0  0  0  0  0  0  0  0
  2  1  1  1
  3  2  1  0
  4  3  1  0
  5  2  1  0
  6  5  2  0
  7  5  1  0
  8  7  1  0
  8  9  1  6
 10  9  1  0
 11 10  1  0
 11 12  2  0
 13 14  2  0
 13  8  1  0
 15 11  1  0
 16 13  1  0
 17 18  1  0
 17 16  1  0
 18 20  1  0
 19 18  2  0
M  END
$$$$
