CEG.pdb
     RDKit          3D

 20 19  0  0  1  0  0  0  0  0999 V2000
    6.9665  -15.3455   21.9642 N   0  0  0  0  0  0  0  0  0  0  0  0
    8.1959  -15.0919   21.2123 C   0  0  1  0  0  0  0  0  0  0  0  0
    7.9482  -13.8443   20.3779 C   0  0  0  0  0  0  0  0  0  0  0  0
    7.0866  -14.2838   18.8569 S   0  0  0  0  0  0  0  0  0  0  0  0
    9.3036  -14.8941   22.1530 C   0  0  0  0  0  0  0  0  0  0  0  0
    9.0893  -14.1518   23.1577 O   0  0  0  0  0  0  0  0  0  0  0  0
   10.5695  -15.4838   21.9881 N   0  0  0  0  0  0  0  0  0  0  0  0
   11.7066  -15.2071   22.8774 C   0  0  1  0  0  0  0  0  0  0  0  0
   11.5650  -15.9577   24.1646 C   0  0  0  0  0  0  0  0  0  0  0  0
   11.3800  -17.4283   24.0341 C   0  0  0  0  0  0  0  0  0  0  0  0
   11.3706  -18.1601   25.3265 C   0  0  0  0  0  0  0  0  0  0  0  0
   11.3257  -19.4080   25.4328 O   0  0  0  0  0  0  0  0  0  0  0  0
   12.9771  -15.4818   22.1534 C   0  0  0  0  0  0  0  0  0  0  0  0
   13.1581  -16.5210   21.4775 O   0  0  0  0  0  0  0  0  0  0  0  0
   11.4136  -17.4510   26.5242 O   0  0  0  0  0  0  0  0  0  0  0  0
   14.0729  -14.5640   22.1902 N   0  0  0  0  0  0  0  0  0  0  0  0
   15.2871  -14.8167   21.4564 C   0  0  0  0  0  0  0  0  0  0  0  0
   16.3252  -15.4637   22.2858 C   0  0  0  0  0  0  0  0  0  0  0  0
   17.4945  -15.0191   22.2790 O   0  0  0  0  0  0  0  0  0  0  0  0
   16.0282  -16.5567   23.0737 O   0  0  0  0  0  0  0  0  0  0  0  0
  2  1  1  1
  3  2  1  0
  4  3  1  0
  5  2  1  0
  6  5  2  0
  7  5  1  0
  8  7  1  0
  8  9  1  1
 10  9  1  0
 11 10  1  0
 11 12  2  0
 13 14  2  0
 13  8  1  0
 15 11  1  0
 16 13  1  0
 17 18  1  0
 17 16  1  0
 18 20  1  0
 19 18  2  0
M  END
$$$$
