PPI.pdb
     RDKit          3D

 23 24  0  0  1  0  0  0  0  0999 V2000
    5.9253  -18.7322   20.3379 N   0  0  0  0  0  0  0  0  0  0  0  0
    4.4854  -18.9314   20.0127 C   0  0  0  0  0  0  0  0  0  0  0  0
    3.8934  -18.4941   21.3610 C   0  0  0  0  0  0  0  0  0  0  0  0
    4.8215  -17.3238   21.7264 C   0  0  0  0  0  0  0  0  0  0  0  0
    5.8717  -17.3197   20.6330 C   0  0  1  0  0  0  0  0  0  0  0  0
    7.1039  -16.6840   21.0541 C   0  0  0  0  0  0  0  0  0  0  0  0
    8.0869  -17.5190   21.1730 O   0  0  0  0  0  0  0  0  0  0  0  0
    7.3632  -15.3287   21.3408 N   0  0  0  0  0  0  0  0  0  0  0  0
    6.5047  -14.1775   21.4093 C   0  0  0  0  0  0  0  0  0  0  0  0
    7.2474  -13.2365   20.4700 C   0  0  0  0  0  0  0  0  0  0  0  0
    8.6904  -13.4866   20.9375 C   0  0  0  0  0  0  0  0  0  0  0  0
    8.6739  -14.8060   21.6672 C   0  0  1  0  0  0  0  0  0  0  0  0
    8.8722  -14.5437   23.1064 C   0  0  0  0  0  0  0  0  0  0  0  0
   10.0520  -14.2181   23.4345 O   0  0  0  0  0  0  0  0  0  0  0  0
    5.1734  -12.4320   26.7801 C   0  0  0  0  0  0  0  0  0  0  0  0
    5.9558  -13.4552   26.0037 C   0  0  0  0  0  0  0  0  0  0  0  0
    7.4259  -13.3492   26.1416 C   0  0  2  0  0  0  0  0  0  0  0  0
    7.9446  -11.9829   25.6682 C   0  0  0  0  0  0  0  0  0  0  0  0
    8.2363  -14.4311   25.4912 C   0  0  2  0  0  0  0  0  0  0  0  0
    7.9006  -14.6232   24.1025 N   0  0  0  0  0  0  0  0  0  0  0  0
    8.2992  -15.6666   26.2826 C   0  0  0  0  0  0  0  0  0  0  0  0
    7.9129  -16.8682   25.6872 O   0  0  0  0  0  0  0  0  0  0  0  0
    8.6856  -15.6868   27.4756 O   0  0  0  0  0  0  0  0  0  0  0  0
  1  5  1  0
  1  2  1  0
  2  3  1  0
  4  3  1  0
  5  4  1  0
  6  8  1  0
  5  6  1  1
  7  6  2  0
  8 12  1  0
  9 10  1  0
  9  8  1  0
 10 11  1  0
 11 12  1  0
 12 13  1  1
 13 14  2  0
 16 15  1  0
 17 16  1  0
 17 18  1  6
 19 17  1  0
 19 20  1  6
 20 13  1  0
 21 19  1  0
 22 21  1  0
 23 21  2  0
M  END
$$$$
