PPI.pdb
     RDKit          3D

 23 24  0  0  1  0  0  0  0  0999 V2000
    7.2322  -19.5130   20.9464 N   0  0  0  0  0  0  0  0  0  0  0  0
    5.8976  -20.1445   20.7485 C   0  0  0  0  0  0  0  0  0  0  0  0
    5.2298  -19.6563   22.0429 C   0  0  0  0  0  0  0  0  0  0  0  0
    5.8058  -18.2350   22.1556 C   0  0  0  0  0  0  0  0  0  0  0  0
    6.7966  -18.1378   21.0122 C   0  0  1  0  0  0  0  0  0  0  0  0
    7.8128  -17.1319   21.2469 C   0  0  0  0  0  0  0  0  0  0  0  0
    9.0139  -17.6167   21.2365 O   0  0  0  0  0  0  0  0  0  0  0  0
    7.6715  -15.7486   21.4768 N   0  0  0  0  0  0  0  0  0  0  0  0
    6.5177  -14.8918   21.5156 C   0  0  0  0  0  0  0  0  0  0  0  0
    6.9523  -13.8169   20.5282 C   0  0  0  0  0  0  0  0  0  0  0  0
    8.4085  -13.6209   20.9801 C   0  0  0  0  0  0  0  0  0  0  0  0
    8.7774  -14.8574   21.7601 C   0  0  1  0  0  0  0  0  0  0  0  0
    8.8993  -14.4891   23.1846 C   0  0  0  0  0  0  0  0  0  0  0  0
    9.9224  -13.8000   23.4746 O   0  0  0  0  0  0  0  0  0  0  0  0
    5.4222  -11.9244   25.8706 C   0  0  0  0  0  0  0  0  0  0  0  0
    6.6740  -12.5670   25.3398 C   0  0  0  0  0  0  0  0  0  0  0  0
    7.2388  -13.6316   26.1996 C   0  0  2  0  0  0  0  0  0  0  0  0
    7.7708  -13.0688   27.5263 C   0  0  0  0  0  0  0  0  0  0  0  0
    8.2933  -14.4999   25.5798 C   0  0  2  0  0  0  0  0  0  0  0  0
    8.0114  -14.8268   24.2044 N   0  0  0  0  0  0  0  0  0  0  0  0
    8.6693  -15.6463   26.4171 C   0  0  0  0  0  0  0  0  0  0  0  0
    9.6711  -15.4813   27.3745 O   0  0  0  0  0  0  0  0  0  0  0  0
    8.1269  -16.7717   26.3063 O   0  0  0  0  0  0  0  0  0  0  0  0
  1  5  1  0
  1  2  1  0
  2  3  1  0
  4  3  1  0
  5  4  1  0
  6  8  1  0
  5  6  1  1
  7  6  2  0
  8 12  1  0
  9 10  1  0
  9  8  1  0
 10 11  1  0
 11 12  1  0
 12 13  1  1
 13 14  2  0
 16 15  1  0
 17 16  1  0
 17 18  1  1
 19 17  1  0
 19 20  1  6
 20 13  1  0
 21 19  1  0
 22 21  1  0
 23 21  2  0
M  END
$$$$
