PPI.pdb
     RDKit          3D

 23 24  0  0  1  0  0  0  0  0999 V2000
    7.1869  -14.1735   18.3136 N   0  0  0  0  0  0  0  0  0  0  0  0
    8.1147  -13.5800   17.3105 C   0  0  0  0  0  0  0  0  0  0  0  0
    8.7168  -12.4771   18.1942 C   0  0  0  0  0  0  0  0  0  0  0  0
    8.8224  -13.2043   19.5449 C   0  0  0  0  0  0  0  0  0  0  0  0
    8.1716  -14.5515   19.2999 C   0  0  1  0  0  0  0  0  0  0  0  0
    7.6852  -15.1595   20.5219 C   0  0  0  0  0  0  0  0  0  0  0  0
    6.4836  -14.7848   20.8278 O   0  0  0  0  0  0  0  0  0  0  0  0
    8.3233  -16.0696   21.3884 N   0  0  0  0  0  0  0  0  0  0  0  0
    9.5999  -16.7275   21.3234 C   0  0  0  0  0  0  0  0  0  0  0  0
    9.1624  -18.1744   21.5093 C   0  0  0  0  0  0  0  0  0  0  0  0
    8.1420  -17.9945   22.6450 C   0  0  0  0  0  0  0  0  0  0  0  0
    7.7527  -16.5379   22.6345 C   0  0  1  0  0  0  0  0  0  0  0  0
    8.3254  -15.8951   23.8338 C   0  0  0  0  0  0  0  0  0  0  0  0
    9.5817  -15.7324   23.8068 O   0  0  0  0  0  0  0  0  0  0  0  0
    5.7276  -12.1986   27.4002 C   0  0  0  0  0  0  0  0  0  0  0  0
    6.2006  -13.4216   26.6640 C   0  0  0  0  0  0  0  0  0  0  0  0
    7.6268  -13.3958   26.2679 C   0  0  2  0  0  0  0  0  0  0  0  0
    7.8643  -12.4813   25.0567 C   0  0  0  0  0  0  0  0  0  0  0  0
    8.2711  -14.7256   26.0095 C   0  0  2  0  0  0  0  0  0  0  0  0
    7.6212  -15.4670   24.9578 N   0  0  0  0  0  0  0  0  0  0  0  0
    8.5276  -15.4956   27.2334 C   0  0  0  0  0  0  0  0  0  0  0  0
    9.3827  -14.9616   28.1983 O   0  0  0  0  0  0  0  0  0  0  0  0
    8.0097  -16.6176   27.4477 O   0  0  0  0  0  0  0  0  0  0  0  0
  1  5  1  0
  1  2  1  0
  2  3  1  0
  4  3  1  0
  5  4  1  0
  6  8  1  0
  5  6  1  1
  7  6  2  0
  8 12  1  0
  9 10  1  0
  9  8  1  0
 10 11  1  0
 11 12  1  0
 12 13  1  1
 13 14  2  0
 16 15  1  0
 17 16  1  0
 17 18  1  6
 19 17  1  0
 19 20  1  6
 20 13  1  0
 21 19  1  0
 22 21  1  0
 23 21  2  0
M  END
$$$$
