PPI.pdb
     RDKit          3D

 23 24  0  0  1  0  0  0  0  0999 V2000
    7.9299  -18.5579   19.7061 N   0  0  0  0  0  0  0  0  0  0  0  0
    6.7122  -19.3216   19.3150 C   0  0  0  0  0  0  0  0  0  0  0  0
    6.0405  -19.3850   20.6951 C   0  0  0  0  0  0  0  0  0  0  0  0
    6.3741  -17.9909   21.2513 C   0  0  0  0  0  0  0  0  0  0  0  0
    7.2731  -17.3705   20.2000 C   0  0  1  0  0  0  0  0  0  0  0  0
    8.1164  -16.3246   20.7429 C   0  0  0  0  0  0  0  0  0  0  0  0
    9.3738  -16.6354   20.7339 O   0  0  0  0  0  0  0  0  0  0  0  0
    7.7618  -15.0625   21.2602 N   0  0  0  0  0  0  0  0  0  0  0  0
    6.4882  -14.4246   21.4544 C   0  0  0  0  0  0  0  0  0  0  0  0
    6.7377  -13.1082   20.7305 C   0  0  0  0  0  0  0  0  0  0  0  0
    8.1497  -12.7895   21.2478 C   0  0  0  0  0  0  0  0  0  0  0  0
    8.7168  -14.0918   21.7536 C   0  0  1  0  0  0  0  0  0  0  0  0
    8.7946  -14.0241   23.2263 C   0  0  0  0  0  0  0  0  0  0  0  0
    9.1563  -12.9031   23.6932 O   0  0  0  0  0  0  0  0  0  0  0  0
    6.7828  -11.3311   25.5550 C   0  0  0  0  0  0  0  0  0  0  0  0
    7.7188  -12.4380   25.1546 C   0  0  0  0  0  0  0  0  0  0  0  0
    7.5535  -13.6973   25.9151 C   0  0  2  0  0  0  0  0  0  0  0  0
    7.6462  -13.4628   27.4305 C   0  0  0  0  0  0  0  0  0  0  0  0
    8.4652  -14.8277   25.5393 C   0  0  2  0  0  0  0  0  0  0  0  0
    8.5133  -15.0584   24.1171 N   0  0  0  0  0  0  0  0  0  0  0  0
    8.2590  -16.0354   26.3490 C   0  0  0  0  0  0  0  0  0  0  0  0
    7.8971  -17.2216   25.7092 O   0  0  0  0  0  0  0  0  0  0  0  0
    8.3936  -16.0449   27.5960 O   0  0  0  0  0  0  0  0  0  0  0  0
  1  5  1  0
  1  2  1  0
  2  3  1  0
  4  3  1  0
  5  4  1  0
  6  8  1  0
  5  6  1  1
  7  6  2  0
  8 12  1  0
  9 10  1  0
  9  8  1  0
 10 11  1  0
 11 12  1  0
 12 13  1  1
 13 14  2  0
 16 15  1  0
 17 16  1  0
 17 18  1  1
 19 17  1  0
 19 20  1  6
 20 13  1  0
 21 19  1  0
 22 21  1  0
 23 21  2  0
M  END
$$$$
