PPI.pdb
     RDKit          3D

 23 24  0  0  1  0  0  0  0  0999 V2000
    6.8638  -19.8104   21.2966 N   0  0  0  0  0  0  0  0  0  0  0  0
    5.4804  -20.3583   21.2252 C   0  0  0  0  0  0  0  0  0  0  0  0
    5.0191  -19.9743   22.6393 C   0  0  0  0  0  0  0  0  0  0  0  0
    5.6864  -18.5989   22.8053 C   0  0  0  0  0  0  0  0  0  0  0  0
    6.5213  -18.4309   21.5510 C   0  0  1  0  0  0  0  0  0  0  0  0
    7.6163  -17.5004   21.7378 C   0  0  0  0  0  0  0  0  0  0  0  0
    8.7720  -18.0837   21.7786 O   0  0  0  0  0  0  0  0  0  0  0  0
    7.5899  -16.0981   21.8762 N   0  0  0  0  0  0  0  0  0  0  0  0
    6.5081  -15.1513   21.8837 C   0  0  0  0  0  0  0  0  0  0  0  0
    6.9966  -14.1820   20.8155 C   0  0  0  0  0  0  0  0  0  0  0  0
    8.4760  -14.0733   21.2186 C   0  0  0  0  0  0  0  0  0  0  0  0
    8.7696  -15.2811   22.0722 C   0  0  1  0  0  0  0  0  0  0  0  0
    8.9608  -14.8305   23.4651 C   0  0  0  0  0  0  0  0  0  0  0  0
   10.0775  -14.2806   23.7022 O   0  0  0  0  0  0  0  0  0  0  0  0
    5.4152  -12.3901   26.9033 C   0  0  0  0  0  0  0  0  0  0  0  0
    6.1647  -13.5096   26.2349 C   0  0  0  0  0  0  0  0  0  0  0  0
    7.6343  -13.4635   26.4070 C   0  0  2  0  0  0  0  0  0  0  0  0
    8.2320  -12.1640   25.8466 C   0  0  0  0  0  0  0  0  0  0  0  0
    8.4060  -14.6297   25.8642 C   0  0  2  0  0  0  0  0  0  0  0  0
    8.0446  -14.9570   24.5076 N   0  0  0  0  0  0  0  0  0  0  0  0
    8.4484  -15.7766   26.7805 C   0  0  0  0  0  0  0  0  0  0  0  0
    9.0612  -15.6224   28.0247 O   0  0  0  0  0  0  0  0  0  0  0  0
    7.9565  -16.8931   26.4898 O   0  0  0  0  0  0  0  0  0  0  0  0
  1  5  1  0
  1  2  1  0
  2  3  1  0
  4  3  1  0
  5  4  1  0
  6  8  1  0
  5  6  1  1
  7  6  2  0
  8 12  1  0
  9 10  1  0
  9  8  1  0
 10 11  1  0
 11 12  1  0
 12 13  1  1
 13 14  2  0
 16 15  1  0
 17 16  1  0
 17 18  1  6
 19 17  1  0
 19 20  1  6
 20 13  1  0
 21 19  1  0
 22 21  1  0
 23 21  2  0
M  END
$$$$
