PPI.pdb
     RDKit          3D

 23 24  0  0  1  0  0  0  0  0999 V2000
    7.1276  -14.3474   18.5206 N   0  0  0  0  0  0  0  0  0  0  0  0
    7.8944  -13.5756   17.5031 C   0  0  0  0  0  0  0  0  0  0  0  0
    8.2580  -12.3642   18.3748 C   0  0  0  0  0  0  0  0  0  0  0  0
    8.5335  -13.0438   19.7263 C   0  0  0  0  0  0  0  0  0  0  0  0
    8.1826  -14.5004   19.4946 C   0  0  1  0  0  0  0  0  0  0  0  0
    7.8528  -15.1908   20.7251 C   0  0  0  0  0  0  0  0  0  0  0  0
    6.6073  -15.0624   21.0569 O   0  0  0  0  0  0  0  0  0  0  0  0
    8.6775  -15.9538   21.5760 N   0  0  0  0  0  0  0  0  0  0  0  0
   10.0577  -16.3448   21.4826 C   0  0  0  0  0  0  0  0  0  0  0  0
    9.9208  -17.8493   21.6748 C   0  0  0  0  0  0  0  0  0  0  0  0
    8.9094  -17.8735   22.8323 C   0  0  0  0  0  0  0  0  0  0  0  0
    8.2380  -16.5234   22.8330 C   0  0  1  0  0  0  0  0  0  0  0  0
    8.6966  -15.7768   24.0212 C   0  0  0  0  0  0  0  0  0  0  0  0
    9.8926  -15.3620   23.9651 O   0  0  0  0  0  0  0  0  0  0  0  0
    5.7288  -11.9320   26.1608 C   0  0  0  0  0  0  0  0  0  0  0  0
    6.8079  -12.8483   25.6533 C   0  0  0  0  0  0  0  0  0  0  0  0
    7.4884  -13.6458   26.6985 C   0  0  2  0  0  0  0  0  0  0  0  0
    8.1690  -12.7500   27.7445 C   0  0  0  0  0  0  0  0  0  0  0  0
    8.4727  -14.6714   26.2194 C   0  0  2  0  0  0  0  0  0  0  0  0
    7.9475  -15.5004   25.1635 N   0  0  0  0  0  0  0  0  0  0  0  0
    9.1229  -15.4084   27.3107 C   0  0  0  0  0  0  0  0  0  0  0  0
   10.1397  -14.7831   28.0335 O   0  0  0  0  0  0  0  0  0  0  0  0
    8.8023  -16.5808   27.6202 O   0  0  0  0  0  0  0  0  0  0  0  0
  1  5  1  0
  1  2  1  0
  2  3  1  0
  4  3  1  0
  5  4  1  0
  6  8  1  0
  5  6  1  1
  7  6  2  0
  8 12  1  0
  9 10  1  0
  9  8  1  0
 10 11  1  0
 11 12  1  0
 12 13  1  1
 13 14  2  0
 16 15  1  0
 17 16  1  0
 17 18  1  1
 19 17  1  0
 19 20  1  6
 20 13  1  0
 21 19  1  0
 22 21  1  0
 23 21  2  0
M  END
$$$$
