PPI.pdb
     RDKit          3D

 23 24  0  0  1  0  0  0  0  0999 V2000
    8.0277  -15.3670   20.3074 N   0  0  0  0  0  0  0  0  0  0  0  0
    6.8987  -15.8447   19.4611 C   0  0  0  0  0  0  0  0  0  0  0  0
    6.3783  -16.9495   20.3930 C   0  0  0  0  0  0  0  0  0  0  0  0
    6.5628  -16.2879   21.7687 C   0  0  0  0  0  0  0  0  0  0  0  0
    7.2597  -14.9760   21.4660 C   0  0  1  0  0  0  0  0  0  0  0  0
    7.9944  -14.4658   22.6060 C   0  0  0  0  0  0  0  0  0  0  0  0
    9.2028  -14.1074   22.3076 O   0  0  0  0  0  0  0  0  0  0  0  0
    7.5829  -14.3146   23.9455 N   0  0  0  0  0  0  0  0  0  0  0  0
    6.3280  -14.5637   24.6013 C   0  0  0  0  0  0  0  0  0  0  0  0
    6.1100  -13.2165   25.2771 C   0  0  0  0  0  0  0  0  0  0  0  0
    7.5287  -12.9594   25.8103 C   0  0  0  0  0  0  0  0  0  0  0  0
    8.4467  -13.8490   25.0107 C   0  0  1  0  0  0  0  0  0  0  0  0
    8.9388  -14.9239   25.8951 C   0  0  0  0  0  0  0  0  0  0  0  0
    8.0378  -15.5574   26.5216 O   0  0  0  0  0  0  0  0  0  0  0  0
   11.0049  -13.9172   30.8063 C   0  0  0  0  0  0  0  0  0  0  0  0
   11.1424  -15.0063   29.7783 C   0  0  0  0  0  0  0  0  0  0  0  0
   10.6078  -14.6686   28.4398 C   0  0  2  0  0  0  0  0  0  0  0  0
    9.1418  -14.2152   28.5107 C   0  0  0  0  0  0  0  0  0  0  0  0
   10.7418  -15.7243   27.3826 C   0  0  2  0  0  0  0  0  0  0  0  0
   10.2698  -15.2871   26.0926 N   0  0  0  0  0  0  0  0  0  0  0  0
   10.2401  -17.0382   27.8053 C   0  0  0  0  0  0  0  0  0  0  0  0
    9.2299  -17.6455   27.0583 O   0  0  0  0  0  0  0  0  0  0  0  0
   10.6821  -17.6385   28.8138 O   0  0  0  0  0  0  0  0  0  0  0  0
  1  5  1  0
  1  2  1  0
  2  3  1  0
  4  3  1  0
  5  4  1  0
  6  8  1  0
  5  6  1  1
  7  6  2  0
  8 12  1  0
  9 10  1  0
  9  8  1  0
 10 11  1  0
 11 12  1  0
 12 13  1  1
 13 14  2  0
 16 15  1  0
 17 16  1  0
 17 18  1  1
 19 17  1  0
 19 20  1  6
 20 13  1  0
 21 19  1  0
 22 21  1  0
 23 21  2  0
M  END
$$$$
