PPI.pdb
     RDKit          3D

 23 24  0  0  1  0  0  0  0  0999 V2000
    9.6078  -18.5063   19.6642 N   0  0  0  0  0  0  0  0  0  0  0  0
   10.5676  -19.4230   18.9878 C   0  0  0  0  0  0  0  0  0  0  0  0
   11.2797  -18.3846   18.1078 C   0  0  0  0  0  0  0  0  0  0  0  0
   11.3431  -17.1809   19.0624 C   0  0  0  0  0  0  0  0  0  0  0  0
   10.5715  -17.6301   20.2877 C   0  0  1  0  0  0  0  0  0  0  0  0
   10.0537  -16.5141   21.0533 C   0  0  0  0  0  0  0  0  0  0  0  0
   10.9870  -15.8022   21.6009 O   0  0  0  0  0  0  0  0  0  0  0  0
    8.7193  -16.1172   21.2726 N   0  0  0  0  0  0  0  0  0  0  0  0
    7.4653  -16.6832   20.8555 C   0  0  0  0  0  0  0  0  0  0  0  0
    6.8245  -15.4616   20.2102 C   0  0  0  0  0  0  0  0  0  0  0  0
    7.1869  -14.3942   21.2553 C   0  0  0  0  0  0  0  0  0  0  0  0
    8.3366  -14.9578   22.0516 C   0  0  1  0  0  0  0  0  0  0  0  0
    7.8486  -15.2819   23.4068 C   0  0  0  0  0  0  0  0  0  0  0  0
    7.7991  -16.5188   23.6772 O   0  0  0  0  0  0  0  0  0  0  0  0
    5.7854  -11.7018   27.4867 C   0  0  0  0  0  0  0  0  0  0  0  0
    6.1497  -12.6759   26.4004 C   0  0  0  0  0  0  0  0  0  0  0  0
    7.3766  -13.4633   26.6576 C   0  0  2  0  0  0  0  0  0  0  0  0
    8.6355  -12.5838   26.6188 C   0  0  0  0  0  0  0  0  0  0  0  0
    7.5930  -14.6644   25.7853 C   0  0  2  0  0  0  0  0  0  0  0  0
    7.4494  -14.3694   24.3816 N   0  0  0  0  0  0  0  0  0  0  0  0
    6.8600  -15.8531   26.2394 C   0  0  0  0  0  0  0  0  0  0  0  0
    5.8702  -16.3898   25.4150 O   0  0  0  0  0  0  0  0  0  0  0  0
    7.0861  -16.4071   27.3417 O   0  0  0  0  0  0  0  0  0  0  0  0
  1  5  1  0
  1  2  1  0
  2  3  1  0
  4  3  1  0
  5  4  1  0
  6  8  1  0
  5  6  1  6
  7  6  2  0
  8 12  1  0
  9 10  1  0
  9  8  1  0
 10 11  1  0
 11 12  1  0
 12 13  1  1
 13 14  2  0
 16 15  1  0
 17 16  1  0
 17 18  1  6
 19 17  1  0
 19 20  1  6
 20 13  1  0
 21 19  1  0
 22 21  1  0
 23 21  2  0
M  END
$$$$
