PPI.pdb
     RDKit          3D

 23 24  0  0  1  0  0  0  0  0999 V2000
    7.0893  -19.7469   21.2327 N   0  0  0  0  0  0  0  0  0  0  0  0
    5.7411  -20.3745   21.1464 C   0  0  0  0  0  0  0  0  0  0  0  0
    5.2093  -19.9417   22.5211 C   0  0  0  0  0  0  0  0  0  0  0  0
    5.7946  -18.5242   22.6322 C   0  0  0  0  0  0  0  0  0  0  0  0
    6.6636  -18.3771   21.3987 C   0  0  1  0  0  0  0  0  0  0  0  0
    7.6991  -17.3779   21.5694 C   0  0  0  0  0  0  0  0  0  0  0  0
    8.8927  -17.8804   21.5484 O   0  0  0  0  0  0  0  0  0  0  0  0
    7.5826  -15.9849   21.7489 N   0  0  0  0  0  0  0  0  0  0  0  0
    6.4403  -15.1142   21.8116 C   0  0  0  0  0  0  0  0  0  0  0  0
    6.8328  -14.0854   20.7596 C   0  0  0  0  0  0  0  0  0  0  0  0
    8.3123  -13.8876   21.1274 C   0  0  0  0  0  0  0  0  0  0  0  0
    8.7098  -15.0954   21.9379 C   0  0  1  0  0  0  0  0  0  0  0  0
    8.9088  -14.6707   23.3378 C   0  0  0  0  0  0  0  0  0  0  0  0
    9.9685  -14.0098   23.5521 O   0  0  0  0  0  0  0  0  0  0  0  0
    5.2937  -12.2081   26.0475 C   0  0  0  0  0  0  0  0  0  0  0  0
    6.5829  -12.7449   25.4894 C   0  0  0  0  0  0  0  0  0  0  0  0
    7.3033  -13.6823   26.3802 C   0  0  2  0  0  0  0  0  0  0  0  0
    7.8757  -12.9681   27.6140 C   0  0  0  0  0  0  0  0  0  0  0  0
    8.3857  -14.5054   25.7467 C   0  0  2  0  0  0  0  0  0  0  0  0
    8.0556  -14.9293   24.4090 N   0  0  0  0  0  0  0  0  0  0  0  0
    8.8919  -15.5723   26.6198 C   0  0  0  0  0  0  0  0  0  0  0  0
    9.9768  -15.3013   27.4547 O   0  0  0  0  0  0  0  0  0  0  0  0
    8.3892  -16.7210   26.6454 O   0  0  0  0  0  0  0  0  0  0  0  0
  1  5  1  0
  1  2  1  0
  2  3  1  0
  4  3  1  0
  5  4  1  0
  6  8  1  0
  5  6  1  1
  7  6  2  0
  8 12  1  0
  9 10  1  0
  9  8  1  0
 10 11  1  0
 11 12  1  0
 12 13  1  1
 13 14  2  0
 16 15  1  0
 17 16  1  0
 17 18  1  1
 19 17  1  0
 19 20  1  6
 20 13  1  0
 21 19  1  0
 22 21  1  0
 23 21  2  0
M  END
$$$$
