DKK.pdb
     RDKit          3D

 27 26  0  0  1  0  0  0  0  0999 V2000
   16.6086  -13.3663  -14.4813 N   0  0  0  0  0  0  0  0  0  0  0  0
   16.1026  -12.0218  -14.8133 C   0  0  1  0  0  0  0  0  0  0  0  0
   14.6281  -12.0849  -14.6188 C   0  0  0  0  0  0  0  0  0  0  0  0
   13.8730  -12.8754  -15.5861 C   0  0  0  0  0  0  0  0  0  0  0  0
   13.9170  -12.7683  -16.8219 O   0  0  0  0  0  0  0  0  0  0  0  0
   16.7463  -11.0828  -13.8546 C   0  0  0  0  0  0  0  0  0  0  0  0
   16.8372  -11.4267  -12.6281 O   0  0  0  0  0  0  0  0  0  0  0  0
   13.0129  -13.8535  -15.0468 O   0  0  0  0  0  0  0  0  0  0  0  0
   17.2597   -9.8238  -14.2582 N   0  0  0  0  0  0  0  0  0  0  0  0
   18.0042   -9.0395  -13.2806 C   0  0  1  0  0  0  0  0  0  0  0  0
   19.0302   -8.2284  -14.0302 C   0  0  0  0  0  0  0  0  0  0  0  0
   19.8205   -7.2905  -13.1877 C   0  0  0  0  0  0  0  0  0  0  0  0
   20.8455   -6.5079  -13.9932 C   0  0  0  0  0  0  0  0  0  0  0  0
   21.5062   -5.4208  -13.2027 C   0  0  0  0  0  0  0  0  0  0  0  0
   20.5465   -4.3326  -12.9809 N   0  0  0  0  0  0  0  0  0  0  0  0
   17.1050   -8.1395  -12.5298 C   0  0  0  0  0  0  0  0  0  0  0  0
   16.3394   -7.2994  -13.0536 O   0  0  0  0  0  0  0  0  0  0  0  0
   17.0448   -8.1678  -11.0863 N   0  0  0  0  0  0  0  0  0  0  0  0
   16.1360   -7.3666  -10.3142 C   0  0  1  0  0  0  0  0  0  0  0  0
   15.6892   -8.0525   -9.0444 C   0  0  0  0  0  0  0  0  0  0  0  0
   14.7566   -7.1898   -8.2232 C   0  0  0  0  0  0  0  0  0  0  0  0
   13.3681   -7.7221   -8.3056 C   0  0  0  0  0  0  0  0  0  0  0  0
   12.3518   -6.8740   -7.5875 C   0  0  0  0  0  0  0  0  0  0  0  0
   11.0030   -7.2569   -7.8394 N   0  0  0  0  0  0  0  0  0  0  0  0
   16.8069   -6.0778  -10.0089 C   0  0  0  0  0  0  0  0  0  0  0  0
   16.1457   -5.0516   -9.6484 O   0  0  0  0  0  0  0  0  0  0  0  0
   18.1775   -5.9313  -10.1013 O   0  0  0  0  0  0  0  0  0  0  0  0
  2  1  1  1
  3  2  1  0
  4  8  1  0
  4  3  1  0
  5  4  2  0
  6  2  1  0
  7  6  2  0
  9  6  1  0
 10 11  1  6
 10  9  1  0
 11 12  1  0
 13 12  1  0
 13 14  1  0
 14 15  1  0
 16 10  1  0
 17 16  2  0
 18 16  1  0
 19 25  1  0
 19 18  1  0
 19 20  1  1
 21 20  1  0
 22 21  1  0
 23 24  1  0
 23 22  1  0
 25 27  1  0
 26 25  2  0
M  END
$$$$
