DKK.pdb
     RDKit          3D

 27 26  0  0  1  0  0  0  0  0999 V2000
   16.6397  -12.3657  -10.1652 N   0  0  0  0  0  0  0  0  0  0  0  0
   15.9952  -11.3472  -11.0143 C   0  0  1  0  0  0  0  0  0  0  0  0
   14.5493  -11.3827  -10.6620 C   0  0  0  0  0  0  0  0  0  0  0  0
   13.7949  -12.5502  -11.1077 C   0  0  0  0  0  0  0  0  0  0  0  0
   13.5956  -12.8956  -12.2830 O   0  0  0  0  0  0  0  0  0  0  0  0
   16.6194  -10.0450  -10.6544 C   0  0  0  0  0  0  0  0  0  0  0  0
   17.0259   -9.8711   -9.4563 O   0  0  0  0  0  0  0  0  0  0  0  0
   13.2446  -13.3549  -10.0894 O   0  0  0  0  0  0  0  0  0  0  0  0
   16.7765   -8.9956  -11.5955 N   0  0  0  0  0  0  0  0  0  0  0  0
   17.4973   -7.7994  -11.1776 C   0  0  1  0  0  0  0  0  0  0  0  0
   18.4857   -7.4579  -12.2634 C   0  0  0  0  0  0  0  0  0  0  0  0
   19.3026   -6.2417  -12.0030 C   0  0  0  0  0  0  0  0  0  0  0  0
   20.2401   -5.9134  -13.1541 C   0  0  0  0  0  0  0  0  0  0  0  0
   21.1430   -4.7546  -12.8624 C   0  0  0  0  0  0  0  0  0  0  0  0
   21.9880   -4.4932  -14.0338 N   0  0  0  0  0  0  0  0  0  0  0  0
   16.5695   -6.6686  -10.9707 C   0  0  0  0  0  0  0  0  0  0  0  0
   15.7697   -6.2377  -11.8315 O   0  0  0  0  0  0  0  0  0  0  0  0
   16.5192   -5.9559   -9.7146 N   0  0  0  0  0  0  0  0  0  0  0  0
   15.5363   -4.9534   -9.4100 C   0  0  1  0  0  0  0  0  0  0  0  0
   15.2856   -4.8151   -7.9267 C   0  0  0  0  0  0  0  0  0  0  0  0
   14.3472   -3.6725   -7.6068 C   0  0  0  0  0  0  0  0  0  0  0  0
   13.5083   -4.0197   -6.4263 C   0  0  0  0  0  0  0  0  0  0  0  0
   12.5078   -2.9549   -6.0613 C   0  0  0  0  0  0  0  0  0  0  0  0
   11.7491   -3.2555   -4.8937 N   0  0  0  0  0  0  0  0  0  0  0  0
   15.9993   -3.6667   -9.9883 C   0  0  0  0  0  0  0  0  0  0  0  0
   15.1766   -2.7858  -10.3974 O   0  0  0  0  0  0  0  0  0  0  0  0
   17.3420   -3.3650  -10.1096 O   0  0  0  0  0  0  0  0  0  0  0  0
  2  1  1  1
  3  2  1  0
  4  8  1  0
  4  3  1  0
  5  4  2  0
  6  2  1  0
  7  6  2  0
  9  6  1  0
 10 11  1  6
 10  9  1  0
 11 12  1  0
 13 12  1  0
 13 14  1  0
 14 15  1  0
 16 10  1  0
 17 16  2  0
 18 16  1  0
 19 25  1  0
 19 18  1  0
 19 20  1  1
 21 20  1  0
 22 21  1  0
 23 24  1  0
 23 22  1  0
 25 27  1  0
 26 25  2  0
M  END
$$$$
