DKK.pdb
     RDKit          3D

 27 26  0  0  1  0  0  0  0  0999 V2000
   25.7225  -17.2154  -18.0990 N   0  0  0  0  0  0  0  0  0  0  0  0
   26.9480  -16.8867  -18.8499 C   0  0  1  0  0  0  0  0  0  0  0  0
   26.8962  -17.7096  -20.0893 C   0  0  0  0  0  0  0  0  0  0  0  0
   27.0768  -19.1491  -19.9280 C   0  0  0  0  0  0  0  0  0  0  0  0
   26.9590  -19.7942  -18.8742 O   0  0  0  0  0  0  0  0  0  0  0  0
   26.8780  -15.4308  -19.1504 C   0  0  0  0  0  0  0  0  0  0  0  0
   27.7777  -14.9154  -19.8959 O   0  0  0  0  0  0  0  0  0  0  0  0
   27.4186  -19.8628  -21.0946 O   0  0  0  0  0  0  0  0  0  0  0  0
   25.8484  -14.6011  -18.6374 N   0  0  0  0  0  0  0  0  0  0  0  0
   25.8425  -13.1950  -19.0222 C   0  0  1  0  0  0  0  0  0  0  0  0
   24.4858  -12.6330  -18.6815 C   0  0  0  0  0  0  0  0  0  0  0  0
   23.3941  -13.0328  -19.6101 C   0  0  0  0  0  0  0  0  0  0  0  0
   22.0485  -12.4471  -19.2122 C   0  0  0  0  0  0  0  0  0  0  0  0
   20.9443  -12.8247  -20.1509 C   0  0  0  0  0  0  0  0  0  0  0  0
   19.6604  -12.3915  -19.5865 N   0  0  0  0  0  0  0  0  0  0  0  0
   26.8911  -12.4453  -18.3008 C   0  0  0  0  0  0  0  0  0  0  0  0
   27.0702  -12.4849  -17.0628 O   0  0  0  0  0  0  0  0  0  0  0  0
   27.8164  -11.5832  -18.9998 N   0  0  0  0  0  0  0  0  0  0  0  0
   28.8528  -10.8344  -18.3447 C   0  0  1  0  0  0  0  0  0  0  0  0
   30.2375  -11.3252  -18.6967 C   0  0  0  0  0  0  0  0  0  0  0  0
   31.3235  -10.4794  -18.0692 C   0  0  0  0  0  0  0  0  0  0  0  0
   32.6623  -11.0223  -18.4305 C   0  0  0  0  0  0  0  0  0  0  0  0
   33.8097  -10.2323  -17.8583 C   0  0  0  0  0  0  0  0  0  0  0  0
   35.0775  -10.8615  -18.0198 N   0  0  0  0  0  0  0  0  0  0  0  0
   28.6902   -9.4058  -18.7149 C   0  0  0  0  0  0  0  0  0  0  0  0
   29.3067   -8.4821  -18.0929 O   0  0  0  0  0  0  0  0  0  0  0  0
   27.8639   -9.0119  -19.7497 O   0  0  0  0  0  0  0  0  0  0  0  0
  2  1  1  1
  3  2  1  0
  4  8  1  0
  4  3  1  0
  5  4  2  0
  6  2  1  0
  7  6  2  0
  9  6  1  0
 10 11  1  1
 10  9  1  0
 11 12  1  0
 13 12  1  0
 13 14  1  0
 14 15  1  0
 16 10  1  0
 17 16  2  0
 18 16  1  0
 19 25  1  0
 19 18  1  0
 19 20  1  6
 21 20  1  0
 22 21  1  0
 23 24  1  0
 23 22  1  0
 25 27  1  0
 26 25  2  0
M  END
$$$$
