DKK.pdb
     RDKit          3D

 27 26  0  0  1  0  0  0  0  0999 V2000
   24.6405  -22.1787  -16.6775 N   0  0  0  0  0  0  0  0  0  0  0  0
   24.9695  -22.1447  -15.2407 C   0  0  1  0  0  0  0  0  0  0  0  0
   26.1758  -21.2805  -15.1221 C   0  0  0  0  0  0  0  0  0  0  0  0
   27.4292  -21.8322  -15.6273 C   0  0  0  0  0  0  0  0  0  0  0  0
   27.5833  -22.9373  -16.1707 O   0  0  0  0  0  0  0  0  0  0  0  0
   23.7920  -21.5465  -14.5548 C   0  0  0  0  0  0  0  0  0  0  0  0
   23.8279  -21.4073  -13.2858 O   0  0  0  0  0  0  0  0  0  0  0  0
   28.5685  -21.0159  -15.4753 O   0  0  0  0  0  0  0  0  0  0  0  0
   22.6363  -21.1280  -15.2625 N   0  0  0  0  0  0  0  0  0  0  0  0
   21.4935  -20.6519  -14.4927 C   0  0  1  0  0  0  0  0  0  0  0  0
   20.8354  -19.5506  -15.2841 C   0  0  0  0  0  0  0  0  0  0  0  0
   20.9015  -18.2044  -14.6535 C   0  0  0  0  0  0  0  0  0  0  0  0
   20.2036  -17.1385  -15.4834 C   0  0  0  0  0  0  0  0  0  0  0  0
   20.3086  -15.7690  -14.8864 C   0  0  0  0  0  0  0  0  0  0  0  0
   19.4881  -14.8364  -15.6685 N   0  0  0  0  0  0  0  0  0  0  0  0
   20.5269  -21.7428  -14.2523 C   0  0  0  0  0  0  0  0  0  0  0  0
   20.0459  -22.4768  -15.1446 O   0  0  0  0  0  0  0  0  0  0  0  0
   20.0525  -22.0491  -12.9222 N   0  0  0  0  0  0  0  0  0  0  0  0
   19.1112  -23.0964  -12.6371 C   0  0  1  0  0  0  0  0  0  0  0  0
   19.4104  -23.8114  -11.3403 C   0  0  0  0  0  0  0  0  0  0  0  0
   18.3136  -23.6248  -10.3153 C   0  0  0  0  0  0  0  0  0  0  0  0
   18.6912  -24.2948   -9.0400 C   0  0  0  0  0  0  0  0  0  0  0  0
   17.6722  -24.1269   -7.9440 C   0  0  0  0  0  0  0  0  0  0  0  0
   18.0165  -24.7925   -6.7324 N   0  0  0  0  0  0  0  0  0  0  0  0
   17.7534  -22.4966  -12.6069 C   0  0  0  0  0  0  0  0  0  0  0  0
   17.5641  -21.2949  -12.2323 O   0  0  0  0  0  0  0  0  0  0  0  0
   16.6333  -23.2125  -12.9832 O   0  0  0  0  0  0  0  0  0  0  0  0
  2  1  1  6
  3  2  1  0
  4  8  1  0
  4  3  1  0
  5  4  2  0
  6  2  1  0
  7  6  2  0
  9  6  1  0
 10 11  1  6
 10  9  1  0
 11 12  1  0
 13 12  1  0
 13 14  1  0
 14 15  1  0
 16 10  1  0
 17 16  2  0
 18 16  1  0
 19 25  1  0
 19 18  1  0
 19 20  1  1
 21 20  1  0
 22 21  1  0
 23 24  1  0
 23 22  1  0
 25 27  1  0
 26 25  2  0
M  END
$$$$
