DKK.pdb
     RDKit          3D

 27 26  0  0  1  0  0  0  0  0999 V2000
   23.0892  -16.4267  -18.8855 N   0  0  0  0  0  0  0  0  0  0  0  0
   22.2036  -15.4508  -19.5467 C   0  0  1  0  0  0  0  0  0  0  0  0
   22.6379  -15.4094  -20.9699 C   0  0  0  0  0  0  0  0  0  0  0  0
   23.9687  -14.8705  -21.2333 C   0  0  0  0  0  0  0  0  0  0  0  0
   24.6068  -14.9653  -22.2936 O   0  0  0  0  0  0  0  0  0  0  0  0
   20.8191  -15.9788  -19.4070 C   0  0  0  0  0  0  0  0  0  0  0  0
   19.8755  -15.3991  -20.0429 O   0  0  0  0  0  0  0  0  0  0  0  0
   24.5756  -14.1762  -20.1670 O   0  0  0  0  0  0  0  0  0  0  0  0
   20.5158  -17.1004  -18.5936 N   0  0  0  0  0  0  0  0  0  0  0  0
   19.1553  -17.6233  -18.6231 C   0  0  1  0  0  0  0  0  0  0  0  0
   19.1894  -19.0199  -18.0567 C   0  0  0  0  0  0  0  0  0  0  0  0
   17.8833  -19.7325  -18.0754 C   0  0  0  0  0  0  0  0  0  0  0  0
   17.9603  -21.1051  -17.4257 C   0  0  0  0  0  0  0  0  0  0  0  0
   16.6641  -21.8534  -17.4814 C   0  0  0  0  0  0  0  0  0  0  0  0
   16.7525  -23.0384  -16.6198 N   0  0  0  0  0  0  0  0  0  0  0  0
   18.2470  -16.7790  -17.8205 C   0  0  0  0  0  0  0  0  0  0  0  0
   18.4852  -16.3838  -16.6571 O   0  0  0  0  0  0  0  0  0  0  0  0
   16.9747  -16.3346  -18.3417 N   0  0  0  0  0  0  0  0  0  0  0  0
   16.0616  -15.5050  -17.6055 C   0  0  1  0  0  0  0  0  0  0  0  0
   15.3784  -14.4762  -18.4754 C   0  0  0  0  0  0  0  0  0  0  0  0
   14.4696  -13.5645  -17.6808 C   0  0  0  0  0  0  0  0  0  0  0  0
   13.8876  -12.5241  -18.5735 C   0  0  0  0  0  0  0  0  0  0  0  0
   13.0232  -11.5236  -17.8526 C   0  0  0  0  0  0  0  0  0  0  0  0
   12.5572  -10.4635  -18.6824 N   0  0  0  0  0  0  0  0  0  0  0  0
   15.0637  -16.3892  -16.9523 C   0  0  0  0  0  0  0  0  0  0  0  0
   14.7002  -17.4883  -17.4814 O   0  0  0  0  0  0  0  0  0  0  0  0
   14.4834  -16.0618  -15.7420 O   0  0  0  0  0  0  0  0  0  0  0  0
  2  1  1  1
  3  2  1  0
  4  8  1  0
  4  3  1  0
  5  4  2  0
  6  2  1  0
  7  6  2  0
  9  6  1  0
 10 11  1  1
 10  9  1  0
 11 12  1  0
 13 12  1  0
 13 14  1  0
 14 15  1  0
 16 10  1  0
 17 16  2  0
 18 16  1  0
 19 25  1  0
 19 18  1  0
 19 20  1  6
 21 20  1  0
 22 21  1  0
 23 24  1  0
 23 22  1  0
 25 27  1  0
 26 25  2  0
M  END
$$$$
