DKK.pdb
     RDKit          3D

 27 26  0  0  1  0  0  0  0  0999 V2000
   21.5225  -10.1494  -21.1493 N   0  0  0  0  0  0  0  0  0  0  0  0
   21.7248   -9.4118  -19.8888 C   0  0  1  0  0  0  0  0  0  0  0  0
   22.1907   -8.0544  -20.2845 C   0  0  0  0  0  0  0  0  0  0  0  0
   23.5918   -7.9306  -20.6746 C   0  0  0  0  0  0  0  0  0  0  0  0
   24.4271   -8.8471  -20.7272 O   0  0  0  0  0  0  0  0  0  0  0  0
   20.3998   -9.3655  -19.2125 C   0  0  0  0  0  0  0  0  0  0  0  0
   19.3674   -9.0787  -19.9073 O   0  0  0  0  0  0  0  0  0  0  0  0
   24.0231   -6.6346  -21.0234 O   0  0  0  0  0  0  0  0  0  0  0  0
   20.2481   -9.6285  -17.8271 N   0  0  0  0  0  0  0  0  0  0  0  0
   18.9031   -9.6011  -17.2654 C   0  0  1  0  0  0  0  0  0  0  0  0
   18.8279  -10.6706  -16.2057 C   0  0  0  0  0  0  0  0  0  0  0  0
   18.5855  -12.0447  -16.7226 C   0  0  0  0  0  0  0  0  0  0  0  0
   18.4786  -13.0745  -15.6091 C   0  0  0  0  0  0  0  0  0  0  0  0
   18.1303  -14.4430  -16.1080 C   0  0  0  0  0  0  0  0  0  0  0  0
   18.0899  -15.3751  -14.9748 N   0  0  0  0  0  0  0  0  0  0  0  0
   18.6064   -8.2827  -16.6688 C   0  0  0  0  0  0  0  0  0  0  0  0
   19.4208   -7.6022  -16.0054 O   0  0  0  0  0  0  0  0  0  0  0  0
   17.3083   -7.6648  -16.8151 N   0  0  0  0  0  0  0  0  0  0  0  0
   16.9311   -6.4455  -16.1557 C   0  0  1  0  0  0  0  0  0  0  0  0
   15.5771   -5.9401  -16.5956 C   0  0  0  0  0  0  0  0  0  0  0  0
   15.1559   -4.6970  -15.8436 C   0  0  0  0  0  0  0  0  0  0  0  0
   13.7771   -4.3031  -16.2456 C   0  0  0  0  0  0  0  0  0  0  0  0
   13.2416   -3.1173  -15.4872 C   0  0  0  0  0  0  0  0  0  0  0  0
   11.9532   -2.6919  -15.9213 N   0  0  0  0  0  0  0  0  0  0  0  0
   16.9516   -6.6908  -14.6915 C   0  0  0  0  0  0  0  0  0  0  0  0
   16.5239   -7.7810  -14.1927 O   0  0  0  0  0  0  0  0  0  0  0  0
   17.4348   -5.7498  -13.8028 O   0  0  0  0  0  0  0  0  0  0  0  0
  2  1  1  6
  3  2  1  0
  4  8  1  0
  4  3  1  0
  5  4  2  0
  6  2  1  0
  7  6  2  0
  9  6  1  0
 10 11  1  1
 10  9  1  0
 11 12  1  0
 13 12  1  0
 13 14  1  0
 14 15  1  0
 16 10  1  0
 17 16  2  0
 18 16  1  0
 19 25  1  0
 19 18  1  0
 19 20  1  6
 21 20  1  0
 22 21  1  0
 23 24  1  0
 23 22  1  0
 25 27  1  0
 26 25  2  0
M  END
$$$$
