DKK.pdb
     RDKit          3D

 27 26  0  0  1  0  0  0  0  0999 V2000
   17.2944  -10.3483  -13.5221 N   0  0  0  0  0  0  0  0  0  0  0  0
   17.7780   -9.3918  -12.5097 C   0  0  1  0  0  0  0  0  0  0  0  0
   18.6830   -8.4583  -13.2348 C   0  0  0  0  0  0  0  0  0  0  0  0
   19.9788   -8.9897  -13.6465 C   0  0  0  0  0  0  0  0  0  0  0  0
   21.0796   -8.4303  -13.5209 O   0  0  0  0  0  0  0  0  0  0  0  0
   16.5736   -8.6947  -11.9820 C   0  0  0  0  0  0  0  0  0  0  0  0
   15.6884   -8.2905  -12.8090 O   0  0  0  0  0  0  0  0  0  0  0  0
   19.9606  -10.2661  -14.2446 O   0  0  0  0  0  0  0  0  0  0  0  0
   16.3785   -8.4661  -10.5959 N   0  0  0  0  0  0  0  0  0  0  0  0
   15.1927   -7.7266  -10.1813 C   0  0  1  0  0  0  0  0  0  0  0  0
   14.5695   -8.4705   -9.0277 C   0  0  0  0  0  0  0  0  0  0  0  0
   13.2599   -7.9306   -8.5721 C   0  0  0  0  0  0  0  0  0  0  0  0
   12.5756   -8.8391   -7.5629 C   0  0  0  0  0  0  0  0  0  0  0  0
   11.1835   -8.3998   -7.2283 C   0  0  0  0  0  0  0  0  0  0  0  0
   10.6034   -9.3315   -6.2537 N   0  0  0  0  0  0  0  0  0  0  0  0
   15.5453   -6.3550   -9.7612 C   0  0  0  0  0  0  0  0  0  0  0  0
   16.3972   -6.0750   -8.8881 O   0  0  0  0  0  0  0  0  0  0  0  0
   14.9081   -5.1996  -10.3505 N   0  0  0  0  0  0  0  0  0  0  0  0
   15.2934   -3.8464  -10.0598 C   0  0  1  0  0  0  0  0  0  0  0  0
   14.8372   -2.8706  -11.1189 C   0  0  0  0  0  0  0  0  0  0  0  0
   15.2746   -1.4534  -10.8209 C   0  0  0  0  0  0  0  0  0  0  0  0
   14.8878   -0.5557  -11.9444 C   0  0  0  0  0  0  0  0  0  0  0  0
   15.3906    0.8555  -11.7914 C   0  0  0  0  0  0  0  0  0  0  0  0
   15.4326    1.3072  -10.4410 N   0  0  0  0  0  0  0  0  0  0  0  0
   14.7325   -3.4849   -8.7335 C   0  0  0  0  0  0  0  0  0  0  0  0
   15.3656   -2.7326   -7.9251 O   0  0  0  0  0  0  0  0  0  0  0  0
   13.4997   -3.9468   -8.3145 O   0  0  0  0  0  0  0  0  0  0  0  0
  2  1  1  6
  3  2  1  0
  4  8  1  0
  4  3  1  0
  5  4  2  0
  6  2  1  0
  7  6  2  0
  9  6  1  0
 10 11  1  1
 10  9  1  0
 11 12  1  0
 13 12  1  0
 13 14  1  0
 14 15  1  0
 16 10  1  0
 17 16  2  0
 18 16  1  0
 19 25  1  0
 19 18  1  0
 19 20  1  6
 21 20  1  0
 22 21  1  0
 23 24  1  0
 23 22  1  0
 25 27  1  0
 26 25  2  0
M  END
$$$$
