DKK.pdb
     RDKit          3D

 27 26  0  0  1  0  0  0  0  0999 V2000
   23.0578  -21.7661  -15.2148 N   0  0  0  0  0  0  0  0  0  0  0  0
   23.1762  -20.9362  -14.0020 C   0  0  1  0  0  0  0  0  0  0  0  0
   23.5927  -19.5871  -14.4738 C   0  0  0  0  0  0  0  0  0  0  0  0
   24.9066  -19.4896  -15.1021 C   0  0  0  0  0  0  0  0  0  0  0  0
   25.4177  -18.4690  -15.5897 O   0  0  0  0  0  0  0  0  0  0  0  0
   21.8254  -20.9103  -13.3779 C   0  0  0  0  0  0  0  0  0  0  0  0
   21.6646  -20.2568  -12.2926 O   0  0  0  0  0  0  0  0  0  0  0  0
   25.6569  -20.6820  -15.1521 O   0  0  0  0  0  0  0  0  0  0  0  0
   20.7158  -21.5853  -13.9478 N   0  0  0  0  0  0  0  0  0  0  0  0
   19.4679  -21.6146  -13.1947 C   0  0  1  0  0  0  0  0  0  0  0  0
   18.3386  -21.4097  -14.1720 C   0  0  0  0  0  0  0  0  0  0  0  0
   16.9789  -21.4369  -13.5683 C   0  0  0  0  0  0  0  0  0  0  0  0
   15.8815  -21.2107  -14.5963 C   0  0  0  0  0  0  0  0  0  0  0  0
   14.5127  -21.1589  -13.9906 C   0  0  0  0  0  0  0  0  0  0  0  0
   13.5154  -21.0302  -15.0598 N   0  0  0  0  0  0  0  0  0  0  0  0
   19.3006  -22.9070  -12.4992 C   0  0  0  0  0  0  0  0  0  0  0  0
   19.6029  -24.0205  -12.9842 O   0  0  0  0  0  0  0  0  0  0  0  0
   18.7566  -22.9780  -11.1623 N   0  0  0  0  0  0  0  0  0  0  0  0
   18.5392  -24.2115  -10.4586 C   0  0  1  0  0  0  0  0  0  0  0  0
   18.5838  -24.0418   -8.9581 C   0  0  0  0  0  0  0  0  0  0  0  0
   18.2879  -25.3316   -8.2252 C   0  0  0  0  0  0  0  0  0  0  0  0
   18.2782  -25.0898   -6.7557 C   0  0  0  0  0  0  0  0  0  0  0  0
   17.8731  -26.2941   -5.9474 C   0  0  0  0  0  0  0  0  0  0  0  0
   17.7511  -26.0350   -4.5519 N   0  0  0  0  0  0  0  0  0  0  0  0
   17.2278  -24.7592  -10.8881 C   0  0  0  0  0  0  0  0  0  0  0  0
   16.2347  -23.9997  -11.1274 O   0  0  0  0  0  0  0  0  0  0  0  0
   17.0233  -26.1162  -11.0483 O   0  0  0  0  0  0  0  0  0  0  0  0
  2  1  1  6
  3  2  1  0
  4  8  1  0
  4  3  1  0
  5  4  2  0
  6  2  1  0
  7  6  2  0
  9  6  1  0
 10 11  1  6
 10  9  1  0
 11 12  1  0
 13 12  1  0
 13 14  1  0
 14 15  1  0
 16 10  1  0
 17 16  2  0
 18 16  1  0
 19 25  1  0
 19 18  1  0
 19 20  1  1
 21 20  1  0
 22 21  1  0
 23 24  1  0
 23 22  1  0
 25 27  1  0
 26 25  2  0
M  END
$$$$
