HAA.pdb
     RDKit          3D

 21 21  0  0  1  0  0  0  0  0999 V2000
   23.0512  -20.8313  -16.4301 N   0  0  0  0  0  0  0  0  0  0  0  0
   23.4737  -19.9910  -15.3517 C   0  0  1  0  0  0  0  0  0  0  0  0
   22.2505  -19.4472  -14.6259 C   0  0  0  0  0  0  0  0  0  0  0  0
   21.4409  -18.6959  -15.6212 C   0  0  0  0  0  0  0  0  0  0  0  0
   21.8465  -17.5419  -16.2417 C   0  0  0  0  0  0  0  0  0  0  0  0
   20.8482  -17.1699  -17.0634 N   0  0  0  0  0  0  0  0  0  0  0  0
   19.8664  -18.0759  -16.9415 C   0  0  0  0  0  0  0  0  0  0  0  0
   20.2145  -19.0184  -16.0606 N   0  0  0  0  0  0  0  0  0  0  0  0
   24.4131  -20.6646  -14.4239 C   0  0  0  0  0  0  0  0  0  0  0  0
   23.9596  -21.5847  -13.6956 O   0  0  0  0  0  0  0  0  0  0  0  0
   28.0965  -20.6049  -13.5392 C   0  0  0  0  0  0  0  0  0  0  0  0
   26.6408  -20.9370  -13.2970 C   0  0  2  0  0  0  0  0  0  0  0  0
   25.7791  -20.3460  -14.3009 N   0  0  0  0  0  0  0  0  0  0  0  0
   26.2053  -20.5216  -11.9356 C   0  0  0  0  0  0  0  0  0  0  0  0
   25.8010  -19.3357  -11.7346 O   0  0  0  0  0  0  0  0  0  0  0  0
   26.6355  -19.7600   -9.1630 C   0  0  0  0  0  0  0  0  0  0  0  0
   25.9060  -21.0397   -9.5112 C   0  0  2  0  0  0  0  0  0  0  0  0
   26.2312  -21.4189  -10.8574 N   0  0  0  0  0  0  0  0  0  0  0  0
   24.4482  -20.7443   -9.3970 C   0  0  0  0  0  0  0  0  0  0  0  0
   23.7150  -21.0192   -8.2627 O   0  0  0  0  0  0  0  0  0  0  0  0
   23.8472  -20.2211  -10.3706 O   0  0  0  0  0  0  0  0  0  0  0  0
  2  1  1  6
  2  3  1  0
  3  4  1  0
  4  8  1  0
  5  4  2  0
  5  6  1  0
  6  7  1  0
  8  7  2  0
  9 13  1  0
  9  2  1  0
 10  9  2  0
 12 13  1  0
 12 11  1  6
 14 12  1  0
 14 18  1  0
 15 14  2  0
 17 18  1  0
 17 16  1  6
 19 17  1  0
 20 19  1  0
 21 19  2  0
M  END
$$$$
