HAA.pdb
     RDKit          3D

 21 21  0  0  1  0  0  0  0  0999 V2000
   23.8558  -15.8506  -17.3122 N   0  0  0  0  0  0  0  0  0  0  0  0
   23.8194  -14.5374  -17.8793 C   0  0  1  0  0  0  0  0  0  0  0  0
   22.6284  -14.4270  -18.8216 C   0  0  0  0  0  0  0  0  0  0  0  0
   22.8287  -15.4206  -19.9092 C   0  0  0  0  0  0  0  0  0  0  0  0
   23.6496  -15.2336  -20.9920 C   0  0  0  0  0  0  0  0  0  0  0  0
   23.5628  -16.3463  -21.7434 N   0  0  0  0  0  0  0  0  0  0  0  0
   22.7118  -17.1823  -21.1297 C   0  0  0  0  0  0  0  0  0  0  0  0
   22.2528  -16.6292  -20.0032 N   0  0  0  0  0  0  0  0  0  0  0  0
   23.8180  -13.4633  -16.8579 C   0  0  0  0  0  0  0  0  0  0  0  0
   22.7931  -13.3387  -16.1392 O   0  0  0  0  0  0  0  0  0  0  0  0
   26.1951  -10.8868  -15.4268 C   0  0  0  0  0  0  0  0  0  0  0  0
   24.8349  -11.5092  -15.6521 C   0  0  2  0  0  0  0  0  0  0  0  0
   24.8850  -12.5718  -16.6359 N   0  0  0  0  0  0  0  0  0  0  0  0
   23.8262  -10.4885  -16.0476 C   0  0  0  0  0  0  0  0  0  0  0  0
   23.6918  -10.1713  -17.2688 O   0  0  0  0  0  0  0  0  0  0  0  0
   21.1432   -8.6316  -14.2084 C   0  0  0  0  0  0  0  0  0  0  0  0
   21.9846   -8.9179  -15.4335 C   0  0  2  0  0  0  0  0  0  0  0  0
   23.0116   -9.8618  -15.0926 N   0  0  0  0  0  0  0  0  0  0  0  0
   22.5939   -7.6199  -15.8454 C   0  0  0  0  0  0  0  0  0  0  0  0
   21.8999   -6.6550  -16.5433 O   0  0  0  0  0  0  0  0  0  0  0  0
   23.7931   -7.3806  -15.5500 O   0  0  0  0  0  0  0  0  0  0  0  0
  2  1  1  1
  2  3  1  0
  3  4  1  0
  4  8  1  0
  5  4  2  0
  5  6  1  0
  6  7  1  0
  8  7  2  0
  9 13  1  0
  9  2  1  0
 10  9  2  0
 12 13  1  0
 12 11  1  6
 14 12  1  0
 14 18  1  0
 15 14  2  0
 17 18  1  0
 17 16  1  1
 19 17  1  0
 20 19  1  0
 21 19  2  0
M  END
$$$$
