HAA.pdb
     RDKit          3D

 21 21  0  0  1  0  0  0  0  0999 V2000
   15.5669  -10.5930  -12.4776 N   0  0  0  0  0  0  0  0  0  0  0  0
   15.2307   -9.2493  -12.1185 C   0  0  1  0  0  0  0  0  0  0  0  0
   15.8107   -8.9331  -10.7465 C   0  0  0  0  0  0  0  0  0  0  0  0
   15.1246   -9.8099   -9.7612 C   0  0  0  0  0  0  0  0  0  0  0  0
   13.8738   -9.5751   -9.2498 C   0  0  0  0  0  0  0  0  0  0  0  0
   13.6055  -10.5822   -8.3989 N   0  0  0  0  0  0  0  0  0  0  0  0
   14.6668  -11.4027   -8.3973 C   0  0  0  0  0  0  0  0  0  0  0  0
   15.6073  -10.9429   -9.2278 N   0  0  0  0  0  0  0  0  0  0  0  0
   15.6449   -8.2549  -13.1365 C   0  0  0  0  0  0  0  0  0  0  0  0
   16.8319   -8.2988  -13.5506 O   0  0  0  0  0  0  0  0  0  0  0  0
   13.9830   -5.9404  -15.5698 C   0  0  0  0  0  0  0  0  0  0  0  0
   15.1849   -6.4162  -14.7841 C   0  0  2  0  0  0  0  0  0  0  0  0
   14.8012   -7.2634  -13.6730 N   0  0  0  0  0  0  0  0  0  0  0  0
   16.0080   -5.2742  -14.3005 C   0  0  0  0  0  0  0  0  0  0  0  0
   15.8297   -4.8160  -13.1307 O   0  0  0  0  0  0  0  0  0  0  0  0
   18.7194   -3.1749  -15.8237 C   0  0  0  0  0  0  0  0  0  0  0  0
   17.8225   -3.6015  -14.6817 C   0  0  2  0  0  0  0  0  0  0  0  0
   16.9867   -4.6855  -15.1154 N   0  0  0  0  0  0  0  0  0  0  0  0
   16.9877   -2.4164  -14.3292 C   0  0  0  0  0  0  0  0  0  0  0  0
   15.7243   -2.2116  -14.8407 O   0  0  0  0  0  0  0  0  0  0  0  0
   17.4431   -1.5571  -13.5311 O   0  0  0  0  0  0  0  0  0  0  0  0
  2  1  1  6
  2  3  1  0
  3  4  1  0
  4  8  1  0
  5  4  2  0
  5  6  1  0
  6  7  1  0
  8  7  2  0
  9 13  1  0
  9  2  1  0
 10  9  2  0
 12 13  1  0
 12 11  1  1
 14 12  1  0
 14 18  1  0
 15 14  2  0
 17 18  1  0
 17 16  1  6
 19 17  1  0
 20 19  1  0
 21 19  2  0
M  END
$$$$
