HAA.pdb
     RDKit          3D

 21 21  0  0  1  0  0  0  0  0999 V2000
   25.2997  -35.4252   -6.6219 N   0  0  0  0  0  0  0  0  0  0  0  0
   26.4727  -35.0348   -5.9014 C   0  0  1  0  0  0  0  0  0  0  0  0
   26.3728  -33.5603   -5.5345 C   0  0  0  0  0  0  0  0  0  0  0  0
   26.4069  -32.7838   -6.8019 C   0  0  0  0  0  0  0  0  0  0  0  0
   27.4728  -32.7494   -7.6644 C   0  0  0  0  0  0  0  0  0  0  0  0
   27.1224  -31.9453   -8.6847 N   0  0  0  0  0  0  0  0  0  0  0  0
   25.8779  -31.5064   -8.4436 C   0  0  0  0  0  0  0  0  0  0  0  0
   25.4249  -32.0117   -7.2925 N   0  0  0  0  0  0  0  0  0  0  0  0
   26.7350  -35.8834   -4.7147 C   0  0  0  0  0  0  0  0  0  0  0  0
   25.7903  -36.0669   -3.9045 O   0  0  0  0  0  0  0  0  0  0  0  0
   29.4983  -38.0384   -3.2867 C   0  0  0  0  0  0  0  0  0  0  0  0
   28.2266  -37.2236   -3.2029 C   0  0  2  0  0  0  0  0  0  0  0  0
   27.9691  -36.4989   -4.4310 N   0  0  0  0  0  0  0  0  0  0  0  0
   28.2545  -36.2853   -2.0477 C   0  0  0  0  0  0  0  0  0  0  0  0
   28.5513  -35.0652   -2.2301 O   0  0  0  0  0  0  0  0  0  0  0  0
   27.3061  -36.5428    1.5608 C   0  0  0  0  0  0  0  0  0  0  0  0
   27.9928  -35.8582    0.3987 C   0  0  2  0  0  0  0  0  0  0  0  0
   27.9574  -36.7219   -0.7478 N   0  0  0  0  0  0  0  0  0  0  0  0
   29.4038  -35.6171    0.8189 C   0  0  0  0  0  0  0  0  0  0  0  0
   29.7568  -34.6537    1.7392 O   0  0  0  0  0  0  0  0  0  0  0  0
   30.3234  -36.3159    0.3202 O   0  0  0  0  0  0  0  0  0  0  0  0
  2  1  1  1
  2  3  1  0
  3  4  1  0
  4  8  1  0
  5  4  2  0
  5  6  1  0
  6  7  1  0
  8  7  2  0
  9 13  1  0
  9  2  1  0
 10  9  2  0
 12 13  1  0
 12 11  1  6
 14 12  1  0
 14 18  1  0
 15 14  2  0
 17 18  1  0
 17 16  1  1
 19 17  1  0
 20 19  1  0
 21 19  2  0
M  END
$$$$
