HAA.pdb
     RDKit          3D

 21 21  0  0  1  0  0  0  0  0999 V2000
   26.5695  -33.1813  -13.5313 N   0  0  0  0  0  0  0  0  0  0  0  0
   25.5797  -33.3719  -12.5156 C   0  0  1  0  0  0  0  0  0  0  0  0
   24.9747  -34.7623  -12.6545 C   0  0  0  0  0  0  0  0  0  0  0  0
   24.0609  -34.7342  -13.8269 C   0  0  0  0  0  0  0  0  0  0  0  0
   23.5912  -33.5899  -14.4195 C   0  0  0  0  0  0  0  0  0  0  0  0
   22.8004  -33.9748  -15.4377 N   0  0  0  0  0  0  0  0  0  0  0  0
   22.7935  -35.3162  -15.4585 C   0  0  0  0  0  0  0  0  0  0  0  0
   23.5619  -35.7972  -14.4768 N   0  0  0  0  0  0  0  0  0  0  0  0
   26.0962  -33.1276  -11.1479 C   0  0  0  0  0  0  0  0  0  0  0  0
   27.2238  -33.6011  -10.8534 O   0  0  0  0  0  0  0  0  0  0  0  0
   25.1150  -31.2049   -8.0337 C   0  0  0  0  0  0  0  0  0  0  0  0
   25.9356  -32.2049   -8.8178 C   0  0  2  0  0  0  0  0  0  0  0  0
   25.4117  -32.4018  -10.1544 N   0  0  0  0  0  0  0  0  0  0  0  0
   26.0335  -33.5085   -8.1060 C   0  0  0  0  0  0  0  0  0  0  0  0
   25.2139  -34.4393   -8.3741 O   0  0  0  0  0  0  0  0  0  0  0  0
   28.3904  -34.9484   -5.5734 C   0  0  0  0  0  0  0  0  0  0  0  0
   27.0958  -34.9403   -6.3576 C   0  0  2  0  0  0  0  0  0  0  0  0
   27.0208  -33.7357   -7.1354 N   0  0  0  0  0  0  0  0  0  0  0  0
   25.9905  -34.9770   -5.3565 C   0  0  0  0  0  0  0  0  0  0  0  0
   25.5888  -36.1353   -4.7265 O   0  0  0  0  0  0  0  0  0  0  0  0
   25.3885  -33.9118   -5.0636 O   0  0  0  0  0  0  0  0  0  0  0  0
  2  1  1  6
  2  3  1  0
  3  4  1  0
  4  8  1  0
  5  4  2  0
  5  6  1  0
  6  7  1  0
  8  7  2  0
  9 13  1  0
  9  2  1  0
 10  9  2  0
 12 13  1  0
 12 11  1  1
 14 12  1  0
 14 18  1  0
 15 14  2  0
 17 18  1  0
 17 16  1  1
 19 17  1  0
 20 19  1  0
 21 19  2  0
M  END
$$$$
