AKD.pdb
     RDKit          3D

 23 22  0  0  1  0  0  0  0  0999 V2000
   15.8074  -14.8409   15.0526 C   0  0  0  0  0  0  0  0  0  0  0  0
   14.9123  -15.9603   15.5478 C   0  0  2  0  0  0  0  0  0  0  0  0
   13.8613  -16.1637   14.5726 N   0  0  0  0  0  0  0  0  0  0  0  0
   14.3097  -15.4839   16.8331 C   0  0  0  0  0  0  0  0  0  0  0  0
   15.0082  -15.1409   17.8107 O   0  0  0  0  0  0  0  0  0  0  0  0
   12.8918  -15.4090   16.9744 N   0  0  0  0  0  0  0  0  0  0  0  0
   12.2950  -14.9072   18.1817 C   0  0  1  0  0  0  0  0  0  0  0  0
   10.8416  -14.5084   17.9345 C   0  0  0  0  0  0  0  0  0  0  0  0
   10.1925  -14.0211   19.2069 C   0  0  0  0  0  0  0  0  0  0  0  0
    8.7760  -13.6049   19.0264 C   0  0  0  0  0  0  0  0  0  0  0  0
    8.1157  -13.1300   20.2946 C   0  0  0  0  0  0  0  0  0  0  0  0
    6.7789  -12.6425   20.0412 N   0  0  0  0  0  0  0  0  0  0  0  0
   12.3554  -15.9401   19.2776 C   0  0  0  0  0  0  0  0  0  0  0  0
   11.7986  -17.0425   19.1828 O   0  0  0  0  0  0  0  0  0  0  0  0
   13.0719  -15.6287   20.4416 N   0  0  0  0  0  0  0  0  0  0  0  0
   13.3023  -16.6337   21.5221 C   0  0  1  0  0  0  0  0  0  0  0  0
   14.7734  -16.6891   21.8043 C   0  0  0  0  0  0  0  0  0  0  0  0
   15.4083  -15.4694   22.2558 C   0  0  0  0  0  0  0  0  0  0  0  0
   15.3437  -14.3878   21.6756 O   0  0  0  0  0  0  0  0  0  0  0  0
   12.5498  -16.1976   22.7260 C   0  0  0  0  0  0  0  0  0  0  0  0
   12.0070  -15.0384   22.7214 O   0  0  0  0  0  0  0  0  0  0  0  0
   16.1510  -15.5551   23.4543 O   0  0  0  0  0  0  0  0  0  0  0  0
   12.4151  -16.9842   23.8322 O   0  0  0  0  0  0  0  0  0  0  0  0
  2  1  1  6
  2  4  1  0
  3  2  1  0
  4  6  1  0
  5  4  2  0
  6  7  1  0
  7  8  1  6
  7 13  1  0
  8  9  1  0
  9 10  1  0
 10 11  1  0
 11 12  1  0
 13 14  2  0
 15 13  1  0
 15 16  1  0
 16 17  1  1
 18 17  1  0
 19 18  2  0
 20 16  1  0
 20 23  1  0
 21 20  2  0
 22 18  1  0
M  END
$$$$
