AKD.pdb
     RDKit          3D

 23 22  0  0  1  0  0  0  0  0999 V2000
    7.5167  -15.2297   18.6696 C   0  0  0  0  0  0  0  0  0  0  0  0
    7.4062  -13.7978   19.1563 C   0  0  2  0  0  0  0  0  0  0  0  0
    8.1613  -12.9540   18.2536 N   0  0  0  0  0  0  0  0  0  0  0  0
    8.0383  -13.7615   20.5132 C   0  0  0  0  0  0  0  0  0  0  0  0
    9.2701  -13.6250   20.6719 O   0  0  0  0  0  0  0  0  0  0  0  0
    7.2302  -13.8849   21.6828 N   0  0  0  0  0  0  0  0  0  0  0  0
    7.8125  -13.8096   22.9946 C   0  0  1  0  0  0  0  0  0  0  0  0
    6.7971  -13.2720   24.0008 C   0  0  0  0  0  0  0  0  0  0  0  0
    7.3957  -13.1994   25.3843 C   0  0  0  0  0  0  0  0  0  0  0  0
    6.4983  -12.5613   26.3842 C   0  0  0  0  0  0  0  0  0  0  0  0
    7.0882  -12.4840   27.7684 C   0  0  0  0  0  0  0  0  0  0  0  0
    6.1660  -11.8758   28.7003 N   0  0  0  0  0  0  0  0  0  0  0  0
    8.2983  -15.1642   23.4426 C   0  0  0  0  0  0  0  0  0  0  0  0
    7.5821  -16.1739   23.4009 O   0  0  0  0  0  0  0  0  0  0  0  0
    9.6114  -15.2710   23.9218 N   0  0  0  0  0  0  0  0  0  0  0  0
   10.1819  -16.5714   24.3846 C   0  0  1  0  0  0  0  0  0  0  0  0
   11.6398  -16.5932   24.0371 C   0  0  0  0  0  0  0  0  0  0  0  0
   12.4163  -17.7211   24.5056 C   0  0  0  0  0  0  0  0  0  0  0  0
   11.9461  -18.7257   25.0353 O   0  0  0  0  0  0  0  0  0  0  0  0
    9.9879  -16.6636   25.8541 C   0  0  0  0  0  0  0  0  0  0  0  0
   10.0543  -15.5902   26.5484 O   0  0  0  0  0  0  0  0  0  0  0  0
   13.8152  -17.6364   24.3294 O   0  0  0  0  0  0  0  0  0  0  0  0
    9.7414  -17.8452   26.4892 O   0  0  0  0  0  0  0  0  0  0  0  0
  2  1  1  6
  2  4  1  0
  3  2  1  0
  4  6  1  0
  5  4  2  0
  6  7  1  0
  7  8  1  1
  7 13  1  0
  8  9  1  0
  9 10  1  0
 10 11  1  0
 11 12  1  0
 13 14  2  0
 15 13  1  0
 15 16  1  0
 16 17  1  1
 18 17  1  0
 19 18  2  0
 20 16  1  0
 20 23  1  0
 21 20  2  0
 22 18  1  0
M  END
$$$$
