AKD.pdb
     RDKit          3D

 23 22  0  0  1  0  0  0  0  0999 V2000
    7.4002  -12.6064   19.5048 C   0  0  0  0  0  0  0  0  0  0  0  0
    8.2320  -13.8562   19.2910 C   0  0  2  0  0  0  0  0  0  0  0  0
    7.5300  -14.7120   18.3572 N   0  0  0  0  0  0  0  0  0  0  0  0
    8.3188  -14.5401   20.6202 C   0  0  0  0  0  0  0  0  0  0  0  0
    8.7905  -13.9765   21.6308 O   0  0  0  0  0  0  0  0  0  0  0  0
    7.8544  -15.8813   20.7669 N   0  0  0  0  0  0  0  0  0  0  0  0
    8.0137  -16.5868   22.0088 C   0  0  1  0  0  0  0  0  0  0  0  0
    7.1129  -17.8196   22.0433 C   0  0  0  0  0  0  0  0  0  0  0  0
    5.6735  -17.4426   21.7908 C   0  0  0  0  0  0  0  0  0  0  0  0
    4.7676  -18.6160   21.6684 C   0  0  0  0  0  0  0  0  0  0  0  0
    3.3453  -18.2529   21.3294 C   0  0  0  0  0  0  0  0  0  0  0  0
    2.5086  -19.4281   21.2422 N   0  0  0  0  0  0  0  0  0  0  0  0
    9.4484  -17.0044   22.2063 C   0  0  0  0  0  0  0  0  0  0  0  0
   10.1040  -17.5686   21.3197 O   0  0  0  0  0  0  0  0  0  0  0  0
   10.0506  -16.7382   23.4439 N   0  0  0  0  0  0  0  0  0  0  0  0
   11.4551  -17.1471   23.7451 C   0  0  1  0  0  0  0  0  0  0  0  0
   12.3489  -15.9694   23.4979 C   0  0  0  0  0  0  0  0  0  0  0  0
   13.7352  -16.2432   23.1850 C   0  0  0  0  0  0  0  0  0  0  0  0
   14.6693  -15.4747   23.4033 O   0  0  0  0  0  0  0  0  0  0  0  0
   11.5181  -17.5683   25.1679 C   0  0  0  0  0  0  0  0  0  0  0  0
   10.5917  -17.1814   25.9619 O   0  0  0  0  0  0  0  0  0  0  0  0
   14.0082  -17.4925   22.5851 O   0  0  0  0  0  0  0  0  0  0  0  0
   12.5225  -18.3502   25.6581 O   0  0  0  0  0  0  0  0  0  0  0  0
  2  1  1  1
  2  4  1  0
  3  2  1  0
  4  6  1  0
  5  4  2  0
  6  7  1  0
  7  8  1  6
  7 13  1  0
  8  9  1  0
  9 10  1  0
 10 11  1  0
 11 12  1  0
 13 14  2  0
 15 13  1  0
 15 16  1  0
 16 17  1  1
 18 17  1  0
 19 18  2  0
 20 16  1  0
 20 23  1  0
 21 20  2  0
 22 18  1  0
M  END
$$$$
