AKD.pdb
     RDKit          3D

 23 22  0  0  1  0  0  0  0  0999 V2000
    7.4592  -12.5617   19.2965 C   0  0  0  0  0  0  0  0  0  0  0  0
    8.5356  -13.5991   19.0420 C   0  0  2  0  0  0  0  0  0  0  0  0
    8.0979  -14.4466   17.9524 N   0  0  0  0  0  0  0  0  0  0  0  0
    8.6414  -14.4155   20.2926 C   0  0  0  0  0  0  0  0  0  0  0  0
    8.8870  -13.9027   21.4053 O   0  0  0  0  0  0  0  0  0  0  0  0
    8.4604  -15.8300   20.2416 N   0  0  0  0  0  0  0  0  0  0  0  0
    8.5615  -16.6314   21.4303 C   0  0  1  0  0  0  0  0  0  0  0  0
    7.6976  -17.8846   21.3059 C   0  0  0  0  0  0  0  0  0  0  0  0
    6.2754  -17.5259   20.9505 C   0  0  0  0  0  0  0  0  0  0  0  0
    5.3936  -18.7104   20.7721 C   0  0  0  0  0  0  0  0  0  0  0  0
    3.9638  -18.3608   20.4511 C   0  0  0  0  0  0  0  0  0  0  0  0
    3.1412  -19.5454   20.3549 N   0  0  0  0  0  0  0  0  0  0  0  0
    9.9925  -17.0283   21.6876 C   0  0  0  0  0  0  0  0  0  0  0  0
   10.6387  -17.7316   20.8989 O   0  0  0  0  0  0  0  0  0  0  0  0
   10.6024  -16.5778   22.8666 N   0  0  0  0  0  0  0  0  0  0  0  0
   11.9506  -17.0579   23.2939 C   0  0  1  0  0  0  0  0  0  0  0  0
   12.9409  -15.9624   23.0371 C   0  0  0  0  0  0  0  0  0  0  0  0
   13.4572  -15.8375   21.6909 C   0  0  0  0  0  0  0  0  0  0  0  0
   13.6294  -16.7753   20.9151 O   0  0  0  0  0  0  0  0  0  0  0  0
   11.8870  -17.3835   24.7416 C   0  0  0  0  0  0  0  0  0  0  0  0
   10.8322  -17.0670   25.3940 O   0  0  0  0  0  0  0  0  0  0  0  0
   13.7795  -14.5311   21.2610 O   0  0  0  0  0  0  0  0  0  0  0  0
   12.9070  -18.0061   25.3993 O   0  0  0  0  0  0  0  0  0  0  0  0
  2  1  1  1
  2  4  1  0
  3  2  1  0
  4  6  1  0
  5  4  2  0
  6  7  1  0
  7  8  1  6
  7 13  1  0
  8  9  1  0
  9 10  1  0
 10 11  1  0
 11 12  1  0
 13 14  2  0
 15 13  1  0
 15 16  1  0
 16 17  1  1
 18 17  1  0
 19 18  2  0
 20 16  1  0
 20 23  1  0
 21 20  2  0
 22 18  1  0
M  END
$$$$
