AKD.pdb
     RDKit          3D

 23 22  0  0  1  0  0  0  0  0999 V2000
    9.2740  -14.4531   17.5491 C   0  0  0  0  0  0  0  0  0  0  0  0
    7.9597  -14.3011   18.2901 C   0  0  2  0  0  0  0  0  0  0  0  0
    7.5915  -12.9007   18.2745 N   0  0  0  0  0  0  0  0  0  0  0  0
    8.2170  -14.7298   19.7015 C   0  0  0  0  0  0  0  0  0  0  0  0
    8.8426  -14.0142   20.5125 O   0  0  0  0  0  0  0  0  0  0  0  0
    7.7429  -15.9939   20.1633 N   0  0  0  0  0  0  0  0  0  0  0  0
    7.9621  -16.4146   21.5200 C   0  0  1  0  0  0  0  0  0  0  0  0
    7.0243  -17.5644   21.8818 C   0  0  0  0  0  0  0  0  0  0  0  0
    5.6409  -17.3265   21.3276 C   0  0  0  0  0  0  0  0  0  0  0  0
    4.6998  -18.4494   21.5842 C   0  0  0  0  0  0  0  0  0  0  0  0
    3.2917  -18.1802   21.1210 C   0  0  0  0  0  0  0  0  0  0  0  0
    2.4090  -19.2743   21.4567 N   0  0  0  0  0  0  0  0  0  0  0  0
    9.3918  -16.8469   21.7214 C   0  0  0  0  0  0  0  0  0  0  0  0
    9.9800  -17.5893   20.9232 O   0  0  0  0  0  0  0  0  0  0  0  0
   10.0691  -16.3843   22.8583 N   0  0  0  0  0  0  0  0  0  0  0  0
   11.4195  -16.8965   23.2384 C   0  0  1  0  0  0  0  0  0  0  0  0
   12.3821  -15.7479   23.2060 C   0  0  0  0  0  0  0  0  0  0  0  0
   13.5479  -15.8835   22.3591 C   0  0  0  0  0  0  0  0  0  0  0  0
   13.8128  -16.8751   21.6827 O   0  0  0  0  0  0  0  0  0  0  0  0
   11.3276  -17.4699   24.6053 C   0  0  0  0  0  0  0  0  0  0  0  0
   12.2267  -18.2993   24.9824 O   0  0  0  0  0  0  0  0  0  0  0  0
   14.4304  -14.7812   22.3250 O   0  0  0  0  0  0  0  0  0  0  0  0
   10.3247  -17.1461   25.4712 O   0  0  0  0  0  0  0  0  0  0  0  0
  2  1  1  6
  2  4  1  0
  3  2  1  0
  4  6  1  0
  5  4  2  0
  6  7  1  0
  7  8  1  6
  7 13  1  0
  8  9  1  0
  9 10  1  0
 10 11  1  0
 11 12  1  0
 13 14  2  0
 15 13  1  0
 15 16  1  0
 16 17  1  1
 18 17  1  0
 19 18  2  0
 20 16  1  0
 20 23  1  0
 21 20  2  0
 22 18  1  0
M  END
$$$$
