AKD.pdb
     RDKit          3D

 23 22  0  0  1  0  0  0  0  0999 V2000
   11.6431  -18.5168   16.9017 C   0  0  0  0  0  0  0  0  0  0  0  0
   11.1921  -19.0814   18.2349 C   0  0  2  0  0  0  0  0  0  0  0  0
    9.7705  -19.3455   18.1563 N   0  0  0  0  0  0  0  0  0  0  0  0
   11.4417  -18.0129   19.2537 C   0  0  0  0  0  0  0  0  0  0  0  0
   12.5751  -17.5215   19.4412 O   0  0  0  0  0  0  0  0  0  0  0  0
   10.3666  -17.5201   20.0522 N   0  0  0  0  0  0  0  0  0  0  0  0
   10.5738  -16.4546   20.9941 C   0  0  1  0  0  0  0  0  0  0  0  0
    9.2851  -15.6601   21.1953 C   0  0  0  0  0  0  0  0  0  0  0  0
    8.9877  -14.8013   19.9904 C   0  0  0  0  0  0  0  0  0  0  0  0
    7.6452  -14.1625   20.0363 C   0  0  0  0  0  0  0  0  0  0  0  0
    7.3839  -13.2145   18.8949 C   0  0  0  0  0  0  0  0  0  0  0  0
    6.0840  -12.5938   19.0134 N   0  0  0  0  0  0  0  0  0  0  0  0
   11.0447  -16.9965   22.3194 C   0  0  0  0  0  0  0  0  0  0  0  0
   10.5628  -18.0176   22.8285 O   0  0  0  0  0  0  0  0  0  0  0  0
   12.0665  -16.3096   22.9897 N   0  0  0  0  0  0  0  0  0  0  0  0
   12.6059  -16.7767   24.3017 C   0  0  1  0  0  0  0  0  0  0  0  0
   13.9010  -16.0659   24.5553 C   0  0  0  0  0  0  0  0  0  0  0  0
   15.1215  -16.8053   24.3138 C   0  0  0  0  0  0  0  0  0  0  0  0
   15.1744  -18.0013   24.0352 O   0  0  0  0  0  0  0  0  0  0  0  0
   11.6094  -16.4496   25.3532 C   0  0  0  0  0  0  0  0  0  0  0  0
   10.7079  -15.5793   25.0920 O   0  0  0  0  0  0  0  0  0  0  0  0
   16.3270  -16.0756   24.4115 O   0  0  0  0  0  0  0  0  0  0  0  0
   11.6185  -17.0407   26.5824 O   0  0  0  0  0  0  0  0  0  0  0  0
  2  1  1  6
  2  4  1  0
  3  2  1  0
  4  6  1  0
  5  4  2  0
  6  7  1  0
  7  8  1  1
  7 13  1  0
  8  9  1  0
  9 10  1  0
 10 11  1  0
 11 12  1  0
 13 14  2  0
 15 13  1  0
 15 16  1  0
 16 17  1  1
 18 17  1  0
 19 18  2  0
 20 16  1  0
 20 23  1  0
 21 20  2  0
 22 18  1  0
M  END
$$$$
