AKD.pdb
     RDKit          3D

 23 22  0  0  1  0  0  0  0  0999 V2000
    8.0408  -17.7782   19.5714 C   0  0  0  0  0  0  0  0  0  0  0  0
    7.9956  -16.2662   19.4646 C   0  0  2  0  0  0  0  0  0  0  0  0
    8.8955  -15.8608   18.4051 N   0  0  0  0  0  0  0  0  0  0  0  0
    8.4973  -15.7340   20.7712 C   0  0  0  0  0  0  0  0  0  0  0  0
    9.7158  -15.6608   21.0379 O   0  0  0  0  0  0  0  0  0  0  0  0
    7.5748  -15.2880   21.7642 N   0  0  0  0  0  0  0  0  0  0  0  0
    8.0370  -14.7608   23.0187 C   0  0  1  0  0  0  0  0  0  0  0  0
    6.8804  -14.1337   23.7943 C   0  0  0  0  0  0  0  0  0  0  0  0
    7.3696  -13.5031   25.0752 C   0  0  0  0  0  0  0  0  0  0  0  0
    6.2822  -12.8958   25.8883 C   0  0  0  0  0  0  0  0  0  0  0  0
    6.7582  -12.2856   27.1809 C   0  0  0  0  0  0  0  0  0  0  0  0
    5.6666  -11.6830   27.9118 N   0  0  0  0  0  0  0  0  0  0  0  0
    8.6748  -15.8433   23.8513 C   0  0  0  0  0  0  0  0  0  0  0  0
    8.1401  -16.9463   24.0292 O   0  0  0  0  0  0  0  0  0  0  0  0
    9.9191  -15.5786   24.4400 N   0  0  0  0  0  0  0  0  0  0  0  0
   10.6506  -16.6055   25.2406 C   0  0  1  0  0  0  0  0  0  0  0  0
   12.1201  -16.3372   25.1156 C   0  0  0  0  0  0  0  0  0  0  0  0
   12.7561  -16.6983   23.8667 C   0  0  0  0  0  0  0  0  0  0  0  0
   12.2734  -17.4534   23.0255 O   0  0  0  0  0  0  0  0  0  0  0  0
   10.2109  -16.4878   26.6542 C   0  0  0  0  0  0  0  0  0  0  0  0
    9.6164  -15.4158   27.0227 O   0  0  0  0  0  0  0  0  0  0  0  0
   14.0245  -16.1276   23.6204 O   0  0  0  0  0  0  0  0  0  0  0  0
   10.4152  -17.4767   27.5712 O   0  0  0  0  0  0  0  0  0  0  0  0
  2  1  1  1
  2  4  1  0
  3  2  1  0
  4  6  1  0
  5  4  2  0
  6  7  1  0
  7  8  1  1
  7 13  1  0
  8  9  1  0
  9 10  1  0
 10 11  1  0
 11 12  1  0
 13 14  2  0
 15 13  1  0
 15 16  1  0
 16 17  1  1
 18 17  1  0
 19 18  2  0
 20 16  1  0
 20 23  1  0
 21 20  2  0
 22 18  1  0
M  END
$$$$
