LQF.pdb
     RDKit          3D

 29 29  0  0  1  0  0  0  0  0999 V2000
    8.4706  -13.0882   18.9672 C   0  0  0  0  0  0  0  0  0  0  0  0
    7.5493  -13.5123   20.1330 C   0  0  2  0  0  0  0  0  0  0  0  0
    7.2952  -12.2050   20.8812 C   0  0  0  0  0  0  0  0  0  0  0  0
    8.3352  -14.4807   20.9316 C   0  0  0  0  0  0  0  0  0  0  0  0
    8.5943  -15.8192   20.3400 C   0  0  2  0  0  0  0  0  0  0  0  0
    7.2505  -16.4173   20.1691 N   0  0  0  0  0  0  0  0  0  0  0  0
    9.3580  -16.7560   21.1868 C   0  0  0  0  0  0  0  0  0  0  0  0
    8.7262  -17.6056   21.9053 O   0  0  0  0  0  0  0  0  0  0  0  0
   13.5668  -21.1937   19.9536 N   0  0  0  0  0  0  0  0  0  0  0  0
   14.1735  -20.1164   20.6458 C   0  0  0  0  0  0  0  0  0  0  0  0
   15.3426  -19.7742   20.3462 O   0  0  0  0  0  0  0  0  0  0  0  0
   13.4469  -19.3661   21.7391 C   0  0  0  0  0  0  0  0  0  0  0  0
   12.4824  -18.3956   21.1722 C   0  0  0  0  0  0  0  0  0  0  0  0
   11.4549  -17.8305   22.0926 C   0  0  2  0  0  0  0  0  0  0  0  0
   10.7534  -16.8054   21.2800 N   0  0  0  0  0  0  0  0  0  0  0  0
   11.9492  -17.1780   23.2983 C   0  0  0  0  0  0  0  0  0  0  0  0
   12.7664  -17.8124   24.0422 O   0  0  0  0  0  0  0  0  0  0  0  0
   11.5791  -15.8685   23.7007 N   0  0  0  0  0  0  0  0  0  0  0  0
   11.4430  -15.5846   25.0948 C   0  0  1  0  0  0  0  0  0  0  0  0
   10.0071  -15.2868   25.4876 C   0  0  0  0  0  0  0  0  0  0  0  0
    9.8757  -14.8415   26.8746 C   0  0  0  0  0  0  0  0  0  0  0  0
   10.3077  -15.5955   27.9439 C   0  0  0  0  0  0  0  0  0  0  0  0
   10.1772  -15.1618   29.2533 C   0  0  0  0  0  0  0  0  0  0  0  0
    9.5925  -13.9292   29.4900 C   0  0  0  0  0  0  0  0  0  0  0  0
    9.1534  -13.1571   28.4493 C   0  0  0  0  0  0  0  0  0  0  0  0
    9.2973  -13.6186   27.1369 C   0  0  0  0  0  0  0  0  0  0  0  0
   12.0003  -16.6959   25.8873 C   0  0  0  0  0  0  0  0  0  0  0  0
   11.4382  -17.9576   25.8238 O   0  0  0  0  0  0  0  0  0  0  0  0
   12.9941  -16.5047   26.6296 O   0  0  0  0  0  0  0  0  0  0  0  0
  2  3  1  1
  2  1  1  0
  4  2  1  0
  4  5  1  0
  5  7  1  0
  5  6  1  1
  7 15  1  0
  8  7  2  0
  9 10  1  0
 10 12  1  0
 11 10  2  0
 12 13  1  0
 14 16  1  0
 14 13  1  6
 15 14  1  0
 16 18  1  0
 17 16  2  0
 18 19  1  0
 19 27  1  0
 19 20  1  1
 21 20  1  0
 22 21  2  0
 23 22  1  0
 24 25  1  0
 24 23  2  0
 25 26  2  0
 26 21  1  0
 27 29  2  0
 27 28  1  0
M  END
$$$$
