LQF.pdb
     RDKit          3D

 29 29  0  0  1  0  0  0  0  0999 V2000
    9.1250  -12.6399   18.7829 C   0  0  0  0  0  0  0  0  0  0  0  0
    7.8298  -13.1378   19.4627 C   0  0  2  0  0  0  0  0  0  0  0  0
    7.1234  -11.8472   19.8740 C   0  0  0  0  0  0  0  0  0  0  0  0
    8.2719  -13.9394   20.6268 C   0  0  0  0  0  0  0  0  0  0  0  0
    8.8924  -15.2636   20.3617 C   0  0  2  0  0  0  0  0  0  0  0  0
    7.8911  -15.9874   19.5454 N   0  0  0  0  0  0  0  0  0  0  0  0
    9.1406  -16.1031   21.5498 C   0  0  0  0  0  0  0  0  0  0  0  0
    8.2264  -16.9034   21.9512 O   0  0  0  0  0  0  0  0  0  0  0  0
   13.8817  -20.2258   21.0762 N   0  0  0  0  0  0  0  0  0  0  0  0
   13.5200  -19.1114   21.8733 C   0  0  0  0  0  0  0  0  0  0  0  0
   14.4041  -18.2926   22.2219 O   0  0  0  0  0  0  0  0  0  0  0  0
   12.0925  -18.8826   22.3162 C   0  0  0  0  0  0  0  0  0  0  0  0
   11.9614  -17.6105   23.0632 C   0  0  0  0  0  0  0  0  0  0  0  0
   10.5828  -17.1229   23.3531 C   0  0  2  0  0  0  0  0  0  0  0  0
   10.3203  -16.1078   22.3023 N   0  0  0  0  0  0  0  0  0  0  0  0
   10.3765  -16.4848   24.6469 C   0  0  0  0  0  0  0  0  0  0  0  0
   10.8571  -15.3196   24.8344 O   0  0  0  0  0  0  0  0  0  0  0  0
    9.6658  -17.0801   25.7212 N   0  0  0  0  0  0  0  0  0  0  0  0
    9.5464  -16.3656   26.9533 C   0  0  1  0  0  0  0  0  0  0  0  0
    8.1025  -16.0557   27.3054 C   0  0  0  0  0  0  0  0  0  0  0  0
    7.5835  -14.8818   26.6040 C   0  0  0  0  0  0  0  0  0  0  0  0
    7.8688  -13.5922   26.9965 C   0  0  0  0  0  0  0  0  0  0  0  0
    7.3705  -12.4886   26.3231 C   0  0  0  0  0  0  0  0  0  0  0  0
    6.5596  -12.6936   25.2198 C   0  0  0  0  0  0  0  0  0  0  0  0
    6.2580  -13.9622   24.8052 C   0  0  0  0  0  0  0  0  0  0  0  0
    6.7741  -15.0589   25.5029 C   0  0  0  0  0  0  0  0  0  0  0  0
   10.2164  -17.1149   28.0318 C   0  0  0  0  0  0  0  0  0  0  0  0
   10.7810  -18.3525   27.7842 O   0  0  0  0  0  0  0  0  0  0  0  0
   10.2800  -16.6330   29.1890 O   0  0  0  0  0  0  0  0  0  0  0  0
  2  3  1  1
  2  1  1  0
  4  2  1  0
  4  5  1  0
  5  7  1  0
  5  6  1  6
  7 15  1  0
  8  7  2  0
  9 10  1  0
 10 12  1  0
 11 10  2  0
 12 13  1  0
 14 16  1  0
 14 13  1  1
 15 14  1  0
 16 18  1  0
 17 16  2  0
 18 19  1  0
 19 27  1  0
 19 20  1  1
 21 20  1  0
 22 21  2  0
 23 22  1  0
 24 25  1  0
 24 23  2  0
 25 26  2  0
 26 21  1  0
 27 29  2  0
 27 28  1  0
M  END
$$$$
