LQF.pdb
     RDKit          3D

 29 29  0  0  1  0  0  0  0  0999 V2000
    9.5017  -13.4099   19.6491 C   0  0  0  0  0  0  0  0  0  0  0  0
    8.0161  -13.6262   19.2832 C   0  0  2  0  0  0  0  0  0  0  0  0
    7.5010  -12.2106   19.0293 C   0  0  0  0  0  0  0  0  0  0  0  0
    7.3976  -14.2506   20.4751 C   0  0  0  0  0  0  0  0  0  0  0  0
    7.8668  -15.6040   20.8714 C   0  0  2  0  0  0  0  0  0  0  0  0
    7.1491  -16.5277   19.9634 N   0  0  0  0  0  0  0  0  0  0  0  0
    7.5224  -16.0241   22.2436 C   0  0  0  0  0  0  0  0  0  0  0  0
    6.2996  -16.2623   22.5355 O   0  0  0  0  0  0  0  0  0  0  0  0
    5.6266  -19.7985   23.4866 N   0  0  0  0  0  0  0  0  0  0  0  0
    6.5907  -20.1748   24.4546 C   0  0  0  0  0  0  0  0  0  0  0  0
    6.2335  -20.8586   25.4437 O   0  0  0  0  0  0  0  0  0  0  0  0
    8.0426  -19.7728   24.3263 C   0  0  0  0  0  0  0  0  0  0  0  0
    8.1839  -18.5164   23.5549 C   0  0  0  0  0  0  0  0  0  0  0  0
    8.2664  -17.2429   24.3252 C   0  0  2  0  0  0  0  0  0  0  0  0
    8.4369  -16.1937   23.2891 N   0  0  0  0  0  0  0  0  0  0  0  0
    9.3733  -17.1211   25.2653 C   0  0  0  0  0  0  0  0  0  0  0  0
    9.9744  -18.1809   25.6383 O   0  0  0  0  0  0  0  0  0  0  0  0
    9.8324  -15.8874   25.7953 N   0  0  0  0  0  0  0  0  0  0  0  0
    9.6846  -15.6367   27.1947 C   0  0  1  0  0  0  0  0  0  0  0  0
    8.2340  -15.4423   27.5981 C   0  0  0  0  0  0  0  0  0  0  0  0
    7.6909  -14.1532   27.1709 C   0  0  0  0  0  0  0  0  0  0  0  0
    6.3586  -13.9674   26.8724 C   0  0  0  0  0  0  0  0  0  0  0  0
    5.8569  -12.7406   26.4688 C   0  0  0  0  0  0  0  0  0  0  0  0
    6.7271  -11.6688   26.3635 C   0  0  0  0  0  0  0  0  0  0  0  0
    8.0557  -11.8214   26.6530 C   0  0  0  0  0  0  0  0  0  0  0  0
    8.5361  -13.0707   27.0582 C   0  0  0  0  0  0  0  0  0  0  0  0
   10.3189  -16.7214   27.9659 C   0  0  0  0  0  0  0  0  0  0  0  0
   10.2616  -18.0291   27.5204 O   0  0  0  0  0  0  0  0  0  0  0  0
   10.9187  -16.4652   29.0381 O   0  0  0  0  0  0  0  0  0  0  0  0
  2  3  1  1
  2  1  1  0
  4  2  1  0
  4  5  1  0
  5  7  1  0
  5  6  1  6
  7 15  1  0
  8  7  2  0
  9 10  1  0
 10 12  1  0
 11 10  2  0
 12 13  1  0
 14 16  1  0
 14 13  1  6
 15 14  1  0
 16 18  1  0
 17 16  2  0
 18 19  1  0
 19 27  1  0
 19 20  1  6
 21 20  1  0
 22 21  2  0
 23 22  1  0
 24 25  1  0
 24 23  2  0
 25 26  2  0
 26 21  1  0
 27 29  2  0
 27 28  1  0
M  END
$$$$
