LQF.pdb
     RDKit          3D

 29 29  0  0  1  0  0  0  0  0999 V2000
    7.1583  -21.3552   19.3762 C   0  0  0  0  0  0  0  0  0  0  0  0
    6.5514  -19.9729   19.0468 C   0  0  2  0  0  0  0  0  0  0  0  0
    6.2757  -20.0522   17.5463 C   0  0  0  0  0  0  0  0  0  0  0  0
    7.6030  -18.9848   19.3799 C   0  0  0  0  0  0  0  0  0  0  0  0
    8.0230  -18.8714   20.8010 C   0  0  2  0  0  0  0  0  0  0  0  0
    6.7661  -18.6181   21.5418 N   0  0  0  0  0  0  0  0  0  0  0  0
    8.9211  -17.7430   21.1145 C   0  0  0  0  0  0  0  0  0  0  0  0
   10.1431  -17.7942   20.7385 O   0  0  0  0  0  0  0  0  0  0  0  0
    7.9406  -11.9915   20.1829 N   0  0  0  0  0  0  0  0  0  0  0  0
    7.9260  -13.1963   19.4371 C   0  0  0  0  0  0  0  0  0  0  0  0
    7.4463  -13.1955   18.2780 O   0  0  0  0  0  0  0  0  0  0  0  0
    8.4748  -14.4865   20.0031 C   0  0  0  0  0  0  0  0  0  0  0  0
    8.9459  -14.3025   21.3951 C   0  0  0  0  0  0  0  0  0  0  0  0
    9.5137  -15.4921   22.0912 C   0  0  2  0  0  0  0  0  0  0  0  0
    8.5498  -16.5840   21.8050 N   0  0  0  0  0  0  0  0  0  0  0  0
    9.6549  -15.3938   23.5384 C   0  0  0  0  0  0  0  0  0  0  0  0
   10.4681  -14.5356   24.0136 O   0  0  0  0  0  0  0  0  0  0  0  0
    8.9367  -16.1965   24.4622 N   0  0  0  0  0  0  0  0  0  0  0  0
    9.2358  -16.0854   25.8554 C   0  0  1  0  0  0  0  0  0  0  0  0
    8.0154  -15.7230   26.6825 C   0  0  0  0  0  0  0  0  0  0  0  0
    7.5420  -14.3615   26.4348 C   0  0  0  0  0  0  0  0  0  0  0  0
    6.2952  -14.0884   25.9156 C   0  0  0  0  0  0  0  0  0  0  0  0
    5.8590  -12.7936   25.6857 C   0  0  0  0  0  0  0  0  0  0  0  0
    6.7076  -11.7427   25.9893 C   0  0  0  0  0  0  0  0  0  0  0  0
    7.9519  -11.9812   26.5061 C   0  0  0  0  0  0  0  0  0  0  0  0
    8.3676  -13.2979   26.7285 C   0  0  0  0  0  0  0  0  0  0  0  0
    9.8610  -17.3323   26.3329 C   0  0  0  0  0  0  0  0  0  0  0  0
   10.1481  -18.3585   25.4518 O   0  0  0  0  0  0  0  0  0  0  0  0
   10.1387  -17.4730   27.5487 O   0  0  0  0  0  0  0  0  0  0  0  0
  2  3  1  6
  2  1  1  0
  4  2  1  0
  4  5  1  0
  5  7  1  0
  5  6  1  1
  7 15  1  0
  8  7  2  0
  9 10  1  0
 10 12  1  0
 11 10  2  0
 12 13  1  0
 14 16  1  0
 14 13  1  1
 15 14  1  0
 16 18  1  0
 17 16  2  0
 18 19  1  0
 19 27  1  0
 19 20  1  1
 21 20  1  0
 22 21  2  0
 23 22  1  0
 24 25  1  0
 24 23  2  0
 25 26  2  0
 26 21  1  0
 27 29  2  0
 27 28  1  0
M  END
$$$$
