LQF.pdb
     RDKit          3D

 29 29  0  0  1  0  0  0  0  0999 V2000
    8.4934  -11.9018   19.7294 C   0  0  0  0  0  0  0  0  0  0  0  0
    8.2968  -13.4069   19.4403 C   0  0  2  0  0  0  0  0  0  0  0  0
    6.8897  -13.4763   18.8495 C   0  0  0  0  0  0  0  0  0  0  0  0
    8.3953  -14.0825   20.7545 C   0  0  0  0  0  0  0  0  0  0  0  0
    9.4413  -15.1250   20.9217 C   0  0  2  0  0  0  0  0  0  0  0  0
    9.2361  -16.0451   19.7797 N   0  0  0  0  0  0  0  0  0  0  0  0
    9.3330  -15.9500   22.1406 C   0  0  0  0  0  0  0  0  0  0  0  0
    8.4865  -15.6233   23.0428 O   0  0  0  0  0  0  0  0  0  0  0  0
   11.8248  -21.5926   22.7922 N   0  0  0  0  0  0  0  0  0  0  0  0
   11.4381  -21.3683   24.1369 C   0  0  0  0  0  0  0  0  0  0  0  0
   11.6596  -22.2552   24.9959 O   0  0  0  0  0  0  0  0  0  0  0  0
   10.7638  -20.0845   24.5649 C   0  0  0  0  0  0  0  0  0  0  0  0
   10.6354  -19.1429   23.4289 C   0  0  0  0  0  0  0  0  0  0  0  0
    9.9821  -17.8298   23.6953 C   0  0  2  0  0  0  0  0  0  0  0  0
   10.0923  -17.0939   22.4109 N   0  0  0  0  0  0  0  0  0  0  0  0
   10.5835  -17.0020   24.7331 C   0  0  0  0  0  0  0  0  0  0  0  0
   11.6318  -16.3358   24.4489 O   0  0  0  0  0  0  0  0  0  0  0  0
   10.0714  -16.8855   26.0514 N   0  0  0  0  0  0  0  0  0  0  0  0
   10.7585  -16.0557   26.9907 C   0  0  1  0  0  0  0  0  0  0  0  0
   10.8262  -14.6069   26.5423 C   0  0  0  0  0  0  0  0  0  0  0  0
    9.5301  -13.9314   26.5976 C   0  0  0  0  0  0  0  0  0  0  0  0
    9.1892  -13.0534   27.6034 C   0  0  0  0  0  0  0  0  0  0  0  0
    7.9577  -12.4200   27.6440 C   0  0  0  0  0  0  0  0  0  0  0  0
    7.0426  -12.6811   26.6383 C   0  0  0  0  0  0  0  0  0  0  0  0
    7.3514  -13.5480   25.6257 C   0  0  0  0  0  0  0  0  0  0  0  0
    8.6018  -14.1742   25.6086 C   0  0  0  0  0  0  0  0  0  0  0  0
   10.1320  -16.1812   28.3194 C   0  0  0  0  0  0  0  0  0  0  0  0
    9.0342  -17.0008   28.5060 O   0  0  0  0  0  0  0  0  0  0  0  0
   10.5923  -15.5418   29.2964 O   0  0  0  0  0  0  0  0  0  0  0  0
  2  3  1  1
  2  1  1  0
  4  2  1  0
  4  5  1  0
  5  7  1  0
  5  6  1  6
  7 15  1  0
  8  7  2  0
  9 10  1  0
 10 12  1  0
 11 10  2  0
 12 13  1  0
 14 16  1  0
 14 13  1  6
 15 14  1  0
 16 18  1  0
 17 16  2  0
 18 19  1  0
 19 27  1  0
 19 20  1  6
 21 20  1  0
 22 21  2  0
 23 22  1  0
 24 25  1  0
 24 23  2  0
 25 26  2  0
 26 21  1  0
 27 29  2  0
 27 28  1  0
M  END
$$$$
