LQF.pdb
     RDKit          3D

 29 29  0  0  1  0  0  0  0  0999 V2000
    9.0782  -12.6970   19.5852 C   0  0  0  0  0  0  0  0  0  0  0  0
    7.8364  -13.4733   19.0925 C   0  0  2  0  0  0  0  0  0  0  0  0
    6.9295  -12.3787   18.5330 C   0  0  0  0  0  0  0  0  0  0  0  0
    7.2675  -14.1227   20.2957 C   0  0  0  0  0  0  0  0  0  0  0  0
    8.0975  -15.1392   20.9933 C   0  0  2  0  0  0  0  0  0  0  0  0
    8.4120  -16.1426   19.9506 N   0  0  0  0  0  0  0  0  0  0  0  0
    7.4271  -15.8737   22.0837 C   0  0  0  0  0  0  0  0  0  0  0  0
    6.4128  -15.3477   22.6598 O   0  0  0  0  0  0  0  0  0  0  0  0
    5.7565  -22.4988   23.0630 N   0  0  0  0  0  0  0  0  0  0  0  0
    5.2541  -21.1891   22.8620 C   0  0  0  0  0  0  0  0  0  0  0  0
    4.4048  -20.9884   21.9609 O   0  0  0  0  0  0  0  0  0  0  0  0
    5.7163  -20.0237   23.7073 C   0  0  0  0  0  0  0  0  0  0  0  0
    6.5491  -19.0872   22.9181 C   0  0  0  0  0  0  0  0  0  0  0  0
    7.0281  -17.8515   23.6006 C   0  0  2  0  0  0  0  0  0  0  0  0
    7.8072  -17.1328   22.5614 N   0  0  0  0  0  0  0  0  0  0  0  0
    7.8977  -18.0405   24.7547 C   0  0  0  0  0  0  0  0  0  0  0  0
    7.6433  -18.9960   25.5584 O   0  0  0  0  0  0  0  0  0  0  0  0
    9.0221  -17.2245   25.0433 N   0  0  0  0  0  0  0  0  0  0  0  0
    8.8348  -16.0330   25.8103 C   0  0  1  0  0  0  0  0  0  0  0  0
    7.9601  -15.0172   25.0977 C   0  0  0  0  0  0  0  0  0  0  0  0
    7.6974  -13.8253   25.9038 C   0  0  0  0  0  0  0  0  0  0  0  0
    6.4290  -13.3258   26.1048 C   0  0  0  0  0  0  0  0  0  0  0  0
    6.1939  -12.1956   26.8709 C   0  0  0  0  0  0  0  0  0  0  0  0
    7.2724  -11.5502   27.4517 C   0  0  0  0  0  0  0  0  0  0  0  0
    8.5440  -12.0217   27.2708 C   0  0  0  0  0  0  0  0  0  0  0  0
    8.7537  -13.1647   26.4927 C   0  0  0  0  0  0  0  0  0  0  0  0
    8.2937  -16.3743   27.1386 C   0  0  0  0  0  0  0  0  0  0  0  0
    8.9253  -15.9399   28.2893 O   0  0  0  0  0  0  0  0  0  0  0  0
    7.2504  -17.0652   27.2359 O   0  0  0  0  0  0  0  0  0  0  0  0
  2  3  1  1
  2  1  1  0
  4  2  1  0
  4  5  1  0
  5  7  1  0
  5  6  1  6
  7 15  1  0
  8  7  2  0
  9 10  1  0
 10 12  1  0
 11 10  2  0
 12 13  1  0
 14 16  1  0
 14 13  1  6
 15 14  1  0
 16 18  1  0
 17 16  2  0
 18 19  1  0
 19 27  1  0
 19 20  1  6
 21 20  1  0
 22 21  2  0
 23 22  1  0
 24 25  1  0
 24 23  2  0
 25 26  2  0
 26 21  1  0
 27 29  2  0
 27 28  1  0
M  END
$$$$
