LQF.pdb
     RDKit          3D

 29 29  0  0  1  0  0  0  0  0999 V2000
    8.3759  -13.6027   17.9890 C   0  0  0  0  0  0  0  0  0  0  0  0
    7.7577  -13.4832   19.4001 C   0  0  2  0  0  0  0  0  0  0  0  0
    6.7515  -12.3431   19.2539 C   0  0  0  0  0  0  0  0  0  0  0  0
    8.8813  -13.1375   20.3008 C   0  0  0  0  0  0  0  0  0  0  0  0
    9.8886  -14.1916   20.5893 C   0  0  2  0  0  0  0  0  0  0  0  0
    9.9699  -14.9812   19.3392 N   0  0  0  0  0  0  0  0  0  0  0  0
    9.5289  -15.1451   21.6567 C   0  0  0  0  0  0  0  0  0  0  0  0
    8.7040  -14.7834   22.5655 O   0  0  0  0  0  0  0  0  0  0  0  0
   10.8102  -21.4349   21.6063 N   0  0  0  0  0  0  0  0  0  0  0  0
   10.2722  -20.4257   20.7696 C   0  0  0  0  0  0  0  0  0  0  0  0
   10.4703  -20.4833   19.5323 O   0  0  0  0  0  0  0  0  0  0  0  0
    9.4633  -19.2779   21.3305 C   0  0  0  0  0  0  0  0  0  0  0  0
   10.1294  -18.6802   22.5106 C   0  0  0  0  0  0  0  0  0  0  0  0
    9.6917  -17.3185   22.9302 C   0  0  2  0  0  0  0  0  0  0  0  0
   10.0196  -16.4505   21.7716 N   0  0  0  0  0  0  0  0  0  0  0  0
   10.3476  -16.7567   24.1042 C   0  0  0  0  0  0  0  0  0  0  0  0
   11.5287  -16.2954   23.9791 O   0  0  0  0  0  0  0  0  0  0  0  0
    9.7501  -16.6860   25.3894 N   0  0  0  0  0  0  0  0  0  0  0  0
   10.4021  -15.9352   26.4161 C   0  0  1  0  0  0  0  0  0  0  0  0
   10.3320  -14.4384   26.1722 C   0  0  0  0  0  0  0  0  0  0  0  0
    8.9679  -13.9139   26.2322 C   0  0  0  0  0  0  0  0  0  0  0  0
    8.4471  -13.3181   27.3603 C   0  0  0  0  0  0  0  0  0  0  0  0
    7.1530  -12.8252   27.4038 C   0  0  0  0  0  0  0  0  0  0  0  0
    6.3608  -12.9373   26.2739 C   0  0  0  0  0  0  0  0  0  0  0  0
    6.8491  -13.5238   25.1382 C   0  0  0  0  0  0  0  0  0  0  0  0
    8.1591  -14.0132   25.1210 C   0  0  0  0  0  0  0  0  0  0  0  0
    9.8403  -16.2951   27.7309 C   0  0  0  0  0  0  0  0  0  0  0  0
   10.3892  -15.7878   28.8941 O   0  0  0  0  0  0  0  0  0  0  0  0
    8.8547  -17.0686   27.8050 O   0  0  0  0  0  0  0  0  0  0  0  0
  2  3  1  6
  2  1  1  0
  4  2  1  0
  4  5  1  0
  5  7  1  0
  5  6  1  6
  7 15  1  0
  8  7  2  0
  9 10  1  0
 10 12  1  0
 11 10  2  0
 12 13  1  0
 14 16  1  0
 14 13  1  6
 15 14  1  0
 16 18  1  0
 17 16  2  0
 18 19  1  0
 19 27  1  0
 19 20  1  6
 21 20  1  0
 22 21  2  0
 23 22  1  0
 24 25  1  0
 24 23  2  0
 25 26  2  0
 26 21  1  0
 27 29  2  0
 27 28  1  0
M  END
$$$$
