FPW.pdb
     RDKit          3D

 33 36  0  0  1  0  0  0  0  0999 V2000
    6.4109  -17.5046   25.5190 N   0  0  0  0  0  0  0  0  0  0  0  0
    6.0481  -16.9862   24.2118 C   0  0  1  0  0  0  0  0  0  0  0  0
    5.5725  -15.5588   24.4605 C   0  0  0  0  0  0  0  0  0  0  0  0
    6.5284  -14.8648   25.3435 C   0  0  0  0  0  0  0  0  0  0  0  0
    7.5725  -15.5552   25.9151 C   0  0  0  0  0  0  0  0  0  0  0  0
    8.4683  -14.8946   26.7483 C   0  0  0  0  0  0  0  0  0  0  0  0
    8.3469  -13.5606   27.0249 C   0  0  0  0  0  0  0  0  0  0  0  0
    7.3052  -12.8545   26.4593 C   0  0  0  0  0  0  0  0  0  0  0  0
    6.4142  -13.5357   25.6239 C   0  0  0  0  0  0  0  0  0  0  0  0
    7.1957  -17.0536   23.2833 C   0  0  0  0  0  0  0  0  0  0  0  0
    7.7240  -18.2051   23.1529 O   0  0  0  0  0  0  0  0  0  0  0  0
    7.6854  -15.9276   22.5808 N   0  0  0  0  0  0  0  0  0  0  0  0
    7.3067  -14.5535   22.7717 C   0  0  0  0  0  0  0  0  0  0  0  0
    7.9948  -13.7427   21.6835 C   0  0  0  0  0  0  0  0  0  0  0  0
    8.4158  -14.7584   20.6408 C   0  0  0  0  0  0  0  0  0  0  0  0
    8.6563  -15.9838   21.5356 C   0  0  1  0  0  0  0  0  0  0  0  0
   10.0512  -15.7802   22.0604 C   0  0  0  0  0  0  0  0  0  0  0  0
   10.6909  -14.7707   21.6737 O   0  0  0  0  0  0  0  0  0  0  0  0
   10.6660  -16.6653   22.9589 N   0  0  0  0  0  0  0  0  0  0  0  0
   11.9431  -16.4393   23.6063 C   0  0  1  0  0  0  0  0  0  0  0  0
   11.8884  -15.3014   24.5845 C   0  0  0  0  0  0  0  0  0  0  0  0
   11.0127  -15.6925   25.7157 C   0  0  0  0  0  0  0  0  0  0  0  0
   10.3469  -16.9071   25.9220 C   0  0  0  0  0  0  0  0  0  0  0  0
    9.6523  -16.8458   27.0662 N   0  0  0  0  0  0  0  0  0  0  0  0
    9.8122  -15.6457   27.6521 C   0  0  0  0  0  0  0  0  0  0  0  0
    9.3346  -15.0692   28.8121 C   0  0  0  0  0  0  0  0  0  0  0  0
    9.6658  -13.7760   29.1906 C   0  0  0  0  0  0  0  0  0  0  0  0
   10.5044  -13.0617   28.3603 C   0  0  0  0  0  0  0  0  0  0  0  0
   10.9842  -13.6399   27.1957 C   0  0  0  0  0  0  0  0  0  0  0  0
   10.6509  -14.9312   26.8218 C   0  0  0  0  0  0  0  0  0  0  0  0
   12.3767  -17.6663   24.3210 C   0  0  0  0  0  0  0  0  0  0  0  0
   13.4903  -17.7669   24.8845 O   0  0  0  0  0  0  0  0  0  0  0  0
   11.5102  -18.7762   24.3783 O   0  0  0  0  0  0  0  0  0  0  0  0
  2  1  1  1
  2  3  1  0
  3  4  1  0
  4  5  2  0
  4  9  1  0
  5  6  1  0
  6  7  2  0
  8  7  1  0
  9  8  2  0
 10 12  1  0
 10  2  1  0
 11 10  2  0
 12 16  1  0
 13 12  1  0
 13 14  1  0
 14 15  1  0
 16 15  1  0
 17 19  1  0
 16 17  1  1
 18 17  2  0
 20 21  1  1
 20 19  1  0
 22 21  1  0
 22 30  1  0
 23 24  1  0
 23 22  2  0
 24 25  1  0
 25 30  2  0
 25 26  1  0
 26 27  2  0
 27 28  1  0
 29 28  2  0
 30 29  1  0
 31 20  1  0
 31 33  1  0
 32 31  2  0
M  END
$$$$
