FPW.pdb
     RDKit          3D

 33 36  0  0  1  0  0  0  0  0999 V2000
   10.1547  -17.6449   18.0186 N   0  0  0  0  0  0  0  0  0  0  0  0
    9.2227  -17.6368   19.1324 C   0  0  1  0  0  0  0  0  0  0  0  0
    9.2734  -19.0463   19.7124 C   0  0  0  0  0  0  0  0  0  0  0  0
    8.2909  -19.9021   19.0214 C   0  0  0  0  0  0  0  0  0  0  0  0
    6.9571  -19.8346   19.3528 C   0  0  0  0  0  0  0  0  0  0  0  0
    6.0371  -20.6462   18.6986 C   0  0  0  0  0  0  0  0  0  0  0  0
    6.4167  -21.5241   17.7208 C   0  0  0  0  0  0  0  0  0  0  0  0
    7.7506  -21.6034   17.3771 C   0  0  0  0  0  0  0  0  0  0  0  0
    8.6614  -20.7793   18.0460 C   0  0  0  0  0  0  0  0  0  0  0  0
    9.5910  -16.5990   20.1176 C   0  0  0  0  0  0  0  0  0  0  0  0
   10.8187  -16.2599   20.1185 O   0  0  0  0  0  0  0  0  0  0  0  0
    8.6577  -16.0129   21.0046 N   0  0  0  0  0  0  0  0  0  0  0  0
    7.2408  -16.2529   21.0564 C   0  0  0  0  0  0  0  0  0  0  0  0
    6.6577  -15.2817   22.0722 C   0  0  0  0  0  0  0  0  0  0  0  0
    7.7228  -14.2205   22.2606 C   0  0  0  0  0  0  0  0  0  0  0  0
    8.9875  -15.0566   22.0122 C   0  0  1  0  0  0  0  0  0  0  0  0
    9.2521  -15.7149   23.3385 C   0  0  0  0  0  0  0  0  0  0  0  0
    8.5643  -16.7179   23.6527 O   0  0  0  0  0  0  0  0  0  0  0  0
   10.2293  -15.2588   24.2361 N   0  0  0  0  0  0  0  0  0  0  0  0
   10.5235  -15.8607   25.5216 C   0  0  1  0  0  0  0  0  0  0  0  0
    9.9615  -15.0621   26.6624 C   0  0  0  0  0  0  0  0  0  0  0  0
    8.5073  -14.8769   26.4382 C   0  0  0  0  0  0  0  0  0  0  0  0
    7.5506  -15.8382   26.0891 C   0  0  0  0  0  0  0  0  0  0  0  0
    6.3509  -15.2523   25.9756 N   0  0  0  0  0  0  0  0  0  0  0  0
    6.4426  -13.9349   26.2309 C   0  0  0  0  0  0  0  0  0  0  0  0
    5.5370  -12.8931   26.2535 C   0  0  0  0  0  0  0  0  0  0  0  0
    5.9089  -11.5912   26.5568 C   0  0  0  0  0  0  0  0  0  0  0  0
    7.2377  -11.3558   26.8425 C   0  0  0  0  0  0  0  0  0  0  0  0
    8.1473  -12.4012   26.8200 C   0  0  0  0  0  0  0  0  0  0  0  0
    7.7717  -13.6994   26.5167 C   0  0  0  0  0  0  0  0  0  0  0  0
    9.9685  -17.2365   25.5795 C   0  0  0  0  0  0  0  0  0  0  0  0
   10.0793  -17.9723   26.5866 O   0  0  0  0  0  0  0  0  0  0  0  0
    9.2838  -17.7538   24.4615 O   0  0  0  0  0  0  0  0  0  0  0  0
  2  1  1  6
  2  3  1  0
  3  4  1  0
  4  5  2  0
  4  9  1  0
  5  6  1  0
  6  7  2  0
  8  7  1  0
  9  8  2  0
 10 12  1  0
 10  2  1  0
 11 10  2  0
 12 16  1  0
 13 12  1  0
 13 14  1  0
 14 15  1  0
 16 15  1  0
 17 19  1  0
 16 17  1  1
 18 17  2  0
 20 21  1  1
 20 19  1  0
 22 21  1  0
 22 30  1  0
 23 24  1  0
 23 22  2  0
 24 25  1  0
 25 30  2  0
 25 26  1  0
 26 27  2  0
 27 28  1  0
 29 28  2  0
 30 29  1  0
 31 20  1  0
 31 33  1  0
 32 31  2  0
M  END
$$$$
