FPW.pdb
     RDKit          3D

 33 36  0  0  1  0  0  0  0  0999 V2000
    5.4170  -18.2974   19.8347 N   0  0  0  0  0  0  0  0  0  0  0  0
    5.9084  -17.6828   21.0554 C   0  0  1  0  0  0  0  0  0  0  0  0
    5.8249  -18.7724   22.1189 C   0  0  0  0  0  0  0  0  0  0  0  0
    6.3600  -18.2616   23.3948 C   0  0  0  0  0  0  0  0  0  0  0  0
    6.6167  -16.9189   23.5518 C   0  0  0  0  0  0  0  0  0  0  0  0
    7.1233  -16.4451   24.7569 C   0  0  0  0  0  0  0  0  0  0  0  0
    7.3799  -17.2799   25.8095 C   0  0  0  0  0  0  0  0  0  0  0  0
    7.1277  -18.6289   25.6676 C   0  0  0  0  0  0  0  0  0  0  0  0
    6.6182  -19.0871   24.4484 C   0  0  0  0  0  0  0  0  0  0  0  0
    7.2814  -17.1693   20.8686 C   0  0  0  0  0  0  0  0  0  0  0  0
    8.1730  -18.0572   20.6718 O   0  0  0  0  0  0  0  0  0  0  0  0
    7.5999  -15.7914   20.9030 N   0  0  0  0  0  0  0  0  0  0  0  0
    6.7402  -14.7118   21.3069 C   0  0  0  0  0  0  0  0  0  0  0  0
    7.4860  -13.4153   21.0279 C   0  0  0  0  0  0  0  0  0  0  0  0
    8.5974  -13.7971   20.0712 C   0  0  0  0  0  0  0  0  0  0  0  0
    8.8615  -15.2416   20.5229 C   0  0  1  0  0  0  0  0  0  0  0  0
    9.7804  -15.0889   21.7039 C   0  0  0  0  0  0  0  0  0  0  0  0
   10.5529  -14.0987   21.7326 O   0  0  0  0  0  0  0  0  0  0  0  0
    9.8122  -16.0008   22.7698 N   0  0  0  0  0  0  0  0  0  0  0  0
   10.6533  -15.8784   23.9440 C   0  0  1  0  0  0  0  0  0  0  0  0
   10.4258  -14.5843   24.6710 C   0  0  0  0  0  0  0  0  0  0  0  0
    9.0527  -14.5922   25.2312 C   0  0  0  0  0  0  0  0  0  0  0  0
    8.1693  -15.6717   25.3560 C   0  0  0  0  0  0  0  0  0  0  0  0
    7.0239  -15.2487   25.9078 N   0  0  0  0  0  0  0  0  0  0  0  0
    7.0829  -13.9301   26.1663 C   0  0  0  0  0  0  0  0  0  0  0  0
    6.2055  -13.0161   26.7149 C   0  0  0  0  0  0  0  0  0  0  0  0
    6.5291  -11.6759   26.8708 C   0  0  0  0  0  0  0  0  0  0  0  0
    7.7792  -11.2674   26.4547 C   0  0  0  0  0  0  0  0  0  0  0  0
    8.6605  -12.1844   25.9039 C   0  0  0  0  0  0  0  0  0  0  0  0
    8.3332  -13.5214   25.7501 C   0  0  0  0  0  0  0  0  0  0  0  0
   10.3945  -17.0046   24.8763 C   0  0  0  0  0  0  0  0  0  0  0  0
    9.3922  -17.7490   24.7812 O   0  0  0  0  0  0  0  0  0  0  0  0
   11.3059  -17.2620   25.9200 O   0  0  0  0  0  0  0  0  0  0  0  0
  2  1  1  6
  2  3  1  0
  3  4  1  0
  4  5  2  0
  4  9  1  0
  5  6  1  0
  6  7  2  0
  8  7  1  0
  9  8  2  0
 10 12  1  0
 10  2  1  0
 11 10  2  0
 12 16  1  0
 13 12  1  0
 13 14  1  0
 14 15  1  0
 16 15  1  0
 17 19  1  0
 16 17  1  1
 18 17  2  0
 20 21  1  1
 20 19  1  0
 22 21  1  0
 22 30  1  0
 23 24  1  0
 23 22  2  0
 24 25  1  0
 25 30  2  0
 25 26  1  0
 26 27  2  0
 27 28  1  0
 29 28  2  0
 30 29  1  0
 31 20  1  0
 31 33  1  0
 32 31  2  0
M  END
$$$$
