FPW.pdb
     RDKit          3D

 33 36  0  0  1  0  0  0  0  0999 V2000
    6.1381  -18.2137   20.4447 N   0  0  0  0  0  0  0  0  0  0  0  0
    7.0307  -17.0900   20.6675 C   0  0  1  0  0  0  0  0  0  0  0  0
    6.1195  -15.8910   20.9077 C   0  0  0  0  0  0  0  0  0  0  0  0
    6.9098  -14.6474   20.8441 C   0  0  0  0  0  0  0  0  0  0  0  0
    7.2755  -13.9976   22.0006 C   0  0  0  0  0  0  0  0  0  0  0  0
    8.0187  -12.8244   21.9326 C   0  0  0  0  0  0  0  0  0  0  0  0
    8.4057  -12.2840   20.7373 C   0  0  0  0  0  0  0  0  0  0  0  0
    8.0468  -12.9239   19.5688 C   0  0  0  0  0  0  0  0  0  0  0  0
    7.2994  -14.1026   19.6569 C   0  0  0  0  0  0  0  0  0  0  0  0
    7.9370  -17.3567   21.8037 C   0  0  0  0  0  0  0  0  0  0  0  0
    7.4094  -17.9655   22.7902 O   0  0  0  0  0  0  0  0  0  0  0  0
    9.2977  -16.9699   21.8111 N   0  0  0  0  0  0  0  0  0  0  0  0
    9.9454  -16.0572   20.9081 C   0  0  0  0  0  0  0  0  0  0  0  0
   11.4321  -16.0854   21.2307 C   0  0  0  0  0  0  0  0  0  0  0  0
   11.6360  -17.3480   22.0433 C   0  0  0  0  0  0  0  0  0  0  0  0
   10.2707  -17.4466   22.7408 C   0  0  1  0  0  0  0  0  0  0  0  0
   10.4033  -16.5302   23.9263 C   0  0  0  0  0  0  0  0  0  0  0  0
   10.7250  -15.3335   23.7201 O   0  0  0  0  0  0  0  0  0  0  0  0
   10.1846  -16.9524   25.2463 N   0  0  0  0  0  0  0  0  0  0  0  0
   10.8917  -16.4504   26.4079 C   0  0  1  0  0  0  0  0  0  0  0  0
   10.4056  -15.0916   26.8229 C   0  0  0  0  0  0  0  0  0  0  0  0
    8.9231  -15.0884   26.7856 C   0  0  0  0  0  0  0  0  0  0  0  0
    8.0528  -16.1781   26.6578 C   0  0  0  0  0  0  0  0  0  0  0  0
    6.7866  -15.7398   26.6592 N   0  0  0  0  0  0  0  0  0  0  0  0
    6.7504  -14.4009   26.7821 C   0  0  0  0  0  0  0  0  0  0  0  0
    5.7360  -13.4660   26.8370 C   0  0  0  0  0  0  0  0  0  0  0  0
    5.9836  -12.1073   26.9700 C   0  0  0  0  0  0  0  0  0  0  0  0
    7.2997  -11.7017   27.0482 C   0  0  0  0  0  0  0  0  0  0  0  0
    8.3185  -12.6398   26.9932 C   0  0  0  0  0  0  0  0  0  0  0  0
    8.0667  -13.9953   26.8603 C   0  0  0  0  0  0  0  0  0  0  0  0
   10.7290  -17.3873   27.5482 C   0  0  0  0  0  0  0  0  0  0  0  0
   10.0177  -18.4159   27.4866 O   0  0  0  0  0  0  0  0  0  0  0  0
   11.3968  -17.1235   28.7609 O   0  0  0  0  0  0  0  0  0  0  0  0
  2  1  1  1
  2  3  1  0
  3  4  1  0
  4  5  2  0
  4  9  1  0
  5  6  1  0
  6  7  2  0
  8  7  1  0
  9  8  2  0
 10 12  1  0
 10  2  1  0
 11 10  2  0
 12 16  1  0
 13 12  1  0
 13 14  1  0
 14 15  1  0
 16 15  1  0
 17 19  1  0
 16 17  1  1
 18 17  2  0
 20 21  1  1
 20 19  1  0
 22 21  1  0
 22 30  1  0
 23 24  1  0
 23 22  2  0
 24 25  1  0
 25 30  2  0
 25 26  1  0
 26 27  2  0
 27 28  1  0
 29 28  2  0
 30 29  1  0
 31 20  1  0
 31 33  1  0
 32 31  2  0
M  END
$$$$
