FPW.pdb
     RDKit          3D

 33 36  0  0  1  0  0  0  0  0999 V2000
    5.7347  -18.3425   19.5926 N   0  0  0  0  0  0  0  0  0  0  0  0
    6.0493  -17.5817   20.7890 C   0  0  1  0  0  0  0  0  0  0  0  0
    5.7920  -18.5332   21.9527 C   0  0  0  0  0  0  0  0  0  0  0  0
    6.1954  -17.8901   23.2171 C   0  0  0  0  0  0  0  0  0  0  0  0
    5.6921  -16.6560   23.5595 C   0  0  0  0  0  0  0  0  0  0  0  0
    6.0788  -16.0550   24.7522 C   0  0  0  0  0  0  0  0  0  0  0  0
    6.9564  -16.6565   25.6117 C   0  0  0  0  0  0  0  0  0  0  0  0
    7.4698  -17.8941   25.2825 C   0  0  0  0  0  0  0  0  0  0  0  0
    7.0693  -18.4831   24.0788 C   0  0  0  0  0  0  0  0  0  0  0  0
    7.4426  -17.0912   20.7480 C   0  0  0  0  0  0  0  0  0  0  0  0
    8.3389  -17.9961   20.7464 O   0  0  0  0  0  0  0  0  0  0  0  0
    7.7747  -15.7166   20.7126 N   0  0  0  0  0  0  0  0  0  0  0  0
    6.9030  -14.6059   20.9855 C   0  0  0  0  0  0  0  0  0  0  0  0
    7.6814  -13.3366   20.6721 C   0  0  0  0  0  0  0  0  0  0  0  0
    8.8494  -13.7899   19.8197 C   0  0  0  0  0  0  0  0  0  0  0  0
    9.0653  -15.2029   20.3826 C   0  0  1  0  0  0  0  0  0  0  0  0
    9.9053  -14.9787   21.6101 C   0  0  0  0  0  0  0  0  0  0  0  0
   10.5380  -13.8980   21.7088 O   0  0  0  0  0  0  0  0  0  0  0  0
   10.0127  -15.9204   22.6446 N   0  0  0  0  0  0  0  0  0  0  0  0
   10.7853  -15.7389   23.8576 C   0  0  1  0  0  0  0  0  0  0  0  0
   10.4147  -14.4763   24.5812 C   0  0  0  0  0  0  0  0  0  0  0  0
    9.1146  -14.6867   25.2628 C   0  0  0  0  0  0  0  0  0  0  0  0
    8.4702  -15.8952   25.5553 C   0  0  0  0  0  0  0  0  0  0  0  0
    7.3080  -15.6425   26.1726 N   0  0  0  0  0  0  0  0  0  0  0  0
    7.1277  -14.3174   26.3159 C   0  0  0  0  0  0  0  0  0  0  0  0
    6.1318  -13.5349   26.8655 C   0  0  0  0  0  0  0  0  0  0  0  0
    6.1985  -12.1491   26.8812 C   0  0  0  0  0  0  0  0  0  0  0  0
    7.3109  -11.5561   26.3210 C   0  0  0  0  0  0  0  0  0  0  0  0
    8.3111  -12.3410   25.7692 C   0  0  0  0  0  0  0  0  0  0  0  0
    8.2402  -13.7242   25.7557 C   0  0  0  0  0  0  0  0  0  0  0  0
   10.5812  -16.8924   24.7697 C   0  0  0  0  0  0  0  0  0  0  0  0
   11.2074  -17.0273   25.8456 O   0  0  0  0  0  0  0  0  0  0  0  0
    9.6458  -17.8889   24.4261 O   0  0  0  0  0  0  0  0  0  0  0  0
  2  1  1  6
  2  3  1  0
  3  4  1  0
  4  5  2  0
  4  9  1  0
  5  6  1  0
  6  7  2  0
  8  7  1  0
  9  8  2  0
 10 12  1  0
 10  2  1  0
 11 10  2  0
 12 16  1  0
 13 12  1  0
 13 14  1  0
 14 15  1  0
 16 15  1  0
 17 19  1  0
 16 17  1  1
 18 17  2  0
 20 21  1  1
 20 19  1  0
 22 21  1  0
 22 30  1  0
 23 24  1  0
 23 22  2  0
 24 25  1  0
 25 30  2  0
 25 26  1  0
 26 27  2  0
 27 28  1  0
 29 28  2  0
 30 29  1  0
 31 20  1  0
 31 33  1  0
 32 31  2  0
M  END
$$$$
