FPW.pdb
     RDKit          3D

 33 36  0  0  1  0  0  0  0  0999 V2000
    6.1116  -19.6480   21.5321 N   0  0  0  0  0  0  0  0  0  0  0  0
    6.0485  -18.2010   21.6392 C   0  0  1  0  0  0  0  0  0  0  0  0
    5.5204  -17.9220   23.0424 C   0  0  0  0  0  0  0  0  0  0  0  0
    6.2196  -18.7822   24.0151 C   0  0  0  0  0  0  0  0  0  0  0  0
    6.0856  -18.5540   25.3655 C   0  0  0  0  0  0  0  0  0  0  0  0
    6.7497  -19.3678   26.2764 C   0  0  0  0  0  0  0  0  0  0  0  0
    7.5448  -20.4045   25.8717 C   0  0  0  0  0  0  0  0  0  0  0  0
    7.6892  -20.6461   24.5210 C   0  0  0  0  0  0  0  0  0  0  0  0
    7.0136  -19.8172   23.6196 C   0  0  0  0  0  0  0  0  0  0  0  0
    7.3757  -17.5983   21.3968 C   0  0  0  0  0  0  0  0  0  0  0  0
    8.3021  -18.4211   21.1021 O   0  0  0  0  0  0  0  0  0  0  0  0
    7.6170  -16.2070   21.4817 N   0  0  0  0  0  0  0  0  0  0  0  0
    6.7344  -15.2039   22.0135 C   0  0  0  0  0  0  0  0  0  0  0  0
    7.3791  -13.8516   21.7474 C   0  0  0  0  0  0  0  0  0  0  0  0
    8.4257  -14.1156   20.6838 C   0  0  0  0  0  0  0  0  0  0  0  0
    8.8087  -15.5622   21.0315 C   0  0  1  0  0  0  0  0  0  0  0  0
    9.8138  -15.4136   22.1406 C   0  0  0  0  0  0  0  0  0  0  0  0
   10.6079  -14.4412   22.0976 O   0  0  0  0  0  0  0  0  0  0  0  0
    9.9027  -16.3103   23.2161 N   0  0  0  0  0  0  0  0  0  0  0  0
   10.7011  -16.1028   24.4081 C   0  0  1  0  0  0  0  0  0  0  0  0
   10.3692  -14.8085   25.0934 C   0  0  0  0  0  0  0  0  0  0  0  0
    8.9410  -14.8374   25.4916 C   0  0  0  0  0  0  0  0  0  0  0  0
    8.1052  -15.9490   25.6565 C   0  0  0  0  0  0  0  0  0  0  0  0
    6.8817  -15.5373   26.0155 N   0  0  0  0  0  0  0  0  0  0  0  0
    6.8418  -14.1958   26.1040 C   0  0  0  0  0  0  0  0  0  0  0  0
    5.8594  -13.2807   26.4258 C   0  0  0  0  0  0  0  0  0  0  0  0
    6.0931  -11.9131   26.4403 C   0  0  0  0  0  0  0  0  0  0  0  0
    7.3617  -11.4778   26.1177 C   0  0  0  0  0  0  0  0  0  0  0  0
    8.3484  -12.3959   25.7946 C   0  0  0  0  0  0  0  0  0  0  0  0
    8.1106  -13.7603   25.7814 C   0  0  0  0  0  0  0  0  0  0  0  0
   10.4907  -17.2195   25.3636 C   0  0  0  0  0  0  0  0  0  0  0  0
    9.5599  -18.0486   25.2458 O   0  0  0  0  0  0  0  0  0  0  0  0
   11.3673  -17.3688   26.4570 O   0  0  0  0  0  0  0  0  0  0  0  0
  2  1  1  1
  2  3  1  0
  3  4  1  0
  4  5  2  0
  4  9  1  0
  5  6  1  0
  6  7  2  0
  8  7  1  0
  9  8  2  0
 10 12  1  0
 10  2  1  0
 11 10  2  0
 12 16  1  0
 13 12  1  0
 13 14  1  0
 14 15  1  0
 16 15  1  0
 17 19  1  0
 16 17  1  1
 18 17  2  0
 20 21  1  1
 20 19  1  0
 22 21  1  0
 22 30  1  0
 23 24  1  0
 23 22  2  0
 24 25  1  0
 25 30  2  0
 25 26  1  0
 26 27  2  0
 27 28  1  0
 29 28  2  0
 30 29  1  0
 31 20  1  0
 31 33  1  0
 32 31  2  0
M  END
$$$$
