FPW.pdb
     RDKit          3D

 33 36  0  0  1  0  0  0  0  0999 V2000
    5.8024  -19.7039   22.1444 N   0  0  0  0  0  0  0  0  0  0  0  0
    5.8337  -18.2520   22.1285 C   0  0  1  0  0  0  0  0  0  0  0  0
    5.4210  -17.8231   23.5325 C   0  0  0  0  0  0  0  0  0  0  0  0
    6.2592  -18.5158   24.5288 C   0  0  0  0  0  0  0  0  0  0  0  0
    6.3899  -18.0064   25.8004 C   0  0  0  0  0  0  0  0  0  0  0  0
    7.1838  -18.6639   26.7335 C   0  0  0  0  0  0  0  0  0  0  0  0
    7.8506  -19.8182   26.4277 C   0  0  0  0  0  0  0  0  0  0  0  0
    7.7296  -20.3416   25.1568 C   0  0  0  0  0  0  0  0  0  0  0  0
    6.9268  -19.6665   24.2317 C   0  0  0  0  0  0  0  0  0  0  0  0
    7.1750  -17.7600   21.7509 C   0  0  0  0  0  0  0  0  0  0  0  0
    8.0308  -18.6639   21.4814 O   0  0  0  0  0  0  0  0  0  0  0  0
    7.5017  -16.3851   21.6882 N   0  0  0  0  0  0  0  0  0  0  0  0
    6.7185  -15.2837   22.1794 C   0  0  0  0  0  0  0  0  0  0  0  0
    7.4197  -14.0050   21.7452 C   0  0  0  0  0  0  0  0  0  0  0  0
    8.3711  -14.4304   20.6452 C   0  0  0  0  0  0  0  0  0  0  0  0
    8.6936  -15.8613   21.1022 C   0  0  1  0  0  0  0  0  0  0  0  0
    9.7819  -15.6779   22.1243 C   0  0  0  0  0  0  0  0  0  0  0  0
   10.8950  -15.2435   21.7367 O   0  0  0  0  0  0  0  0  0  0  0  0
    9.6083  -15.9701   23.4856 N   0  0  0  0  0  0  0  0  0  0  0  0
   10.6089  -15.7653   24.5142 C   0  0  1  0  0  0  0  0  0  0  0  0
   10.2527  -14.6320   25.4328 C   0  0  0  0  0  0  0  0  0  0  0  0
    8.8037  -14.7096   25.7390 C   0  0  0  0  0  0  0  0  0  0  0  0
    7.9679  -15.8330   25.7166 C   0  0  0  0  0  0  0  0  0  0  0  0
    6.7224  -15.4686   26.0502 N   0  0  0  0  0  0  0  0  0  0  0  0
    6.6676  -14.1481   26.2999 C   0  0  0  0  0  0  0  0  0  0  0  0
    5.6612  -13.2795   26.6726 C   0  0  0  0  0  0  0  0  0  0  0  0
    5.8837  -11.9240   26.8685 C   0  0  0  0  0  0  0  0  0  0  0  0
    7.1658  -11.4523   26.6775 C   0  0  0  0  0  0  0  0  0  0  0  0
    8.1765  -12.3237   26.3033 C   0  0  0  0  0  0  0  0  0  0  0  0
    7.9499  -13.6762   26.1089 C   0  0  0  0  0  0  0  0  0  0  0  0
   10.7733  -17.0019   25.3192 C   0  0  0  0  0  0  0  0  0  0  0  0
   11.6831  -17.1447   26.1676 O   0  0  0  0  0  0  0  0  0  0  0  0
    9.8756  -18.0724   25.1339 O   0  0  0  0  0  0  0  0  0  0  0  0
  2  1  1  1
  2  3  1  0
  3  4  1  0
  4  5  2  0
  4  9  1  0
  5  6  1  0
  6  7  2  0
  8  7  1  0
  9  8  2  0
 10 12  1  0
 10  2  1  0
 11 10  2  0
 12 16  1  0
 13 12  1  0
 13 14  1  0
 14 15  1  0
 16 15  1  0
 17 19  1  0
 16 17  1  1
 18 17  2  0
 20 21  1  1
 20 19  1  0
 22 21  1  0
 22 30  1  0
 23 24  1  0
 23 22  2  0
 24 25  1  0
 25 30  2  0
 25 26  1  0
 26 27  2  0
 27 28  1  0
 29 28  2  0
 30 29  1  0
 31 20  1  0
 31 33  1  0
 32 31  2  0
M  END
$$$$
