FPW.pdb
     RDKit          3D

 33 36  0  0  1  0  0  0  0  0999 V2000
    9.1728  -16.1469   19.4507 N   0  0  0  0  0  0  0  0  0  0  0  0
    8.8606  -16.6350   20.7825 C   0  0  1  0  0  0  0  0  0  0  0  0
    7.5744  -15.9207   21.1838 C   0  0  0  0  0  0  0  0  0  0  0  0
    7.7272  -14.4691   20.9726 C   0  0  0  0  0  0  0  0  0  0  0  0
    6.9100  -13.8070   20.0853 C   0  0  0  0  0  0  0  0  0  0  0  0
    7.0616  -12.4387   19.8899 C   0  0  0  0  0  0  0  0  0  0  0  0
    8.0097  -11.7151   20.5593 C   0  0  0  0  0  0  0  0  0  0  0  0
    8.8368  -12.3647   21.4525 C   0  0  0  0  0  0  0  0  0  0  0  0
    8.6696  -13.7410   21.6359 C   0  0  0  0  0  0  0  0  0  0  0  0
    8.7224  -18.1062   20.7834 C   0  0  0  0  0  0  0  0  0  0  0  0
    7.9629  -18.5826   19.8788 O   0  0  0  0  0  0  0  0  0  0  0  0
    9.3807  -18.9412   21.7164 N   0  0  0  0  0  0  0  0  0  0  0  0
   10.4605  -19.8538   21.4536 C   0  0  0  0  0  0  0  0  0  0  0  0
   10.7205  -20.6243   22.7397 C   0  0  0  0  0  0  0  0  0  0  0  0
    9.4803  -20.4128   23.5843 C   0  0  0  0  0  0  0  0  0  0  0  0
    9.0598  -19.0148   23.1057 C   0  0  1  0  0  0  0  0  0  0  0  0
    9.9102  -18.0817   23.9233 C   0  0  0  0  0  0  0  0  0  0  0  0
   11.0117  -17.7096   23.4476 O   0  0  0  0  0  0  0  0  0  0  0  0
    9.5284  -17.6113   25.1889 N   0  0  0  0  0  0  0  0  0  0  0  0
   10.3587  -16.8053   26.0618 C   0  0  1  0  0  0  0  0  0  0  0  0
   10.0431  -15.3414   25.9503 C   0  0  0  0  0  0  0  0  0  0  0  0
    8.5791  -15.1607   26.1032 C   0  0  0  0  0  0  0  0  0  0  0  0
    7.5718  -16.1324   26.0532 C   0  0  0  0  0  0  0  0  0  0  0  0
    6.3793  -15.5477   26.2307 N   0  0  0  0  0  0  0  0  0  0  0  0
    6.5242  -14.2213   26.3999 C   0  0  0  0  0  0  0  0  0  0  0  0
    5.6476  -13.1764   26.6142 C   0  0  0  0  0  0  0  0  0  0  0  0
    6.0756  -11.8644   26.7578 C   0  0  0  0  0  0  0  0  0  0  0  0
    7.4313  -11.6218   26.6797 C   0  0  0  0  0  0  0  0  0  0  0  0
    8.3118  -12.6703   26.4647 C   0  0  0  0  0  0  0  0  0  0  0  0
    7.8801  -13.9786   26.3219 C   0  0  0  0  0  0  0  0  0  0  0  0
   10.1770  -17.2293   27.4730 C   0  0  0  0  0  0  0  0  0  0  0  0
   10.8608  -16.7676   28.4149 O   0  0  0  0  0  0  0  0  0  0  0  0
    9.1967  -18.1925   27.7852 O   0  0  0  0  0  0  0  0  0  0  0  0
  2  1  1  6
  2  3  1  0
  3  4  1  0
  4  5  2  0
  4  9  1  0
  5  6  1  0
  6  7  2  0
  8  7  1  0
  9  8  2  0
 10 12  1  0
 10  2  1  0
 11 10  2  0
 12 16  1  0
 13 12  1  0
 13 14  1  0
 14 15  1  0
 16 15  1  0
 17 19  1  0
 16 17  1  1
 18 17  2  0
 20 21  1  1
 20 19  1  0
 22 21  1  0
 22 30  1  0
 23 24  1  0
 23 22  2  0
 24 25  1  0
 25 30  2  0
 25 26  1  0
 26 27  2  0
 27 28  1  0
 29 28  2  0
 30 29  1  0
 31 20  1  0
 31 33  1  0
 32 31  2  0
M  END
$$$$
