FPW.pdb
     RDKit          3D

 33 36  0  0  1  0  0  0  0  0999 V2000
    5.7518  -18.3223   19.5665 N   0  0  0  0  0  0  0  0  0  0  0  0
    6.1350  -17.7725   20.8550 C   0  0  1  0  0  0  0  0  0  0  0  0
    6.0474  -18.9383   21.8343 C   0  0  0  0  0  0  0  0  0  0  0  0
    6.4826  -18.4954   23.1720 C   0  0  0  0  0  0  0  0  0  0  0  0
    6.2178  -17.2145   23.5993 C   0  0  0  0  0  0  0  0  0  0  0  0
    6.6332  -16.8035   24.8609 C   0  0  0  0  0  0  0  0  0  0  0  0
    7.3071  -17.6409   25.7068 C   0  0  0  0  0  0  0  0  0  0  0  0
    7.5801  -18.9285   25.2928 C   0  0  0  0  0  0  0  0  0  0  0  0
    7.1544  -19.3240   24.0207 C   0  0  0  0  0  0  0  0  0  0  0  0
    7.4866  -17.1788   20.7914 C   0  0  0  0  0  0  0  0  0  0  0  0
    8.4301  -17.9974   20.5429 O   0  0  0  0  0  0  0  0  0  0  0  0
    7.7324  -15.7999   20.9901 N   0  0  0  0  0  0  0  0  0  0  0  0
    6.8028  -14.8128   21.4690 C   0  0  0  0  0  0  0  0  0  0  0  0
    7.4920  -13.4601   21.3673 C   0  0  0  0  0  0  0  0  0  0  0  0
    8.6594  -13.6814   20.4270 C   0  0  0  0  0  0  0  0  0  0  0  0
    8.9786  -15.1532   20.7306 C   0  0  1  0  0  0  0  0  0  0  0  0
    9.8397  -15.0900   21.9623 C   0  0  0  0  0  0  0  0  0  0  0  0
   10.6986  -14.1768   22.0415 O   0  0  0  0  0  0  0  0  0  0  0  0
    9.7258  -16.0030   23.0216 N   0  0  0  0  0  0  0  0  0  0  0  0
   10.4861  -15.9454   24.2544 C   0  0  1  0  0  0  0  0  0  0  0  0
   10.2503  -14.6669   25.0058 C   0  0  0  0  0  0  0  0  0  0  0  0
    8.8199  -14.6027   25.3920 C   0  0  0  0  0  0  0  0  0  0  0  0
    7.8986  -15.6521   25.4976 C   0  0  0  0  0  0  0  0  0  0  0  0
    6.7069  -15.1633   25.8672 N   0  0  0  0  0  0  0  0  0  0  0  0
    6.7706  -13.8285   26.0194 C   0  0  0  0  0  0  0  0  0  0  0  0
    5.8589  -12.8556   26.3776 C   0  0  0  0  0  0  0  0  0  0  0  0
    6.1981  -11.5126   26.4591 C   0  0  0  0  0  0  0  0  0  0  0  0
    7.5001  -11.1631   26.1667 C   0  0  0  0  0  0  0  0  0  0  0  0
    8.4158  -12.1393   25.8071 C   0  0  0  0  0  0  0  0  0  0  0  0
    8.0728  -13.4788   25.7270 C   0  0  0  0  0  0  0  0  0  0  0  0
   10.1263  -17.0897   25.1294 C   0  0  0  0  0  0  0  0  0  0  0  0
    9.1058  -17.7915   24.9452 O   0  0  0  0  0  0  0  0  0  0  0  0
   10.9578  -17.4150   26.2197 O   0  0  0  0  0  0  0  0  0  0  0  0
  2  1  1  6
  2  3  1  0
  3  4  1  0
  4  5  2  0
  4  9  1  0
  5  6  1  0
  6  7  2  0
  8  7  1  0
  9  8  2  0
 10 12  1  0
 10  2  1  0
 11 10  2  0
 12 16  1  0
 13 12  1  0
 13 14  1  0
 14 15  1  0
 16 15  1  0
 17 19  1  0
 16 17  1  1
 18 17  2  0
 20 21  1  1
 20 19  1  0
 22 21  1  0
 22 30  1  0
 23 24  1  0
 23 22  2  0
 24 25  1  0
 25 30  2  0
 25 26  1  0
 26 27  2  0
 27 28  1  0
 29 28  2  0
 30 29  1  0
 31 20  1  0
 31 33  1  0
 32 31  2  0
M  END
$$$$
