SLV.pdb
     RDKit          3D

 22 21  0  0  1  0  0  0  0  0999 V2000
    7.7615  -17.4096   21.2283 O   0  0  0  0  0  0  0  0  0  0  0  0
    6.6843  -16.5455   21.1009 C   0  0  0  0  0  0  0  0  0  0  0  0
    7.2117  -15.1275   21.1943 C   0  0  2  0  0  0  0  0  0  0  0  0
    7.9594  -14.7921   20.0205 N   0  0  0  0  0  0  0  0  0  0  0  0
    8.0552  -14.9471   22.4125 C   0  0  0  0  0  0  0  0  0  0  0  0
    9.3049  -14.9211   22.3487 O   0  0  0  0  0  0  0  0  0  0  0  0
    8.0711  -11.8230   25.8975 C   0  0  0  0  0  0  0  0  0  0  0  0
    6.7946  -12.6757   25.7047 C   0  0  2  0  0  0  0  0  0  0  0  0
    5.8160  -12.1636   26.7032 C   0  0  0  0  0  0  0  0  0  0  0  0
    7.2279  -14.0775   25.8869 C   0  0  0  0  0  0  0  0  0  0  0  0
    8.2143  -14.6416   24.9284 C   0  0  2  0  0  0  0  0  0  0  0  0
    7.4452  -14.8020   23.6666 N   0  0  0  0  0  0  0  0  0  0  0  0
    8.6787  -15.9597   25.3497 C   0  0  0  0  0  0  0  0  0  0  0  0
    7.8290  -16.9194   25.4596 O   0  0  0  0  0  0  0  0  0  0  0  0
   11.0301  -18.2802   23.6959 C   0  0  0  0  0  0  0  0  0  0  0  0
   11.5049  -18.2088   25.1104 C   0  0  1  0  0  0  0  0  0  0  0  0
   12.7728  -17.4550   25.3069 C   0  0  0  0  0  0  0  0  0  0  0  0
   10.3714  -17.7098   25.9793 C   0  0  2  0  0  0  0  0  0  0  0  0
   10.0092  -16.3449   25.6662 N   0  0  0  0  0  0  0  0  0  0  0  0
   10.6710  -17.8186   27.4081 C   0  0  0  0  0  0  0  0  0  0  0  0
   10.6493  -16.7523   28.1045 O   0  0  0  0  0  0  0  0  0  0  0  0
   10.9728  -19.0134   28.0285 O   0  0  0  0  0  0  0  0  0  0  0  0
  2  3  1  0
  2  1  1  0
  3  4  1  6
  5  3  1  0
  6  5  2  0
  8  7  1  1
  8 10  1  0
  9  8  1  0
 11 10  1  1
 11 13  1  0
 11 12  1  0
 12  5  1  0
 13 19  1  0
 14 13  2  0
 16 17  1  6
 16 15  1  0
 18 16  1  0
 18 20  1  0
 18 19  1  6
 20 21  2  0
 20 22  1  0
M  END
$$$$
