SLV.pdb
     RDKit          3D

 22 21  0  0  1  0  0  0  0  0999 V2000
    8.5128  -17.6750   21.5368 O   0  0  0  0  0  0  0  0  0  0  0  0
    7.4561  -16.7927   21.3698 C   0  0  0  0  0  0  0  0  0  0  0  0
    8.0093  -15.3836   21.4496 C   0  0  2  0  0  0  0  0  0  0  0  0
    8.9398  -15.1492   20.3872 N   0  0  0  0  0  0  0  0  0  0  0  0
    8.6603  -15.1360   22.7698 C   0  0  0  0  0  0  0  0  0  0  0  0
    9.9044  -15.1606   22.9041 O   0  0  0  0  0  0  0  0  0  0  0  0
    8.0776  -11.7204   26.0320 C   0  0  0  0  0  0  0  0  0  0  0  0
    6.8825  -12.6305   25.6616 C   0  0  2  0  0  0  0  0  0  0  0  0
    5.7229  -12.1024   26.4320 C   0  0  0  0  0  0  0  0  0  0  0  0
    7.3133  -14.0027   26.0044 C   0  0  0  0  0  0  0  0  0  0  0  0
    8.4414  -14.5995   25.2422 C   0  0  2  0  0  0  0  0  0  0  0  0
    7.8699  -14.8677   23.8964 N   0  0  0  0  0  0  0  0  0  0  0  0
    8.8655  -15.8714   25.8190 C   0  0  0  0  0  0  0  0  0  0  0  0
    8.0482  -16.8650   25.8182 O   0  0  0  0  0  0  0  0  0  0  0  0
   11.3562  -18.2966   24.7255 C   0  0  0  0  0  0  0  0  0  0  0  0
   11.6964  -18.0418   26.1576 C   0  0  1  0  0  0  0  0  0  0  0  0
   12.9104  -17.2084   26.3728 C   0  0  0  0  0  0  0  0  0  0  0  0
   10.4694  -17.5044   26.8607 C   0  0  2  0  0  0  0  0  0  0  0  0
   10.1229  -16.1756   26.4063 N   0  0  0  0  0  0  0  0  0  0  0  0
   10.6162  -17.4981   28.3173 C   0  0  0  0  0  0  0  0  0  0  0  0
   10.5493  -16.3771   28.9182 O   0  0  0  0  0  0  0  0  0  0  0  0
   10.8214  -18.6416   29.0614 O   0  0  0  0  0  0  0  0  0  0  0  0
  2  3  1  0
  2  1  1  0
  3  4  1  6
  5  3  1  0
  6  5  2  0
  8  7  1  1
  8 10  1  0
  9  8  1  0
 11 10  1  1
 11 13  1  0
 11 12  1  0
 12  5  1  0
 13 19  1  0
 14 13  2  0
 16 17  1  6
 16 15  1  0
 18 16  1  0
 18 20  1  0
 18 19  1  6
 20 21  2  0
 20 22  1  0
M  END
$$$$
