SLV.pdb
     RDKit          3D

 22 21  0  0  1  0  0  0  0  0999 V2000
    7.2823  -17.3321   20.8133 O   0  0  0  0  0  0  0  0  0  0  0  0
    6.2419  -16.4191   20.7290 C   0  0  0  0  0  0  0  0  0  0  0  0
    6.8465  -15.0381   20.5704 C   0  0  2  0  0  0  0  0  0  0  0  0
    7.6359  -14.9701   19.3781 N   0  0  0  0  0  0  0  0  0  0  0  0
    7.6736  -14.6740   21.7584 C   0  0  0  0  0  0  0  0  0  0  0  0
    8.9244  -14.6948   21.7198 O   0  0  0  0  0  0  0  0  0  0  0  0
    5.9592  -12.3131   27.0889 C   0  0  0  0  0  0  0  0  0  0  0  0
    7.2263  -12.9061   26.4284 C   0  0  2  0  0  0  0  0  0  0  0  0
    8.2526  -11.8292   26.4919 C   0  0  0  0  0  0  0  0  0  0  0  0
    6.8060  -13.3170   25.0718 C   0  0  0  0  0  0  0  0  0  0  0  0
    7.7940  -14.0149   24.2078 C   0  0  2  0  0  0  0  0  0  0  0  0
    7.0463  -14.2973   22.9545 N   0  0  0  0  0  0  0  0  0  0  0  0
    8.2089  -15.2885   24.7878 C   0  0  0  0  0  0  0  0  0  0  0  0
    7.3168  -16.1736   25.0630 O   0  0  0  0  0  0  0  0  0  0  0  0
   10.4404  -17.7844   23.2563 C   0  0  0  0  0  0  0  0  0  0  0  0
   10.9373  -17.6657   24.6600 C   0  0  1  0  0  0  0  0  0  0  0  0
   12.2500  -16.9793   24.8025 C   0  0  0  0  0  0  0  0  0  0  0  0
    9.8468  -17.0541   25.5118 C   0  0  2  0  0  0  0  0  0  0  0  0
    9.5312  -15.7038   25.1004 N   0  0  0  0  0  0  0  0  0  0  0  0
   10.1779  -17.0640   26.9378 C   0  0  0  0  0  0  0  0  0  0  0  0
   10.3343  -18.1935   27.5055 O   0  0  0  0  0  0  0  0  0  0  0  0
   10.3272  -15.9154   27.6874 O   0  0  0  0  0  0  0  0  0  0  0  0
  2  3  1  0
  2  1  1  0
  3  4  1  6
  5  3  1  0
  6  5  2  0
  8  7  1  1
  8 10  1  0
  9  8  1  0
 11 10  1  1
 11 13  1  0
 11 12  1  0
 12  5  1  0
 13 19  1  0
 14 13  2  0
 16 17  1  6
 16 15  1  0
 18 16  1  0
 18 20  1  0
 18 19  1  6
 20 21  2  0
 20 22  1  0
M  END
$$$$
