SLV.pdb
     RDKit          3D

 22 21  0  0  1  0  0  0  0  0999 V2000
   10.0699  -19.9602   18.5780 O   0  0  0  0  0  0  0  0  0  0  0  0
    8.9180  -19.4067   18.0396 C   0  0  0  0  0  0  0  0  0  0  0  0
    9.2871  -18.0714   17.4243 C   0  0  2  0  0  0  0  0  0  0  0  0
   10.2156  -18.2538   16.3499 N   0  0  0  0  0  0  0  0  0  0  0  0
    9.8577  -17.1474   18.4481 C   0  0  0  0  0  0  0  0  0  0  0  0
   11.0909  -16.9588   18.5490 O   0  0  0  0  0  0  0  0  0  0  0  0
    8.5314  -12.8359   19.4568 C   0  0  0  0  0  0  0  0  0  0  0  0
    7.5475  -13.9705   19.8285 C   0  0  2  0  0  0  0  0  0  0  0  0
    6.3214  -13.2898   20.3288 C   0  0  0  0  0  0  0  0  0  0  0  0
    8.2672  -14.8075   20.8121 C   0  0  0  0  0  0  0  0  0  0  0  0
    9.4906  -15.5252   20.3671 C   0  0  2  0  0  0  0  0  0  0  0  0
    9.0019  -16.4667   19.3258 N   0  0  0  0  0  0  0  0  0  0  0  0
   10.0773  -16.3082   21.4503 C   0  0  0  0  0  0  0  0  0  0  0  0
    9.5129  -17.4077   21.8075 O   0  0  0  0  0  0  0  0  0  0  0  0
   13.8422  -17.7993   24.2132 C   0  0  0  0  0  0  0  0  0  0  0  0
   13.3318  -16.8899   23.1438 C   0  0  1  0  0  0  0  0  0  0  0  0
   13.9157  -17.1217   21.7948 C   0  0  0  0  0  0  0  0  0  0  0  0
   11.8194  -16.9264   23.1554 C   0  0  2  0  0  0  0  0  0  0  0  0
   11.2479  -16.0063   22.1967 N   0  0  0  0  0  0  0  0  0  0  0  0
   11.2626  -16.6558   24.4820 C   0  0  0  0  0  0  0  0  0  0  0  0
   10.6662  -15.5449   24.6627 O   0  0  0  0  0  0  0  0  0  0  0  0
   11.3538  -17.5421   25.5354 O   0  0  0  0  0  0  0  0  0  0  0  0
  2  3  1  0
  2  1  1  0
  3  4  1  6
  5  3  1  0
  6  5  2  0
  8  7  1  1
  8 10  1  0
  9  8  1  0
 11 10  1  1
 11 13  1  0
 11 12  1  0
 12  5  1  0
 13 19  1  0
 14 13  2  0
 16 17  1  6
 16 15  1  0
 18 16  1  0
 18 20  1  0
 18 19  1  6
 20 21  2  0
 20 22  1  0
M  END
$$$$
