SLV.pdb
     RDKit          3D

 22 21  0  0  1  0  0  0  0  0999 V2000
    7.8751  -13.3960   20.0356 O   0  0  0  0  0  0  0  0  0  0  0  0
    8.4131  -14.6695   19.9261 C   0  0  0  0  0  0  0  0  0  0  0  0
    7.8057  -15.5266   21.0189 C   0  0  2  0  0  0  0  0  0  0  0  0
    6.3950  -15.2997   21.1085 N   0  0  0  0  0  0  0  0  0  0  0  0
    8.4560  -15.2593   22.3355 C   0  0  0  0  0  0  0  0  0  0  0  0
    9.7008  -15.2070   22.4552 O   0  0  0  0  0  0  0  0  0  0  0  0
    8.0791  -12.0298   25.9879 C   0  0  0  0  0  0  0  0  0  0  0  0
    6.8471  -12.7574   25.3995 C   0  0  2  0  0  0  0  0  0  0  0  0
    5.6720  -12.2148   26.1356 C   0  0  0  0  0  0  0  0  0  0  0  0
    7.1160  -14.1991   25.5873 C   0  0  0  0  0  0  0  0  0  0  0  0
    8.2350  -14.8134   24.8256 C   0  0  2  0  0  0  0  0  0  0  0  0
    7.6643  -15.0597   23.4754 N   0  0  0  0  0  0  0  0  0  0  0  0
    8.6300  -16.0982   25.3948 C   0  0  0  0  0  0  0  0  0  0  0  0
    7.7488  -17.0271   25.5200 O   0  0  0  0  0  0  0  0  0  0  0  0
   10.8409  -18.4874   23.9593 C   0  0  0  0  0  0  0  0  0  0  0  0
   11.3268  -18.4346   25.3709 C   0  0  1  0  0  0  0  0  0  0  0  0
   12.6509  -17.7801   25.5520 C   0  0  0  0  0  0  0  0  0  0  0  0
   10.2403  -17.8365   26.2372 C   0  0  2  0  0  0  0  0  0  0  0  0
    9.9214  -16.4806   25.8472 N   0  0  0  0  0  0  0  0  0  0  0  0
   10.5788  -17.8669   27.6611 C   0  0  0  0  0  0  0  0  0  0  0  0
   10.6942  -16.7542   28.2701 O   0  0  0  0  0  0  0  0  0  0  0  0
   10.7764  -19.0360   28.3665 O   0  0  0  0  0  0  0  0  0  0  0  0
  2  3  1  0
  2  1  1  0
  3  4  1  1
  5  3  1  0
  6  5  2  0
  8  7  1  1
  8 10  1  0
  9  8  1  0
 11 10  1  1
 11 13  1  0
 11 12  1  0
 12  5  1  0
 13 19  1  0
 14 13  2  0
 16 17  1  6
 16 15  1  0
 18 16  1  0
 18 20  1  0
 18 19  1  6
 20 21  2  0
 20 22  1  0
M  END
$$$$
