SLV.pdb
     RDKit          3D

 22 21  0  0  1  0  0  0  0  0999 V2000
    8.9397  -18.1330   21.4574 O   0  0  0  0  0  0  0  0  0  0  0  0
    7.9077  -17.3318   20.9925 C   0  0  0  0  0  0  0  0  0  0  0  0
    8.4321  -15.9137   20.8842 C   0  0  2  0  0  0  0  0  0  0  0  0
    9.4718  -15.8370   19.9031 N   0  0  0  0  0  0  0  0  0  0  0  0
    8.9299  -15.4228   22.2030 C   0  0  0  0  0  0  0  0  0  0  0  0
   10.1494  -15.4172   22.4846 O   0  0  0  0  0  0  0  0  0  0  0  0
    5.9198  -12.5522   26.6311 C   0  0  0  0  0  0  0  0  0  0  0  0
    7.3063  -13.1950   26.3906 C   0  0  2  0  0  0  0  0  0  0  0  0
    8.2956  -12.1001   26.5897 C   0  0  0  0  0  0  0  0  0  0  0  0
    7.2428  -13.7669   25.0287 C   0  0  0  0  0  0  0  0  0  0  0  0
    8.4286  -14.5023   24.5160 C   0  0  2  0  0  0  0  0  0  0  0  0
    8.0191  -14.9531   23.1600 N   0  0  0  0  0  0  0  0  0  0  0  0
    8.7163  -15.6849   25.3218 C   0  0  0  0  0  0  0  0  0  0  0  0
    7.8181  -16.5984   25.4394 O   0  0  0  0  0  0  0  0  0  0  0  0
   10.9097  -18.4166   24.7049 C   0  0  0  0  0  0  0  0  0  0  0  0
   11.2816  -18.0157   26.0950 C   0  0  1  0  0  0  0  0  0  0  0  0
   12.5915  -17.3199   26.2156 C   0  0  0  0  0  0  0  0  0  0  0  0
   10.1335  -17.2387   26.7007 C   0  0  2  0  0  0  0  0  0  0  0  0
    9.9156  -15.9787   26.0246 N   0  0  0  0  0  0  0  0  0  0  0  0
   10.3141  -16.9978   28.1333 C   0  0  0  0  0  0  0  0  0  0  0  0
   10.3856  -15.7896   28.5301 O   0  0  0  0  0  0  0  0  0  0  0  0
   10.4091  -18.0115   29.0644 O   0  0  0  0  0  0  0  0  0  0  0  0
  2  3  1  0
  2  1  1  0
  3  4  1  6
  5  3  1  0
  6  5  2  0
  8  7  1  6
  8 10  1  0
  9  8  1  0
 11 10  1  1
 11 13  1  0
 11 12  1  0
 12  5  1  0
 13 19  1  0
 14 13  2  0
 16 17  1  6
 16 15  1  0
 18 16  1  0
 18 20  1  0
 18 19  1  6
 20 21  2  0
 20 22  1  0
M  END
$$$$
