FSV.pdb
     RDKit          3D

 25 25  0  0  1  0  0  0  0  0999 V2000
   19.0841  -13.4570  -16.9641 N   0  0  0  0  0  0  0  0  0  0  0  0
   19.7153  -12.3099  -17.5533 C   0  0  1  0  0  0  0  0  0  0  0  0
   19.0816  -12.0571  -18.9036 C   0  0  0  0  0  0  0  0  0  0  0  0
   19.4704  -13.1633  -19.7995 C   0  0  0  0  0  0  0  0  0  0  0  0
   18.5526  -14.1295  -20.1121 C   0  0  0  0  0  0  0  0  0  0  0  0
   18.8831  -15.1807  -20.9489 C   0  0  0  0  0  0  0  0  0  0  0  0
   20.1716  -15.2359  -21.4680 C   0  0  0  0  0  0  0  0  0  0  0  0
   21.0935  -14.2685  -21.1562 C   0  0  0  0  0  0  0  0  0  0  0  0
   20.7286  -13.2334  -20.3174 C   0  0  0  0  0  0  0  0  0  0  0  0
   19.5130  -11.0881  -16.7405 C   0  0  0  0  0  0  0  0  0  0  0  0
   18.4622  -10.9197  -16.0843 O   0  0  0  0  0  0  0  0  0  0  0  0
   22.5779   -8.7814  -15.2602 O   0  0  0  0  0  0  0  0  0  0  0  0
   21.2774   -8.6632  -14.7925 C   0  0  0  0  0  0  0  0  0  0  0  0
   20.2620   -8.9164  -15.8597 C   0  0  2  0  0  0  0  0  0  0  0  0
   20.4778  -10.0600  -16.6606 N   0  0  0  0  0  0  0  0  0  0  0  0
   20.2308   -7.7232  -16.7674 C   0  0  0  0  0  0  0  0  0  0  0  0
   20.9182   -7.6784  -17.8202 O   0  0  0  0  0  0  0  0  0  0  0  0
   17.4521   -6.3942  -18.5974 C   0  0  0  0  0  0  0  0  0  0  0  0
   17.9594   -5.2457  -17.7977 C   0  0  2  0  0  0  0  0  0  0  0  0
   17.8072   -3.9148  -18.4890 C   0  0  0  0  0  0  0  0  0  0  0  0
   19.4126   -5.4286  -17.3683 C   0  0  2  0  0  0  0  0  0  0  0  0
   19.4247   -6.5829  -16.4867 N   0  0  0  0  0  0  0  0  0  0  0  0
   19.9514   -4.2229  -16.7138 C   0  0  0  0  0  0  0  0  0  0  0  0
   20.7038   -3.3482  -17.4611 O   0  0  0  0  0  0  0  0  0  0  0  0
   19.7372   -3.9898  -15.5110 O   0  0  0  0  0  0  0  0  0  0  0  0
  2  1  1  1
  2 10  1  0
  3  2  1  0
  4  3  1  0
  5  4  2  0
  6  5  1  0
  7  6  2  0
  7  8  1  0
  8  9  2  0
  9  4  1  0
 10 11  2  0
 12 13  1  0
 14 13  1  1
 15 10  1  0
 15 14  1  0
 16 14  1  0
 16 17  2  0
 19 18  1  6
 19 21  1  0
 20 19  1  0
 21 22  1  1
 22 16  1  0
 23 21  1  0
 23 24  1  0
 25 23  2  0
M  END
$$$$
