FSV.pdb
     RDKit          3D

 25 25  0  0  1  0  0  0  0  0999 V2000
   29.1691  -27.0488  -16.2591 N   0  0  0  0  0  0  0  0  0  0  0  0
   28.1891  -26.4214  -17.1001 C   0  0  1  0  0  0  0  0  0  0  0  0
   27.0341  -27.3808  -17.2851 C   0  0  0  0  0  0  0  0  0  0  0  0
   27.4337  -28.3800  -18.2947 C   0  0  0  0  0  0  0  0  0  0  0  0
   27.6528  -27.9808  -19.5856 C   0  0  0  0  0  0  0  0  0  0  0  0
   28.0286  -28.8909  -20.5577 C   0  0  0  0  0  0  0  0  0  0  0  0
   28.1798  -30.2245  -20.1953 C   0  0  0  0  0  0  0  0  0  0  0  0
   27.9608  -30.6272  -18.9019 C   0  0  0  0  0  0  0  0  0  0  0  0
   27.5867  -29.6912  -17.9575 C   0  0  0  0  0  0  0  0  0  0  0  0
   27.6399  -25.1899  -16.4868 C   0  0  0  0  0  0  0  0  0  0  0  0
   27.8795  -24.9048  -15.2933 O   0  0  0  0  0  0  0  0  0  0  0  0
   26.7870  -21.8349  -18.6653 O   0  0  0  0  0  0  0  0  0  0  0  0
   26.9702  -21.8219  -17.2904 C   0  0  0  0  0  0  0  0  0  0  0  0
   26.4326  -23.0511  -16.6315 C   0  0  2  0  0  0  0  0  0  0  0  0
   26.8278  -24.2820  -17.2012 N   0  0  0  0  0  0  0  0  0  0  0  0
   24.9350  -22.9880  -16.6758 C   0  0  0  0  0  0  0  0  0  0  0  0
   24.2733  -23.6390  -17.5250 O   0  0  0  0  0  0  0  0  0  0  0  0
   22.7307  -20.3314  -14.0776 C   0  0  0  0  0  0  0  0  0  0  0  0
   22.2777  -21.7046  -14.4309 C   0  0  2  0  0  0  0  0  0  0  0  0
   22.6871  -22.7522  -13.4273 C   0  0  0  0  0  0  0  0  0  0  0  0
   22.7363  -22.1318  -15.8226 C   0  0  2  0  0  0  0  0  0  0  0  0
   24.1864  -22.1913  -15.7628 N   0  0  0  0  0  0  0  0  0  0  0  0
   22.2600  -21.2092  -16.8688 C   0  0  0  0  0  0  0  0  0  0  0  0
   21.0023  -21.3977  -17.3904 O   0  0  0  0  0  0  0  0  0  0  0  0
   22.9713  -20.2754  -17.2800 O   0  0  0  0  0  0  0  0  0  0  0  0
  2  1  1  1
  2 10  1  0
  3  2  1  0
  4  3  1  0
  5  4  2  0
  6  5  1  0
  7  6  2  0
  7  8  1  0
  8  9  2  0
  9  4  1  0
 10 11  2  0
 12 13  1  0
 14 13  1  6
 15 10  1  0
 15 14  1  0
 16 14  1  0
 16 17  2  0
 19 18  1  1
 19 21  1  0
 20 19  1  0
 21 22  1  1
 22 16  1  0
 23 21  1  0
 23 24  1  0
 25 23  2  0
M  END
$$$$
