FSV.pdb
     RDKit          3D

 25 25  0  0  1  0  0  0  0  0999 V2000
   25.9702  -18.7519   -7.6892 N   0  0  0  0  0  0  0  0  0  0  0  0
   26.9672  -19.4801   -8.4222 C   0  0  1  0  0  0  0  0  0  0  0  0
   27.2592  -20.7668   -7.6820 C   0  0  0  0  0  0  0  0  0  0  0  0
   27.9921  -20.4222   -6.4485 C   0  0  0  0  0  0  0  0  0  0  0  0
   29.3005  -20.0287   -6.5317 C   0  0  0  0  0  0  0  0  0  0  0  0
   30.0178  -19.6983   -5.3955 C   0  0  0  0  0  0  0  0  0  0  0  0
   29.3800  -19.7746   -4.1626 C   0  0  0  0  0  0  0  0  0  0  0  0
   28.0685  -20.1688   -4.0765 C   0  0  0  0  0  0  0  0  0  0  0  0
   27.3832  -20.4912   -5.2317 C   0  0  0  0  0  0  0  0  0  0  0  0
   26.4968  -19.8526   -9.7765 C   0  0  0  0  0  0  0  0  0  0  0  0
   25.3231  -19.6163  -10.1365 O   0  0  0  0  0  0  0  0  0  0  0  0
   28.7217  -22.0725  -12.5742 O   0  0  0  0  0  0  0  0  0  0  0  0
   28.1242  -20.9031  -13.0210 C   0  0  0  0  0  0  0  0  0  0  0  0
   27.0419  -20.4295  -12.1053 C   0  0  2  0  0  0  0  0  0  0  0  0
   27.3316  -20.4853  -10.7237 N   0  0  0  0  0  0  0  0  0  0  0  0
   25.8228  -21.2677  -12.3500 C   0  0  0  0  0  0  0  0  0  0  0  0
   25.6492  -22.3654  -11.7602 O   0  0  0  0  0  0  0  0  0  0  0  0
   22.2411  -19.9887  -12.4285 C   0  0  0  0  0  0  0  0  0  0  0  0
   22.4595  -20.7945  -13.6610 C   0  0  2  0  0  0  0  0  0  0  0  0
   21.2523  -21.5929  -14.0819 C   0  0  0  0  0  0  0  0  0  0  0  0
   23.6648  -21.7238  -13.5460 C   0  0  2  0  0  0  0  0  0  0  0  0
   24.8020  -20.8670  -13.2590 N   0  0  0  0  0  0  0  0  0  0  0  0
   23.8649  -22.5231  -14.7682 C   0  0  0  0  0  0  0  0  0  0  0  0
   23.3492  -23.7965  -14.8142 O   0  0  0  0  0  0  0  0  0  0  0  0
   24.4856  -22.0668  -15.7446 O   0  0  0  0  0  0  0  0  0  0  0  0
  2  1  1  1
  2 10  1  0
  3  2  1  0
  4  3  1  0
  5  4  2  0
  6  5  1  0
  7  6  2  0
  7  8  1  0
  8  9  2  0
  9  4  1  0
 10 11  2  0
 12 13  1  0
 14 13  1  6
 15 10  1  0
 15 14  1  0
 16 14  1  0
 16 17  2  0
 19 18  1  1
 19 21  1  0
 20 19  1  0
 21 22  1  6
 22 16  1  0
 23 21  1  0
 23 24  1  0
 25 23  2  0
M  END
$$$$
