FSV.pdb
     RDKit          3D

 25 25  0  0  1  0  0  0  0  0999 V2000
   14.3145  -19.2047    3.0062 N   0  0  0  0  0  0  0  0  0  0  0  0
   15.6244  -19.0089    3.5604 C   0  0  1  0  0  0  0  0  0  0  0  0
   16.6240  -18.9819    2.4251 C   0  0  0  0  0  0  0  0  0  0  0  0
   16.7148  -20.3462    1.8702 C   0  0  0  0  0  0  0  0  0  0  0  0
   17.2355  -21.3515    2.6396 C   0  0  0  0  0  0  0  0  0  0  0  0
   17.3355  -22.6422    2.1513 C   0  0  0  0  0  0  0  0  0  0  0  0
   16.8945  -22.8984    0.8580 C   0  0  0  0  0  0  0  0  0  0  0  0
   16.3721  -21.8925    0.0847 C   0  0  0  0  0  0  0  0  0  0  0  0
   16.2875  -20.6156    0.6049 C   0  0  0  0  0  0  0  0  0  0  0  0
   15.7368  -17.7145    4.2719 C   0  0  0  0  0  0  0  0  0  0  0  0
   15.0064  -16.7474    3.9652 O   0  0  0  0  0  0  0  0  0  0  0  0
   17.1143  -17.4706    8.1466 O   0  0  0  0  0  0  0  0  0  0  0  0
   16.3051  -16.5140    7.5516 C   0  0  0  0  0  0  0  0  0  0  0  0
   16.6164  -16.3251    6.1019 C   0  0  2  0  0  0  0  0  0  0  0  0
   16.6591  -17.5008    5.3197 N   0  0  0  0  0  0  0  0  0  0  0  0
   17.9547  -15.6570    5.9946 C   0  0  0  0  0  0  0  0  0  0  0  0
   18.9932  -16.3057    5.7056 O   0  0  0  0  0  0  0  0  0  0  0  0
   18.4022  -11.4124    5.6912 C   0  0  0  0  0  0  0  0  0  0  0  0
   19.3356  -12.4726    5.2215 C   0  0  2  0  0  0  0  0  0  0  0  0
   19.0090  -12.9987    3.8472 C   0  0  0  0  0  0  0  0  0  0  0  0
   19.4336  -13.6405    6.1993 C   0  0  2  0  0  0  0  0  0  0  0  0
   18.1195  -14.2592    6.2131 N   0  0  0  0  0  0  0  0  0  0  0  0
   19.8568  -13.2033    7.5418 C   0  0  0  0  0  0  0  0  0  0  0  0
   21.1575  -12.7970    7.7225 O   0  0  0  0  0  0  0  0  0  0  0  0
   19.0635  -13.1973    8.4997 O   0  0  0  0  0  0  0  0  0  0  0  0
  2  1  1  6
  2 10  1  0
  3  2  1  0
  4  3  1  0
  5  4  2  0
  6  5  1  0
  7  6  2  0
  7  8  1  0
  8  9  2  0
  9  4  1  0
 10 11  2  0
 12 13  1  0
 14 13  1  1
 15 10  1  0
 15 14  1  0
 16 14  1  0
 16 17  2  0
 19 18  1  1
 19 21  1  0
 20 19  1  0
 21 22  1  1
 22 16  1  0
 23 21  1  0
 23 24  1  0
 25 23  2  0
M  END
$$$$
