FSV.pdb
     RDKit          3D

 25 25  0  0  1  0  0  0  0  0999 V2000
   21.9489  -20.7232  -16.7708 N   0  0  0  0  0  0  0  0  0  0  0  0
   22.8512  -19.6995  -16.3245 C   0  0  1  0  0  0  0  0  0  0  0  0
   22.0960  -18.7654  -15.4046 C   0  0  0  0  0  0  0  0  0  0  0  0
   21.2286  -17.9123  -16.2396 C   0  0  0  0  0  0  0  0  0  0  0  0
   21.7933  -16.9416  -17.0224 C   0  0  0  0  0  0  0  0  0  0  0  0
   21.0101  -16.1239  -17.8176 C   0  0  0  0  0  0  0  0  0  0  0  0
   19.6323  -16.3089  -17.8054 C   0  0  0  0  0  0  0  0  0  0  0  0
   19.0638  -17.2811  -17.0216 C   0  0  0  0  0  0  0  0  0  0  0  0
   19.8765  -18.0793  -16.2402 C   0  0  0  0  0  0  0  0  0  0  0  0
   23.9817  -20.2581  -15.5472 C   0  0  0  0  0  0  0  0  0  0  0  0
   23.8452  -21.3042  -14.8764 O   0  0  0  0  0  0  0  0  0  0  0  0
   27.7667  -18.3335  -15.0233 O   0  0  0  0  0  0  0  0  0  0  0  0
   27.6904  -19.7148  -15.1243 C   0  0  0  0  0  0  0  0  0  0  0  0
   26.3267  -20.2358  -14.8034 C   0  0  2  0  0  0  0  0  0  0  0  0
   25.2572  -19.6527  -15.5189 N   0  0  0  0  0  0  0  0  0  0  0  0
   26.0733  -20.0130  -13.3423 C   0  0  0  0  0  0  0  0  0  0  0  0
   25.1061  -19.3159  -12.9405 O   0  0  0  0  0  0  0  0  0  0  0  0
   24.2070  -20.8489  -11.6338 C   0  0  0  0  0  0  0  0  0  0  0  0
   25.3071  -21.2799  -10.7284 C   0  0  2  0  0  0  0  0  0  0  0  0
   24.9282  -21.2665   -9.2695 C   0  0  0  0  0  0  0  0  0  0  0  0
   26.5814  -20.4636  -10.9269 C   0  0  2  0  0  0  0  0  0  0  0  0
   26.9106  -20.5764  -12.3371 N   0  0  0  0  0  0  0  0  0  0  0  0
   27.6781  -20.9316  -10.0604 C   0  0  0  0  0  0  0  0  0  0  0  0
   28.4229  -22.0131  -10.4668 O   0  0  0  0  0  0  0  0  0  0  0  0
   27.9347  -20.3687   -8.9814 O   0  0  0  0  0  0  0  0  0  0  0  0
  2  1  1  1
  2 10  1  0
  3  2  1  0
  4  3  1  0
  5  4  2  0
  6  5  1  0
  7  6  2  0
  7  8  1  0
  8  9  2  0
  9  4  1  0
 10 11  2  0
 12 13  1  0
 14 13  1  6
 15 10  1  0
 15 14  1  0
 16 14  1  0
 16 17  2  0
 19 18  1  6
 19 21  1  0
 20 19  1  0
 21 22  1  6
 22 16  1  0
 23 21  1  0
 23 24  1  0
 25 23  2  0
M  END
$$$$
