FSV.pdb
     RDKit          3D

 25 25  0  0  1  0  0  0  0  0999 V2000
   26.3472  -21.4675   -9.6625 N   0  0  0  0  0  0  0  0  0  0  0  0
   25.6488  -21.0918  -10.8593 C   0  0  1  0  0  0  0  0  0  0  0  0
   24.4936  -20.1932  -10.4759 C   0  0  0  0  0  0  0  0  0  0  0  0
   23.2426  -20.9374  -10.7175 C   0  0  0  0  0  0  0  0  0  0  0  0
   22.2553  -20.9185   -9.7695 C   0  0  0  0  0  0  0  0  0  0  0  0
   21.0697  -21.6049   -9.9631 C   0  0  0  0  0  0  0  0  0  0  0  0
   20.9007  -22.3173  -11.1449 C   0  0  0  0  0  0  0  0  0  0  0  0
   21.8888  -22.3379  -12.0968 C   0  0  0  0  0  0  0  0  0  0  0  0
   23.0597  -21.6410  -11.8698 C   0  0  0  0  0  0  0  0  0  0  0  0
   26.5116  -20.3224  -11.7855 C   0  0  0  0  0  0  0  0  0  0  0  0
   27.4152  -19.5756  -11.3508 O   0  0  0  0  0  0  0  0  0  0  0  0
   27.3915  -21.3316  -15.7383 O   0  0  0  0  0  0  0  0  0  0  0  0
   28.1022  -20.4480  -14.9395 C   0  0  0  0  0  0  0  0  0  0  0  0
   27.2131  -19.6462  -14.0446 C   0  0  2  0  0  0  0  0  0  0  0  0
   26.3669  -20.3860  -13.1888 N   0  0  0  0  0  0  0  0  0  0  0  0
   26.3449  -18.7775  -14.9051 C   0  0  0  0  0  0  0  0  0  0  0  0
   25.1209  -19.0212  -15.0636 O   0  0  0  0  0  0  0  0  0  0  0  0
   25.0468  -14.5241  -16.5540 C   0  0  0  0  0  0  0  0  0  0  0  0
   25.9098  -15.4652  -15.7889 C   0  0  2  0  0  0  0  0  0  0  0  0
   27.2929  -14.9309  -15.5175 C   0  0  0  0  0  0  0  0  0  0  0  0
   26.0188  -16.8332  -16.4570 C   0  0  2  0  0  0  0  0  0  0  0  0
   26.8583  -17.6360  -15.5850 N   0  0  0  0  0  0  0  0  0  0  0  0
   26.5647  -16.7392  -17.8229 C   0  0  0  0  0  0  0  0  0  0  0  0
   27.9053  -16.9753  -18.0141 O   0  0  0  0  0  0  0  0  0  0  0  0
   25.8384  -16.4531  -18.7911 O   0  0  0  0  0  0  0  0  0  0  0  0
  2  1  1  1
  2 10  1  0
  3  2  1  0
  4  3  1  0
  5  4  2  0
  6  5  1  0
  7  6  2  0
  7  8  1  0
  8  9  2  0
  9  4  1  0
 10 11  2  0
 12 13  1  0
 14 13  1  6
 15 10  1  0
 15 14  1  0
 16 14  1  0
 16 17  2  0
 19 18  1  6
 19 21  1  0
 20 19  1  0
 21 22  1  1
 22 16  1  0
 23 21  1  0
 23 24  1  0
 25 23  2  0
M  END
$$$$
