FSV.pdb
     RDKit          3D

 25 25  0  0  1  0  0  0  0  0999 V2000
   19.8742  -11.6706  -18.9809 N   0  0  0  0  0  0  0  0  0  0  0  0
   20.5448  -10.4118  -18.8154 C   0  0  1  0  0  0  0  0  0  0  0  0
   20.3875   -9.6155  -20.0921 C   0  0  0  0  0  0  0  0  0  0  0  0
   21.3005  -10.1904  -21.0987 C   0  0  0  0  0  0  0  0  0  0  0  0
   22.5426   -9.6414  -21.2710 C   0  0  0  0  0  0  0  0  0  0  0  0
   23.4241  -10.1550  -22.2056 C   0  0  0  0  0  0  0  0  0  0  0  0
   23.0211  -11.2446  -22.9693 C   0  0  0  0  0  0  0  0  0  0  0  0
   21.7766  -11.7967  -22.7985 C   0  0  0  0  0  0  0  0  0  0  0  0
   20.9225  -11.2580  -21.8560 C   0  0  0  0  0  0  0  0  0  0  0  0
   19.9502   -9.6072  -17.7229 C   0  0  0  0  0  0  0  0  0  0  0  0
   18.7144   -9.5941  -17.5341 O   0  0  0  0  0  0  0  0  0  0  0  0
   22.2108   -7.0705  -15.1665 O   0  0  0  0  0  0  0  0  0  0  0  0
   21.0448   -7.6563  -14.6961 C   0  0  0  0  0  0  0  0  0  0  0  0
   20.1333   -8.0809  -15.8021 C   0  0  2  0  0  0  0  0  0  0  0  0
   20.7304   -8.8218  -16.8463 N   0  0  0  0  0  0  0  0  0  0  0  0
   19.5260   -6.8498  -16.4057 C   0  0  0  0  0  0  0  0  0  0  0  0
   20.0060   -6.3180  -17.4399 O   0  0  0  0  0  0  0  0  0  0  0  0
   16.5109   -6.4426  -18.0343 C   0  0  0  0  0  0  0  0  0  0  0  0
   16.4332   -5.4233  -16.9522 C   0  0  2  0  0  0  0  0  0  0  0  0
   15.6659   -4.1860  -17.3426 C   0  0  0  0  0  0  0  0  0  0  0  0
   17.8092   -5.0202  -16.4288 C   0  0  2  0  0  0  0  0  0  0  0  0
   18.3790   -6.2207  -15.8422 N   0  0  0  0  0  0  0  0  0  0  0  0
   17.7291   -3.9119  -15.4604 C   0  0  0  0  0  0  0  0  0  0  0  0
   18.0164   -2.6386  -15.8914 O   0  0  0  0  0  0  0  0  0  0  0  0
   17.4095   -4.1110  -14.2750 O   0  0  0  0  0  0  0  0  0  0  0  0
  2  1  1  6
  2 10  1  0
  3  2  1  0
  4  3  1  0
  5  4  2  0
  6  5  1  0
  7  6  2  0
  7  8  1  0
  8  9  2  0
  9  4  1  0
 10 11  2  0
 12 13  1  0
 14 13  1  1
 15 10  1  0
 15 14  1  0
 16 14  1  0
 16 17  2  0
 19 18  1  6
 19 21  1  0
 20 19  1  0
 21 22  1  1
 22 16  1  0
 23 21  1  0
 23 24  1  0
 25 23  2  0
M  END
$$$$
