QEI.pdb
     RDKit          3D

 27 26  0  0  1  0  0  0  0  0999 V2000
   20.8286  -16.2220  -17.3394 N   0  0  0  0  0  0  0  0  0  0  0  0
   19.7434  -16.6055  -18.1707 C   0  0  0  0  0  0  0  0  0  0  0  0
   19.5958  -17.8305  -18.4064 O   0  0  0  0  0  0  0  0  0  0  0  0
   18.8245  -15.5513  -18.7305 C   0  0  0  0  0  0  0  0  0  0  0  0
   19.2610  -14.1790  -18.2847 C   0  0  0  0  0  0  0  0  0  0  0  0
   18.2088  -13.1442  -18.2872 C   0  0  2  0  0  0  0  0  0  0  0  0
   17.4888  -13.1993  -19.5790 N   0  0  0  0  0  0  0  0  0  0  0  0
   18.6228  -11.7612  -18.0067 C   0  0  0  0  0  0  0  0  0  0  0  0
   19.7611  -11.3487  -18.4291 O   0  0  0  0  0  0  0  0  0  0  0  0
   17.8801  -10.7895  -17.2887 N   0  0  0  0  0  0  0  0  0  0  0  0
   18.3667   -9.4129  -17.1376 C   0  0  1  0  0  0  0  0  0  0  0  0
   17.3151   -8.4339  -16.7692 C   0  0  0  0  0  0  0  0  0  0  0  0
   16.2085   -8.2582  -17.7685 C   0  0  0  0  0  0  0  0  0  0  0  0
   14.9260   -7.8916  -17.1504 C   0  0  0  0  0  0  0  0  0  0  0  0
   14.6729   -6.7177  -16.8038 O   0  0  0  0  0  0  0  0  0  0  0  0
   19.3712   -9.4599  -16.0311 C   0  0  0  0  0  0  0  0  0  0  0  0
   19.0990  -10.1594  -15.0288 O   0  0  0  0  0  0  0  0  0  0  0  0
   13.9109   -8.8299  -16.9118 O   0  0  0  0  0  0  0  0  0  0  0  0
   22.8459  -11.7168  -15.3325 C   0  0  0  0  0  0  0  0  0  0  0  0
   23.0020  -10.4977  -16.2019 C   0  0  0  0  0  0  0  0  0  0  0  0
   22.9339   -9.2166  -15.4376 C   0  0  2  0  0  0  0  0  0  0  0  0
   23.8314   -9.3114  -14.2352 C   0  0  0  0  0  0  0  0  0  0  0  0
   21.5342   -8.9021  -14.9535 C   0  0  2  0  0  0  0  0  0  0  0  0
   20.6034   -8.7648  -16.0498 N   0  0  0  0  0  0  0  0  0  0  0  0
   21.5354   -7.6402  -14.1825 C   0  0  0  0  0  0  0  0  0  0  0  0
   21.3424   -6.5431  -14.7632 O   0  0  0  0  0  0  0  0  0  0  0  0
   21.7450   -7.6002  -12.8075 O   0  0  0  0  0  0  0  0  0  0  0  0
  2  1  1  0
  2  4  1  0
  3  2  2  0
  4  5  1  0
  5  6  1  0
  6  7  1  6
  6  8  1  0
  8  9  2  0
 10  8  1  0
 10 11  1  0
 11 12  1  1
 12 13  1  0
 13 14  1  0
 14 18  1  0
 14 15  2  0
 16 11  1  0
 16 17  2  0
 19 20  1  0
 20 21  1  0
 21 23  1  0
 21 22  1  1
 23 24  1  6
 24 16  1  0
 25 27  1  0
 25 23  1  0
 26 25  2  0
M  END
$$$$
