QEI.pdb
     RDKit          3D

 27 26  0  0  1  0  0  0  0  0999 V2000
   18.9156  -16.5553  -14.6152 N   0  0  0  0  0  0  0  0  0  0  0  0
   17.7259  -16.8608  -15.3274 C   0  0  0  0  0  0  0  0  0  0  0  0
   17.1090  -17.9072  -15.0075 O   0  0  0  0  0  0  0  0  0  0  0  0
   17.2536  -15.9380  -16.4203 C   0  0  0  0  0  0  0  0  0  0  0  0
   18.2394  -14.8165  -16.6276 C   0  0  0  0  0  0  0  0  0  0  0  0
   17.9321  -13.8964  -17.7398 C   0  0  2  0  0  0  0  0  0  0  0  0
   18.2795  -14.5588  -19.0167 N   0  0  0  0  0  0  0  0  0  0  0  0
   18.5372  -12.5568  -17.6932 C   0  0  0  0  0  0  0  0  0  0  0  0
   19.7415  -12.3973  -18.1041 O   0  0  0  0  0  0  0  0  0  0  0  0
   17.9195  -11.3701  -17.2226 N   0  0  0  0  0  0  0  0  0  0  0  0
   18.6076  -10.0748  -17.2808 C   0  0  1  0  0  0  0  0  0  0  0  0
   17.7016   -8.9022  -17.2157 C   0  0  0  0  0  0  0  0  0  0  0  0
   16.8414   -8.6745  -18.4249 C   0  0  0  0  0  0  0  0  0  0  0  0
   15.9526   -7.5113  -18.2899 C   0  0  0  0  0  0  0  0  0  0  0  0
   16.3993   -6.3579  -18.1099 O   0  0  0  0  0  0  0  0  0  0  0  0
   19.5043  -10.0409  -16.0849 C   0  0  0  0  0  0  0  0  0  0  0  0
   19.0871  -10.5726  -15.0308 O   0  0  0  0  0  0  0  0  0  0  0  0
   14.5556   -7.6209  -18.3540 O   0  0  0  0  0  0  0  0  0  0  0  0
   24.3472  -11.8913  -16.0122 C   0  0  0  0  0  0  0  0  0  0  0  0
   22.9706  -11.3701  -15.6962 C   0  0  0  0  0  0  0  0  0  0  0  0
   22.9802   -9.9923  -15.1208 C   0  0  2  0  0  0  0  0  0  0  0  0
   23.7144  -10.0107  -13.8090 C   0  0  0  0  0  0  0  0  0  0  0  0
   21.5862   -9.4574  -14.8698 C   0  0  2  0  0  0  0  0  0  0  0  0
   20.7885   -9.4470  -16.0743 N   0  0  0  0  0  0  0  0  0  0  0  0
   21.6592   -8.0758  -14.3474 C   0  0  0  0  0  0  0  0  0  0  0  0
   21.8833   -7.8707  -13.1285 O   0  0  0  0  0  0  0  0  0  0  0  0
   21.4879   -6.9568  -15.1565 O   0  0  0  0  0  0  0  0  0  0  0  0
  2  1  1  0
  2  4  1  0
  3  2  2  0
  4  5  1  0
  5  6  1  0
  6  7  1  6
  6  8  1  0
  8  9  2  0
 10  8  1  0
 10 11  1  0
 11 12  1  1
 12 13  1  0
 13 14  1  0
 14 18  1  0
 14 15  2  0
 16 11  1  0
 16 17  2  0
 19 20  1  0
 20 21  1  0
 21 23  1  0
 21 22  1  1
 23 24  1  6
 24 16  1  0
 25 27  1  0
 25 23  1  0
 26 25  2  0
M  END
$$$$
