QEI.pdb
     RDKit          3D

 27 26  0  0  1  0  0  0  0  0999 V2000
   18.7066  -16.4418  -12.3835 N   0  0  0  0  0  0  0  0  0  0  0  0
   18.1266  -17.3512  -13.3067 C   0  0  0  0  0  0  0  0  0  0  0  0
   17.8848  -18.5156  -12.9024 O   0  0  0  0  0  0  0  0  0  0  0  0
   17.8271  -16.8975  -14.7116 C   0  0  0  0  0  0  0  0  0  0  0  0
   18.2877  -15.4770  -14.9177 C   0  0  0  0  0  0  0  0  0  0  0  0
   18.0629  -14.9244  -16.2675 C   0  0  2  0  0  0  0  0  0  0  0  0
   18.7124  -15.8098  -17.2597 N   0  0  0  0  0  0  0  0  0  0  0  0
   18.4703  -13.5309  -16.5019 C   0  0  0  0  0  0  0  0  0  0  0  0
   19.6129  -13.2917  -17.0326 O   0  0  0  0  0  0  0  0  0  0  0  0
   17.7165  -12.3702  -16.1922 N   0  0  0  0  0  0  0  0  0  0  0  0
   18.2098  -11.0275  -16.5213 C   0  0  1  0  0  0  0  0  0  0  0  0
   17.1621   -9.9775  -16.5177 C   0  0  0  0  0  0  0  0  0  0  0  0
   17.6424   -8.5759  -16.7601 C   0  0  0  0  0  0  0  0  0  0  0  0
   16.5561   -7.5853  -16.7573 C   0  0  0  0  0  0  0  0  0  0  0  0
   15.3699   -7.9084  -16.5319 O   0  0  0  0  0  0  0  0  0  0  0  0
   19.2101  -10.6947  -15.4610 C   0  0  0  0  0  0  0  0  0  0  0  0
   18.9897  -11.1148  -14.3022 O   0  0  0  0  0  0  0  0  0  0  0  0
   16.7801   -6.2230  -17.0058 O   0  0  0  0  0  0  0  0  0  0  0  0
   24.0306  -12.2295  -14.9434 C   0  0  0  0  0  0  0  0  0  0  0  0
   22.6488  -11.6467  -14.8118 C   0  0  0  0  0  0  0  0  0  0  0  0
   22.6415  -10.1545  -14.7584 C   0  0  2  0  0  0  0  0  0  0  0  0
   23.4769   -9.6985  -13.5946 C   0  0  0  0  0  0  0  0  0  0  0  0
   21.2488   -9.5857  -14.5865 C   0  0  2  0  0  0  0  0  0  0  0  0
   20.3836   -9.9377  -15.6886 N   0  0  0  0  0  0  0  0  0  0  0  0
   21.3106   -8.1110  -14.4953 C   0  0  0  0  0  0  0  0  0  0  0  0
   21.3288   -7.4121  -15.5390 O   0  0  0  0  0  0  0  0  0  0  0  0
   21.3509   -7.4346  -13.2799 O   0  0  0  0  0  0  0  0  0  0  0  0
  2  1  1  0
  2  4  1  0
  3  2  2  0
  4  5  1  0
  5  6  1  0
  6  7  1  6
  6  8  1  0
  8  9  2  0
 10  8  1  0
 10 11  1  0
 11 12  1  1
 12 13  1  0
 13 14  1  0
 14 18  1  0
 14 15  2  0
 16 11  1  0
 16 17  2  0
 19 20  1  0
 20 21  1  0
 21 23  1  0
 21 22  1  1
 23 24  1  6
 24 16  1  0
 25 27  1  0
 25 23  1  0
 26 25  2  0
M  END
$$$$
