QEI.pdb
     RDKit          3D

 27 26  0  0  1  0  0  0  0  0999 V2000
   13.8124  -12.2385  -13.5446 N   0  0  0  0  0  0  0  0  0  0  0  0
   14.3557  -12.1522  -14.8535 C   0  0  0  0  0  0  0  0  0  0  0  0
   14.6641  -13.2263  -15.4272 O   0  0  0  0  0  0  0  0  0  0  0  0
   14.5401  -10.8025  -15.4966 C   0  0  0  0  0  0  0  0  0  0  0  0
   15.9863  -10.3816  -15.4363 C   0  0  0  0  0  0  0  0  0  0  0  0
   16.7534  -10.5587  -16.6846 C   0  0  2  0  0  0  0  0  0  0  0  0
   16.9030  -12.0066  -16.9512 N   0  0  0  0  0  0  0  0  0  0  0  0
   18.0649   -9.8988  -16.7692 C   0  0  0  0  0  0  0  0  0  0  0  0
   19.0693  -10.4186  -16.1647 O   0  0  0  0  0  0  0  0  0  0  0  0
   18.3608   -8.7006  -17.4679 N   0  0  0  0  0  0  0  0  0  0  0  0
   19.7278   -8.1696  -17.5308 C   0  0  1  0  0  0  0  0  0  0  0  0
   19.9693   -7.2467  -18.6666 C   0  0  0  0  0  0  0  0  0  0  0  0
   19.1385   -5.9963  -18.6791 C   0  0  0  0  0  0  0  0  0  0  0  0
   19.6146   -4.9971  -19.6466 C   0  0  0  0  0  0  0  0  0  0  0  0
   18.9501   -4.6922  -20.6604 O   0  0  0  0  0  0  0  0  0  0  0  0
   19.9232   -7.4082  -16.2589 C   0  0  0  0  0  0  0  0  0  0  0  0
   18.8999   -7.0085  -15.6582 O   0  0  0  0  0  0  0  0  0  0  0  0
   20.8372   -4.3262  -19.4947 O   0  0  0  0  0  0  0  0  0  0  0  0
   22.5782   -9.4646  -12.3953 C   0  0  0  0  0  0  0  0  0  0  0  0
   21.6160   -8.5978  -13.1628 C   0  0  0  0  0  0  0  0  0  0  0  0
   22.1502   -7.2324  -13.4458 C   0  0  2  0  0  0  0  0  0  0  0  0
   22.2216   -6.4546  -12.1612 C   0  0  0  0  0  0  0  0  0  0  0  0
   21.2818   -6.4577  -14.4146 C   0  0  2  0  0  0  0  0  0  0  0  0
   21.1885   -7.1147  -15.6979 N   0  0  0  0  0  0  0  0  0  0  0  0
   21.8383   -5.1036  -14.6237 C   0  0  0  0  0  0  0  0  0  0  0  0
   21.8838   -4.2839  -13.6730 O   0  0  0  0  0  0  0  0  0  0  0  0
   22.3291   -4.6749  -15.8532 O   0  0  0  0  0  0  0  0  0  0  0  0
  2  1  1  0
  2  4  1  0
  3  2  2  0
  4  5  1  0
  5  6  1  0
  6  7  1  1
  6  8  1  0
  8  9  2  0
 10  8  1  0
 10 11  1  0
 11 12  1  6
 12 13  1  0
 13 14  1  0
 14 18  1  0
 14 15  2  0
 16 11  1  0
 16 17  2  0
 19 20  1  0
 20 21  1  0
 21 23  1  0
 21 22  1  1
 23 24  1  6
 24 16  1  0
 25 27  1  0
 25 23  1  0
 26 25  2  0
M  END
$$$$
