QEI.pdb
     RDKit          3D

 27 26  0  0  1  0  0  0  0  0999 V2000
   20.6924  -16.9833  -14.7086 N   0  0  0  0  0  0  0  0  0  0  0  0
   19.6544  -17.6661  -15.3957 C   0  0  0  0  0  0  0  0  0  0  0  0
   19.2906  -18.7794  -14.9417 O   0  0  0  0  0  0  0  0  0  0  0  0
   19.0372  -17.0445  -16.6212 C   0  0  0  0  0  0  0  0  0  0  0  0
   19.6152  -15.6740  -16.8667 C   0  0  0  0  0  0  0  0  0  0  0  0
   18.9075  -14.5577  -16.2103 C   0  0  2  0  0  0  0  0  0  0  0  0
   17.4708  -14.6343  -16.5568 N   0  0  0  0  0  0  0  0  0  0  0  0
   19.4091  -13.1989  -16.4646 C   0  0  0  0  0  0  0  0  0  0  0  0
   20.6710  -13.0090  -16.5909 O   0  0  0  0  0  0  0  0  0  0  0  0
   18.6270  -12.0222  -16.5874 N   0  0  0  0  0  0  0  0  0  0  0  0
   19.2334  -10.7350  -16.9479 C   0  0  1  0  0  0  0  0  0  0  0  0
   18.2532   -9.6807  -17.3056 C   0  0  0  0  0  0  0  0  0  0  0  0
   18.8316   -8.3305  -17.6158 C   0  0  0  0  0  0  0  0  0  0  0  0
   17.8069   -7.3159  -17.9021 C   0  0  0  0  0  0  0  0  0  0  0  0
   17.3552   -6.5654  -17.0105 O   0  0  0  0  0  0  0  0  0  0  0  0
   19.9804  -10.2871  -15.7326 C   0  0  0  0  0  0  0  0  0  0  0  0
   19.4029  -10.3872  -14.6261 O   0  0  0  0  0  0  0  0  0  0  0  0
   17.2741   -7.1267  -19.1859 O   0  0  0  0  0  0  0  0  0  0  0  0
   25.4892  -10.6744  -15.1874 C   0  0  0  0  0  0  0  0  0  0  0  0
   24.2314   -9.8680  -15.3720 C   0  0  0  0  0  0  0  0  0  0  0  0
   23.2274  -10.0863  -14.2885 C   0  0  2  0  0  0  0  0  0  0  0  0
   22.9072  -11.5527  -14.2009 C   0  0  0  0  0  0  0  0  0  0  0  0
   21.9341   -9.3385  -14.5351 C   0  0  2  0  0  0  0  0  0  0  0  0
   21.2933   -9.7603  -15.7592 N   0  0  0  0  0  0  0  0  0  0  0  0
   22.1967   -7.8859  -14.6231 C   0  0  0  0  0  0  0  0  0  0  0  0
   22.5328   -7.2399  -13.5996 O   0  0  0  0  0  0  0  0  0  0  0  0
   22.0886   -7.1739  -15.8138 O   0  0  0  0  0  0  0  0  0  0  0  0
  2  1  1  0
  2  4  1  0
  3  2  2  0
  4  5  1  0
  5  6  1  0
  6  7  1  6
  6  8  1  0
  8  9  2  0
 10  8  1  0
 10 11  1  0
 11 12  1  1
 12 13  1  0
 13 14  1  0
 14 18  1  0
 14 15  2  0
 16 11  1  0
 16 17  2  0
 19 20  1  0
 20 21  1  0
 21 23  1  0
 21 22  1  6
 23 24  1  6
 24 16  1  0
 25 27  1  0
 25 23  1  0
 26 25  2  0
M  END
$$$$
