QEI.pdb
     RDKit          3D

 27 26  0  0  1  0  0  0  0  0999 V2000
   24.6734   -6.4304  -16.7184 N   0  0  0  0  0  0  0  0  0  0  0  0
   23.3441   -6.9271  -16.6746 C   0  0  0  0  0  0  0  0  0  0  0  0
   22.4090   -6.0884  -16.6889 O   0  0  0  0  0  0  0  0  0  0  0  0
   23.1052   -8.4132  -16.6139 C   0  0  0  0  0  0  0  0  0  0  0  0
   24.4153   -9.1585  -16.5932 C   0  0  0  0  0  0  0  0  0  0  0  0
   24.6599  -10.0481  -17.7451 C   0  0  2  0  0  0  0  0  0  0  0  0
   23.7437  -11.2068  -17.6558 N   0  0  0  0  0  0  0  0  0  0  0  0
   26.0378  -10.5179  -17.9534 C   0  0  0  0  0  0  0  0  0  0  0  0
   26.6943  -10.9973  -16.9617 O   0  0  0  0  0  0  0  0  0  0  0  0
   26.7582  -10.4979  -19.1748 N   0  0  0  0  0  0  0  0  0  0  0  0
   28.1350  -10.9999  -19.2590 C   0  0  1  0  0  0  0  0  0  0  0  0
   28.4391  -11.7319  -20.5128 C   0  0  0  0  0  0  0  0  0  0  0  0
   29.8259  -12.2973  -20.6179 C   0  0  0  0  0  0  0  0  0  0  0  0
   30.0487  -13.0512  -21.8602 C   0  0  0  0  0  0  0  0  0  0  0  0
   31.1635  -13.5405  -22.1434 O   0  0  0  0  0  0  0  0  0  0  0  0
   29.0098   -9.7887  -19.1999 C   0  0  0  0  0  0  0  0  0  0  0  0
   28.5395   -8.7110  -19.6304 O   0  0  0  0  0  0  0  0  0  0  0  0
   29.0310  -13.2681  -22.8010 O   0  0  0  0  0  0  0  0  0  0  0  0
   32.6797   -6.5985  -15.7152 C   0  0  0  0  0  0  0  0  0  0  0  0
   32.3286   -6.9868  -17.1267 C   0  0  0  0  0  0  0  0  0  0  0  0
   31.5270   -8.2439  -17.2097 C   0  0  2  0  0  0  0  0  0  0  0  0
   32.3602   -9.3937  -16.7156 C   0  0  0  0  0  0  0  0  0  0  0  0
   31.0851   -8.5593  -18.6231 C   0  0  2  0  0  0  0  0  0  0  0  0
   30.3293   -9.7888  -18.6893 N   0  0  0  0  0  0  0  0  0  0  0  0
   32.2640   -8.6889  -19.5065 C   0  0  0  0  0  0  0  0  0  0  0  0
   32.7101   -9.8247  -19.8046 O   0  0  0  0  0  0  0  0  0  0  0  0
   32.9263   -7.5884  -20.0416 O   0  0  0  0  0  0  0  0  0  0  0  0
  2  1  1  0
  2  4  1  0
  3  2  2  0
  4  5  1  0
  5  6  1  0
  6  7  1  1
  6  8  1  0
  8  9  2  0
 10  8  1  0
 10 11  1  0
 11 12  1  6
 12 13  1  0
 13 14  1  0
 14 18  1  0
 14 15  2  0
 16 11  1  0
 16 17  2  0
 19 20  1  0
 20 21  1  0
 21 23  1  0
 21 22  1  6
 23 24  1  1
 24 16  1  0
 25 27  1  0
 25 23  1  0
 26 25  2  0
M  END
$$$$
