QEI.pdb
     RDKit          3D

 27 26  0  0  1  0  0  0  0  0999 V2000
   24.3456  -35.8039  -13.8778 N   0  0  0  0  0  0  0  0  0  0  0  0
   25.0829  -34.7745  -14.5201 C   0  0  0  0  0  0  0  0  0  0  0  0
   24.9284  -34.6344  -15.7588 O   0  0  0  0  0  0  0  0  0  0  0  0
   26.0066  -33.9028  -13.7101 C   0  0  0  0  0  0  0  0  0  0  0  0
   26.0077  -34.3331  -12.2654 C   0  0  0  0  0  0  0  0  0  0  0  0
   25.3934  -33.3832  -11.3177 C   0  0  2  0  0  0  0  0  0  0  0  0
   26.2392  -32.1713  -11.2413 N   0  0  0  0  0  0  0  0  0  0  0  0
   25.1047  -33.8750   -9.9622 C   0  0  0  0  0  0  0  0  0  0  0  0
   24.4453  -34.9652   -9.8170 O   0  0  0  0  0  0  0  0  0  0  0  0
   25.4828  -33.2554   -8.7438 N   0  0  0  0  0  0  0  0  0  0  0  0
   25.4290  -33.9800   -7.4683 C   0  0  1  0  0  0  0  0  0  0  0  0
   26.5940  -33.7382   -6.5826 C   0  0  0  0  0  0  0  0  0  0  0  0
   26.5526  -34.4250   -5.2483 C   0  0  0  0  0  0  0  0  0  0  0  0
   27.7090  -34.1051   -4.3988 C   0  0  0  0  0  0  0  0  0  0  0  0
   27.6694  -33.1894   -3.5490 O   0  0  0  0  0  0  0  0  0  0  0  0
   24.2016  -33.4829   -6.7740 C   0  0  0  0  0  0  0  0  0  0  0  0
   24.0609  -32.2440   -6.6590 O   0  0  0  0  0  0  0  0  0  0  0  0
   28.9228  -34.8028   -4.4871 O   0  0  0  0  0  0  0  0  0  0  0  0
   19.2623  -35.4092   -7.5506 C   0  0  0  0  0  0  0  0  0  0  0  0
   20.4953  -34.5992   -7.2506 C   0  0  0  0  0  0  0  0  0  0  0  0
   20.7929  -34.4981   -5.7908 C   0  0  2  0  0  0  0  0  0  0  0  0
   19.6771  -33.7548   -5.1104 C   0  0  0  0  0  0  0  0  0  0  0  0
   22.0855  -33.7611   -5.5108 C   0  0  2  0  0  0  0  0  0  0  0  0
   23.1962  -34.3248   -6.2427 N   0  0  0  0  0  0  0  0  0  0  0  0
   22.4008  -33.8202   -4.0672 C   0  0  0  0  0  0  0  0  0  0  0  0
   21.8716  -33.0068   -3.2695 O   0  0  0  0  0  0  0  0  0  0  0  0
   23.2783  -34.7557   -3.5277 O   0  0  0  0  0  0  0  0  0  0  0  0
  2  1  1  0
  2  4  1  0
  3  2  2  0
  4  5  1  0
  5  6  1  0
  6  7  1  1
  6  8  1  0
  8  9  2  0
 10  8  1  0
 10 11  1  0
 11 12  1  1
 12 13  1  0
 13 14  1  0
 14 18  1  0
 14 15  2  0
 16 11  1  0
 16 17  2  0
 19 20  1  0
 20 21  1  0
 21 23  1  0
 21 22  1  1
 23 24  1  6
 24 16  1  0
 25 27  1  0
 25 23  1  0
 26 25  2  0
M  END
$$$$
