QEI.pdb
     RDKit          3D

 27 26  0  0  1  0  0  0  0  0999 V2000
   18.0185  -17.0077  -16.4467 N   0  0  0  0  0  0  0  0  0  0  0  0
   18.9632  -16.6401  -17.4408 C   0  0  0  0  0  0  0  0  0  0  0  0
   19.7148  -17.5406  -17.8903 O   0  0  0  0  0  0  0  0  0  0  0  0
   19.0304  -15.2112  -17.9131 C   0  0  0  0  0  0  0  0  0  0  0  0
   18.0790  -14.3485  -17.1238 C   0  0  0  0  0  0  0  0  0  0  0  0
   18.1436  -12.9024  -17.4109 C   0  0  2  0  0  0  0  0  0  0  0  0
   18.0540  -12.7022  -18.8745 N   0  0  0  0  0  0  0  0  0  0  0  0
   19.2949  -12.1597  -16.8765 C   0  0  0  0  0  0  0  0  0  0  0  0
   19.3541  -11.9130  -15.6195 O   0  0  0  0  0  0  0  0  0  0  0  0
   20.3927  -11.6588  -17.6216 N   0  0  0  0  0  0  0  0  0  0  0  0
   21.4847  -10.9224  -16.9734 C   0  0  1  0  0  0  0  0  0  0  0  0
   22.7918  -11.0418  -17.6642 C   0  0  0  0  0  0  0  0  0  0  0  0
   23.5325  -12.3285  -17.4410 C   0  0  0  0  0  0  0  0  0  0  0  0
   24.7794  -12.4179  -18.2145 C   0  0  0  0  0  0  0  0  0  0  0  0
   25.4745  -13.4567  -18.2268 O   0  0  0  0  0  0  0  0  0  0  0  0
   21.0716   -9.4856  -16.9975 C   0  0  0  0  0  0  0  0  0  0  0  0
   20.5820   -9.0398  -18.0602 O   0  0  0  0  0  0  0  0  0  0  0  0
   25.2657  -11.3500  -18.9833 O   0  0  0  0  0  0  0  0  0  0  0  0
   17.2113   -5.7455  -16.5716 C   0  0  0  0  0  0  0  0  0  0  0  0
   18.6730   -5.8146  -16.2181 C   0  0  0  0  0  0  0  0  0  0  0  0
   19.2111   -7.2075  -16.2068 C   0  0  2  0  0  0  0  0  0  0  0  0
   18.5549   -7.9807  -15.0969 C   0  0  0  0  0  0  0  0  0  0  0  0
   20.7084   -7.2505  -15.9859 C   0  0  2  0  0  0  0  0  0  0  0  0
   21.2008   -8.6058  -15.8970 N   0  0  0  0  0  0  0  0  0  0  0  0
   21.0571   -6.5449  -14.7339 C   0  0  0  0  0  0  0  0  0  0  0  0
   20.9997   -5.2914  -14.6763 O   0  0  0  0  0  0  0  0  0  0  0  0
   21.4575   -7.2138  -13.5813 O   0  0  0  0  0  0  0  0  0  0  0  0
  2  1  1  0
  2  4  1  0
  3  2  2  0
  4  5  1  0
  5  6  1  0
  6  7  1  6
  6  8  1  0
  8  9  2  0
 10  8  1  0
 10 11  1  0
 11 12  1  6
 12 13  1  0
 13 14  1  0
 14 18  1  0
 14 15  2  0
 16 11  1  0
 16 17  2  0
 19 20  1  0
 20 21  1  0
 21 23  1  0
 21 22  1  1
 23 24  1  1
 24 16  1  0
 25 27  1  0
 25 23  1  0
 26 25  2  0
M  END
$$$$
