QEI.pdb
     RDKit          3D

 27 26  0  0  1  0  0  0  0  0999 V2000
   29.0770  -14.9681  -18.1842 N   0  0  0  0  0  0  0  0  0  0  0  0
   29.4296  -16.2278  -18.7360 C   0  0  0  0  0  0  0  0  0  0  0  0
   29.9419  -16.2377  -19.8829 O   0  0  0  0  0  0  0  0  0  0  0  0
   29.1822  -17.4845  -17.9430 C   0  0  0  0  0  0  0  0  0  0  0  0
   28.0130  -17.2989  -17.0098 C   0  0  0  0  0  0  0  0  0  0  0  0
   26.8654  -18.1976  -17.2405 C   0  0  2  0  0  0  0  0  0  0  0  0
   26.3211  -17.9389  -18.5921 N   0  0  0  0  0  0  0  0  0  0  0  0
   25.7772  -18.1689  -16.2518 C   0  0  0  0  0  0  0  0  0  0  0  0
   25.3083  -17.0390  -15.8670 O   0  0  0  0  0  0  0  0  0  0  0  0
   25.1619  -19.2931  -15.6444 N   0  0  0  0  0  0  0  0  0  0  0  0
   24.0255  -19.1408  -14.7278 C   0  0  1  0  0  0  0  0  0  0  0  0
   22.7061  -19.4238  -15.3437 C   0  0  0  0  0  0  0  0  0  0  0  0
   21.5240  -19.3358  -14.4225 C   0  0  0  0  0  0  0  0  0  0  0  0
   20.2569  -19.6987  -15.0737 C   0  0  0  0  0  0  0  0  0  0  0  0
   19.7092  -18.9513  -15.9126 O   0  0  0  0  0  0  0  0  0  0  0  0
   24.2545  -20.1339  -13.6338 C   0  0  0  0  0  0  0  0  0  0  0  0
   24.5755  -21.2983  -13.9642 O   0  0  0  0  0  0  0  0  0  0  0  0
   19.5861  -20.8992  -14.7970 O   0  0  0  0  0  0  0  0  0  0  0  0
   26.5286  -19.0121   -8.8226 C   0  0  0  0  0  0  0  0  0  0  0  0
   26.1153  -19.7751  -10.0528 C   0  0  0  0  0  0  0  0  0  0  0  0
   24.7507  -20.3716   -9.9451 C   0  0  2  0  0  0  0  0  0  0  0  0
   24.7908  -21.5238   -8.9801 C   0  0  0  0  0  0  0  0  0  0  0  0
   24.2363  -20.8895  -11.2716 C   0  0  2  0  0  0  0  0  0  0  0  0
   24.1304  -19.8373  -12.2559 N   0  0  0  0  0  0  0  0  0  0  0  0
   22.9003  -21.4985  -11.0951 C   0  0  0  0  0  0  0  0  0  0  0  0
   21.8675  -20.7853  -11.1459 O   0  0  0  0  0  0  0  0  0  0  0  0
   22.7192  -22.8595  -10.8688 O   0  0  0  0  0  0  0  0  0  0  0  0
  2  1  1  0
  2  4  1  0
  3  2  2  0
  4  5  1  0
  5  6  1  0
  6  7  1  6
  6  8  1  0
  8  9  2  0
 10  8  1  0
 10 11  1  0
 11 12  1  6
 12 13  1  0
 13 14  1  0
 14 18  1  0
 14 15  2  0
 16 11  1  0
 16 17  2  0
 19 20  1  0
 20 21  1  0
 21 23  1  0
 21 22  1  1
 23 24  1  6
 24 16  1  0
 25 27  1  0
 25 23  1  0
 26 25  2  0
M  END
$$$$
