SYK.pdb
     RDKit          3D

 28 28  0  0  1  0  0  0  0  0999 V2000
   29.4198  -18.0727  -19.7587 O   0  0  0  0  0  0  0  0  0  0  0  0
   28.1650  -17.4823  -19.8493 C   0  0  0  0  0  0  0  0  0  0  0  0
   27.1960  -18.1302  -18.8574 C   0  0  2  0  0  0  0  0  0  0  0  0
   27.1806  -19.5454  -19.1279 N   0  0  0  0  0  0  0  0  0  0  0  0
   25.8461  -17.5085  -18.9767 C   0  0  0  0  0  0  0  0  0  0  0  0
   24.9840  -18.1083  -19.6252 O   0  0  0  0  0  0  0  0  0  0  0  0
   20.7344  -20.5413  -16.1290 O   0  0  0  0  0  0  0  0  0  0  0  0
   21.3494  -19.3302  -16.4300 C   0  0  0  0  0  0  0  0  0  0  0  0
   20.7523  -18.3730  -17.2183 C   0  0  0  0  0  0  0  0  0  0  0  0
   21.3682  -17.1531  -17.5233 C   0  0  0  0  0  0  0  0  0  0  0  0
   22.6015  -16.8761  -17.0367 C   0  0  0  0  0  0  0  0  0  0  0  0
   23.4038  -15.6642  -17.2274 C   0  0  0  0  0  0  0  0  0  0  0  0
   24.2733  -15.6317  -18.4516 C   0  0  2  0  0  0  0  0  0  0  0  0
   25.5257  -16.2702  -18.3786 N   0  0  0  0  0  0  0  0  0  0  0  0
   24.3281  -14.2514  -18.9498 C   0  0  0  0  0  0  0  0  0  0  0  0
   25.2511  -13.5008  -18.4930 O   0  0  0  0  0  0  0  0  0  0  0  0
   23.1978  -17.8656  -16.2326 C   0  0  0  0  0  0  0  0  0  0  0  0
   22.5883  -19.0577  -15.9386 C   0  0  0  0  0  0  0  0  0  0  0  0
   23.4482  -13.7213  -19.8762 N   0  0  0  0  0  0  0  0  0  0  0  0
   23.6353  -12.3068  -20.4290 C   0  0  1  0  0  0  0  0  0  0  0  0
   23.0400  -12.3398  -21.7755 C   0  0  0  0  0  0  0  0  0  0  0  0
   22.8906  -11.1297  -22.5629 C   0  0  0  0  0  0  0  0  0  0  0  0
   23.8939  -10.7154  -23.5736 C   0  0  0  0  0  0  0  0  0  0  0  0
   23.5793   -9.4246  -24.2792 C   0  0  0  0  0  0  0  0  0  0  0  0
   24.5944   -9.2240  -25.2930 N   0  0  0  0  0  0  0  0  0  0  0  0
   22.8545  -11.5233  -19.4523 C   0  0  0  0  0  0  0  0  0  0  0  0
   21.8902  -12.0903  -18.8117 O   0  0  0  0  0  0  0  0  0  0  0  0
   23.0370  -10.2038  -19.1184 O   0  0  0  0  0  0  0  0  0  0  0  0
  2  1  1  0
  3  2  1  0
  3  4  1  6
  5 14  1  0
  5  3  1  0
  6  5  2  0
  8  7  1  0
  8 18  2  0
  9  8  1  0
 10  9  2  0
 10 11  1  0
 11 17  2  0
 12 11  1  0
 13 12  1  1
 13 14  1  0
 15 16  2  0
 15 13  1  0
 17 18  1  0
 19 15  1  0
 20 26  1  0
 20 19  1  0
 20 21  1  6
 22 23  1  0
 22 21  1  0
 24 25  1  0
 24 23  1  0
 26 28  1  0
 27 26  2  0
M  END
$$$$
