SYK.pdb
     RDKit          3D

 28 28  0  0  1  0  0  0  0  0999 V2000
   20.7717  -12.2978  -20.6569 O   0  0  0  0  0  0  0  0  0  0  0  0
   20.6936  -11.7957  -19.3633 C   0  0  0  0  0  0  0  0  0  0  0  0
   22.0659  -11.8434  -18.6873 C   0  0  2  0  0  0  0  0  0  0  0  0
   22.4783  -13.2232  -18.6400 N   0  0  0  0  0  0  0  0  0  0  0  0
   21.9950  -11.2192  -17.3352 C   0  0  0  0  0  0  0  0  0  0  0  0
   21.6176  -11.9179  -16.3902 O   0  0  0  0  0  0  0  0  0  0  0  0
   28.6081  -10.8204  -16.2393 O   0  0  0  0  0  0  0  0  0  0  0  0
   27.3726  -10.1941  -16.1103 C   0  0  0  0  0  0  0  0  0  0  0  0
   26.8500   -9.3799  -17.0892 C   0  0  0  0  0  0  0  0  0  0  0  0
   25.6070   -8.7480  -16.9627 C   0  0  0  0  0  0  0  0  0  0  0  0
   24.8663   -8.9270  -15.8429 C   0  0  0  0  0  0  0  0  0  0  0  0
   23.5480   -8.3703  -15.5254 C   0  0  0  0  0  0  0  0  0  0  0  0
   22.3671   -9.2419  -15.8439 C   0  0  2  0  0  0  0  0  0  0  0  0
   22.3415   -9.8701  -17.1034 N   0  0  0  0  0  0  0  0  0  0  0  0
   21.1401   -8.5067  -15.5115 C   0  0  0  0  0  0  0  0  0  0  0  0
   20.6424   -7.7598  -16.4162 O   0  0  0  0  0  0  0  0  0  0  0  0
   25.4154   -9.7623  -14.8519 C   0  0  0  0  0  0  0  0  0  0  0  0
   26.6334  -10.3774  -14.9831 C   0  0  0  0  0  0  0  0  0  0  0  0
   20.4971   -8.5753  -14.2887 N   0  0  0  0  0  0  0  0  0  0  0  0
   19.1289   -7.9243  -14.0742 C   0  0  1  0  0  0  0  0  0  0  0  0
   18.5579   -8.6097  -12.9026 C   0  0  0  0  0  0  0  0  0  0  0  0
   17.3824   -8.0927  -12.2264 C   0  0  0  0  0  0  0  0  0  0  0  0
   16.8906   -8.6630  -10.9487 C   0  0  0  0  0  0  0  0  0  0  0  0
   15.7109   -7.9448  -10.3524 C   0  0  0  0  0  0  0  0  0  0  0  0
   15.1957   -8.7701   -9.2792 N   0  0  0  0  0  0  0  0  0  0  0  0
   19.5260   -6.5276  -13.8115 C   0  0  0  0  0  0  0  0  0  0  0  0
   18.6917   -5.5756  -14.0552 O   0  0  0  0  0  0  0  0  0  0  0  0
   20.7281   -6.0920  -13.3104 O   0  0  0  0  0  0  0  0  0  0  0  0
  2  1  1  0
  3  2  1  0
  3  4  1  1
  5 14  1  0
  5  3  1  0
  6  5  2  0
  8  7  1  0
  8 18  2  0
  9  8  1  0
 10  9  2  0
 10 11  1  0
 11 17  2  0
 12 11  1  0
 13 12  1  6
 13 14  1  0
 15 16  2  0
 15 13  1  0
 17 18  1  0
 19 15  1  0
 20 26  1  0
 20 19  1  0
 20 21  1  1
 22 23  1  0
 22 21  1  0
 24 25  1  0
 24 23  1  0
 26 28  1  0
 27 26  2  0
M  END
$$$$
