SYK.pdb
     RDKit          3D

 28 28  0  0  1  0  0  0  0  0999 V2000
   27.0111  -19.6706  -18.4128 O   0  0  0  0  0  0  0  0  0  0  0  0
   28.2765  -19.8374  -17.8629 C   0  0  0  0  0  0  0  0  0  0  0  0
   28.4143  -21.2339  -17.2516 C   0  0  2  0  0  0  0  0  0  0  0  0
   28.1297  -22.1917  -18.2899 N   0  0  0  0  0  0  0  0  0  0  0  0
   27.5057  -21.3733  -16.0778 C   0  0  0  0  0  0  0  0  0  0  0  0
   26.5195  -22.1071  -16.1886 O   0  0  0  0  0  0  0  0  0  0  0  0
   23.8747  -20.4454   -8.0298 O   0  0  0  0  0  0  0  0  0  0  0  0
   24.7743  -20.4589   -9.0909 C   0  0  0  0  0  0  0  0  0  0  0  0
   25.6045  -21.5272   -9.3434 C   0  0  0  0  0  0  0  0  0  0  0  0
   26.5110  -21.5443  -10.4103 C   0  0  0  0  0  0  0  0  0  0  0  0
   26.5964  -20.4806  -11.2444 C   0  0  0  0  0  0  0  0  0  0  0  0
   27.4626  -20.3092  -12.4145 C   0  0  0  0  0  0  0  0  0  0  0  0
   26.8905  -20.7488  -13.7318 C   0  0  2  0  0  0  0  0  0  0  0  0
   27.7344  -20.7007  -14.8575 N   0  0  0  0  0  0  0  0  0  0  0  0
   25.5929  -20.0881  -13.9220 C   0  0  0  0  0  0  0  0  0  0  0  0
   25.6031  -18.9019  -14.3876 O   0  0  0  0  0  0  0  0  0  0  0  0
   25.7407  -19.3968  -10.9720 C   0  0  0  0  0  0  0  0  0  0  0  0
   24.8557  -19.3875   -9.9251 C   0  0  0  0  0  0  0  0  0  0  0  0
   24.3720  -20.6691  -13.6304 N   0  0  0  0  0  0  0  0  0  0  0  0
   23.0596  -19.9186  -13.8671 C   0  0  1  0  0  0  0  0  0  0  0  0
   22.7647  -20.1043  -15.2979 C   0  0  0  0  0  0  0  0  0  0  0  0
   21.5784  -19.5278  -15.9035 C   0  0  0  0  0  0  0  0  0  0  0  0
   20.5842  -20.3508  -16.6340 C   0  0  0  0  0  0  0  0  0  0  0  0
   19.4952  -19.5658  -17.3128 C   0  0  0  0  0  0  0  0  0  0  0  0
   18.6703  -20.5067  -18.0426 N   0  0  0  0  0  0  0  0  0  0  0  0
   22.1518  -20.6608  -12.9713 C   0  0  0  0  0  0  0  0  0  0  0  0
   22.3820  -21.9052  -12.7259 O   0  0  0  0  0  0  0  0  0  0  0  0
   21.0417  -20.1689  -12.3297 O   0  0  0  0  0  0  0  0  0  0  0  0
  2  1  1  0
  3  2  1  0
  3  4  1  6
  5 14  1  0
  5  3  1  0
  6  5  2  0
  8  7  1  0
  8 18  2  0
  9  8  1  0
 10  9  2  0
 10 11  1  0
 11 17  2  0
 12 11  1  0
 13 12  1  1
 13 14  1  0
 15 16  2  0
 15 13  1  0
 17 18  1  0
 19 15  1  0
 20 26  1  0
 20 19  1  0
 20 21  1  6
 22 23  1  0
 22 21  1  0
 24 25  1  0
 24 23  1  0
 26 28  1  0
 27 26  2  0
M  END
$$$$
