SYK.pdb
     RDKit          3D

 28 28  0  0  1  0  0  0  0  0999 V2000
   27.2859  -19.1636  -16.7295 O   0  0  0  0  0  0  0  0  0  0  0  0
   27.7645  -19.0356  -15.4310 C   0  0  0  0  0  0  0  0  0  0  0  0
   28.1526  -20.4044  -14.8666 C   0  0  2  0  0  0  0  0  0  0  0  0
   28.4654  -21.2607  -15.9825 N   0  0  0  0  0  0  0  0  0  0  0  0
   27.0493  -20.9437  -14.0212 C   0  0  0  0  0  0  0  0  0  0  0  0
   26.6406  -22.0846  -14.2553 O   0  0  0  0  0  0  0  0  0  0  0  0
   29.3222  -21.1362   -6.9148 O   0  0  0  0  0  0  0  0  0  0  0  0
   28.3696  -20.8953   -7.8998 C   0  0  0  0  0  0  0  0  0  0  0  0
   28.5940  -21.1715   -9.2293 C   0  0  0  0  0  0  0  0  0  0  0  0
   27.6378  -20.9304  -10.2232 C   0  0  0  0  0  0  0  0  0  0  0  0
   26.4340  -20.4048   -9.8926 C   0  0  0  0  0  0  0  0  0  0  0  0
   25.3047  -20.0925  -10.7734 C   0  0  0  0  0  0  0  0  0  0  0  0
   25.3884  -20.6303  -12.1732 C   0  0  2  0  0  0  0  0  0  0  0  0
   26.4636  -20.2000  -12.9736 N   0  0  0  0  0  0  0  0  0  0  0  0
   24.0711  -20.4912  -12.8071 C   0  0  0  0  0  0  0  0  0  0  0  0
   23.7296  -19.3271  -13.1972 O   0  0  0  0  0  0  0  0  0  0  0  0
   26.2211  -20.1282   -8.5290 C   0  0  0  0  0  0  0  0  0  0  0  0
   27.1626  -20.3670   -7.5616 C   0  0  0  0  0  0  0  0  0  0  0  0
   23.1871  -21.5364  -13.0056 N   0  0  0  0  0  0  0  0  0  0  0  0
   21.8602  -21.3250  -13.7378 C   0  0  1  0  0  0  0  0  0  0  0  0
   21.3739  -22.6798  -14.0486 C   0  0  0  0  0  0  0  0  0  0  0  0
   20.0848  -22.8907  -14.6812 C   0  0  0  0  0  0  0  0  0  0  0  0
   19.5148  -24.2451  -14.8817 C   0  0  0  0  0  0  0  0  0  0  0  0
   18.1369  -24.2644  -15.4850 C   0  0  0  0  0  0  0  0  0  0  0  0
   17.7686  -25.6509  -15.6854 N   0  0  0  0  0  0  0  0  0  0  0  0
   21.0761  -20.6361  -12.6948 C   0  0  0  0  0  0  0  0  0  0  0  0
   20.2281  -19.7273  -13.0366 O   0  0  0  0  0  0  0  0  0  0  0  0
   21.1335  -20.8546  -11.3402 O   0  0  0  0  0  0  0  0  0  0  0  0
  2  1  1  0
  3  2  1  0
  3  4  1  6
  5 14  1  0
  5  3  1  0
  6  5  2  0
  8  7  1  0
  8 18  2  0
  9  8  1  0
 10  9  2  0
 10 11  1  0
 11 17  2  0
 12 11  1  0
 13 12  1  1
 13 14  1  0
 15 16  2  0
 15 13  1  0
 17 18  1  0
 19 15  1  0
 20 26  1  0
 20 19  1  0
 20 21  1  1
 22 23  1  0
 22 21  1  0
 24 25  1  0
 24 23  1  0
 26 28  1  0
 27 26  2  0
M  END
$$$$
