SYK.pdb
     RDKit          3D

 28 28  0  0  1  0  0  0  0  0999 V2000
   28.2801  -18.5985  -19.9026 O   0  0  0  0  0  0  0  0  0  0  0  0
   27.5491  -19.2232  -18.8992 C   0  0  0  0  0  0  0  0  0  0  0  0
   28.4028  -20.2801  -18.1943 C   0  0  2  0  0  0  0  0  0  0  0  0
   28.6306  -21.3498  -19.1325 N   0  0  0  0  0  0  0  0  0  0  0  0
   27.7242  -20.7431  -16.9501 C   0  0  0  0  0  0  0  0  0  0  0  0
   27.1130  -21.8148  -16.9844 O   0  0  0  0  0  0  0  0  0  0  0  0
   24.4135  -20.6325   -8.6689 O   0  0  0  0  0  0  0  0  0  0  0  0
   25.2242  -20.4785   -9.7890 C   0  0  0  0  0  0  0  0  0  0  0  0
   26.1073  -21.4499  -10.2023 C   0  0  0  0  0  0  0  0  0  0  0  0
   26.9246  -21.2983  -11.3290 C   0  0  0  0  0  0  0  0  0  0  0  0
   26.8653  -20.1605  -12.0614 C   0  0  0  0  0  0  0  0  0  0  0  0
   27.6205  -19.8157  -13.2695 C   0  0  0  0  0  0  0  0  0  0  0  0
   27.0732  -20.3423  -14.5653 C   0  0  2  0  0  0  0  0  0  0  0  0
   27.7579  -20.0037  -15.7477 N   0  0  0  0  0  0  0  0  0  0  0  0
   25.6298  -20.0748  -14.6063 C   0  0  0  0  0  0  0  0  0  0  0  0
   25.2623  -18.8927  -14.9091 O   0  0  0  0  0  0  0  0  0  0  0  0
   25.9573  -19.1776  -11.6249 C   0  0  0  0  0  0  0  0  0  0  0  0
   25.1604  -19.3334  -10.5205 C   0  0  0  0  0  0  0  0  0  0  0  0
   24.6541  -21.0183  -14.3399 N   0  0  0  0  0  0  0  0  0  0  0  0
   23.1676  -20.6583  -14.3901 C   0  0  1  0  0  0  0  0  0  0  0  0
   22.5697  -21.6287  -15.3225 C   0  0  0  0  0  0  0  0  0  0  0  0
   21.1508  -21.6049  -15.6270 C   0  0  0  0  0  0  0  0  0  0  0  0
   20.5429  -22.5096  -16.6327 C   0  0  0  0  0  0  0  0  0  0  0  0
   19.0558  -22.3553  -16.7997 C   0  0  0  0  0  0  0  0  0  0  0  0
   18.6430  -23.2434  -17.8670 N   0  0  0  0  0  0  0  0  0  0  0  0
   22.7840  -20.8726  -12.9814 C   0  0  0  0  0  0  0  0  0  0  0  0
   23.3172  -21.8424  -12.3204 O   0  0  0  0  0  0  0  0  0  0  0  0
   21.8918  -20.1304  -12.2473 O   0  0  0  0  0  0  0  0  0  0  0  0
  2  1  1  0
  3  2  1  0
  3  4  1  6
  5 14  1  0
  5  3  1  0
  6  5  2  0
  8  7  1  0
  8 18  2  0
  9  8  1  0
 10  9  2  0
 10 11  1  0
 11 17  2  0
 12 11  1  0
 13 12  1  1
 13 14  1  0
 15 16  2  0
 15 13  1  0
 17 18  1  0
 19 15  1  0
 20 26  1  0
 20 19  1  0
 20 21  1  6
 22 23  1  0
 22 21  1  0
 24 25  1  0
 24 23  1  0
 26 28  1  0
 27 26  2  0
M  END
$$$$
