SYK.pdb
     RDKit          3D

 28 28  0  0  1  0  0  0  0  0999 V2000
   19.9681  -15.0374  -18.9486 O   0  0  0  0  0  0  0  0  0  0  0  0
   19.8945  -13.7103  -18.5427 C   0  0  0  0  0  0  0  0  0  0  0  0
   20.2502  -13.5840  -17.0594 C   0  0  2  0  0  0  0  0  0  0  0  0
   19.2822  -14.3488  -16.3148 N   0  0  0  0  0  0  0  0  0  0  0  0
   20.2788  -12.1484  -16.6579 C   0  0  0  0  0  0  0  0  0  0  0  0
   19.2022  -11.5736  -16.4736 O   0  0  0  0  0  0  0  0  0  0  0  0
   23.1199   -4.0550  -14.3522 O   0  0  0  0  0  0  0  0  0  0  0  0
   22.9680   -5.4278  -14.5186 C   0  0  0  0  0  0  0  0  0  0  0  0
   22.1247   -6.1796  -13.7324 C   0  0  0  0  0  0  0  0  0  0  0  0
   21.9693   -7.5613  -13.8970 C   0  0  0  0  0  0  0  0  0  0  0  0
   22.6640   -8.2115  -14.8610 C   0  0  0  0  0  0  0  0  0  0  0  0
   22.6332   -9.6373  -15.1998 C   0  0  0  0  0  0  0  0  0  0  0  0
   21.5793  -10.0617  -16.1822 C   0  0  2  0  0  0  0  0  0  0  0  0
   21.4839  -11.4334  -16.4837 N   0  0  0  0  0  0  0  0  0  0  0  0
   21.6599   -9.1893  -17.3606 C   0  0  0  0  0  0  0  0  0  0  0  0
   22.5941   -9.4197  -18.1962 O   0  0  0  0  0  0  0  0  0  0  0  0
   23.5218   -7.4281  -15.6557 C   0  0  0  0  0  0  0  0  0  0  0  0
   23.6685   -6.0754  -15.4883 C   0  0  0  0  0  0  0  0  0  0  0  0
   20.7919   -8.1433  -17.6172 N   0  0  0  0  0  0  0  0  0  0  0  0
   20.9863   -7.2304  -18.8299 C   0  0  1  0  0  0  0  0  0  0  0  0
   19.6881   -7.2353  -19.5251 C   0  0  0  0  0  0  0  0  0  0  0  0
   19.1751   -8.4385  -20.1541 C   0  0  0  0  0  0  0  0  0  0  0  0
   18.0583   -9.2207  -19.5708 C   0  0  0  0  0  0  0  0  0  0  0  0
   17.6165  -10.3978  -20.3968 C   0  0  0  0  0  0  0  0  0  0  0  0
   16.5762  -11.0828  -19.6573 N   0  0  0  0  0  0  0  0  0  0  0  0
   21.3002   -5.9512  -18.1648 C   0  0  0  0  0  0  0  0  0  0  0  0
   20.5302   -5.5205  -17.2248 O   0  0  0  0  0  0  0  0  0  0  0  0
   22.3636   -5.1233  -18.4287 O   0  0  0  0  0  0  0  0  0  0  0  0
  2  1  1  0
  3  2  1  0
  3  4  1  1
  5 14  1  0
  5  3  1  0
  6  5  2  0
  8  7  1  0
  8 18  2  0
  9  8  1  0
 10  9  2  0
 10 11  1  0
 11 17  2  0
 12 11  1  0
 13 12  1  1
 13 14  1  0
 15 16  2  0
 15 13  1  0
 17 18  1  0
 19 15  1  0
 20 26  1  0
 20 19  1  0
 20 21  1  1
 22 23  1  0
 22 21  1  0
 24 25  1  0
 24 23  1  0
 26 28  1  0
 27 26  2  0
M  END
$$$$
