SYK.pdb
     RDKit          3D

 28 28  0  0  1  0  0  0  0  0999 V2000
   25.1699  -20.7328  -13.8509 O   0  0  0  0  0  0  0  0  0  0  0  0
   24.5087  -21.5259  -14.7811 C   0  0  0  0  0  0  0  0  0  0  0  0
   23.3988  -20.7291  -15.4708 C   0  0  2  0  0  0  0  0  0  0  0  0
   23.9855  -19.5116  -15.9706 N   0  0  0  0  0  0  0  0  0  0  0  0
   22.2789  -20.4777  -14.5193 C   0  0  0  0  0  0  0  0  0  0  0  0
   22.3730  -19.5174  -13.7496 O   0  0  0  0  0  0  0  0  0  0  0  0
   19.9042  -14.6526  -13.9707 O   0  0  0  0  0  0  0  0  0  0  0  0
   19.6748  -16.0225  -14.0502 C   0  0  0  0  0  0  0  0  0  0  0  0
   19.9475  -16.7537  -15.1839 C   0  0  0  0  0  0  0  0  0  0  0  0
   19.7180  -18.1324  -15.2675 C   0  0  0  0  0  0  0  0  0  0  0  0
   19.2078  -18.8003  -14.2054 C   0  0  0  0  0  0  0  0  0  0  0  0
   18.9094  -20.2306  -14.0879 C   0  0  0  0  0  0  0  0  0  0  0  0
   20.0325  -21.1039  -13.6064 C   0  0  2  0  0  0  0  0  0  0  0  0
   21.1273  -21.2934  -14.4706 N   0  0  0  0  0  0  0  0  0  0  0  0
   19.4621  -22.3479  -13.0736 C   0  0  0  0  0  0  0  0  0  0  0  0
   19.3360  -23.3262  -13.8805 O   0  0  0  0  0  0  0  0  0  0  0  0
   18.9346  -18.0376  -13.0543 C   0  0  0  0  0  0  0  0  0  0  0  0
   19.1620  -16.6878  -12.9803 C   0  0  0  0  0  0  0  0  0  0  0  0
   19.0582  -22.5214  -11.7622 N   0  0  0  0  0  0  0  0  0  0  0  0
   18.5197  -23.8663  -11.2693 C   0  0  1  0  0  0  0  0  0  0  0  0
   18.7890  -23.8796   -9.8216 C   0  0  0  0  0  0  0  0  0  0  0  0
   18.2594  -24.9260   -8.9665 C   0  0  0  0  0  0  0  0  0  0  0  0
   18.5706  -24.9963   -7.5182 C   0  0  0  0  0  0  0  0  0  0  0  0
   17.9665  -26.1731   -6.8017 C   0  0  0  0  0  0  0  0  0  0  0  0
   18.3767  -26.0959   -5.4146 N   0  0  0  0  0  0  0  0  0  0  0  0
   17.0897  -23.7317  -11.6073 C   0  0  0  0  0  0  0  0  0  0  0  0
   16.4229  -24.7749  -11.9664 O   0  0  0  0  0  0  0  0  0  0  0  0
   16.3406  -22.5810  -11.5813 O   0  0  0  0  0  0  0  0  0  0  0  0
  2  1  1  0
  3  2  1  0
  3  4  1  1
  5 14  1  0
  5  3  1  0
  6  5  2  0
  8  7  1  0
  8 18  2  0
  9  8  1  0
 10  9  2  0
 10 11  1  0
 11 17  2  0
 12 11  1  0
 13 12  1  6
 13 14  1  0
 15 16  2  0
 15 13  1  0
 17 18  1  0
 19 15  1  0
 20 26  1  0
 20 19  1  0
 20 21  1  1
 22 23  1  0
 22 21  1  0
 24 25  1  0
 24 23  1  0
 26 28  1  0
 27 26  2  0
M  END
$$$$
