SYK.pdb
     RDKit          3D

 28 28  0  0  1  0  0  0  0  0999 V2000
   28.4345  -17.6102  -15.3106 O   0  0  0  0  0  0  0  0  0  0  0  0
   27.4417  -18.5410  -15.0290 C   0  0  0  0  0  0  0  0  0  0  0  0
   28.0074  -19.6893  -14.1898 C   0  0  2  0  0  0  0  0  0  0  0  0
   28.8149  -20.5056  -15.0604 N   0  0  0  0  0  0  0  0  0  0  0  0
   26.8984  -20.4544  -13.5513 C   0  0  0  0  0  0  0  0  0  0  0  0
   26.5702  -21.5329  -14.0539 O   0  0  0  0  0  0  0  0  0  0  0  0
   29.4286  -20.4482   -6.7576 O   0  0  0  0  0  0  0  0  0  0  0  0
   28.3659  -20.4773   -7.6551 C   0  0  0  0  0  0  0  0  0  0  0  0
   28.3704  -21.2680   -8.7816 C   0  0  0  0  0  0  0  0  0  0  0  0
   27.3028  -21.2998   -9.6869 C   0  0  0  0  0  0  0  0  0  0  0  0
   26.2079  -20.5323   -9.4711 C   0  0  0  0  0  0  0  0  0  0  0  0
   24.9920  -20.4327  -10.2838 C   0  0  0  0  0  0  0  0  0  0  0  0
   25.1613  -20.6587  -11.7590 C   0  0  2  0  0  0  0  0  0  0  0  0
   26.2194  -19.9905  -12.4036 N   0  0  0  0  0  0  0  0  0  0  0  0
   23.8560  -20.4913  -12.4106 C   0  0  0  0  0  0  0  0  0  0  0  0
   23.5251  -19.3122  -12.7630 O   0  0  0  0  0  0  0  0  0  0  0  0
   26.2197  -19.7297   -8.3149 C   0  0  0  0  0  0  0  0  0  0  0  0
   27.2690  -19.7040   -7.4332 C   0  0  0  0  0  0  0  0  0  0  0  0
   22.9725  -21.5251  -12.6636 N   0  0  0  0  0  0  0  0  0  0  0  0
   21.6575  -21.2807  -13.4071 C   0  0  1  0  0  0  0  0  0  0  0  0
   21.2660  -22.5981  -13.9362 C   0  0  0  0  0  0  0  0  0  0  0  0
   19.9971  -22.7907  -14.6140 C   0  0  0  0  0  0  0  0  0  0  0  0
   19.5604  -24.1177  -15.1119 C   0  0  0  0  0  0  0  0  0  0  0  0
   18.2303  -24.1189  -15.8146 C   0  0  0  0  0  0  0  0  0  0  0  0
   17.9684  -25.4758  -16.2487 N   0  0  0  0  0  0  0  0  0  0  0  0
   20.8012  -20.8041  -12.3039 C   0  0  0  0  0  0  0  0  0  0  0  0
   19.8676  -19.9501  -12.5506 O   0  0  0  0  0  0  0  0  0  0  0  0
   20.8720  -21.1773  -10.9842 O   0  0  0  0  0  0  0  0  0  0  0  0
  2  1  1  0
  3  2  1  0
  3  4  1  6
  5 14  1  0
  5  3  1  0
  6  5  2  0
  8  7  1  0
  8 18  2  0
  9  8  1  0
 10  9  2  0
 10 11  1  0
 11 17  2  0
 12 11  1  0
 13 12  1  1
 13 14  1  0
 15 16  2  0
 15 13  1  0
 17 18  1  0
 19 15  1  0
 20 26  1  0
 20 19  1  0
 20 21  1  1
 22 23  1  0
 22 21  1  0
 24 25  1  0
 24 23  1  0
 26 28  1  0
 27 26  2  0
M  END
$$$$
