WMW.pdb
     RDKit          3D

 37 40  0  0  1  0  0  0  0  0999 V2000
   28.7119  -20.4541  -16.1090 N   0  0  0  0  0  0  0  0  0  0  0  0
   27.6930  -19.7475  -15.3022 C   0  0  1  0  0  0  0  0  0  0  0  0
   26.6306  -19.3368  -16.3040 C   0  0  0  0  0  0  0  0  0  0  0  0
   27.0200  -18.1565  -17.1138 C   0  0  0  0  0  0  0  0  0  0  0  0
   27.1622  -18.1516  -18.5028 C   0  0  0  0  0  0  0  0  0  0  0  0
   27.4881  -16.9149  -18.9038 N   0  0  0  0  0  0  0  0  0  0  0  0
   27.5672  -16.1034  -17.8327 C   0  0  0  0  0  0  0  0  0  0  0  0
   27.8780  -14.7503  -17.7517 C   0  0  0  0  0  0  0  0  0  0  0  0
   27.9040  -14.1338  -16.5195 C   0  0  0  0  0  0  0  0  0  0  0  0
   27.6177  -14.8901  -15.3999 C   0  0  0  0  0  0  0  0  0  0  0  0
   27.3103  -16.2368  -15.4992 C   0  0  0  0  0  0  0  0  0  0  0  0
   27.2788  -16.8661  -16.7187 C   0  0  0  0  0  0  0  0  0  0  0  0
   27.2299  -20.6781  -14.2692 C   0  0  0  0  0  0  0  0  0  0  0  0
   26.8342  -21.8420  -14.5745 O   0  0  0  0  0  0  0  0  0  0  0  0
   25.2720  -20.9748   -6.5698 C   0  0  0  0  0  0  0  0  0  0  0  0
   26.2974  -20.2720   -7.9056 S   0  0  0  0  0  0  0  0  0  0  0  0
   25.7637  -21.0321   -9.4886 C   0  0  0  0  0  0  0  0  0  0  0  0
   26.6127  -20.4244  -10.5591 C   0  0  0  0  0  0  0  0  0  0  0  0
   26.2859  -20.9971  -11.9407 C   0  0  2  0  0  0  0  0  0  0  0  0
   27.1908  -20.3652  -12.8793 N   0  0  0  0  0  0  0  0  0  0  0  0
   24.8645  -20.7525  -12.2770 C   0  0  0  0  0  0  0  0  0  0  0  0
   24.4747  -19.5581  -12.3747 O   0  0  0  0  0  0  0  0  0  0  0  0
   23.9231  -21.7735  -12.4942 N   0  0  0  0  0  0  0  0  0  0  0  0
   22.5263  -21.3989  -12.8038 C   0  0  1  0  0  0  0  0  0  0  0  0
   21.8574  -22.5321  -13.5037 C   0  0  0  0  0  0  0  0  0  0  0  0
   20.4271  -22.4147  -13.7695 C   0  0  0  0  0  0  0  0  0  0  0  0
   19.8759  -21.5736  -14.7491 C   0  0  0  0  0  0  0  0  0  0  0  0
   18.5358  -21.6671  -14.7260 N   0  0  0  0  0  0  0  0  0  0  0  0
   18.1631  -22.5261  -13.7842 C   0  0  0  0  0  0  0  0  0  0  0  0
   16.9182  -22.9606  -13.3947 C   0  0  0  0  0  0  0  0  0  0  0  0
   16.8315  -23.8983  -12.3723 C   0  0  0  0  0  0  0  0  0  0  0  0
   17.9763  -24.3928  -11.7499 C   0  0  0  0  0  0  0  0  0  0  0  0
   19.1861  -23.9203  -12.1822 C   0  0  0  0  0  0  0  0  0  0  0  0
   19.3204  -22.9909  -13.1914 C   0  0  0  0  0  0  0  0  0  0  0  0
   21.8949  -21.0382  -11.5309 C   0  0  0  0  0  0  0  0  0  0  0  0
   22.3293  -21.6404  -10.3619 O   0  0  0  0  0  0  0  0  0  0  0  0
   20.9591  -20.2008  -11.4009 O   0  0  0  0  0  0  0  0  0  0  0  0
  2  1  1  6
  3  2  1  0
  4  5  2  0
  4  3  1  0
  6  5  1  0
  7 12  2  0
  7  6  1  0
  8  7  1  0
  9 10  1  0
  9  8  2  0
 10 11  2  0
 11 12  1  0
 12  4  1  0
 13  2  1  0
 14 13  2  0
 16 17  1  0
 16 15  1  0
 17 18  1  0
 19 18  1  1
 19 21  1  0
 19 20  1  0
 20 13  1  0
 21 22  2  0
 23 24  1  0
 23 21  1  0
 25 26  1  0
 24 25  1  1
 26 27  2  0
 27 28  1  0
 29 28  1  0
 30 29  2  0
 31 30  1  0
 32 33  1  0
 32 31  2  0
 33 34  2  0
 34 26  1  0
 34 29  1  0
 35 36  1  0
 35 24  1  0
 37 35  2  0
M  END
$$$$
