WMW.pdb
     RDKit          3D

 37 40  0  0  1  0  0  0  0  0999 V2000
   25.8740  -18.7226  -13.4736 N   0  0  0  0  0  0  0  0  0  0  0  0
   25.9516  -20.0382  -14.1454 C   0  0  1  0  0  0  0  0  0  0  0  0
   25.9999  -19.7089  -15.6252 C   0  0  0  0  0  0  0  0  0  0  0  0
   24.8082  -18.9599  -16.0937 C   0  0  0  0  0  0  0  0  0  0  0  0
   24.8279  -17.6543  -16.5880 C   0  0  0  0  0  0  0  0  0  0  0  0
   23.5852  -17.3059  -16.9499 N   0  0  0  0  0  0  0  0  0  0  0  0
   22.7460  -18.3313  -16.7128 C   0  0  0  0  0  0  0  0  0  0  0  0
   21.3745  -18.4356  -16.9184 C   0  0  0  0  0  0  0  0  0  0  0  0
   20.7263  -19.6045  -16.5827 C   0  0  0  0  0  0  0  0  0  0  0  0
   21.4699  -20.6388  -16.0493 C   0  0  0  0  0  0  0  0  0  0  0  0
   22.8352  -20.5173  -15.8513 C   0  0  0  0  0  0  0  0  0  0  0  0
   23.4967  -19.3607  -16.1812 C   0  0  0  0  0  0  0  0  0  0  0  0
   27.1426  -20.7216  -13.6335 C   0  0  0  0  0  0  0  0  0  0  0  0
   27.6260  -21.7238  -14.2387 O   0  0  0  0  0  0  0  0  0  0  0  0
   32.8431  -22.1723   -8.5278 C   0  0  0  0  0  0  0  0  0  0  0  0
   32.0468  -21.0865   -9.7594 S   0  0  0  0  0  0  0  0  0  0  0  0
   30.3569  -21.7301  -10.0729 C   0  0  0  0  0  0  0  0  0  0  0  0
   29.7418  -20.8284  -11.0950 C   0  0  0  0  0  0  0  0  0  0  0  0
   28.3189  -21.2624  -11.4566 C   0  0  2  0  0  0  0  0  0  0  0  0
   27.8379  -20.3275  -12.4535 N   0  0  0  0  0  0  0  0  0  0  0  0
   27.4641  -21.2857  -10.2475 C   0  0  0  0  0  0  0  0  0  0  0  0
   27.7401  -22.1169   -9.3414 O   0  0  0  0  0  0  0  0  0  0  0  0
   26.3622  -20.4356  -10.0495 N   0  0  0  0  0  0  0  0  0  0  0  0
   25.3157  -20.8405   -9.0861 C   0  0  1  0  0  0  0  0  0  0  0  0
   25.2924  -19.8744   -7.9514 C   0  0  0  0  0  0  0  0  0  0  0  0
   26.5723  -19.4777   -7.3730 C   0  0  0  0  0  0  0  0  0  0  0  0
   27.3560  -18.4158   -7.8516 C   0  0  0  0  0  0  0  0  0  0  0  0
   28.4857  -18.3241   -7.1304 N   0  0  0  0  0  0  0  0  0  0  0  0
   28.4977  -19.2672   -6.1954 C   0  0  0  0  0  0  0  0  0  0  0  0
   29.4189  -19.5642   -5.2190 C   0  0  0  0  0  0  0  0  0  0  0  0
   29.1516  -20.6165   -4.3511 C   0  0  0  0  0  0  0  0  0  0  0  0
   27.9778  -21.3599   -4.4610 C   0  0  0  0  0  0  0  0  0  0  0  0
   27.1011  -21.0156   -5.4542 C   0  0  0  0  0  0  0  0  0  0  0  0
   27.3242  -19.9810   -6.3375 C   0  0  0  0  0  0  0  0  0  0  0  0
   24.0560  -20.9012   -9.8334 C   0  0  0  0  0  0  0  0  0  0  0  0
   24.0451  -20.5619  -11.1761 O   0  0  0  0  0  0  0  0  0  0  0  0
   22.9433  -21.2454   -9.3462 O   0  0  0  0  0  0  0  0  0  0  0  0
  2  1  1  1
  3  2  1  0
  4  5  2  0
  4  3  1  0
  6  5  1  0
  7 12  2  0
  7  6  1  0
  8  7  1  0
  9 10  1  0
  9  8  2  0
 10 11  2  0
 11 12  1  0
 12  4  1  0
 13  2  1  0
 14 13  2  0
 16 17  1  0
 16 15  1  0
 17 18  1  0
 19 18  1  1
 19 21  1  0
 19 20  1  0
 20 13  1  0
 21 22  2  0
 23 24  1  0
 23 21  1  0
 25 26  1  0
 24 25  1  1
 26 27  2  0
 27 28  1  0
 29 28  1  0
 30 29  2  0
 31 30  1  0
 32 33  1  0
 32 31  2  0
 33 34  2  0
 34 26  1  0
 34 29  1  0
 35 36  1  0
 35 24  1  0
 37 35  2  0
M  END
$$$$
