WMW.pdb
     RDKit          3D

 37 40  0  0  1  0  0  0  0  0999 V2000
   25.9591  -19.8991  -21.1141 N   0  0  0  0  0  0  0  0  0  0  0  0
   24.5582  -19.8577  -20.6406 C   0  0  1  0  0  0  0  0  0  0  0  0
   23.9757  -21.1958  -21.0543 C   0  0  0  0  0  0  0  0  0  0  0  0
   23.6926  -21.2824  -22.5079 C   0  0  0  0  0  0  0  0  0  0  0  0
   24.5198  -21.9000  -23.4481 C   0  0  0  0  0  0  0  0  0  0  0  0
   23.9422  -21.8225  -24.6552 N   0  0  0  0  0  0  0  0  0  0  0  0
   22.7659  -21.1769  -24.5478 C   0  0  0  0  0  0  0  0  0  0  0  0
   21.8259  -20.8548  -25.5209 C   0  0  0  0  0  0  0  0  0  0  0  0
   20.6851  -20.1708  -25.1604 C   0  0  0  0  0  0  0  0  0  0  0  0
   20.5162  -19.8272  -23.8335 C   0  0  0  0  0  0  0  0  0  0  0  0
   21.4630  -20.1561  -22.8778 C   0  0  0  0  0  0  0  0  0  0  0  0
   22.6042  -20.8382  -23.2193 C   0  0  0  0  0  0  0  0  0  0  0  0
   24.5918  -19.6285  -19.1935 C   0  0  0  0  0  0  0  0  0  0  0  0
   25.2394  -20.4031  -18.4287 O   0  0  0  0  0  0  0  0  0  0  0  0
   26.7654  -16.2155  -14.6213 C   0  0  0  0  0  0  0  0  0  0  0  0
   26.5153  -17.1025  -16.1962 S   0  0  0  0  0  0  0  0  0  0  0  0
   25.2962  -16.1576  -17.1908 C   0  0  0  0  0  0  0  0  0  0  0  0
   23.9622  -16.7822  -16.9330 C   0  0  0  0  0  0  0  0  0  0  0  0
   23.9975  -18.3012  -17.1199 C   0  0  2  0  0  0  0  0  0  0  0  0
   23.9250  -18.5483  -18.5457 N   0  0  0  0  0  0  0  0  0  0  0  0
   22.8830  -18.9376  -16.3807 C   0  0  0  0  0  0  0  0  0  0  0  0
   21.7070  -18.7208  -16.7781 O   0  0  0  0  0  0  0  0  0  0  0  0
   23.0584  -19.7697  -15.2615 N   0  0  0  0  0  0  0  0  0  0  0  0
   21.8631  -20.2208  -14.5164 C   0  0  1  0  0  0  0  0  0  0  0  0
   22.2760  -21.2014  -13.4727 C   0  0  0  0  0  0  0  0  0  0  0  0
   21.2999  -21.5475  -12.4443 C   0  0  0  0  0  0  0  0  0  0  0  0
   20.4432  -22.6574  -12.5150 C   0  0  0  0  0  0  0  0  0  0  0  0
   19.6451  -22.6846  -11.4347 N   0  0  0  0  0  0  0  0  0  0  0  0
   19.9238  -21.6529  -10.6461 C   0  0  0  0  0  0  0  0  0  0  0  0
   19.3943  -21.2665   -9.4376 C   0  0  0  0  0  0  0  0  0  0  0  0
   19.9059  -20.1310   -8.8205 C   0  0  0  0  0  0  0  0  0  0  0  0
   20.9333  -19.3940   -9.4068 C   0  0  0  0  0  0  0  0  0  0  0  0
   21.4174  -19.8295  -10.6109 C   0  0  0  0  0  0  0  0  0  0  0  0
   20.9408  -20.9486  -11.2596 C   0  0  0  0  0  0  0  0  0  0  0  0
   21.2257  -19.0172  -13.9740 C   0  0  0  0  0  0  0  0  0  0  0  0
   19.8468  -18.9741  -13.8527 O   0  0  0  0  0  0  0  0  0  0  0  0
   21.8416  -17.9820  -13.5962 O   0  0  0  0  0  0  0  0  0  0  0  0
  2  1  1  1
  3  2  1  0
  4  5  2  0
  4  3  1  0
  6  5  1  0
  7 12  2  0
  7  6  1  0
  8  7  1  0
  9 10  1  0
  9  8  2  0
 10 11  2  0
 11 12  1  0
 12  4  1  0
 13  2  1  0
 14 13  2  0
 16 17  1  0
 16 15  1  0
 17 18  1  0
 19 18  1  6
 19 21  1  0
 19 20  1  0
 20 13  1  0
 21 22  2  0
 23 24  1  0
 23 21  1  0
 25 26  1  0
 24 25  1  1
 26 27  2  0
 27 28  1  0
 29 28  1  0
 30 29  2  0
 31 30  1  0
 32 33  1  0
 32 31  2  0
 33 34  2  0
 34 26  1  0
 34 29  1  0
 35 36  1  0
 35 24  1  0
 37 35  2  0
M  END
$$$$
