WMW.pdb
     RDKit          3D

 37 40  0  0  1  0  0  0  0  0999 V2000
   25.0553  -17.5340  -15.8718 N   0  0  0  0  0  0  0  0  0  0  0  0
   26.1415  -18.1082  -15.0479 C   0  0  1  0  0  0  0  0  0  0  0  0
   26.8141  -16.9065  -14.4118 C   0  0  0  0  0  0  0  0  0  0  0  0
   27.5102  -16.0412  -15.3953 C   0  0  0  0  0  0  0  0  0  0  0  0
   27.2142  -14.6966  -15.6277 C   0  0  0  0  0  0  0  0  0  0  0  0
   28.0577  -14.2177  -16.5527 N   0  0  0  0  0  0  0  0  0  0  0  0
   28.8986  -15.1947  -16.9403 C   0  0  0  0  0  0  0  0  0  0  0  0
   29.9301  -15.1746  -17.8728 C   0  0  0  0  0  0  0  0  0  0  0  0
   30.6553  -16.3232  -18.1056 C   0  0  0  0  0  0  0  0  0  0  0  0
   30.3273  -17.4626  -17.3973 C   0  0  0  0  0  0  0  0  0  0  0  0
   29.2965  -17.4644  -16.4724 C   0  0  0  0  0  0  0  0  0  0  0  0
   28.5651  -16.3290  -16.2275 C   0  0  0  0  0  0  0  0  0  0  0  0
   25.5252  -19.0367  -14.0963 C   0  0  0  0  0  0  0  0  0  0  0  0
   24.4610  -18.7265  -13.4835 O   0  0  0  0  0  0  0  0  0  0  0  0
   22.3934  -25.1242  -12.5510 C   0  0  0  0  0  0  0  0  0  0  0  0
   23.3880  -23.8757  -13.4352 S   0  0  0  0  0  0  0  0  0  0  0  0
   24.9650  -23.6578  -12.5220 C   0  0  0  0  0  0  0  0  0  0  0  0
   25.7599  -22.6452  -13.2827 C   0  0  0  0  0  0  0  0  0  0  0  0
   25.4675  -21.2185  -12.8112 C   0  0  2  0  0  0  0  0  0  0  0  0
   26.0503  -20.3265  -13.7929 N   0  0  0  0  0  0  0  0  0  0  0  0
   26.0197  -21.0006  -11.4543 C   0  0  0  0  0  0  0  0  0  0  0  0
   27.2365  -21.2643  -11.2594 O   0  0  0  0  0  0  0  0  0  0  0  0
   25.2675  -20.5169  -10.3698 N   0  0  0  0  0  0  0  0  0  0  0  0
   25.6425  -20.9347   -9.0016 C   0  0  1  0  0  0  0  0  0  0  0  0
   26.0081  -19.7304   -8.2032 C   0  0  0  0  0  0  0  0  0  0  0  0
   27.3522  -19.6753   -7.6371 C   0  0  0  0  0  0  0  0  0  0  0  0
   28.5100  -19.4085   -8.3849 C   0  0  0  0  0  0  0  0  0  0  0  0
   29.5885  -19.4584   -7.5854 N   0  0  0  0  0  0  0  0  0  0  0  0
   29.2126  -19.7432   -6.3438 C   0  0  0  0  0  0  0  0  0  0  0  0
   29.9405  -19.8847   -5.1861 C   0  0  0  0  0  0  0  0  0  0  0  0
   29.2636  -20.1706   -4.0062 C   0  0  0  0  0  0  0  0  0  0  0  0
   27.8772  -20.3126   -3.9879 C   0  0  0  0  0  0  0  0  0  0  0  0
   27.2096  -20.1609   -5.1732 C   0  0  0  0  0  0  0  0  0  0  0  0
   27.8385  -19.8779   -6.3669 C   0  0  0  0  0  0  0  0  0  0  0  0
   24.4998  -21.6758   -8.4593 C   0  0  0  0  0  0  0  0  0  0  0  0
   24.6306  -22.3368   -7.2494 O   0  0  0  0  0  0  0  0  0  0  0  0
   23.3702  -21.7691   -9.0154 O   0  0  0  0  0  0  0  0  0  0  0  0
  2  1  1  6
  3  2  1  0
  4  5  2  0
  4  3  1  0
  6  5  1  0
  7 12  2  0
  7  6  1  0
  8  7  1  0
  9 10  1  0
  9  8  2  0
 10 11  2  0
 11 12  1  0
 12  4  1  0
 13  2  1  0
 14 13  2  0
 16 17  1  0
 16 15  1  0
 17 18  1  0
 19 18  1  6
 19 21  1  0
 19 20  1  0
 20 13  1  0
 21 22  2  0
 23 24  1  0
 23 21  1  0
 25 26  1  0
 24 25  1  1
 26 27  2  0
 27 28  1  0
 29 28  1  0
 30 29  2  0
 31 30  1  0
 32 33  1  0
 32 31  2  0
 33 34  2  0
 34 26  1  0
 34 29  1  0
 35 36  1  0
 35 24  1  0
 37 35  2  0
M  END
$$$$
