WMW.pdb
     RDKit          3D

 37 40  0  0  1  0  0  0  0  0999 V2000
   27.1408  -21.1328  -14.6910 N   0  0  0  0  0  0  0  0  0  0  0  0
   27.1576  -20.1518  -13.5839 C   0  0  1  0  0  0  0  0  0  0  0  0
   26.2174  -19.0505  -14.0355 C   0  0  0  0  0  0  0  0  0  0  0  0
   26.7593  -18.2472  -15.1588 C   0  0  0  0  0  0  0  0  0  0  0  0
   26.0104  -17.3774  -15.9538 C   0  0  0  0  0  0  0  0  0  0  0  0
   26.8224  -16.7935  -16.8462 N   0  0  0  0  0  0  0  0  0  0  0  0
   28.0783  -17.2452  -16.6711 C   0  0  0  0  0  0  0  0  0  0  0  0
   29.2481  -16.9355  -17.3566 C   0  0  0  0  0  0  0  0  0  0  0  0
   30.4287  -17.5454  -16.9915 C   0  0  0  0  0  0  0  0  0  0  0  0
   30.4061  -18.4503  -15.9484 C   0  0  0  0  0  0  0  0  0  0  0  0
   29.2317  -18.7468  -15.2769 C   0  0  0  0  0  0  0  0  0  0  0  0
   28.0474  -18.1475  -15.6268 C   0  0  0  0  0  0  0  0  0  0  0  0
   26.7349  -20.8547  -12.3695 C   0  0  0  0  0  0  0  0  0  0  0  0
   25.9290  -21.8299  -12.4314 O   0  0  0  0  0  0  0  0  0  0  0  0
   27.0763  -20.3701   -4.4429 C   0  0  0  0  0  0  0  0  0  0  0  0
   27.7175  -19.8737   -6.0776 S   0  0  0  0  0  0  0  0  0  0  0  0
   26.6635  -20.6559   -7.3604 C   0  0  0  0  0  0  0  0  0  0  0  0
   27.3183  -20.3778   -8.6757 C   0  0  0  0  0  0  0  0  0  0  0  0
   26.4875  -20.9029   -9.8493 C   0  0  2  0  0  0  0  0  0  0  0  0
   27.1830  -20.5154  -11.0598 N   0  0  0  0  0  0  0  0  0  0  0  0
   25.1115  -20.3582   -9.7915 C   0  0  0  0  0  0  0  0  0  0  0  0
   24.9531  -19.1237   -9.9892 O   0  0  0  0  0  0  0  0  0  0  0  0
   23.9704  -21.1360   -9.5291 N   0  0  0  0  0  0  0  0  0  0  0  0
   22.6523  -20.4680   -9.4710 C   0  0  1  0  0  0  0  0  0  0  0  0
   22.3219  -19.9157  -10.8154 C   0  0  0  0  0  0  0  0  0  0  0  0
   22.1325  -20.8631  -11.9092 C   0  0  0  0  0  0  0  0  0  0  0  0
   21.3030  -21.9933  -11.8357 C   0  0  0  0  0  0  0  0  0  0  0  0
   21.3663  -22.6789  -12.9893 N   0  0  0  0  0  0  0  0  0  0  0  0
   22.1929  -22.0665  -13.8293 C   0  0  0  0  0  0  0  0  0  0  0  0
   22.5673  -22.3713  -15.1166 C   0  0  0  0  0  0  0  0  0  0  0  0
   23.4512  -21.5210  -15.7706 C   0  0  0  0  0  0  0  0  0  0  0  0
   23.9520  -20.3819  -15.1428 C   0  0  0  0  0  0  0  0  0  0  0  0
   23.5420  -20.1337  -13.8606 C   0  0  0  0  0  0  0  0  0  0  0  0
   22.6682  -20.9485  -13.1728 C   0  0  0  0  0  0  0  0  0  0  0  0
   21.6934  -21.4689   -8.9940 C   0  0  0  0  0  0  0  0  0  0  0  0
   20.3664  -21.1115   -8.8223 O   0  0  0  0  0  0  0  0  0  0  0  0
   21.9786  -22.6668   -8.7156 O   0  0  0  0  0  0  0  0  0  0  0  0
  2  1  1  6
  3  2  1  0
  4  5  2  0
  4  3  1  0
  6  5  1  0
  7 12  2  0
  7  6  1  0
  8  7  1  0
  9 10  1  0
  9  8  2  0
 10 11  2  0
 11 12  1  0
 12  4  1  0
 13  2  1  0
 14 13  2  0
 16 17  1  0
 16 15  1  0
 17 18  1  0
 19 18  1  1
 19 21  1  0
 19 20  1  0
 20 13  1  0
 21 22  2  0
 23 24  1  0
 23 21  1  0
 25 26  1  0
 24 25  1  6
 26 27  2  0
 27 28  1  0
 29 28  1  0
 30 29  2  0
 31 30  1  0
 32 33  1  0
 32 31  2  0
 33 34  2  0
 34 26  1  0
 34 29  1  0
 35 36  1  0
 35 24  1  0
 37 35  2  0
M  END
$$$$
