WMW.pdb
     RDKit          3D

 37 40  0  0  1  0  0  0  0  0999 V2000
   17.2710  -18.8024  -16.8436 N   0  0  0  0  0  0  0  0  0  0  0  0
   18.6125  -18.7992  -17.4671 C   0  0  1  0  0  0  0  0  0  0  0  0
   19.0794  -17.3599  -17.3607 C   0  0  0  0  0  0  0  0  0  0  0  0
   18.8893  -16.5925  -18.6159 C   0  0  0  0  0  0  0  0  0  0  0  0
   17.7966  -15.7680  -18.8912 C   0  0  0  0  0  0  0  0  0  0  0  0
   17.9668  -15.2059  -20.0961 N   0  0  0  0  0  0  0  0  0  0  0  0
   19.1295  -15.6282  -20.6268 C   0  0  0  0  0  0  0  0  0  0  0  0
   19.7220  -15.3256  -21.8481 C   0  0  0  0  0  0  0  0  0  0  0  0
   20.9314  -15.8998  -22.1749 C   0  0  0  0  0  0  0  0  0  0  0  0
   21.5156  -16.7629  -21.2688 C   0  0  0  0  0  0  0  0  0  0  0  0
   20.9112  -17.0530  -20.0570 C   0  0  0  0  0  0  0  0  0  0  0  0
   19.7074  -16.4889  -19.7151 C   0  0  0  0  0  0  0  0  0  0  0  0
   19.4378  -19.7637  -16.7350 C   0  0  0  0  0  0  0  0  0  0  0  0
   19.5618  -19.6885  -15.4767 O   0  0  0  0  0  0  0  0  0  0  0  0
   23.4269  -25.2447  -14.7982 C   0  0  0  0  0  0  0  0  0  0  0  0
   22.0943  -24.2452  -15.5432 S   0  0  0  0  0  0  0  0  0  0  0  0
   22.7358  -23.5174  -17.1011 C   0  0  0  0  0  0  0  0  0  0  0  0
   21.6315  -22.6824  -17.6662 C   0  0  0  0  0  0  0  0  0  0  0  0
   21.2577  -21.5253  -16.7362 C   0  0  2  0  0  0  0  0  0  0  0  0
   20.1439  -20.8354  -17.3548 N   0  0  0  0  0  0  0  0  0  0  0  0
   22.4233  -20.6365  -16.5247 C   0  0  0  0  0  0  0  0  0  0  0  0
   22.7922  -19.9038  -17.4813 O   0  0  0  0  0  0  0  0  0  0  0  0
   23.1437  -20.5610  -15.3200 N   0  0  0  0  0  0  0  0  0  0  0  0
   24.2332  -19.5677  -15.2039 C   0  0  1  0  0  0  0  0  0  0  0  0
   24.0469  -18.7783  -13.9534 C   0  0  0  0  0  0  0  0  0  0  0  0
   24.3127  -19.4475  -12.6839 C   0  0  0  0  0  0  0  0  0  0  0  0
   25.5911  -19.5848  -12.1201 C   0  0  0  0  0  0  0  0  0  0  0  0
   25.5082  -20.2730  -10.9693 N   0  0  0  0  0  0  0  0  0  0  0  0
   24.2431  -20.6017  -10.7342 C   0  0  0  0  0  0  0  0  0  0  0  0
   23.6623  -21.2842   -9.6916 C   0  0  0  0  0  0  0  0  0  0  0  0
   22.2843  -21.4662   -9.7020 C   0  0  0  0  0  0  0  0  0  0  0  0
   21.5006  -20.9710  -10.7426 C   0  0  0  0  0  0  0  0  0  0  0  0
   22.1381  -20.3011  -11.7519 C   0  0  0  0  0  0  0  0  0  0  0  0
   23.5011  -20.0973  -11.7840 C   0  0  0  0  0  0  0  0  0  0  0  0
   25.4925  -20.3169  -15.2449 C   0  0  0  0  0  0  0  0  0  0  0  0
   25.4735  -21.6891  -15.0583 O   0  0  0  0  0  0  0  0  0  0  0  0
   26.6304  -19.8063  -15.4406 O   0  0  0  0  0  0  0  0  0  0  0  0
  2  1  1  1
  3  2  1  0
  4  5  2  0
  4  3  1  0
  6  5  1  0
  7 12  2  0
  7  6  1  0
  8  7  1  0
  9 10  1  0
  9  8  2  0
 10 11  2  0
 11 12  1  0
 12  4  1  0
 13  2  1  0
 14 13  2  0
 16 17  1  0
 16 15  1  0
 17 18  1  0
 19 18  1  6
 19 21  1  0
 19 20  1  0
 20 13  1  0
 21 22  2  0
 23 24  1  0
 23 21  1  0
 25 26  1  0
 24 25  1  1
 26 27  2  0
 27 28  1  0
 29 28  1  0
 30 29  2  0
 31 30  1  0
 32 33  1  0
 32 31  2  0
 33 34  2  0
 34 26  1  0
 34 29  1  0
 35 36  1  0
 35 24  1  0
 37 35  2  0
M  END
$$$$
