WMW.pdb
     RDKit          3D

 37 40  0  0  1  0  0  0  0  0999 V2000
   24.7489  -20.2165  -16.4039 N   0  0  0  0  0  0  0  0  0  0  0  0
   25.1754  -19.4532  -15.2107 C   0  0  1  0  0  0  0  0  0  0  0  0
   23.9379  -18.6856  -14.7862 C   0  0  0  0  0  0  0  0  0  0  0  0
   23.6716  -17.4971  -15.6330 C   0  0  0  0  0  0  0  0  0  0  0  0
   22.4970  -17.2767  -16.3550 C   0  0  0  0  0  0  0  0  0  0  0  0
   22.5829  -16.0927  -16.9774 N   0  0  0  0  0  0  0  0  0  0  0  0
   23.7695  -15.5236  -16.6945 C   0  0  0  0  0  0  0  0  0  0  0  0
   24.3063  -14.3106  -17.1123 C   0  0  0  0  0  0  0  0  0  0  0  0
   25.5655  -13.9451  -16.6879 C   0  0  0  0  0  0  0  0  0  0  0  0
   26.2542  -14.8054  -15.8555 C   0  0  0  0  0  0  0  0  0  0  0  0
   25.7040  -16.0097  -15.4495 C   0  0  0  0  0  0  0  0  0  0  0  0
   24.4507  -16.3886  -15.8618 C   0  0  0  0  0  0  0  0  0  0  0  0
   25.6617  -20.4204  -14.2229 C   0  0  0  0  0  0  0  0  0  0  0  0
   25.0536  -21.5152  -14.0328 O   0  0  0  0  0  0  0  0  0  0  0  0
   31.3287  -22.0304  -11.0086 C   0  0  0  0  0  0  0  0  0  0  0  0
   31.1294  -21.8606  -12.8145 S   0  0  0  0  0  0  0  0  0  0  0  0
   29.3327  -21.8659  -13.1888 C   0  0  0  0  0  0  0  0  0  0  0  0
   28.6782  -21.0223  -12.1419 C   0  0  0  0  0  0  0  0  0  0  0  0
   27.1528  -21.0350  -12.2700 C   0  0  2  0  0  0  0  0  0  0  0  0
   26.8237  -20.2207  -13.4223 N   0  0  0  0  0  0  0  0  0  0  0  0
   26.5267  -20.5301  -11.0264 C   0  0  0  0  0  0  0  0  0  0  0  0
   25.9051  -19.4351  -11.0771 O   0  0  0  0  0  0  0  0  0  0  0  0
   26.5843  -21.1996   -9.7917 N   0  0  0  0  0  0  0  0  0  0  0  0
   26.0321  -20.5308   -8.5937 C   0  0  1  0  0  0  0  0  0  0  0  0
   25.7573  -21.5524   -7.5438 C   0  0  0  0  0  0  0  0  0  0  0  0
   26.0345  -21.1904   -6.1573 C   0  0  0  0  0  0  0  0  0  0  0  0
   25.2257  -21.5610   -5.0712 C   0  0  0  0  0  0  0  0  0  0  0  0
   25.7289  -21.0500   -3.9352 N   0  0  0  0  0  0  0  0  0  0  0  0
   26.8307  -20.3590   -4.2046 C   0  0  0  0  0  0  0  0  0  0  0  0
   27.6951  -19.6745   -3.3834 C   0  0  0  0  0  0  0  0  0  0  0  0
   28.7983  -19.0494   -3.9529 C   0  0  0  0  0  0  0  0  0  0  0  0
   29.0309  -19.1100   -5.3258 C   0  0  0  0  0  0  0  0  0  0  0  0
   28.1334  -19.8060   -6.0898 C   0  0  0  0  0  0  0  0  0  0  0  0
   27.0259  -20.4407   -5.5692 C   0  0  0  0  0  0  0  0  0  0  0  0
   27.0113  -19.5181   -8.1877 C   0  0  0  0  0  0  0  0  0  0  0  0
   26.5761  -18.3707   -7.5459 O   0  0  0  0  0  0  0  0  0  0  0  0
   28.2566  -19.6008   -8.3780 O   0  0  0  0  0  0  0  0  0  0  0  0
  2  1  1  6
  3  2  1  0
  4  5  2  0
  4  3  1  0
  6  5  1  0
  7 12  2  0
  7  6  1  0
  8  7  1  0
  9 10  1  0
  9  8  2  0
 10 11  2  0
 11 12  1  0
 12  4  1  0
 13  2  1  0
 14 13  2  0
 16 17  1  0
 16 15  1  0
 17 18  1  0
 19 18  1  1
 19 21  1  0
 19 20  1  0
 20 13  1  0
 21 22  2  0
 23 24  1  0
 23 21  1  0
 25 26  1  0
 24 25  1  1
 26 27  2  0
 27 28  1  0
 29 28  1  0
 30 29  2  0
 31 30  1  0
 32 33  1  0
 32 31  2  0
 33 34  2  0
 34 26  1  0
 34 29  1  0
 35 36  1  0
 35 24  1  0
 37 35  2  0
M  END
$$$$
