WMW.pdb
     RDKit          3D

 37 40  0  0  1  0  0  0  0  0999 V2000
   25.8691  -18.9070  -11.1515 N   0  0  0  0  0  0  0  0  0  0  0  0
   26.2804  -20.1727  -11.7973 C   0  0  1  0  0  0  0  0  0  0  0  0
   25.8817  -21.2524  -10.8093 C   0  0  0  0  0  0  0  0  0  0  0  0
   26.2817  -20.9415   -9.4151 C   0  0  0  0  0  0  0  0  0  0  0  0
   25.4041  -20.5643   -8.3967 C   0  0  0  0  0  0  0  0  0  0  0  0
   26.0983  -20.3956   -7.2626 N   0  0  0  0  0  0  0  0  0  0  0  0
   27.4006  -20.6464   -7.4936 C   0  0  0  0  0  0  0  0  0  0  0  0
   28.4915  -20.5960   -6.6325 C   0  0  0  0  0  0  0  0  0  0  0  0
   29.7485  -20.8919   -7.1138 C   0  0  0  0  0  0  0  0  0  0  0  0
   29.8793  -21.2306   -8.4464 C   0  0  0  0  0  0  0  0  0  0  0  0
   28.7816  -21.2756   -9.2895 C   0  0  0  0  0  0  0  0  0  0  0  0
   27.5225  -20.9851   -8.8263 C   0  0  0  0  0  0  0  0  0  0  0  0
   25.5958  -20.2469  -13.0909 C   0  0  0  0  0  0  0  0  0  0  0  0
   24.3310  -20.2688  -13.1554 O   0  0  0  0  0  0  0  0  0  0  0  0
   29.1695  -18.0748  -17.8680 C   0  0  0  0  0  0  0  0  0  0  0  0
   28.8793  -17.0018  -16.4209 S   0  0  0  0  0  0  0  0  0  0  0  0
   27.4082  -17.6406  -15.5285 C   0  0  0  0  0  0  0  0  0  0  0  0
   27.0657  -18.9527  -16.1586 C   0  0  0  0  0  0  0  0  0  0  0  0
   25.8233  -19.5834  -15.5246 C   0  0  2  0  0  0  0  0  0  0  0  0
   26.2718  -20.2945  -14.3447 N   0  0  0  0  0  0  0  0  0  0  0  0
   25.1448  -20.4734  -16.4947 C   0  0  0  0  0  0  0  0  0  0  0  0
   25.5995  -21.6384  -16.6498 O   0  0  0  0  0  0  0  0  0  0  0  0
   24.0232  -20.0965  -17.2534 N   0  0  0  0  0  0  0  0  0  0  0  0
   23.4663  -21.0607  -18.2268 C   0  0  1  0  0  0  0  0  0  0  0  0
   22.0704  -20.6645  -18.5670 C   0  0  0  0  0  0  0  0  0  0  0  0
   21.3009  -21.5620  -19.4228 C   0  0  0  0  0  0  0  0  0  0  0  0
   20.5539  -22.6521  -18.9489 C   0  0  0  0  0  0  0  0  0  0  0  0
   19.9882  -23.2984  -19.9820 N   0  0  0  0  0  0  0  0  0  0  0  0
   20.3168  -22.6976  -21.1200 C   0  0  0  0  0  0  0  0  0  0  0  0
   19.9755  -22.9744  -22.4227 C   0  0  0  0  0  0  0  0  0  0  0  0
   20.4612  -22.1456  -23.4273 C   0  0  0  0  0  0  0  0  0  0  0  0
   21.2771  -21.0555  -23.1297 C   0  0  0  0  0  0  0  0  0  0  0  0
   21.5817  -20.8334  -21.8138 C   0  0  0  0  0  0  0  0  0  0  0  0
   21.1238  -21.6284  -20.7849 C   0  0  0  0  0  0  0  0  0  0  0  0
   24.3734  -21.0680  -19.3785 C   0  0  0  0  0  0  0  0  0  0  0  0
   24.5151  -22.2260  -20.1248 O   0  0  0  0  0  0  0  0  0  0  0  0
   25.0602  -20.0809  -19.7628 O   0  0  0  0  0  0  0  0  0  0  0  0
  2  1  1  1
  3  2  1  0
  4  5  2  0
  4  3  1  0
  6  5  1  0
  7 12  2  0
  7  6  1  0
  8  7  1  0
  9 10  1  0
  9  8  2  0
 10 11  2  0
 11 12  1  0
 12  4  1  0
 13  2  1  0
 14 13  2  0
 16 17  1  0
 16 15  1  0
 17 18  1  0
 19 18  1  6
 19 21  1  0
 19 20  1  0
 20 13  1  0
 21 22  2  0
 23 24  1  0
 23 21  1  0
 25 26  1  0
 24 25  1  6
 26 27  2  0
 27 28  1  0
 29 28  1  0
 30 29  2  0
 31 30  1  0
 32 33  1  0
 32 31  2  0
 33 34  2  0
 34 26  1  0
 34 29  1  0
 35 36  1  0
 35 24  1  0
 37 35  2  0
M  END
$$$$
