WMW.pdb
     RDKit          3D

 37 40  0  0  1  0  0  0  0  0999 V2000
   19.3608  -18.9314  -14.5186 N   0  0  0  0  0  0  0  0  0  0  0  0
   20.8349  -18.9302  -14.6418 C   0  0  1  0  0  0  0  0  0  0  0  0
   21.1573  -17.6309  -15.3549 C   0  0  0  0  0  0  0  0  0  0  0  0
   21.3722  -17.8050  -16.8124 C   0  0  0  0  0  0  0  0  0  0  0  0
   20.5194  -17.3266  -17.8090 C   0  0  0  0  0  0  0  0  0  0  0  0
   21.0353  -17.6313  -19.0080 N   0  0  0  0  0  0  0  0  0  0  0  0
   22.1955  -18.2932  -18.8409 C   0  0  0  0  0  0  0  0  0  0  0  0
   23.0772  -18.8125  -19.7827 C   0  0  0  0  0  0  0  0  0  0  0  0
   24.2130  -19.4675  -19.3584 C   0  0  0  0  0  0  0  0  0  0  0  0
   24.4356  -19.5851  -18.0004 C   0  0  0  0  0  0  0  0  0  0  0  0
   23.5465  -19.0618  -17.0766 C   0  0  0  0  0  0  0  0  0  0  0  0
   22.4111  -18.4054  -17.4820 C   0  0  0  0  0  0  0  0  0  0  0  0
   21.3875  -19.0365  -13.2886 C   0  0  0  0  0  0  0  0  0  0  0  0
   21.1665  -18.1368  -12.4249 O   0  0  0  0  0  0  0  0  0  0  0  0
   18.9717  -22.2237   -8.2674 C   0  0  0  0  0  0  0  0  0  0  0  0
   20.4845  -22.5949   -9.2180 S   0  0  0  0  0  0  0  0  0  0  0  0
   21.0014  -21.0601  -10.0815 C   0  0  0  0  0  0  0  0  0  0  0  0
   22.2642  -21.3884  -10.8119 C   0  0  0  0  0  0  0  0  0  0  0  0
   22.8326  -20.1706  -11.5450 C   0  0  2  0  0  0  0  0  0  0  0  0
   22.1897  -20.1268  -12.8427 N   0  0  0  0  0  0  0  0  0  0  0  0
   24.3063  -20.2736  -11.6499 C   0  0  0  0  0  0  0  0  0  0  0  0
   24.7968  -20.6847  -12.7355 O   0  0  0  0  0  0  0  0  0  0  0  0
   25.1918  -19.9399  -10.6104 N   0  0  0  0  0  0  0  0  0  0  0  0
   26.6456  -20.0829  -10.8411 C   0  0  1  0  0  0  0  0  0  0  0  0
   27.3863  -19.4687   -9.7029 C   0  0  0  0  0  0  0  0  0  0  0  0
   27.1385  -20.0016   -8.3670 C   0  0  0  0  0  0  0  0  0  0  0  0
   26.4063  -21.1716   -8.1105 C   0  0  0  0  0  0  0  0  0  0  0  0
   26.3290  -21.3777   -6.7852 N   0  0  0  0  0  0  0  0  0  0  0  0
   26.9712  -20.4084   -6.1432 C   0  0  0  0  0  0  0  0  0  0  0  0
   27.1799  -20.1930   -4.8015 C   0  0  0  0  0  0  0  0  0  0  0  0
   27.9212  -19.0828   -4.4141 C   0  0  0  0  0  0  0  0  0  0  0  0
   28.4452  -18.2018   -5.3584 C   0  0  0  0  0  0  0  0  0  0  0  0
   28.2019  -18.4704   -6.6784 C   0  0  0  0  0  0  0  0  0  0  0  0
   27.4724  -19.5580   -7.1089 C   0  0  0  0  0  0  0  0  0  0  0  0
   26.9066  -21.5157  -11.0086 C   0  0  0  0  0  0  0  0  0  0  0  0
   25.8497  -22.4094  -10.9598 O   0  0  0  0  0  0  0  0  0  0  0  0
   28.0462  -22.0246  -11.1986 O   0  0  0  0  0  0  0  0  0  0  0  0
  2  1  1  1
  3  2  1  0
  4  5  2  0
  4  3  1  0
  6  5  1  0
  7 12  2  0
  7  6  1  0
  8  7  1  0
  9 10  1  0
  9  8  2  0
 10 11  2  0
 11 12  1  0
 12  4  1  0
 13  2  1  0
 14 13  2  0
 16 17  1  0
 16 15  1  0
 17 18  1  0
 19 18  1  1
 19 21  1  0
 19 20  1  0
 20 13  1  0
 21 22  2  0
 23 24  1  0
 23 21  1  0
 25 26  1  0
 24 25  1  1
 26 27  2  0
 27 28  1  0
 29 28  1  0
 30 29  2  0
 31 30  1  0
 32 33  1  0
 32 31  2  0
 33 34  2  0
 34 26  1  0
 34 29  1  0
 35 36  1  0
 35 24  1  0
 37 35  2  0
M  END
$$$$
