AHI.pdb
     RDKit          3D

 24 24  0  0  1  0  0  0  0  0999 V2000
   27.8510  -21.0007  -16.9943 C   0  0  0  0  0  0  0  0  0  0  0  0
   27.8110  -21.8319  -15.7231 C   0  0  2  0  0  0  0  0  0  0  0  0
   27.2107  -23.1026  -15.9774 N   0  0  0  0  0  0  0  0  0  0  0  0
   27.0756  -21.0289  -14.7130 C   0  0  0  0  0  0  0  0  0  0  0  0
   27.5728  -19.8795  -14.4619 O   0  0  0  0  0  0  0  0  0  0  0  0
   25.9033  -21.4887  -14.0630 N   0  0  0  0  0  0  0  0  0  0  0  0
   25.2007  -20.5965  -13.1001 C   0  0  1  0  0  0  0  0  0  0  0  0
   23.7507  -20.7197  -13.4103 C   0  0  0  0  0  0  0  0  0  0  0  0
   23.2934  -19.9590  -14.5820 C   0  0  0  0  0  0  0  0  0  0  0  0
   24.0216  -19.0620  -15.3264 C   0  0  0  0  0  0  0  0  0  0  0  0
   23.2442  -18.5611  -16.2860 N   0  0  0  0  0  0  0  0  0  0  0  0
   22.0273  -19.1042  -16.1918 C   0  0  0  0  0  0  0  0  0  0  0  0
   22.0596  -19.9561  -15.1523 N   0  0  0  0  0  0  0  0  0  0  0  0
   25.6309  -21.0273  -11.7631 C   0  0  0  0  0  0  0  0  0  0  0  0
   25.7770  -22.2771  -11.5212 O   0  0  0  0  0  0  0  0  0  0  0  0
   28.4184  -19.4769   -6.5170 C   0  0  0  0  0  0  0  0  0  0  0  0
   27.4398  -20.3934   -7.1959 C   0  0  0  0  0  0  0  0  0  0  0  0
   27.1235  -19.8043   -8.5575 C   0  0  2  0  0  0  0  0  0  0  0  0
   26.4617  -18.4611   -8.3026 C   0  0  0  0  0  0  0  0  0  0  0  0
   26.1460  -20.6808   -9.3181 C   0  0  2  0  0  0  0  0  0  0  0  0
   25.9227  -20.1987  -10.6564 N   0  0  0  0  0  0  0  0  0  0  0  0
   24.9563  -20.8389   -8.4930 C   0  0  0  0  0  0  0  0  0  0  0  0
   24.8805  -21.6575   -7.3804 O   0  0  0  0  0  0  0  0  0  0  0  0
   23.9235  -20.1938   -8.8027 O   0  0  0  0  0  0  0  0  0  0  0  0
  2  1  1  6
  2  3  1  0
  4  5  2  0
  4  2  1  0
  6  4  1  0
  7 14  1  0
  7  6  1  0
  7  8  1  1
  9  8  1  0
  9 13  1  0
 10 11  1  0
 10  9  2  0
 11 12  1  0
 12 13  2  0
 14 21  1  0
 15 14  2  0
 17 16  1  0
 18 20  1  0
 18 17  1  0
 18 19  1  1
 20 22  1  0
 20 21  1  6
 22 24  2  0
 22 23  1  0
M  END
$$$$
