AHI.pdb
     RDKit          3D

 24 24  0  0  1  0  0  0  0  0999 V2000
   18.2630  -13.3130  -17.8555 C   0  0  0  0  0  0  0  0  0  0  0  0
   19.6158  -13.9919  -17.7226 C   0  0  2  0  0  0  0  0  0  0  0  0
   19.4743  -15.2655  -17.0922 N   0  0  0  0  0  0  0  0  0  0  0  0
   20.4878  -13.0578  -16.9654 C   0  0  0  0  0  0  0  0  0  0  0  0
   20.1935  -12.9158  -15.7306 O   0  0  0  0  0  0  0  0  0  0  0  0
   21.5741  -12.3641  -17.5542 N   0  0  0  0  0  0  0  0  0  0  0  0
   22.4171  -11.4713  -16.7121 C   0  0  1  0  0  0  0  0  0  0  0  0
   23.7735  -11.4920  -17.3234 C   0  0  0  0  0  0  0  0  0  0  0  0
   24.6459  -12.5873  -16.8763 C   0  0  0  0  0  0  0  0  0  0  0  0
   24.4086  -13.4743  -15.8535 C   0  0  0  0  0  0  0  0  0  0  0  0
   25.4510  -14.2969  -15.7407 N   0  0  0  0  0  0  0  0  0  0  0  0
   26.3648  -13.9745  -16.6603 C   0  0  0  0  0  0  0  0  0  0  0  0
   25.8719  -12.9320  -17.3514 N   0  0  0  0  0  0  0  0  0  0  0  0
   21.7252  -10.1758  -16.6795 C   0  0  0  0  0  0  0  0  0  0  0  0
   21.3705   -9.6237  -17.7799 O   0  0  0  0  0  0  0  0  0  0  0  0
   17.0931   -7.0833  -15.3582 C   0  0  0  0  0  0  0  0  0  0  0  0
   18.5789   -6.8806  -15.4580 C   0  0  0  0  0  0  0  0  0  0  0  0
   19.2361   -8.2466  -15.4024 C   0  0  2  0  0  0  0  0  0  0  0  0
   18.9488   -8.8069  -14.0201 C   0  0  0  0  0  0  0  0  0  0  0  0
   20.7402   -8.1361  -15.5689 C   0  0  2  0  0  0  0  0  0  0  0  0
   21.3798   -9.4258  -15.5328 N   0  0  0  0  0  0  0  0  0  0  0  0
   21.2237   -7.1599  -14.6023 C   0  0  0  0  0  0  0  0  0  0  0  0
   21.2141   -5.7912  -14.8030 O   0  0  0  0  0  0  0  0  0  0  0  0
   21.6825   -7.5769  -13.5094 O   0  0  0  0  0  0  0  0  0  0  0  0
  2  1  1  1
  2  3  1  0
  4  5  2  0
  4  2  1  0
  6  4  1  0
  7 14  1  0
  7  6  1  0
  7  8  1  6
  9  8  1  0
  9 13  1  0
 10 11  1  0
 10  9  2  0
 11 12  1  0
 12 13  2  0
 14 21  1  0
 15 14  2  0
 17 16  1  0
 18 20  1  0
 18 17  1  0
 18 19  1  1
 20 22  1  0
 20 21  1  1
 22 24  2  0
 22 23  1  0
M  END
$$$$
