AHI.pdb
     RDKit          3D

 24 24  0  0  1  0  0  0  0  0999 V2000
   15.3345  -23.9570    2.2893 C   0  0  0  0  0  0  0  0  0  0  0  0
   14.1792  -22.9801    2.1496 C   0  0  2  0  0  0  0  0  0  0  0  0
   13.5121  -23.1724    0.9015 N   0  0  0  0  0  0  0  0  0  0  0  0
   14.7528  -21.6186    2.3029 C   0  0  0  0  0  0  0  0  0  0  0  0
   15.7362  -21.3505    1.5332 O   0  0  0  0  0  0  0  0  0  0  0  0
   14.2573  -20.6702    3.2319 N   0  0  0  0  0  0  0  0  0  0  0  0
   14.8614  -19.3104    3.2848 C   0  0  1  0  0  0  0  0  0  0  0  0
   13.7263  -18.3641    3.4574 C   0  0  0  0  0  0  0  0  0  0  0  0
   13.0143  -18.0071    2.2220 C   0  0  0  0  0  0  0  0  0  0  0  0
   13.3201  -18.4040    0.9421 C   0  0  0  0  0  0  0  0  0  0  0  0
   12.4563  -17.8447    0.0954 N   0  0  0  0  0  0  0  0  0  0  0  0
   11.5930  -17.0926    0.7835 C   0  0  0  0  0  0  0  0  0  0  0  0
   11.9351  -17.1930    2.0798 N   0  0  0  0  0  0  0  0  0  0  0  0
   15.8579  -19.3532    4.3633 C   0  0  0  0  0  0  0  0  0  0  0  0
   15.6035  -20.0169    5.4294 O   0  0  0  0  0  0  0  0  0  0  0  0
   20.5309  -20.1075    6.8194 C   0  0  0  0  0  0  0  0  0  0  0  0
   20.3850  -18.7053    6.2986 C   0  0  0  0  0  0  0  0  0  0  0  0
   19.4682  -18.7542    5.0911 C   0  0  2  0  0  0  0  0  0  0  0  0
   19.7683  -17.5108    4.2717 C   0  0  0  0  0  0  0  0  0  0  0  0
   18.0106  -18.7089    5.5099 C   0  0  2  0  0  0  0  0  0  0  0  0
   17.1255  -18.7289    4.3742 N   0  0  0  0  0  0  0  0  0  0  0  0
   17.8458  -17.5872    6.4242 C   0  0  0  0  0  0  0  0  0  0  0  0
   18.0718  -17.6510    7.7874 O   0  0  0  0  0  0  0  0  0  0  0  0
   17.4736  -16.4826    5.9548 O   0  0  0  0  0  0  0  0  0  0  0  0
  2  1  1  6
  2  3  1  0
  4  5  2  0
  4  2  1  0
  6  4  1  0
  7 14  1  0
  7  6  1  0
  7  8  1  1
  9  8  1  0
  9 13  1  0
 10 11  1  0
 10  9  2  0
 11 12  1  0
 12 13  2  0
 14 21  1  0
 15 14  2  0
 17 16  1  0
 18 20  1  0
 18 17  1  0
 18 19  1  6
 20 22  1  0
 20 21  1  6
 22 24  2  0
 22 23  1  0
M  END
$$$$
