AHI.pdb
     RDKit          3D

 24 24  0  0  1  0  0  0  0  0999 V2000
   19.1551  -16.0593  -17.8231 C   0  0  0  0  0  0  0  0  0  0  0  0
   19.3213  -14.6538  -18.3758 C   0  0  2  0  0  0  0  0  0  0  0  0
   19.7008  -14.7011  -19.7518 N   0  0  0  0  0  0  0  0  0  0  0  0
   20.3233  -13.9743  -17.5153 C   0  0  0  0  0  0  0  0  0  0  0  0
   20.0114  -13.8852  -16.2799 O   0  0  0  0  0  0  0  0  0  0  0  0
   21.5447  -13.4550  -18.0119 N   0  0  0  0  0  0  0  0  0  0  0  0
   22.5009  -12.8054  -17.0736 C   0  0  1  0  0  0  0  0  0  0  0  0
   23.8588  -13.2136  -17.5245 C   0  0  0  0  0  0  0  0  0  0  0  0
   24.9745  -12.5756  -16.8110 C   0  0  0  0  0  0  0  0  0  0  0  0
   24.8928  -11.6351  -15.8121 C   0  0  0  0  0  0  0  0  0  0  0  0
   26.1246  -11.2832  -15.4447 N   0  0  0  0  0  0  0  0  0  0  0  0
   27.0112  -11.9661  -16.1741 C   0  0  0  0  0  0  0  0  0  0  0  0
   26.3078  -12.7534  -17.0065 N   0  0  0  0  0  0  0  0  0  0  0  0
   22.1934  -11.3695  -17.1141 C   0  0  0  0  0  0  0  0  0  0  0  0
   22.0560  -10.7869  -18.2470 O   0  0  0  0  0  0  0  0  0  0  0  0
   18.2571   -7.4160  -15.6341 C   0  0  0  0  0  0  0  0  0  0  0  0
   19.7249   -7.4982  -15.9465 C   0  0  0  0  0  0  0  0  0  0  0  0
   20.1708   -8.9265  -15.6973 C   0  0  2  0  0  0  0  0  0  0  0  0
   20.0675   -9.1549  -14.1992 C   0  0  0  0  0  0  0  0  0  0  0  0
   21.6164   -9.1275  -16.1118 C   0  0  2  0  0  0  0  0  0  0  0  0
   22.0169  -10.5069  -16.0089 N   0  0  0  0  0  0  0  0  0  0  0  0
   22.4282   -8.1732  -15.3692 C   0  0  0  0  0  0  0  0  0  0  0  0
   22.6201   -6.8548  -15.7415 O   0  0  0  0  0  0  0  0  0  0  0  0
   22.9974   -8.5620  -14.3187 O   0  0  0  0  0  0  0  0  0  0  0  0
  2  1  1  1
  2  3  1  0
  4  5  2  0
  4  2  1  0
  6  4  1  0
  7 14  1  0
  7  6  1  0
  7  8  1  6
  9  8  1  0
  9 13  1  0
 10 11  1  0
 10  9  2  0
 11 12  1  0
 12 13  2  0
 14 21  1  0
 15 14  2  0
 17 16  1  0
 18 20  1  0
 18 17  1  0
 18 19  1  1
 20 22  1  0
 20 21  1  1
 22 24  2  0
 22 23  1  0
M  END
$$$$
