AHI.pdb
     RDKit          3D

 24 24  0  0  1  0  0  0  0  0999 V2000
   19.5141  -13.1974  -19.6430 C   0  0  0  0  0  0  0  0  0  0  0  0
   18.9673  -13.5669  -18.2745 C   0  0  2  0  0  0  0  0  0  0  0  0
   17.5392  -13.5634  -18.2910 N   0  0  0  0  0  0  0  0  0  0  0  0
   19.5437  -12.5957  -17.3098 C   0  0  0  0  0  0  0  0  0  0  0  0
   19.0152  -12.6019  -16.1470 O   0  0  0  0  0  0  0  0  0  0  0  0
   20.6054  -11.7164  -17.6381 N   0  0  0  0  0  0  0  0  0  0  0  0
   21.1299  -10.7818  -16.6044 C   0  0  1  0  0  0  0  0  0  0  0  0
   22.6090  -10.7808  -16.7656 C   0  0  0  0  0  0  0  0  0  0  0  0
   23.3075  -11.9182  -16.1498 C   0  0  0  0  0  0  0  0  0  0  0  0
   22.7680  -12.8787  -15.3280 C   0  0  0  0  0  0  0  0  0  0  0  0
   23.7306  -13.7205  -14.9528 N   0  0  0  0  0  0  0  0  0  0  0  0
   24.8856  -13.3393  -15.5052 C   0  0  0  0  0  0  0  0  0  0  0  0
   24.6253  -12.2403  -16.2346 N   0  0  0  0  0  0  0  0  0  0  0  0
   20.4385   -9.5049  -16.8269 C   0  0  0  0  0  0  0  0  0  0  0  0
   20.4483   -8.9790  -17.9952 O   0  0  0  0  0  0  0  0  0  0  0  0
   15.8527   -6.4533  -16.7745 C   0  0  0  0  0  0  0  0  0  0  0  0
   17.0022   -6.1184  -15.8662 C   0  0  0  0  0  0  0  0  0  0  0  0
   17.7006   -7.4162  -15.5072 C   0  0  2  0  0  0  0  0  0  0  0  0
   17.8817   -7.4051  -13.9991 C   0  0  0  0  0  0  0  0  0  0  0  0
   19.0719   -7.4949  -16.1515 C   0  0  2  0  0  0  0  0  0  0  0  0
   19.7252   -8.7471  -15.8711 N   0  0  0  0  0  0  0  0  0  0  0  0
   19.8086   -6.2959  -15.7760 C   0  0  0  0  0  0  0  0  0  0  0  0
   20.8101   -6.2612  -14.8223 O   0  0  0  0  0  0  0  0  0  0  0  0
   19.5242   -5.2148  -16.3497 O   0  0  0  0  0  0  0  0  0  0  0  0
  2  1  1  6
  2  3  1  0
  4  5  2  0
  4  2  1  0
  6  4  1  0
  7 14  1  0
  7  6  1  0
  7  8  1  6
  9  8  1  0
  9 13  1  0
 10 11  1  0
 10  9  2  0
 11 12  1  0
 12 13  2  0
 14 21  1  0
 15 14  2  0
 17 16  1  0
 18 20  1  0
 18 17  1  0
 18 19  1  1
 20 22  1  0
 20 21  1  1
 22 24  2  0
 22 23  1  0
M  END
$$$$
