AHI.pdb
     RDKit          3D

 24 24  0  0  1  0  0  0  0  0999 V2000
   32.0407  -27.6715  -22.9348 C   0  0  0  0  0  0  0  0  0  0  0  0
   31.1072  -27.0929  -21.8849 C   0  0  2  0  0  0  0  0  0  0  0  0
   31.3701  -25.7018  -21.6966 N   0  0  0  0  0  0  0  0  0  0  0  0
   31.3030  -27.8977  -20.6520 C   0  0  0  0  0  0  0  0  0  0  0  0
   32.1703  -27.4403  -19.8334 O   0  0  0  0  0  0  0  0  0  0  0  0
   30.5873  -29.0913  -20.3852 N   0  0  0  0  0  0  0  0  0  0  0  0
   30.8249  -29.8190  -19.1081 C   0  0  1  0  0  0  0  0  0  0  0  0
   29.4837  -30.0226  -18.4969 C   0  0  0  0  0  0  0  0  0  0  0  0
   28.9620  -28.8791  -17.7346 C   0  0  0  0  0  0  0  0  0  0  0  0
   29.6337  -27.7277  -17.3994 C   0  0  0  0  0  0  0  0  0  0  0  0
   28.8273  -26.9476  -16.6804 N   0  0  0  0  0  0  0  0  0  0  0  0
   27.6463  -27.5546  -16.5346 C   0  0  0  0  0  0  0  0  0  0  0  0
   27.7307  -28.7320  -17.1781 N   0  0  0  0  0  0  0  0  0  0  0  0
   31.5796  -31.0272  -19.4666 C   0  0  0  0  0  0  0  0  0  0  0  0
   31.1897  -31.7428  -20.4554 O   0  0  0  0  0  0  0  0  0  0  0  0
   36.9215  -31.3846  -19.9089 C   0  0  0  0  0  0  0  0  0  0  0  0
   35.4233  -31.4358  -20.0150 C   0  0  0  0  0  0  0  0  0  0  0  0
   34.9361  -32.5685  -19.1315 C   0  0  2  0  0  0  0  0  0  0  0  0
   35.5816  -33.8369  -19.6622 C   0  0  0  0  0  0  0  0  0  0  0  0
   33.4298  -32.7250  -19.2250 C   0  0  2  0  0  0  0  0  0  0  0  0
   32.7405  -31.5235  -18.8318 N   0  0  0  0  0  0  0  0  0  0  0  0
   33.0630  -33.9340  -18.5005 C   0  0  0  0  0  0  0  0  0  0  0  0
   32.8047  -35.1546  -19.0980 O   0  0  0  0  0  0  0  0  0  0  0  0
   32.9717  -33.8766  -17.2486 O   0  0  0  0  0  0  0  0  0  0  0  0
  2  1  1  6
  2  3  1  0
  4  5  2  0
  4  2  1  0
  6  4  1  0
  7 14  1  0
  7  6  1  0
  7  8  1  6
  9  8  1  0
  9 13  1  0
 10 11  1  0
 10  9  2  0
 11 12  1  0
 12 13  2  0
 14 21  1  0
 15 14  2  0
 17 16  1  0
 18 20  1  0
 18 17  1  0
 18 19  1  6
 20 22  1  0
 20 21  1  1
 22 24  2  0
 22 23  1  0
M  END
$$$$
