AHI.pdb
     RDKit          3D

 24 24  0  0  1  0  0  0  0  0999 V2000
   26.4129  -36.9604  -13.7242 C   0  0  0  0  0  0  0  0  0  0  0  0
   25.4815  -35.9371  -14.3517 C   0  0  2  0  0  0  0  0  0  0  0  0
   25.9737  -35.5329  -15.6299 N   0  0  0  0  0  0  0  0  0  0  0  0
   25.3705  -34.8143  -13.3855 C   0  0  0  0  0  0  0  0  0  0  0  0
   26.4230  -34.5760  -12.7022 O   0  0  0  0  0  0  0  0  0  0  0  0
   24.1888  -34.0501  -13.2196 N   0  0  0  0  0  0  0  0  0  0  0  0
   24.1764  -32.9196  -12.2508 C   0  0  1  0  0  0  0  0  0  0  0  0
   23.0375  -32.0497  -12.6507 C   0  0  0  0  0  0  0  0  0  0  0  0
   22.7341  -30.9490  -11.7249 C   0  0  0  0  0  0  0  0  0  0  0  0
   23.4053  -30.6257  -10.5698 C   0  0  0  0  0  0  0  0  0  0  0  0
   22.8057  -29.5829   -9.9960 N   0  0  0  0  0  0  0  0  0  0  0  0
   21.7609  -29.2135  -10.7418 C   0  0  0  0  0  0  0  0  0  0  0  0
   21.7191  -30.0477  -11.7953 N   0  0  0  0  0  0  0  0  0  0  0  0
   24.1057  -33.5318  -10.9173 C   0  0  0  0  0  0  0  0  0  0  0  0
   23.2225  -34.4299  -10.6829 O   0  0  0  0  0  0  0  0  0  0  0  0
   28.4080  -33.6064   -7.4177 C   0  0  0  0  0  0  0  0  0  0  0  0
   27.2644  -33.9682   -8.3233 C   0  0  0  0  0  0  0  0  0  0  0  0
   25.9774  -33.5857   -7.6173 C   0  0  2  0  0  0  0  0  0  0  0  0
   25.8708  -34.4858   -6.3984 C   0  0  0  0  0  0  0  0  0  0  0  0
   24.7722  -33.8387   -8.5037 C   0  0  2  0  0  0  0  0  0  0  0  0
   24.9308  -33.2459   -9.8063 N   0  0  0  0  0  0  0  0  0  0  0  0
   23.5841  -33.4370   -7.7633 C   0  0  0  0  0  0  0  0  0  0  0  0
   22.7959  -34.3002   -7.0236 O   0  0  0  0  0  0  0  0  0  0  0  0
   23.2422  -32.2282   -7.7910 O   0  0  0  0  0  0  0  0  0  0  0  0
  2  1  1  1
  2  3  1  0
  4  5  2  0
  4  2  1  0
  6  4  1  0
  7 14  1  0
  7  6  1  0
  7  8  1  6
  9  8  1  0
  9 13  1  0
 10 11  1  0
 10  9  2  0
 11 12  1  0
 12 13  2  0
 14 21  1  0
 15 14  2  0
 17 16  1  0
 18 20  1  0
 18 17  1  0
 18 19  1  1
 20 22  1  0
 20 21  1  6
 22 24  2  0
 22 23  1  0
M  END
$$$$
