CGM.pdb
     RDKit          3D

 19 18  0  0  1  0  0  0  0  0999 V2000
    9.0967  -14.7272   16.8803 N   0  0  0  0  0  0  0  0  0  0  0  0
    9.3841  -14.6202   18.2972 C   0  0  1  0  0  0  0  0  0  0  0  0
    9.7588  -13.1985   18.5979 C   0  0  0  0  0  0  0  0  0  0  0  0
    8.3057  -12.1324   18.7882 S   0  0  0  0  0  0  0  0  0  0  0  0
    8.2430  -15.1200   19.1185 C   0  0  0  0  0  0  0  0  0  0  0  0
    7.2244  -15.5519   18.5255 O   0  0  0  0  0  0  0  0  0  0  0  0
    8.2648  -15.1274   20.5315 N   0  0  0  0  0  0  0  0  0  0  0  0
    7.2349  -15.6910   21.3244 C   0  0  0  0  0  0  0  0  0  0  0  0
    7.3881  -15.6251   22.7753 C   0  0  0  0  0  0  0  0  0  0  0  0
    6.4614  -16.1876   23.4532 O   0  0  0  0  0  0  0  0  0  0  0  0
    6.2789  -11.3509   28.1859 C   0  0  0  0  0  0  0  0  0  0  0  0
    6.6021  -11.9674   26.5105 S   0  0  0  0  0  0  0  0  0  0  0  0
    6.4017  -13.7834   26.4542 C   0  0  0  0  0  0  0  0  0  0  0  0
    6.7655  -14.2220   25.0824 C   0  0  0  0  0  0  0  0  0  0  0  0
    8.2037  -14.6360   24.9185 C   0  0  2  0  0  0  0  0  0  0  0  0
    8.4306  -15.0200   23.5080 N   0  0  0  0  0  0  0  0  0  0  0  0
    8.5254  -15.7445   25.8058 C   0  0  0  0  0  0  0  0  0  0  0  0
    9.0496  -15.5419   27.0549 O   0  0  0  0  0  0  0  0  0  0  0  0
    8.3324  -16.9509   25.4505 O   0  0  0  0  0  0  0  0  0  0  0  0
  2  1  1  6
  3  2  1  0
  4  3  1  0
  5  2  1  0
  5  6  2  0
  7  5  1  0
  8  7  1  0
  9  8  1  0
 10  9  2  0
 11 12  1  0
 13 12  1  0
 13 14  1  0
 15 14  1  6
 15 16  1  0
 15 17  1  0
 16  9  1  0
 17 18  1  0
 19 17  2  0
M  END
$$$$
