CGM.pdb
     RDKit          3D

 19 18  0  0  1  0  0  0  0  0999 V2000
    7.4186  -16.9778   20.6731 N   0  0  0  0  0  0  0  0  0  0  0  0
    7.9902  -15.6457   20.6537 C   0  0  1  0  0  0  0  0  0  0  0  0
    6.9814  -14.6896   21.2196 C   0  0  0  0  0  0  0  0  0  0  0  0
    6.4904  -15.1309   22.9073 S   0  0  0  0  0  0  0  0  0  0  0  0
    9.3031  -15.6116   21.3618 C   0  0  0  0  0  0  0  0  0  0  0  0
    9.9950  -14.5669   21.2870 O   0  0  0  0  0  0  0  0  0  0  0  0
    9.7952  -16.7040   22.1111 N   0  0  0  0  0  0  0  0  0  0  0  0
   11.0445  -16.6922   22.7789 C   0  0  0  0  0  0  0  0  0  0  0  0
   11.0585  -16.2678   24.1762 C   0  0  0  0  0  0  0  0  0  0  0  0
   12.2144  -16.0304   24.6684 O   0  0  0  0  0  0  0  0  0  0  0  0
    6.6504  -12.6473   26.2710 C   0  0  0  0  0  0  0  0  0  0  0  0
    7.8351  -12.2427   27.5842 S   0  0  0  0  0  0  0  0  0  0  0  0
    9.1162  -13.5409   27.7035 C   0  0  0  0  0  0  0  0  0  0  0  0
    9.1255  -14.2677   26.4080 C   0  0  0  0  0  0  0  0  0  0  0  0
   10.1383  -15.3783   26.3207 C   0  0  2  0  0  0  0  0  0  0  0  0
    9.9550  -16.0898   25.0368 N   0  0  0  0  0  0  0  0  0  0  0  0
    9.9909  -16.2994   27.4385 C   0  0  0  0  0  0  0  0  0  0  0  0
   10.4192  -15.9800   28.6997 O   0  0  0  0  0  0  0  0  0  0  0  0
    9.4572  -17.4440   27.2837 O   0  0  0  0  0  0  0  0  0  0  0  0
  2  1  1  1
  3  2  1  0
  4  3  1  0
  5  2  1  0
  5  6  2  0
  7  5  1  0
  8  7  1  0
  9  8  1  0
 10  9  2  0
 11 12  1  0
 13 12  1  0
 13 14  1  0
 15 14  1  1
 15 16  1  0
 15 17  1  0
 16  9  1  0
 17 18  1  0
 19 17  2  0
M  END
$$$$
