CGM.pdb
     RDKit          3D

 19 18  0  0  1  0  0  0  0  0999 V2000
    7.5218  -17.2767   21.6758 N   0  0  0  0  0  0  0  0  0  0  0  0
    7.6487  -15.8795   22.0406 C   0  0  1  0  0  0  0  0  0  0  0  0
    6.4555  -15.4956   22.8659 C   0  0  0  0  0  0  0  0  0  0  0  0
    6.1700  -16.6477   24.2354 S   0  0  0  0  0  0  0  0  0  0  0  0
    8.9506  -15.6155   22.7203 C   0  0  0  0  0  0  0  0  0  0  0  0
    9.2840  -14.4236   22.9299 O   0  0  0  0  0  0  0  0  0  0  0  0
    9.8182  -16.6503   23.1367 N   0  0  0  0  0  0  0  0  0  0  0  0
   11.1333  -16.4217   23.6114 C   0  0  0  0  0  0  0  0  0  0  0  0
   11.2824  -15.9592   24.9886 C   0  0  0  0  0  0  0  0  0  0  0  0
   12.4648  -15.6099   25.3275 O   0  0  0  0  0  0  0  0  0  0  0  0
    7.5498  -11.0864   26.4560 C   0  0  0  0  0  0  0  0  0  0  0  0
    7.9263  -12.4972   27.5329 S   0  0  0  0  0  0  0  0  0  0  0  0
    9.4668  -13.3164   26.9882 C   0  0  0  0  0  0  0  0  0  0  0  0
    9.6865  -14.4785   27.8870 C   0  0  0  0  0  0  0  0  0  0  0  0
   10.6616  -15.4991   27.3634 C   0  0  2  0  0  0  0  0  0  0  0  0
   10.2825  -15.8526   25.9779 N   0  0  0  0  0  0  0  0  0  0  0  0
   10.6691  -16.6854   28.2074 C   0  0  0  0  0  0  0  0  0  0  0  0
   11.1177  -16.6494   29.5010 O   0  0  0  0  0  0  0  0  0  0  0  0
   10.2586  -17.8078   27.7708 O   0  0  0  0  0  0  0  0  0  0  0  0
  2  1  1  1
  3  2  1  0
  4  3  1  0
  5  2  1  0
  5  6  2  0
  7  5  1  0
  8  7  1  0
  9  8  1  0
 10  9  2  0
 11 12  1  0
 13 12  1  0
 13 14  1  0
 15 14  1  1
 15 16  1  0
 15 17  1  0
 16  9  1  0
 17 18  1  0
 19 17  2  0
M  END
$$$$
