CGM.pdb
     RDKit          3D

 19 18  0  0  1  0  0  0  0  0999 V2000
    7.6375  -17.1578   19.6111 N   0  0  0  0  0  0  0  0  0  0  0  0
    7.4601  -15.8122   20.1205 C   0  0  1  0  0  0  0  0  0  0  0  0
    6.1484  -15.7503   20.8468 C   0  0  0  0  0  0  0  0  0  0  0  0
    5.4599  -17.3971   21.1599 S   0  0  0  0  0  0  0  0  0  0  0  0
    8.6226  -15.3945   20.9574 C   0  0  0  0  0  0  0  0  0  0  0  0
    8.6995  -14.1941   21.3163 O   0  0  0  0  0  0  0  0  0  0  0  0
    9.6351  -16.2939   21.3612 N   0  0  0  0  0  0  0  0  0  0  0  0
   10.7062  -15.9305   22.2142 C   0  0  0  0  0  0  0  0  0  0  0  0
   10.4206  -15.8088   23.6413 C   0  0  0  0  0  0  0  0  0  0  0  0
   11.4339  -15.5876   24.3891 O   0  0  0  0  0  0  0  0  0  0  0  0
    6.7671  -11.0419   26.5921 C   0  0  0  0  0  0  0  0  0  0  0  0
    6.5808  -12.8465   26.6121 S   0  0  0  0  0  0  0  0  0  0  0  0
    8.1322  -13.6494   26.0740 C   0  0  0  0  0  0  0  0  0  0  0  0
    7.9414  -15.1151   26.2226 C   0  0  0  0  0  0  0  0  0  0  0  0
    9.1076  -15.9480   25.7610 C   0  0  2  0  0  0  0  0  0  0  0  0
    9.1683  -15.9044   24.2836 N   0  0  0  0  0  0  0  0  0  0  0  0
    8.9754  -17.3218   26.2246 C   0  0  0  0  0  0  0  0  0  0  0  0
    9.2574  -17.6790   27.5164 O   0  0  0  0  0  0  0  0  0  0  0  0
    8.5926  -18.2481   25.4409 O   0  0  0  0  0  0  0  0  0  0  0  0
  2  1  1  1
  3  2  1  0
  4  3  1  0
  5  2  1  0
  5  6  2  0
  7  5  1  0
  8  7  1  0
  9  8  1  0
 10  9  2  0
 11 12  1  0
 13 12  1  0
 13 14  1  0
 15 14  1  6
 15 16  1  0
 15 17  1  0
 16  9  1  0
 17 18  1  0
 19 17  2  0
M  END
$$$$
