CGM.pdb
     RDKit          3D

 19 18  0  0  1  0  0  0  0  0999 V2000
    9.3508  -16.1033   19.4039 N   0  0  0  0  0  0  0  0  0  0  0  0
    8.0650  -15.5142   19.7221 C   0  0  1  0  0  0  0  0  0  0  0  0
    7.0621  -15.9945   18.7143 C   0  0  0  0  0  0  0  0  0  0  0  0
    7.6979  -15.9075   17.0195 S   0  0  0  0  0  0  0  0  0  0  0  0
    7.6738  -15.8022   21.1329 C   0  0  0  0  0  0  0  0  0  0  0  0
    6.5832  -15.3463   21.5553 O   0  0  0  0  0  0  0  0  0  0  0  0
    8.4790  -16.5660   22.0078 N   0  0  0  0  0  0  0  0  0  0  0  0
    9.7538  -16.1459   22.4610 C   0  0  0  0  0  0  0  0  0  0  0  0
    9.8966  -15.8369   23.8812 C   0  0  0  0  0  0  0  0  0  0  0  0
   11.0952  -15.6547   24.2876 O   0  0  0  0  0  0  0  0  0  0  0  0
    6.3350  -10.6868   26.3290 C   0  0  0  0  0  0  0  0  0  0  0  0
    6.5077  -12.3900   26.9300 S   0  0  0  0  0  0  0  0  0  0  0  0
    8.0266  -13.1493   26.2538 C   0  0  0  0  0  0  0  0  0  0  0  0
    8.1200  -14.5201   26.8184 C   0  0  0  0  0  0  0  0  0  0  0  0
    9.2261  -15.3615   26.2394 C   0  0  2  0  0  0  0  0  0  0  0  0
    8.8753  -15.7158   24.8467 N   0  0  0  0  0  0  0  0  0  0  0  0
    9.4293  -16.5639   27.0346 C   0  0  0  0  0  0  0  0  0  0  0  0
    9.1197  -17.8089   26.5547 O   0  0  0  0  0  0  0  0  0  0  0  0
    9.9031  -16.5023   28.2139 O   0  0  0  0  0  0  0  0  0  0  0  0
  2  1  1  6
  3  2  1  0
  4  3  1  0
  5  2  1  0
  5  6  2  0
  7  5  1  0
  8  7  1  0
  9  8  1  0
 10  9  2  0
 11 12  1  0
 13 12  1  0
 13 14  1  0
 15 14  1  1
 15 16  1  0
 15 17  1  0
 16  9  1  0
 17 18  1  0
 19 17  2  0
M  END
$$$$
