CGM.pdb
     RDKit          3D

 19 18  0  0  1  0  0  0  0  0999 V2000
    6.5627  -20.9125   21.2474 N   0  0  0  0  0  0  0  0  0  0  0  0
    6.3698  -19.5943   21.8191 C   0  0  1  0  0  0  0  0  0  0  0  0
    5.8498  -19.7566   23.2175 C   0  0  0  0  0  0  0  0  0  0  0  0
    4.6400  -21.0996   23.3474 S   0  0  0  0  0  0  0  0  0  0  0  0
    7.6202  -18.7839   21.7408 C   0  0  0  0  0  0  0  0  0  0  0  0
    8.6793  -19.2737   22.2036 O   0  0  0  0  0  0  0  0  0  0  0  0
    7.6587  -17.4929   21.1673 N   0  0  0  0  0  0  0  0  0  0  0  0
    8.7671  -16.6189   21.2876 C   0  0  0  0  0  0  0  0  0  0  0  0
    8.9299  -15.9060   22.5518 C   0  0  0  0  0  0  0  0  0  0  0  0
    9.9976  -15.2107   22.6588 O   0  0  0  0  0  0  0  0  0  0  0  0
    6.9505  -10.6397   26.3604 C   0  0  0  0  0  0  0  0  0  0  0  0
    6.2978  -12.2828   26.7675 S   0  0  0  0  0  0  0  0  0  0  0  0
    7.6065  -13.5463   26.5892 C   0  0  0  0  0  0  0  0  0  0  0  0
    7.3855  -14.2252   25.2865 C   0  0  0  0  0  0  0  0  0  0  0  0
    8.4593  -15.2084   24.9032 C   0  0  2  0  0  0  0  0  0  0  0  0
    8.0534  -15.8946   23.6571 N   0  0  0  0  0  0  0  0  0  0  0  0
    8.6768  -16.1758   25.9692 C   0  0  0  0  0  0  0  0  0  0  0  0
    9.5402  -15.9297   27.0036 O   0  0  0  0  0  0  0  0  0  0  0  0
    8.0705  -17.2944   25.9782 O   0  0  0  0  0  0  0  0  0  0  0  0
  2  1  1  1
  3  2  1  0
  4  3  1  0
  5  2  1  0
  5  6  2  0
  7  5  1  0
  8  7  1  0
  9  8  1  0
 10  9  2  0
 11 12  1  0
 13 12  1  0
 13 14  1  0
 15 14  1  1
 15 16  1  0
 15 17  1  0
 16  9  1  0
 17 18  1  0
 19 17  2  0
M  END
$$$$
