CGM.pdb
     RDKit          3D

 19 18  0  0  1  0  0  0  0  0999 V2000
    6.9307  -15.6678   19.3895 N   0  0  0  0  0  0  0  0  0  0  0  0
    7.6287  -16.9251   19.2059 C   0  0  1  0  0  0  0  0  0  0  0  0
    8.5943  -16.7684   18.0679 C   0  0  0  0  0  0  0  0  0  0  0  0
    8.4044  -18.0721   16.8235 S   0  0  0  0  0  0  0  0  0  0  0  0
    8.2736  -17.3744   20.4743 C   0  0  0  0  0  0  0  0  0  0  0  0
    8.7392  -18.5389   20.5276 O   0  0  0  0  0  0  0  0  0  0  0  0
    8.3815  -16.5433   21.6121 N   0  0  0  0  0  0  0  0  0  0  0  0
    9.5436  -15.7958   21.9246 C   0  0  0  0  0  0  0  0  0  0  0  0
    9.7982  -15.5017   23.3323 C   0  0  0  0  0  0  0  0  0  0  0  0
   10.9410  -14.9895   23.5902 O   0  0  0  0  0  0  0  0  0  0  0  0
    6.0931  -11.0442   25.8031 C   0  0  0  0  0  0  0  0  0  0  0  0
    6.6612  -12.5313   26.6735 S   0  0  0  0  0  0  0  0  0  0  0  0
    7.9126  -13.4113   25.6733 C   0  0  0  0  0  0  0  0  0  0  0  0
    8.4057  -14.5494   26.4908 C   0  0  0  0  0  0  0  0  0  0  0  0
    9.4158  -15.4256   25.7990 C   0  0  2  0  0  0  0  0  0  0  0  0
    8.9371  -15.7138   24.4293 N   0  0  0  0  0  0  0  0  0  0  0  0
    9.6171  -16.6633   26.5388 C   0  0  0  0  0  0  0  0  0  0  0  0
    9.2868  -17.8830   26.0105 O   0  0  0  0  0  0  0  0  0  0  0  0
   10.1086  -16.6575   27.7124 O   0  0  0  0  0  0  0  0  0  0  0  0
  2  1  1  1
  3  2  1  0
  4  3  1  0
  5  2  1  0
  5  6  2  0
  7  5  1  0
  8  7  1  0
  9  8  1  0
 10  9  2  0
 11 12  1  0
 13 12  1  0
 13 14  1  0
 15 14  1  1
 15 16  1  0
 15 17  1  0
 16  9  1  0
 17 18  1  0
 19 17  2  0
M  END
$$$$
