CGM.pdb
     RDKit          3D

 19 18  0  0  1  0  0  0  0  0999 V2000
    8.8917  -15.2550   18.0910 N   0  0  0  0  0  0  0  0  0  0  0  0
    8.5212  -14.1311   18.9283 C   0  0  1  0  0  0  0  0  0  0  0  0
    7.5673  -13.2634   18.1607 C   0  0  0  0  0  0  0  0  0  0  0  0
    8.2859  -12.6597   16.6104 S   0  0  0  0  0  0  0  0  0  0  0  0
    7.9806  -14.5912   20.2408 C   0  0  0  0  0  0  0  0  0  0  0  0
    7.6733  -13.7258   21.0966 O   0  0  0  0  0  0  0  0  0  0  0  0
    7.8007  -15.9570   20.5560 N   0  0  0  0  0  0  0  0  0  0  0  0
    7.3731  -16.4143   21.8268 C   0  0  0  0  0  0  0  0  0  0  0  0
    8.1505  -15.9967   22.9906 C   0  0  0  0  0  0  0  0  0  0  0  0
    9.4149  -15.9288   22.8131 O   0  0  0  0  0  0  0  0  0  0  0  0
    6.0608  -10.6725   26.8333 C   0  0  0  0  0  0  0  0  0  0  0  0
    6.5575  -12.3584   27.2834 S   0  0  0  0  0  0  0  0  0  0  0  0
    7.5686  -13.0975   25.9521 C   0  0  0  0  0  0  0  0  0  0  0  0
    7.9140  -14.4777   26.3792 C   0  0  0  0  0  0  0  0  0  0  0  0
    8.6329  -15.2936   25.3379 C   0  0  2  0  0  0  0  0  0  0  0  0
    7.6723  -15.6612   24.2746 N   0  0  0  0  0  0  0  0  0  0  0  0
    9.2168  -16.4879   25.9314 C   0  0  0  0  0  0  0  0  0  0  0  0
   10.4337  -16.4621   26.5595 O   0  0  0  0  0  0  0  0  0  0  0  0
    8.6152  -17.6081   25.8862 O   0  0  0  0  0  0  0  0  0  0  0  0
  2  1  1  6
  3  2  1  0
  4  3  1  0
  5  2  1  0
  5  6  2  0
  7  5  1  0
  8  7  1  0
  9  8  1  0
 10  9  2  0
 11 12  1  0
 13 12  1  0
 13 14  1  0
 15 14  1  1
 15 16  1  0
 15 17  1  0
 16  9  1  0
 17 18  1  0
 19 17  2  0
M  END
$$$$
