CGM.pdb
     RDKit          3D

 19 18  0  0  1  0  0  0  0  0999 V2000
    7.3374  -14.6910   18.6142 N   0  0  0  0  0  0  0  0  0  0  0  0
    8.4065  -14.3278   19.5235 C   0  0  1  0  0  0  0  0  0  0  0  0
    8.2082  -12.9000   19.9408 C   0  0  0  0  0  0  0  0  0  0  0  0
    8.2801  -11.7588   18.5349 S   0  0  0  0  0  0  0  0  0  0  0  0
    8.4835  -15.2771   20.6722 C   0  0  0  0  0  0  0  0  0  0  0  0
    7.4394  -15.8817   21.0183 O   0  0  0  0  0  0  0  0  0  0  0  0
    9.6810  -15.5217   21.3815 N   0  0  0  0  0  0  0  0  0  0  0  0
    9.7918  -16.4824   22.4169 C   0  0  0  0  0  0  0  0  0  0  0  0
   10.1304  -15.9984   23.7526 C   0  0  0  0  0  0  0  0  0  0  0  0
   10.8024  -16.8088   24.4782 O   0  0  0  0  0  0  0  0  0  0  0  0
    6.7797  -11.1229   26.1118 C   0  0  0  0  0  0  0  0  0  0  0  0
    6.9581  -12.5021   27.2771 S   0  0  0  0  0  0  0  0  0  0  0  0
    6.7182  -14.0955   26.4142 C   0  0  0  0  0  0  0  0  0  0  0  0
    7.6599  -14.1177   25.2655 C   0  0  0  0  0  0  0  0  0  0  0  0
    9.0097  -14.7090   25.5741 C   0  0  2  0  0  0  0  0  0  0  0  0
    9.8065  -14.7521   24.3285 N   0  0  0  0  0  0  0  0  0  0  0  0
    8.8710  -16.0449   26.1361 C   0  0  0  0  0  0  0  0  0  0  0  0
    9.3671  -16.3642   27.3722 O   0  0  0  0  0  0  0  0  0  0  0  0
    8.2819  -16.9722   25.4943 O   0  0  0  0  0  0  0  0  0  0  0  0
  2  1  1  6
  3  2  1  0
  4  3  1  0
  5  2  1  0
  5  6  2  0
  7  5  1  0
  8  7  1  0
  9  8  1  0
 10  9  2  0
 11 12  1  0
 13 12  1  0
 13 14  1  0
 15 14  1  6
 15 16  1  0
 15 17  1  0
 16  9  1  0
 17 18  1  0
 19 17  2  0
M  END
$$$$
