RDK.pdb
     RDKit          3D

 29 28  0  0  1  0  0  0  0  0999 V2000
   18.0848  -24.6263   -4.8966 N   0  0  0  0  0  0  0  0  0  0  0  0
   16.8932  -25.3329   -5.2592 C   0  0  0  0  0  0  0  0  0  0  0  0
   16.8528  -26.0104   -6.3447 N   0  0  0  0  0  0  0  0  0  0  0  0
   15.7304  -25.3029   -4.4327 N   0  0  0  0  0  0  0  0  0  0  0  0
   15.7648  -24.8308   -3.0667 C   0  0  0  0  0  0  0  0  0  0  0  0
   14.9320  -23.5707   -3.0251 C   0  0  0  0  0  0  0  0  0  0  0  0
   15.1833  -22.7252   -1.8160 C   0  0  0  0  0  0  0  0  0  0  0  0
   14.4540  -23.3921   -0.6547 C   0  0  2  0  0  0  0  0  0  0  0  0
   13.0419  -23.5262   -0.9453 N   0  0  0  0  0  0  0  0  0  0  0  0
   14.5871  -22.6082    0.5954 C   0  0  0  0  0  0  0  0  0  0  0  0
   13.7671  -21.6982    0.8874 O   0  0  0  0  0  0  0  0  0  0  0  0
   16.0393  -26.5477   -6.6488 N   0  0  0  0  0  0  0  0  0  0  0  0
   15.6406  -22.8559    1.5038 C   0  0  1  0  0  0  0  0  0  0  0  0
   15.5387  -22.5008    2.9529 C   0  0  0  0  0  0  0  0  0  0  0  0
   16.3089  -23.5716    3.7026 C   0  0  0  0  0  0  0  0  0  0  0  0
   15.5334  -24.6691    4.1985 O   0  0  0  0  0  0  0  0  0  0  0  0
   15.6216  -25.8697    3.9312 C   0  0  0  0  0  0  0  0  0  0  0  0
   16.3615  -21.2554    3.0279 O   0  0  0  0  0  0  0  0  0  0  0  0
   17.3893  -21.2144    2.2692 O   0  0  0  0  0  0  0  0  0  0  0  0
   14.5070  -24.3554    5.1360 N   0  0  0  0  0  0  0  0  0  0  0  0
   16.1376  -20.1345    3.8226 C   0  0  2  0  0  0  0  0  0  0  0  0
   17.0948  -19.0406    3.7821 C   0  0  0  0  0  0  0  0  0  0  0  0
   16.4111  -17.6846    3.6163 C   0  0  0  0  0  0  0  0  0  0  0  0
   17.4503  -16.6280    3.6106 C   0  0  0  0  0  0  0  0  0  0  0  0
   16.9337  -15.2297    3.5125 C   0  0  0  0  0  0  0  0  0  0  0  0
   17.9848  -14.1679    3.3815 N   0  0  0  0  0  0  0  0  0  0  0  0
   17.4041  -12.8764    3.1966 C   0  0  0  0  0  0  0  0  0  0  0  0
   17.8548  -19.0010    5.0572 O   0  0  0  0  0  0  0  0  0  0  0  0
   18.8434  -18.2571    5.1606 O   0  0  0  0  0  0  0  0  0  0  0  0
  2  1  1  0
  3  2  2  0
  4  2  1  0
  5  4  1  0
  6  5  1  0
  7  6  1  0
  8 10  1  0
  8  7  1  0
  8  9  1  6
 10 11  2  0
 12 10  1  0
 13 12  1  0
 13 14  1  6
 15 14  1  0
 15 19  1  0
 16 15  2  0
 17 13  1  0
 18 17  2  0
 20 17  1  0
 21 27  1  0
 21 20  1  0
 21 22  1  6
 23 22  1  0
 24 23  1  0
 24 25  1  0
 25 26  1  0
 27 29  1  0
 28 27  2  0
M  END
$$$$
