RDK.pdb
     RDKit          3D

 29 28  0  0  1  0  0  0  0  0999 V2000
   26.8190  -25.6978  -16.7371 N   0  0  0  0  0  0  0  0  0  0  0  0
   27.3598  -24.3731  -16.7977 C   0  0  0  0  0  0  0  0  0  0  0  0
   28.4109  -24.1390  -17.4899 N   0  0  0  0  0  0  0  0  0  0  0  0
   26.7515  -23.2890  -16.0971 N   0  0  0  0  0  0  0  0  0  0  0  0
   25.5078  -23.4360  -15.3748 C   0  0  0  0  0  0  0  0  0  0  0  0
   24.6291  -22.2790  -15.7898 C   0  0  0  0  0  0  0  0  0  0  0  0
   24.3843  -21.2887  -14.6946 C   0  0  0  0  0  0  0  0  0  0  0  0
   23.7096  -22.0491  -13.5580 C   0  0  2  0  0  0  0  0  0  0  0  0
   23.3494  -23.3868  -13.9789 N   0  0  0  0  0  0  0  0  0  0  0  0
   22.4743  -21.3686  -13.1042 C   0  0  0  0  0  0  0  0  0  0  0  0
   22.4915  -20.1696  -12.7195 O   0  0  0  0  0  0  0  0  0  0  0  0
   28.8102  -23.2079  -17.6190 N   0  0  0  0  0  0  0  0  0  0  0  0
   21.2330  -22.0433  -13.0879 C   0  0  1  0  0  0  0  0  0  0  0  0
   20.0264  -21.4686  -12.4170 C   0  0  0  0  0  0  0  0  0  0  0  0
   19.0431  -21.1457  -13.5265 C   0  0  0  0  0  0  0  0  0  0  0  0
   17.7791  -20.6172  -13.1084 O   0  0  0  0  0  0  0  0  0  0  0  0
   17.3873  -20.3397  -11.9726 C   0  0  0  0  0  0  0  0  0  0  0  0
   19.4758  -22.6553  -11.6943 O   0  0  0  0  0  0  0  0  0  0  0  0
   19.3153  -23.7138  -12.3927 O   0  0  0  0  0  0  0  0  0  0  0  0
   16.8198  -20.3673  -14.1323 N   0  0  0  0  0  0  0  0  0  0  0  0
   19.1221  -22.7444  -10.3508 C   0  0  2  0  0  0  0  0  0  0  0  0
   18.5791  -23.9959   -9.8477 C   0  0  0  0  0  0  0  0  0  0  0  0
   18.5625  -24.0426   -8.3208 C   0  0  0  0  0  0  0  0  0  0  0  0
   18.0794  -25.3768   -7.8931 C   0  0  0  0  0  0  0  0  0  0  0  0
   18.0035  -25.5810   -6.4152 C   0  0  0  0  0  0  0  0  0  0  0  0
   17.3804  -26.8739   -5.9800 N   0  0  0  0  0  0  0  0  0  0  0  0
   17.4458  -27.0355   -4.5626 C   0  0  0  0  0  0  0  0  0  0  0  0
   17.1766  -24.1483  -10.3112 O   0  0  0  0  0  0  0  0  0  0  0  0
   16.8125  -25.2175  -10.8268 O   0  0  0  0  0  0  0  0  0  0  0  0
  2  1  1  0
  3  2  2  0
  4  2  1  0
  5  4  1  0
  6  5  1  0
  7  6  1  0
  8 10  1  0
  8  7  1  0
  8  9  1  6
 10 11  2  0
 12 10  1  0
 13 12  1  0
 13 14  1  1
 15 14  1  0
 15 19  1  0
 16 15  2  0
 17 13  1  0
 18 17  2  0
 20 17  1  0
 21 27  1  0
 21 20  1  0
 21 22  1  1
 23 22  1  0
 24 23  1  0
 24 25  1  0
 25 26  1  0
 27 29  1  0
 28 27  2  0
M  END
$$$$
