RDK.pdb
     RDKit          3D

 29 28  0  0  1  0  0  0  0  0999 V2000
   27.1305  -21.9194  -13.9553 N   0  0  0  0  0  0  0  0  0  0  0  0
   26.0824  -21.5241  -13.0631 C   0  0  0  0  0  0  0  0  0  0  0  0
   26.2880  -21.5022  -11.7997 N   0  0  0  0  0  0  0  0  0  0  0  0
   24.7946  -21.1483  -13.5492 N   0  0  0  0  0  0  0  0  0  0  0  0
   24.6193  -20.3848  -14.7643 C   0  0  0  0  0  0  0  0  0  0  0  0
   26.0002  -20.1611  -15.3356 C   0  0  0  0  0  0  0  0  0  0  0  0
   25.9980  -19.4270  -16.6399 C   0  0  0  0  0  0  0  0  0  0  0  0
   25.8635  -17.9446  -16.3090 C   0  0  2  0  0  0  0  0  0  0  0  0
   26.8898  -17.5327  -15.3744 N   0  0  0  0  0  0  0  0  0  0  0  0
   24.5475  -17.6385  -15.7012 C   0  0  0  0  0  0  0  0  0  0  0  0
   24.4431  -17.3435  -14.4814 O   0  0  0  0  0  0  0  0  0  0  0  0
   25.5798  -21.2359  -11.1137 N   0  0  0  0  0  0  0  0  0  0  0  0
   23.3633  -17.6672  -16.4712 C   0  0  1  0  0  0  0  0  0  0  0  0
   22.0466  -17.2229  -15.9186 C   0  0  0  0  0  0  0  0  0  0  0  0
   21.2878  -16.6119  -17.0818 C   0  0  0  0  0  0  0  0  0  0  0  0
   19.9433  -16.2020  -16.8059 O   0  0  0  0  0  0  0  0  0  0  0  0
   19.5165  -15.4929  -15.8918 C   0  0  0  0  0  0  0  0  0  0  0  0
   21.3798  -18.5255  -15.6146 O   0  0  0  0  0  0  0  0  0  0  0  0
   21.6038  -19.4770  -16.4381 O   0  0  0  0  0  0  0  0  0  0  0  0
   18.9364  -16.6664  -17.7010 N   0  0  0  0  0  0  0  0  0  0  0  0
   20.5484  -18.8249  -14.5389 C   0  0  2  0  0  0  0  0  0  0  0  0
   19.9868  -20.1620  -14.4345 C   0  0  0  0  0  0  0  0  0  0  0  0
   19.6774  -20.5442  -12.9881 C   0  0  0  0  0  0  0  0  0  0  0  0
   19.1164  -21.9158  -12.9704 C   0  0  0  0  0  0  0  0  0  0  0  0
   18.7226  -22.4235  -11.6218 C   0  0  0  0  0  0  0  0  0  0  0  0
   18.1994  -23.8287  -11.5958 N   0  0  0  0  0  0  0  0  0  0  0  0
   17.8774  -24.2431  -10.2676 C   0  0  0  0  0  0  0  0  0  0  0  0
   18.7108  -20.2229  -15.1918 O   0  0  0  0  0  0  0  0  0  0  0  0
   18.0086  -19.2043  -15.2957 O   0  0  0  0  0  0  0  0  0  0  0  0
  2  1  1  0
  3  2  2  0
  4  2  1  0
  5  4  1  0
  6  5  1  0
  7  6  1  0
  8 10  1  0
  8  7  1  0
  8  9  1  1
 10 11  2  0
 12 10  1  0
 13 12  1  0
 13 14  1  6
 15 14  1  0
 15 19  1  0
 16 15  2  0
 17 13  1  0
 18 17  2  0
 20 17  1  0
 21 27  1  0
 21 20  1  0
 21 22  1  1
 23 22  1  0
 24 23  1  0
 24 25  1  0
 25 26  1  0
 27 29  1  0
 28 27  2  0
M  END
$$$$
