RDK.pdb
     RDKit          3D

 29 28  0  0  1  0  0  0  0  0999 V2000
   19.4673  -23.4832  -13.3990 N   0  0  0  0  0  0  0  0  0  0  0  0
   18.5614  -22.9099  -12.4496 C   0  0  0  0  0  0  0  0  0  0  0  0
   17.4929  -22.3295  -12.8501 N   0  0  0  0  0  0  0  0  0  0  0  0
   18.8196  -22.9671  -11.0474 N   0  0  0  0  0  0  0  0  0  0  0  0
   18.7361  -24.1992  -10.2956 C   0  0  0  0  0  0  0  0  0  0  0  0
   17.9808  -23.8793   -9.0266 C   0  0  0  0  0  0  0  0  0  0  0  0
   18.7957  -24.0536   -7.7834 C   0  0  0  0  0  0  0  0  0  0  0  0
   18.8082  -25.5463   -7.4723 C   0  0  2  0  0  0  0  0  0  0  0  0
   18.6012  -26.3228   -8.6767 N   0  0  0  0  0  0  0  0  0  0  0  0
   17.7436  -25.9117   -6.5089 C   0  0  0  0  0  0  0  0  0  0  0  0
   16.5893  -26.2297   -6.8991 O   0  0  0  0  0  0  0  0  0  0  0  0
   16.8548  -21.8254  -12.2322 N   0  0  0  0  0  0  0  0  0  0  0  0
   17.9883  -25.9157   -5.1174 C   0  0  1  0  0  0  0  0  0  0  0  0
   16.9124  -26.2175   -4.1235 C   0  0  0  0  0  0  0  0  0  0  0  0
   17.6123  -26.4010   -2.7899 C   0  0  0  0  0  0  0  0  0  0  0  0
   18.2987  -27.6452   -2.6092 O   0  0  0  0  0  0  0  0  0  0  0  0
   18.2702  -28.6601   -3.3090 C   0  0  0  0  0  0  0  0  0  0  0  0
   16.1851  -24.9142   -4.0450 O   0  0  0  0  0  0  0  0  0  0  0  0
   16.8928  -23.8643   -4.2203 O   0  0  0  0  0  0  0  0  0  0  0  0
   19.1414  -27.7508   -1.4648 N   0  0  0  0  0  0  0  0  0  0  0  0
   14.8285  -24.7100   -3.8084 C   0  0  1  0  0  0  0  0  0  0  0  0
   14.3135  -23.3502   -3.7946 C   0  0  0  0  0  0  0  0  0  0  0  0
   13.2864  -23.1134   -4.9004 C   0  0  0  0  0  0  0  0  0  0  0  0
   12.7902  -21.7209   -4.7954 C   0  0  0  0  0  0  0  0  0  0  0  0
   11.7015  -21.3607   -5.7528 C   0  0  0  0  0  0  0  0  0  0  0  0
   11.2799  -19.9217   -5.7290 N   0  0  0  0  0  0  0  0  0  0  0  0
   10.2416  -19.6646   -6.6752 C   0  0  0  0  0  0  0  0  0  0  0  0
   13.6372  -23.0907   -2.4983 O   0  0  0  0  0  0  0  0  0  0  0  0
   13.2530  -24.0454   -1.8037 O   0  0  0  0  0  0  0  0  0  0  0  0
  2  1  1  0
  3  2  2  0
  4  2  1  0
  5  4  1  0
  6  5  1  0
  7  6  1  0
  8 10  1  0
  8  7  1  0
  8  9  1  6
 10 11  2  0
 12 10  1  0
 13 12  1  0
 13 14  1  1
 15 14  1  0
 15 19  1  0
 16 15  2  0
 17 13  1  0
 18 17  2  0
 20 17  1  0
 21 27  1  0
 21 20  1  0
 21 22  1  1
 23 22  1  0
 24 23  1  0
 24 25  1  0
 25 26  1  0
 27 29  1  0
 28 27  2  0
M  END
$$$$
