RDK.pdb
     RDKit          3D

 29 28  0  0  1  0  0  0  0  0999 V2000
   22.3209  -27.7264  -15.3304 N   0  0  0  0  0  0  0  0  0  0  0  0
   22.1340  -26.6344  -14.4229 C   0  0  0  0  0  0  0  0  0  0  0  0
   21.9871  -26.8572  -13.1708 N   0  0  0  0  0  0  0  0  0  0  0  0
   22.1058  -25.2834  -14.8811 N   0  0  0  0  0  0  0  0  0  0  0  0
   22.3355  -24.9312  -16.2643 C   0  0  0  0  0  0  0  0  0  0  0  0
   23.8094  -24.6237  -16.3917 C   0  0  0  0  0  0  0  0  0  0  0  0
   24.0948  -23.2093  -16.7894 C   0  0  0  0  0  0  0  0  0  0  0  0
   24.5859  -22.4917  -15.5369 C   0  0  2  0  0  0  0  0  0  0  0  0
   25.3001  -23.4049  -14.6695 N   0  0  0  0  0  0  0  0  0  0  0  0
   23.4620  -21.9158  -14.7620 C   0  0  0  0  0  0  0  0  0  0  0  0
   23.3012  -22.1873  -13.5429 O   0  0  0  0  0  0  0  0  0  0  0  0
   21.7779  -26.1296  -12.4853 N   0  0  0  0  0  0  0  0  0  0  0  0
   22.5315  -21.0410  -15.3660 C   0  0  1  0  0  0  0  0  0  0  0  0
   21.4257  -20.3998  -14.5897 C   0  0  0  0  0  0  0  0  0  0  0  0
   21.0836  -19.1184  -15.3265 C   0  0  0  0  0  0  0  0  0  0  0  0
   21.0938  -17.9218  -14.5392 O   0  0  0  0  0  0  0  0  0  0  0  0
   21.3016  -17.7850  -13.3315 C   0  0  0  0  0  0  0  0  0  0  0  0
   20.2901  -21.3419  -14.8273 O   0  0  0  0  0  0  0  0  0  0  0  0
   20.2749  -21.9285  -15.9629 O   0  0  0  0  0  0  0  0  0  0  0  0
   20.8292  -16.7016  -15.2262 N   0  0  0  0  0  0  0  0  0  0  0  0
   19.2510  -21.6585  -13.9566 C   0  0  2  0  0  0  0  0  0  0  0  0
   18.2002  -22.5548  -14.4115 C   0  0  0  0  0  0  0  0  0  0  0  0
   17.1058  -22.7371  -13.3614 C   0  0  0  0  0  0  0  0  0  0  0  0
   16.0887  -23.6735  -13.8952 C   0  0  0  0  0  0  0  0  0  0  0  0
   14.9748  -24.0040  -12.9561 C   0  0  0  0  0  0  0  0  0  0  0  0
   14.1251  -22.8411  -12.5382 N   0  0  0  0  0  0  0  0  0  0  0  0
   13.0407  -23.2570  -11.7072 C   0  0  0  0  0  0  0  0  0  0  0  0
   17.5595  -21.9895  -15.6260 O   0  0  0  0  0  0  0  0  0  0  0  0
   17.3235  -20.7720  -15.6862 O   0  0  0  0  0  0  0  0  0  0  0  0
  2  1  1  0
  3  2  2  0
  4  2  1  0
  5  4  1  0
  6  5  1  0
  7  6  1  0
  8 10  1  0
  8  7  1  0
  8  9  1  1
 10 11  2  0
 12 10  1  0
 13 12  1  0
 13 14  1  6
 15 14  1  0
 15 19  1  0
 16 15  2  0
 17 13  1  0
 18 17  2  0
 20 17  1  0
 21 27  1  0
 21 20  1  0
 21 22  1  1
 23 22  1  0
 24 23  1  0
 24 25  1  0
 25 26  1  0
 27 29  1  0
 28 27  2  0
M  END
$$$$
