RDK.pdb
     RDKit          3D

 29 28  0  0  1  0  0  0  0  0999 V2000
   11.9655  -12.0096   -9.9586 N   0  0  0  0  0  0  0  0  0  0  0  0
   12.6620  -11.5739  -11.1316 C   0  0  0  0  0  0  0  0  0  0  0  0
   12.3850  -12.0870  -12.2714 N   0  0  0  0  0  0  0  0  0  0  0  0
   13.6725  -10.5686  -11.0659 N   0  0  0  0  0  0  0  0  0  0  0  0
   14.5540  -10.4317   -9.9282 C   0  0  0  0  0  0  0  0  0  0  0  0
   14.2470   -9.0903   -9.3042 C   0  0  0  0  0  0  0  0  0  0  0  0
   15.0983   -8.7732   -8.1147 C   0  0  0  0  0  0  0  0  0  0  0  0
   14.7664   -7.3421   -7.7063 C   0  0  2  0  0  0  0  0  0  0  0  0
   13.3361   -7.1683   -7.5633 N   0  0  0  0  0  0  0  0  0  0  0  0
   15.2438   -6.3633   -8.7109 C   0  0  0  0  0  0  0  0  0  0  0  0
   14.5878   -6.1304   -9.7604 O   0  0  0  0  0  0  0  0  0  0  0  0
   12.8669  -11.8403  -13.1373 N   0  0  0  0  0  0  0  0  0  0  0  0
   16.4532   -5.6571   -8.5248 C   0  0  2  0  0  0  0  0  0  0  0  0
   16.9310   -4.6306   -9.5017 C   0  0  0  0  0  0  0  0  0  0  0  0
   17.3824   -3.4416   -8.6743 C   0  0  0  0  0  0  0  0  0  0  0  0
   17.9272   -2.3389   -9.4084 O   0  0  0  0  0  0  0  0  0  0  0  0
   18.1373   -2.2360  -10.6191 C   0  0  0  0  0  0  0  0  0  0  0  0
   18.1708   -5.2667  -10.0419 O   0  0  0  0  0  0  0  0  0  0  0  0
   18.9333   -5.8293   -9.1840 O   0  0  0  0  0  0  0  0  0  0  0  0
   18.2855   -1.1834   -8.6552 N   0  0  0  0  0  0  0  0  0  0  0  0
   18.5898   -5.3224  -11.3683 C   0  0  2  0  0  0  0  0  0  0  0  0
   19.7880   -6.0778  -11.6967 C   0  0  0  0  0  0  0  0  0  0  0  0
   19.5201   -7.1511  -12.7502 C   0  0  0  0  0  0  0  0  0  0  0  0
   20.8060   -7.7959  -13.1069 C   0  0  0  0  0  0  0  0  0  0  0  0
   20.7179   -8.8452  -14.1666 C   0  0  0  0  0  0  0  0  0  0  0  0
   22.0156   -9.5107  -14.5162 N   0  0  0  0  0  0  0  0  0  0  0  0
   21.8296  -10.5451  -15.4831 C   0  0  0  0  0  0  0  0  0  0  0  0
   20.8152   -5.1595  -12.2505 O   0  0  0  0  0  0  0  0  0  0  0  0
   20.4655   -4.0860  -12.7669 O   0  0  0  0  0  0  0  0  0  0  0  0
  2  1  1  0
  3  2  2  0
  4  2  1  0
  5  4  1  0
  6  5  1  0
  7  6  1  0
  8 10  1  0
  8  7  1  0
  8  9  1  6
 10 11  2  0
 12 10  1  0
 13 12  1  0
 13 14  1  6
 15 14  1  0
 15 19  1  0
 16 15  2  0
 17 13  1  0
 18 17  2  0
 20 17  1  0
 21 27  1  0
 21 20  1  0
 21 22  1  6
 23 22  1  0
 24 23  1  0
 24 25  1  0
 25 26  1  0
 27 29  1  0
 28 27  2  0
M  END
$$$$
