RDK.pdb
     RDKit          3D

 29 28  0  0  1  0  0  0  0  0999 V2000
   27.7769  -26.2685  -16.8499 N   0  0  0  0  0  0  0  0  0  0  0  0
   26.6767  -26.4612  -17.7461 C   0  0  0  0  0  0  0  0  0  0  0  0
   26.6793  -27.4455  -18.5647 N   0  0  0  0  0  0  0  0  0  0  0  0
   25.5597  -25.5734  -17.7537 N   0  0  0  0  0  0  0  0  0  0  0  0
   25.3209  -24.6221  -16.6915 C   0  0  0  0  0  0  0  0  0  0  0  0
   24.1159  -25.1213  -15.9287 C   0  0  0  0  0  0  0  0  0  0  0  0
   23.6674  -24.1944  -14.8425 C   0  0  0  0  0  0  0  0  0  0  0  0
   23.2542  -25.0678  -13.6629 C   0  0  2  0  0  0  0  0  0  0  0  0
   24.1275  -26.2166  -13.5449 N   0  0  0  0  0  0  0  0  0  0  0  0
   21.8670  -25.5663  -13.8127 C   0  0  0  0  0  0  0  0  0  0  0  0
   21.4832  -26.1231  -14.8750 O   0  0  0  0  0  0  0  0  0  0  0  0
   25.9152  -27.6485  -19.2111 N   0  0  0  0  0  0  0  0  0  0  0  0
   20.9267  -25.4336  -12.7667 C   0  0  1  0  0  0  0  0  0  0  0  0
   19.6147  -26.1512  -12.7835 C   0  0  0  0  0  0  0  0  0  0  0  0
   19.1784  -26.2621  -11.3346 C   0  0  0  0  0  0  0  0  0  0  0  0
   19.6284  -27.4269  -10.6328 O   0  0  0  0  0  0  0  0  0  0  0  0
   20.2447  -28.4054  -11.0608 C   0  0  0  0  0  0  0  0  0  0  0  0
   18.7151  -25.1425  -13.4214 O   0  0  0  0  0  0  0  0  0  0  0  0
   18.9201  -23.9229  -13.0984 O   0  0  0  0  0  0  0  0  0  0  0  0
   19.3347  -27.4879   -9.2396 N   0  0  0  0  0  0  0  0  0  0  0  0
   17.6846  -25.3746  -14.3282 C   0  0  2  0  0  0  0  0  0  0  0  0
   17.0009  -24.2373  -14.9226 C   0  0  0  0  0  0  0  0  0  0  0  0
   16.3665  -24.5868  -16.2676 C   0  0  0  0  0  0  0  0  0  0  0  0
   15.7788  -23.3563  -16.8479 C   0  0  0  0  0  0  0  0  0  0  0  0
   15.0542  -23.5470  -18.1403 C   0  0  0  0  0  0  0  0  0  0  0  0
   14.5558  -22.2881  -18.7852 N   0  0  0  0  0  0  0  0  0  0  0  0
   14.0043  -22.5446  -20.0773 C   0  0  0  0  0  0  0  0  0  0  0  0
   15.9095  -23.7898  -14.0205 O   0  0  0  0  0  0  0  0  0  0  0  0
   15.4512  -24.5741  -13.1741 O   0  0  0  0  0  0  0  0  0  0  0  0
  2  1  1  0
  3  2  2  0
  4  2  1  0
  5  4  1  0
  6  5  1  0
  7  6  1  0
  8 10  1  0
  8  7  1  0
  8  9  1  6
 10 11  2  0
 12 10  1  0
 13 12  1  0
 13 14  1  6
 15 14  1  0
 15 19  1  0
 16 15  2  0
 17 13  1  0
 18 17  2  0
 20 17  1  0
 21 27  1  0
 21 20  1  0
 21 22  1  6
 23 22  1  0
 24 23  1  0
 24 25  1  0
 25 26  1  0
 27 29  1  0
 28 27  2  0
M  END
$$$$
