RDK.pdb
     RDKit          3D

 29 28  0  0  1  0  0  0  0  0999 V2000
   28.4379  -21.4719  -10.2811 N   0  0  0  0  0  0  0  0  0  0  0  0
   29.4122  -21.6268  -11.3191 C   0  0  0  0  0  0  0  0  0  0  0  0
   30.5907  -22.0404  -11.0380 N   0  0  0  0  0  0  0  0  0  0  0  0
   29.1028  -21.3282  -12.6797 N   0  0  0  0  0  0  0  0  0  0  0  0
   27.9670  -20.5159  -13.0540 C   0  0  0  0  0  0  0  0  0  0  0  0
   28.4851  -19.1082  -13.2359 C   0  0  0  0  0  0  0  0  0  0  0  0
   27.8897  -18.3970  -14.4105 C   0  0  0  0  0  0  0  0  0  0  0  0
   26.6506  -19.1860  -14.8194 C   0  0  2  0  0  0  0  0  0  0  0  0
   26.7847  -19.6868  -16.1713 N   0  0  0  0  0  0  0  0  0  0  0  0
   25.4288  -18.3498  -14.7649 C   0  0  0  0  0  0  0  0  0  0  0  0
   25.4564  -17.1809  -14.2973 O   0  0  0  0  0  0  0  0  0  0  0  0
   31.3351  -22.1466  -11.7290 N   0  0  0  0  0  0  0  0  0  0  0  0
   24.1893  -18.8367  -15.2369 C   0  0  1  0  0  0  0  0  0  0  0  0
   23.0057  -17.9425  -15.4261 C   0  0  0  0  0  0  0  0  0  0  0  0
   23.4034  -16.9397  -16.4930 C   0  0  0  0  0  0  0  0  0  0  0  0
   22.4054  -15.9760  -16.8494 O   0  0  0  0  0  0  0  0  0  0  0  0
   21.6351  -15.3457  -16.1215 C   0  0  0  0  0  0  0  0  0  0  0  0
   22.0151  -18.8652  -16.0593 O   0  0  0  0  0  0  0  0  0  0  0  0
   22.4364  -19.5419  -17.0584 O   0  0  0  0  0  0  0  0  0  0  0  0
   22.2625  -15.6863  -18.2374 N   0  0  0  0  0  0  0  0  0  0  0  0
   20.6907  -19.0772  -15.6863 C   0  0  2  0  0  0  0  0  0  0  0  0
   19.7321  -19.4904  -16.6986 C   0  0  0  0  0  0  0  0  0  0  0  0
   19.2302  -18.3114  -17.5303 C   0  0  0  0  0  0  0  0  0  0  0  0
   17.7519  -18.2624  -17.4384 C   0  0  0  0  0  0  0  0  0  0  0  0
   17.1079  -17.1261  -18.1636 C   0  0  0  0  0  0  0  0  0  0  0  0
   15.6086  -17.1525  -18.1896 N   0  0  0  0  0  0  0  0  0  0  0  0
   15.0759  -15.9982  -18.8403 C   0  0  0  0  0  0  0  0  0  0  0  0
   20.3797  -20.4473  -17.6314 O   0  0  0  0  0  0  0  0  0  0  0  0
   20.5541  -20.1262  -18.8180 O   0  0  0  0  0  0  0  0  0  0  0  0
  2  1  1  0
  3  2  2  0
  4  2  1  0
  5  4  1  0
  6  5  1  0
  7  6  1  0
  8 10  1  0
  8  7  1  0
  8  9  1  6
 10 11  2  0
 12 10  1  0
 13 12  1  0
 13 14  1  1
 15 14  1  0
 15 19  1  0
 16 15  2  0
 17 13  1  0
 18 17  2  0
 20 17  1  0
 21 27  1  0
 21 20  1  0
 21 22  1  1
 23 22  1  0
 24 23  1  0
 24 25  1  0
 25 26  1  0
 27 29  1  0
 28 27  2  0
M  END
$$$$
