RDK.pdb
     RDKit          3D

 29 28  0  0  1  0  0  0  0  0999 V2000
   32.3636  -21.8382   -9.1461 N   0  0  0  0  0  0  0  0  0  0  0  0
   32.3154  -22.2817  -10.5069 C   0  0  0  0  0  0  0  0  0  0  0  0
   33.2988  -22.9317  -11.0063 N   0  0  0  0  0  0  0  0  0  0  0  0
   31.1851  -22.0153  -11.3361 N   0  0  0  0  0  0  0  0  0  0  0  0
   29.9837  -21.3915  -10.8285 C   0  0  0  0  0  0  0  0  0  0  0  0
   29.0482  -21.2373  -12.0049 C   0  0  0  0  0  0  0  0  0  0  0  0
   27.8329  -20.4182  -11.7015 C   0  0  0  0  0  0  0  0  0  0  0  0
   26.6241  -21.2868  -12.0323 C   0  0  2  0  0  0  0  0  0  0  0  0
   26.9434  -22.2311  -13.0825 N   0  0  0  0  0  0  0  0  0  0  0  0
   25.4751  -20.4712  -12.4901 C   0  0  0  0  0  0  0  0  0  0  0  0
   25.0008  -19.5497  -11.7748 O   0  0  0  0  0  0  0  0  0  0  0  0
   33.3399  -23.2408  -11.9788 N   0  0  0  0  0  0  0  0  0  0  0  0
   24.8719  -20.7003  -13.7470 C   0  0  1  0  0  0  0  0  0  0  0  0
   23.7962  -19.8114  -14.2847 C   0  0  0  0  0  0  0  0  0  0  0  0
   24.0495  -19.7010  -15.7765 C   0  0  0  0  0  0  0  0  0  0  0  0
   24.7240  -18.5142  -16.2107 O   0  0  0  0  0  0  0  0  0  0  0  0
   24.8381  -17.4284  -15.6377 C   0  0  0  0  0  0  0  0  0  0  0  0
   22.5781  -20.6622  -14.1231 O   0  0  0  0  0  0  0  0  0  0  0  0
   22.6559  -21.8494  -14.5903 O   0  0  0  0  0  0  0  0  0  0  0  0
   25.3627  -18.5706  -17.4834 N   0  0  0  0  0  0  0  0  0  0  0  0
   21.3721  -20.3154  -13.5202 C   0  0  1  0  0  0  0  0  0  0  0  0
   20.3983  -21.3590  -13.2431 C   0  0  0  0  0  0  0  0  0  0  0  0
   20.3189  -21.6904  -11.7539 C   0  0  0  0  0  0  0  0  0  0  0  0
   19.2928  -22.7413  -11.5568 C   0  0  0  0  0  0  0  0  0  0  0  0
   19.1182  -23.2019  -10.1464 C   0  0  0  0  0  0  0  0  0  0  0  0
   18.2037  -24.3768   -9.9665 N   0  0  0  0  0  0  0  0  0  0  0  0
   18.1624  -24.8043   -8.6045 C   0  0  0  0  0  0  0  0  0  0  0  0
   19.0505  -20.9032  -13.6684 O   0  0  0  0  0  0  0  0  0  0  0  0
   18.8648  -19.7069  -13.9437 O   0  0  0  0  0  0  0  0  0  0  0  0
  2  1  1  0
  3  2  2  0
  4  2  1  0
  5  4  1  0
  6  5  1  0
  7  6  1  0
  8 10  1  0
  8  7  1  0
  8  9  1  6
 10 11  2  0
 12 10  1  0
 13 12  1  0
 13 14  1  1
 15 14  1  0
 15 19  1  0
 16 15  2  0
 17 13  1  0
 18 17  2  0
 20 17  1  0
 21 27  1  0
 21 20  1  0
 21 22  1  6
 23 22  1  0
 24 23  1  0
 24 25  1  0
 25 26  1  0
 27 29  1  0
 28 27  2  0
M  END
$$$$
