RDK.pdb
     RDKit          3D

 29 28  0  0  1  0  0  0  0  0999 V2000
   29.3422  -23.7755  -16.3236 N   0  0  0  0  0  0  0  0  0  0  0  0
   27.9662  -24.1706  -16.2837 C   0  0  0  0  0  0  0  0  0  0  0  0
   27.6547  -25.3936  -16.0688 N   0  0  0  0  0  0  0  0  0  0  0  0
   26.9154  -23.2256  -16.4803 N   0  0  0  0  0  0  0  0  0  0  0  0
   27.1503  -21.7991  -16.4906 C   0  0  0  0  0  0  0  0  0  0  0  0
   27.4389  -21.3996  -15.0622 C   0  0  0  0  0  0  0  0  0  0  0  0
   26.5052  -20.3577  -14.5305 C   0  0  0  0  0  0  0  0  0  0  0  0
   26.0594  -19.5181  -15.7228 C   0  0  2  0  0  0  0  0  0  0  0  0
   26.9745  -18.4185  -15.9463 N   0  0  0  0  0  0  0  0  0  0  0  0
   24.7080  -18.9480  -15.5138 C   0  0  0  0  0  0  0  0  0  0  0  0
   24.4071  -18.3531  -14.4454 O   0  0  0  0  0  0  0  0  0  0  0  0
   26.6934  -25.7296  -15.9917 N   0  0  0  0  0  0  0  0  0  0  0  0
   23.7097  -19.0528  -16.5080 C   0  0  2  0  0  0  0  0  0  0  0  0
   22.3184  -18.5488  -16.2916 C   0  0  0  0  0  0  0  0  0  0  0  0
   21.9166  -17.8586  -17.5817 C   0  0  0  0  0  0  0  0  0  0  0  0
   22.3725  -16.5097  -17.7383 O   0  0  0  0  0  0  0  0  0  0  0  0
   23.0117  -15.8067  -16.9524 C   0  0  0  0  0  0  0  0  0  0  0  0
   21.5327  -19.8184  -16.2272 O   0  0  0  0  0  0  0  0  0  0  0  0
   22.2093  -20.8902  -16.0616 O   0  0  0  0  0  0  0  0  0  0  0  0
   22.0550  -15.8659  -18.9693 N   0  0  0  0  0  0  0  0  0  0  0  0
   20.1521  -19.9702  -16.3217 C   0  0  2  0  0  0  0  0  0  0  0  0
   19.4615  -20.7660  -15.3197 C   0  0  0  0  0  0  0  0  0  0  0  0
   20.3190  -20.9949  -14.0763 C   0  0  0  0  0  0  0  0  0  0  0  0
   20.1007  -22.3808  -13.5991 C   0  0  0  0  0  0  0  0  0  0  0  0
   20.5638  -23.4535  -14.5300 C   0  0  0  0  0  0  0  0  0  0  0  0
   20.3472  -24.8565  -14.0465 N   0  0  0  0  0  0  0  0  0  0  0  0
   20.6585  -25.8134  -15.0599 C   0  0  0  0  0  0  0  0  0  0  0  0
   18.2317  -20.0558  -14.8855 O   0  0  0  0  0  0  0  0  0  0  0  0
   18.2232  -18.8152  -14.8370 O   0  0  0  0  0  0  0  0  0  0  0  0
  2  1  1  0
  3  2  2  0
  4  2  1  0
  5  4  1  0
  6  5  1  0
  7  6  1  0
  8 10  1  0
  8  7  1  0
  8  9  1  1
 10 11  2  0
 12 10  1  0
 13 12  1  0
 13 14  1  1
 15 14  1  0
 15 19  1  0
 16 15  2  0
 17 13  1  0
 18 17  2  0
 20 17  1  0
 21 27  1  0
 21 20  1  0
 21 22  1  6
 23 22  1  0
 24 23  1  0
 24 25  1  0
 25 26  1  0
 27 29  1  0
 28 27  2  0
M  END
$$$$
