LFT.pdb
     RDKit          3D

 27 27  0  0  1  0  0  0  0  0999 V2000
   26.1432  -27.5013  -16.4170 C   0  0  0  0  0  0  0  0  0  0  0  0
   26.0093  -26.0197  -16.7006 C   0  0  1  0  0  0  0  0  0  0  0  0
   25.6564  -25.7872  -18.1328 C   0  0  0  0  0  0  0  0  0  0  0  0
   25.1364  -25.3256  -15.7092 C   0  0  0  0  0  0  0  0  0  0  0  0
   25.0336  -23.8460  -15.8728 C   0  0  2  0  0  0  0  0  0  0  0  0
   26.3151  -23.1993  -15.7046 N   0  0  0  0  0  0  0  0  0  0  0  0
   24.0909  -23.3391  -14.8416 C   0  0  0  0  0  0  0  0  0  0  0  0
   23.5984  -24.1181  -13.9571 O   0  0  0  0  0  0  0  0  0  0  0  0
   23.6862  -21.9783  -14.7778 N   0  0  0  0  0  0  0  0  0  0  0  0
   22.7994  -21.4868  -13.7586 C   0  0  1  0  0  0  0  0  0  0  0  0
   23.1030  -20.1007  -13.2885 C   0  0  0  0  0  0  0  0  0  0  0  0
   22.2630  -19.6900  -12.1355 C   0  0  0  0  0  0  0  0  0  0  0  0
   21.1143  -18.9240  -12.3057 C   0  0  0  0  0  0  0  0  0  0  0  0
   20.3250  -18.5381  -11.2429 C   0  0  0  0  0  0  0  0  0  0  0  0
   20.7192  -18.9446   -9.9762 C   0  0  0  0  0  0  0  0  0  0  0  0
   21.8523  -19.7057   -9.7583 C   0  0  0  0  0  0  0  0  0  0  0  0
   22.6242  -20.0758  -10.8612 C   0  0  0  0  0  0  0  0  0  0  0  0
   21.3683  -21.6607  -14.1310 C   0  0  0  0  0  0  0  0  0  0  0  0
   20.9283  -21.2376  -15.2373 O   0  0  0  0  0  0  0  0  0  0  0  0
   19.3023  -24.6582  -14.7745 C   0  0  0  0  0  0  0  0  0  0  0  0
   18.5992  -23.8755  -13.6773 C   0  0  1  0  0  0  0  0  0  0  0  0
   18.8601  -24.4980  -12.4623 O   0  0  0  0  0  0  0  0  0  0  0  0
   19.0408  -22.4272  -13.6751 C   0  0  2  0  0  0  0  0  0  0  0  0
   20.4335  -22.3026  -13.2758 N   0  0  0  0  0  0  0  0  0  0  0  0
   18.1607  -21.6069  -12.8133 C   0  0  0  0  0  0  0  0  0  0  0  0
   18.5606  -21.1006  -11.7351 O   0  0  0  0  0  0  0  0  0  0  0  0
   16.8526  -21.3807  -13.1935 O   0  0  0  0  0  0  0  0  0  0  0  0
  2  4  1  0
  2  1  1  1
  2  3  1  0
  5  4  1  0
  5  6  1  1
  7  5  1  0
  8  7  2  0
  9  7  1  0
 10  9  1  0
 11 12  1  0
 10 11  1  6
 12 13  2  0
 13 14  1  0
 15 14  2  0
 16 15  1  0
 17 16  2  0
 17 12  1  0
 18 10  1  0
 18 19  2  0
 21 20  1  6
 21 22  1  0
 21 23  1  0
 23 24  1  1
 24 18  1  0
 25 23  1  0
 25 27  1  0
 26 25  2  0
M  END
$$$$
