LFT.pdb
     RDKit          3D

 27 27  0  0  1  0  0  0  0  0999 V2000
   12.8518  -13.1500   10.6513 C   0  0  0  0  0  0  0  0  0  0  0  0
   12.6292  -12.7496    9.2079 C   0  0  1  0  0  0  0  0  0  0  0  0
   13.1119  -11.3573    8.9669 C   0  0  0  0  0  0  0  0  0  0  0  0
   13.1344  -13.7736    8.2473 C   0  0  0  0  0  0  0  0  0  0  0  0
   13.0139  -13.4120    6.8046 C   0  0  2  0  0  0  0  0  0  0  0  0
   11.6649  -13.5938    6.3189 N   0  0  0  0  0  0  0  0  0  0  0  0
   13.9329  -14.2924    6.0370 C   0  0  0  0  0  0  0  0  0  0  0  0
   13.6431  -15.5166    5.8154 O   0  0  0  0  0  0  0  0  0  0  0  0
   15.1708  -13.8333    5.5111 N   0  0  0  0  0  0  0  0  0  0  0  0
   16.0352  -14.6769    4.7315 C   0  0  1  0  0  0  0  0  0  0  0  0
   16.6311  -14.0138    3.5316 C   0  0  0  0  0  0  0  0  0  0  0  0
   17.4313  -14.9471    2.6995 C   0  0  0  0  0  0  0  0  0  0  0  0
   18.8000  -14.7748    2.5206 C   0  0  0  0  0  0  0  0  0  0  0  0
   19.5542  -15.6360    1.7518 C   0  0  0  0  0  0  0  0  0  0  0  0
   18.8936  -16.6984    1.1517 C   0  0  0  0  0  0  0  0  0  0  0  0
   17.5358  -16.9098    1.3005 C   0  0  0  0  0  0  0  0  0  0  0  0
   16.8082  -16.0149    2.0873 C   0  0  0  0  0  0  0  0  0  0  0  0
   17.0582  -15.3584    5.5718 C   0  0  0  0  0  0  0  0  0  0  0  0
   17.8783  -14.6928    6.2653 O   0  0  0  0  0  0  0  0  0  0  0  0
   18.5189  -18.9030    8.4702 C   0  0  0  0  0  0  0  0  0  0  0  0
   17.4857  -18.2559    7.5621 C   0  0  1  0  0  0  0  0  0  0  0  0
   16.6071  -17.5250    8.3531 O   0  0  0  0  0  0  0  0  0  0  0  0
   18.1511  -17.3918    6.5117 C   0  0  2  0  0  0  0  0  0  0  0  0
   17.1663  -16.7730    5.6389 N   0  0  0  0  0  0  0  0  0  0  0  0
   19.1412  -18.1709    5.7352 C   0  0  0  0  0  0  0  0  0  0  0  0
   18.8112  -18.8954    4.7631 O   0  0  0  0  0  0  0  0  0  0  0  0
   20.4774  -18.1098    6.0782 O   0  0  0  0  0  0  0  0  0  0  0  0
  2  4  1  0
  2  1  1  1
  2  3  1  0
  5  4  1  0
  5  6  1  6
  7  5  1  0
  8  7  2  0
  9  7  1  0
 10  9  1  0
 11 12  1  0
 10 11  1  6
 12 13  2  0
 13 14  1  0
 15 14  2  0
 16 15  1  0
 17 16  2  0
 17 12  1  0
 18 10  1  0
 18 19  2  0
 21 20  1  1
 21 22  1  0
 21 23  1  0
 23 24  1  6
 24 18  1  0
 25 23  1  0
 25 27  1  0
 26 25  2  0
M  END
$$$$
