LFT.pdb
     RDKit          3D

 27 27  0  0  1  0  0  0  0  0999 V2000
   20.9814    5.7442  -11.6892 C   0  0  0  0  0  0  0  0  0  0  0  0
   21.8420    4.7025  -12.3730 C   0  0  1  0  0  0  0  0  0  0  0  0
   22.9497    5.3520  -13.1352 C   0  0  0  0  0  0  0  0  0  0  0  0
   22.2618    3.6113  -11.4459 C   0  0  0  0  0  0  0  0  0  0  0  0
   23.1421    2.5660  -12.0451 C   0  0  2  0  0  0  0  0  0  0  0  0
   22.3909    1.6357  -12.8569 N   0  0  0  0  0  0  0  0  0  0  0  0
   23.7940    1.8280  -10.9319 C   0  0  0  0  0  0  0  0  0  0  0  0
   23.2687    0.7711  -10.4432 O   0  0  0  0  0  0  0  0  0  0  0  0
   25.0222    2.2465  -10.3522 N   0  0  0  0  0  0  0  0  0  0  0  0
   25.6383    1.5399   -9.2623 C   0  0  1  0  0  0  0  0  0  0  0  0
   26.9192    0.8540   -9.6134 C   0  0  0  0  0  0  0  0  0  0  0  0
   27.5697    0.2195   -8.4396 C   0  0  0  0  0  0  0  0  0  0  0  0
   27.1734   -1.0292   -7.9720 C   0  0  0  0  0  0  0  0  0  0  0  0
   27.7712   -1.6296   -6.8840 C   0  0  0  0  0  0  0  0  0  0  0  0
   28.7984   -0.9370   -6.2592 C   0  0  0  0  0  0  0  0  0  0  0  0
   29.2261    0.3056   -6.6877 C   0  0  0  0  0  0  0  0  0  0  0  0
   28.5947    0.8789   -7.7931 C   0  0  0  0  0  0  0  0  0  0  0  0
   25.7622    2.3880   -8.0447 C   0  0  0  0  0  0  0  0  0  0  0  0
   26.3075    3.5265   -8.0981 O   0  0  0  0  0  0  0  0  0  0  0  0
   23.5906    4.3219   -5.9781 C   0  0  0  0  0  0  0  0  0  0  0  0
   24.2300    3.3241   -5.0260 C   0  0  1  0  0  0  0  0  0  0  0  0
   23.3118    2.3114   -4.7750 O   0  0  0  0  0  0  0  0  0  0  0  0
   25.5247    2.7833   -5.5953 C   0  0  2  0  0  0  0  0  0  0  0  0
   25.2808    1.9697   -6.7756 N   0  0  0  0  0  0  0  0  0  0  0  0
   26.2788    2.0280   -4.5701 C   0  0  0  0  0  0  0  0  0  0  0  0
   26.5006    0.7955   -4.6732 O   0  0  0  0  0  0  0  0  0  0  0  0
   26.7620    2.6859   -3.4564 O   0  0  0  0  0  0  0  0  0  0  0  0
  2  4  1  0
  2  1  1  1
  2  3  1  0
  5  4  1  0
  5  6  1  1
  7  5  1  0
  8  7  2  0
  9  7  1  0
 10  9  1  0
 11 12  1  0
 10 11  1  6
 12 13  2  0
 13 14  1  0
 15 14  2  0
 16 15  1  0
 17 16  2  0
 17 12  1  0
 18 10  1  0
 18 19  2  0
 21 20  1  6
 21 22  1  0
 21 23  1  0
 23 24  1  6
 24 18  1  0
 25 23  1  0
 25 27  1  0
 26 25  2  0
M  END
$$$$
