LFT.pdb
     RDKit          3D

 27 27  0  0  1  0  0  0  0  0999 V2000
   18.9591  -11.8218  -20.5519 C   0  0  0  0  0  0  0  0  0  0  0  0
   20.1430  -10.9698  -20.1448 C   0  0  1  0  0  0  0  0  0  0  0  0
   20.4918  -10.0013  -21.2266 C   0  0  0  0  0  0  0  0  0  0  0  0
   19.9774  -10.3745  -18.7867 C   0  0  0  0  0  0  0  0  0  0  0  0
   21.0693   -9.4539  -18.3542 C   0  0  2  0  0  0  0  0  0  0  0  0
   22.2628  -10.1784  -17.9808 N   0  0  0  0  0  0  0  0  0  0  0  0
   20.5774   -8.6845  -17.1816 C   0  0  0  0  0  0  0  0  0  0  0  0
   19.6872   -9.1658  -16.4021 O   0  0  0  0  0  0  0  0  0  0  0  0
   21.0596   -7.3866  -16.8612 N   0  0  0  0  0  0  0  0  0  0  0  0
   20.6271   -6.6729  -15.6906 C   0  0  1  0  0  0  0  0  0  0  0  0
   21.6840   -6.4923  -14.6490 C   0  0  0  0  0  0  0  0  0  0  0  0
   21.9949   -7.7500  -13.9243 C   0  0  0  0  0  0  0  0  0  0  0  0
   23.0591   -8.5640  -14.2985 C   0  0  0  0  0  0  0  0  0  0  0  0
   23.3589   -9.7334  -13.6320 C   0  0  0  0  0  0  0  0  0  0  0  0
   22.5517  -10.0789  -12.5577 C   0  0  0  0  0  0  0  0  0  0  0  0
   21.4837   -9.3021  -12.1495 C   0  0  0  0  0  0  0  0  0  0  0  0
   21.2137   -8.1255  -12.8510 C   0  0  0  0  0  0  0  0  0  0  0  0
   19.9433   -5.3959  -16.0348 C   0  0  0  0  0  0  0  0  0  0  0  0
   20.5560   -4.4740  -16.6442 O   0  0  0  0  0  0  0  0  0  0  0  0
   15.7456   -5.1011  -16.3073 C   0  0  0  0  0  0  0  0  0  0  0  0
   16.7458   -4.1993  -17.0125 C   0  0  1  0  0  0  0  0  0  0  0  0
   16.0910   -3.0324  -17.3882 O   0  0  0  0  0  0  0  0  0  0  0  0
   17.9401   -3.9155  -16.1262 C   0  0  2  0  0  0  0  0  0  0  0  0
   18.5850   -5.1479  -15.7021 N   0  0  0  0  0  0  0  0  0  0  0  0
   17.5512   -3.0865  -14.9635 C   0  0  0  0  0  0  0  0  0  0  0  0
   17.5439   -3.5374  -13.7907 O   0  0  0  0  0  0  0  0  0  0  0  0
   17.1814   -1.7704  -15.1577 O   0  0  0  0  0  0  0  0  0  0  0  0
  2  4  1  0
  2  1  1  6
  2  3  1  0
  5  4  1  0
  5  6  1  1
  7  5  1  0
  8  7  2  0
  9  7  1  0
 10  9  1  0
 11 12  1  0
 10 11  1  1
 12 13  2  0
 13 14  1  0
 15 14  2  0
 16 15  1  0
 17 16  2  0
 17 12  1  0
 18 10  1  0
 18 19  2  0
 21 20  1  1
 21 22  1  0
 21 23  1  0
 23 24  1  1
 24 18  1  0
 25 23  1  0
 25 27  1  0
 26 25  2  0
M  END
$$$$
