LFT.pdb
     RDKit          3D

 27 27  0  0  1  0  0  0  0  0999 V2000
   29.1602  -22.1632  -16.1611 C   0  0  0  0  0  0  0  0  0  0  0  0
   28.1978  -21.0216  -15.9086 C   0  0  1  0  0  0  0  0  0  0  0  0
   27.5071  -20.6255  -17.1718 C   0  0  0  0  0  0  0  0  0  0  0  0
   27.2991  -21.2795  -14.7457 C   0  0  0  0  0  0  0  0  0  0  0  0
   26.2549  -20.2419  -14.5017 C   0  0  2  0  0  0  0  0  0  0  0  0
   26.8165  -19.0456  -13.9166 N   0  0  0  0  0  0  0  0  0  0  0  0
   25.2512  -20.8177  -13.5690 C   0  0  0  0  0  0  0  0  0  0  0  0
   24.9860  -22.0672  -13.5733 O   0  0  0  0  0  0  0  0  0  0  0  0
   24.5362  -20.0256  -12.6302 N   0  0  0  0  0  0  0  0  0  0  0  0
   23.5412  -20.5821  -11.7544 C   0  0  1  0  0  0  0  0  0  0  0  0
   23.4762  -19.9430  -10.4047 C   0  0  0  0  0  0  0  0  0  0  0  0
   24.6883  -20.2039   -9.5884 C   0  0  0  0  0  0  0  0  0  0  0  0
   24.9186  -21.4427   -8.9991 C   0  0  0  0  0  0  0  0  0  0  0  0
   26.0415  -21.6977   -8.2404 C   0  0  0  0  0  0  0  0  0  0  0  0
   26.9504  -20.6617   -8.0803 C   0  0  0  0  0  0  0  0  0  0  0  0
   26.7642  -19.4144   -8.6462 C   0  0  0  0  0  0  0  0  0  0  0  0
   25.6141  -19.1972   -9.4074 C   0  0  0  0  0  0  0  0  0  0  0  0
   22.2061  -20.6686  -12.4080 C   0  0  0  0  0  0  0  0  0  0  0  0
   21.7132  -19.6753  -13.0139 O   0  0  0  0  0  0  0  0  0  0  0  0
   20.0097  -24.4051  -12.8345 C   0  0  0  0  0  0  0  0  0  0  0  0
   20.0497  -23.2665  -13.8409 C   0  0  1  0  0  0  0  0  0  0  0  0
   18.8988  -23.3305  -14.6174 O   0  0  0  0  0  0  0  0  0  0  0  0
   20.1857  -21.9296  -13.1431 C   0  0  2  0  0  0  0  0  0  0  0  0
   21.4254  -21.8549  -12.3867 N   0  0  0  0  0  0  0  0  0  0  0  0
   19.0141  -21.6617  -12.2796 C   0  0  0  0  0  0  0  0  0  0  0  0
   19.1126  -21.5457  -11.0323 O   0  0  0  0  0  0  0  0  0  0  0  0
   17.7628  -21.5320  -12.8491 O   0  0  0  0  0  0  0  0  0  0  0  0
  2  4  1  0
  2  1  1  6
  2  3  1  0
  5  4  1  0
  5  6  1  1
  7  5  1  0
  8  7  2  0
  9  7  1  0
 10  9  1  0
 11 12  1  0
 10 11  1  1
 12 13  2  0
 13 14  1  0
 15 14  2  0
 16 15  1  0
 17 16  2  0
 17 12  1  0
 18 10  1  0
 18 19  2  0
 21 20  1  1
 21 22  1  0
 21 23  1  0
 23 24  1  1
 24 18  1  0
 25 23  1  0
 25 27  1  0
 26 25  2  0
M  END
$$$$
