LFT.pdb
     RDKit          3D

 27 27  0  0  1  0  0  0  0  0999 V2000
   24.5367  -20.1850  -15.0219 C   0  0  0  0  0  0  0  0  0  0  0  0
   24.1188  -19.9173  -13.5912 C   0  0  1  0  0  0  0  0  0  0  0  0
   22.6730  -19.5499  -13.5246 C   0  0  0  0  0  0  0  0  0  0  0  0
   24.5430  -21.0034  -12.6601 C   0  0  0  0  0  0  0  0  0  0  0  0
   26.0064  -21.0670  -12.3757 C   0  0  2  0  0  0  0  0  0  0  0  0
   26.6274  -22.2018  -13.0203 N   0  0  0  0  0  0  0  0  0  0  0  0
   26.1787  -21.1856  -10.9042 C   0  0  0  0  0  0  0  0  0  0  0  0
   25.9404  -22.2844  -10.2978 O   0  0  0  0  0  0  0  0  0  0  0  0
   26.6122  -20.1009  -10.0948 N   0  0  0  0  0  0  0  0  0  0  0  0
   26.8036  -20.2289   -8.6757 C   0  0  1  0  0  0  0  0  0  0  0  0
   27.8248  -19.3004   -8.1018 C   0  0  0  0  0  0  0  0  0  0  0  0
   28.0705  -19.5411   -6.6577 C   0  0  0  0  0  0  0  0  0  0  0  0
   28.7774  -20.6536   -6.2131 C   0  0  0  0  0  0  0  0  0  0  0  0
   29.0137  -20.8869   -4.8747 C   0  0  0  0  0  0  0  0  0  0  0  0
   28.5153  -19.9611   -3.9694 C   0  0  0  0  0  0  0  0  0  0  0  0
   27.8073  -18.8414   -4.3639 C   0  0  0  0  0  0  0  0  0  0  0  0
   27.5898  -18.6418   -5.7285 C   0  0  0  0  0  0  0  0  0  0  0  0
   25.5147  -20.1875   -7.9314 C   0  0  0  0  0  0  0  0  0  0  0  0
   24.6916  -19.2454   -8.1086 O   0  0  0  0  0  0  0  0  0  0  0  0
   22.5001  -21.7953   -8.2136 C   0  0  0  0  0  0  0  0  0  0  0  0
   22.8758  -22.0831   -6.7690 C   0  0  1  0  0  0  0  0  0  0  0  0
   23.3497  -23.3874   -6.6935 O   0  0  0  0  0  0  0  0  0  0  0  0
   23.8938  -21.0829   -6.2631 C   0  0  2  0  0  0  0  0  0  0  0  0
   25.1454  -21.1901   -6.9957 N   0  0  0  0  0  0  0  0  0  0  0  0
   24.1101  -21.2383   -4.8073 C   0  0  0  0  0  0  0  0  0  0  0  0
   25.2468  -21.4540   -4.3173 O   0  0  0  0  0  0  0  0  0  0  0  0
   23.0358  -21.1454   -3.9446 O   0  0  0  0  0  0  0  0  0  0  0  0
  2  4  1  0
  2  1  1  6
  2  3  1  0
  5  4  1  0
  5  6  1  6
  7  5  1  0
  8  7  2  0
  9  7  1  0
 10  9  1  0
 11 12  1  0
 10 11  1  1
 12 13  2  0
 13 14  1  0
 15 14  2  0
 16 15  1  0
 17 16  2  0
 17 12  1  0
 18 10  1  0
 18 19  2  0
 21 20  1  6
 21 22  1  0
 21 23  1  0
 23 24  1  6
 24 18  1  0
 25 23  1  0
 25 27  1  0
 26 25  2  0
M  END
$$$$
