LFT.pdb
     RDKit          3D

 27 27  0  0  1  0  0  0  0  0999 V2000
   27.5404  -25.1606  -18.7490 C   0  0  0  0  0  0  0  0  0  0  0  0
   27.3960  -23.6891  -18.4215 C   0  0  1  0  0  0  0  0  0  0  0  0
   26.4656  -23.0244  -19.3820 C   0  0  0  0  0  0  0  0  0  0  0  0
   27.0974  -23.4522  -16.9789 C   0  0  0  0  0  0  0  0  0  0  0  0
   26.8795  -22.0265  -16.5963 C   0  0  2  0  0  0  0  0  0  0  0  0
   28.0945  -21.2517  -16.7067 N   0  0  0  0  0  0  0  0  0  0  0  0
   26.4094  -22.0008  -15.1866 C   0  0  0  0  0  0  0  0  0  0  0  0
   25.5769  -22.8669  -14.7522 O   0  0  0  0  0  0  0  0  0  0  0  0
   26.8503  -21.0264  -14.2507 N   0  0  0  0  0  0  0  0  0  0  0  0
   26.3266  -20.9520  -12.9140 C   0  0  1  0  0  0  0  0  0  0  0  0
   27.2287  -20.2772  -11.9315 C   0  0  0  0  0  0  0  0  0  0  0  0
   26.6737  -20.2707  -10.5547 C   0  0  0  0  0  0  0  0  0  0  0  0
   25.7590  -19.3076  -10.1412 C   0  0  0  0  0  0  0  0  0  0  0  0
   25.2350  -19.2923   -8.8658 C   0  0  0  0  0  0  0  0  0  0  0  0
   25.6560  -20.2848   -7.9924 C   0  0  0  0  0  0  0  0  0  0  0  0
   26.5628  -21.2619   -8.3580 C   0  0  0  0  0  0  0  0  0  0  0  0
   27.0696  -21.2422   -9.6588 C   0  0  0  0  0  0  0  0  0  0  0  0
   24.9424  -20.4039  -12.8852 C   0  0  0  0  0  0  0  0  0  0  0  0
   24.6330  -19.3834  -13.5630 O   0  0  0  0  0  0  0  0  0  0  0  0
   22.8320  -20.4351  -14.7376 C   0  0  0  0  0  0  0  0  0  0  0  0
   21.9682  -20.9536  -13.5992 C   0  0  1  0  0  0  0  0  0  0  0  0
   21.8727  -22.3350  -13.7189 O   0  0  0  0  0  0  0  0  0  0  0  0
   22.5344  -20.5416  -12.2567 C   0  0  2  0  0  0  0  0  0  0  0  0
   23.9096  -20.9898  -12.1060 N   0  0  0  0  0  0  0  0  0  0  0  0
   21.6853  -21.0359  -11.1500 C   0  0  0  0  0  0  0  0  0  0  0  0
   22.1048  -21.8601  -10.2994 O   0  0  0  0  0  0  0  0  0  0  0  0
   20.3852  -20.5853  -11.0344 O   0  0  0  0  0  0  0  0  0  0  0  0
  2  4  1  0
  2  1  1  1
  2  3  1  0
  5  4  1  0
  5  6  1  1
  7  5  1  0
  8  7  2  0
  9  7  1  0
 10  9  1  0
 11 12  1  0
 10 11  1  1
 12 13  2  0
 13 14  1  0
 15 14  2  0
 16 15  1  0
 17 16  2  0
 17 12  1  0
 18 10  1  0
 18 19  2  0
 21 20  1  6
 21 22  1  0
 21 23  1  0
 23 24  1  1
 24 18  1  0
 25 23  1  0
 25 27  1  0
 26 25  2  0
M  END
$$$$
