LFT.pdb
     RDKit          3D

 27 27  0  0  1  0  0  0  0  0999 V2000
   25.2138  -31.2391  -18.6437 C   0  0  0  0  0  0  0  0  0  0  0  0
   26.6095  -30.7079  -18.3922 C   0  0  1  0  0  0  0  0  0  0  0  0
   27.2762  -30.3484  -19.6791 C   0  0  0  0  0  0  0  0  0  0  0  0
   26.6357  -29.6466  -17.3436 C   0  0  0  0  0  0  0  0  0  0  0  0
   27.9760  -29.0507  -17.0698 C   0  0  2  0  0  0  0  0  0  0  0  0
   28.6488  -29.7249  -15.9827 N   0  0  0  0  0  0  0  0  0  0  0  0
   27.7738  -27.6231  -16.7095 C   0  0  0  0  0  0  0  0  0  0  0  0
   27.5345  -27.2736  -15.5044 O   0  0  0  0  0  0  0  0  0  0  0  0
   27.8332  -26.5761  -17.6687 N   0  0  0  0  0  0  0  0  0  0  0  0
   27.7059  -25.1913  -17.3043 C   0  0  1  0  0  0  0  0  0  0  0  0
   28.9406  -24.3772  -17.5214 C   0  0  0  0  0  0  0  0  0  0  0  0
   30.0518  -24.7699  -16.6189 C   0  0  0  0  0  0  0  0  0  0  0  0
   30.7945  -25.9259  -16.8359 C   0  0  0  0  0  0  0  0  0  0  0  0
   31.8300  -26.3001  -16.0058 C   0  0  0  0  0  0  0  0  0  0  0  0
   32.1130  -25.4731  -14.9283 C   0  0  0  0  0  0  0  0  0  0  0  0
   31.4027  -24.3153  -14.6725 C   0  0  0  0  0  0  0  0  0  0  0  0
   30.3617  -23.9718  -15.5371 C   0  0  0  0  0  0  0  0  0  0  0  0
   26.4972  -24.5634  -17.9058 C   0  0  0  0  0  0  0  0  0  0  0  0
   26.2016  -24.7534  -19.1196 O   0  0  0  0  0  0  0  0  0  0  0  0
   22.9407  -25.1480  -17.2240 C   0  0  0  0  0  0  0  0  0  0  0  0
   23.1784  -23.6599  -17.0240 C   0  0  1  0  0  0  0  0  0  0  0  0
   23.2772  -23.4140  -15.6597 O   0  0  0  0  0  0  0  0  0  0  0  0
   24.4136  -23.2022  -17.7705 C   0  0  2  0  0  0  0  0  0  0  0  0
   25.6232  -23.7293  -17.1591 N   0  0  0  0  0  0  0  0  0  0  0  0
   24.4594  -21.7258  -17.8628 C   0  0  0  0  0  0  0  0  0  0  0  0
   23.6449  -21.0718  -18.5611 O   0  0  0  0  0  0  0  0  0  0  0  0
   25.4244  -21.0285  -17.1632 O   0  0  0  0  0  0  0  0  0  0  0  0
  2  4  1  0
  2  1  1  6
  2  3  1  0
  5  4  1  0
  5  6  1  1
  7  5  1  0
  8  7  2  0
  9  7  1  0
 10  9  1  0
 11 12  1  0
 10 11  1  6
 12 13  2  0
 13 14  1  0
 15 14  2  0
 16 15  1  0
 17 16  2  0
 17 12  1  0
 18 10  1  0
 18 19  2  0
 21 20  1  1
 21 22  1  0
 21 23  1  0
 23 24  1  1
 24 18  1  0
 25 23  1  0
 25 27  1  0
 26 25  2  0
M  END
$$$$
