SKL.pdb
     RDKit          3D

 24 23  0  0  1  0  0  0  0  0999 V2000
    9.6115  -13.0502   19.9580 O   0  0  0  0  0  0  0  0  0  0  0  0
    9.2560  -14.3398   19.6646 C   0  0  0  0  0  0  0  0  0  0  0  0
    7.7705  -14.5960   19.7635 C   0  0  2  0  0  0  0  0  0  0  0  0
    7.0207  -13.4563   19.2919 N   0  0  0  0  0  0  0  0  0  0  0  0
    7.3588  -14.9939   21.1294 C   0  0  0  0  0  0  0  0  0  0  0  0
    6.7164  -14.1619   21.8151 O   0  0  0  0  0  0  0  0  0  0  0  0
    7.6631  -16.2507   21.6630 N   0  0  0  0  0  0  0  0  0  0  0  0
    7.3170  -16.6941   22.9916 C   0  0  1  0  0  0  0  0  0  0  0  0
    7.6172  -18.1983   23.0447 C   0  0  0  0  0  0  0  0  0  0  0  0
    7.2337  -18.7027   24.4333 C   0  0  0  0  0  0  0  0  0  0  0  0
    7.4947  -20.1868   24.4450 C   0  0  0  0  0  0  0  0  0  0  0  0
    7.0998  -20.7500   25.7723 C   0  0  0  0  0  0  0  0  0  0  0  0
    6.6760  -22.1139   25.5912 N   0  0  0  0  0  0  0  0  0  0  0  0
    8.1103  -16.0555   24.0499 C   0  0  0  0  0  0  0  0  0  0  0  0
    9.3389  -15.8400   23.9429 O   0  0  0  0  0  0  0  0  0  0  0  0
    5.8678  -11.9934   27.0235 C   0  0  0  0  0  0  0  0  0  0  0  0
    6.8325  -12.8325   26.1246 C   0  0  1  0  0  0  0  0  0  0  0  0
    7.9116  -11.8693   25.6427 C   0  0  0  0  0  0  0  0  0  0  0  0
    7.3621  -13.9612   26.9336 C   0  0  0  0  0  0  0  0  0  0  0  0
    8.2290  -14.9621   26.3069 C   0  0  2  0  0  0  0  0  0  0  0  0
    7.4472  -15.6710   25.2382 N   0  0  0  0  0  0  0  0  0  0  0  0
    8.9872  -15.9293   27.0669 C   0  0  0  0  0  0  0  0  0  0  0  0
    8.9022  -17.1738   27.0743 O   0  0  0  0  0  0  0  0  0  0  0  0
    9.9833  -15.4092   27.9440 O   0  0  0  0  0  0  0  0  0  0  0  0
  2  1  1  0
  3  2  1  0
  3  4  1  1
  5  6  2  0
  5  3  1  0
  7  5  1  0
  8  9  1  6
  8  7  1  0
  9 10  1  0
 11 10  1  0
 11 12  1  0
 12 13  1  0
 14  8  1  0
 15 14  2  0
 17 16  1  1
 18 17  1  0
 19 17  1  0
 20 19  1  1
 20 21  1  0
 21 14  1  0
 22 24  1  0
 22 20  1  0
 23 22  2  0
M  END
$$$$
