SKL.pdb
     RDKit          3D

 24 23  0  0  1  0  0  0  0  0999 V2000
   10.7716  -12.5924   18.7028 O   0  0  0  0  0  0  0  0  0  0  0  0
    9.7698  -12.7109   19.6289 C   0  0  0  0  0  0  0  0  0  0  0  0
    8.7038  -13.7097   19.2437 C   0  0  2  0  0  0  0  0  0  0  0  0
    7.7850  -13.1370   18.2891 N   0  0  0  0  0  0  0  0  0  0  0  0
    7.9954  -14.2581   20.4230 C   0  0  0  0  0  0  0  0  0  0  0  0
    7.0094  -13.6199   20.8652 O   0  0  0  0  0  0  0  0  0  0  0  0
    8.3916  -15.4475   21.0436 N   0  0  0  0  0  0  0  0  0  0  0  0
    7.7528  -16.0348   22.1963 C   0  0  1  0  0  0  0  0  0  0  0  0
    7.8759  -17.5566   22.0388 C   0  0  0  0  0  0  0  0  0  0  0  0
    6.9400  -17.9869   20.9123 C   0  0  0  0  0  0  0  0  0  0  0  0
    7.0152  -19.4900   20.8340 C   0  0  0  0  0  0  0  0  0  0  0  0
    6.2851  -19.9609   19.6175 C   0  0  0  0  0  0  0  0  0  0  0  0
    6.3350  -21.3991   19.5730 N   0  0  0  0  0  0  0  0  0  0  0  0
    8.3925  -15.6771   23.4691 C   0  0  0  0  0  0  0  0  0  0  0  0
    9.6343  -15.6011   23.6086 O   0  0  0  0  0  0  0  0  0  0  0  0
    5.7961  -12.2205   26.9549 C   0  0  0  0  0  0  0  0  0  0  0  0
    6.8495  -12.8843   26.0101 C   0  0  1  0  0  0  0  0  0  0  0  0
    7.9754  -11.8692   25.8474 C   0  0  0  0  0  0  0  0  0  0  0  0
    7.2883  -14.1641   26.6251 C   0  0  0  0  0  0  0  0  0  0  0  0
    8.1959  -15.0504   25.8924 C   0  0  2  0  0  0  0  0  0  0  0  0
    7.5596  -15.4085   24.5798 N   0  0  0  0  0  0  0  0  0  0  0  0
    8.7805  -16.2340   26.4799 C   0  0  0  0  0  0  0  0  0  0  0  0
    9.6755  -16.3305   27.3436 O   0  0  0  0  0  0  0  0  0  0  0  0
    8.2777  -17.4864   26.0209 O   0  0  0  0  0  0  0  0  0  0  0  0
  2  1  1  0
  3  2  1  0
  3  4  1  6
  5  6  2  0
  5  3  1  0
  7  5  1  0
  8  9  1  6
  8  7  1  0
  9 10  1  0
 11 10  1  0
 11 12  1  0
 12 13  1  0
 14  8  1  0
 15 14  2  0
 17 16  1  1
 18 17  1  0
 19 17  1  0
 20 19  1  1
 20 21  1  0
 21 14  1  0
 22 24  1  0
 22 20  1  0
 23 22  2  0
M  END
$$$$
