SKL.pdb
     RDKit          3D

 24 23  0  0  1  0  0  0  0  0999 V2000
   10.5588  -13.5040   20.0530 O   0  0  0  0  0  0  0  0  0  0  0  0
    9.8071  -14.0807   19.0642 C   0  0  0  0  0  0  0  0  0  0  0  0
    8.3228  -13.8439   19.2155 C   0  0  2  0  0  0  0  0  0  0  0  0
    7.9804  -12.4881   18.8576 N   0  0  0  0  0  0  0  0  0  0  0  0
    7.8336  -14.1920   20.5693 C   0  0  0  0  0  0  0  0  0  0  0  0
    7.5405  -13.2522   21.3477 O   0  0  0  0  0  0  0  0  0  0  0  0
    7.6931  -15.5179   20.9928 N   0  0  0  0  0  0  0  0  0  0  0  0
    7.1569  -15.9295   22.2674 C   0  0  1  0  0  0  0  0  0  0  0  0
    7.0228  -17.4575   22.2146 C   0  0  0  0  0  0  0  0  0  0  0  0
    5.9459  -17.7969   21.1874 C   0  0  0  0  0  0  0  0  0  0  0  0
    5.8641  -19.3002   21.1228 C   0  0  0  0  0  0  0  0  0  0  0  0
    4.9583  -19.7005   20.0030 C   0  0  0  0  0  0  0  0  0  0  0  0
    4.8499  -21.1360   19.9830 N   0  0  0  0  0  0  0  0  0  0  0  0
    8.0305  -15.6094   23.4039 C   0  0  0  0  0  0  0  0  0  0  0  0
    9.2800  -15.6262   23.3273 O   0  0  0  0  0  0  0  0  0  0  0  0
    5.8726  -11.9058   26.6886 C   0  0  0  0  0  0  0  0  0  0  0  0
    6.6732  -12.7843   25.6736 C   0  0  1  0  0  0  0  0  0  0  0  0
    7.4139  -11.8130   24.7611 C   0  0  0  0  0  0  0  0  0  0  0  0
    7.5745  -13.6822   26.4417 C   0  0  0  0  0  0  0  0  0  0  0  0
    8.2877  -14.7605   25.7527 C   0  0  2  0  0  0  0  0  0  0  0  0
    7.4231  -15.2685   24.6345 N   0  0  0  0  0  0  0  0  0  0  0  0
    8.8775  -15.8809   26.4490 C   0  0  0  0  0  0  0  0  0  0  0  0
    8.6427  -17.1003   26.3299 O   0  0  0  0  0  0  0  0  0  0  0  0
    9.8756  -15.5728   27.4190 O   0  0  0  0  0  0  0  0  0  0  0  0
  2  1  1  0
  3  2  1  0
  3  4  1  1
  5  6  2  0
  5  3  1  0
  7  5  1  0
  8  9  1  6
  8  7  1  0
  9 10  1  0
 11 10  1  0
 11 12  1  0
 12 13  1  0
 14  8  1  0
 15 14  2  0
 17 16  1  1
 18 17  1  0
 19 17  1  0
 20 19  1  1
 20 21  1  0
 21 14  1  0
 22 24  1  0
 22 20  1  0
 23 22  2  0
M  END
$$$$
