SKL.pdb
     RDKit          3D

 24 23  0  0  1  0  0  0  0  0999 V2000
    7.5735  -19.0877   23.5065 O   0  0  0  0  0  0  0  0  0  0  0  0
    6.8050  -18.8536   22.3974 C   0  0  0  0  0  0  0  0  0  0  0  0
    7.5880  -18.3251   21.2185 C   0  0  2  0  0  0  0  0  0  0  0  0
    8.4245  -19.3570   20.6538 N   0  0  0  0  0  0  0  0  0  0  0  0
    8.3693  -17.1143   21.5604 C   0  0  0  0  0  0  0  0  0  0  0  0
    9.6100  -17.2371   21.7044 O   0  0  0  0  0  0  0  0  0  0  0  0
    7.7689  -15.8614   21.7236 N   0  0  0  0  0  0  0  0  0  0  0  0
    8.4782  -14.6207   21.9212 C   0  0  1  0  0  0  0  0  0  0  0  0
    7.4737  -13.4925   21.6494 C   0  0  0  0  0  0  0  0  0  0  0  0
    6.9539  -13.6629   20.2243 C   0  0  0  0  0  0  0  0  0  0  0  0
    8.1142  -13.3910   19.3021 C   0  0  0  0  0  0  0  0  0  0  0  0
    7.6599  -13.5131   17.8832 C   0  0  0  0  0  0  0  0  0  0  0  0
    8.7883  -13.3034   17.0140 N   0  0  0  0  0  0  0  0  0  0  0  0
    8.9747  -14.4389   23.2914 C   0  0  0  0  0  0  0  0  0  0  0  0
    9.7419  -13.5053   23.6187 O   0  0  0  0  0  0  0  0  0  0  0  0
    6.2338  -13.4852   27.2825 C   0  0  0  0  0  0  0  0  0  0  0  0
    6.9556  -13.5404   25.8973 C   0  0  1  0  0  0  0  0  0  0  0  0
    6.7105  -12.1891   25.2350 C   0  0  0  0  0  0  0  0  0  0  0  0
    8.3934  -13.8352   26.1306 C   0  0  0  0  0  0  0  0  0  0  0  0
    8.9506  -15.1222   25.7072 C   0  0  2  0  0  0  0  0  0  0  0  0
    8.5619  -15.3652   24.2769 N   0  0  0  0  0  0  0  0  0  0  0  0
    8.7751  -16.3402   26.4647 C   0  0  0  0  0  0  0  0  0  0  0  0
    8.9791  -16.5561   27.6763 O   0  0  0  0  0  0  0  0  0  0  0  0
    8.3009  -17.4747   25.7435 O   0  0  0  0  0  0  0  0  0  0  0  0
  2  1  1  0
  3  2  1  0
  3  4  1  1
  5  6  2  0
  5  3  1  0
  7  5  1  0
  8  9  1  1
  8  7  1  0
  9 10  1  0
 11 10  1  0
 11 12  1  0
 12 13  1  0
 14  8  1  0
 15 14  2  0
 17 16  1  1
 18 17  1  0
 19 17  1  0
 20 19  1  1
 20 21  1  0
 21 14  1  0
 22 24  1  0
 22 20  1  0
 23 22  2  0
M  END
$$$$
