SKL.pdb
     RDKit          3D

 24 23  0  0  1  0  0  0  0  0999 V2000
    6.9252  -18.6350   19.3655 O   0  0  0  0  0  0  0  0  0  0  0  0
    7.4779  -19.4908   20.2806 C   0  0  0  0  0  0  0  0  0  0  0  0
    7.5026  -18.9400   21.6871 C   0  0  2  0  0  0  0  0  0  0  0  0
    6.1664  -18.6436   22.1456 N   0  0  0  0  0  0  0  0  0  0  0  0
    8.3973  -17.7668   21.8154 C   0  0  0  0  0  0  0  0  0  0  0  0
    9.6027  -17.9096   21.4964 O   0  0  0  0  0  0  0  0  0  0  0  0
    7.9395  -16.5273   22.2747 N   0  0  0  0  0  0  0  0  0  0  0  0
    8.7244  -15.3175   22.3195 C   0  0  1  0  0  0  0  0  0  0  0  0
    7.8878  -14.2258   21.6383 C   0  0  0  0  0  0  0  0  0  0  0  0
    7.8113  -14.5561   20.1500 C   0  0  0  0  0  0  0  0  0  0  0  0
    8.1189  -13.2829   19.4050 C   0  0  0  0  0  0  0  0  0  0  0  0
    7.9546  -13.5144   17.9373 C   0  0  0  0  0  0  0  0  0  0  0  0
    8.0302  -12.2485   17.2556 N   0  0  0  0  0  0  0  0  0  0  0  0
    9.0143  -14.8548   23.6830 C   0  0  0  0  0  0  0  0  0  0  0  0
    9.1243  -13.6439   23.9814 O   0  0  0  0  0  0  0  0  0  0  0  0
    5.8789  -13.0078   26.2324 C   0  0  0  0  0  0  0  0  0  0  0  0
    7.3799  -13.3776   26.0021 C   0  0  1  0  0  0  0  0  0  0  0  0
    8.1782  -12.5739   27.0225 C   0  0  0  0  0  0  0  0  0  0  0  0
    7.5283  -14.8482   26.1572 C   0  0  0  0  0  0  0  0  0  0  0  0
    8.8617  -15.4537   26.1164 C   0  0  2  0  0  0  0  0  0  0  0  0
    9.1743  -15.8284   24.6959 N   0  0  0  0  0  0  0  0  0  0  0  0
    9.2619  -16.5292   26.9945 C   0  0  0  0  0  0  0  0  0  0  0  0
    9.1511  -17.7619   26.8390 O   0  0  0  0  0  0  0  0  0  0  0  0
    9.8747  -16.1509   28.2248 O   0  0  0  0  0  0  0  0  0  0  0  0
  2  1  1  0
  3  2  1  0
  3  4  1  6
  5  6  2  0
  5  3  1  0
  7  5  1  0
  8  9  1  6
  8  7  1  0
  9 10  1  0
 11 10  1  0
 11 12  1  0
 12 13  1  0
 14  8  1  0
 15 14  2  0
 17 16  1  1
 18 17  1  0
 19 17  1  0
 20 19  1  6
 20 21  1  0
 21 14  1  0
 22 24  1  0
 22 20  1  0
 23 22  2  0
M  END
$$$$
