SKL.pdb
     RDKit          3D

 24 23  0  0  1  0  0  0  0  0999 V2000
   10.7044  -18.7931   24.1401 O   0  0  0  0  0  0  0  0  0  0  0  0
   11.5946  -18.7402   23.1008 C   0  0  0  0  0  0  0  0  0  0  0  0
   10.9672  -18.3423   21.7855 C   0  0  2  0  0  0  0  0  0  0  0  0
   11.9600  -18.2874   20.7392 N   0  0  0  0  0  0  0  0  0  0  0  0
   10.2082  -17.0745   21.8859 C   0  0  0  0  0  0  0  0  0  0  0  0
   10.8316  -16.0006   21.7037 O   0  0  0  0  0  0  0  0  0  0  0  0
    8.8395  -17.0462   22.1734 N   0  0  0  0  0  0  0  0  0  0  0  0
    8.0374  -15.8512   22.2750 C   0  0  1  0  0  0  0  0  0  0  0  0
    6.5709  -16.3011   22.2260 C   0  0  0  0  0  0  0  0  0  0  0  0
    6.3891  -17.1672   20.9822 C   0  0  0  0  0  0  0  0  0  0  0  0
    4.9227  -17.5035   20.8963 C   0  0  0  0  0  0  0  0  0  0  0  0
    4.6692  -18.3078   19.6620 C   0  0  0  0  0  0  0  0  0  0  0  0
    3.2727  -18.6541   19.6113 N   0  0  0  0  0  0  0  0  0  0  0  0
    8.2258  -15.1219   23.5359 C   0  0  0  0  0  0  0  0  0  0  0  0
    7.9782  -13.9009   23.6590 O   0  0  0  0  0  0  0  0  0  0  0  0
    5.7517  -12.8175   26.3341 C   0  0  0  0  0  0  0  0  0  0  0  0
    7.1991  -13.1653   25.8577 C   0  0  1  0  0  0  0  0  0  0  0  0
    8.1128  -12.1048   26.4619 C   0  0  0  0  0  0  0  0  0  0  0  0
    7.5182  -14.5471   26.3021 C   0  0  0  0  0  0  0  0  0  0  0  0
    8.8198  -15.1345   25.9753 C   0  0  2  0  0  0  0  0  0  0  0  0
    8.7087  -15.8403   24.6541 N   0  0  0  0  0  0  0  0  0  0  0  0
    9.5612  -15.9619   26.8993 C   0  0  0  0  0  0  0  0  0  0  0  0
    9.9382  -17.1447   26.7767 O   0  0  0  0  0  0  0  0  0  0  0  0
    9.9257  -15.3608   28.1394 O   0  0  0  0  0  0  0  0  0  0  0  0
  2  1  1  0
  3  2  1  0
  3  4  1  6
  5  6  2  0
  5  3  1  0
  7  5  1  0
  8  9  1  1
  8  7  1  0
  9 10  1  0
 11 10  1  0
 11 12  1  0
 12 13  1  0
 14  8  1  0
 15 14  2  0
 17 16  1  1
 18 17  1  0
 19 17  1  0
 20 19  1  1
 20 21  1  0
 21 14  1  0
 22 24  1  0
 22 20  1  0
 23 22  2  0
M  END
$$$$
