SKL.pdb
     RDKit          3D

 24 23  0  0  1  0  0  0  0  0999 V2000
    6.3000  -18.3561   25.0646 O   0  0  0  0  0  0  0  0  0  0  0  0
    5.3800  -18.2698   24.0539 C   0  0  0  0  0  0  0  0  0  0  0  0
    5.9763  -18.4376   22.6761 C   0  0  2  0  0  0  0  0  0  0  0  0
    6.2721  -19.8252   22.4105 N   0  0  0  0  0  0  0  0  0  0  0  0
    7.1633  -17.5764   22.4690 C   0  0  0  0  0  0  0  0  0  0  0  0
    8.2972  -18.0940   22.6152 O   0  0  0  0  0  0  0  0  0  0  0  0
    7.0526  -16.2260   22.1212 N   0  0  0  0  0  0  0  0  0  0  0  0
    8.1588  -15.3086   21.9932 C   0  0  1  0  0  0  0  0  0  0  0  0
    7.7227  -14.2320   20.9901 C   0  0  0  0  0  0  0  0  0  0  0  0
    8.5811  -14.3853   19.7373 C   0  0  0  0  0  0  0  0  0  0  0  0
    7.9632  -13.5115   18.6764 C   0  0  0  0  0  0  0  0  0  0  0  0
    8.6773  -13.7237   17.3804 C   0  0  0  0  0  0  0  0  0  0  0  0
    7.9831  -13.0050   16.3439 N   0  0  0  0  0  0  0  0  0  0  0  0
    8.5012  -14.6220   23.2456 C   0  0  0  0  0  0  0  0  0  0  0  0
    8.5216  -13.3749   23.3539 O   0  0  0  0  0  0  0  0  0  0  0  0
    7.1921  -11.7830   25.0554 C   0  0  0  0  0  0  0  0  0  0  0  0
    7.4382  -12.6796   26.3118 C   0  0  1  0  0  0  0  0  0  0  0  0
    6.3076  -12.3676   27.2859 C   0  0  0  0  0  0  0  0  0  0  0  0
    7.4698  -14.0995   25.8739 C   0  0  0  0  0  0  0  0  0  0  0  0
    8.7542  -14.7908   25.7378 C   0  0  2  0  0  0  0  0  0  0  0  0
    8.8203  -15.4139   24.3727 N   0  0  0  0  0  0  0  0  0  0  0  0
    9.2464  -15.7316   26.7179 C   0  0  0  0  0  0  0  0  0  0  0  0
    9.5902  -15.5360   27.9010 O   0  0  0  0  0  0  0  0  0  0  0  0
    9.3657  -17.0874   26.2941 O   0  0  0  0  0  0  0  0  0  0  0  0
  2  1  1  0
  3  2  1  0
  3  4  1  1
  5  6  2  0
  5  3  1  0
  7  5  1  0
  8  9  1  6
  8  7  1  0
  9 10  1  0
 11 10  1  0
 11 12  1  0
 12 13  1  0
 14  8  1  0
 15 14  2  0
 17 16  1  6
 18 17  1  0
 19 17  1  0
 20 19  1  1
 20 21  1  0
 21 14  1  0
 22 24  1  0
 22 20  1  0
 23 22  2  0
M  END
$$$$
