SKL.pdb
     RDKit          3D

 24 23  0  0  1  0  0  0  0  0999 V2000
    6.9225  -18.8036   25.7503 O   0  0  0  0  0  0  0  0  0  0  0  0
    5.8264  -18.6283   24.9483 C   0  0  0  0  0  0  0  0  0  0  0  0
    6.0892  -18.9239   23.4903 C   0  0  2  0  0  0  0  0  0  0  0  0
    6.4687  -20.3044   23.3068 N   0  0  0  0  0  0  0  0  0  0  0  0
    7.0854  -18.0002   22.9006 C   0  0  0  0  0  0  0  0  0  0  0  0
    8.2465  -18.4349   22.7056 O   0  0  0  0  0  0  0  0  0  0  0  0
    6.7690  -16.6801   22.5624 N   0  0  0  0  0  0  0  0  0  0  0  0
    7.7256  -15.6681   22.1851 C   0  0  1  0  0  0  0  0  0  0  0  0
    6.9267  -14.5275   21.5397 C   0  0  0  0  0  0  0  0  0  0  0  0
    7.9240  -13.5112   20.9898 C   0  0  0  0  0  0  0  0  0  0  0  0
    7.8322  -13.5800   19.4873 C   0  0  0  0  0  0  0  0  0  0  0  0
    8.8532  -12.6690   18.8852 C   0  0  0  0  0  0  0  0  0  0  0  0
    8.7868  -12.7793   17.4513 N   0  0  0  0  0  0  0  0  0  0  0  0
    8.4564  -15.0961   23.3235 C   0  0  0  0  0  0  0  0  0  0  0  0
    9.4062  -14.2919   23.1873 O   0  0  0  0  0  0  0  0  0  0  0  0
    5.8810  -12.5578   26.9153 C   0  0  0  0  0  0  0  0  0  0  0  0
    7.0763  -12.9492   25.9874 C   0  0  1  0  0  0  0  0  0  0  0  0
    7.9507  -11.7057   25.8717 C   0  0  0  0  0  0  0  0  0  0  0  0
    7.7757  -14.1129   26.5918 C   0  0  0  0  0  0  0  0  0  0  0  0
    8.7598  -14.8599   25.8046 C   0  0  2  0  0  0  0  0  0  0  0  0
    8.0617  -15.4774   24.6267 N   0  0  0  0  0  0  0  0  0  0  0  0
    9.6603  -15.8274   26.3886 C   0  0  0  0  0  0  0  0  0  0  0  0
    9.8722  -17.0119   26.0599 O   0  0  0  0  0  0  0  0  0  0  0  0
   10.4291  -15.3872   27.5054 O   0  0  0  0  0  0  0  0  0  0  0  0
  2  1  1  0
  3  2  1  0
  3  4  1  1
  5  6  2  0
  5  3  1  0
  7  5  1  0
  8  9  1  1
  8  7  1  0
  9 10  1  0
 11 10  1  0
 11 12  1  0
 12 13  1  0
 14  8  1  0
 15 14  2  0
 17 16  1  1
 18 17  1  0
 19 17  1  0
 20 19  1  1
 20 21  1  0
 21 14  1  0
 22 24  1  0
 22 20  1  0
 23 22  2  0
M  END
$$$$
