SKL.pdb
     RDKit          3D

 24 23  0  0  1  0  0  0  0  0999 V2000
    9.8974  -14.2339   20.3845 O   0  0  0  0  0  0  0  0  0  0  0  0
    8.7677  -13.5695   19.9872 C   0  0  0  0  0  0  0  0  0  0  0  0
    7.5055  -14.3892   20.1173 C   0  0  2  0  0  0  0  0  0  0  0  0
    6.3648  -13.6572   19.6207 N   0  0  0  0  0  0  0  0  0  0  0  0
    7.2871  -14.8683   21.5015 C   0  0  0  0  0  0  0  0  0  0  0  0
    6.8626  -14.0448   22.3481 O   0  0  0  0  0  0  0  0  0  0  0  0
    7.5377  -16.1914   21.8804 N   0  0  0  0  0  0  0  0  0  0  0  0
    7.3090  -16.7351   23.1971 C   0  0  1  0  0  0  0  0  0  0  0  0
    7.2358  -18.2597   23.0360 C   0  0  0  0  0  0  0  0  0  0  0  0
    5.9694  -18.5861   22.2488 C   0  0  0  0  0  0  0  0  0  0  0  0
    5.9197  -20.0855   22.1061 C   0  0  0  0  0  0  0  0  0  0  0  0
    4.6860  -20.4722   21.3557 C   0  0  0  0  0  0  0  0  0  0  0  0
    4.7308  -21.8854   21.0841 N   0  0  0  0  0  0  0  0  0  0  0  0
    8.3924  -16.4506   24.1471 C   0  0  0  0  0  0  0  0  0  0  0  0
    9.5935  -16.3672   23.8040 O   0  0  0  0  0  0  0  0  0  0  0  0
   10.5828  -13.3157   27.7259 C   0  0  0  0  0  0  0  0  0  0  0  0
    9.4507  -14.1749   28.3763 C   0  0  1  0  0  0  0  0  0  0  0  0
    8.6895  -13.2404   29.3099 C   0  0  0  0  0  0  0  0  0  0  0  0
    8.6108  -14.7417   27.2890 C   0  0  0  0  0  0  0  0  0  0  0  0
    9.1252  -15.8420   26.4701 C   0  0  2  0  0  0  0  0  0  0  0  0
    8.0527  -16.2642   25.5071 N   0  0  0  0  0  0  0  0  0  0  0  0
    9.7496  -17.0157   27.0362 C   0  0  0  0  0  0  0  0  0  0  0  0
   10.9253  -17.1810   27.4192 O   0  0  0  0  0  0  0  0  0  0  0  0
    8.9211  -18.1657   27.1886 O   0  0  0  0  0  0  0  0  0  0  0  0
  2  1  1  0
  3  2  1  0
  3  4  1  1
  5  6  2  0
  5  3  1  0
  7  5  1  0
  8  9  1  6
  8  7  1  0
  9 10  1  0
 11 10  1  0
 11 12  1  0
 12 13  1  0
 14  8  1  0
 15 14  2  0
 17 16  1  6
 18 17  1  0
 19 17  1  0
 20 19  1  1
 20 21  1  0
 21 14  1  0
 22 24  1  0
 22 20  1  0
 23 22  2  0
M  END
$$$$
