WDY.pdb
     RDKit          3D

 35 37  0  0  1  0  0  0  0  0999 V2000
   20.0101  -30.6094    1.5151 N   0  0  0  0  0  0  0  0  0  0  0  0
   21.3561  -30.3011    2.0511 C   0  0  1  0  0  0  0  0  0  0  0  0
   21.1967  -29.2886    3.0792 C   0  0  0  0  0  0  0  0  0  0  0  0
   20.3923  -28.1123    2.7230 C   0  0  0  0  0  0  0  0  0  0  0  0
   19.6797  -27.3206    3.5756 C   0  0  0  0  0  0  0  0  0  0  0  0
   19.0185  -26.3619    2.9130 N   0  0  0  0  0  0  0  0  0  0  0  0
   19.3088  -26.5367    1.6038 C   0  0  0  0  0  0  0  0  0  0  0  0
   18.8932  -25.8271    0.4718 C   0  0  0  0  0  0  0  0  0  0  0  0
   19.3348  -26.2134   -0.7589 C   0  0  0  0  0  0  0  0  0  0  0  0
   20.1866  -27.2926   -0.9207 C   0  0  0  0  0  0  0  0  0  0  0  0
   20.5937  -27.9873    0.1860 C   0  0  0  0  0  0  0  0  0  0  0  0
   20.1562  -27.6110    1.4487 C   0  0  0  0  0  0  0  0  0  0  0  0
   22.1075  -31.5274    2.2558 C   0  0  0  0  0  0  0  0  0  0  0  0
   22.7870  -31.6647    3.3621 O   0  0  0  0  0  0  0  0  0  0  0  0
   22.2399  -32.6531    1.4202 N   0  0  0  0  0  0  0  0  0  0  0  0
   23.1492  -33.7740    1.6885 C   0  0  1  0  0  0  0  0  0  0  0  0
   22.7315  -34.9864    0.9366 C   0  0  0  0  0  0  0  0  0  0  0  0
   23.4803  -36.2009    1.2637 C   0  0  0  0  0  0  0  0  0  0  0  0
   23.3194  -36.7912    2.3569 O   0  0  0  0  0  0  0  0  0  0  0  0
   24.5471  -33.3847    1.4256 C   0  0  0  0  0  0  0  0  0  0  0  0
   24.8272  -32.4811    0.5544 O   0  0  0  0  0  0  0  0  0  0  0  0
   24.3868  -36.7218    0.3620 O   0  0  0  0  0  0  0  0  0  0  0  0
   27.3371  -34.0118   -4.3391 O   0  0  0  0  0  0  0  0  0  0  0  0
   27.1780  -33.5337   -3.0451 C   0  0  0  0  0  0  0  0  0  0  0  0
   28.1006  -33.9051   -2.0857 C   0  0  0  0  0  0  0  0  0  0  0  0
   27.9694  -33.4469   -0.7926 C   0  0  0  0  0  0  0  0  0  0  0  0
   26.9313  -32.6072   -0.3834 C   0  0  0  0  0  0  0  0  0  0  0  0
   26.8250  -32.1424    1.0148 C   0  0  0  0  0  0  0  0  0  0  0  0
   26.9991  -33.2747    2.0051 C   0  0  2  0  0  0  0  0  0  0  0  0
   25.6885  -33.9230    2.0679 N   0  0  0  0  0  0  0  0  0  0  0  0
   27.4601  -32.7394    3.2802 C   0  0  0  0  0  0  0  0  0  0  0  0
   26.7425  -32.9464    4.3178 O   0  0  0  0  0  0  0  0  0  0  0  0
   26.0165  -32.2461   -1.3600 C   0  0  0  0  0  0  0  0  0  0  0  0
   26.1507  -32.7071   -2.6562 C   0  0  0  0  0  0  0  0  0  0  0  0
   28.6398  -32.0169    3.4295 O   0  0  0  0  0  0  0  0  0  0  0  0
  2  1  1  1
  2  3  1  0
  4  5  2  0
  4  3  1  0
  6  5  1  0
  7 12  2  0
  7  6  1  0
  8  7  1  0
  9  8  2  0
  9 10  1  0
 10 11  2  0
 11 12  1  0
 12  4  1  0
 13  2  1  0
 14 13  2  0
 15 13  1  0
 16 17  1  6
 16 15  1  0
 17 18  1  0
 18 19  2  0
 18 22  1  0
 20 30  1  0
 20 16  1  0
 21 20  2  0
 23 24  1  0
 24 34  2  0
 25 24  1  0
 25 26  2  0
 26 27  1  0
 27 33  2  0
 27 28  1  0
 29 30  1  0
 29 28  1  6
 31 35  1  0
 31 29  1  0
 32 31  2  0
 34 33  1  0
M  END
$$$$
