WDY.pdb
     RDKit          3D

 35 37  0  0  1  0  0  0  0  0999 V2000
   22.8327  -19.7795  -17.7874 N   0  0  0  0  0  0  0  0  0  0  0  0
   23.1879  -20.3321  -16.4598 C   0  0  1  0  0  0  0  0  0  0  0  0
   22.1136  -21.2200  -16.0533 C   0  0  0  0  0  0  0  0  0  0  0  0
   20.8161  -20.5930  -15.7683 C   0  0  0  0  0  0  0  0  0  0  0  0
   19.7248  -20.5640  -16.5866 C   0  0  0  0  0  0  0  0  0  0  0  0
   18.7222  -19.8649  -16.0377 N   0  0  0  0  0  0  0  0  0  0  0  0
   19.1739  -19.4318  -14.8388 C   0  0  0  0  0  0  0  0  0  0  0  0
   18.5518  -18.6608  -13.8508 C   0  0  0  0  0  0  0  0  0  0  0  0
   19.2366  -18.3533  -12.7126 C   0  0  0  0  0  0  0  0  0  0  0  0
   20.5358  -18.7843  -12.5062 C   0  0  0  0  0  0  0  0  0  0  0  0
   21.1453  -19.5385  -13.4721 C   0  0  0  0  0  0  0  0  0  0  0  0
   20.4662  -19.8634  -14.6386 C   0  0  0  0  0  0  0  0  0  0  0  0
   24.5880  -20.7188  -16.4355 C   0  0  0  0  0  0  0  0  0  0  0  0
   24.9456  -21.8048  -17.0656 O   0  0  0  0  0  0  0  0  0  0  0  0
   25.6849  -20.0927  -15.8129 N   0  0  0  0  0  0  0  0  0  0  0  0
   26.9923  -20.7306  -15.6150 C   0  0  1  0  0  0  0  0  0  0  0  0
   28.0876  -19.8606  -16.1182 C   0  0  0  0  0  0  0  0  0  0  0  0
   28.0799  -19.6372  -17.5648 C   0  0  0  0  0  0  0  0  0  0  0  0
   27.4284  -20.3797  -18.3354 O   0  0  0  0  0  0  0  0  0  0  0  0
   27.1705  -21.1261  -14.2056 C   0  0  0  0  0  0  0  0  0  0  0  0
   27.9256  -22.1181  -13.8895 O   0  0  0  0  0  0  0  0  0  0  0  0
   28.7990  -18.5924  -18.1099 O   0  0  0  0  0  0  0  0  0  0  0  0
   28.3674  -20.5681   -5.4942 O   0  0  0  0  0  0  0  0  0  0  0  0
   28.2102  -20.4005   -6.8637 C   0  0  0  0  0  0  0  0  0  0  0  0
   27.1763  -19.6038   -7.3171 C   0  0  0  0  0  0  0  0  0  0  0  0
   26.9946  -19.4184   -8.6706 C   0  0  0  0  0  0  0  0  0  0  0  0
   27.8153  -20.0040   -9.6368 C   0  0  0  0  0  0  0  0  0  0  0  0
   27.5827  -19.7828  -11.0788 C   0  0  0  0  0  0  0  0  0  0  0  0
   26.8258  -20.9297  -11.7150 C   0  0  2  0  0  0  0  0  0  0  0  0
   26.5709  -20.4947  -13.0889 N   0  0  0  0  0  0  0  0  0  0  0  0
   25.6193  -21.2037  -10.9439 C   0  0  0  0  0  0  0  0  0  0  0  0
   24.5280  -20.6478  -11.3107 O   0  0  0  0  0  0  0  0  0  0  0  0
   28.8464  -20.7992   -9.1621 C   0  0  0  0  0  0  0  0  0  0  0  0
   29.0263  -20.9833   -7.8040 C   0  0  0  0  0  0  0  0  0  0  0  0
   25.5909  -22.0390   -9.8315 O   0  0  0  0  0  0  0  0  0  0  0  0
  2  1  1  6
  2  3  1  0
  4  5  2  0
  4  3  1  0
  6  5  1  0
  7 12  2  0
  7  6  1  0
  8  7  1  0
  9  8  2  0
  9 10  1  0
 10 11  2  0
 11 12  1  0
 12  4  1  0
 13  2  1  0
 14 13  2  0
 15 13  1  0
 16 17  1  1
 16 15  1  0
 17 18  1  0
 18 19  2  0
 18 22  1  0
 20 30  1  0
 20 16  1  0
 21 20  2  0
 23 24  1  0
 24 34  2  0
 25 24  1  0
 25 26  2  0
 26 27  1  0
 27 33  2  0
 27 28  1  0
 29 30  1  0
 29 28  1  1
 31 35  1  0
 31 29  1  0
 32 31  2  0
 34 33  1  0
M  END
$$$$
