WDY.pdb
     RDKit          3D

 35 37  0  0  1  0  0  0  0  0999 V2000
   22.8297  -12.8802  -18.2143 N   0  0  0  0  0  0  0  0  0  0  0  0
   23.4207  -11.7811  -17.4163 C   0  0  1  0  0  0  0  0  0  0  0  0
   24.6794  -11.4147  -18.0402 C   0  0  0  0  0  0  0  0  0  0  0  0
   25.7555  -12.4129  -17.9827 C   0  0  0  0  0  0  0  0  0  0  0  0
   26.1885  -13.2080  -19.0034 C   0  0  0  0  0  0  0  0  0  0  0  0
   27.1542  -14.0424  -18.5956 N   0  0  0  0  0  0  0  0  0  0  0  0
   27.3506  -13.7824  -17.2831 C   0  0  0  0  0  0  0  0  0  0  0  0
   28.2320  -14.3539  -16.3590 C   0  0  0  0  0  0  0  0  0  0  0  0
   28.2326  -13.9072  -15.0708 C   0  0  0  0  0  0  0  0  0  0  0  0
   27.3817  -12.8996  -14.6497 C   0  0  0  0  0  0  0  0  0  0  0  0
   26.5192  -12.3399  -15.5529 C   0  0  0  0  0  0  0  0  0  0  0  0
   26.5021  -12.7796  -16.8696 C   0  0  0  0  0  0  0  0  0  0  0  0
   22.3984  -10.8109  -17.0643 C   0  0  0  0  0  0  0  0  0  0  0  0
   21.4294  -10.5915  -17.9112 O   0  0  0  0  0  0  0  0  0  0  0  0
   22.2669  -10.0205  -15.9063 N   0  0  0  0  0  0  0  0  0  0  0  0
   21.1629   -9.0815  -15.6726 C   0  0  1  0  0  0  0  0  0  0  0  0
   20.1640   -9.6609  -14.7366 C   0  0  0  0  0  0  0  0  0  0  0  0
   19.0370   -8.7824  -14.4192 C   0  0  0  0  0  0  0  0  0  0  0  0
   18.5452   -8.0164  -15.2800 O   0  0  0  0  0  0  0  0  0  0  0  0
   21.6779   -7.7726  -15.2295 C   0  0  0  0  0  0  0  0  0  0  0  0
   22.4670   -7.6825  -14.2179 O   0  0  0  0  0  0  0  0  0  0  0  0
   18.4912   -8.7837  -13.1511 O   0  0  0  0  0  0  0  0  0  0  0  0
   26.9647   -6.5497  -19.0968 O   0  0  0  0  0  0  0  0  0  0  0  0
   25.8055   -6.0722  -18.4998 C   0  0  0  0  0  0  0  0  0  0  0  0
   25.9037   -5.0073  -17.6246 C   0  0  0  0  0  0  0  0  0  0  0  0
   24.7710   -4.5112  -17.0163 C   0  0  0  0  0  0  0  0  0  0  0  0
   23.4956   -5.0352  -17.2377 C   0  0  0  0  0  0  0  0  0  0  0  0
   22.3073   -4.4762  -16.5612 C   0  0  0  0  0  0  0  0  0  0  0  0
   21.9338   -5.2654  -15.3239 C   0  0  2  0  0  0  0  0  0  0  0  0
   21.3882   -6.5246  -15.8326 N   0  0  0  0  0  0  0  0  0  0  0  0
   20.9960   -4.4927  -14.5186 C   0  0  0  0  0  0  0  0  0  0  0  0
   19.7485   -4.7488  -14.6309 O   0  0  0  0  0  0  0  0  0  0  0  0
   23.4180   -6.1025  -18.1185 C   0  0  0  0  0  0  0  0  0  0  0  0
   24.5558   -6.5979  -18.7272 C   0  0  0  0  0  0  0  0  0  0  0  0
   21.3852   -3.4927  -13.6329 O   0  0  0  0  0  0  0  0  0  0  0  0
  2  1  1  6
  2  3  1  0
  4  5  2  0
  4  3  1  0
  6  5  1  0
  7 12  2  0
  7  6  1  0
  8  7  1  0
  9  8  2  0
  9 10  1  0
 10 11  2  0
 11 12  1  0
 12  4  1  0
 13  2  1  0
 14 13  2  0
 15 13  1  0
 16 17  1  1
 16 15  1  0
 17 18  1  0
 18 19  2  0
 18 22  1  0
 20 30  1  0
 20 16  1  0
 21 20  2  0
 23 24  1  0
 24 34  2  0
 25 24  1  0
 25 26  2  0
 26 27  1  0
 27 33  2  0
 27 28  1  0
 29 30  1  0
 29 28  1  6
 31 35  1  0
 31 29  1  0
 32 31  2  0
 34 33  1  0
M  END
$$$$
