WDY.pdb
     RDKit          3D

 35 37  0  0  1  0  0  0  0  0999 V2000
   26.1139  -19.1950  -11.6530 N   0  0  0  0  0  0  0  0  0  0  0  0
   26.2908  -20.6213  -12.0115 C   0  0  1  0  0  0  0  0  0  0  0  0
   25.8311  -21.4158  -10.8867 C   0  0  0  0  0  0  0  0  0  0  0  0
   26.2570  -20.9729   -9.5525 C   0  0  0  0  0  0  0  0  0  0  0  0
   25.5202  -20.2565   -8.6551 C   0  0  0  0  0  0  0  0  0  0  0  0
   26.2303  -19.9774   -7.5537 N   0  0  0  0  0  0  0  0  0  0  0  0
   27.4527  -20.5243   -7.7419 C   0  0  0  0  0  0  0  0  0  0  0  0
   28.5853  -20.5380   -6.9206 C   0  0  0  0  0  0  0  0  0  0  0  0
   29.7156  -21.1675   -7.3507 C   0  0  0  0  0  0  0  0  0  0  0  0
   29.7744  -21.7963   -8.5826 C   0  0  0  0  0  0  0  0  0  0  0  0
   28.6670  -21.7835   -9.3867 C   0  0  0  0  0  0  0  0  0  0  0  0
   27.5055  -21.1484   -8.9683 C   0  0  0  0  0  0  0  0  0  0  0  0
   25.8535  -20.8532  -13.3773 C   0  0  0  0  0  0  0  0  0  0  0  0
   24.8748  -20.1298  -13.8497 O   0  0  0  0  0  0  0  0  0  0  0  0
   26.3261  -21.7761  -14.3301 N   0  0  0  0  0  0  0  0  0  0  0  0
   25.7324  -21.9619  -15.6599 C   0  0  1  0  0  0  0  0  0  0  0  0
   26.7145  -22.5647  -16.5988 C   0  0  0  0  0  0  0  0  0  0  0  0
   27.9096  -21.7552  -16.8417 C   0  0  0  0  0  0  0  0  0  0  0  0
   29.0489  -22.2739  -16.8922 O   0  0  0  0  0  0  0  0  0  0  0  0
   24.4766  -22.7294  -15.5667 C   0  0  0  0  0  0  0  0  0  0  0  0
   24.4836  -23.9640  -15.2063 O   0  0  0  0  0  0  0  0  0  0  0  0
   27.7994  -20.3908  -17.0213 O   0  0  0  0  0  0  0  0  0  0  0  0
   19.5990  -19.0489  -11.0889 O   0  0  0  0  0  0  0  0  0  0  0  0
   20.2117  -20.0484  -11.8332 C   0  0  0  0  0  0  0  0  0  0  0  0
   19.6668  -21.3181  -11.8090 C   0  0  0  0  0  0  0  0  0  0  0  0
   20.2524  -22.3310  -12.5372 C   0  0  0  0  0  0  0  0  0  0  0  0
   21.3946  -22.1453  -13.3189 C   0  0  0  0  0  0  0  0  0  0  0  0
   21.9935  -23.2601  -14.0811 C   0  0  0  0  0  0  0  0  0  0  0  0
   21.9698  -23.0057  -15.5737 C   0  0  2  0  0  0  0  0  0  0  0  0
   23.1808  -22.2285  -15.8410 N   0  0  0  0  0  0  0  0  0  0  0  0
   20.7329  -22.3221  -15.9312 C   0  0  0  0  0  0  0  0  0  0  0  0
   20.7994  -21.0930  -16.2768 O   0  0  0  0  0  0  0  0  0  0  0  0
   21.9259  -20.8652  -13.3302 C   0  0  0  0  0  0  0  0  0  0  0  0
   21.3363  -19.8513  -12.5989 C   0  0  0  0  0  0  0  0  0  0  0  0
   19.4841  -22.9354  -15.9185 O   0  0  0  0  0  0  0  0  0  0  0  0
  2  1  1  1
  2  3  1  0
  4  5  2  0
  4  3  1  0
  6  5  1  0
  7 12  2  0
  7  6  1  0
  8  7  1  0
  9  8  2  0
  9 10  1  0
 10 11  2  0
 11 12  1  0
 12  4  1  0
 13  2  1  0
 14 13  2  0
 15 13  1  0
 16 17  1  6
 16 15  1  0
 17 18  1  0
 18 19  2  0
 18 22  1  0
 20 30  1  0
 20 16  1  0
 21 20  2  0
 23 24  1  0
 24 34  2  0
 25 24  1  0
 25 26  2  0
 26 27  1  0
 27 33  2  0
 27 28  1  0
 29 30  1  0
 29 28  1  1
 31 35  1  0
 31 29  1  0
 32 31  2  0
 34 33  1  0
M  END
$$$$
