WDY.pdb
     RDKit          3D

 35 37  0  0  1  0  0  0  0  0999 V2000
   13.0486  -23.2305    0.6118 N   0  0  0  0  0  0  0  0  0  0  0  0
   14.4549  -22.8608    0.3294 C   0  0  1  0  0  0  0  0  0  0  0  0
   14.4907  -22.2466   -0.9856 C   0  0  0  0  0  0  0  0  0  0  0  0
   13.7543  -22.9371   -2.0527 C   0  0  0  0  0  0  0  0  0  0  0  0
   13.3911  -24.2520   -2.0767 C   0  0  0  0  0  0  0  0  0  0  0  0
   12.7731  -24.5663   -3.2232 N   0  0  0  0  0  0  0  0  0  0  0  0
   12.7356  -23.4312   -3.9573 C   0  0  0  0  0  0  0  0  0  0  0  0
   12.2119  -23.1819   -5.2305 C   0  0  0  0  0  0  0  0  0  0  0  0
   12.3047  -21.9280   -5.7579 C   0  0  0  0  0  0  0  0  0  0  0  0
   12.9052  -20.8901   -5.0660 C   0  0  0  0  0  0  0  0  0  0  0  0
   13.4178  -21.1331   -3.8205 C   0  0  0  0  0  0  0  0  0  0  0  0
   13.3339  -22.4024   -3.2645 C   0  0  0  0  0  0  0  0  0  0  0  0
   15.0601  -22.2561    1.5035 C   0  0  0  0  0  0  0  0  0  0  0  0
   16.2667  -21.7680    1.4013 O   0  0  0  0  0  0  0  0  0  0  0  0
   14.5437  -22.1004    2.8042 N   0  0  0  0  0  0  0  0  0  0  0  0
   15.2733  -21.4641    3.9080 C   0  0  1  0  0  0  0  0  0  0  0  0
   14.3983  -20.5134    4.6428 C   0  0  0  0  0  0  0  0  0  0  0  0
   14.8964  -19.1381    4.7002 C   0  0  0  0  0  0  0  0  0  0  0  0
   16.0227  -18.8334    4.2440 O   0  0  0  0  0  0  0  0  0  0  0  0
   15.8835  -22.4818    4.7836 C   0  0  0  0  0  0  0  0  0  0  0  0
   15.2405  -23.5493    5.1016 O   0  0  0  0  0  0  0  0  0  0  0  0
   14.1239  -18.1428    5.2645 O   0  0  0  0  0  0  0  0  0  0  0  0
   21.6093  -27.8383    8.7988 O   0  0  0  0  0  0  0  0  0  0  0  0
   20.9951  -26.8368    8.0585 C   0  0  0  0  0  0  0  0  0  0  0  0
   21.0841  -25.5335    8.5090 C   0  0  0  0  0  0  0  0  0  0  0  0
   20.4847  -24.5177    7.7961 C   0  0  0  0  0  0  0  0  0  0  0  0
   19.7735  -24.7334    6.6138 C   0  0  0  0  0  0  0  0  0  0  0  0
   19.1420  -23.6159    5.8825 C   0  0  0  0  0  0  0  0  0  0  0  0
   17.6879  -23.4359    6.2650 C   0  0  2  0  0  0  0  0  0  0  0  0
   17.1816  -22.4159    5.3456 N   0  0  0  0  0  0  0  0  0  0  0  0
   17.5970  -23.0666    7.6723 C   0  0  0  0  0  0  0  0  0  0  0  0
   17.6511  -21.8260    7.9765 O   0  0  0  0  0  0  0  0  0  0  0  0
   19.6957  -26.0469    6.1785 C   0  0  0  0  0  0  0  0  0  0  0  0
   20.2979  -27.0636    6.8956 C   0  0  0  0  0  0  0  0  0  0  0  0
   17.4528  -23.9910    8.7021 O   0  0  0  0  0  0  0  0  0  0  0  0
  2  1  1  1
  2  3  1  0
  4  5  2  0
  4  3  1  0
  6  5  1  0
  7 12  2  0
  7  6  1  0
  8  7  1  0
  9  8  2  0
  9 10  1  0
 10 11  2  0
 11 12  1  0
 12  4  1  0
 13  2  1  0
 14 13  2  0
 15 13  1  0
 16 17  1  1
 16 15  1  0
 17 18  1  0
 18 19  2  0
 18 22  1  0
 20 30  1  0
 20 16  1  0
 21 20  2  0
 23 24  1  0
 24 34  2  0
 25 24  1  0
 25 26  2  0
 26 27  1  0
 27 33  2  0
 27 28  1  0
 29 30  1  0
 29 28  1  6
 31 35  1  0
 31 29  1  0
 32 31  2  0
 34 33  1  0
M  END
$$$$
