WDY.pdb
     RDKit          3D

 35 37  0  0  1  0  0  0  0  0999 V2000
   27.0573  -21.6440  -14.9591 N   0  0  0  0  0  0  0  0  0  0  0  0
   26.2850  -21.0157  -13.8623 C   0  0  1  0  0  0  0  0  0  0  0  0
   27.0747  -19.9116  -13.3473 C   0  0  0  0  0  0  0  0  0  0  0  0
   28.1344  -20.2533  -12.3893 C   0  0  0  0  0  0  0  0  0  0  0  0
   29.4392  -20.5292  -12.6774 C   0  0  0  0  0  0  0  0  0  0  0  0
   30.1251  -20.8510  -11.5724 N   0  0  0  0  0  0  0  0  0  0  0  0
   29.2460  -20.7823  -10.5471 C   0  0  0  0  0  0  0  0  0  0  0  0
   29.4163  -21.0182   -9.1785 C   0  0  0  0  0  0  0  0  0  0  0  0
   28.3511  -20.8804   -8.3386 C   0  0  0  0  0  0  0  0  0  0  0  0
   27.1004  -20.5121   -8.8040 C   0  0  0  0  0  0  0  0  0  0  0  0
   26.9328  -20.2811  -10.1425 C   0  0  0  0  0  0  0  0  0  0  0  0
   28.0040  -20.4155  -11.0154 C   0  0  0  0  0  0  0  0  0  0  0  0
   24.8896  -20.8822  -14.2437 C   0  0  0  0  0  0  0  0  0  0  0  0
   24.6028  -20.2396  -15.3434 O   0  0  0  0  0  0  0  0  0  0  0  0
   23.7298  -21.3481  -13.5951 N   0  0  0  0  0  0  0  0  0  0  0  0
   22.3666  -21.1430  -14.1001 C   0  0  1  0  0  0  0  0  0  0  0  0
   22.2521  -21.5912  -15.5128 C   0  0  0  0  0  0  0  0  0  0  0  0
   21.7006  -20.5938  -16.4313 C   0  0  0  0  0  0  0  0  0  0  0  0
   20.4649  -20.4792  -16.6035 O   0  0  0  0  0  0  0  0  0  0  0  0
   21.3801  -21.7824  -13.2098 C   0  0  0  0  0  0  0  0  0  0  0  0
   21.7138  -22.7708  -12.4576 O   0  0  0  0  0  0  0  0  0  0  0  0
   22.5430  -19.7533  -17.1311 O   0  0  0  0  0  0  0  0  0  0  0  0
   16.8863  -24.8078   -6.7952 O   0  0  0  0  0  0  0  0  0  0  0  0
   17.4740  -24.0272   -7.7819 C   0  0  0  0  0  0  0  0  0  0  0  0
   18.8265  -24.1758   -8.0232 C   0  0  0  0  0  0  0  0  0  0  0  0
   19.4385  -23.4152   -8.9959 C   0  0  0  0  0  0  0  0  0  0  0  0
   18.7543  -22.4778   -9.7728 C   0  0  0  0  0  0  0  0  0  0  0  0
   19.4499  -21.6793  -10.8028 C   0  0  0  0  0  0  0  0  0  0  0  0
   19.0923  -22.1250  -12.2052 C   0  0  2  0  0  0  0  0  0  0  0  0
   20.0219  -21.4046  -13.0763 N   0  0  0  0  0  0  0  0  0  0  0  0
   17.6874  -21.8350  -12.4646 C   0  0  0  0  0  0  0  0  0  0  0  0
   17.3778  -20.6658  -12.8788 O   0  0  0  0  0  0  0  0  0  0  0  0
   17.3991  -22.3436   -9.5158 C   0  0  0  0  0  0  0  0  0  0  0  0
   16.7880  -23.1080   -8.5396 C   0  0  0  0  0  0  0  0  0  0  0  0
   16.6654  -22.7624  -12.2875 O   0  0  0  0  0  0  0  0  0  0  0  0
  2  1  1  6
  2  3  1  0
  4  5  2  0
  4  3  1  0
  6  5  1  0
  7 12  2  0
  7  6  1  0
  8  7  1  0
  9  8  2  0
  9 10  1  0
 10 11  2  0
 11 12  1  0
 12  4  1  0
 13  2  1  0
 14 13  2  0
 15 13  1  0
 16 17  1  6
 16 15  1  0
 17 18  1  0
 18 19  2  0
 18 22  1  0
 20 30  1  0
 20 16  1  0
 21 20  2  0
 23 24  1  0
 24 34  2  0
 25 24  1  0
 25 26  2  0
 26 27  1  0
 27 33  2  0
 27 28  1  0
 29 30  1  0
 29 28  1  1
 31 35  1  0
 31 29  1  0
 32 31  2  0
 34 33  1  0
M  END
$$$$
