WDY.pdb
     RDKit          3D

 35 37  0  0  1  0  0  0  0  0999 V2000
   24.0042  -17.9292  -18.3824 N   0  0  0  0  0  0  0  0  0  0  0  0
   24.0005  -19.1880  -17.6015 C   0  0  1  0  0  0  0  0  0  0  0  0
   25.3040  -19.8066  -17.7619 C   0  0  0  0  0  0  0  0  0  0  0  0
   25.7239  -20.1058  -19.1374 C   0  0  0  0  0  0  0  0  0  0  0  0
   26.7753  -19.5542  -19.8095 C   0  0  0  0  0  0  0  0  0  0  0  0
   26.8465  -20.0145  -21.0658 N   0  0  0  0  0  0  0  0  0  0  0  0
   25.8193  -20.8822  -21.2104 C   0  0  0  0  0  0  0  0  0  0  0  0
   25.4167  -21.6483  -22.3097 C   0  0  0  0  0  0  0  0  0  0  0  0
   24.3255  -22.4580  -22.1968 C   0  0  0  0  0  0  0  0  0  0  0  0
   23.6017  -22.5437  -21.0199 C   0  0  0  0  0  0  0  0  0  0  0  0
   23.9948  -21.7946  -19.9440 C   0  0  0  0  0  0  0  0  0  0  0  0
   25.1030  -20.9637  -20.0371 C   0  0  0  0  0  0  0  0  0  0  0  0
   23.3789  -18.9730  -16.3062 C   0  0  0  0  0  0  0  0  0  0  0  0
   23.4433  -17.7827  -15.7739 O   0  0  0  0  0  0  0  0  0  0  0  0
   22.6847  -19.8767  -15.4790 N   0  0  0  0  0  0  0  0  0  0  0  0
   22.0888  -19.5170  -14.1864 C   0  0  1  0  0  0  0  0  0  0  0  0
   20.6050  -19.5781  -14.2519 C   0  0  0  0  0  0  0  0  0  0  0  0
   20.0612  -20.8677  -14.6808 C   0  0  0  0  0  0  0  0  0  0  0  0
   20.8125  -21.8165  -15.0046 O   0  0  0  0  0  0  0  0  0  0  0  0
   22.6535  -20.3449  -13.1046 C   0  0  0  0  0  0  0  0  0  0  0  0
   22.7658  -21.6190  -13.2393 O   0  0  0  0  0  0  0  0  0  0  0  0
   18.6955  -21.0616  -14.7360 O   0  0  0  0  0  0  0  0  0  0  0  0
   28.7820  -20.5721  -14.4719 O   0  0  0  0  0  0  0  0  0  0  0  0
   27.8176  -20.4556  -13.4796 C   0  0  0  0  0  0  0  0  0  0  0  0
   27.7663  -21.4208  -12.4920 C   0  0  0  0  0  0  0  0  0  0  0  0
   26.8203  -21.3327  -11.4938 C   0  0  0  0  0  0  0  0  0  0  0  0
   25.8853  -20.2981  -11.4193 C   0  0  0  0  0  0  0  0  0  0  0  0
   24.8845  -20.2437  -10.3340 C   0  0  0  0  0  0  0  0  0  0  0  0
   23.5344  -20.7657  -10.7791 C   0  0  2  0  0  0  0  0  0  0  0  0
   23.1210  -19.8657  -11.8567 N   0  0  0  0  0  0  0  0  0  0  0  0
   22.6231  -20.7902   -9.6416 C   0  0  0  0  0  0  0  0  0  0  0  0
   22.8650  -21.6097   -8.6906 O   0  0  0  0  0  0  0  0  0  0  0  0
   25.9531  -19.3401  -12.4186 C   0  0  0  0  0  0  0  0  0  0  0  0
   26.9031  -19.4311  -13.4185 C   0  0  0  0  0  0  0  0  0  0  0  0
   21.5052  -19.9688   -9.5341 O   0  0  0  0  0  0  0  0  0  0  0  0
  2  1  1  1
  2  3  1  0
  4  5  2  0
  4  3  1  0
  6  5  1  0
  7 12  2  0
  7  6  1  0
  8  7  1  0
  9  8  2  0
  9 10  1  0
 10 11  2  0
 11 12  1  0
 12  4  1  0
 13  2  1  0
 14 13  2  0
 15 13  1  0
 16 17  1  6
 16 15  1  0
 17 18  1  0
 18 19  2  0
 18 22  1  0
 20 30  1  0
 20 16  1  0
 21 20  2  0
 23 24  1  0
 24 34  2  0
 25 24  1  0
 25 26  2  0
 26 27  1  0
 27 33  2  0
 27 28  1  0
 29 30  1  0
 29 28  1  1
 31 35  1  0
 31 29  1  0
 32 31  2  0
 34 33  1  0
M  END
$$$$
