KTS.pdb
     RDKit          3D

 23 22  0  0  1  0  0  0  0  0999 V2000
    8.0909  -16.6918   20.4609 N   0  0  0  0  0  0  0  0  0  0  0  0
    8.5382  -15.3571   20.8111 C   0  0  1  0  0  0  0  0  0  0  0  0
    8.0396  -14.3972   19.7843 C   0  0  0  0  0  0  0  0  0  0  0  0
    8.2569  -14.9235   18.4006 C   0  0  0  0  0  0  0  0  0  0  0  0
    7.8225  -13.9593   17.3395 C   0  0  0  0  0  0  0  0  0  0  0  0
    8.0603  -14.5826   15.9659 C   0  0  0  0  0  0  0  0  0  0  0  0
    7.7344  -13.6874   14.8968 N   0  0  0  0  0  0  0  0  0  0  0  0
    8.0536  -15.0528   22.1721 C   0  0  0  0  0  0  0  0  0  0  0  0
    6.8885  -14.6428   22.4150 O   0  0  0  0  0  0  0  0  0  0  0  0
    6.2313  -15.9182   23.8706 C   0  0  0  0  0  0  0  0  0  0  0  0
    7.3764  -16.2186   24.8103 C   0  0  1  0  0  0  0  0  0  0  0  0
    7.9334  -17.4408   24.4732 O   0  0  0  0  0  0  0  0  0  0  0  0
    8.4327  -15.1369   24.6580 C   0  0  2  0  0  0  0  0  0  0  0  0
    8.9124  -15.2185   23.2772 N   0  0  0  0  0  0  0  0  0  0  0  0
    9.5806  -15.4001   25.5524 C   0  0  0  0  0  0  0  0  0  0  0  0
   10.6045  -15.9748   25.1152 O   0  0  0  0  0  0  0  0  0  0  0  0
   10.2859  -13.2564   28.6795 O   0  0  0  0  0  0  0  0  0  0  0  0
   10.6195  -14.5644   29.0296 C   0  0  0  0  0  0  0  0  0  0  0  0
   10.7244  -15.3718   27.7550 C   0  0  2  0  0  0  0  0  0  0  0  0
    9.5837  -15.0229   26.9271 N   0  0  0  0  0  0  0  0  0  0  0  0
   10.6796  -16.8237   28.0539 C   0  0  0  0  0  0  0  0  0  0  0  0
    9.7643  -17.5492   27.5796 O   0  0  0  0  0  0  0  0  0  0  0  0
   11.6434  -17.4061   28.8594 O   0  0  0  0  0  0  0  0  0  0  0  0
  2  1  1  6
  2  3  1  0
  2  8  1  0
  4  3  1  0
  5  4  1  0
  5  6  1  0
  6  7  1  0
  8  9  2  0
 11 10  1  6
 11 13  1  0
 12 11  1  0
 13 15  1  0
 13 14  1  6
 14  8  1  0
 15 20  1  0
 15 16  2  0
 18 17  1  0
 19 18  1  1
 19 21  1  0
 20 19  1  0
 21 22  2  0
 21 23  1  0
M  END
$$$$
