KTS.pdb
     RDKit          3D

 23 22  0  0  1  0  0  0  0  0999 V2000
    7.8250  -17.5272   16.6481 N   0  0  0  0  0  0  0  0  0  0  0  0
    7.3895  -17.5902   18.0302 C   0  0  1  0  0  0  0  0  0  0  0  0
    7.3260  -19.0198   18.4505 C   0  0  0  0  0  0  0  0  0  0  0  0
    7.7680  -19.9285   17.3469 C   0  0  0  0  0  0  0  0  0  0  0  0
    7.5845  -21.3772   17.6813 C   0  0  0  0  0  0  0  0  0  0  0  0
    8.1483  -22.2303   16.5471 C   0  0  0  0  0  0  0  0  0  0  0  0
    8.1073  -23.6303   16.8453 N   0  0  0  0  0  0  0  0  0  0  0  0
    8.3252  -16.7885   18.8436 C   0  0  0  0  0  0  0  0  0  0  0  0
    9.5348  -16.6192   18.5390 O   0  0  0  0  0  0  0  0  0  0  0  0
    7.1449  -13.4176   20.5342 C   0  0  0  0  0  0  0  0  0  0  0  0
    7.8015  -14.3270   21.5474 C   0  0  1  0  0  0  0  0  0  0  0  0
    6.8254  -15.0597   22.2015 O   0  0  0  0  0  0  0  0  0  0  0  0
    8.7305  -15.2835   20.8187 C   0  0  2  0  0  0  0  0  0  0  0  0
    7.8745  -16.1681   20.0260 N   0  0  0  0  0  0  0  0  0  0  0  0
    9.4769  -16.1204   21.7827 C   0  0  0  0  0  0  0  0  0  0  0  0
    9.0628  -17.2648   22.0803 O   0  0  0  0  0  0  0  0  0  0  0  0
   13.3546  -16.8193   24.5370 O   0  0  0  0  0  0  0  0  0  0  0  0
   12.7477  -16.0505   23.5445 C   0  0  0  0  0  0  0  0  0  0  0  0
   11.3261  -16.5413   23.3840 C   0  0  2  0  0  0  0  0  0  0  0  0
   10.6791  -15.6805   22.4099 N   0  0  0  0  0  0  0  0  0  0  0  0
   10.5958  -16.4498   24.6714 C   0  0  0  0  0  0  0  0  0  0  0  0
    9.7733  -15.5172   24.8785 O   0  0  0  0  0  0  0  0  0  0  0  0
   10.8058  -17.3883   25.6674 O   0  0  0  0  0  0  0  0  0  0  0  0
  2  1  1  6
  2  3  1  0
  2  8  1  0
  4  3  1  0
  5  4  1  0
  5  6  1  0
  6  7  1  0
  8  9  2  0
 11 10  1  6
 11 13  1  0
 12 11  1  0
 13 15  1  0
 13 14  1  6
 14  8  1  0
 15 20  1  0
 15 16  2  0
 18 17  1  0
 19 18  1  1
 19 21  1  0
 20 19  1  0
 21 22  2  0
 21 23  1  0
M  END
$$$$
