KTS.pdb
     RDKit          3D

 23 22  0  0  1  0  0  0  0  0999 V2000
    8.7907  -17.6579   15.4494 N   0  0  0  0  0  0  0  0  0  0  0  0
    7.9397  -17.4199   16.5996 C   0  0  1  0  0  0  0  0  0  0  0  0
    7.5847  -18.7309   17.2156 C   0  0  0  0  0  0  0  0  0  0  0  0
    8.6259  -19.7654   16.9244 C   0  0  0  0  0  0  0  0  0  0  0  0
    9.0267  -20.5421   18.1410 C   0  0  0  0  0  0  0  0  0  0  0  0
    9.9647  -21.6743   17.7283 C   0  0  0  0  0  0  0  0  0  0  0  0
   10.4211  -22.4404   18.8488 N   0  0  0  0  0  0  0  0  0  0  0  0
    8.6583  -16.5211   17.5246 C   0  0  0  0  0  0  0  0  0  0  0  0
    9.9114  -16.4016   17.5375 O   0  0  0  0  0  0  0  0  0  0  0  0
    8.1310  -13.0105   20.9770 C   0  0  0  0  0  0  0  0  0  0  0  0
    7.5351  -13.8825   19.8958 C   0  0  1  0  0  0  0  0  0  0  0  0
    7.1337  -13.0850   18.8374 O   0  0  0  0  0  0  0  0  0  0  0  0
    8.5976  -14.8525   19.4068 C   0  0  2  0  0  0  0  0  0  0  0  0
    7.9360  -15.7439   18.4522 N   0  0  0  0  0  0  0  0  0  0  0  0
    9.1018  -15.6797   20.5241 C   0  0  0  0  0  0  0  0  0  0  0  0
    8.4458  -16.6689   20.9250 O   0  0  0  0  0  0  0  0  0  0  0  0
   12.8990  -16.3893   21.5478 O   0  0  0  0  0  0  0  0  0  0  0  0
   12.1622  -15.9180   22.6339 C   0  0  0  0  0  0  0  0  0  0  0  0
   10.7007  -16.1878   22.3533 C   0  0  2  0  0  0  0  0  0  0  0  0
   10.3320  -15.4025   21.1889 N   0  0  0  0  0  0  0  0  0  0  0  0
    9.8642  -15.7693   23.5041 C   0  0  0  0  0  0  0  0  0  0  0  0
    9.0673  -14.7982   23.3994 O   0  0  0  0  0  0  0  0  0  0  0  0
    9.9453  -16.4391   24.7131 O   0  0  0  0  0  0  0  0  0  0  0  0
  2  1  1  6
  2  3  1  0
  2  8  1  0
  4  3  1  0
  5  4  1  0
  5  6  1  0
  6  7  1  0
  8  9  2  0
 11 10  1  1
 11 13  1  0
 12 11  1  0
 13 15  1  0
 13 14  1  6
 14  8  1  0
 15 20  1  0
 15 16  2  0
 18 17  1  0
 19 18  1  1
 19 21  1  0
 20 19  1  0
 21 22  2  0
 21 23  1  0
M  END
$$$$
