KTS.pdb
     RDKit          3D

 23 22  0  0  1  0  0  0  0  0999 V2000
    8.5243  -16.3851   20.8754 N   0  0  0  0  0  0  0  0  0  0  0  0
    8.9902  -15.0280   21.0875 C   0  0  1  0  0  0  0  0  0  0  0  0
    8.2260  -14.1111   20.1933 C   0  0  0  0  0  0  0  0  0  0  0  0
    8.0871  -14.6868   18.8191 C   0  0  0  0  0  0  0  0  0  0  0  0
    8.4411  -13.7071   17.7425 C   0  0  0  0  0  0  0  0  0  0  0  0
    8.1338  -14.3246   16.3800 C   0  0  0  0  0  0  0  0  0  0  0  0
    8.4028  -13.4240   15.2997 N   0  0  0  0  0  0  0  0  0  0  0  0
    8.8308  -14.7062   22.5196 C   0  0  0  0  0  0  0  0  0  0  0  0
    9.0873  -13.5737   23.0058 O   0  0  0  0  0  0  0  0  0  0  0  0
    5.7734  -16.2124   24.6079 C   0  0  0  0  0  0  0  0  0  0  0  0
    7.1004  -16.4539   25.2900 C   0  0  1  0  0  0  0  0  0  0  0  0
    7.5737  -17.7058   24.9348 O   0  0  0  0  0  0  0  0  0  0  0  0
    8.0914  -15.4013   24.8219 C   0  0  2  0  0  0  0  0  0  0  0  0
    8.3705  -15.6928   23.4145 N   0  0  0  0  0  0  0  0  0  0  0  0
    9.3629  -15.5143   25.5684 C   0  0  0  0  0  0  0  0  0  0  0  0
   10.3536  -16.0782   25.0488 O   0  0  0  0  0  0  0  0  0  0  0  0
    9.5249  -14.1928   29.2881 O   0  0  0  0  0  0  0  0  0  0  0  0
   10.8152  -14.2902   28.7685 C   0  0  0  0  0  0  0  0  0  0  0  0
   10.7704  -15.2430   27.5947 C   0  0  2  0  0  0  0  0  0  0  0  0
    9.5256  -14.9998   26.8879 N   0  0  0  0  0  0  0  0  0  0  0  0
   10.7932  -16.6492   28.0651 C   0  0  0  0  0  0  0  0  0  0  0  0
   11.8010  -17.1090   28.6667 O   0  0  0  0  0  0  0  0  0  0  0  0
    9.7069  -17.4804   27.8507 O   0  0  0  0  0  0  0  0  0  0  0  0
  2  1  1  1
  2  3  1  0
  2  8  1  0
  4  3  1  0
  5  4  1  0
  5  6  1  0
  6  7  1  0
  8  9  2  0
 11 10  1  6
 11 13  1  0
 12 11  1  0
 13 15  1  0
 13 14  1  6
 14  8  1  0
 15 20  1  0
 15 16  2  0
 18 17  1  0
 19 18  1  1
 19 21  1  0
 20 19  1  0
 21 22  2  0
 21 23  1  0
M  END
$$$$
