KTS.pdb
     RDKit          3D

 23 22  0  0  1  0  0  0  0  0999 V2000
    7.8139  -17.1571   16.1977 N   0  0  0  0  0  0  0  0  0  0  0  0
    7.4326  -17.3319   17.5862 C   0  0  1  0  0  0  0  0  0  0  0  0
    7.4205  -18.7894   17.9025 C   0  0  0  0  0  0  0  0  0  0  0  0
    8.1637  -19.5740   16.8675 C   0  0  0  0  0  0  0  0  0  0  0  0
    8.1958  -21.0416   17.1661 C   0  0  0  0  0  0  0  0  0  0  0  0
    8.9181  -21.7692   16.0344 C   0  0  0  0  0  0  0  0  0  0  0  0
    9.1556  -23.1487   16.3367 N   0  0  0  0  0  0  0  0  0  0  0  0
    8.3780  -16.5657   18.4221 C   0  0  0  0  0  0  0  0  0  0  0  0
    9.5304  -16.2366   18.0371 O   0  0  0  0  0  0  0  0  0  0  0  0
    7.2707  -13.4672   20.4215 C   0  0  0  0  0  0  0  0  0  0  0  0
    7.9483  -14.4340   21.3652 C   0  0  1  0  0  0  0  0  0  0  0  0
    6.9867  -15.2108   21.9890 O   0  0  0  0  0  0  0  0  0  0  0  0
    8.8687  -15.3387   20.5632 C   0  0  2  0  0  0  0  0  0  0  0  0
    8.0037  -16.1669   19.7210 N   0  0  0  0  0  0  0  0  0  0  0  0
    9.6245  -16.2396   21.4599 C   0  0  0  0  0  0  0  0  0  0  0  0
    9.2377  -17.4165   21.6468 O   0  0  0  0  0  0  0  0  0  0  0  0
   13.4727  -16.6971   21.9872 O   0  0  0  0  0  0  0  0  0  0  0  0
   12.8777  -16.3624   23.2031 C   0  0  0  0  0  0  0  0  0  0  0  0
   11.4109  -16.7208   23.1144 C   0  0  2  0  0  0  0  0  0  0  0  0
   10.8057  -15.8272   22.1432 N   0  0  0  0  0  0  0  0  0  0  0  0
   10.7484  -16.5293   24.4273 C   0  0  0  0  0  0  0  0  0  0  0  0
    9.8552  -15.6521   24.5741 O   0  0  0  0  0  0  0  0  0  0  0  0
   11.1007  -17.3119   25.5137 O   0  0  0  0  0  0  0  0  0  0  0  0
  2  1  1  6
  2  3  1  0
  2  8  1  0
  4  3  1  0
  5  4  1  0
  5  6  1  0
  6  7  1  0
  8  9  2  0
 11 10  1  6
 11 13  1  0
 12 11  1  0
 13 15  1  0
 13 14  1  6
 14  8  1  0
 15 20  1  0
 15 16  2  0
 18 17  1  0
 19 18  1  1
 19 21  1  0
 20 19  1  0
 21 22  2  0
 21 23  1  0
M  END
$$$$
