KTS.pdb
     RDKit          3D

 23 22  0  0  1  0  0  0  0  0999 V2000
    8.5408  -17.8668   17.8727 N   0  0  0  0  0  0  0  0  0  0  0  0
    8.4774  -18.1218   19.2992 C   0  0  1  0  0  0  0  0  0  0  0  0
    8.7585  -19.5660   19.5432 C   0  0  0  0  0  0  0  0  0  0  0  0
    9.9714  -20.0159   18.7912 C   0  0  0  0  0  0  0  0  0  0  0  0
   10.1817  -21.4974   18.8645 C   0  0  0  0  0  0  0  0  0  0  0  0
   11.4627  -21.8609   18.1169 C   0  0  0  0  0  0  0  0  0  0  0  0
   11.7762  -23.2546   18.2176 N   0  0  0  0  0  0  0  0  0  0  0  0
    9.4383  -17.2235   19.9696 C   0  0  0  0  0  0  0  0  0  0  0  0
   10.4311  -16.7148   19.3862 O   0  0  0  0  0  0  0  0  0  0  0  0
    8.3194  -14.3279   22.2298 C   0  0  0  0  0  0  0  0  0  0  0  0
    9.2792  -15.1979   23.0085 C   0  0  1  0  0  0  0  0  0  0  0  0
    8.5584  -16.1012   23.7713 O   0  0  0  0  0  0  0  0  0  0  0  0
   10.1509  -15.9655   22.0287 C   0  0  2  0  0  0  0  0  0  0  0  0
    9.2652  -16.8985   21.3299 N   0  0  0  0  0  0  0  0  0  0  0  0
   11.1685  -16.7607   22.7491 C   0  0  0  0  0  0  0  0  0  0  0  0
   10.9043  -17.9214   23.1397 O   0  0  0  0  0  0  0  0  0  0  0  0
   14.8394  -15.2574   23.4515 O   0  0  0  0  0  0  0  0  0  0  0  0
   14.8073  -16.6484   23.3581 C   0  0  0  0  0  0  0  0  0  0  0  0
   13.4174  -17.1056   23.7411 C   0  0  2  0  0  0  0  0  0  0  0  0
   12.4736  -16.2611   23.0308 N   0  0  0  0  0  0  0  0  0  0  0  0
   13.2026  -16.9509   25.2002 C   0  0  0  0  0  0  0  0  0  0  0  0
   13.8924  -17.6096   26.0244 O   0  0  0  0  0  0  0  0  0  0  0  0
   12.2400  -16.0797   25.6810 O   0  0  0  0  0  0  0  0  0  0  0  0
  2  1  1  6
  2  3  1  0
  2  8  1  0
  4  3  1  0
  5  4  1  0
  5  6  1  0
  6  7  1  0
  8  9  2  0
 11 10  1  6
 11 13  1  0
 12 11  1  0
 13 15  1  0
 13 14  1  1
 14  8  1  0
 15 20  1  0
 15 16  2  0
 18 17  1  0
 19 18  1  1
 19 21  1  0
 20 19  1  0
 21 22  2  0
 21 23  1  0
M  END
$$$$
