KTS.pdb
     RDKit          3D

 23 22  0  0  1  0  0  0  0  0999 V2000
    8.6563  -14.8149   14.8953 N   0  0  0  0  0  0  0  0  0  0  0  0
    8.0770  -15.3989   16.0900 C   0  0  1  0  0  0  0  0  0  0  0  0
    8.0094  -16.8789   15.9184 C   0  0  0  0  0  0  0  0  0  0  0  0
    9.3677  -17.4586   15.6780 C   0  0  0  0  0  0  0  0  0  0  0  0
    9.3326  -18.9374   15.4411 C   0  0  0  0  0  0  0  0  0  0  0  0
   10.7589  -19.4514   15.2586 C   0  0  0  0  0  0  0  0  0  0  0  0
   10.8093  -20.8726   15.0909 N   0  0  0  0  0  0  0  0  0  0  0  0
    8.8968  -14.9869   17.2466 C   0  0  0  0  0  0  0  0  0  0  0  0
   10.1201  -14.7032   17.1602 O   0  0  0  0  0  0  0  0  0  0  0  0
    7.4590  -12.5193   19.8556 C   0  0  0  0  0  0  0  0  0  0  0  0
    8.0273  -13.7158   20.5836 C   0  0  1  0  0  0  0  0  0  0  0  0
    7.0056  -14.6092   20.8580 O   0  0  0  0  0  0  0  0  0  0  0  0
    9.0490  -14.3955   19.6875 C   0  0  2  0  0  0  0  0  0  0  0  0
    8.3121  -14.8964   18.5257 N   0  0  0  0  0  0  0  0  0  0  0  0
    9.6541  -15.5567   20.3747 C   0  0  0  0  0  0  0  0  0  0  0  0
    9.2238  -16.7136   20.1603 O   0  0  0  0  0  0  0  0  0  0  0  0
   13.2082  -15.2710   22.1352 O   0  0  0  0  0  0  0  0  0  0  0  0
   12.7980  -16.5427   21.7362 C   0  0  0  0  0  0  0  0  0  0  0  0
   11.2967  -16.6179   21.9033 C   0  0  2  0  0  0  0  0  0  0  0  0
   10.7340  -15.4250   21.2961 N   0  0  0  0  0  0  0  0  0  0  0  0
   10.9341  -16.6464   23.3409 C   0  0  0  0  0  0  0  0  0  0  0  0
   11.3500  -17.5710   24.0900 O   0  0  0  0  0  0  0  0  0  0  0  0
   10.1322  -15.6569   23.8839 O   0  0  0  0  0  0  0  0  0  0  0  0
  2  1  1  6
  2  3  1  0
  2  8  1  0
  4  3  1  0
  5  4  1  0
  5  6  1  0
  6  7  1  0
  8  9  2  0
 11 10  1  6
 11 13  1  0
 12 11  1  0
 13 15  1  0
 13 14  1  6
 14  8  1  0
 15 20  1  0
 15 16  2  0
 18 17  1  0
 19 18  1  1
 19 21  1  0
 20 19  1  0
 21 22  2  0
 21 23  1  0
M  END
$$$$
