SRE.pdb
     RDKit          3D

 27 26  0  0  1  0  0  0  0  0999 V2000
    9.6739  -22.3003   21.3667 O   0  0  0  0  0  0  0  0  0  0  0  0
    8.3630  -22.1206   20.9277 C   0  0  0  0  0  0  0  0  0  0  0  0
    8.2709  -21.2251   19.7098 C   0  0  2  0  0  0  0  0  0  0  0  0
    8.9426  -21.8855   18.6162 N   0  0  0  0  0  0  0  0  0  0  0  0
    8.8685  -19.9259   20.0520 C   0  0  0  0  0  0  0  0  0  0  0  0
   10.0900  -19.6727   19.7560 O   0  0  0  0  0  0  0  0  0  0  0  0
    8.3221  -13.0661   19.0189 N   0  0  0  0  0  0  0  0  0  0  0  0
    8.1365  -12.2917   20.2068 C   0  0  0  0  0  0  0  0  0  0  0  0
    8.5661  -11.0842   20.2438 N   0  0  0  0  0  0  0  0  0  0  0  0
    7.4826  -12.8531   21.3283 N   0  0  0  0  0  0  0  0  0  0  0  0
    7.0330  -14.2264   21.3456 C   0  0  0  0  0  0  0  0  0  0  0  0
    8.2216  -15.1552   21.1968 C   0  0  0  0  0  0  0  0  0  0  0  0
    7.7065  -16.5611   21.1201 C   0  0  0  0  0  0  0  0  0  0  0  0
    8.8077  -17.5769   20.9555 C   0  0  2  0  0  0  0  0  0  0  0  0
    8.1720  -18.8804   20.7116 N   0  0  0  0  0  0  0  0  0  0  0  0
    9.5337  -17.6351   22.2585 C   0  0  0  0  0  0  0  0  0  0  0  0
    9.1187  -18.4613   23.1073 O   0  0  0  0  0  0  0  0  0  0  0  0
    8.4973  -10.4824   21.0861 N   0  0  0  0  0  0  0  0  0  0  0  0
   10.6448  -16.8158   22.5620 C   0  0  2  0  0  0  0  0  0  0  0  0
   11.5506  -17.3131   23.6213 C   0  0  0  0  0  0  0  0  0  0  0  0
   12.9573  -16.9913   23.1579 C   0  0  0  0  0  0  0  0  0  0  0  0
   13.9701  -17.4585   24.1573 C   0  0  0  0  0  0  0  0  0  0  0  0
   15.3508  -17.1363   23.6722 O   0  0  0  0  0  0  0  0  0  0  0  0
   16.2225  -16.6513   24.4033 C   0  0  0  0  0  0  0  0  0  0  0  0
   11.1770  -16.7069   24.9048 O   0  0  0  0  0  0  0  0  0  0  0  0
   11.5939  -17.1551   26.1351 O   0  0  0  0  0  0  0  0  0  0  0  0
   15.6435  -17.4013   22.3277 O   0  0  0  0  0  0  0  0  0  0  0  0
  2  1  1  0
  3  4  1  6
  3  2  1  0
  5  3  1  0
  6  5  2  0
  7  8  1  0
  8 10  1  0
  9  8  2  0
 10 11  1  0
 12 11  1  0
 13 12  1  0
 14 13  1  1
 14 15  1  0
 15  5  1  0
 16 14  1  0
 16 17  2  0
 18 16  1  0
 19 18  1  0
 19 20  1  6
 20 21  1  0
 21 22  1  0
 22 26  1  0
 22 23  2  0
 24 19  1  0
 25 24  1  0
 27 24  2  0
M  END
$$$$
