SRE.pdb
     RDKit          3D

 27 26  0  0  1  0  0  0  0  0999 V2000
    7.5671  -22.1926   21.6644 O   0  0  0  0  0  0  0  0  0  0  0  0
    6.5455  -21.2546   21.8065 C   0  0  0  0  0  0  0  0  0  0  0  0
    6.3910  -20.3682   20.5883 C   0  0  2  0  0  0  0  0  0  0  0  0
    6.1062  -21.2125   19.4528 N   0  0  0  0  0  0  0  0  0  0  0  0
    7.6280  -19.5892   20.4303 C   0  0  0  0  0  0  0  0  0  0  0  0
    8.6197  -20.0678   19.7736 O   0  0  0  0  0  0  0  0  0  0  0  0
    7.4472  -13.3264   16.0034 N   0  0  0  0  0  0  0  0  0  0  0  0
    7.6694  -13.2728   17.4152 C   0  0  0  0  0  0  0  0  0  0  0  0
    6.7143  -12.9075   18.1886 N   0  0  0  0  0  0  0  0  0  0  0  0
    8.9306  -13.6223   17.9515 N   0  0  0  0  0  0  0  0  0  0  0  0
    9.0757  -14.1482   19.2897 C   0  0  0  0  0  0  0  0  0  0  0  0
    8.5580  -15.5720   19.3382 C   0  0  0  0  0  0  0  0  0  0  0  0
    8.7559  -16.0916   20.7305 C   0  0  0  0  0  0  0  0  0  0  0  0
    9.0839  -17.5624   20.7624 C   0  0  2  0  0  0  0  0  0  0  0  0
    7.8231  -18.2907   20.9682 N   0  0  0  0  0  0  0  0  0  0  0  0
    9.9611  -17.7790   21.9507 C   0  0  0  0  0  0  0  0  0  0  0  0
    9.4299  -17.6613   23.0817 O   0  0  0  0  0  0  0  0  0  0  0  0
    6.8110  -12.8441   19.2197 N   0  0  0  0  0  0  0  0  0  0  0  0
   11.3325  -18.1059   21.8502 C   0  0  2  0  0  0  0  0  0  0  0  0
   12.0685  -18.2265   23.1283 C   0  0  0  0  0  0  0  0  0  0  0  0
   13.3373  -18.9933   22.8131 C   0  0  0  0  0  0  0  0  0  0  0  0
   14.1511  -19.2135   24.0508 C   0  0  0  0  0  0  0  0  0  0  0  0
   15.3695  -20.0216   23.7223 O   0  0  0  0  0  0  0  0  0  0  0  0
   15.6572  -21.0708   24.3106 C   0  0  0  0  0  0  0  0  0  0  0  0
   12.2876  -16.8889   23.6916 O   0  0  0  0  0  0  0  0  0  0  0  0
   12.2656  -15.7201   22.9693 O   0  0  0  0  0  0  0  0  0  0  0  0
   16.2063  -19.5473   22.7033 O   0  0  0  0  0  0  0  0  0  0  0  0
  2  1  1  0
  3  4  1  6
  3  2  1  0
  5  3  1  0
  6  5  2  0
  7  8  1  0
  8 10  1  0
  9  8  2  0
 10 11  1  0
 12 11  1  0
 13 12  1  0
 14 13  1  1
 14 15  1  0
 15  5  1  0
 16 14  1  0
 16 17  2  0
 18 16  1  0
 19 18  1  0
 19 20  1  6
 20 21  1  0
 21 22  1  0
 22 26  1  0
 22 23  2  0
 24 19  1  0
 25 24  1  0
 27 24  2  0
M  END
$$$$
