SRE.pdb
     RDKit          3D

 27 26  0  0  1  0  0  0  0  0999 V2000
   10.2487  -21.1226   20.1081 O   0  0  0  0  0  0  0  0  0  0  0  0
    8.9364  -20.6679   19.9860 C   0  0  0  0  0  0  0  0  0  0  0  0
    8.8531  -19.2646   19.4227 C   0  0  2  0  0  0  0  0  0  0  0  0
    9.5852  -19.2366   18.1791 N   0  0  0  0  0  0  0  0  0  0  0  0
    9.3909  -18.3361   20.4281 C   0  0  0  0  0  0  0  0  0  0  0  0
   10.6238  -17.9856   20.3975 O   0  0  0  0  0  0  0  0  0  0  0  0
    7.9023  -11.5827   20.3038 N   0  0  0  0  0  0  0  0  0  0  0  0
    8.4569  -12.7502   19.6916 C   0  0  0  0  0  0  0  0  0  0  0  0
    8.6488  -12.7646   18.4240 N   0  0  0  0  0  0  0  0  0  0  0  0
    8.7923  -13.8763   20.4789 N   0  0  0  0  0  0  0  0  0  0  0  0
    8.4651  -13.9542   21.8844 C   0  0  0  0  0  0  0  0  0  0  0  0
    7.4822  -15.0842   22.1184 C   0  0  0  0  0  0  0  0  0  0  0  0
    8.1076  -16.0536   23.0760 C   0  0  0  0  0  0  0  0  0  0  0  0
    9.2259  -16.8490   22.4527 C   0  0  2  0  0  0  0  0  0  0  0  0
    8.6219  -17.7684   21.4768 N   0  0  0  0  0  0  0  0  0  0  0  0
    9.8417  -17.6526   23.5497 C   0  0  0  0  0  0  0  0  0  0  0  0
    9.2130  -18.6678   23.9361 O   0  0  0  0  0  0  0  0  0  0  0  0
    8.9977  -13.5967   17.9118 N   0  0  0  0  0  0  0  0  0  0  0  0
   11.0768  -17.3211   24.1516 C   0  0  1  0  0  0  0  0  0  0  0  0
   11.5938  -18.2833   25.1500 C   0  0  0  0  0  0  0  0  0  0  0  0
   13.0959  -18.0848   25.1879 C   0  0  0  0  0  0  0  0  0  0  0  0
   13.7175  -18.4515   23.8757 C   0  0  0  0  0  0  0  0  0  0  0  0
   15.0787  -17.8346   23.7667 O   0  0  0  0  0  0  0  0  0  0  0  0
   15.3942  -17.0628   22.8533 C   0  0  0  0  0  0  0  0  0  0  0  0
   10.9164  -18.0634   26.4335 O   0  0  0  0  0  0  0  0  0  0  0  0
   11.0600  -18.8609   27.5432 O   0  0  0  0  0  0  0  0  0  0  0  0
   16.0198  -18.1632   24.7517 O   0  0  0  0  0  0  0  0  0  0  0  0
  2  1  1  0
  3  4  1  6
  3  2  1  0
  5  3  1  0
  6  5  2  0
  7  8  1  0
  8 10  1  0
  9  8  2  0
 10 11  1  0
 12 11  1  0
 13 12  1  0
 14 13  1  1
 14 15  1  0
 15  5  1  0
 16 14  1  0
 16 17  2  0
 18 16  1  0
 19 18  1  0
 19 20  1  6
 20 21  1  0
 21 22  1  0
 22 26  1  0
 22 23  2  0
 24 19  1  0
 25 24  1  0
 27 24  2  0
M  END
$$$$
