SRE.pdb
     RDKit          3D

 27 26  0  0  1  0  0  0  0  0999 V2000
   15.1286  -17.0795   16.7488 O   0  0  0  0  0  0  0  0  0  0  0  0
   15.8387  -16.0463   16.1390 C   0  0  0  0  0  0  0  0  0  0  0  0
   15.0449  -14.7591   16.0570 C   0  0  2  0  0  0  0  0  0  0  0  0
   15.8982  -13.7415   15.4917 N   0  0  0  0  0  0  0  0  0  0  0  0
   14.5716  -14.4275   17.4091 C   0  0  0  0  0  0  0  0  0  0  0  0
   15.3533  -13.8594   18.2517 O   0  0  0  0  0  0  0  0  0  0  0  0
    6.4642  -13.4383   20.0686 N   0  0  0  0  0  0  0  0  0  0  0  0
    7.4502  -13.1296   19.0798 C   0  0  0  0  0  0  0  0  0  0  0  0
    7.0794  -12.6459   17.9517 N   0  0  0  0  0  0  0  0  0  0  0  0
    8.8210  -13.3539   19.3463 N   0  0  0  0  0  0  0  0  0  0  0  0
    9.2679  -14.0494   20.5316 C   0  0  0  0  0  0  0  0  0  0  0  0
   10.7801  -13.9914   20.6185 C   0  0  0  0  0  0  0  0  0  0  0  0
   11.3381  -14.3890   19.2850 C   0  0  0  0  0  0  0  0  0  0  0  0
   12.8422  -14.3059   19.2346 C   0  0  2  0  0  0  0  0  0  0  0  0
   13.2599  -14.6952   17.8794 N   0  0  0  0  0  0  0  0  0  0  0  0
   13.3589  -15.3173   20.2034 C   0  0  0  0  0  0  0  0  0  0  0  0
   13.2382  -16.5256   19.8865 O   0  0  0  0  0  0  0  0  0  0  0  0
    7.7391  -12.4382   17.1784 N   0  0  0  0  0  0  0  0  0  0  0  0
   13.9656  -14.9715   21.4323 C   0  0  1  0  0  0  0  0  0  0  0  0
   14.6487  -16.0689   22.1528 C   0  0  0  0  0  0  0  0  0  0  0  0
   16.1022  -15.6557   22.2693 C   0  0  0  0  0  0  0  0  0  0  0  0
   16.8872  -16.6714   23.0406 C   0  0  0  0  0  0  0  0  0  0  0  0
   18.2892  -16.1836   23.2452 O   0  0  0  0  0  0  0  0  0  0  0  0
   19.1519  -16.2312   22.3603 C   0  0  0  0  0  0  0  0  0  0  0  0
   13.9753  -16.3013   23.4362 O   0  0  0  0  0  0  0  0  0  0  0  0
   14.1859  -17.3907   24.2468 O   0  0  0  0  0  0  0  0  0  0  0  0
   18.6152  -15.6577   24.5025 O   0  0  0  0  0  0  0  0  0  0  0  0
  2  1  1  0
  3  4  1  1
  3  2  1  0
  5  3  1  0
  6  5  2  0
  7  8  1  0
  8 10  1  0
  9  8  2  0
 10 11  1  0
 12 11  1  0
 13 12  1  0
 14 13  1  6
 14 15  1  0
 15  5  1  0
 16 14  1  0
 16 17  2  0
 18 16  1  0
 19 18  1  0
 19 20  1  6
 20 21  1  0
 21 22  1  0
 22 26  1  0
 22 23  2  0
 24 19  1  0
 25 24  1  0
 27 24  2  0
M  END
$$$$
