YAT.pdb
     RDKit          3D

 25 25  0  0  1  0  0  0  0  0999 V2000
   23.8409  -10.5808  -14.9378 O   0  0  0  0  0  0  0  0  0  0  0  0
   22.7861   -9.9029  -14.3318 C   0  0  0  0  0  0  0  0  0  0  0  0
   22.2037   -8.8058  -14.9457 C   0  0  0  0  0  0  0  0  0  0  0  0
   21.1641   -8.1394  -14.3482 C   0  0  0  0  0  0  0  0  0  0  0  0
   20.6444   -8.5154  -13.1187 C   0  0  0  0  0  0  0  0  0  0  0  0
   19.5137   -7.7706  -12.4896 C   0  0  0  0  0  0  0  0  0  0  0  0
   18.3979   -8.7522  -12.1978 C   0  0  2  0  0  0  0  0  0  0  0  0
   17.9570   -9.3495  -13.4631 N   0  0  0  0  0  0  0  0  0  0  0  0
   17.2330   -8.1132  -11.5732 C   0  0  0  0  0  0  0  0  0  0  0  0
   16.4420   -7.4073  -12.2661 O   0  0  0  0  0  0  0  0  0  0  0  0
   21.2291   -9.6108  -12.5101 C   0  0  0  0  0  0  0  0  0  0  0  0
   22.2782  -10.2858  -13.1106 C   0  0  0  0  0  0  0  0  0  0  0  0
   15.3714   -8.3285   -8.3384 C   0  0  0  0  0  0  0  0  0  0  0  0
   15.7466   -7.5724   -9.6131 C   0  0  2  0  0  0  0  0  0  0  0  0
   16.8973   -8.2230  -10.1860 N   0  0  0  0  0  0  0  0  0  0  0  0
   15.9729   -6.1391   -9.3474 C   0  0  0  0  0  0  0  0  0  0  0  0
   17.0432   -5.7815   -8.7734 O   0  0  0  0  0  0  0  0  0  0  0  0
   16.2962   -3.1089  -11.6144 C   0  0  0  0  0  0  0  0  0  0  0  0
   15.1644   -2.8737  -10.6732 C   0  0  1  0  0  0  0  0  0  0  0  0
   13.9685   -3.1543  -11.3288 O   0  0  0  0  0  0  0  0  0  0  0  0
   15.2646   -3.7096   -9.4162 C   0  0  2  0  0  0  0  0  0  0  0  0
   15.0618   -5.1163   -9.6942 N   0  0  0  0  0  0  0  0  0  0  0  0
   14.4464   -3.2274   -8.2996 C   0  0  0  0  0  0  0  0  0  0  0  0
   13.5243   -3.9256   -7.8203 O   0  0  0  0  0  0  0  0  0  0  0  0
   14.6274   -1.9729   -7.6927 O   0  0  0  0  0  0  0  0  0  0  0  0
  2  1  1  0
  3  2  2  0
  4  3  1  0
  5  4  2  0
  5 11  1  0
  6  5  1  0
  7  9  1  0
  7  6  1  0
  7  8  1  6
  9 10  2  0
 11 12  2  0
 12  2  1  0
 14 13  1  1
 14 16  1  0
 15 14  1  0
 15  9  1  0
 16 22  1  0
 17 16  2  0
 19 20  1  0
 19 18  1  6
 21 19  1  0
 21 22  1  6
 23 25  1  0
 23 21  1  0
 24 23  2  0
M  END
$$$$
