YAT.pdb
     RDKit          3D

 25 25  0  0  1  0  0  0  0  0999 V2000
   30.4654  -11.7621  -16.5438 O   0  0  0  0  0  0  0  0  0  0  0  0
   29.2596  -11.0703  -16.4615 C   0  0  0  0  0  0  0  0  0  0  0  0
   29.0257   -9.9583  -17.2542 C   0  0  0  0  0  0  0  0  0  0  0  0
   27.8372   -9.2782  -17.1730 C   0  0  0  0  0  0  0  0  0  0  0  0
   26.8190   -9.6546  -16.3099 C   0  0  0  0  0  0  0  0  0  0  0  0
   25.5357   -8.8947  -16.2398 C   0  0  0  0  0  0  0  0  0  0  0  0
   24.4445   -9.7405  -16.8623 C   0  0  2  0  0  0  0  0  0  0  0  0
   24.7738   -9.9647  -18.2742 N   0  0  0  0  0  0  0  0  0  0  0  0
   23.1276   -9.0938  -16.8058 C   0  0  0  0  0  0  0  0  0  0  0  0
   22.7638   -8.3015  -17.7246 O   0  0  0  0  0  0  0  0  0  0  0  0
   27.0573  -10.7649  -15.5209 C   0  0  0  0  0  0  0  0  0  0  0  0
   28.2556  -11.4537  -15.6008 C   0  0  0  0  0  0  0  0  0  0  0  0
   20.0328   -9.3567  -14.6788 C   0  0  0  0  0  0  0  0  0  0  0  0
   20.8633   -8.6938  -15.7780 C   0  0  2  0  0  0  0  0  0  0  0  0
   22.1752   -9.2890  -15.7553 N   0  0  0  0  0  0  0  0  0  0  0  0
   20.8978   -7.2272  -15.6225 C   0  0  0  0  0  0  0  0  0  0  0  0
   21.6062   -6.7227  -14.7025 O   0  0  0  0  0  0  0  0  0  0  0  0
   21.6546   -4.6228  -18.3724 C   0  0  0  0  0  0  0  0  0  0  0  0
   20.3994   -4.2218  -17.6754 C   0  0  1  0  0  0  0  0  0  0  0  0
   19.3130   -4.5428  -18.4851 O   0  0  0  0  0  0  0  0  0  0  0  0
   20.2418   -4.8852  -16.3249 C   0  0  2  0  0  0  0  0  0  0  0  0
   20.1817   -6.3272  -16.4433 N   0  0  0  0  0  0  0  0  0  0  0  0
   19.1596   -4.3370  -15.5019 C   0  0  0  0  0  0  0  0  0  0  0  0
   18.1854   -5.0429  -15.1549 O   0  0  0  0  0  0  0  0  0  0  0  0
   19.1300   -3.0075  -15.0478 O   0  0  0  0  0  0  0  0  0  0  0  0
  2  1  1  0
  3  2  2  0
  4  3  1  0
  5  4  2  0
  5 11  1  0
  6  5  1  0
  7  9  1  0
  7  6  1  0
  7  8  1  6
  9 10  2  0
 11 12  2  0
 12  2  1  0
 14 13  1  1
 14 16  1  0
 15 14  1  0
 15  9  1  0
 16 22  1  0
 17 16  2  0
 19 20  1  0
 19 18  1  6
 21 19  1  0
 21 22  1  6
 23 25  1  0
 23 21  1  0
 24 23  2  0
M  END
$$$$
