YAT.pdb
     RDKit          3D

 25 25  0  0  1  0  0  0  0  0999 V2000
   15.5046  -16.8347  -15.3605 O   0  0  0  0  0  0  0  0  0  0  0  0
   16.2404  -15.6531  -15.3995 C   0  0  0  0  0  0  0  0  0  0  0  0
   15.6356  -14.4532  -15.7371 C   0  0  0  0  0  0  0  0  0  0  0  0
   16.3612  -13.2895  -15.7742 C   0  0  0  0  0  0  0  0  0  0  0  0
   17.7163  -13.2451  -15.4827 C   0  0  0  0  0  0  0  0  0  0  0  0
   18.4829  -11.9649  -15.5332 C   0  0  0  0  0  0  0  0  0  0  0  0
   18.7291  -11.6118  -16.9853 C   0  0  2  0  0  0  0  0  0  0  0  0
   19.7237  -12.5418  -17.5311 N   0  0  0  0  0  0  0  0  0  0  0  0
   19.2485  -10.2490  -17.1545 C   0  0  0  0  0  0  0  0  0  0  0  0
   20.4484   -9.9792  -16.8517 O   0  0  0  0  0  0  0  0  0  0  0  0
   18.3153  -14.4452  -15.1465 C   0  0  0  0  0  0  0  0  0  0  0  0
   17.5857  -15.6212  -15.1076 C   0  0  0  0  0  0  0  0  0  0  0  0
   18.0255   -6.9866  -18.5888 C   0  0  0  0  0  0  0  0  0  0  0  0
   19.0320   -7.8240  -17.7994 C   0  0  2  0  0  0  0  0  0  0  0  0
   18.4827   -9.1480  -17.6547 N   0  0  0  0  0  0  0  0  0  0  0  0
   19.3630   -7.1974  -16.5055 C   0  0  0  0  0  0  0  0  0  0  0  0
   18.5634   -7.3340  -15.5335 O   0  0  0  0  0  0  0  0  0  0  0  0
   21.6309   -8.0050  -14.0475 C   0  0  0  0  0  0  0  0  0  0  0  0
   21.9705   -6.5742  -14.2913 C   0  0  1  0  0  0  0  0  0  0  0  0
   23.1402   -6.5115  -15.0443 O   0  0  0  0  0  0  0  0  0  0  0  0
   20.8663   -5.8230  -15.0022 C   0  0  2  0  0  0  0  0  0  0  0  0
   20.5321   -6.4399  -16.2690 N   0  0  0  0  0  0  0  0  0  0  0  0
   21.0896   -4.3786  -15.1148 C   0  0  0  0  0  0  0  0  0  0  0  0
   21.1250   -3.8114  -16.2305 O   0  0  0  0  0  0  0  0  0  0  0  0
   21.2774   -3.5357  -14.0062 O   0  0  0  0  0  0  0  0  0  0  0  0
  2  1  1  0
  3  2  2  0
  4  3  1  0
  5  4  2  0
  5 11  1  0
  6  5  1  0
  7  9  1  0
  7  6  1  0
  7  8  1  1
  9 10  2  0
 11 12  2  0
 12  2  1  0
 14 13  1  1
 14 16  1  0
 15 14  1  0
 15  9  1  0
 16 22  1  0
 17 16  2  0
 19 20  1  0
 19 18  1  6
 21 19  1  0
 21 22  1  6
 23 25  1  0
 23 21  1  0
 24 23  2  0
M  END
$$$$
