YAT.pdb
     RDKit          3D

 25 25  0  0  1  0  0  0  0  0999 V2000
   23.0529  -21.5613   -7.1024 O   0  0  0  0  0  0  0  0  0  0  0  0
   23.7983  -21.2134   -8.2261 C   0  0  0  0  0  0  0  0  0  0  0  0
   25.1828  -21.1919   -8.1786 C   0  0  0  0  0  0  0  0  0  0  0  0
   25.9160  -20.8499   -9.2864 C   0  0  0  0  0  0  0  0  0  0  0  0
   25.3277  -20.5116  -10.4958 C   0  0  0  0  0  0  0  0  0  0  0  0
   26.1497  -20.1408  -11.6858 C   0  0  0  0  0  0  0  0  0  0  0  0
   25.4775  -20.6971  -12.9236 C   0  0  2  0  0  0  0  0  0  0  0  0
   25.3451  -22.1502  -12.7715 N   0  0  0  0  0  0  0  0  0  0  0  0
   26.2480  -20.4423  -14.1472 C   0  0  0  0  0  0  0  0  0  0  0  0
   26.6099  -19.2650  -14.4420 O   0  0  0  0  0  0  0  0  0  0  0  0
   23.9458  -20.5345  -10.5381 C   0  0  0  0  0  0  0  0  0  0  0  0
   23.2029  -20.8796   -9.4219 C   0  0  0  0  0  0  0  0  0  0  0  0
   28.2874  -22.4086  -16.5425 C   0  0  0  0  0  0  0  0  0  0  0  0
   27.4477  -21.1673  -16.2396 C   0  0  2  0  0  0  0  0  0  0  0  0
   26.6440  -21.4542  -15.0789 N   0  0  0  0  0  0  0  0  0  0  0  0
   26.6425  -20.7588  -17.4063 C   0  0  0  0  0  0  0  0  0  0  0  0
   25.6852  -21.4973  -17.7817 O   0  0  0  0  0  0  0  0  0  0  0  0
   24.2794  -18.0970  -17.9124 C   0  0  0  0  0  0  0  0  0  0  0  0
   25.2904  -17.9049  -18.9908 C   0  0  1  0  0  0  0  0  0  0  0  0
   26.1622  -16.8866  -18.6139 O   0  0  0  0  0  0  0  0  0  0  0  0
   26.0756  -19.1635  -19.2884 C   0  0  2  0  0  0  0  0  0  0  0  0
   26.8683  -19.5787  -18.1499 N   0  0  0  0  0  0  0  0  0  0  0  0
   26.8492  -19.1164  -20.5326 C   0  0  0  0  0  0  0  0  0  0  0  0
   28.0887  -19.2937  -20.5345 O   0  0  0  0  0  0  0  0  0  0  0  0
   26.2752  -18.8741  -21.7922 O   0  0  0  0  0  0  0  0  0  0  0  0
  2  1  1  0
  3  2  2  0
  4  3  1  0
  5  4  2  0
  5 11  1  0
  6  5  1  0
  7  9  1  0
  7  6  1  0
  7  8  1  1
  9 10  2  0
 11 12  2  0
 12  2  1  0
 14 13  1  6
 14 16  1  0
 15 14  1  0
 15  9  1  0
 16 22  1  0
 17 16  2  0
 19 20  1  0
 19 18  1  1
 21 19  1  0
 21 22  1  1
 23 25  1  0
 23 21  1  0
 24 23  2  0
M  END
$$$$
