YAT.pdb
     RDKit          3D

 25 25  0  0  1  0  0  0  0  0999 V2000
   28.3615  -19.8330   -4.7969 O   0  0  0  0  0  0  0  0  0  0  0  0
   27.7861  -19.8889   -6.0638 C   0  0  0  0  0  0  0  0  0  0  0  0
   28.1024  -18.9450   -7.0274 C   0  0  0  0  0  0  0  0  0  0  0  0
   27.5357  -19.0017   -8.2754 C   0  0  0  0  0  0  0  0  0  0  0  0
   26.6302  -19.9867   -8.6402 C   0  0  0  0  0  0  0  0  0  0  0  0
   26.0263  -20.0236  -10.0051 C   0  0  0  0  0  0  0  0  0  0  0  0
   26.5103  -21.2744  -10.7087 C   0  0  2  0  0  0  0  0  0  0  0  0
   27.9555  -21.1567  -10.9315 N   0  0  0  0  0  0  0  0  0  0  0  0
   25.8694  -21.4712  -12.0149 C   0  0  0  0  0  0  0  0  0  0  0  0
   26.1665  -20.7231  -12.9928 O   0  0  0  0  0  0  0  0  0  0  0  0
   26.3177  -20.9263   -7.6750 C   0  0  0  0  0  0  0  0  0  0  0  0
   26.8883  -20.8722   -6.4147 C   0  0  0  0  0  0  0  0  0  0  0  0
   23.3803  -23.8427  -13.5613 C   0  0  0  0  0  0  0  0  0  0  0  0
   24.1540  -22.5244  -13.5287 C   0  0  2  0  0  0  0  0  0  0  0  0
   24.8933  -22.4805  -12.2929 N   0  0  0  0  0  0  0  0  0  0  0  0
   23.2583  -21.3649  -13.7009 C   0  0  0  0  0  0  0  0  0  0  0  0
   22.7701  -20.8070  -12.6746 O   0  0  0  0  0  0  0  0  0  0  0  0
   23.5105  -18.6462  -16.8645 C   0  0  0  0  0  0  0  0  0  0  0  0
   22.8029  -18.4525  -15.5669 C   0  0  1  0  0  0  0  0  0  0  0  0
   21.9371  -17.3683  -15.6842 O   0  0  0  0  0  0  0  0  0  0  0  0
   22.0289  -19.6779  -15.1332 C   0  0  2  0  0  0  0  0  0  0  0  0
   22.8986  -20.8220  -14.9549 N   0  0  0  0  0  0  0  0  0  0  0  0
   20.8561  -19.9790  -15.9594 C   0  0  0  0  0  0  0  0  0  0  0  0
   19.7600  -19.4057  -15.7658 O   0  0  0  0  0  0  0  0  0  0  0  0
   20.8682  -20.9129  -17.0095 O   0  0  0  0  0  0  0  0  0  0  0  0
  2  1  1  0
  3  2  2  0
  4  3  1  0
  5  4  2  0
  5 11  1  0
  6  5  1  0
  7  9  1  0
  7  6  1  0
  7  8  1  6
  9 10  2  0
 11 12  2  0
 12  2  1  0
 14 13  1  1
 14 16  1  0
 15 14  1  0
 15  9  1  0
 16 22  1  0
 17 16  2  0
 19 20  1  0
 19 18  1  6
 21 19  1  0
 21 22  1  6
 23 25  1  0
 23 21  1  0
 24 23  2  0
M  END
$$$$
