YAT.pdb
     RDKit          3D

 25 25  0  0  1  0  0  0  0  0999 V2000
   21.7624  -22.1953   -6.9924 O   0  0  0  0  0  0  0  0  0  0  0  0
   22.7096  -21.7185   -7.8950 C   0  0  0  0  0  0  0  0  0  0  0  0
   23.9902  -21.3981   -7.4744 C   0  0  0  0  0  0  0  0  0  0  0  0
   24.9228  -20.9294   -8.3646 C   0  0  0  0  0  0  0  0  0  0  0  0
   24.6455  -20.7513   -9.7117 C   0  0  0  0  0  0  0  0  0  0  0  0
   25.6788  -20.2372  -10.6589 C   0  0  0  0  0  0  0  0  0  0  0  0
   25.1548  -20.3965  -12.0709 C   0  0  2  0  0  0  0  0  0  0  0  0
   24.9726  -21.8262  -12.3442 N   0  0  0  0  0  0  0  0  0  0  0  0
   26.0779  -19.8610  -13.0793 C   0  0  0  0  0  0  0  0  0  0  0  0
   26.4965  -18.6686  -12.9946 O   0  0  0  0  0  0  0  0  0  0  0  0
   23.3661  -21.0725  -10.1266 C   0  0  0  0  0  0  0  0  0  0  0  0
   22.4228  -21.5461   -9.2307 C   0  0  0  0  0  0  0  0  0  0  0  0
   28.3262  -21.1737  -15.7302 C   0  0  0  0  0  0  0  0  0  0  0  0
   27.4736  -20.0356  -15.1685 C   0  0  2  0  0  0  0  0  0  0  0  0
   26.5686  -20.6021  -14.2012 N   0  0  0  0  0  0  0  0  0  0  0  0
   26.7774  -19.2989  -16.2404 C   0  0  0  0  0  0  0  0  0  0  0  0
   25.7428  -19.8069  -16.7641 O   0  0  0  0  0  0  0  0  0  0  0  0
   26.0358  -15.4219  -16.0795 C   0  0  0  0  0  0  0  0  0  0  0  0
   26.5512  -15.7826  -17.4309 C   0  0  1  0  0  0  0  0  0  0  0  0
   27.8756  -15.3651  -17.5333 O   0  0  0  0  0  0  0  0  0  0  0  0
   26.4613  -17.2658  -17.7153 C   0  0  2  0  0  0  0  0  0  0  0  0
   27.1917  -18.0417  -16.7347 N   0  0  0  0  0  0  0  0  0  0  0  0
   26.7881  -17.6404  -19.0943 C   0  0  0  0  0  0  0  0  0  0  0  0
   27.7681  -18.3754  -19.3534 O   0  0  0  0  0  0  0  0  0  0  0  0
   26.0454  -17.2146  -20.2088 O   0  0  0  0  0  0  0  0  0  0  0  0
  2  1  1  0
  3  2  2  0
  4  3  1  0
  5  4  2  0
  5 11  1  0
  6  5  1  0
  7  9  1  0
  7  6  1  0
  7  8  1  6
  9 10  2  0
 11 12  2  0
 12  2  1  0
 14 13  1  6
 14 16  1  0
 15 14  1  0
 15  9  1  0
 16 22  1  0
 17 16  2  0
 19 20  1  0
 19 18  1  1
 21 19  1  0
 21 22  1  1
 23 25  1  0
 23 21  1  0
 24 23  2  0
M  END
$$$$
