YAT.pdb
     RDKit          3D

 25 25  0  0  1  0  0  0  0  0999 V2000
   32.7886  -21.7016  -10.2915 O   0  0  0  0  0  0  0  0  0  0  0  0
   31.4771  -21.3680  -10.6200 C   0  0  0  0  0  0  0  0  0  0  0  0
   31.1250  -21.0870  -11.9302 C   0  0  0  0  0  0  0  0  0  0  0  0
   29.8326  -20.7594  -12.2529 C   0  0  0  0  0  0  0  0  0  0  0  0
   28.8212  -20.6907  -11.3065 C   0  0  0  0  0  0  0  0  0  0  0  0
   27.4229  -20.3292  -11.6847 C   0  0  0  0  0  0  0  0  0  0  0  0
   26.5882  -21.5929  -11.6947 C   0  0  2  0  0  0  0  0  0  0  0  0
   26.9877  -22.4088  -12.8466 N   0  0  0  0  0  0  0  0  0  0  0  0
   25.1509  -21.3190  -11.8156 C   0  0  0  0  0  0  0  0  0  0  0  0
   24.6034  -21.2648  -12.9564 O   0  0  0  0  0  0  0  0  0  0  0  0
   29.1777  -20.9719  -10.0004 C   0  0  0  0  0  0  0  0  0  0  0  0
   30.4811  -21.3033   -9.6715 C   0  0  0  0  0  0  0  0  0  0  0  0
   22.2766  -20.5283   -9.5060 C   0  0  0  0  0  0  0  0  0  0  0  0
   22.8512  -20.9325  -10.8639 C   0  0  2  0  0  0  0  0  0  0  0  0
   24.2737  -21.0977  -10.7063 N   0  0  0  0  0  0  0  0  0  0  0  0
   22.5014  -19.9568  -11.9136 C   0  0  0  0  0  0  0  0  0  0  0  0
   23.1041  -18.8438  -11.9442 O   0  0  0  0  0  0  0  0  0  0  0  0
   23.1411  -19.4434  -15.3269 C   0  0  0  0  0  0  0  0  0  0  0  0
   21.6539  -19.5200  -15.2618 C   0  0  1  0  0  0  0  0  0  0  0  0
   21.2527  -20.8000  -15.6354 O   0  0  0  0  0  0  0  0  0  0  0  0
   21.1104  -19.1967  -13.8874 C   0  0  2  0  0  0  0  0  0  0  0  0
   21.5216  -20.1798  -12.9069 N   0  0  0  0  0  0  0  0  0  0  0  0
   19.6699  -18.9272  -13.8522 C   0  0  0  0  0  0  0  0  0  0  0  0
   18.9088  -19.5591  -13.0847 O   0  0  0  0  0  0  0  0  0  0  0  0
   19.0433  -17.9613  -14.6580 O   0  0  0  0  0  0  0  0  0  0  0  0
  2  1  1  0
  3  2  2  0
  4  3  1  0
  5  4  2  0
  5 11  1  0
  6  5  1  0
  7  9  1  0
  7  6  1  0
  7  8  1  6
  9 10  2  0
 11 12  2  0
 12  2  1  0
 14 13  1  1
 14 16  1  0
 15 14  1  0
 15  9  1  0
 16 22  1  0
 17 16  2  0
 19 20  1  0
 19 18  1  1
 21 19  1  0
 21 22  1  1
 23 25  1  0
 23 21  1  0
 24 23  2  0
M  END
$$$$
