YAT.pdb
     RDKit          3D

 25 25  0  0  1  0  0  0  0  0999 V2000
   24.2736  -21.6530   -6.7285 O   0  0  0  0  0  0  0  0  0  0  0  0
   24.5112  -21.2257   -8.0325 C   0  0  0  0  0  0  0  0  0  0  0  0
   25.8038  -21.0115   -8.4829 C   0  0  0  0  0  0  0  0  0  0  0  0
   26.0367  -20.5915   -9.7679 C   0  0  0  0  0  0  0  0  0  0  0  0
   25.0134  -20.3603  -10.6749 C   0  0  0  0  0  0  0  0  0  0  0  0
   25.2949  -19.9010  -12.0673 C   0  0  0  0  0  0  0  0  0  0  0  0
   24.4678  -20.7357  -13.0227 C   0  0  2  0  0  0  0  0  0  0  0  0
   25.1289  -22.0326  -13.2043 N   0  0  0  0  0  0  0  0  0  0  0  0
   24.3322  -20.1120  -14.3450 C   0  0  0  0  0  0  0  0  0  0  0  0
   25.2590  -20.2197  -15.2014 O   0  0  0  0  0  0  0  0  0  0  0  0
   23.7252  -20.5754  -10.2205 C   0  0  0  0  0  0  0  0  0  0  0  0
   23.4868  -20.9997   -8.9244 C   0  0  0  0  0  0  0  0  0  0  0  0
   21.6313  -18.7926  -16.5018 C   0  0  0  0  0  0  0  0  0  0  0  0
   23.1005  -18.7643  -16.0799 C   0  0  2  0  0  0  0  0  0  0  0  0
   23.1922  -19.3583  -14.7706 N   0  0  0  0  0  0  0  0  0  0  0  0
   23.6528  -17.3971  -16.1278 C   0  0  0  0  0  0  0  0  0  0  0  0
   23.3812  -16.5910  -15.1901 O   0  0  0  0  0  0  0  0  0  0  0  0
   27.0223  -16.2164  -15.8006 C   0  0  0  0  0  0  0  0  0  0  0  0
   26.5598  -15.6235  -17.0877 C   0  0  1  0  0  0  0  0  0  0  0  0
   27.0934  -16.3621  -18.1406 O   0  0  0  0  0  0  0  0  0  0  0  0
   25.0521  -15.5838  -17.2059 C   0  0  2  0  0  0  0  0  0  0  0  0
   24.4793  -16.9132  -17.1666 N   0  0  0  0  0  0  0  0  0  0  0  0
   24.5519  -14.7825  -18.3269 C   0  0  0  0  0  0  0  0  0  0  0  0
   23.7908  -15.2759  -19.1900 O   0  0  0  0  0  0  0  0  0  0  0  0
   24.8791  -13.4293  -18.5178 O   0  0  0  0  0  0  0  0  0  0  0  0
  2  1  1  0
  3  2  2  0
  4  3  1  0
  5  4  2  0
  5 11  1  0
  6  5  1  0
  7  9  1  0
  7  6  1  0
  7  8  1  6
  9 10  2  0
 11 12  2  0
 12  2  1  0
 14 13  1  1
 14 16  1  0
 15 14  1  0
 15  9  1  0
 16 22  1  0
 17 16  2  0
 19 20  1  0
 19 18  1  1
 21 19  1  0
 21 22  1  6
 23 25  1  0
 23 21  1  0
 24 23  2  0
M  END
$$$$
