MMR.pdb
     RDKit          3D

 28 27  0  0  1  0  0  0  0  0999 V2000
    7.0132  -11.6914   19.1676 C   0  0  0  0  0  0  0  0  0  0  0  0
    6.7142  -13.1011   18.0435 S   0  0  0  0  0  0  0  0  0  0  0  0
    6.9765  -14.6207   18.9788 C   0  0  0  0  0  0  0  0  0  0  0  0
    7.5712  -14.2636   20.3054 C   0  0  0  0  0  0  0  0  0  0  0  0
    7.8525  -15.4757   21.1361 C   0  0  2  0  0  0  0  0  0  0  0  0
    6.7906  -16.4302   21.1425 N   0  0  0  0  0  0  0  0  0  0  0  0
    8.4657  -15.2011   22.4461 C   0  0  0  0  0  0  0  0  0  0  0  0
    9.6800  -14.7970   22.4828 O   0  0  0  0  0  0  0  0  0  0  0  0
    7.8467  -11.2822   27.5809 C   0  0  0  0  0  0  0  0  0  0  0  0
    6.4356  -12.0977   26.7628 S   0  0  0  0  0  0  0  0  0  0  0  0
    7.1155  -13.0643   25.3547 C   0  0  0  0  0  0  0  0  0  0  0  0
    7.9804  -14.1774   25.9111 C   0  0  0  0  0  0  0  0  0  0  0  0
    8.5635  -15.0940   24.9406 C   0  0  2  0  0  0  0  0  0  0  0  0
    7.8280  -15.3407   23.7182 N   0  0  0  0  0  0  0  0  0  0  0  0
    9.1576  -16.3567   25.5051 C   0  0  0  0  0  0  0  0  0  0  0  0
    8.4046  -17.1234   26.1006 O   0  0  0  0  0  0  0  0  0  0  0  0
   15.3848  -14.6584   21.9539 N   0  0  0  0  0  0  0  0  0  0  0  0
   14.1311  -15.2228   21.5244 C   0  0  0  0  0  0  0  0  0  0  0  0
   13.2518  -14.3615   21.0502 N   0  0  0  0  0  0  0  0  0  0  0  0
   13.8343  -16.5886   21.5999 N   0  0  0  0  0  0  0  0  0  0  0  0
   13.8082  -17.2786   22.8857 C   0  0  0  0  0  0  0  0  0  0  0  0
   12.3946  -17.2741   23.4928 C   0  0  0  0  0  0  0  0  0  0  0  0
   12.4584  -17.9357   24.8050 C   0  0  0  0  0  0  0  0  0  0  0  0
   11.2237  -17.8838   25.6709 C   0  0  2  0  0  0  0  0  0  0  0  0
   10.4993  -16.6866   25.3994 N   0  0  0  0  0  0  0  0  0  0  0  0
   11.3978  -18.3437   27.0287 C   0  0  0  0  0  0  0  0  0  0  0  0
   11.0643  -17.5573   27.9916 O   0  0  0  0  0  0  0  0  0  0  0  0
   11.8777  -19.5013   27.5395 O   0  0  0  0  0  0  0  0  0  0  0  0
  2  1  1  0
  3  2  1  0
  4  5  1  0
  4  3  1  0
  5  6  1  1
  7  8  2  0
  7  5  1  0
 10  9  1  0
 11 10  1  0
 11 12  1  0
 13 12  1  1
 13 14  1  0
 14  7  1  0
 15 25  1  0
 15 13  1  0
 16 15  2  0
 17 18  1  0
 18 20  1  0
 19 18  2  0
 20 21  1  0
 21 22  1  0
 22 23  1  0
 24 23  1  1
 24 25  1  0
 24 26  1  0
 26 28  1  0
 27 26  2  0
M  END
$$$$
