MMR.pdb
     RDKit          3D

 28 27  0  0  1  0  0  0  0  0999 V2000
    9.8258  -14.7940   28.9287 C   0  0  0  0  0  0  0  0  0  0  0  0
   10.4228  -15.9536   30.2091 S   0  0  0  0  0  0  0  0  0  0  0  0
   10.3350  -17.6219   29.5297 C   0  0  0  0  0  0  0  0  0  0  0  0
    8.9451  -17.8552   29.0247 C   0  0  0  0  0  0  0  0  0  0  0  0
    8.9182  -18.0784   27.5456 C   0  0  2  0  0  0  0  0  0  0  0  0
   10.2068  -18.2983   26.9713 N   0  0  0  0  0  0  0  0  0  0  0  0
    8.0378  -17.1663   26.7968 C   0  0  0  0  0  0  0  0  0  0  0  0
    6.8653  -17.5691   26.4777 O   0  0  0  0  0  0  0  0  0  0  0  0
    7.7853  -11.2382   26.0180 C   0  0  0  0  0  0  0  0  0  0  0  0
    6.7173  -12.5080   26.7748 S   0  0  0  0  0  0  0  0  0  0  0  0
    6.3434  -13.7451   25.4676 C   0  0  0  0  0  0  0  0  0  0  0  0
    7.6353  -14.0980   24.7583 C   0  0  0  0  0  0  0  0  0  0  0  0
    8.1673  -15.4319   25.0028 C   0  0  2  0  0  0  0  0  0  0  0  0
    8.3642  -15.8386   26.3782 N   0  0  0  0  0  0  0  0  0  0  0  0
    9.3124  -15.8533   24.1213 C   0  0  0  0  0  0  0  0  0  0  0  0
   10.4399  -15.8436   24.6092 O   0  0  0  0  0  0  0  0  0  0  0  0
    7.1052  -13.2165   16.3845 N   0  0  0  0  0  0  0  0  0  0  0  0
    7.3053  -13.2683   17.8100 C   0  0  0  0  0  0  0  0  0  0  0  0
    7.6336  -12.1253   18.3807 N   0  0  0  0  0  0  0  0  0  0  0  0
    7.1745  -14.4397   18.5649 N   0  0  0  0  0  0  0  0  0  0  0  0
    8.2875  -15.3749   18.6938 C   0  0  0  0  0  0  0  0  0  0  0  0
    8.3527  -15.9731   20.1097 C   0  0  0  0  0  0  0  0  0  0  0  0
    9.7689  -16.1167   20.4806 C   0  0  0  0  0  0  0  0  0  0  0  0
   10.0771  -16.7299   21.8245 C   0  0  2  0  0  0  0  0  0  0  0  0
    9.1610  -16.2343   22.7976 N   0  0  0  0  0  0  0  0  0  0  0  0
   11.4801  -16.8633   22.1390 C   0  0  0  0  0  0  0  0  0  0  0  0
   11.8840  -17.9497   22.6989 O   0  0  0  0  0  0  0  0  0  0  0  0
   12.5315  -16.0290   21.9664 O   0  0  0  0  0  0  0  0  0  0  0  0
  2  1  1  0
  3  2  1  0
  4  5  1  0
  4  3  1  0
  5  6  1  6
  7  8  2  0
  7  5  1  0
 10  9  1  0
 11 10  1  0
 11 12  1  0
 13 12  1  1
 13 14  1  0
 14  7  1  0
 15 25  1  0
 15 13  1  0
 16 15  2  0
 17 18  1  0
 18 20  1  0
 19 18  2  0
 20 21  1  0
 21 22  1  0
 22 23  1  0
 24 23  1  6
 24 25  1  0
 24 26  1  0
 26 28  1  0
 27 26  2  0
M  END
$$$$
