MMR.pdb
     RDKit          3D

 28 27  0  0  1  0  0  0  0  0999 V2000
    8.1783  -12.0245   18.8927 C   0  0  0  0  0  0  0  0  0  0  0  0
    7.7884  -13.4375   17.8010 S   0  0  0  0  0  0  0  0  0  0  0  0
    7.7389  -14.9260   18.8181 C   0  0  0  0  0  0  0  0  0  0  0  0
    8.5777  -14.6953   20.0364 C   0  0  0  0  0  0  0  0  0  0  0  0
    8.5453  -15.8664   20.9670 C   0  0  2  0  0  0  0  0  0  0  0  0
    7.5057  -16.8023   20.6811 N   0  0  0  0  0  0  0  0  0  0  0  0
    8.7243  -15.5329   22.3898 C   0  0  0  0  0  0  0  0  0  0  0  0
    9.8745  -15.1350   22.7871 O   0  0  0  0  0  0  0  0  0  0  0  0
    7.1059  -10.9414   26.6558 C   0  0  0  0  0  0  0  0  0  0  0  0
    6.4085  -12.4774   27.3488 S   0  0  0  0  0  0  0  0  0  0  0  0
    7.5105  -13.8525   26.8253 C   0  0  0  0  0  0  0  0  0  0  0  0
    7.2150  -14.1776   25.3749 C   0  0  0  0  0  0  0  0  0  0  0  0
    8.0198  -15.2291   24.7678 C   0  0  2  0  0  0  0  0  0  0  0  0
    7.7184  -15.6074   23.4033 N   0  0  0  0  0  0  0  0  0  0  0  0
    8.2975  -16.4270   25.6362 C   0  0  0  0  0  0  0  0  0  0  0  0
    7.3339  -17.0767   26.0347 O   0  0  0  0  0  0  0  0  0  0  0  0
   13.3729  -18.0745   21.2960 N   0  0  0  0  0  0  0  0  0  0  0  0
   11.9339  -18.0990   21.2378 C   0  0  0  0  0  0  0  0  0  0  0  0
   11.4060  -17.7880   20.0696 N   0  0  0  0  0  0  0  0  0  0  0  0
   11.1233  -18.4203   22.3327 N   0  0  0  0  0  0  0  0  0  0  0  0
   11.7113  -18.7682   23.6224 C   0  0  0  0  0  0  0  0  0  0  0  0
   10.6289  -19.1713   24.6386 C   0  0  0  0  0  0  0  0  0  0  0  0
   11.0533  -18.7052   25.9677 C   0  0  0  0  0  0  0  0  0  0  0  0
   10.0535  -17.9210   26.7817 C   0  0  2  0  0  0  0  0  0  0  0  0
    9.5709  -16.8206   26.0150 N   0  0  0  0  0  0  0  0  0  0  0  0
   10.3841  -17.7537   28.1774 C   0  0  0  0  0  0  0  0  0  0  0  0
   10.5300  -16.5597   28.6356 O   0  0  0  0  0  0  0  0  0  0  0  0
   10.5960  -18.6460   29.1724 O   0  0  0  0  0  0  0  0  0  0  0  0
  2  1  1  0
  3  2  1  0
  4  5  1  0
  4  3  1  0
  5  6  1  1
  7  8  2  0
  7  5  1  0
 10  9  1  0
 11 10  1  0
 11 12  1  0
 13 12  1  1
 13 14  1  0
 14  7  1  0
 15 25  1  0
 15 13  1  0
 16 15  2  0
 17 18  1  0
 18 20  1  0
 19 18  2  0
 20 21  1  0
 21 22  1  0
 22 23  1  0
 24 23  1  6
 24 25  1  0
 24 26  1  0
 26 28  1  0
 27 26  2  0
M  END
$$$$
