MMR.pdb
     RDKit          3D

 28 27  0  0  1  0  0  0  0  0999 V2000
    6.8429  -11.1928   27.5187 C   0  0  0  0  0  0  0  0  0  0  0  0
    5.7868  -12.4808   26.7663 S   0  0  0  0  0  0  0  0  0  0  0  0
    6.7874  -13.9670   26.5603 C   0  0  0  0  0  0  0  0  0  0  0  0
    5.9734  -14.9884   25.8288 C   0  0  0  0  0  0  0  0  0  0  0  0
    6.7350  -16.2575   25.6098 C   0  0  2  0  0  0  0  0  0  0  0  0
    7.4266  -16.7230   26.7689 N   0  0  0  0  0  0  0  0  0  0  0  0
    7.4973  -16.3140   24.3515 C   0  0  0  0  0  0  0  0  0  0  0  0
    7.1268  -17.1395   23.4458 O   0  0  0  0  0  0  0  0  0  0  0  0
    6.6574  -12.4090   19.6136 C   0  0  0  0  0  0  0  0  0  0  0  0
    8.2954  -13.1151   19.9931 S   0  0  0  0  0  0  0  0  0  0  0  0
    8.0703  -14.2652   21.4094 C   0  0  0  0  0  0  0  0  0  0  0  0
    9.4159  -14.8718   21.7525 C   0  0  0  0  0  0  0  0  0  0  0  0
    9.4376  -15.8230   22.8556 C   0  0  2  0  0  0  0  0  0  0  0  0
    8.6401  -15.5190   24.0250 N   0  0  0  0  0  0  0  0  0  0  0  0
   10.7907  -16.3706   23.2234 C   0  0  0  0  0  0  0  0  0  0  0  0
   11.2938  -15.9854   24.2759 O   0  0  0  0  0  0  0  0  0  0  0  0
    9.9738  -18.7344   19.3469 N   0  0  0  0  0  0  0  0  0  0  0  0
    9.3062  -19.7216   20.1558 C   0  0  0  0  0  0  0  0  0  0  0  0
    7.9898  -19.6420   20.1801 N   0  0  0  0  0  0  0  0  0  0  0  0
    9.9825  -20.7069   20.8844 N   0  0  0  0  0  0  0  0  0  0  0  0
   11.4404  -20.7745   20.8770 C   0  0  0  0  0  0  0  0  0  0  0  0
   12.0349  -20.1375   22.1449 C   0  0  0  0  0  0  0  0  0  0  0  0
   12.9355  -19.0504   21.7313 C   0  0  0  0  0  0  0  0  0  0  0  0
   12.8375  -17.7435   22.4792 C   0  0  2  0  0  0  0  0  0  0  0  0
   11.4948  -17.2671   22.4356 N   0  0  0  0  0  0  0  0  0  0  0  0
   13.9444  -16.8356   22.2902 C   0  0  0  0  0  0  0  0  0  0  0  0
   13.7521  -15.7677   21.5977 O   0  0  0  0  0  0  0  0  0  0  0  0
   15.2311  -16.8750   22.7073 O   0  0  0  0  0  0  0  0  0  0  0  0
  2  1  1  0
  3  2  1  0
  4  5  1  0
  4  3  1  0
  5  6  1  1
  7  8  2  0
  7  5  1  0
 10  9  1  0
 11 10  1  0
 11 12  1  0
 13 12  1  1
 13 14  1  0
 14  7  1  0
 15 25  1  0
 15 13  1  0
 16 15  2  0
 17 18  1  0
 18 20  1  0
 19 18  2  0
 20 21  1  0
 21 22  1  0
 22 23  1  0
 24 23  1  6
 24 25  1  0
 24 26  1  0
 26 28  1  0
 27 26  2  0
M  END
$$$$
