MMR.pdb
     RDKit          3D

 28 27  0  0  1  0  0  0  0  0999 V2000
    7.5386  -11.3305   26.5037 C   0  0  0  0  0  0  0  0  0  0  0  0
    5.8541  -11.9885   26.2391 S   0  0  0  0  0  0  0  0  0  0  0  0
    5.8110  -13.6742   26.8787 C   0  0  0  0  0  0  0  0  0  0  0  0
    6.9151  -14.4535   26.2347 C   0  0  0  0  0  0  0  0  0  0  0  0
    6.3940  -15.4470   25.2448 C   0  0  2  0  0  0  0  0  0  0  0  0
    5.5292  -16.4301   25.8142 N   0  0  0  0  0  0  0  0  0  0  0  0
    7.3947  -15.9577   24.2934 C   0  0  0  0  0  0  0  0  0  0  0  0
    7.8757  -17.1296   24.4785 O   0  0  0  0  0  0  0  0  0  0  0  0
    7.2329  -12.6264   18.3933 C   0  0  0  0  0  0  0  0  0  0  0  0
    8.7031  -13.3032   19.2336 S   0  0  0  0  0  0  0  0  0  0  0  0
    8.1229  -14.6748   20.3113 C   0  0  0  0  0  0  0  0  0  0  0  0
    9.3063  -15.1970   21.1008 C   0  0  0  0  0  0  0  0  0  0  0  0
    9.0100  -15.7997   22.3935 C   0  0  2  0  0  0  0  0  0  0  0  0
    7.8989  -15.2624   23.1502 N   0  0  0  0  0  0  0  0  0  0  0  0
   10.1989  -16.0922   23.2692 C   0  0  0  0  0  0  0  0  0  0  0  0
   10.6183  -15.1834   23.9817 O   0  0  0  0  0  0  0  0  0  0  0  0
   11.1757  -20.5768   30.0391 N   0  0  0  0  0  0  0  0  0  0  0  0
   12.4608  -20.0049   29.7292 C   0  0  0  0  0  0  0  0  0  0  0  0
   13.2475  -19.7784   30.7634 N   0  0  0  0  0  0  0  0  0  0  0  0
   12.8723  -19.6929   28.4282 N   0  0  0  0  0  0  0  0  0  0  0  0
   11.9355  -19.7587   27.3111 C   0  0  0  0  0  0  0  0  0  0  0  0
   12.5824  -19.2540   26.0098 C   0  0  0  0  0  0  0  0  0  0  0  0
   11.5388  -18.6031   25.2029 C   0  0  0  0  0  0  0  0  0  0  0  0
   11.9857  -17.7899   24.0129 C   0  0  2  0  0  0  0  0  0  0  0  0
   10.8448  -17.3177   23.3008 N   0  0  0  0  0  0  0  0  0  0  0  0
   13.1313  -18.3075   23.3022 C   0  0  0  0  0  0  0  0  0  0  0  0
   12.9398  -18.8974   22.1743 O   0  0  0  0  0  0  0  0  0  0  0  0
   14.4528  -18.3123   23.5933 O   0  0  0  0  0  0  0  0  0  0  0  0
  2  1  1  0
  3  2  1  0
  4  5  1  0
  4  3  1  0
  5  6  1  1
  7  8  2  0
  7  5  1  0
 10  9  1  0
 11 10  1  0
 11 12  1  0
 13 12  1  6
 13 14  1  0
 14  7  1  0
 15 25  1  0
 15 13  1  0
 16 15  2  0
 17 18  1  0
 18 20  1  0
 19 18  2  0
 20 21  1  0
 21 22  1  0
 22 23  1  0
 24 23  1  1
 24 25  1  0
 24 26  1  0
 26 28  1  0
 27 26  2  0
M  END
$$$$
