MMR.pdb
     RDKit          3D

 28 27  0  0  1  0  0  0  0  0999 V2000
    6.4105  -11.4292   17.5331 C   0  0  0  0  0  0  0  0  0  0  0  0
    7.9835  -11.8468   18.3648 S   0  0  0  0  0  0  0  0  0  0  0  0
    7.7584  -13.4198   19.2179 C   0  0  0  0  0  0  0  0  0  0  0  0
    9.0487  -13.7871   19.8823 C   0  0  0  0  0  0  0  0  0  0  0  0
    8.9121  -15.0132   20.7287 C   0  0  2  0  0  0  0  0  0  0  0  0
    7.8643  -15.8888   20.3115 N   0  0  0  0  0  0  0  0  0  0  0  0
    9.0021  -14.7785   22.1793 C   0  0  0  0  0  0  0  0  0  0  0  0
   10.0263  -14.1633   22.6393 O   0  0  0  0  0  0  0  0  0  0  0  0
    5.4570  -12.0116   26.3143 C   0  0  0  0  0  0  0  0  0  0  0  0
    5.9586  -13.2736   27.5314 S   0  0  0  0  0  0  0  0  0  0  0  0
    7.3948  -14.1705   26.8155 C   0  0  0  0  0  0  0  0  0  0  0  0
    7.1922  -14.2810   25.3177 C   0  0  0  0  0  0  0  0  0  0  0  0
    8.2635  -14.9166   24.5624 C   0  0  2  0  0  0  0  0  0  0  0  0
    8.0365  -15.1757   23.1563 N   0  0  0  0  0  0  0  0  0  0  0  0
    8.9525  -16.0687   25.2435 C   0  0  0  0  0  0  0  0  0  0  0  0
    8.3288  -16.6707   26.1141 O   0  0  0  0  0  0  0  0  0  0  0  0
   13.8983  -14.5220   22.0657 N   0  0  0  0  0  0  0  0  0  0  0  0
   13.6254  -15.4618   21.0089 C   0  0  0  0  0  0  0  0  0  0  0  0
   13.4207  -14.9347   19.8171 N   0  0  0  0  0  0  0  0  0  0  0  0
   13.5676  -16.8466   21.2043 N   0  0  0  0  0  0  0  0  0  0  0  0
   13.5537  -17.4123   22.5496 C   0  0  0  0  0  0  0  0  0  0  0  0
   12.3060  -16.9646   23.3304 C   0  0  0  0  0  0  0  0  0  0  0  0
   12.2878  -17.6826   24.6141 C   0  0  0  0  0  0  0  0  0  0  0  0
   11.1057  -17.4522   25.5232 C   0  0  2  0  0  0  0  0  0  0  0  0
   10.2457  -16.4706   24.9499 N   0  0  0  0  0  0  0  0  0  0  0  0
   11.4038  -17.4308   26.9359 C   0  0  0  0  0  0  0  0  0  0  0  0
   12.1086  -18.3879   27.4300 O   0  0  0  0  0  0  0  0  0  0  0  0
   11.0703  -16.5640   27.9201 O   0  0  0  0  0  0  0  0  0  0  0  0
  2  1  1  0
  3  2  1  0
  4  5  1  0
  4  3  1  0
  5  6  1  1
  7  8  2  0
  7  5  1  0
 10  9  1  0
 11 10  1  0
 11 12  1  0
 13 12  1  1
 13 14  1  0
 14  7  1  0
 15 25  1  0
 15 13  1  0
 16 15  2  0
 17 18  1  0
 18 20  1  0
 19 18  2  0
 20 21  1  0
 21 22  1  0
 22 23  1  0
 24 23  1  6
 24 25  1  0
 24 26  1  0
 26 28  1  0
 27 26  2  0
M  END
$$$$
