MMR.pdb
     RDKit          3D

 28 27  0  0  1  0  0  0  0  0999 V2000
    0.7645  -20.6606   21.9207 C   0  0  0  0  0  0  0  0  0  0  0  0
    1.9585  -19.3180   21.5858 S   0  0  0  0  0  0  0  0  0  0  0  0
    3.3749  -19.5512   22.6775 C   0  0  0  0  0  0  0  0  0  0  0  0
    4.3199  -18.4073   22.4783 C   0  0  0  0  0  0  0  0  0  0  0  0
    5.5320  -18.5260   23.3472 C   0  0  2  0  0  0  0  0  0  0  0  0
    5.2601  -19.0440   24.6497 N   0  0  0  0  0  0  0  0  0  0  0  0
    6.4429  -17.3703   23.3022 C   0  0  0  0  0  0  0  0  0  0  0  0
    6.8697  -16.9690   22.1639 O   0  0  0  0  0  0  0  0  0  0  0  0
    8.1232  -12.4842   27.2945 C   0  0  0  0  0  0  0  0  0  0  0  0
    6.5257  -12.3713   26.4220 S   0  0  0  0  0  0  0  0  0  0  0  0
    6.3979  -13.8520   25.3401 C   0  0  0  0  0  0  0  0  0  0  0  0
    7.7915  -14.4036   25.1165 C   0  0  0  0  0  0  0  0  0  0  0  0
    7.8960  -15.5773   24.2600 C   0  0  2  0  0  0  0  0  0  0  0  0
    6.9128  -16.6265   24.4293 N   0  0  0  0  0  0  0  0  0  0  0  0
    9.2832  -16.1305   24.0711 C   0  0  0  0  0  0  0  0  0  0  0  0
    9.7003  -16.9213   24.9138 O   0  0  0  0  0  0  0  0  0  0  0  0
    8.4885  -13.9075   18.4499 N   0  0  0  0  0  0  0  0  0  0  0  0
    9.3189  -12.8397   18.9444 C   0  0  0  0  0  0  0  0  0  0  0  0
    8.7717  -11.6395   18.9300 N   0  0  0  0  0  0  0  0  0  0  0  0
   10.6255  -13.0308   19.4087 N   0  0  0  0  0  0  0  0  0  0  0  0
   11.2780  -14.3311   19.2928 C   0  0  0  0  0  0  0  0  0  0  0  0
   10.7563  -15.3140   20.3552 C   0  0  0  0  0  0  0  0  0  0  0  0
   11.8183  -15.5147   21.3531 C   0  0  0  0  0  0  0  0  0  0  0  0
   11.4334  -16.1717   22.6558 C   0  0  2  0  0  0  0  0  0  0  0  0
   10.1088  -15.7852   23.0132 N   0  0  0  0  0  0  0  0  0  0  0  0
   12.4753  -16.2285   23.6541 C   0  0  0  0  0  0  0  0  0  0  0  0
   13.6377  -16.6578   23.3056 O   0  0  0  0  0  0  0  0  0  0  0  0
   12.4887  -15.9130   24.9699 O   0  0  0  0  0  0  0  0  0  0  0  0
  2  1  1  0
  3  2  1  0
  4  5  1  0
  4  3  1  0
  5  6  1  1
  7  8  2  0
  7  5  1  0
 10  9  1  0
 11 10  1  0
 11 12  1  0
 13 12  1  1
 13 14  1  0
 14  7  1  0
 15 25  1  0
 15 13  1  0
 16 15  2  0
 17 18  1  0
 18 20  1  0
 19 18  2  0
 20 21  1  0
 21 22  1  0
 22 23  1  0
 24 23  1  6
 24 25  1  0
 24 26  1  0
 26 28  1  0
 27 26  2  0
M  END
$$$$
