MMR.pdb
     RDKit          3D

 28 27  0  0  1  0  0  0  0  0999 V2000
    9.1110  -12.0555   19.1395 C   0  0  0  0  0  0  0  0  0  0  0  0
    7.4322  -12.7778   19.1230 S   0  0  0  0  0  0  0  0  0  0  0  0
    7.4980  -14.3523   19.9999 C   0  0  0  0  0  0  0  0  0  0  0  0
    8.8849  -14.5412   20.5309 C   0  0  0  0  0  0  0  0  0  0  0  0
    8.9662  -15.6906   21.4852 C   0  0  2  0  0  0  0  0  0  0  0  0
    8.0869  -16.7693   21.1659 N   0  0  0  0  0  0  0  0  0  0  0  0
    9.0164  -15.3134   22.9074 C   0  0  0  0  0  0  0  0  0  0  0  0
    9.9478  -14.5287   23.3019 O   0  0  0  0  0  0  0  0  0  0  0  0
    6.6589  -11.1136   26.3292 C   0  0  0  0  0  0  0  0  0  0  0  0
    6.1599  -12.4592   27.4545 S   0  0  0  0  0  0  0  0  0  0  0  0
    7.3340  -13.8480   27.1862 C   0  0  0  0  0  0  0  0  0  0  0  0
    7.2164  -14.3032   25.7455 C   0  0  0  0  0  0  0  0  0  0  0  0
    8.2257  -15.2432   25.2767 C   0  0  2  0  0  0  0  0  0  0  0  0
    8.1062  -15.7428   23.9231 N   0  0  0  0  0  0  0  0  0  0  0  0
    8.6123  -16.3284   26.2456 C   0  0  0  0  0  0  0  0  0  0  0  0
    8.7899  -16.0077   27.4182 O   0  0  0  0  0  0  0  0  0  0  0  0
   12.2247  -17.6624   20.5257 N   0  0  0  0  0  0  0  0  0  0  0  0
   12.9886  -18.8574   20.7769 C   0  0  0  0  0  0  0  0  0  0  0  0
   13.7531  -19.2640   19.7818 N   0  0  0  0  0  0  0  0  0  0  0  0
   12.9383  -19.5653   21.9833 N   0  0  0  0  0  0  0  0  0  0  0  0
   11.6836  -19.7086   22.7149 C   0  0  0  0  0  0  0  0  0  0  0  0
   11.7807  -19.0829   24.1170 C   0  0  0  0  0  0  0  0  0  0  0  0
   10.5230  -18.3695   24.3875 C   0  0  0  0  0  0  0  0  0  0  0  0
    9.9455  -18.4804   25.7772 C   0  0  2  0  0  0  0  0  0  0  0  0
    8.7891  -17.6537   25.8817 N   0  0  0  0  0  0  0  0  0  0  0  0
   10.9119  -18.5287   26.8491 C   0  0  0  0  0  0  0  0  0  0  0  0
   10.9228  -19.5588   27.6208 O   0  0  0  0  0  0  0  0  0  0  0  0
   11.8683  -17.6584   27.2476 O   0  0  0  0  0  0  0  0  0  0  0  0
  2  1  1  0
  3  2  1  0
  4  5  1  0
  4  3  1  0
  5  6  1  1
  7  8  2  0
  7  5  1  0
 10  9  1  0
 11 10  1  0
 11 12  1  0
 13 12  1  1
 13 14  1  0
 14  7  1  0
 15 25  1  0
 15 13  1  0
 16 15  2  0
 17 18  1  0
 18 20  1  0
 19 18  2  0
 20 21  1  0
 21 22  1  0
 22 23  1  0
 24 23  1  6
 24 25  1  0
 24 26  1  0
 26 28  1  0
 27 26  2  0
M  END
$$$$
