KMY.pdb
     RDKit          3D

 30 30  0  0  1  0  0  0  0  0999 V2000
   21.5200  -13.6507  -17.4811 N   0  0  0  0  0  0  0  0  0  0  0  0
   21.0224  -12.3415  -17.3687 C   0  0  1  0  0  0  0  0  0  0  0  0
   19.5471  -12.1395  -17.3384 C   0  0  0  0  0  0  0  0  0  0  0  0
   18.6780  -13.3060  -17.5719 C   0  0  0  0  0  0  0  0  0  0  0  0
   18.0140  -13.9484  -16.4083 C   0  0  0  0  0  0  0  0  0  0  0  0
   17.0100  -15.0012  -16.7788 C   0  0  0  0  0  0  0  0  0  0  0  0
   15.7633  -14.5196  -17.2535 N   0  0  0  0  0  0  0  0  0  0  0  0
   21.6514  -11.6217  -16.2177 C   0  0  0  0  0  0  0  0  0  0  0  0
   21.8529  -12.2399  -15.1269 O   0  0  0  0  0  0  0  0  0  0  0  0
   27.7494  -11.2134  -16.0843 C   0  0  0  0  0  0  0  0  0  0  0  0
   26.6447   -9.7813  -16.1159 S   0  0  0  0  0  0  0  0  0  0  0  0
   25.0005  -10.3261  -15.5178 C   0  0  0  0  0  0  0  0  0  0  0  0
   24.0443   -9.1766  -15.4708 C   0  0  0  0  0  0  0  0  0  0  0  0
   22.6736   -9.6141  -15.0985 C   0  0  2  0  0  0  0  0  0  0  0  0
   22.0438  -10.2820  -16.2536 N   0  0  0  0  0  0  0  0  0  0  0  0
   21.8073   -8.4629  -14.7894 C   0  0  0  0  0  0  0  0  0  0  0  0
   20.6502   -8.3353  -15.3320 O   0  0  0  0  0  0  0  0  0  0  0  0
   16.4023   -3.5747  -10.6670 O   0  0  0  0  0  0  0  0  0  0  0  0
   17.3225   -4.4576  -11.1983 C   0  0  0  0  0  0  0  0  0  0  0  0
   18.3140   -4.9269  -10.3594 C   0  0  0  0  0  0  0  0  0  0  0  0
   19.2281   -5.7958  -10.8635 C   0  0  0  0  0  0  0  0  0  0  0  0
   19.1583   -6.1957  -12.1901 C   0  0  0  0  0  0  0  0  0  0  0  0
   20.1744   -7.1191  -12.6838 C   0  0  0  0  0  0  0  0  0  0  0  0
   21.2187   -6.3992  -13.5492 C   0  0  2  0  0  0  0  0  0  0  0  0
   22.1794   -7.4416  -13.8847 N   0  0  0  0  0  0  0  0  0  0  0  0
   21.8061   -5.2969  -12.7829 C   0  0  0  0  0  0  0  0  0  0  0  0
   22.6773   -5.4574  -11.9112 O   0  0  0  0  0  0  0  0  0  0  0  0
   18.1718   -5.7271  -13.0205 C   0  0  0  0  0  0  0  0  0  0  0  0
   17.2482   -4.8479  -12.5075 C   0  0  0  0  0  0  0  0  0  0  0  0
   21.3836   -4.0003  -13.0263 O   0  0  0  0  0  0  0  0  0  0  0  0
  2  3  1  0
  2  1  1  1
  4  3  1  0
  4  5  1  0
  5  6  1  0
  6  7  1  0
  8  2  1  0
  9  8  2  0
 10 11  1  0
 12 13  1  0
 12 11  1  0
 14 13  1  6
 14 15  1  0
 15  8  1  0
 16 17  2  0
 16 14  1  0
 19 18  1  0
 20 19  2  0
 21 20  1  0
 22 21  2  0
 22 28  1  0
 24 23  1  1
 23 22  1  0
 24 25  1  0
 25 16  1  0
 26 24  1  0
 27 26  2  0
 28 29  2  0
 29 19  1  0
 30 26  1  0
M  END
$$$$
