KMY.pdb
     RDKit          3D

 30 30  0  0  1  0  0  0  0  0999 V2000
   23.1943  -17.9280  -16.8617 N   0  0  0  0  0  0  0  0  0  0  0  0
   22.7346  -19.1814  -17.2999 C   0  0  1  0  0  0  0  0  0  0  0  0
   23.4609  -19.8593  -18.4095 C   0  0  0  0  0  0  0  0  0  0  0  0
   23.2662  -19.3567  -19.7807 C   0  0  0  0  0  0  0  0  0  0  0  0
   22.8680  -20.3146  -20.8445 C   0  0  0  0  0  0  0  0  0  0  0  0
   22.7580  -19.7031  -22.2111 C   0  0  0  0  0  0  0  0  0  0  0  0
   22.4349  -20.6009  -23.2604 N   0  0  0  0  0  0  0  0  0  0  0  0
   22.5735  -20.1286  -16.1529 C   0  0  0  0  0  0  0  0  0  0  0  0
   22.3911  -21.3643  -16.3818 O   0  0  0  0  0  0  0  0  0  0  0  0
   23.7947  -21.8061   -8.5891 C   0  0  0  0  0  0  0  0  0  0  0  0
   24.1066  -20.6737   -9.9649 S   0  0  0  0  0  0  0  0  0  0  0  0
   23.0288  -21.1735  -11.3600 C   0  0  0  0  0  0  0  0  0  0  0  0
   23.2379  -20.2787  -12.5404 C   0  0  0  0  0  0  0  0  0  0  0  0
   22.4284  -20.7099  -13.7098 C   0  0  2  0  0  0  0  0  0  0  0  0
   22.6085  -19.7444  -14.8109 N   0  0  0  0  0  0  0  0  0  0  0  0
   20.9874  -20.6914  -13.4023 C   0  0  0  0  0  0  0  0  0  0  0  0
   20.3947  -19.6070  -13.0527 O   0  0  0  0  0  0  0  0  0  0  0  0
   17.5752  -18.2588  -18.1013 O   0  0  0  0  0  0  0  0  0  0  0  0
   17.6477  -19.2303  -17.1219 C   0  0  0  0  0  0  0  0  0  0  0  0
   18.6670  -20.1572  -17.2173 C   0  0  0  0  0  0  0  0  0  0  0  0
   18.7548  -21.1204  -16.2636 C   0  0  0  0  0  0  0  0  0  0  0  0
   17.8378  -21.1629  -15.2234 C   0  0  0  0  0  0  0  0  0  0  0  0
   17.9694  -22.2276  -14.2345 C   0  0  0  0  0  0  0  0  0  0  0  0
   18.7893  -21.7710  -13.0193 C   0  0  2  0  0  0  0  0  0  0  0  0
   20.1705  -21.8434  -13.4769 N   0  0  0  0  0  0  0  0  0  0  0  0
   18.5090  -22.6560  -11.8856 C   0  0  0  0  0  0  0  0  0  0  0  0
   19.3378  -23.4577  -11.4220 O   0  0  0  0  0  0  0  0  0  0  0  0
   16.8264  -20.2403  -15.1322 C   0  0  0  0  0  0  0  0  0  0  0  0
   16.7402  -19.2668  -16.0987 C   0  0  0  0  0  0  0  0  0  0  0  0
   17.2621  -22.6137  -11.2836 O   0  0  0  0  0  0  0  0  0  0  0  0
  2  3  1  0
  2  1  1  1
  4  3  1  0
  4  5  1  0
  5  6  1  0
  6  7  1  0
  8  2  1  0
  9  8  2  0
 10 11  1  0
 12 13  1  0
 12 11  1  0
 14 13  1  1
 14 15  1  0
 15  8  1  0
 16 17  2  0
 16 14  1  0
 19 18  1  0
 20 19  2  0
 21 20  1  0
 22 21  2  0
 22 28  1  0
 24 23  1  6
 23 22  1  0
 24 25  1  0
 25 16  1  0
 26 24  1  0
 27 26  2  0
 28 29  2  0
 29 19  1  0
 30 26  1  0
M  END
$$$$
