KMY.pdb
     RDKit          3D

 30 30  0  0  1  0  0  0  0  0999 V2000
   25.1441  -22.6447  -16.4289 N   0  0  0  0  0  0  0  0  0  0  0  0
   26.5422  -22.5876  -16.5571 C   0  0  1  0  0  0  0  0  0  0  0  0
   27.1227  -22.2193  -17.8784 C   0  0  0  0  0  0  0  0  0  0  0  0
   26.2304  -21.6328  -18.8936 C   0  0  0  0  0  0  0  0  0  0  0  0
   26.7394  -20.5208  -19.7375 C   0  0  0  0  0  0  0  0  0  0  0  0
   25.7424  -19.9983  -20.7308 C   0  0  0  0  0  0  0  0  0  0  0  0
   26.1573  -18.8671  -21.4790 N   0  0  0  0  0  0  0  0  0  0  0  0
   27.1482  -21.7349  -15.4874 C   0  0  0  0  0  0  0  0  0  0  0  0
   28.4106  -21.7004  -15.3538 O   0  0  0  0  0  0  0  0  0  0  0  0
   26.7596  -15.8828  -14.9674 C   0  0  0  0  0  0  0  0  0  0  0  0
   28.0076  -16.8076  -15.8945 S   0  0  0  0  0  0  0  0  0  0  0  0
   27.9972  -18.5348  -15.2828 C   0  0  0  0  0  0  0  0  0  0  0  0
   27.0720  -18.6801  -14.1163 C   0  0  0  0  0  0  0  0  0  0  0  0
   27.0486  -20.0739  -13.6009 C   0  0  2  0  0  0  0  0  0  0  0  0
   26.4082  -20.9525  -14.5984 N   0  0  0  0  0  0  0  0  0  0  0  0
   26.2184  -20.1848  -12.3886 C   0  0  0  0  0  0  0  0  0  0  0  0
   25.1693  -19.4608  -12.2310 O   0  0  0  0  0  0  0  0  0  0  0  0
   29.2876  -19.8745   -4.9887 O   0  0  0  0  0  0  0  0  0  0  0  0
   28.5227  -19.8267   -6.1381 C   0  0  0  0  0  0  0  0  0  0  0  0
   27.4120  -19.0060   -6.1314 C   0  0  0  0  0  0  0  0  0  0  0  0
   26.6474  -18.9457   -7.2523 C   0  0  0  0  0  0  0  0  0  0  0  0
   26.9828  -19.6943   -8.3711 C   0  0  0  0  0  0  0  0  0  0  0  0
   26.1184  -19.6035   -9.5431 C   0  0  0  0  0  0  0  0  0  0  0  0
   25.7616  -20.9930  -10.0903 C   0  0  2  0  0  0  0  0  0  0  0  0
   26.5093  -21.0849  -11.3372 N   0  0  0  0  0  0  0  0  0  0  0  0
   24.3111  -21.0817  -10.2785 C   0  0  0  0  0  0  0  0  0  0  0  0
   23.5020  -21.1511   -9.3377 O   0  0  0  0  0  0  0  0  0  0  0  0
   28.0870  -20.5086   -8.3739 C   0  0  0  0  0  0  0  0  0  0  0  0
   28.8589  -20.5675   -7.2381 C   0  0  0  0  0  0  0  0  0  0  0  0
   23.7926  -21.0899  -11.5630 O   0  0  0  0  0  0  0  0  0  0  0  0
  2  3  1  0
  2  1  1  6
  4  3  1  0
  4  5  1  0
  5  6  1  0
  6  7  1  0
  8  2  1  0
  9  8  2  0
 10 11  1  0
 12 13  1  0
 12 11  1  0
 14 13  1  6
 14 15  1  0
 15  8  1  0
 16 17  2  0
 16 14  1  0
 19 18  1  0
 20 19  2  0
 21 20  1  0
 22 21  2  0
 22 28  1  0
 24 23  1  6
 23 22  1  0
 24 25  1  0
 25 16  1  0
 26 24  1  0
 27 26  2  0
 28 29  2  0
 29 19  1  0
 30 26  1  0
M  END
$$$$
