KMY.pdb
     RDKit          3D

 30 30  0  0  1  0  0  0  0  0999 V2000
   27.3713  -18.6160  -14.3939 N   0  0  0  0  0  0  0  0  0  0  0  0
   27.3747  -19.9357  -14.8763 C   0  0  1  0  0  0  0  0  0  0  0  0
   28.5882  -20.4341  -15.5816 C   0  0  0  0  0  0  0  0  0  0  0  0
   29.0019  -19.7563  -16.8226 C   0  0  0  0  0  0  0  0  0  0  0  0
   29.0254  -18.2710  -16.8533 C   0  0  0  0  0  0  0  0  0  0  0  0
   29.4167  -17.6908  -18.1815 C   0  0  0  0  0  0  0  0  0  0  0  0
   28.4242  -17.7504  -19.1930 N   0  0  0  0  0  0  0  0  0  0  0  0
   26.9842  -20.9035  -13.8042 C   0  0  0  0  0  0  0  0  0  0  0  0
   26.8828  -22.1386  -14.0818 O   0  0  0  0  0  0  0  0  0  0  0  0
   27.6270  -19.4249   -7.7568 C   0  0  0  0  0  0  0  0  0  0  0  0
   28.8170  -20.6583   -8.3357 S   0  0  0  0  0  0  0  0  0  0  0  0
   28.2552  -21.2560   -9.9742 C   0  0  0  0  0  0  0  0  0  0  0  0
   26.7783  -21.0751  -10.1283 C   0  0  0  0  0  0  0  0  0  0  0  0
   26.3038  -21.5240  -11.4633 C   0  0  2  0  0  0  0  0  0  0  0  0
   26.7137  -20.5399  -12.4834 N   0  0  0  0  0  0  0  0  0  0  0  0
   24.8321  -21.5645  -11.5250 C   0  0  0  0  0  0  0  0  0  0  0  0
   24.1520  -22.3065  -10.7272 O   0  0  0  0  0  0  0  0  0  0  0  0
   16.5527  -19.3303  -12.4505 O   0  0  0  0  0  0  0  0  0  0  0  0
   17.9334  -19.3723  -12.4662 C   0  0  0  0  0  0  0  0  0  0  0  0
   18.5778  -19.6140  -11.2689 C   0  0  0  0  0  0  0  0  0  0  0  0
   19.9352  -19.6591  -11.2642 C   0  0  0  0  0  0  0  0  0  0  0  0
   20.6474  -19.4656  -12.4389 C   0  0  0  0  0  0  0  0  0  0  0  0
   22.1043  -19.5094  -12.3744 C   0  0  0  0  0  0  0  0  0  0  0  0
   22.6312  -20.9475  -12.4838 C   0  0  2  0  0  0  0  0  0  0  0  0
   24.0797  -20.7975  -12.4447 N   0  0  0  0  0  0  0  0  0  0  0  0
   22.1457  -21.5478  -13.7292 C   0  0  0  0  0  0  0  0  0  0  0  0
   22.7223  -21.4167  -14.8223 O   0  0  0  0  0  0  0  0  0  0  0  0
   20.0036  -19.2256  -13.6265 C   0  0  0  0  0  0  0  0  0  0  0  0
   18.6298  -19.1807  -13.6281 C   0  0  0  0  0  0  0  0  0  0  0  0
   20.9859  -22.3050  -13.7106 O   0  0  0  0  0  0  0  0  0  0  0  0
  2  3  1  0
  2  1  1  1
  4  3  1  0
  4  5  1  0
  5  6  1  0
  6  7  1  0
  8  2  1  0
  9  8  2  0
 10 11  1  0
 12 13  1  0
 12 11  1  0
 14 13  1  1
 14 15  1  0
 15  8  1  0
 16 17  2  0
 16 14  1  0
 19 18  1  0
 20 19  2  0
 21 20  1  0
 22 21  2  0
 22 28  1  0
 24 23  1  6
 23 22  1  0
 24 25  1  0
 25 16  1  0
 26 24  1  0
 27 26  2  0
 28 29  2  0
 29 19  1  0
 30 26  1  0
M  END
$$$$
