KMY.pdb
     RDKit          3D

 30 30  0  0  1  0  0  0  0  0999 V2000
   28.0108  -19.3094  -17.6248 N   0  0  0  0  0  0  0  0  0  0  0  0
   27.6468  -18.7913  -16.3704 C   0  0  1  0  0  0  0  0  0  0  0  0
   26.3595  -18.0518  -16.2507 C   0  0  0  0  0  0  0  0  0  0  0  0
   26.0799  -16.9762  -17.2179 C   0  0  0  0  0  0  0  0  0  0  0  0
   24.7862  -16.2509  -17.1278 C   0  0  0  0  0  0  0  0  0  0  0  0
   24.5697  -15.2443  -18.2203 C   0  0  0  0  0  0  0  0  0  0  0  0
   25.2094  -15.5305  -19.4535 N   0  0  0  0  0  0  0  0  0  0  0  0
   27.7220  -19.8433  -15.3092 C   0  0  0  0  0  0  0  0  0  0  0  0
   27.2724  -21.0068  -15.5474 O   0  0  0  0  0  0  0  0  0  0  0  0
   31.9452  -23.0369   -9.8584 C   0  0  0  0  0  0  0  0  0  0  0  0
   31.3320  -21.4315  -10.4234 S   0  0  0  0  0  0  0  0  0  0  0  0
   29.9391  -21.7350  -11.5746 C   0  0  0  0  0  0  0  0  0  0  0  0
   29.3354  -20.4446  -12.0306 C   0  0  0  0  0  0  0  0  0  0  0  0
   28.2165  -20.6652  -12.9837 C   0  0  2  0  0  0  0  0  0  0  0  0
   28.2641  -19.6353  -14.0392 N   0  0  0  0  0  0  0  0  0  0  0  0
   26.9089  -20.4945  -12.3264 C   0  0  0  0  0  0  0  0  0  0  0  0
   26.5906  -19.3902  -11.7529 O   0  0  0  0  0  0  0  0  0  0  0  0
   27.5603  -20.3198   -5.8426 O   0  0  0  0  0  0  0  0  0  0  0  0
   26.9290  -20.2073   -7.0661 C   0  0  0  0  0  0  0  0  0  0  0  0
   26.1313  -21.2593   -7.4714 C   0  0  0  0  0  0  0  0  0  0  0  0
   25.5022  -21.1672   -8.6715 C   0  0  0  0  0  0  0  0  0  0  0  0
   25.6636  -20.0394   -9.4632 C   0  0  0  0  0  0  0  0  0  0  0  0
   24.9768  -19.9989  -10.7499 C   0  0  0  0  0  0  0  0  0  0  0  0
   24.8197  -21.4034  -11.3502 C   0  0  2  0  0  0  0  0  0  0  0  0
   25.9285  -21.5131  -12.2887 N   0  0  0  0  0  0  0  0  0  0  0  0
   23.5068  -21.5119  -11.9917 C   0  0  0  0  0  0  0  0  0  0  0  0
   23.3537  -21.6715  -13.2146 O   0  0  0  0  0  0  0  0  0  0  0  0
   26.4570  -18.9963   -9.0572 C   0  0  0  0  0  0  0  0  0  0  0  0
   27.0923  -19.0924   -7.8421 C   0  0  0  0  0  0  0  0  0  0  0  0
   22.3630  -21.4356  -11.2139 O   0  0  0  0  0  0  0  0  0  0  0  0
  2  3  1  0
  2  1  1  6
  4  3  1  0
  4  5  1  0
  5  6  1  0
  6  7  1  0
  8  2  1  0
  9  8  2  0
 10 11  1  0
 12 13  1  0
 12 11  1  0
 14 13  1  1
 14 15  1  0
 15  8  1  0
 16 17  2  0
 16 14  1  0
 19 18  1  0
 20 19  2  0
 21 20  1  0
 22 21  2  0
 22 28  1  0
 24 23  1  6
 23 22  1  0
 24 25  1  0
 25 16  1  0
 26 24  1  0
 27 26  2  0
 28 29  2  0
 29 19  1  0
 30 26  1  0
M  END
$$$$
