KMY.pdb
     RDKit          3D

 30 30  0  0  1  0  0  0  0  0999 V2000
   27.8424  -20.2100  -15.0890 N   0  0  0  0  0  0  0  0  0  0  0  0
   26.9387  -21.2647  -15.3016 C   0  0  1  0  0  0  0  0  0  0  0  0
   27.4298  -22.5004  -15.9726 C   0  0  0  0  0  0  0  0  0  0  0  0
   27.9546  -22.3879  -17.3447 C   0  0  0  0  0  0  0  0  0  0  0  0
   28.0779  -21.0390  -17.9556 C   0  0  0  0  0  0  0  0  0  0  0  0
   28.5261  -21.0529  -19.3883 C   0  0  0  0  0  0  0  0  0  0  0  0
   29.9133  -21.2648  -19.5948 N   0  0  0  0  0  0  0  0  0  0  0  0
   26.2272  -21.6292  -14.0369 C   0  0  0  0  0  0  0  0  0  0  0  0
   25.4082  -22.5998  -14.0362 O   0  0  0  0  0  0  0  0  0  0  0  0
   28.1616  -20.6864   -8.0251 C   0  0  0  0  0  0  0  0  0  0  0  0
   26.3922  -20.5225   -7.6859 S   0  0  0  0  0  0  0  0  0  0  0  0
   25.4806  -21.0680   -9.1788 C   0  0  0  0  0  0  0  0  0  0  0  0
   26.3019  -20.8547  -10.4108 C   0  0  0  0  0  0  0  0  0  0  0  0
   25.5653  -21.2485  -11.6401 C   0  0  2  0  0  0  0  0  0  0  0  0
   26.4003  -20.9621  -12.8223 N   0  0  0  0  0  0  0  0  0  0  0  0
   24.3443  -20.4426  -11.8164 C   0  0  0  0  0  0  0  0  0  0  0  0
   24.4070  -19.1886  -12.0866 O   0  0  0  0  0  0  0  0  0  0  0  0
   18.5150  -19.0107  -17.5612 O   0  0  0  0  0  0  0  0  0  0  0  0
   19.5024  -19.3640  -16.6619 C   0  0  0  0  0  0  0  0  0  0  0  0
   19.6772  -20.7091  -16.4024 C   0  0  0  0  0  0  0  0  0  0  0  0
   20.6431  -21.0761  -15.5210 C   0  0  0  0  0  0  0  0  0  0  0  0
   21.4294  -20.1153  -14.9019 C   0  0  0  0  0  0  0  0  0  0  0  0
   22.4423  -20.5638  -13.9523 C   0  0  0  0  0  0  0  0  0  0  0  0
   21.9624  -20.4123  -12.5016 C   0  0  2  0  0  0  0  0  0  0  0  0
   23.0427  -20.9855  -11.7100 N   0  0  0  0  0  0  0  0  0  0  0  0
   20.6884  -21.1171  -12.3368 C   0  0  0  0  0  0  0  0  0  0  0  0
   19.5977  -20.5367  -12.2022 O   0  0  0  0  0  0  0  0  0  0  0  0
   21.2526  -18.7799  -15.1622 C   0  0  0  0  0  0  0  0  0  0  0  0
   20.2744  -18.4115  -16.0547 C   0  0  0  0  0  0  0  0  0  0  0  0
   20.6752  -22.5023  -12.3277 O   0  0  0  0  0  0  0  0  0  0  0  0
  2  3  1  0
  2  1  1  1
  4  3  1  0
  4  5  1  0
  5  6  1  0
  6  7  1  0
  8  2  1  0
  9  8  2  0
 10 11  1  0
 12 13  1  0
 12 11  1  0
 14 13  1  1
 14 15  1  0
 15  8  1  0
 16 17  2  0
 16 14  1  0
 19 18  1  0
 20 19  2  0
 21 20  1  0
 22 21  2  0
 22 28  1  0
 24 23  1  6
 23 22  1  0
 24 25  1  0
 25 16  1  0
 26 24  1  0
 27 26  2  0
 28 29  2  0
 29 19  1  0
 30 26  1  0
M  END
$$$$
