VNP.pdb
     RDKit          3D

 23 23  0  0  1  0  0  0  0  0999 V2000
   45.3425  -15.9820  -15.4740 C   0  0  0  0  0  0  0  0  0  0  0  0
   45.1398  -15.9383  -13.9920 C   0  0  2  0  0  0  0  0  0  0  0  0
   46.4190  -16.2874  -13.2569 C   0  0  0  0  0  0  0  0  0  0  0  0
   44.0768  -16.8903  -13.5089 C   0  0  2  0  0  0  0  0  0  0  0  0
   42.7832  -16.5044  -14.0236 N   0  0  0  0  0  0  0  0  0  0  0  0
   43.9721  -16.8903  -12.0166 C   0  0  0  0  0  0  0  0  0  0  0  0
   43.3539  -16.0115  -11.3855 O   0  0  0  0  0  0  0  0  0  0  0  0
   42.5698  -20.8259  -10.3035 N   0  0  0  0  0  0  0  0  0  0  0  0
   43.0787  -19.8076   -9.4417 C   0  0  0  0  0  0  0  0  0  0  0  0
   42.2528  -19.2356   -8.6984 O   0  0  0  0  0  0  0  0  0  0  0  0
   44.5211  -19.5063   -9.4878 C   0  0  0  0  0  0  0  0  0  0  0  0
   44.7093  -18.0279   -9.8746 C   0  0  2  0  0  0  0  0  0  0  0  0
   44.6239  -17.9605  -11.3432 N   0  0  0  0  0  0  0  0  0  0  0  0
   46.0511  -17.5916   -9.4314 C   0  0  0  0  0  0  0  0  0  0  0  0
   47.0416  -17.8977  -10.1413 O   0  0  0  0  0  0  0  0  0  0  0  0
   46.2726  -16.8470   -8.2515 N   0  0  0  0  0  0  0  0  0  0  0  0
   45.2490  -16.4814   -7.2556 C   0  0  0  0  0  0  0  0  0  0  0  0
   45.7160  -15.1497   -6.7384 C   0  0  0  0  0  0  0  0  0  0  0  0
   47.0433  -14.8685   -7.3749 C   0  0  0  0  0  0  0  0  0  0  0  0
   47.4952  -16.2626   -7.7535 C   0  0  1  0  0  0  0  0  0  0  0  0
   47.9890  -17.0246   -6.5461 C   0  0  0  0  0  0  0  0  0  0  0  0
   47.1970  -17.9931   -5.9656 O   0  0  0  0  0  0  0  0  0  0  0  0
   49.1068  -16.8051   -6.0494 O   0  0  0  0  0  0  0  0  0  0  0  0
  2  1  1  6
  2  3  1  0
  4  2  1  0
  4  6  1  0
  4  5  1  6
  6  7  2  0
  8  9  1  0
  9 11  1  0
 10  9  2  0
 12 11  1  6
 12 14  1  0
 13  6  1  0
 13 12  1  0
 14 15  2  0
 16 14  1  0
 16 20  1  0
 17 16  1  0
 18 19  1  0
 18 17  1  0
 19 20  1  0
 20 21  1  1
 21 23  2  0
 21 22  1  0
M  END
$$$$
