VNP.pdb
     RDKit          3D

 23 23  0  0  1  0  0  0  0  0999 V2000
   19.5757  -13.1996  -17.8684 C   0  0  0  0  0  0  0  0  0  0  0  0
   20.7156  -12.8058  -18.7544 C   0  0  2  0  0  0  0  0  0  0  0  0
   21.6288  -13.9857  -19.0237 C   0  0  0  0  0  0  0  0  0  0  0  0
   21.5688  -11.7083  -18.1734 C   0  0  2  0  0  0  0  0  0  0  0  0
   22.2310  -12.1664  -16.9739 N   0  0  0  0  0  0  0  0  0  0  0  0
   20.7505  -10.5150  -17.7935 C   0  0  0  0  0  0  0  0  0  0  0  0
   20.0763   -9.8707  -18.6200 O   0  0  0  0  0  0  0  0  0  0  0  0
   17.1215   -7.8914  -14.7412 N   0  0  0  0  0  0  0  0  0  0  0  0
   18.4247   -8.2361  -14.2707 C   0  0  0  0  0  0  0  0  0  0  0  0
   18.9146   -7.5032  -13.3848 O   0  0  0  0  0  0  0  0  0  0  0  0
   19.0917   -9.4146  -14.8535 C   0  0  0  0  0  0  0  0  0  0  0  0
   20.1016   -8.9414  -15.9151 C   0  0  2  0  0  0  0  0  0  0  0  0
   20.7808  -10.1466  -16.4198 N   0  0  0  0  0  0  0  0  0  0  0  0
   21.0851   -8.0484  -15.2653 C   0  0  0  0  0  0  0  0  0  0  0  0
   22.0022   -8.5691  -14.5821 O   0  0  0  0  0  0  0  0  0  0  0  0
   21.0449   -6.6407  -15.3769 N   0  0  0  0  0  0  0  0  0  0  0  0
   19.9722   -5.8547  -16.0131 C   0  0  0  0  0  0  0  0  0  0  0  0
   20.6940   -4.6682  -16.5879 C   0  0  0  0  0  0  0  0  0  0  0  0
   22.1254   -4.7690  -16.1553 C   0  0  0  0  0  0  0  0  0  0  0  0
   22.0081   -5.6594  -14.9369 C   0  0  1  0  0  0  0  0  0  0  0  0
   21.4743   -4.8938  -13.7489 C   0  0  0  0  0  0  0  0  0  0  0  0
   22.3080   -4.0673  -13.0250 O   0  0  0  0  0  0  0  0  0  0  0  0
   20.2863   -4.9844  -13.3957 O   0  0  0  0  0  0  0  0  0  0  0  0
  2  1  1  1
  2  3  1  0
  4  2  1  0
  4  6  1  0
  4  5  1  1
  6  7  2  0
  8  9  1  0
  9 11  1  0
 10  9  2  0
 12 11  1  1
 12 14  1  0
 13  6  1  0
 13 12  1  0
 14 15  2  0
 16 14  1  0
 16 20  1  0
 17 16  1  0
 18 19  1  0
 18 17  1  0
 19 20  1  0
 20 21  1  1
 21 23  2  0
 21 22  1  0
M  END
$$$$
