VNP.pdb
     RDKit          3D

 23 23  0  0  1  0  0  0  0  0999 V2000
   15.4406  -12.9583  -17.4406 C   0  0  0  0  0  0  0  0  0  0  0  0
   16.1563  -13.8783  -16.5021 C   0  0  2  0  0  0  0  0  0  0  0  0
   15.1744  -14.6679  -15.6589 C   0  0  0  0  0  0  0  0  0  0  0  0
   17.0785  -13.1593  -15.5522 C   0  0  2  0  0  0  0  0  0  0  0  0
   16.3229  -12.5426  -14.4863 N   0  0  0  0  0  0  0  0  0  0  0  0
   17.8376  -12.0683  -16.2388 C   0  0  0  0  0  0  0  0  0  0  0  0
   18.5220  -12.2655  -17.2614 O   0  0  0  0  0  0  0  0  0  0  0  0
   15.6132   -9.3648  -18.5833 N   0  0  0  0  0  0  0  0  0  0  0  0
   16.9687   -9.1211  -18.2067 C   0  0  0  0  0  0  0  0  0  0  0  0
   17.8351   -9.2746  -19.0942 O   0  0  0  0  0  0  0  0  0  0  0  0
   17.2480   -8.7115  -16.8183 C   0  0  0  0  0  0  0  0  0  0  0  0
   18.3794   -9.5921  -16.2569 C   0  0  2  0  0  0  0  0  0  0  0  0
   17.7378  -10.7740  -15.6570 N   0  0  0  0  0  0  0  0  0  0  0  0
   19.0970   -8.8290  -15.2129 C   0  0  0  0  0  0  0  0  0  0  0  0
   18.5566   -8.7098  -14.0848 O   0  0  0  0  0  0  0  0  0  0  0  0
   20.3594   -8.2302  -15.4216 N   0  0  0  0  0  0  0  0  0  0  0  0
   21.0753   -8.1492  -16.7077 C   0  0  0  0  0  0  0  0  0  0  0  0
   22.5240   -8.2179  -16.3130 C   0  0  0  0  0  0  0  0  0  0  0  0
   22.5750   -8.2173  -14.8152 C   0  0  0  0  0  0  0  0  0  0  0  0
   21.2395   -7.5940  -14.4703 C   0  0  1  0  0  0  0  0  0  0  0  0
   21.2600   -6.0995  -14.6901 C   0  0  0  0  0  0  0  0  0  0  0  0
   21.8124   -5.2662  -13.7400 O   0  0  0  0  0  0  0  0  0  0  0  0
   20.7880   -5.5855  -15.7184 O   0  0  0  0  0  0  0  0  0  0  0  0
  2  1  1  1
  2  3  1  0
  4  2  1  0
  4  6  1  0
  4  5  1  1
  6  7  2  0
  8  9  1  0
  9 11  1  0
 10  9  2  0
 12 11  1  1
 12 14  1  0
 13  6  1  0
 13 12  1  0
 14 15  2  0
 16 14  1  0
 16 20  1  0
 17 16  1  0
 18 19  1  0
 18 17  1  0
 19 20  1  0
 20 21  1  6
 21 23  2  0
 21 22  1  0
M  END
$$$$
