VNP.pdb
     RDKit          3D

 23 23  0  0  1  0  0  0  0  0999 V2000
   28.0697  -20.6725   -4.5094 C   0  0  0  0  0  0  0  0  0  0  0  0
   28.9975  -19.7859   -5.2792 C   0  0  2  0  0  0  0  0  0  0  0  0
   29.5655  -18.6933   -4.3948 C   0  0  0  0  0  0  0  0  0  0  0  0
   28.3367  -19.1087   -6.4516 C   0  0  2  0  0  0  0  0  0  0  0  0
   27.2292  -18.2955   -6.0052 N   0  0  0  0  0  0  0  0  0  0  0  0
   27.7862  -20.1022   -7.4251 C   0  0  0  0  0  0  0  0  0  0  0  0
   28.4043  -21.1318   -7.7580 O   0  0  0  0  0  0  0  0  0  0  0  0
   23.3793  -20.9747   -6.4700 N   0  0  0  0  0  0  0  0  0  0  0  0
   24.2636  -21.4895   -7.4657 C   0  0  0  0  0  0  0  0  0  0  0  0
   24.8608  -22.5526   -7.1918 O   0  0  0  0  0  0  0  0  0  0  0  0
   24.4086  -20.7428   -8.7286 C   0  0  0  0  0  0  0  0  0  0  0  0
   25.9069  -20.5975   -9.0525 C   0  0  2  0  0  0  0  0  0  0  0  0
   26.5013  -19.8086   -7.9604 N   0  0  0  0  0  0  0  0  0  0  0  0
   26.0443  -19.8656  -10.3301 C   0  0  0  0  0  0  0  0  0  0  0  0
   25.8964  -18.6178  -10.3207 O   0  0  0  0  0  0  0  0  0  0  0  0
   26.3352  -20.5000  -11.5585 N   0  0  0  0  0  0  0  0  0  0  0  0
   26.4787  -21.9521  -11.7683 C   0  0  0  0  0  0  0  0  0  0  0  0
   27.5057  -22.0535  -12.8610 C   0  0  0  0  0  0  0  0  0  0  0  0
   27.8168  -20.6569  -13.3069 C   0  0  0  0  0  0  0  0  0  0  0  0
   26.5765  -19.9154  -12.8563 C   0  0  1  0  0  0  0  0  0  0  0  0
   25.4117  -20.1852  -13.7798 C   0  0  0  0  0  0  0  0  0  0  0  0
   24.3833  -21.0108  -13.3759 O   0  0  0  0  0  0  0  0  0  0  0  0
   25.3469  -19.6778  -14.9123 O   0  0  0  0  0  0  0  0  0  0  0  0
  2  1  1  1
  2  3  1  0
  4  2  1  0
  4  6  1  0
  4  5  1  1
  6  7  2  0
  8  9  1  0
  9 11  1  0
 10  9  2  0
 12 11  1  1
 12 14  1  0
 13  6  1  0
 13 12  1  0
 14 15  2  0
 16 14  1  0
 16 20  1  0
 17 16  1  0
 18 19  1  0
 18 17  1  0
 19 20  1  0
 20 21  1  6
 21 23  2  0
 21 22  1  0
M  END
$$$$
