VNP.pdb
     RDKit          3D

 23 23  0  0  1  0  0  0  0  0999 V2000
3291100.000020120922.0000-12783036.0000 C   0  0  0  0  0  0  0  0  0  0  0  0
3291102.500020120926.0000-12783040.0000 C   0  0  1  0  0  0  0  0  0  0  0  0
3291100.250020120924.0000-12783036.0000 C   0  0  0  0  0  0  0  0  0  0  0  0
3291102.750020120922.0000-12783038.0000 C   0  0  1  0  0  0  0  0  0  0  0  0
3291104.750020120922.0000-12783037.0000 N   0  0  0  0  0  0  0  0  0  0  0  0
3291102.000020120926.0000-12783039.0000 C   0  0  0  0  0  0  0  0  0  0  0  0
3291100.750020120926.0000-12783038.0000 O   0  0  0  0  0  0  0  0  0  0  0  0
3291099.750020120926.0000-12783034.0000 N   0  0  0  0  0  0  0  0  0  0  0  0
3291101.500020120926.0000-12783035.0000 C   0  0  0  0  0  0  0  0  0  0  0  0
3291102.500020120926.0000-12783037.0000 O   0  0  0  0  0  0  0  0  0  0  0  0
3291100.250020120926.0000-12783037.0000 C   0  0  0  0  0  0  0  0  0  0  0  0
3291101.500020120928.0000-12783040.0000 C   0  0  2  0  0  0  0  0  0  0  0  0
3291101.750020120928.0000-12783040.0000 N   0  0  0  0  0  0  0  0  0  0  0  0
3291102.250020120930.0000-12783037.0000 C   0  0  0  0  0  0  0  0  0  0  0  0
3291101.750020120930.0000-12783037.0000 O   0  0  0  0  0  0  0  0  0  0  0  0
3291104.000020120930.0000-12783039.0000 N   0  0  0  0  0  0  0  0  0  0  0  0
3291104.000020120930.0000-12783039.0000 C   0  0  0  0  0  0  0  0  0  0  0  0
3291106.000020120932.0000-12783036.0000 C   0  0  0  0  0  0  0  0  0  0  0  0
3291106.000020120932.0000-12783036.0000 C   0  0  0  0  0  0  0  0  0  0  0  0
3291104.750020120930.0000-12783037.0000 C   0  0  1  0  0  0  0  0  0  0  0  0
3291103.250020120932.0000-12783039.0000 C   0  0  0  0  0  0  0  0  0  0  0  0
3291100.750020120934.0000-12783040.0000 O   0  0  0  0  0  0  0  0  0  0  0  0
3291104.000020120932.0000-12783037.0000 O   0  0  0  0  0  0  0  0  0  0  0  0
  2  1  1  1
  2  3  1  0
  4  2  1  0
  4  6  1  0
  4  5  1  6
  6  7  2  0
  8  9  1  0
  9 11  1  0
 10  9  2  0
 12 11  1  1
 12 14  1  0
 13  6  1  0
 13 12  1  0
 14 15  2  0
 16 14  1  0
 16 20  1  0
 17 16  1  0
 18 19  1  0
 18 17  1  0
 19 20  1  0
 20 21  1  1
 21 23  2  0
 21 22  1  0
M  END
$$$$
