VNP.pdb
     RDKit          3D

 23 23  0  0  1  0  0  0  0  0999 V2000
   17.9829   -9.6757  -18.1760 C   0  0  0  0  0  0  0  0  0  0  0  0
   17.5869  -10.9760  -17.5501 C   0  0  2  0  0  0  0  0  0  0  0  0
   16.7674  -10.7488  -16.2948 C   0  0  0  0  0  0  0  0  0  0  0  0
   18.7642  -11.8322  -17.1621 C   0  0  2  0  0  0  0  0  0  0  0  0
   18.3140  -13.0567  -16.5415 N   0  0  0  0  0  0  0  0  0  0  0  0
   19.6489  -11.1401  -16.1742 C   0  0  0  0  0  0  0  0  0  0  0  0
   19.2943  -10.9041  -15.0031 O   0  0  0  0  0  0  0  0  0  0  0  0
   23.2822  -11.8801  -14.8022 N   0  0  0  0  0  0  0  0  0  0  0  0
   23.9552  -11.1508  -15.8286 C   0  0  0  0  0  0  0  0  0  0  0  0
   25.1212  -11.5089  -16.1006 O   0  0  0  0  0  0  0  0  0  0  0  0
   23.2389  -10.0427  -16.4863 C   0  0  0  0  0  0  0  0  0  0  0  0
   21.8411   -9.9082  -15.8547 C   0  0  2  0  0  0  0  0  0  0  0  0
   20.9357  -10.7586  -16.6456 N   0  0  0  0  0  0  0  0  0  0  0  0
   21.4134   -8.4959  -15.9527 C   0  0  0  0  0  0  0  0  0  0  0  0
   20.8528   -8.1154  -17.0109 O   0  0  0  0  0  0  0  0  0  0  0  0
   21.6024   -7.5558  -14.9152 N   0  0  0  0  0  0  0  0  0  0  0  0
   22.1953   -7.8342  -13.5946 C   0  0  0  0  0  0  0  0  0  0  0  0
   21.4731   -6.8901  -12.6746 C   0  0  0  0  0  0  0  0  0  0  0  0
   20.5851   -6.0348  -13.5266 C   0  0  0  0  0  0  0  0  0  0  0  0
   21.2599   -6.1539  -14.8763 C   0  0  1  0  0  0  0  0  0  0  0  0
   22.5080   -5.3052  -14.9410 C   0  0  0  0  0  0  0  0  0  0  0  0
   23.7525   -5.8955  -14.8700 O   0  0  0  0  0  0  0  0  0  0  0  0
   22.4503   -4.0695  -15.0596 O   0  0  0  0  0  0  0  0  0  0  0  0
  2  1  1  1
  2  3  1  0
  4  2  1  0
  4  6  1  0
  4  5  1  1
  6  7  2  0
  8  9  1  0
  9 11  1  0
 10  9  2  0
 12 11  1  6
 12 14  1  0
 13  6  1  0
 13 12  1  0
 14 15  2  0
 16 14  1  0
 16 20  1  0
 17 16  1  0
 18 19  1  0
 18 17  1  0
 19 20  1  0
 20 21  1  1
 21 23  2  0
 21 22  1  0
M  END
$$$$
