GRV.pdb
     RDKit          3D

 23 22  0  0  1  0  0  0  0  0999 V2000
   12.6073  -16.6350   20.7462 N   0  0  0  0  0  0  0  0  0  0  0  0
   11.4150  -17.0932   21.4229 C   0  0  0  0  0  0  0  0  0  0  0  0
   10.6006  -15.9443   21.8993 C   0  0  0  0  0  0  0  0  0  0  0  0
   11.1880  -14.9727   22.4196 O   0  0  0  0  0  0  0  0  0  0  0  0
    9.5083  -14.7731   17.0230 N   0  0  0  0  0  0  0  0  0  0  0  0
    8.3106  -14.0146   17.1463 C   0  0  0  0  0  0  0  0  0  0  0  0
    7.5894  -13.7236   16.0973 N   0  0  0  0  0  0  0  0  0  0  0  0
    7.8326  -13.5352   18.3876 N   0  0  0  0  0  0  0  0  0  0  0  0
    7.8754  -14.3668   19.5700 C   0  0  0  0  0  0  0  0  0  0  0  0
    6.8834  -13.9485   20.6298 C   0  0  0  0  0  0  0  0  0  0  0  0
    6.9766  -14.8944   21.7807 C   0  0  0  0  0  0  0  0  0  0  0  0
    8.3491  -14.9300   22.4184 C   0  0  2  0  0  0  0  0  0  0  0  0
    9.1832  -15.9028   21.7887 N   0  0  0  0  0  0  0  0  0  0  0  0
    8.2554  -15.1074   23.8874 C   0  0  0  0  0  0  0  0  0  0  0  0
    8.5701  -16.1997   24.4277 O   0  0  0  0  0  0  0  0  0  0  0  0
    6.8055  -13.0572   16.2191 C   0  0  0  0  0  0  0  0  0  0  0  0
    5.6622  -12.7454   26.2836 C   0  0  1  0  0  0  0  0  0  0  0  0
    7.0309  -13.0554   26.8551 C   0  0  0  0  0  0  0  0  0  0  0  0
    7.8930  -11.8408   26.5790 C   0  0  1  0  0  0  0  0  0  0  0  0
    7.6704  -14.2392   26.1957 N   0  0  0  0  0  0  0  0  0  0  0  0
    7.8126  -14.0768   24.7633 C   0  0  0  0  0  0  0  0  0  0  0  0
    6.8510  -15.4391   26.5268 O   0  0  0  0  0  0  0  0  0  0  0  0
    5.9426  -15.8159   25.7701 O   0  0  0  0  0  0  0  0  0  0  0  0
  1  2  1  0
  3  4  2  0
  3  2  1  0
  6  5  1  0
  7  6  2  0
  8  6  1  0
  9 10  1  0
  9  8  1  0
 10 11  1  0
 12 11  1  6
 12 13  1  0
 12 14  1  0
 13  3  1  0
 14 20  1  0
 15 14  2  0
 17 16  1  1
 17 19  1  0
 18 17  1  0
 19 21  1  0
 19 20  1  6
 21 22  2  0
 21 23  1  0
M  END
$$$$
