GRV.pdb
     RDKit          3D

 23 22  0  0  1  0  0  0  0  0999 V2000
    5.7384  -19.1547   22.6891 N   0  0  0  0  0  0  0  0  0  0  0  0
    5.5427  -17.7717   23.0611 C   0  0  0  0  0  0  0  0  0  0  0  0
    6.7891  -16.9866   22.8598 C   0  0  0  0  0  0  0  0  0  0  0  0
    7.8866  -17.5530   23.0458 O   0  0  0  0  0  0  0  0  0  0  0  0
    9.6552  -14.5966   18.5389 N   0  0  0  0  0  0  0  0  0  0  0  0
    8.7621  -14.1960   17.5058 C   0  0  0  0  0  0  0  0  0  0  0  0
    8.9514  -14.5752   16.2707 N   0  0  0  0  0  0  0  0  0  0  0  0
    7.6343  -13.3772   17.7438 N   0  0  0  0  0  0  0  0  0  0  0  0
    7.1948  -13.0939   19.0922 C   0  0  0  0  0  0  0  0  0  0  0  0
    7.4034  -14.2494   20.0428 C   0  0  0  0  0  0  0  0  0  0  0  0
    7.8155  -13.7133   21.3735 C   0  0  0  0  0  0  0  0  0  0  0  0
    7.9426  -14.7824   22.4378 C   0  0  2  0  0  0  0  0  0  0  0  0
    6.7868  -15.6202   22.4651 N   0  0  0  0  0  0  0  0  0  0  0  0
    8.2637  -14.1909   23.7588 C   0  0  0  0  0  0  0  0  0  0  0  0
    8.3588  -12.9440   23.9026 O   0  0  0  0  0  0  0  0  0  0  0  0
    8.3099  -14.2035   15.5470 C   0  0  0  0  0  0  0  0  0  0  0  0
    7.1818  -12.4723   25.7038 C   0  0  1  0  0  0  0  0  0  0  0  0
    7.4912  -13.5826   26.6873 C   0  0  0  0  0  0  0  0  0  0  0  0
    7.8624  -12.9061   27.9909 C   0  0  2  0  0  0  0  0  0  0  0  0
    8.6527  -14.4234   26.2526 N   0  0  0  0  0  0  0  0  0  0  0  0
    8.4812  -14.9770   24.9250 C   0  0  0  0  0  0  0  0  0  0  0  0
    8.8391  -15.4978   27.2684 O   0  0  0  0  0  0  0  0  0  0  0  0
    8.5451  -16.6750   27.0083 O   0  0  0  0  0  0  0  0  0  0  0  0
  1  2  1  0
  3  4  2  0
  3  2  1  0
  6  5  1  0
  7  6  2  0
  8  6  1  0
  9 10  1  0
  9  8  1  0
 10 11  1  0
 12 11  1  6
 12 13  1  0
 12 14  1  0
 13  3  1  0
 14 20  1  0
 15 14  2  0
 17 16  1  1
 17 19  1  0
 18 17  1  0
 19 21  1  0
 19 20  1  6
 21 22  2  0
 21 23  1  0
M  END
$$$$
