GRV.pdb
     RDKit          3D

 23 22  0  0  1  0  0  0  0  0999 V2000
    6.5386  -20.5237   24.7544 N   0  0  0  0  0  0  0  0  0  0  0  0
    6.1828  -19.1413   24.9821 C   0  0  0  0  0  0  0  0  0  0  0  0
    7.1059  -18.2294   24.2564 C   0  0  0  0  0  0  0  0  0  0  0  0
    8.2844  -18.5987   24.0707 O   0  0  0  0  0  0  0  0  0  0  0  0
    9.2457  -12.7339   18.3081 N   0  0  0  0  0  0  0  0  0  0  0  0
    8.0499  -13.4755   18.5209 C   0  0  0  0  0  0  0  0  0  0  0  0
    6.9241  -13.1053   17.9726 N   0  0  0  0  0  0  0  0  0  0  0  0
    8.0029  -14.6380   19.3242 N   0  0  0  0  0  0  0  0  0  0  0  0
    8.5720  -14.6443   20.6537 C   0  0  0  0  0  0  0  0  0  0  0  0
    7.6897  -13.9786   21.6835 C   0  0  0  0  0  0  0  0  0  0  0  0
    6.8193  -15.0128   22.3166 C   0  0  0  0  0  0  0  0  0  0  0  0
    7.5865  -16.0075   23.1613 C   0  0  2  0  0  0  0  0  0  0  0  0
    6.7063  -16.9561   23.7647 N   0  0  0  0  0  0  0  0  0  0  0  0
    8.4608  -15.3196   24.1414 C   0  0  0  0  0  0  0  0  0  0  0  0
    9.0970  -14.2813   23.8226 O   0  0  0  0  0  0  0  0  0  0  0  0
    6.1154  -13.7486   18.0468 C   0  0  0  0  0  0  0  0  0  0  0  0
    7.9584  -12.8914   25.9027 C   0  0  1  0  0  0  0  0  0  0  0  0
    8.2700  -13.8875   27.0011 C   0  0  0  0  0  0  0  0  0  0  0  0
    8.9661  -13.1084   28.0980 C   0  0  2  0  0  0  0  0  0  0  0  0
    9.1958  -14.9727   26.5422 N   0  0  0  0  0  0  0  0  0  0  0  0
    8.6344  -15.7784   25.4773 C   0  0  0  0  0  0  0  0  0  0  0  0
    9.5401  -15.8058   27.7289 O   0  0  0  0  0  0  0  0  0  0  0  0
   10.1605  -15.3194   28.6873 O   0  0  0  0  0  0  0  0  0  0  0  0
  1  2  1  0
  3  4  2  0
  3  2  1  0
  6  5  1  0
  7  6  2  0
  8  6  1  0
  9 10  1  0
  9  8  1  0
 10 11  1  0
 12 11  1  1
 12 13  1  0
 12 14  1  0
 13  3  1  0
 14 20  1  0
 15 14  2  0
 17 16  1  1
 17 19  1  0
 18 17  1  0
 19 21  1  0
 19 20  1  6
 21 22  2  0
 21 23  1  0
M  END
$$$$
