GRV.pdb
     RDKit          3D

 23 22  0  0  1  0  0  0  0  0999 V2000
    8.2620  -16.1967   18.8187 N   0  0  0  0  0  0  0  0  0  0  0  0
    8.6292  -16.8133   20.0734 C   0  0  0  0  0  0  0  0  0  0  0  0
    7.7641  -16.3232   21.1787 C   0  0  0  0  0  0  0  0  0  0  0  0
    6.9232  -15.4344   20.9279 O   0  0  0  0  0  0  0  0  0  0  0  0
    8.2042  -21.9480   24.9701 N   0  0  0  0  0  0  0  0  0  0  0  0
    6.9008  -21.5763   24.5363 C   0  0  0  0  0  0  0  0  0  0  0  0
    6.2007  -22.3629   23.7641 N   0  0  0  0  0  0  0  0  0  0  0  0
    6.2907  -20.3552   24.9046 N   0  0  0  0  0  0  0  0  0  0  0  0
    6.9479  -19.4423   25.8137 C   0  0  0  0  0  0  0  0  0  0  0  0
    7.5989  -18.2711   25.1160 C   0  0  0  0  0  0  0  0  0  0  0  0
    6.5413  -17.4564   24.4484 C   0  0  0  0  0  0  0  0  0  0  0  0
    7.0957  -16.3230   23.6119 C   0  0  2  0  0  0  0  0  0  0  0  0
    7.8518  -16.8213   22.5080 N   0  0  0  0  0  0  0  0  0  0  0  0
    7.8512  -15.3581   24.4463 C   0  0  0  0  0  0  0  0  0  0  0  0
    9.1063  -15.4142   24.5228 O   0  0  0  0  0  0  0  0  0  0  0  0
    5.2500  -22.0533   23.4928 C   0  0  0  0  0  0  0  0  0  0  0  0
    5.7804  -12.3836   26.8205 C   0  0  1  0  0  0  0  0  0  0  0  0
    7.1558  -12.1085   26.2473 C   0  0  0  0  0  0  0  0  0  0  0  0
    6.9327  -11.4331   24.9099 C   0  0  1  0  0  0  0  0  0  0  0  0
    7.9371  -13.3647   26.0093 N   0  0  0  0  0  0  0  0  0  0  0  0
    7.2205  -14.3282   25.1992 C   0  0  0  0  0  0  0  0  0  0  0  0
    8.2951  -13.9338   27.3393 O   0  0  0  0  0  0  0  0  0  0  0  0
    7.7820  -14.9918   27.7359 O   0  0  0  0  0  0  0  0  0  0  0  0
  1  2  1  0
  3  4  2  0
  3  2  1  0
  6  5  1  0
  7  6  2  0
  8  6  1  0
  9 10  1  0
  9  8  1  0
 10 11  1  0
 12 11  1  1
 12 13  1  0
 12 14  1  0
 13  3  1  0
 14 20  1  0
 15 14  2  0
 17 16  1  1
 17 19  1  0
 18 17  1  0
 19 21  1  0
 19 20  1  6
 21 22  2  0
 21 23  1  0
M  END
$$$$
