GRV.pdb
     RDKit          3D

 23 22  0  0  1  0  0  0  0  0999 V2000
   12.7869  -16.9995   20.3081 N   0  0  0  0  0  0  0  0  0  0  0  0
   12.1281  -17.5969   21.4475 C   0  0  0  0  0  0  0  0  0  0  0  0
   11.5061  -16.5555   22.3070 C   0  0  0  0  0  0  0  0  0  0  0  0
   12.2417  -15.6800   22.8093 O   0  0  0  0  0  0  0  0  0  0  0  0
    8.2955  -14.2757   17.8617 N   0  0  0  0  0  0  0  0  0  0  0  0
    7.5212  -13.7663   18.9415 C   0  0  0  0  0  0  0  0  0  0  0  0
    6.2391  -13.5576   18.8082 N   0  0  0  0  0  0  0  0  0  0  0  0
    8.0779  -13.4582   20.2041 N   0  0  0  0  0  0  0  0  0  0  0  0
    8.4055  -14.5058   21.1458 C   0  0  0  0  0  0  0  0  0  0  0  0
    7.5787  -14.4524   22.4090 C   0  0  0  0  0  0  0  0  0  0  0  0
    8.0003  -15.5644   23.3111 C   0  0  0  0  0  0  0  0  0  0  0  0
    9.4978  -15.6303   23.5228 C   0  0  2  0  0  0  0  0  0  0  0  0
   10.1114  -16.5122   22.5823 N   0  0  0  0  0  0  0  0  0  0  0  0
    9.8282  -15.9593   24.9301 C   0  0  0  0  0  0  0  0  0  0  0  0
   10.1382  -17.1328   25.2638 O   0  0  0  0  0  0  0  0  0  0  0  0
    5.7204  -13.1938   19.6280 C   0  0  0  0  0  0  0  0  0  0  0  0
   10.5299  -12.8535   27.7886 C   0  0  1  0  0  0  0  0  0  0  0  0
    9.8757  -14.1316   28.2727 C   0  0  0  0  0  0  0  0  0  0  0  0
   10.5015  -14.4485   29.6153 C   0  0  2  0  0  0  0  0  0  0  0  0
   10.1330  -15.2880   27.3551 N   0  0  0  0  0  0  0  0  0  0  0  0
    9.8163  -14.9912   25.9732 C   0  0  0  0  0  0  0  0  0  0  0  0
    9.3423  -16.4477   27.8558 O   0  0  0  0  0  0  0  0  0  0  0  0
    8.1614  -16.6075   27.5097 O   0  0  0  0  0  0  0  0  0  0  0  0
  1  2  1  0
  3  4  2  0
  3  2  1  0
  6  5  1  0
  7  6  2  0
  8  6  1  0
  9 10  1  0
  9  8  1  0
 10 11  1  0
 12 11  1  1
 12 13  1  0
 12 14  1  0
 13  3  1  0
 14 20  1  0
 15 14  2  0
 17 16  1  1
 17 19  1  0
 18 17  1  0
 19 21  1  0
 19 20  1  6
 21 22  2  0
 21 23  1  0
M  END
$$$$
