GRV.pdb
     RDKit          3D

 23 22  0  0  1  0  0  0  0  0999 V2000
    4.4317  -20.5200   21.4699 N   0  0  0  0  0  0  0  0  0  0  0  0
    4.2441  -19.4191   22.3877 C   0  0  0  0  0  0  0  0  0  0  0  0
    5.5489  -18.8141   22.7643 C   0  0  0  0  0  0  0  0  0  0  0  0
    6.5273  -19.5700   22.9410 O   0  0  0  0  0  0  0  0  0  0  0  0
    8.1073  -11.8742   20.1373 N   0  0  0  0  0  0  0  0  0  0  0  0
    8.3885  -13.0262   19.3505 C   0  0  0  0  0  0  0  0  0  0  0  0
    8.3346  -12.9780   18.0467 N   0  0  0  0  0  0  0  0  0  0  0  0
    8.7370  -14.2737   19.9173 N   0  0  0  0  0  0  0  0  0  0  0  0
    8.4998  -14.5441   21.3180 C   0  0  0  0  0  0  0  0  0  0  0  0
    7.1213  -15.0972   21.5938 C   0  0  0  0  0  0  0  0  0  0  0  0
    6.9803  -15.3374   23.0602 C   0  0  0  0  0  0  0  0  0  0  0  0
    6.9258  -16.8055   23.4252 C   0  0  2  0  0  0  0  0  0  0  0  0
    5.7319  -17.4137   22.9320 N   0  0  0  0  0  0  0  0  0  0  0  0
    7.1220  -17.0056   24.8811 C   0  0  0  0  0  0  0  0  0  0  0  0
    6.3661  -16.4463   25.7178 O   0  0  0  0  0  0  0  0  0  0  0  0
    8.5663  -13.8400   17.5209 C   0  0  0  0  0  0  0  0  0  0  0  0
    9.1821  -20.3606   26.5669 C   0  0  1  0  0  0  0  0  0  0  0  0
    8.2374  -19.4172   27.2836 C   0  0  0  0  0  0  0  0  0  0  0  0
    6.8352  -19.8670   26.9282 C   0  0  1  0  0  0  0  0  0  0  0  0
    8.3983  -17.9971   26.8337 N   0  0  0  0  0  0  0  0  0  0  0  0
    8.1555  -17.8248   25.4161 C   0  0  0  0  0  0  0  0  0  0  0  0
    9.7726  -17.5573   27.2060 O   0  0  0  0  0  0  0  0  0  0  0  0
   10.6053  -17.2691   26.3322 O   0  0  0  0  0  0  0  0  0  0  0  0
  1  2  1  0
  3  4  2  0
  3  2  1  0
  6  5  1  0
  7  6  2  0
  8  6  1  0
  9 10  1  0
  9  8  1  0
 10 11  1  0
 12 11  1  1
 12 13  1  0
 12 14  1  0
 13  3  1  0
 14 20  1  0
 15 14  2  0
 17 16  1  1
 17 19  1  0
 18 17  1  0
 19 21  1  0
 19 20  1  6
 21 22  2  0
 21 23  1  0
M  END
$$$$
