GRV.pdb
     RDKit          3D

 23 22  0  0  1  0  0  0  0  0999 V2000
    7.4519  -12.8677   18.4174 N   0  0  0  0  0  0  0  0  0  0  0  0
    8.5116  -13.0593   19.3816 C   0  0  0  0  0  0  0  0  0  0  0  0
    7.9943  -13.7031   20.6178 C   0  0  0  0  0  0  0  0  0  0  0  0
    6.8337  -13.4309   20.9903 O   0  0  0  0  0  0  0  0  0  0  0  0
    6.5225  -19.1137   19.9064 N   0  0  0  0  0  0  0  0  0  0  0  0
    7.7623  -19.5798   19.3859 C   0  0  0  0  0  0  0  0  0  0  0  0
    7.8471  -20.0432   18.1680 N   0  0  0  0  0  0  0  0  0  0  0  0
    8.9594  -19.5727   20.1381 N   0  0  0  0  0  0  0  0  0  0  0  0
    9.0526  -18.8322   21.3768 C   0  0  0  0  0  0  0  0  0  0  0  0
    8.5892  -17.3998   21.2518 C   0  0  0  0  0  0  0  0  0  0  0  0
    8.7206  -16.7307   22.5797 C   0  0  0  0  0  0  0  0  0  0  0  0
    8.2893  -15.2797   22.5657 C   0  0  2  0  0  0  0  0  0  0  0  0
    8.7621  -14.6144   21.3942 N   0  0  0  0  0  0  0  0  0  0  0  0
    8.6748  -14.5917   23.8211 C   0  0  0  0  0  0  0  0  0  0  0  0
    9.8631  -14.2272   24.0195 O   0  0  0  0  0  0  0  0  0  0  0  0
    8.7612  -20.4177   17.8556 C   0  0  0  0  0  0  0  0  0  0  0  0
    5.6925  -13.5313   26.7888 C   0  0  1  0  0  0  0  0  0  0  0  0
    6.9858  -12.7616   26.6131 C   0  0  0  0  0  0  0  0  0  0  0  0
    6.7037  -11.6829   25.5875 C   0  0  1  0  0  0  0  0  0  0  0  0
    8.0957  -13.6216   26.0900 N   0  0  0  0  0  0  0  0  0  0  0  0
    7.7469  -14.3052   24.8615 C   0  0  0  0  0  0  0  0  0  0  0  0
    8.4633  -14.5883   27.1630 O   0  0  0  0  0  0  0  0  0  0  0  0
    8.2262  -15.7996   27.0345 O   0  0  0  0  0  0  0  0  0  0  0  0
  1  2  1  0
  3  4  2  0
  3  2  1  0
  6  5  1  0
  7  6  2  0
  8  6  1  0
  9 10  1  0
  9  8  1  0
 10 11  1  0
 12 11  1  1
 12 13  1  0
 12 14  1  0
 13  3  1  0
 14 20  1  0
 15 14  2  0
 17 16  1  1
 17 19  1  0
 18 17  1  0
 19 21  1  0
 19 20  1  6
 21 22  2  0
 21 23  1  0
M  END
$$$$
