DHH.pdb
     RDKit          3D

 29 30  0  0  1  0  0  0  0  0999 V2000
   29.4326  -35.4186   -1.5557 N   0  0  0  0  0  0  0  0  0  0  0  0
   28.4057  -34.3745   -1.5037 C   0  0  1  0  0  0  0  0  0  0  0  0
   27.4068  -34.7027   -2.5963 C   0  0  0  0  0  0  0  0  0  0  0  0
   27.9968  -34.2709   -3.8848 C   0  0  0  0  0  0  0  0  0  0  0  0
   29.0382  -34.7802   -4.3675 O   0  0  0  0  0  0  0  0  0  0  0  0
   27.7857  -34.4326   -0.1601 C   0  0  0  0  0  0  0  0  0  0  0  0
   26.7402  -33.7961    0.1261 O   0  0  0  0  0  0  0  0  0  0  0  0
   27.4025  -33.2542   -4.6318 O   0  0  0  0  0  0  0  0  0  0  0  0
   28.3751  -35.2231    0.8398 N   0  0  0  0  0  0  0  0  0  0  0  0
   27.8517  -35.4092    2.1789 C   0  0  1  0  0  0  0  0  0  0  0  0
   28.3298  -36.7501    2.6588 C   0  0  0  0  0  0  0  0  0  0  0  0
   27.2613  -37.7633    2.4643 C   0  0  0  0  0  0  0  0  0  0  0  0
   26.0188  -37.5729    1.8474 C   0  0  0  0  0  0  0  0  0  0  0  0
   25.3320  -38.7148    1.8609 N   0  0  0  0  0  0  0  0  0  0  0  0
   26.0876  -39.6430    2.4669 C   0  0  0  0  0  0  0  0  0  0  0  0
   27.2445  -39.0670    2.8273 N   0  0  0  0  0  0  0  0  0  0  0  0
   28.2828  -34.2876    3.0040 C   0  0  0  0  0  0  0  0  0  0  0  0
   29.5107  -34.0163    3.0648 O   0  0  0  0  0  0  0  0  0  0  0  0
   27.3293  -33.4837    3.7515 N   0  0  0  0  0  0  0  0  0  0  0  0
   27.8262  -32.3808    4.5342 C   0  0  1  0  0  0  0  0  0  0  0  0
   27.0260  -31.1352    4.4060 C   0  0  0  0  0  0  0  0  0  0  0  0
   27.3581  -30.0224    5.2740 C   0  0  0  0  0  0  0  0  0  0  0  0
   28.4927  -29.7553    5.9874 C   0  0  0  0  0  0  0  0  0  0  0  0
   28.3567  -28.5710    6.6429 N   0  0  0  0  0  0  0  0  0  0  0  0
   27.1352  -28.1315    6.3171 C   0  0  0  0  0  0  0  0  0  0  0  0
   26.5211  -28.9783    5.5033 N   0  0  0  0  0  0  0  0  0  0  0  0
   28.0465  -32.8120    5.9276 C   0  0  0  0  0  0  0  0  0  0  0  0
   27.6157  -34.0065    6.4516 O   0  0  0  0  0  0  0  0  0  0  0  0
   28.6700  -32.0350    6.6884 O   0  0  0  0  0  0  0  0  0  0  0  0
  2  1  1  1
  3  4  1  0
  3  2  1  0
  4  5  2  0
  6  2  1  0
  6  7  2  0
  8  4  1  0
  9  6  1  0
 10  9  1  0
 10 11  1  1
 11 12  1  0
 12 16  1  0
 12 13  2  0
 13 14  1  0
 15 14  1  0
 16 15  2  0
 17 10  1  0
 18 17  2  0
 19 17  1  0
 20 21  1  1
 20 19  1  0
 21 22  1  0
 22 23  2  0
 22 26  1  0
 23 24  1  0
 24 25  1  0
 26 25  2  0
 27 28  1  0
 27 20  1  0
 29 27  2  0
M  END
$$$$
