DHH.pdb
     RDKit          3D

 29 30  0  0  1  0  0  0  0  0999 V2000
   21.1322  -13.3190  -17.0016 N   0  0  0  0  0  0  0  0  0  0  0  0
   20.6004  -11.9573  -17.1031 C   0  0  1  0  0  0  0  0  0  0  0  0
   19.6439  -11.7843  -15.9392 C   0  0  0  0  0  0  0  0  0  0  0  0
   18.4379  -12.5947  -16.2284 C   0  0  0  0  0  0  0  0  0  0  0  0
   18.3355  -13.3370  -17.2361 O   0  0  0  0  0  0  0  0  0  0  0  0
   21.7492  -11.0275  -17.0100 C   0  0  0  0  0  0  0  0  0  0  0  0
   22.6270  -11.1307  -16.1161 O   0  0  0  0  0  0  0  0  0  0  0  0
   17.3397  -12.5636  -15.3695 O   0  0  0  0  0  0  0  0  0  0  0  0
   21.8762   -9.9893  -17.9470 N   0  0  0  0  0  0  0  0  0  0  0  0
   22.8561   -8.9225  -17.8889 C   0  0  1  0  0  0  0  0  0  0  0  0
   23.2321   -8.5889  -19.3046 C   0  0  0  0  0  0  0  0  0  0  0  0
   24.2333   -7.4919  -19.3132 C   0  0  0  0  0  0  0  0  0  0  0  0
   25.6264   -7.6192  -19.2508 C   0  0  0  0  0  0  0  0  0  0  0  0
   26.1887   -6.4114  -19.2835 N   0  0  0  0  0  0  0  0  0  0  0  0
   25.2063   -5.5015  -19.3653 C   0  0  0  0  0  0  0  0  0  0  0  0
   24.0346   -6.1550  -19.3826 N   0  0  0  0  0  0  0  0  0  0  0  0
   22.2842   -7.8094  -17.1415 C   0  0  0  0  0  0  0  0  0  0  0  0
   21.0316   -7.6932  -17.0906 O   0  0  0  0  0  0  0  0  0  0  0  0
   23.1262   -6.8395  -16.4600 N   0  0  0  0  0  0  0  0  0  0  0  0
   22.4961   -5.8573  -15.6149 C   0  0  1  0  0  0  0  0  0  0  0  0
   21.6016   -6.4323  -14.5770 C   0  0  0  0  0  0  0  0  0  0  0  0
   20.1915   -6.5580  -14.8897 C   0  0  0  0  0  0  0  0  0  0  0  0
   19.4887   -6.1922  -16.0032 C   0  0  0  0  0  0  0  0  0  0  0  0
   18.1803   -6.5344  -15.8552 N   0  0  0  0  0  0  0  0  0  0  0  0
   18.1050   -7.1071  -14.6480 C   0  0  0  0  0  0  0  0  0  0  0  0
   19.2893   -7.1328  -14.0536 N   0  0  0  0  0  0  0  0  0  0  0  0
   23.5096   -4.9257  -15.0848 C   0  0  0  0  0  0  0  0  0  0  0  0
   24.8552   -5.0043  -15.3493 O   0  0  0  0  0  0  0  0  0  0  0  0
   23.1172   -3.9967  -14.3402 O   0  0  0  0  0  0  0  0  0  0  0  0
  2  1  1  1
  3  4  1  0
  3  2  1  0
  4  5  2  0
  6  2  1  0
  6  7  2  0
  8  4  1  0
  9  6  1  0
 10  9  1  0
 10 11  1  6
 11 12  1  0
 12 16  1  0
 12 13  2  0
 13 14  1  0
 15 14  1  0
 16 15  2  0
 17 10  1  0
 18 17  2  0
 19 17  1  0
 20 21  1  1
 20 19  1  0
 21 22  1  0
 22 23  2  0
 22 26  1  0
 23 24  1  0
 24 25  1  0
 26 25  2  0
 27 28  1  0
 27 20  1  0
 29 27  2  0
M  END
$$$$
