DHH.pdb
     RDKit          3D

 29 30  0  0  1  0  0  0  0  0999 V2000
   22.2384  -12.9444  -17.1278 N   0  0  0  0  0  0  0  0  0  0  0  0
   21.5895  -11.8192  -17.8060 C   0  0  1  0  0  0  0  0  0  0  0  0
   20.0976  -12.0824  -17.7388 C   0  0  0  0  0  0  0  0  0  0  0  0
   19.8032  -13.2160  -18.6461 C   0  0  0  0  0  0  0  0  0  0  0  0
   18.8624  -14.0245  -18.4510 O   0  0  0  0  0  0  0  0  0  0  0  0
   21.9615  -10.5882  -17.0717 C   0  0  0  0  0  0  0  0  0  0  0  0
   21.5952  -10.3746  -15.8883 O   0  0  0  0  0  0  0  0  0  0  0  0
   20.5808  -13.4351  -19.7829 O   0  0  0  0  0  0  0  0  0  0  0  0
   22.7515   -9.6162  -17.7067 N   0  0  0  0  0  0  0  0  0  0  0  0
   23.1294   -8.3385  -17.1355 C   0  0  1  0  0  0  0  0  0  0  0  0
   24.5981   -8.1553  -17.3926 C   0  0  0  0  0  0  0  0  0  0  0  0
   25.3790   -9.0606  -16.5114 C   0  0  0  0  0  0  0  0  0  0  0  0
   24.8762   -9.9324  -15.5378 C   0  0  0  0  0  0  0  0  0  0  0  0
   25.8834  -10.5806  -14.9536 N   0  0  0  0  0  0  0  0  0  0  0  0
   27.0262  -10.1588  -15.5156 C   0  0  0  0  0  0  0  0  0  0  0  0
   26.7181   -9.2464  -16.4499 N   0  0  0  0  0  0  0  0  0  0  0  0
   22.2842   -7.3035  -17.7179 C   0  0  0  0  0  0  0  0  0  0  0  0
   22.1679   -7.2495  -18.9703 O   0  0  0  0  0  0  0  0  0  0  0  0
   21.5796   -6.3410  -16.8865 N   0  0  0  0  0  0  0  0  0  0  0  0
   20.7065   -5.3903  -17.5267 C   0  0  1  0  0  0  0  0  0  0  0  0
   19.3994   -5.9552  -17.9513 C   0  0  0  0  0  0  0  0  0  0  0  0
   18.4422   -5.0603  -18.5717 C   0  0  0  0  0  0  0  0  0  0  0  0
   18.6193   -4.0580  -19.4837 C   0  0  0  0  0  0  0  0  0  0  0  0
   17.4174   -3.5035  -19.7980 N   0  0  0  0  0  0  0  0  0  0  0  0
   16.5212   -4.1799  -19.0696 C   0  0  0  0  0  0  0  0  0  0  0  0
   17.1070   -5.1117  -18.3313 N   0  0  0  0  0  0  0  0  0  0  0  0
   20.5946   -4.1741  -16.6994 C   0  0  0  0  0  0  0  0  0  0  0  0
   20.1003   -2.9718  -17.1432 O   0  0  0  0  0  0  0  0  0  0  0  0
   20.9774   -4.2405  -15.5075 O   0  0  0  0  0  0  0  0  0  0  0  0
  2  1  1  1
  3  4  1  0
  3  2  1  0
  4  5  2  0
  6  2  1  0
  6  7  2  0
  8  4  1  0
  9  6  1  0
 10  9  1  0
 10 11  1  6
 11 12  1  0
 12 16  1  0
 12 13  2  0
 13 14  1  0
 15 14  1  0
 16 15  2  0
 17 10  1  0
 18 17  2  0
 19 17  1  0
 20 21  1  1
 20 19  1  0
 21 22  1  0
 22 23  2  0
 22 26  1  0
 23 24  1  0
 24 25  1  0
 26 25  2  0
 27 28  1  0
 27 20  1  0
 29 27  2  0
M  END
$$$$
