DHH.pdb
     RDKit          3D

 29 30  0  0  1  0  0  0  0  0999 V2000
   18.3474  -10.6936  -16.2878 N   0  0  0  0  0  0  0  0  0  0  0  0
   19.5686  -10.1892  -15.6542 C   0  0  1  0  0  0  0  0  0  0  0  0
   20.6165  -10.1112  -16.7475 C   0  0  0  0  0  0  0  0  0  0  0  0
   21.0468  -11.4956  -17.0526 C   0  0  0  0  0  0  0  0  0  0  0  0
   20.5607  -12.1743  -17.9907 O   0  0  0  0  0  0  0  0  0  0  0  0
   19.2570   -8.8523  -15.0987 C   0  0  0  0  0  0  0  0  0  0  0  0
   18.6441   -7.9759  -15.7594 O   0  0  0  0  0  0  0  0  0  0  0  0
   22.0354  -12.1157  -16.2889 O   0  0  0  0  0  0  0  0  0  0  0  0
   19.6533   -8.5382  -13.7887 N   0  0  0  0  0  0  0  0  0  0  0  0
   19.5019   -7.2435  -13.1543 C   0  0  1  0  0  0  0  0  0  0  0  0
   19.5858   -7.4646  -11.6708 C   0  0  0  0  0  0  0  0  0  0  0  0
   19.3753   -6.1784  -10.9586 C   0  0  0  0  0  0  0  0  0  0  0  0
   19.1566   -4.9205  -11.5335 C   0  0  0  0  0  0  0  0  0  0  0  0
   19.0105   -4.0081  -10.5732 N   0  0  0  0  0  0  0  0  0  0  0  0
   19.1270   -4.6316   -9.3911 C   0  0  0  0  0  0  0  0  0  0  0  0
   19.3461   -5.9340   -9.6278 N   0  0  0  0  0  0  0  0  0  0  0  0
   20.5201   -6.3461  -13.6860 C   0  0  0  0  0  0  0  0  0  0  0  0
   21.6266   -6.8286  -14.0435 O   0  0  0  0  0  0  0  0  0  0  0  0
   20.2834   -4.9169  -13.8097 N   0  0  0  0  0  0  0  0  0  0  0  0
   21.2570   -4.1179  -14.5096 C   0  0  1  0  0  0  0  0  0  0  0  0
   21.6336   -4.6501  -15.8448 C   0  0  0  0  0  0  0  0  0  0  0  0
   22.5486   -3.8689  -16.6539 C   0  0  0  0  0  0  0  0  0  0  0  0
   23.9038   -3.7141  -16.5702 C   0  0  0  0  0  0  0  0  0  0  0  0
   24.3367   -2.8973  -17.5683 N   0  0  0  0  0  0  0  0  0  0  0  0
   23.2333   -2.5653  -18.2492 C   0  0  0  0  0  0  0  0  0  0  0  0
   22.1561   -3.1312  -17.7240 N   0  0  0  0  0  0  0  0  0  0  0  0
   20.8314   -2.7056  -14.5245 C   0  0  0  0  0  0  0  0  0  0  0  0
   21.6815   -1.6365  -14.6694 O   0  0  0  0  0  0  0  0  0  0  0  0
   19.6085   -2.4621  -14.3955 O   0  0  0  0  0  0  0  0  0  0  0  0
  2  1  1  6
  3  4  1  0
  3  2  1  0
  4  5  2  0
  6  2  1  0
  6  7  2  0
  8  4  1  0
  9  6  1  0
 10  9  1  0
 10 11  1  1
 11 12  1  0
 12 16  1  0
 12 13  2  0
 13 14  1  0
 15 14  1  0
 16 15  2  0
 17 10  1  0
 18 17  2  0
 19 17  1  0
 20 21  1  6
 20 19  1  0
 21 22  1  0
 22 23  2  0
 22 26  1  0
 23 24  1  0
 24 25  1  0
 26 25  2  0
 27 28  1  0
 27 20  1  0
 29 27  2  0
M  END
$$$$
