DHH.pdb
     RDKit          3D

 29 30  0  0  1  0  0  0  0  0999 V2000
   23.8904  -18.1235  -17.1473 N   0  0  0  0  0  0  0  0  0  0  0  0
   23.1305  -19.3016  -17.5739 C   0  0  1  0  0  0  0  0  0  0  0  0
   23.8757  -19.8848  -18.7588 C   0  0  0  0  0  0  0  0  0  0  0  0
   24.0844  -18.7915  -19.7366 C   0  0  0  0  0  0  0  0  0  0  0  0
   25.2053  -18.5200  -20.2335 O   0  0  0  0  0  0  0  0  0  0  0  0
   23.0982  -20.2427  -16.4309 C   0  0  0  0  0  0  0  0  0  0  0  0
   22.6628  -21.4170  -16.5390 O   0  0  0  0  0  0  0  0  0  0  0  0
   23.0150  -17.9997  -20.1544 O   0  0  0  0  0  0  0  0  0  0  0  0
   23.5678  -19.8227  -15.1759 N   0  0  0  0  0  0  0  0  0  0  0  0
   23.5357  -20.6131  -13.9610 C   0  0  1  0  0  0  0  0  0  0  0  0
   24.7881  -20.2973  -13.1939 C   0  0  0  0  0  0  0  0  0  0  0  0
   25.9769  -20.7245  -13.9752 C   0  0  0  0  0  0  0  0  0  0  0  0
   25.9855  -21.3156  -15.2445 C   0  0  0  0  0  0  0  0  0  0  0  0
   27.2419  -21.5555  -15.6186 N   0  0  0  0  0  0  0  0  0  0  0  0
   28.0518  -21.1395  -14.6334 C   0  0  0  0  0  0  0  0  0  0  0  0
   27.2878  -20.6417  -13.6492 N   0  0  0  0  0  0  0  0  0  0  0  0
   22.3016  -20.3121  -13.2460 C   0  0  0  0  0  0  0  0  0  0  0  0
   22.0760  -19.1227  -12.9002 O   0  0  0  0  0  0  0  0  0  0  0  0
   21.3355  -21.3509  -12.9274 N   0  0  0  0  0  0  0  0  0  0  0  0
   19.9580  -20.9727  -12.7392 C   0  0  1  0  0  0  0  0  0  0  0  0
   19.4220  -20.0808  -13.7999 C   0  0  0  0  0  0  0  0  0  0  0  0
   18.0414  -19.6512  -13.6924 C   0  0  0  0  0  0  0  0  0  0  0  0
   17.1238  -19.8388  -12.6972 C   0  0  0  0  0  0  0  0  0  0  0  0
   15.9542  -19.2276  -13.0278 N   0  0  0  0  0  0  0  0  0  0  0  0
   16.1778  -18.6734  -14.2254 C   0  0  0  0  0  0  0  0  0  0  0  0
   17.4131  -18.9119  -14.6421 N   0  0  0  0  0  0  0  0  0  0  0  0
   19.1364  -22.1727  -12.4920 C   0  0  0  0  0  0  0  0  0  0  0  0
   18.1986  -22.2837  -11.4945 O   0  0  0  0  0  0  0  0  0  0  0  0
   19.3049  -23.1615  -13.2437 O   0  0  0  0  0  0  0  0  0  0  0  0
  2  1  1  1
  3  4  1  0
  3  2  1  0
  4  5  2  0
  6  2  1  0
  6  7  2  0
  8  4  1  0
  9  6  1  0
 10  9  1  0
 10 11  1  1
 11 12  1  0
 12 16  1  0
 12 13  2  0
 13 14  1  0
 15 14  1  0
 16 15  2  0
 17 10  1  0
 18 17  2  0
 19 17  1  0
 20 21  1  6
 20 19  1  0
 21 22  1  0
 22 23  2  0
 22 26  1  0
 23 24  1  0
 24 25  1  0
 26 25  2  0
 27 28  1  0
 27 20  1  0
 29 27  2  0
M  END
$$$$
