DHH.pdb
     RDKit          3D

 29 30  0  0  1  0  0  0  0  0999 V2000
   19.9147  -13.2252  -17.0155 N   0  0  0  0  0  0  0  0  0  0  0  0
   19.3259  -11.8915  -17.1642 C   0  0  1  0  0  0  0  0  0  0  0  0
   17.8228  -12.0892  -17.1974 C   0  0  0  0  0  0  0  0  0  0  0  0
   17.4391  -12.3577  -18.6029 C   0  0  0  0  0  0  0  0  0  0  0  0
   18.2077  -12.9051  -19.4315 O   0  0  0  0  0  0  0  0  0  0  0  0
   19.7467  -11.0909  -15.9916 C   0  0  0  0  0  0  0  0  0  0  0  0
   19.7732  -11.5655  -14.8279 O   0  0  0  0  0  0  0  0  0  0  0  0
   16.1749  -12.0031  -19.0732 O   0  0  0  0  0  0  0  0  0  0  0  0
   20.1331   -9.7528  -16.1706 N   0  0  0  0  0  0  0  0  0  0  0  0
   20.6340   -8.8779  -15.1287 C   0  0  1  0  0  0  0  0  0  0  0  0
   21.9379   -8.3118  -15.6147 C   0  0  0  0  0  0  0  0  0  0  0  0
   22.9986   -9.3477  -15.5282 C   0  0  0  0  0  0  0  0  0  0  0  0
   23.6571   -9.9735  -16.5938 C   0  0  0  0  0  0  0  0  0  0  0  0
   24.5463  -10.8462  -16.1207 N   0  0  0  0  0  0  0  0  0  0  0  0
   24.4879  -10.8088  -14.7810 C   0  0  0  0  0  0  0  0  0  0  0  0
   23.5575   -9.9080  -14.4303 N   0  0  0  0  0  0  0  0  0  0  0  0
   19.6160   -7.8762  -14.8370 C   0  0  0  0  0  0  0  0  0  0  0  0
   19.0336   -7.3064  -15.7966 O   0  0  0  0  0  0  0  0  0  0  0  0
   19.2644   -7.5262  -13.4703 N   0  0  0  0  0  0  0  0  0  0  0  0
   18.3094   -6.4687  -13.2566 C   0  0  1  0  0  0  0  0  0  0  0  0
   17.7291   -6.4408  -11.8889 C   0  0  0  0  0  0  0  0  0  0  0  0
   16.8926   -5.3126  -11.5291 C   0  0  0  0  0  0  0  0  0  0  0  0
   16.3518   -4.3216  -12.2993 C   0  0  0  0  0  0  0  0  0  0  0  0
   15.6095   -3.4874  -11.5222 N   0  0  0  0  0  0  0  0  0  0  0  0
   15.7090   -3.9853  -10.2838 C   0  0  0  0  0  0  0  0  0  0  0  0
   16.4678   -5.0717  -10.2623 N   0  0  0  0  0  0  0  0  0  0  0  0
   18.8799   -5.1803  -13.6931 C   0  0  0  0  0  0  0  0  0  0  0  0
   18.1664   -4.1791  -14.3058 O   0  0  0  0  0  0  0  0  0  0  0  0
   20.1015   -4.9837  -13.4920 O   0  0  0  0  0  0  0  0  0  0  0  0
  2  1  1  1
  3  4  1  0
  3  2  1  0
  4  5  2  0
  6  2  1  0
  6  7  2  0
  8  4  1  0
  9  6  1  0
 10  9  1  0
 10 11  1  6
 11 12  1  0
 12 16  1  0
 12 13  2  0
 13 14  1  0
 15 14  1  0
 16 15  2  0
 17 10  1  0
 18 17  2  0
 19 17  1  0
 20 21  1  1
 20 19  1  0
 21 22  1  0
 22 23  2  0
 22 26  1  0
 23 24  1  0
 24 25  1  0
 26 25  2  0
 27 28  1  0
 27 20  1  0
 29 27  2  0
M  END
$$$$
