DHH.pdb
     RDKit          3D

 29 30  0  0  1  0  0  0  0  0999 V2000
   25.7574  -38.6964  -13.9620 N   0  0  0  0  0  0  0  0  0  0  0  0
   24.7842  -38.7298  -12.8670 C   0  0  1  0  0  0  0  0  0  0  0  0
   24.9452  -40.0786  -12.1931 C   0  0  0  0  0  0  0  0  0  0  0  0
   24.3786  -41.1021  -13.1020 C   0  0  0  0  0  0  0  0  0  0  0  0
   23.2565  -40.9844  -13.6533 O   0  0  0  0  0  0  0  0  0  0  0  0
   25.1156  -37.6163  -11.9488 C   0  0  0  0  0  0  0  0  0  0  0  0
   26.2640  -37.4673  -11.4596 O   0  0  0  0  0  0  0  0  0  0  0  0
   25.0887  -42.2677  -13.3884 O   0  0  0  0  0  0  0  0  0  0  0  0
   24.1223  -36.6856  -11.6035 N   0  0  0  0  0  0  0  0  0  0  0  0
   24.3048  -35.5551  -10.7145 C   0  0  1  0  0  0  0  0  0  0  0  0
   23.2476  -34.5452  -11.0595 C   0  0  0  0  0  0  0  0  0  0  0  0
   23.4521  -33.3107  -10.2594 C   0  0  0  0  0  0  0  0  0  0  0  0
   24.4779  -33.0605   -9.3396 C   0  0  0  0  0  0  0  0  0  0  0  0
   24.3283  -31.8416   -8.8221 N   0  0  0  0  0  0  0  0  0  0  0  0
   23.2378  -31.2899   -9.3754 C   0  0  0  0  0  0  0  0  0  0  0  0
   22.7154  -32.1756  -10.2372 N   0  0  0  0  0  0  0  0  0  0  0  0
   24.2508  -36.0349   -9.3392 C   0  0  0  0  0  0  0  0  0  0  0  0
   23.3418  -36.8431   -9.0143 O   0  0  0  0  0  0  0  0  0  0  0  0
   25.2185  -35.6010   -8.3446 N   0  0  0  0  0  0  0  0  0  0  0  0
   25.0879  -36.0962   -6.9979 C   0  0  1  0  0  0  0  0  0  0  0  0
   26.3086  -35.9287   -6.1674 C   0  0  0  0  0  0  0  0  0  0  0  0
   26.2928  -36.4659   -4.8208 C   0  0  0  0  0  0  0  0  0  0  0  0
   25.3890  -37.2775   -4.1948 C   0  0  0  0  0  0  0  0  0  0  0  0
   25.8085  -37.5434   -2.9282 N   0  0  0  0  0  0  0  0  0  0  0  0
   26.9679  -36.8872   -2.8009 C   0  0  0  0  0  0  0  0  0  0  0  0
   27.2774  -36.2380   -3.9142 N   0  0  0  0  0  0  0  0  0  0  0  0
   23.8625  -35.5553   -6.3800 C   0  0  0  0  0  0  0  0  0  0  0  0
   23.0471  -36.2542   -5.5235 O   0  0  0  0  0  0  0  0  0  0  0  0
   23.5409  -34.3753   -6.6549 O   0  0  0  0  0  0  0  0  0  0  0  0
  2  1  1  6
  3  4  1  0
  3  2  1  0
  4  5  2  0
  6  2  1  0
  6  7  2  0
  8  4  1  0
  9  6  1  0
 10  9  1  0
 10 11  1  1
 11 12  1  0
 12 16  1  0
 12 13  2  0
 13 14  1  0
 15 14  1  0
 16 15  2  0
 17 10  1  0
 18 17  2  0
 19 17  1  0
 20 21  1  1
 20 19  1  0
 21 22  1  0
 22 23  2  0
 22 26  1  0
 23 24  1  0
 24 25  1  0
 26 25  2  0
 27 28  1  0
 27 20  1  0
 29 27  2  0
M  END
$$$$
