DHH.pdb
     RDKit          3D

 29 30  0  0  1  0  0  0  0  0999 V2000
   29.5188  -26.8106  -16.5453 N   0  0  0  0  0  0  0  0  0  0  0  0
   28.5122  -26.2607  -17.4573 C   0  0  1  0  0  0  0  0  0  0  0  0
   27.1680  -26.4731  -16.7885 C   0  0  0  0  0  0  0  0  0  0  0  0
   26.7929  -27.8933  -16.9816 C   0  0  0  0  0  0  0  0  0  0  0  0
   27.4861  -28.7016  -17.6472 O   0  0  0  0  0  0  0  0  0  0  0  0
   28.8151  -24.8217  -17.6321 C   0  0  0  0  0  0  0  0  0  0  0  0
   29.1626  -24.0865  -16.6734 O   0  0  0  0  0  0  0  0  0  0  0  0
   25.6236  -28.4013  -16.4164 O   0  0  0  0  0  0  0  0  0  0  0  0
   28.7157  -24.2441  -18.9082 N   0  0  0  0  0  0  0  0  0  0  0  0
   29.1082  -22.8908  -19.2491 C   0  0  1  0  0  0  0  0  0  0  0  0
   30.1378  -22.9895  -20.3386 C   0  0  0  0  0  0  0  0  0  0  0  0
   31.4235  -23.4715  -19.7725 C   0  0  0  0  0  0  0  0  0  0  0  0
   31.9937  -24.7405  -19.9318 C   0  0  0  0  0  0  0  0  0  0  0  0
   33.1525  -24.7966  -19.2762 N   0  0  0  0  0  0  0  0  0  0  0  0
   33.3554  -23.6047  -18.6950 C   0  0  0  0  0  0  0  0  0  0  0  0
   32.3148  -22.8129  -18.9957 N   0  0  0  0  0  0  0  0  0  0  0  0
   27.9134  -22.1418  -19.6181 C   0  0  0  0  0  0  0  0  0  0  0  0
   26.8618  -22.7760  -19.8953 O   0  0  0  0  0  0  0  0  0  0  0  0
   27.9141  -20.6888  -19.6717 N   0  0  0  0  0  0  0  0  0  0  0  0
   26.7049  -20.0163  -20.0739 C   0  0  1  0  0  0  0  0  0  0  0  0
   25.5033  -20.4065  -19.2918 C   0  0  0  0  0  0  0  0  0  0  0  0
   25.5133  -20.1595  -17.8631 C   0  0  0  0  0  0  0  0  0  0  0  0
   26.4771  -19.6210  -17.0577 C   0  0  0  0  0  0  0  0  0  0  0  0
   26.0260  -19.5620  -15.7756 N   0  0  0  0  0  0  0  0  0  0  0  0
   24.7875  -20.0675  -15.8191 C   0  0  0  0  0  0  0  0  0  0  0  0
   24.4597  -20.4305  -17.0509 N   0  0  0  0  0  0  0  0  0  0  0  0
   26.9356  -18.5605  -20.1340 C   0  0  0  0  0  0  0  0  0  0  0  0
   25.9799  -17.6327  -20.4697 O   0  0  0  0  0  0  0  0  0  0  0  0
   28.0838  -18.1387  -19.8600 O   0  0  0  0  0  0  0  0  0  0  0  0
  2  1  1  1
  3  4  1  0
  3  2  1  0
  4  5  2  0
  6  2  1  0
  6  7  2  0
  8  4  1  0
  9  6  1  0
 10  9  1  0
 10 11  1  6
 11 12  1  0
 12 16  1  0
 12 13  2  0
 13 14  1  0
 15 14  1  0
 16 15  2  0
 17 10  1  0
 18 17  2  0
 19 17  1  0
 20 21  1  1
 20 19  1  0
 21 22  1  0
 22 23  2  0
 22 26  1  0
 23 24  1  0
 24 25  1  0
 26 25  2  0
 27 28  1  0
 27 20  1  0
 29 27  2  0
M  END
$$$$
