DHH.pdb
     RDKit          3D

 29 30  0  0  1  0  0  0  0  0999 V2000
   28.3170  -19.1842  -17.0750 N   0  0  0  0  0  0  0  0  0  0  0  0
   27.1700  -18.4721  -16.5054 C   0  0  1  0  0  0  0  0  0  0  0  0
   26.3455  -17.9813  -17.6796 C   0  0  0  0  0  0  0  0  0  0  0  0
   26.9953  -16.7557  -18.1998 C   0  0  0  0  0  0  0  0  0  0  0  0
   28.0994  -16.3323  -17.7772 O   0  0  0  0  0  0  0  0  0  0  0  0
   26.4177  -19.4408  -15.6755 C   0  0  0  0  0  0  0  0  0  0  0  0
   25.8723  -20.4629  -16.1633 O   0  0  0  0  0  0  0  0  0  0  0  0
   26.3893  -16.0041  -19.2062 O   0  0  0  0  0  0  0  0  0  0  0  0
   26.3014  -19.2233  -14.2931 N   0  0  0  0  0  0  0  0  0  0  0  0
   25.5838  -20.0774  -13.3672 C   0  0  1  0  0  0  0  0  0  0  0  0
   26.1636  -19.8368  -12.0024 C   0  0  0  0  0  0  0  0  0  0  0  0
   27.5008  -20.4758  -11.9049 C   0  0  0  0  0  0  0  0  0  0  0  0
   28.1780  -21.1754  -12.9112 C   0  0  0  0  0  0  0  0  0  0  0  0
   29.3530  -21.6009  -12.4483 N   0  0  0  0  0  0  0  0  0  0  0  0
   29.4626  -21.2008  -11.1725 C   0  0  0  0  0  0  0  0  0  0  0  0
   28.3483  -20.5261  -10.8510 N   0  0  0  0  0  0  0  0  0  0  0  0
   24.1602  -19.7833  -13.4752 C   0  0  0  0  0  0  0  0  0  0  0  0
   23.7831  -18.5834  -13.4189 O   0  0  0  0  0  0  0  0  0  0  0  0
   23.1767  -20.8406  -13.6448 N   0  0  0  0  0  0  0  0  0  0  0  0
   21.7917  -20.4724  -13.7933 C   0  0  1  0  0  0  0  0  0  0  0  0
   21.2740  -20.6000  -15.1803 C   0  0  0  0  0  0  0  0  0  0  0  0
   19.8703  -20.3189  -15.4097 C   0  0  0  0  0  0  0  0  0  0  0  0
   18.8920  -19.9027  -14.5511 C   0  0  0  0  0  0  0  0  0  0  0  0
   17.7220  -19.7453  -15.2272 N   0  0  0  0  0  0  0  0  0  0  0  0
   18.0063  -20.0690  -16.4944 C   0  0  0  0  0  0  0  0  0  0  0  0
   19.2789  -20.4141  -16.6282 N   0  0  0  0  0  0  0  0  0  0  0  0
   20.9751  -21.1688  -12.7812 C   0  0  0  0  0  0  0  0  0  0  0  0
   19.8625  -20.6368  -12.1763 O   0  0  0  0  0  0  0  0  0  0  0  0
   21.3194  -22.3273  -12.4484 O   0  0  0  0  0  0  0  0  0  0  0  0
  2  1  1  6
  3  4  1  0
  3  2  1  0
  4  5  2  0
  6  2  1  0
  6  7  2  0
  8  4  1  0
  9  6  1  0
 10  9  1  0
 10 11  1  1
 11 12  1  0
 12 16  1  0
 12 13  2  0
 13 14  1  0
 15 14  1  0
 16 15  2  0
 17 10  1  0
 18 17  2  0
 19 17  1  0
 20 21  1  6
 20 19  1  0
 21 22  1  0
 22 23  2  0
 22 26  1  0
 23 24  1  0
 24 25  1  0
 26 25  2  0
 27 28  1  0
 27 20  1  0
 29 27  2  0
M  END
$$$$
