SLS.pdb
     RDKit          3D

 21 20  0  0  1  0  0  0  0  0999 V2000
   18.1943  -11.4231  -20.1194 O   0  0  0  0  0  0  0  0  0  0  0  0
   18.1057  -10.5864  -19.0250 C   0  0  0  0  0  0  0  0  0  0  0  0
   19.1163  -11.0358  -17.9996 C   0  0  2  0  0  0  0  0  0  0  0  0
   18.8464  -12.3367  -17.4736 N   0  0  0  0  0  0  0  0  0  0  0  0
   19.2801  -10.0365  -16.9089 C   0  0  0  0  0  0  0  0  0  0  0  0
   18.3625   -9.7933  -16.0830 O   0  0  0  0  0  0  0  0  0  0  0  0
   23.7122   -9.8848  -13.7455 C   0  0  0  0  0  0  0  0  0  0  0  0
   22.3050   -9.5738  -14.1435 C   0  0  1  0  0  0  0  0  0  0  0  0
   21.5726   -9.1863  -12.8586 C   0  0  0  0  0  0  0  0  0  0  0  0
   22.0828   -8.6455  -15.2443 C   0  0  0  0  0  0  0  0  0  0  0  0
   20.7525   -8.3031  -15.7664 C   0  0  2  0  0  0  0  0  0  0  0  0
   20.4929   -9.3521  -16.8063 N   0  0  0  0  0  0  0  0  0  0  0  0
   20.5937   -6.9901  -16.4081 C   0  0  0  0  0  0  0  0  0  0  0  0
   21.1926   -6.6646  -17.4619 O   0  0  0  0  0  0  0  0  0  0  0  0
   17.9738   -3.2848  -17.6505 O   0  0  0  0  0  0  0  0  0  0  0  0
   18.1772   -4.5245  -17.0797 C   0  0  0  0  0  0  0  0  0  0  0  0
   19.5625   -4.6764  -16.4966 C   0  0  2  0  0  0  0  0  0  0  0  0
   19.7388   -5.9694  -15.8815 N   0  0  0  0  0  0  0  0  0  0  0  0
   19.9462   -3.5639  -15.6174 C   0  0  0  0  0  0  0  0  0  0  0  0
   19.9610   -2.2715  -16.1208 O   0  0  0  0  0  0  0  0  0  0  0  0
   20.2675   -3.7212  -14.4130 O   0  0  0  0  0  0  0  0  0  0  0  0
  1  2  1  0
  3  5  1  0
  3  4  1  1
  3  2  1  0
  5  6  2  0
  8  7  1  1
  8 10  1  0
  9  8  1  0
 11 10  1  6
 11 13  1  0
 12 11  1  0
 12  5  1  0
 13 18  1  0
 13 14  2  0
 15 16  1  0
 17 16  1  1
 18 17  1  0
 19 20  1  0
 19 17  1  0
 21 19  2  0
M  END
$$$$
