SLS.pdb
     RDKit          3D

 21 20  0  0  1  0  0  0  0  0999 V2000
   17.6082   -6.4666  -17.4850 O   0  0  0  0  0  0  0  0  0  0  0  0
   17.9410   -7.6172  -18.1713 C   0  0  0  0  0  0  0  0  0  0  0  0
   17.7334   -8.7956  -17.2533 C   0  0  2  0  0  0  0  0  0  0  0  0
   16.3743   -8.9596  -16.8438 N   0  0  0  0  0  0  0  0  0  0  0  0
   18.6484   -8.7515  -16.0803 C   0  0  0  0  0  0  0  0  0  0  0  0
   18.2177   -8.6837  -14.8999 O   0  0  0  0  0  0  0  0  0  0  0  0
   22.8726  -10.8959  -13.5292 C   0  0  0  0  0  0  0  0  0  0  0  0
   23.1726  -10.1395  -14.7835 C   0  0  1  0  0  0  0  0  0  0  0  0
   24.2299  -10.9526  -15.5309 C   0  0  0  0  0  0  0  0  0  0  0  0
   22.0597   -9.7172  -15.6238 C   0  0  0  0  0  0  0  0  0  0  0  0
   21.0354   -8.7539  -15.1969 C   0  0  2  0  0  0  0  0  0  0  0  0
   20.0260   -8.7868  -16.3056 N   0  0  0  0  0  0  0  0  0  0  0  0
   21.4531   -7.3562  -15.0154 C   0  0  0  0  0  0  0  0  0  0  0  0
   22.1190   -6.9620  -14.0272 O   0  0  0  0  0  0  0  0  0  0  0  0
   21.9990   -2.9637  -17.1412 O   0  0  0  0  0  0  0  0  0  0  0  0
   21.5489   -4.2667  -17.2020 C   0  0  0  0  0  0  0  0  0  0  0  0
   21.6489   -4.9794  -15.8739 C   0  0  2  0  0  0  0  0  0  0  0  0
   21.1333   -6.3244  -15.9550 N   0  0  0  0  0  0  0  0  0  0  0  0
   21.0786   -4.2109  -14.7595 C   0  0  0  0  0  0  0  0  0  0  0  0
   21.9248   -3.5194  -13.9053 O   0  0  0  0  0  0  0  0  0  0  0  0
   19.8446   -4.1441  -14.5332 O   0  0  0  0  0  0  0  0  0  0  0  0
  1  2  1  0
  3  5  1  0
  3  4  1  1
  3  2  1  0
  5  6  2  0
  8  7  1  1
  8 10  1  0
  9  8  1  0
 11 10  1  6
 11 13  1  0
 12 11  1  0
 12  5  1  0
 13 18  1  0
 13 14  2  0
 15 16  1  0
 17 16  1  6
 18 17  1  0
 19 20  1  0
 19 17  1  0
 21 19  2  0
M  END
$$$$
