SLS.pdb
     RDKit          3D

 21 20  0  0  1  0  0  0  0  0999 V2000
   17.5139   -9.1957  -19.7435 O   0  0  0  0  0  0  0  0  0  0  0  0
   18.8030   -9.5954  -20.0332 C   0  0  0  0  0  0  0  0  0  0  0  0
   19.2610  -10.5438  -18.9537 C   0  0  2  0  0  0  0  0  0  0  0  0
   18.3393  -11.6080  -18.7091 N   0  0  0  0  0  0  0  0  0  0  0  0
   19.6029   -9.8266  -17.6952 C   0  0  0  0  0  0  0  0  0  0  0  0
   18.7242   -9.4835  -16.8626 O   0  0  0  0  0  0  0  0  0  0  0  0
   22.0442  -10.7788  -13.8632 C   0  0  0  0  0  0  0  0  0  0  0  0
   23.0275   -9.8975  -14.5645 C   0  0  1  0  0  0  0  0  0  0  0  0
   24.3693  -10.6286  -14.5141 C   0  0  0  0  0  0  0  0  0  0  0  0
   22.6877   -9.3922  -15.8881 C   0  0  0  0  0  0  0  0  0  0  0  0
   21.3935   -8.7801  -16.2198 C   0  0  2  0  0  0  0  0  0  0  0  0
   20.9429   -9.5292  -17.4384 N   0  0  0  0  0  0  0  0  0  0  0  0
   21.3858   -7.3474  -16.5488 C   0  0  0  0  0  0  0  0  0  0  0  0
   21.8691   -6.8847  -17.6106 O   0  0  0  0  0  0  0  0  0  0  0  0
   19.2967   -3.0352  -15.9564 O   0  0  0  0  0  0  0  0  0  0  0  0
   19.3697   -4.3966  -15.7432 C   0  0  0  0  0  0  0  0  0  0  0  0
   20.7480   -4.9542  -16.0099 C   0  0  2  0  0  0  0  0  0  0  0  0
   20.8240   -6.3569  -15.6810 N   0  0  0  0  0  0  0  0  0  0  0  0
   21.8224   -4.1608  -15.3984 C   0  0  0  0  0  0  0  0  0  0  0  0
   22.1689   -2.9389  -15.9559 O   0  0  0  0  0  0  0  0  0  0  0  0
   22.4563   -4.5345  -14.3800 O   0  0  0  0  0  0  0  0  0  0  0  0
  1  2  1  0
  3  5  1  0
  3  4  1  1
  3  2  1  0
  5  6  2  0
  8  7  1  6
  8 10  1  0
  9  8  1  0
 11 10  1  6
 11 13  1  0
 12 11  1  0
 12  5  1  0
 13 18  1  0
 13 14  2  0
 15 16  1  0
 17 16  1  1
 18 17  1  0
 19 20  1  0
 19 17  1  0
 21 19  2  0
M  END
$$$$
