SLS.pdb
     RDKit          3D

 21 20  0  0  1  0  0  0  0  0999 V2000
   19.5517  -11.8707  -20.1801 O   0  0  0  0  0  0  0  0  0  0  0  0
   20.0044  -11.2492  -19.0337 C   0  0  0  0  0  0  0  0  0  0  0  0
   21.0892  -12.1029  -18.4264 C   0  0  2  0  0  0  0  0  0  0  0  0
   20.6203  -13.3752  -17.9757 N   0  0  0  0  0  0  0  0  0  0  0  0
   21.8201  -11.3844  -17.3472 C   0  0  0  0  0  0  0  0  0  0  0  0
   21.4043  -11.3621  -16.1598 O   0  0  0  0  0  0  0  0  0  0  0  0
   26.3953   -9.9865  -14.7204 C   0  0  0  0  0  0  0  0  0  0  0  0
   26.3348   -9.8105  -16.2038 C   0  0  1  0  0  0  0  0  0  0  0  0
   27.6793  -10.2949  -16.7473 C   0  0  0  0  0  0  0  0  0  0  0  0
   25.1871  -10.3493  -16.9217 C   0  0  0  0  0  0  0  0  0  0  0  0
   23.7998   -9.9355  -16.6693 C   0  0  2  0  0  0  0  0  0  0  0  0
   23.0031  -10.7170  -17.6711 N   0  0  0  0  0  0  0  0  0  0  0  0
   23.4729   -8.5138  -16.8508 C   0  0  0  0  0  0  0  0  0  0  0  0
   23.4288   -7.9582  -17.9753 O   0  0  0  0  0  0  0  0  0  0  0  0
   22.1209   -4.2799  -14.7382 O   0  0  0  0  0  0  0  0  0  0  0  0
   22.3214   -5.6420  -14.6448 C   0  0  0  0  0  0  0  0  0  0  0  0
   22.9177   -6.2299  -15.9021 C   0  0  2  0  0  0  0  0  0  0  0  0
   23.1768   -7.6415  -15.7548 N   0  0  0  0  0  0  0  0  0  0  0  0
   24.0796   -5.4803  -16.3978 C   0  0  0  0  0  0  0  0  0  0  0  0
   25.3422   -5.7771  -15.9064 O   0  0  0  0  0  0  0  0  0  0  0  0
   23.9913   -4.5687  -17.2579 O   0  0  0  0  0  0  0  0  0  0  0  0
  1  2  1  0
  3  5  1  0
  3  4  1  1
  3  2  1  0
  5  6  2  0
  8  7  1  1
  8 10  1  0
  9  8  1  0
 11 10  1  6
 11 13  1  0
 12 11  1  0
 12  5  1  0
 13 18  1  0
 13 14  2  0
 15 16  1  0
 17 16  1  1
 18 17  1  0
 19 20  1  0
 19 17  1  0
 21 19  2  0
M  END
$$$$
