SLS.pdb
     RDKit          3D

 21 20  0  0  1  0  0  0  0  0999 V2000
   19.0002  -10.9575  -17.3751 O   0  0  0  0  0  0  0  0  0  0  0  0
   19.8977  -10.8293  -18.4160 C   0  0  0  0  0  0  0  0  0  0  0  0
   21.2101  -11.4383  -17.9903 C   0  0  2  0  0  0  0  0  0  0  0  0
   21.0965  -12.8081  -17.5998 N   0  0  0  0  0  0  0  0  0  0  0  0
   21.8787  -10.6301  -16.9343 C   0  0  0  0  0  0  0  0  0  0  0  0
   21.5434  -10.7051  -15.7238 O   0  0  0  0  0  0  0  0  0  0  0  0
   27.2386  -10.4475  -16.5550 C   0  0  0  0  0  0  0  0  0  0  0  0
   25.8196  -10.2775  -16.1159 C   0  0  1  0  0  0  0  0  0  0  0  0
   25.8318  -10.3567  -14.5891 C   0  0  0  0  0  0  0  0  0  0  0  0
   25.0617   -9.1469  -16.6355 C   0  0  0  0  0  0  0  0  0  0  0  0
   23.6461   -8.9027  -16.3257 C   0  0  2  0  0  0  0  0  0  0  0  0
   22.9090   -9.7645  -17.3071 N   0  0  0  0  0  0  0  0  0  0  0  0
   23.1467   -7.5282  -16.4761 C   0  0  0  0  0  0  0  0  0  0  0  0
   23.0836   -6.9385  -17.5822 O   0  0  0  0  0  0  0  0  0  0  0  0
   19.8637   -6.1054  -15.2417 O   0  0  0  0  0  0  0  0  0  0  0  0
   20.8455   -5.2661  -14.7561 C   0  0  0  0  0  0  0  0  0  0  0  0
   22.1540   -5.4117  -15.4968 C   0  0  2  0  0  0  0  0  0  0  0  0
   22.6892   -6.7453  -15.3682 N   0  0  0  0  0  0  0  0  0  0  0  0
   23.1292   -4.3656  -15.1614 C   0  0  0  0  0  0  0  0  0  0  0  0
   24.3982   -4.7285  -14.7353 O   0  0  0  0  0  0  0  0  0  0  0  0
   22.8726   -3.1382  -15.2406 O   0  0  0  0  0  0  0  0  0  0  0  0
  1  2  1  0
  3  5  1  0
  3  4  1  1
  3  2  1  0
  5  6  2  0
  8  7  1  1
  8 10  1  0
  9  8  1  0
 11 10  1  6
 11 13  1  0
 12 11  1  0
 12  5  1  0
 13 18  1  0
 13 14  2  0
 15 16  1  0
 17 16  1  1
 18 17  1  0
 19 20  1  0
 19 17  1  0
 21 19  2  0
M  END
$$$$
