SLS.pdb
     RDKit          3D

 21 20  0  0  1  0  0  0  0  0999 V2000
   18.6221   -9.7833  -20.5660 O   0  0  0  0  0  0  0  0  0  0  0  0
   18.7942   -9.1664  -19.3432 C   0  0  0  0  0  0  0  0  0  0  0  0
   19.0507  -10.2303  -18.3054 C   0  0  2  0  0  0  0  0  0  0  0  0
   17.8950  -11.0142  -18.0032 N   0  0  0  0  0  0  0  0  0  0  0  0
   19.6562   -9.6635  -17.0696 C   0  0  0  0  0  0  0  0  0  0  0  0
   18.9586   -9.3285  -16.0775 O   0  0  0  0  0  0  0  0  0  0  0  0
   24.5270  -11.4524  -15.1587 C   0  0  0  0  0  0  0  0  0  0  0  0
   23.1675  -10.8313  -15.1936 C   0  0  1  0  0  0  0  0  0  0  0  0
   22.6114  -10.9388  -13.7735 C   0  0  0  0  0  0  0  0  0  0  0  0
   23.0242   -9.5042  -15.7775 C   0  0  0  0  0  0  0  0  0  0  0  0
   21.7405   -8.7982  -15.8926 C   0  0  2  0  0  0  0  0  0  0  0  0
   21.0423   -9.5021  -17.0179 N   0  0  0  0  0  0  0  0  0  0  0  0
   21.7818   -7.3657  -16.2198 C   0  0  0  0  0  0  0  0  0  0  0  0
   21.7939   -6.9310  -17.3972 O   0  0  0  0  0  0  0  0  0  0  0  0
   20.2737   -3.2906  -16.5474 O   0  0  0  0  0  0  0  0  0  0  0  0
   20.4241   -4.6350  -16.2751 C   0  0  0  0  0  0  0  0  0  0  0  0
   21.6897   -4.9351  -15.5069 C   0  0  2  0  0  0  0  0  0  0  0  0
   21.8120   -6.3433  -15.2180 N   0  0  0  0  0  0  0  0  0  0  0  0
   21.8619   -4.0872  -14.3198 C   0  0  0  0  0  0  0  0  0  0  0  0
   22.0582   -2.7234  -14.4793 O   0  0  0  0  0  0  0  0  0  0  0  0
   21.8408   -4.5371  -13.1469 O   0  0  0  0  0  0  0  0  0  0  0  0
  1  2  1  0
  3  5  1  0
  3  4  1  1
  3  2  1  0
  5  6  2  0
  8  7  1  1
  8 10  1  0
  9  8  1  0
 11 10  1  6
 11 13  1  0
 12 11  1  0
 12  5  1  0
 13 18  1  0
 13 14  2  0
 15 16  1  0
 17 16  1  1
 18 17  1  0
 19 20  1  0
 19 17  1  0
 21 19  2  0
M  END
$$$$
