SLS.pdb
     RDKit          3D

 21 20  0  0  1  0  0  0  0  0999 V2000
   -4.3190   -9.5727  -33.8894 O   0  0  0  0  0  0  0  0  0  0  0  0
   -5.3076   -9.6945  -34.8451 C   0  0  0  0  0  0  0  0  0  0  0  0
   -4.7887  -10.5713  -35.9572 C   0  0  2  0  0  0  0  0  0  0  0  0
   -3.4548  -10.2485  -36.3548 N   0  0  0  0  0  0  0  0  0  0  0  0
   -5.7108  -10.5875  -37.1254 C   0  0  0  0  0  0  0  0  0  0  0  0
   -6.0339   -9.5355  -37.7353 O   0  0  0  0  0  0  0  0  0  0  0  0
  -10.1934  -14.2944  -38.0393 C   0  0  0  0  0  0  0  0  0  0  0  0
   -9.6712  -13.2234  -37.1362 C   0  0  1  0  0  0  0  0  0  0  0  0
  -10.2099  -13.5401  -35.7408 C   0  0  0  0  0  0  0  0  0  0  0  0
   -8.2442  -12.9302  -37.1579 C   0  0  0  0  0  0  0  0  0  0  0  0
   -7.6231  -11.9693  -38.0802 C   0  0  2  0  0  0  0  0  0  0  0  0
   -6.2286  -11.8124  -37.5511 N   0  0  0  0  0  0  0  0  0  0  0  0
   -8.2209  -10.6291  -38.1663 C   0  0  0  0  0  0  0  0  0  0  0  0
   -7.6526   -9.5956  -37.7371 O   0  0  0  0  0  0  0  0  0  0  0  0
  -10.9603   -8.2010  -41.2125 O   0  0  0  0  0  0  0  0  0  0  0  0
  -10.9975   -9.2350  -40.2995 C   0  0  0  0  0  0  0  0  0  0  0  0
   -9.9436   -9.1011  -39.2256 C   0  0  2  0  0  0  0  0  0  0  0  0
   -9.5067  -10.3909  -38.7492 N   0  0  0  0  0  0  0  0  0  0  0  0
  -10.3331   -8.1892  -38.1418 C   0  0  0  0  0  0  0  0  0  0  0  0
  -11.6538   -8.1581  -37.7192 O   0  0  0  0  0  0  0  0  0  0  0  0
   -9.5215   -7.4221  -37.5661 O   0  0  0  0  0  0  0  0  0  0  0  0
  1  2  1  0
  3  5  1  0
  3  4  1  6
  3  2  1  0
  5  6  2  0
  8  7  1  6
  8 10  1  0
  9  8  1  0
 11 10  1  1
 11 13  1  0
 12 11  1  0
 12  5  1  0
 13 18  1  0
 13 14  2  0
 15 16  1  0
 17 16  1  6
 18 17  1  0
 19 20  1  0
 19 17  1  0
 21 19  2  0
M  END
$$$$
