SLS.pdb
     RDKit          3D

 21 20  0  0  1  0  0  0  0  0999 V2000
   17.7647  -32.6428   -9.3197 O   0  0  0  0  0  0  0  0  0  0  0  0
   18.8775  -32.5186   -8.5124 C   0  0  0  0  0  0  0  0  0  0  0  0
   20.1068  -32.5791   -9.3840 C   0  0  2  0  0  0  0  0  0  0  0  0
   19.8170  -32.8923  -10.7477 N   0  0  0  0  0  0  0  0  0  0  0  0
   21.1360  -33.4985   -8.8265 C   0  0  0  0  0  0  0  0  0  0  0  0
   20.9897  -34.7482   -8.8353 O   0  0  0  0  0  0  0  0  0  0  0  0
   26.6159  -32.1323   -9.1948 C   0  0  0  0  0  0  0  0  0  0  0  0
   25.4521  -33.0635   -9.0766 C   0  0  1  0  0  0  0  0  0  0  0  0
   26.0015  -34.4685   -9.3249 C   0  0  0  0  0  0  0  0  0  0  0  0
   24.6033  -32.9691   -7.8962 C   0  0  0  0  0  0  0  0  0  0  0  0
   23.3967  -33.7828   -7.6923 C   0  0  2  0  0  0  0  0  0  0  0  0
   22.2968  -32.9487   -8.2787 N   0  0  0  0  0  0  0  0  0  0  0  0
   23.0224  -34.1048   -6.3076 C   0  0  0  0  0  0  0  0  0  0  0  0
   22.6503  -33.2392   -5.4786 O   0  0  0  0  0  0  0  0  0  0  0  0
   20.5665  -36.7764   -5.0387 O   0  0  0  0  0  0  0  0  0  0  0  0
   21.7734  -36.9934   -4.4059 C   0  0  0  0  0  0  0  0  0  0  0  0
   22.6738  -35.7808   -4.4385 C   0  0  2  0  0  0  0  0  0  0  0  0
   23.0518  -35.4386   -5.7880 N   0  0  0  0  0  0  0  0  0  0  0  0
   23.8222  -35.8873   -3.5287 C   0  0  0  0  0  0  0  0  0  0  0  0
   23.6035  -36.1321   -2.1811 O   0  0  0  0  0  0  0  0  0  0  0  0
   25.0130  -35.7667   -3.9107 O   0  0  0  0  0  0  0  0  0  0  0  0
  1  2  1  0
  3  5  1  0
  3  4  1  6
  3  2  1  0
  5  6  2  0
  8  7  1  1
  8 10  1  0
  9  8  1  0
 11 10  1  1
 11 13  1  0
 12 11  1  0
 12  5  1  0
 13 18  1  0
 13 14  2  0
 15 16  1  0
 17 16  1  6
 18 17  1  0
 19 20  1  0
 19 17  1  0
 21 19  2  0
M  END
$$$$
