SLS.pdb
     RDKit          3D

 21 20  0  0  1  0  0  0  0  0999 V2000
   20.0047  -22.7469  -14.7584 O   0  0  0  0  0  0  0  0  0  0  0  0
   20.9232  -21.7164  -14.7637 C   0  0  0  0  0  0  0  0  0  0  0  0
   21.2186  -21.3349  -13.3348 C   0  0  2  0  0  0  0  0  0  0  0  0
   20.1027  -20.7436  -12.6662 N   0  0  0  0  0  0  0  0  0  0  0  0
   22.4280  -20.4738  -13.2304 C   0  0  0  0  0  0  0  0  0  0  0  0
   22.3567  -19.2177  -13.2483 O   0  0  0  0  0  0  0  0  0  0  0  0
   26.3373  -21.9951   -9.7160 C   0  0  0  0  0  0  0  0  0  0  0  0
   25.4702  -21.1412  -10.5846 C   0  0  1  0  0  0  0  0  0  0  0  0
   25.4368  -19.7600   -9.9297 C   0  0  0  0  0  0  0  0  0  0  0  0
   25.7430  -21.1022  -12.0152 C   0  0  0  0  0  0  0  0  0  0  0  0
   24.9554  -20.3152  -12.9744 C   0  0  2  0  0  0  0  0  0  0  0  0
   23.6766  -21.0871  -13.1091 N   0  0  0  0  0  0  0  0  0  0  0  0
   25.5123  -20.1358  -14.3230 C   0  0  0  0  0  0  0  0  0  0  0  0
   25.3760  -20.9823  -15.2396 O   0  0  0  0  0  0  0  0  0  0  0  0
   28.1617  -17.2836  -17.3439 O   0  0  0  0  0  0  0  0  0  0  0  0
   27.5467  -17.4603  -16.1213 C   0  0  0  0  0  0  0  0  0  0  0  0
   26.8518  -18.7967  -16.0072 C   0  0  2  0  0  0  0  0  0  0  0  0
   26.2597  -18.9756  -14.7039 N   0  0  0  0  0  0  0  0  0  0  0  0
   27.6976  -19.9263  -16.4149 C   0  0  0  0  0  0  0  0  0  0  0  0
   27.7124  -20.3214  -17.7444 O   0  0  0  0  0  0  0  0  0  0  0  0
   28.4215  -20.5659  -15.6114 O   0  0  0  0  0  0  0  0  0  0  0  0
  1  2  1  0
  3  5  1  0
  3  4  1  6
  3  2  1  0
  5  6  2  0
  8  7  1  1
  8 10  1  0
  9  8  1  0
 11 10  1  1
 11 13  1  0
 12 11  1  0
 12  5  1  0
 13 18  1  0
 13 14  2  0
 15 16  1  0
 17 16  1  1
 18 17  1  0
 19 20  1  0
 19 17  1  0
 21 19  2  0
M  END
$$$$
