SLS.pdb
     RDKit          3D

 21 20  0  0  1  0  0  0  0  0999 V2000
   17.2945  -11.4091  -18.6433 O   0  0  0  0  0  0  0  0  0  0  0  0
   17.9310  -10.7815  -17.5914 C   0  0  0  0  0  0  0  0  0  0  0  0
   19.0291  -11.6864  -17.0916 C   0  0  2  0  0  0  0  0  0  0  0  0
   18.5417  -12.8961  -16.5077 N   0  0  0  0  0  0  0  0  0  0  0  0
   19.9541  -10.9759  -16.1671 C   0  0  0  0  0  0  0  0  0  0  0  0
   19.6271  -10.6876  -14.9868 O   0  0  0  0  0  0  0  0  0  0  0  0
   25.2227  -12.4499  -16.0526 C   0  0  0  0  0  0  0  0  0  0  0  0
   23.9182  -11.8768  -15.5997 C   0  0  1  0  0  0  0  0  0  0  0  0
   23.9321  -11.9363  -14.0720 C   0  0  0  0  0  0  0  0  0  0  0  0
   23.5054  -10.5839  -16.1295 C   0  0  0  0  0  0  0  0  0  0  0  0
   22.2395   -9.9252  -15.7784 C   0  0  2  0  0  0  0  0  0  0  0  0
   21.2223  -10.6220  -16.6322 N   0  0  0  0  0  0  0  0  0  0  0  0
   22.1301   -8.4831  -16.0415 C   0  0  0  0  0  0  0  0  0  0  0  0
   21.9699   -8.0057  -17.1911 O   0  0  0  0  0  0  0  0  0  0  0  0
   20.3197   -4.4947  -15.9501 O   0  0  0  0  0  0  0  0  0  0  0  0
   20.5749   -5.8364  -15.7533 C   0  0  0  0  0  0  0  0  0  0  0  0
   21.9638   -6.0920  -15.2172 C   0  0  2  0  0  0  0  0  0  0  0  0
   22.1977   -7.4994  -15.0034 N   0  0  0  0  0  0  0  0  0  0  0  0
   22.2932   -5.2694  -14.0456 C   0  0  0  0  0  0  0  0  0  0  0  0
   22.6153   -3.9318  -14.2209 O   0  0  0  0  0  0  0  0  0  0  0  0
   22.2993   -5.7187  -12.8723 O   0  0  0  0  0  0  0  0  0  0  0  0
  1  2  1  0
  3  5  1  0
  3  4  1  1
  3  2  1  0
  5  6  2  0
  8  7  1  1
  8 10  1  0
  9  8  1  0
 11 10  1  6
 11 13  1  0
 12 11  1  0
 12  5  1  0
 13 18  1  0
 13 14  2  0
 15 16  1  0
 17 16  1  1
 18 17  1  0
 19 20  1  0
 19 17  1  0
 21 19  2  0
M  END
$$$$
