SLS.pdb
     RDKit          3D

 21 20  0  0  1  0  0  0  0  0999 V2000
   16.9725   -9.3711  -19.0936 O   0  0  0  0  0  0  0  0  0  0  0  0
   17.2555   -8.6297  -17.9641 C   0  0  0  0  0  0  0  0  0  0  0  0
   17.6901   -9.5741  -16.8715 C   0  0  2  0  0  0  0  0  0  0  0  0
   16.6041  -10.2875  -16.2771 N   0  0  0  0  0  0  0  0  0  0  0  0
   18.5124   -8.8858  -15.8394 C   0  0  0  0  0  0  0  0  0  0  0  0
   18.0279   -8.5122  -14.7400 O   0  0  0  0  0  0  0  0  0  0  0  0
   23.4433  -10.7728  -14.3655 C   0  0  0  0  0  0  0  0  0  0  0  0
   22.1638  -10.0046  -14.2746 C   0  0  1  0  0  0  0  0  0  0  0  0
   21.9556   -9.6942  -12.7920 C   0  0  0  0  0  0  0  0  0  0  0  0
   21.9834   -8.8492  -15.1435 C   0  0  0  0  0  0  0  0  0  0  0  0
   20.7877   -7.9950  -15.1267 C   0  0  2  0  0  0  0  0  0  0  0  0
   19.8626   -8.6514  -16.1078 N   0  0  0  0  0  0  0  0  0  0  0  0
   20.9506   -6.5927  -15.5366 C   0  0  0  0  0  0  0  0  0  0  0  0
   21.4253   -6.2536  -16.6479 O   0  0  0  0  0  0  0  0  0  0  0  0
   19.0823   -3.2358  -13.5095 O   0  0  0  0  0  0  0  0  0  0  0  0
   19.3494   -3.3898  -14.8545 C   0  0  0  0  0  0  0  0  0  0  0  0
   20.6511   -4.1122  -15.1103 C   0  0  2  0  0  0  0  0  0  0  0  0
   20.5798   -5.4930  -14.6983 N   0  0  0  0  0  0  0  0  0  0  0  0
   21.8206   -3.4092  -14.5663 C   0  0  0  0  0  0  0  0  0  0  0  0
   22.6573   -4.0660  -13.6762 O   0  0  0  0  0  0  0  0  0  0  0  0
   22.1100   -2.2245  -14.8683 O   0  0  0  0  0  0  0  0  0  0  0  0
  1  2  1  0
  3  5  1  0
  3  4  1  1
  3  2  1  0
  5  6  2  0
  8  7  1  1
  8 10  1  0
  9  8  1  0
 11 10  1  6
 11 13  1  0
 12 11  1  0
 12  5  1  0
 13 18  1  0
 13 14  2  0
 15 16  1  0
 17 16  1  1
 18 17  1  0
 19 20  1  0
 19 17  1  0
 21 19  2  0
M  END
$$$$
