NYD.pdb
     RDKit          3D

 29 29  0  0  1  0  0  0  0  0999 V2000
   29.7719  -23.6240  -16.3678 N   0  0  0  0  0  0  0  0  0  0  0  0
   28.4867  -23.0804  -16.7242 C   0  0  0  0  0  0  0  0  0  0  0  0
   28.2718  -22.7203  -17.9002 O   0  0  0  0  0  0  0  0  0  0  0  0
   27.4803  -22.9737  -15.6815 C   0  0  0  0  0  0  0  0  0  0  0  0
   26.3809  -21.9715  -15.9606 C   0  0  2  0  0  0  0  0  0  0  0  0
   27.1196  -20.6687  -15.9391 N   0  0  0  0  0  0  0  0  0  0  0  0
   25.4979  -21.9109  -14.7734 C   0  0  0  0  0  0  0  0  0  0  0  0
   24.9448  -23.0074  -14.3977 O   0  0  0  0  0  0  0  0  0  0  0  0
   28.8163  -21.3095   -8.4110 O   0  0  0  0  0  0  0  0  0  0  0  0
   27.8280  -20.9329   -9.3112 C   0  0  0  0  0  0  0  0  0  0  0  0
   28.0686  -20.7275  -10.6540 C   0  0  0  0  0  0  0  0  0  0  0  0
   27.0192  -20.3484  -11.5012 C   0  0  0  0  0  0  0  0  0  0  0  0
   25.7446  -20.1784  -11.0038 C   0  0  0  0  0  0  0  0  0  0  0  0
   24.6593  -19.7823  -11.8888 C   0  0  0  0  0  0  0  0  0  0  0  0
   24.2369  -20.8351  -12.8964 C   0  0  2  0  0  0  0  0  0  0  0  0
   25.2036  -20.7637  -14.0023 N   0  0  0  0  0  0  0  0  0  0  0  0
   22.8417  -20.6533  -13.3358 C   0  0  0  0  0  0  0  0  0  0  0  0
   22.6256  -19.7895  -14.2226 O   0  0  0  0  0  0  0  0  0  0  0  0
   25.5274  -20.3875   -9.6662 C   0  0  0  0  0  0  0  0  0  0  0  0
   26.5475  -20.7645   -8.7979 C   0  0  0  0  0  0  0  0  0  0  0  0
   21.7238  -21.3589  -12.8542 N   0  0  0  0  0  0  0  0  0  0  0  0
   20.3603  -21.1308  -13.3178 C   0  0  1  0  0  0  0  0  0  0  0  0
   20.1291  -21.7574  -14.6540 C   0  0  0  0  0  0  0  0  0  0  0  0
   18.7373  -21.5456  -15.0861 C   0  0  0  0  0  0  0  0  0  0  0  0
   18.2974  -20.4499  -15.5096 O   0  0  0  0  0  0  0  0  0  0  0  0
   19.4535  -21.7033  -12.3147 C   0  0  0  0  0  0  0  0  0  0  0  0
   19.8300  -22.6290  -11.5645 O   0  0  0  0  0  0  0  0  0  0  0  0
   17.8540  -22.6122  -15.0256 O   0  0  0  0  0  0  0  0  0  0  0  0
   18.1694  -21.2258  -12.1837 O   0  0  0  0  0  0  0  0  0  0  0  0
  1  2  1  0
  2  3  2  0
  4  2  1  0
  4  5  1  0
  5  6  1  1
  5  7  1  0
  7  8  2  0
  9 10  1  0
 10 20  2  0
 10 11  1  0
 11 12  2  0
 12 13  1  0
 13 14  1  0
 15 14  1  1
 16  7  1  0
 16 15  1  0
 17 21  1  0
 17 15  1  0
 18 17  2  0
 19 13  2  0
 20 19  1  0
 22 26  1  0
 22 23  1  6
 22 21  1  0
 23 24  1  0
 24 28  1  0
 24 25  2  0
 26 29  1  0
 27 26  2  0
M  END
$$$$
