NYD.pdb
     RDKit          3D

 29 29  0  0  1  0  0  0  0  0999 V2000
   16.4174  -17.4940  -16.4778 N   0  0  0  0  0  0  0  0  0  0  0  0
   17.5241  -17.3689  -15.5646 C   0  0  0  0  0  0  0  0  0  0  0  0
   17.5215  -18.0164  -14.4971 O   0  0  0  0  0  0  0  0  0  0  0  0
   18.6127  -16.4797  -15.9327 C   0  0  0  0  0  0  0  0  0  0  0  0
   18.4141  -15.7397  -17.2380 C   0  0  2  0  0  0  0  0  0  0  0  0
   18.8366  -16.7573  -18.2528 N   0  0  0  0  0  0  0  0  0  0  0  0
   19.4449  -14.6806  -17.3310 C   0  0  0  0  0  0  0  0  0  0  0  0
   20.4989  -14.8238  -16.6114 O   0  0  0  0  0  0  0  0  0  0  0  0
   23.0507  -16.8259  -22.2929 O   0  0  0  0  0  0  0  0  0  0  0  0
   22.5581  -15.7154  -21.6198 C   0  0  0  0  0  0  0  0  0  0  0  0
   23.3434  -14.9023  -20.8289 C   0  0  0  0  0  0  0  0  0  0  0  0
   22.7741  -13.7985  -20.1807 C   0  0  0  0  0  0  0  0  0  0  0  0
   21.4324  -13.5165  -20.3265 C   0  0  0  0  0  0  0  0  0  0  0  0
   20.8466  -12.3696  -19.6486 C   0  0  0  0  0  0  0  0  0  0  0  0
   20.5242  -12.5874  -18.1822 C   0  0  2  0  0  0  0  0  0  0  0  0
   19.3906  -13.5233  -18.1403 N   0  0  0  0  0  0  0  0  0  0  0  0
   20.2532  -11.3199  -17.4803 C   0  0  0  0  0  0  0  0  0  0  0  0
   19.0725  -10.8904  -17.5032 O   0  0  0  0  0  0  0  0  0  0  0  0
   20.6700  -14.3376  -21.1170 C   0  0  0  0  0  0  0  0  0  0  0  0
   21.2043  -15.4416  -21.7743 C   0  0  0  0  0  0  0  0  0  0  0  0
   21.1960  -10.5420  -16.7832 N   0  0  0  0  0  0  0  0  0  0  0  0
   20.8847   -9.2654  -16.1513 C   0  0  1  0  0  0  0  0  0  0  0  0
   21.9656   -8.8485  -15.2082 C   0  0  0  0  0  0  0  0  0  0  0  0
   21.6499   -7.5394  -14.6122 C   0  0  0  0  0  0  0  0  0  0  0  0
   22.0562   -6.4463  -15.0743 O   0  0  0  0  0  0  0  0  0  0  0  0
   20.7217   -8.2734  -17.2215 C   0  0  0  0  0  0  0  0  0  0  0  0
   21.4041   -8.3397  -18.2662 O   0  0  0  0  0  0  0  0  0  0  0  0
   20.8585   -7.5016  -13.4747 O   0  0  0  0  0  0  0  0  0  0  0  0
   19.8093   -7.2514  -17.0906 O   0  0  0  0  0  0  0  0  0  0  0  0
  1  2  1  0
  2  3  2  0
  4  2  1  0
  4  5  1  0
  5  6  1  6
  5  7  1  0
  7  8  2  0
  9 10  1  0
 10 20  2  0
 10 11  1  0
 11 12  2  0
 12 13  1  0
 13 14  1  0
 15 14  1  6
 16  7  1  0
 16 15  1  0
 17 21  1  0
 17 15  1  0
 18 17  2  0
 19 13  2  0
 20 19  1  0
 22 26  1  0
 22 23  1  1
 22 21  1  0
 23 24  1  0
 24 28  1  0
 24 25  2  0
 26 29  1  0
 27 26  2  0
M  END
$$$$
