NYD.pdb
     RDKit          3D

 29 29  0  0  1  0  0  0  0  0999 V2000
   14.9930  -11.6813  -17.6313 N   0  0  0  0  0  0  0  0  0  0  0  0
   15.2305  -10.6223  -16.6846 C   0  0  0  0  0  0  0  0  0  0  0  0
   14.3488   -9.7609  -16.4857 O   0  0  0  0  0  0  0  0  0  0  0  0
   16.5074  -10.6032  -15.9912 C   0  0  0  0  0  0  0  0  0  0  0  0
   17.4540  -11.7206  -16.3736 C   0  0  2  0  0  0  0  0  0  0  0  0
   17.0802  -12.8038  -15.4089 N   0  0  0  0  0  0  0  0  0  0  0  0
   18.8227  -11.3264  -15.9685 C   0  0  0  0  0  0  0  0  0  0  0  0
   19.0894  -11.3416  -14.7124 O   0  0  0  0  0  0  0  0  0  0  0  0
   27.5274   -9.8204  -15.7039 O   0  0  0  0  0  0  0  0  0  0  0  0
   26.2202  -10.1905  -15.9925 C   0  0  0  0  0  0  0  0  0  0  0  0
   25.4654  -10.9997  -15.1688 C   0  0  0  0  0  0  0  0  0  0  0  0
   24.1520  -11.3300  -15.5276 C   0  0  0  0  0  0  0  0  0  0  0  0
   23.6055  -10.8521  -16.6997 C   0  0  0  0  0  0  0  0  0  0  0  0
   22.2413  -11.2008  -17.0678 C   0  0  0  0  0  0  0  0  0  0  0  0
   21.1613  -10.4860  -16.2775 C   0  0  2  0  0  0  0  0  0  0  0  0
   19.8749  -10.9382  -16.8283 N   0  0  0  0  0  0  0  0  0  0  0  0
   21.3237   -9.0216  -16.3162 C   0  0  0  0  0  0  0  0  0  0  0  0
   21.0599   -8.4417  -17.3995 O   0  0  0  0  0  0  0  0  0  0  0  0
   24.3731  -10.0496  -17.5039 C   0  0  0  0  0  0  0  0  0  0  0  0
   25.6805   -9.7028  -17.1767 C   0  0  0  0  0  0  0  0  0  0  0  0
   21.7478   -8.2075  -15.2499 N   0  0  0  0  0  0  0  0  0  0  0  0
   21.8234   -6.7531  -15.3211 C   0  0  1  0  0  0  0  0  0  0  0  0
   21.9998   -6.1514  -13.9652 C   0  0  0  0  0  0  0  0  0  0  0  0
   22.0301   -4.6819  -14.0559 C   0  0  0  0  0  0  0  0  0  0  0  0
   21.0546   -3.9855  -14.4258 O   0  0  0  0  0  0  0  0  0  0  0  0
   22.9586   -6.4140  -16.1886 C   0  0  0  0  0  0  0  0  0  0  0  0
   24.1175   -6.7823  -15.9008 O   0  0  0  0  0  0  0  0  0  0  0  0
   23.1995   -4.0200  -13.7151 O   0  0  0  0  0  0  0  0  0  0  0  0
   22.7626   -5.6832  -17.3381 O   0  0  0  0  0  0  0  0  0  0  0  0
  1  2  1  0
  2  3  2  0
  4  2  1  0
  4  5  1  0
  5  6  1  1
  5  7  1  0
  7  8  2  0
  9 10  1  0
 10 20  2  0
 10 11  1  0
 11 12  2  0
 12 13  1  0
 13 14  1  0
 15 14  1  6
 16  7  1  0
 16 15  1  0
 17 21  1  0
 17 15  1  0
 18 17  2  0
 19 13  2  0
 20 19  1  0
 22 26  1  0
 22 23  1  1
 22 21  1  0
 23 24  1  0
 24 28  1  0
 24 25  2  0
 26 29  1  0
 27 26  2  0
M  END
$$$$
