WQP.pdb
     RDKit          3D

 31 33  0  0  1  0  0  0  0  0999 V2000
    6.1757  -18.7589   25.2308 N   0  0  0  0  0  0  0  0  0  0  0  0
    6.4609  -17.3990   24.9294 C   0  0  1  0  0  0  0  0  0  0  0  0
    7.0501  -16.5895   26.0402 C   0  0  0  0  0  0  0  0  0  0  0  0
    6.4035  -15.2662   26.2295 C   0  0  0  0  0  0  0  0  0  0  0  0
    5.0323  -15.0204   26.3371 C   0  0  0  0  0  0  0  0  0  0  0  0
    4.8378  -13.7050   26.5156 N   0  0  0  0  0  0  0  0  0  0  0  0
    6.0275  -13.0471   26.5327 C   0  0  0  0  0  0  0  0  0  0  0  0
    6.3384  -11.7105   26.6803 C   0  0  0  0  0  0  0  0  0  0  0  0
    7.6502  -11.2973   26.6536 C   0  0  0  0  0  0  0  0  0  0  0  0
    8.6338  -12.2459   26.4774 C   0  0  0  0  0  0  0  0  0  0  0  0
    8.2977  -13.5908   26.3303 C   0  0  0  0  0  0  0  0  0  0  0  0
    6.9877  -14.0240   26.3547 C   0  0  0  0  0  0  0  0  0  0  0  0
    7.3801  -17.2986   23.7668 C   0  0  0  0  0  0  0  0  0  0  0  0
    8.2125  -18.2189   23.5864 O   0  0  0  0  0  0  0  0  0  0  0  0
    7.4711  -12.6808   19.5046 N   0  0  0  0  0  0  0  0  0  0  0  0
    8.3644  -13.5749   18.8824 C   0  0  0  0  0  0  0  0  0  0  0  0
    8.9015  -13.3910   17.7673 O   0  0  0  0  0  0  0  0  0  0  0  0
    8.6819  -14.8292   19.6216 C   0  0  0  0  0  0  0  0  0  0  0  0
    7.8657  -14.9172   20.8962 C   0  0  0  0  0  0  0  0  0  0  0  0
    8.1609  -16.2014   21.6248 C   0  0  2  0  0  0  0  0  0  0  0  0
    7.3718  -16.2188   22.8449 N   0  0  0  0  0  0  0  0  0  0  0  0
    9.5717  -16.3936   21.9731 C   0  0  0  0  0  0  0  0  0  0  0  0
   10.0399  -15.8468   23.0357 O   0  0  0  0  0  0  0  0  0  0  0  0
   10.4491  -17.1568   21.1956 N   0  0  0  0  0  0  0  0  0  0  0  0
   10.1624  -17.8799   19.9669 C   0  0  0  0  0  0  0  0  0  0  0  0
   10.9781  -19.1289   20.1836 C   0  0  0  0  0  0  0  0  0  0  0  0
   12.2714  -18.6164   20.7437 C   0  0  0  0  0  0  0  0  0  0  0  0
   11.8652  -17.3794   21.5026 C   0  0  1  0  0  0  0  0  0  0  0  0
   12.7196  -16.2737   21.0121 C   0  0  0  0  0  0  0  0  0  0  0  0
   12.2992  -15.6315   20.0162 O   0  0  0  0  0  0  0  0  0  0  0  0
   13.9274  -15.8970   21.5529 O   0  0  0  0  0  0  0  0  0  0  0  0
  2 13  1  0
  2  1  1  1
  3  2  1  0
  4  3  1  0
  4  5  2  0
  6  5  1  0
  7  6  1  0
  8  7  2  0
  9  8  1  0
 10  9  2  0
 10 11  1  0
 11 12  2  0
 12  7  1  0
 12  4  1  0
 13 14  2  0
 16 15  1  0
 16 17  2  0
 18 16  1  0
 19 18  1  0
 20 19  1  1
 20 22  1  0
 21 20  1  0
 21 13  1  0
 22 23  2  0
 24 22  1  0
 24 28  1  0
 25 26  1  0
 25 24  1  0
 26 27  1  0
 27 28  1  0
 28 29  1  6
 29 30  2  0
 29 31  1  0
M  END
$$$$
