WQP.pdb
     RDKit          3D

 31 33  0  0  1  0  0  0  0  0999 V2000
    5.7878  -18.7691   21.1571 N   0  0  0  0  0  0  0  0  0  0  0  0
    6.4698  -17.5690   21.4974 C   0  0  1  0  0  0  0  0  0  0  0  0
    5.9802  -16.3233   20.8304 C   0  0  0  0  0  0  0  0  0  0  0  0
    6.9962  -15.6590   19.9751 C   0  0  0  0  0  0  0  0  0  0  0  0
    7.7015  -16.2420   18.9192 C   0  0  0  0  0  0  0  0  0  0  0  0
    8.5161  -15.3230   18.3790 N   0  0  0  0  0  0  0  0  0  0  0  0
    8.3907  -14.1360   19.0298 C   0  0  0  0  0  0  0  0  0  0  0  0
    9.0113  -12.9166   18.8485 C   0  0  0  0  0  0  0  0  0  0  0  0
    8.7023  -11.8538   19.6654 C   0  0  0  0  0  0  0  0  0  0  0  0
    7.7658  -12.0398   20.6587 C   0  0  0  0  0  0  0  0  0  0  0  0
    7.1510  -13.2799   20.8243 C   0  0  0  0  0  0  0  0  0  0  0  0
    7.4477  -14.3573   20.0146 C   0  0  0  0  0  0  0  0  0  0  0  0
    6.4280  -17.3367   22.9640 C   0  0  0  0  0  0  0  0  0  0  0  0
    5.3109  -17.1619   23.5062 O   0  0  0  0  0  0  0  0  0  0  0  0
    6.4196  -20.9667   27.7606 N   0  0  0  0  0  0  0  0  0  0  0  0
    7.2797  -19.8597   27.6214 C   0  0  0  0  0  0  0  0  0  0  0  0
    8.3884  -19.7383   28.1887 O   0  0  0  0  0  0  0  0  0  0  0  0
    6.8186  -18.7598   26.7283 C   0  0  0  0  0  0  0  0  0  0  0  0
    7.9929  -18.1413   25.9953 C   0  0  0  0  0  0  0  0  0  0  0  0
    7.5471  -16.9438   25.1989 C   0  0  2  0  0  0  0  0  0  0  0  0
    7.5818  -17.3010   23.7908 N   0  0  0  0  0  0  0  0  0  0  0  0
    8.3607  -15.7412   25.4002 C   0  0  0  0  0  0  0  0  0  0  0  0
    9.5233  -15.6678   24.8614 O   0  0  0  0  0  0  0  0  0  0  0  0
    7.9278  -14.6495   26.1604 N   0  0  0  0  0  0  0  0  0  0  0  0
    6.5945  -14.3893   26.6793 C   0  0  0  0  0  0  0  0  0  0  0  0
    6.4976  -12.9010   26.4605 C   0  0  0  0  0  0  0  0  0  0  0  0
    7.8387  -12.3895   26.8951 C   0  0  0  0  0  0  0  0  0  0  0  0
    8.7745  -13.5261   26.5731 C   0  0  1  0  0  0  0  0  0  0  0  0
    9.5292  -13.8261   27.8115 C   0  0  0  0  0  0  0  0  0  0  0  0
   10.3690  -12.9682   28.1853 O   0  0  0  0  0  0  0  0  0  0  0  0
    9.3877  -14.9596   28.5786 O   0  0  0  0  0  0  0  0  0  0  0  0
  2 13  1  0
  2  1  1  1
  3  2  1  0
  4  3  1  0
  4  5  2  0
  6  5  1  0
  7  6  1  0
  8  7  2  0
  9  8  1  0
 10  9  2  0
 10 11  1  0
 11 12  2  0
 12  7  1  0
 12  4  1  0
 13 14  2  0
 16 15  1  0
 16 17  2  0
 18 16  1  0
 19 18  1  0
 20 19  1  1
 20 22  1  0
 21 20  1  0
 21 13  1  0
 22 23  2  0
 24 22  1  0
 24 28  1  0
 25 26  1  0
 25 24  1  0
 26 27  1  0
 27 28  1  0
 28 29  1  1
 29 30  2  0
 29 31  1  0
M  END
$$$$
