WQP.pdb
     RDKit          3D

 31 33  0  0  1  0  0  0  0  0999 V2000
    5.9736  -15.7305   25.4272 N   0  0  0  0  0  0  0  0  0  0  0  0
    7.3912  -15.7774   25.3298 C   0  0  1  0  0  0  0  0  0  0  0  0
    8.0386  -17.0503   25.7737 C   0  0  0  0  0  0  0  0  0  0  0  0
    8.9288  -16.8942   26.9518 C   0  0  0  0  0  0  0  0  0  0  0  0
    9.6231  -17.9137   27.6083 C   0  0  0  0  0  0  0  0  0  0  0  0
   10.3324  -17.3804   28.6145 N   0  0  0  0  0  0  0  0  0  0  0  0
   10.1451  -16.0348   28.6664 C   0  0  0  0  0  0  0  0  0  0  0  0
   10.6473  -15.0674   29.5132 C   0  0  0  0  0  0  0  0  0  0  0  0
   10.2871  -13.7499   29.3506 C   0  0  0  0  0  0  0  0  0  0  0  0
    9.4203  -13.4274   28.3294 C   0  0  0  0  0  0  0  0  0  0  0  0
    8.9249  -14.4203   27.4855 C   0  0  0  0  0  0  0  0  0  0  0  0
    9.2751  -15.7469   27.6329 C   0  0  0  0  0  0  0  0  0  0  0  0
    7.8326  -15.5137   23.9362 C   0  0  0  0  0  0  0  0  0  0  0  0
    6.9603  -15.2362   23.0792 O   0  0  0  0  0  0  0  0  0  0  0  0
   13.8177  -15.3409   22.0405 N   0  0  0  0  0  0  0  0  0  0  0  0
   13.2574  -14.4809   21.0756 C   0  0  0  0  0  0  0  0  0  0  0  0
   13.9005  -13.9040   20.1703 O   0  0  0  0  0  0  0  0  0  0  0  0
   11.7871  -14.2517   21.1540 C   0  0  0  0  0  0  0  0  0  0  0  0
   11.1836  -15.0510   22.2923 C   0  0  0  0  0  0  0  0  0  0  0  0
    9.7056  -14.7842   22.3995 C   0  0  2  0  0  0  0  0  0  0  0  0
    9.1881  -15.5573   23.5158 N   0  0  0  0  0  0  0  0  0  0  0  0
    8.9372  -15.1201   21.1972 C   0  0  0  0  0  0  0  0  0  0  0  0
    8.4039  -16.2828   21.0930 O   0  0  0  0  0  0  0  0  0  0  0  0
    8.7500  -14.2233   20.1401 N   0  0  0  0  0  0  0  0  0  0  0  0
    9.2375  -12.8581   20.0240 C   0  0  0  0  0  0  0  0  0  0  0  0
    8.0481  -12.1930   19.3797 C   0  0  0  0  0  0  0  0  0  0  0  0
    7.6156  -13.1748   18.3319 C   0  0  0  0  0  0  0  0  0  0  0  0
    7.9887  -14.5110   18.9207 C   0  0  1  0  0  0  0  0  0  0  0  0
    8.8090  -15.2137   17.9075 C   0  0  0  0  0  0  0  0  0  0  0  0
   10.0386  -15.3196   18.1480 O   0  0  0  0  0  0  0  0  0  0  0  0
    8.3378  -15.7539   16.7330 O   0  0  0  0  0  0  0  0  0  0  0  0
  2 13  1  0
  2  1  1  6
  3  2  1  0
  4  3  1  0
  4  5  2  0
  6  5  1  0
  7  6  1  0
  8  7  2  0
  9  8  1  0
 10  9  2  0
 10 11  1  0
 11 12  2  0
 12  7  1  0
 12  4  1  0
 13 14  2  0
 16 15  1  0
 16 17  2  0
 18 16  1  0
 19 18  1  0
 20 19  1  6
 20 22  1  0
 21 20  1  0
 21 13  1  0
 22 23  2  0
 24 22  1  0
 24 28  1  0
 25 26  1  0
 25 24  1  0
 26 27  1  0
 27 28  1  0
 28 29  1  6
 29 30  2  0
 29 31  1  0
M  END
$$$$
