WQP.pdb
     RDKit          3D

 31 33  0  0  1  0  0  0  0  0999 V2000
    7.7645  -18.0061   26.1160 N   0  0  0  0  0  0  0  0  0  0  0  0
    7.3857  -16.9562   25.2353 C   0  0  1  0  0  0  0  0  0  0  0  0
    8.3825  -15.8556   25.0580 C   0  0  0  0  0  0  0  0  0  0  0  0
    8.4952  -14.9506   26.2298 C   0  0  0  0  0  0  0  0  0  0  0  0
    9.3063  -15.1421   27.3514 C   0  0  0  0  0  0  0  0  0  0  0  0
    9.1474  -14.1044   28.1867 N   0  0  0  0  0  0  0  0  0  0  0  0
    8.2569  -13.2141   27.6740 C   0  0  0  0  0  0  0  0  0  0  0  0
    7.7711  -12.0159   28.1570 C   0  0  0  0  0  0  0  0  0  0  0  0
    6.8518  -11.2971   27.4287 C   0  0  0  0  0  0  0  0  0  0  0  0
    6.4348  -11.8022   26.2166 C   0  0  0  0  0  0  0  0  0  0  0  0
    6.9384  -13.0145   25.7474 C   0  0  0  0  0  0  0  0  0  0  0  0
    7.8612  -13.7492   26.4636 C   0  0  0  0  0  0  0  0  0  0  0  0
    7.0642  -17.4897   23.8868 C   0  0  0  0  0  0  0  0  0  0  0  0
    7.7166  -18.4747   23.4666 O   0  0  0  0  0  0  0  0  0  0  0  0
    2.2995  -19.1854   20.7578 N   0  0  0  0  0  0  0  0  0  0  0  0
    3.5664  -18.9967   20.1713 C   0  0  0  0  0  0  0  0  0  0  0  0
    4.3326  -19.9174   19.8094 O   0  0  0  0  0  0  0  0  0  0  0  0
    4.0120  -17.5883   19.9752 C   0  0  0  0  0  0  0  0  0  0  0  0
    4.4183  -16.9692   21.2982 C   0  0  0  0  0  0  0  0  0  0  0  0
    5.7918  -17.4369   21.7005 C   0  0  2  0  0  0  0  0  0  0  0  0
    6.0587  -16.9486   23.0428 N   0  0  0  0  0  0  0  0  0  0  0  0
    6.8708  -16.9917   20.8138 C   0  0  0  0  0  0  0  0  0  0  0  0
    7.3525  -17.8066   19.9470 O   0  0  0  0  0  0  0  0  0  0  0  0
    7.4108  -15.7022   20.8624 N   0  0  0  0  0  0  0  0  0  0  0  0
    7.2312  -14.6920   21.8929 C   0  0  0  0  0  0  0  0  0  0  0  0
    7.1190  -13.4497   21.0466 C   0  0  0  0  0  0  0  0  0  0  0  0
    8.1950  -13.6226   20.0165 C   0  0  0  0  0  0  0  0  0  0  0  0
    8.2776  -15.1164   19.8353 C   0  0  1  0  0  0  0  0  0  0  0  0
    9.6966  -15.4951   20.0252 C   0  0  0  0  0  0  0  0  0  0  0  0
   10.5170  -15.0636   19.1756 O   0  0  0  0  0  0  0  0  0  0  0  0
   10.1852  -16.2762   21.0472 O   0  0  0  0  0  0  0  0  0  0  0  0
  2 13  1  0
  2  1  1  1
  3  2  1  0
  4  3  1  0
  4  5  2  0
  6  5  1  0
  7  6  1  0
  8  7  2  0
  9  8  1  0
 10  9  2  0
 10 11  1  0
 11 12  2  0
 12  7  1  0
 12  4  1  0
 13 14  2  0
 16 15  1  0
 16 17  2  0
 18 16  1  0
 19 18  1  0
 20 19  1  6
 20 22  1  0
 21 20  1  0
 21 13  1  0
 22 23  2  0
 24 22  1  0
 24 28  1  0
 25 26  1  0
 25 24  1  0
 26 27  1  0
 27 28  1  0
 28 29  1  1
 29 30  2  0
 29 31  1  0
M  END
$$$$
