WQP.pdb
     RDKit          3D

 31 33  0  0  1  0  0  0  0  0999 V2000
    6.5604  -17.6497   25.5844 N   0  0  0  0  0  0  0  0  0  0  0  0
    7.1133  -16.4749   25.0054 C   0  0  1  0  0  0  0  0  0  0  0  0
    8.4151  -16.0109   25.5769 C   0  0  0  0  0  0  0  0  0  0  0  0
    8.2809  -14.9110   26.5654 C   0  0  0  0  0  0  0  0  0  0  0  0
    8.8654  -14.8590   27.8335 C   0  0  0  0  0  0  0  0  0  0  0  0
    8.5265  -13.7023   28.4227 N   0  0  0  0  0  0  0  0  0  0  0  0
    7.7321  -12.9659   27.6012 C   0  0  0  0  0  0  0  0  0  0  0  0
    7.1367  -11.7309   27.7605 C   0  0  0  0  0  0  0  0  0  0  0  0
    6.3590  -11.2021   26.7565 C   0  0  0  0  0  0  0  0  0  0  0  0
    6.1937  -11.9328   25.6002 C   0  0  0  0  0  0  0  0  0  0  0  0
    6.8042  -13.1782   25.4601 C   0  0  0  0  0  0  0  0  0  0  0  0
    7.5879  -13.7245   26.4560 C   0  0  0  0  0  0  0  0  0  0  0  0
    7.3037  -16.6477   23.5424 C   0  0  0  0  0  0  0  0  0  0  0  0
    7.3439  -17.8135   23.0822 O   0  0  0  0  0  0  0  0  0  0  0  0
    8.0693  -12.0393   19.3393 N   0  0  0  0  0  0  0  0  0  0  0  0
    8.2162  -13.1480   18.4826 C   0  0  0  0  0  0  0  0  0  0  0  0
    8.3815  -13.0792   17.2441 O   0  0  0  0  0  0  0  0  0  0  0  0
    8.1680  -14.4961   19.1154 C   0  0  0  0  0  0  0  0  0  0  0  0
    7.7731  -14.3853   20.5751 C   0  0  0  0  0  0  0  0  0  0  0  0
    7.7838  -15.7413   21.2295 C   0  0  2  0  0  0  0  0  0  0  0  0
    7.4431  -15.5676   22.6314 N   0  0  0  0  0  0  0  0  0  0  0  0
    9.0633  -16.4509   21.1398 C   0  0  0  0  0  0  0  0  0  0  0  0
    9.9412  -16.2888   22.0620 O   0  0  0  0  0  0  0  0  0  0  0  0
    9.3822  -17.3119   20.0844 N   0  0  0  0  0  0  0  0  0  0  0  0
    8.6127  -17.5786   18.8797 C   0  0  0  0  0  0  0  0  0  0  0  0
    8.8302  -19.0633   18.7350 C   0  0  0  0  0  0  0  0  0  0  0  0
   10.2904  -19.2391   19.0278 C   0  0  0  0  0  0  0  0  0  0  0  0
   10.5913  -18.1378   20.0116 C   0  0  1  0  0  0  0  0  0  0  0  0
   11.7465  -17.3837   19.4733 C   0  0  0  0  0  0  0  0  0  0  0  0
   11.4907  -16.3161   18.8604 O   0  0  0  0  0  0  0  0  0  0  0  0
   13.0665  -17.7554   19.5874 O   0  0  0  0  0  0  0  0  0  0  0  0
  2 13  1  0
  2  1  1  1
  3  2  1  0
  4  3  1  0
  4  5  2  0
  6  5  1  0
  7  6  1  0
  8  7  2  0
  9  8  1  0
 10  9  2  0
 10 11  1  0
 11 12  2  0
 12  7  1  0
 12  4  1  0
 13 14  2  0
 16 15  1  0
 16 17  2  0
 18 16  1  0
 19 18  1  0
 20 19  1  1
 20 22  1  0
 21 20  1  0
 21 13  1  0
 22 23  2  0
 24 22  1  0
 24 28  1  0
 25 26  1  0
 25 24  1  0
 26 27  1  0
 27 28  1  0
 28 29  1  6
 29 30  2  0
 29 31  1  0
M  END
$$$$
