TEK.pdb
     RDKit          3D

 26 25  0  0  1  0  0  0  0  0999 V2000
   29.1890  -19.6533  -17.3063 C   0  0  0  0  0  0  0  0  0  0  0  0
   27.8792  -20.0932  -16.7278 C   0  0  1  0  0  0  0  0  0  0  0  0
   26.9385  -20.1598  -17.7414 O   0  0  0  0  0  0  0  0  0  0  0  0
   28.0175  -21.4381  -16.0189 C   0  0  2  0  0  0  0  0  0  0  0  0
   28.3365  -22.4924  -16.9386 N   0  0  0  0  0  0  0  0  0  0  0  0
   26.7388  -21.6877  -15.3131 C   0  0  0  0  0  0  0  0  0  0  0  0
   25.9059  -22.5066  -15.7552 O   0  0  0  0  0  0  0  0  0  0  0  0
   26.4473  -20.9894  -14.1146 N   0  0  0  0  0  0  0  0  0  0  0  0
   25.2488  -21.2965  -13.3995 C   0  0  1  0  0  0  0  0  0  0  0  0
   25.3830  -20.7587  -11.9681 C   0  0  0  0  0  0  0  0  0  0  0  0
   24.1494  -21.1586  -11.1989 C   0  0  0  0  0  0  0  0  0  0  0  0
   24.3272  -20.8241   -9.7657 C   0  0  0  0  0  0  0  0  0  0  0  0
   24.2586  -19.6346   -9.3792 O   0  0  0  0  0  0  0  0  0  0  0  0
   24.0547  -20.6095  -13.9722 C   0  0  0  0  0  0  0  0  0  0  0  0
   24.1882  -19.4060  -14.3077 O   0  0  0  0  0  0  0  0  0  0  0  0
   24.5713  -21.8466   -8.8535 O   0  0  0  0  0  0  0  0  0  0  0  0
   22.8102  -21.2281  -14.1525 N   0  0  0  0  0  0  0  0  0  0  0  0
   21.6535  -20.5687  -14.8035 C   0  0  1  0  0  0  0  0  0  0  0  0
   20.8134  -21.5703  -15.5083 C   0  0  0  0  0  0  0  0  0  0  0  0
   19.5663  -20.9396  -16.0578 C   0  0  0  0  0  0  0  0  0  0  0  0
   18.7135  -21.9200  -16.8228 C   0  0  0  0  0  0  0  0  0  0  0  0
   17.4362  -21.3134  -17.3190 C   0  0  0  0  0  0  0  0  0  0  0  0
   16.7355  -22.2587  -18.1782 N   0  0  0  0  0  0  0  0  0  0  0  0
   20.8967  -19.9654  -13.6912 C   0  0  0  0  0  0  0  0  0  0  0  0
   20.2684  -18.7514  -13.8641 O   0  0  0  0  0  0  0  0  0  0  0  0
   20.7863  -20.5040  -12.5568 O   0  0  0  0  0  0  0  0  0  0  0  0
  2  1  1  6
  3  2  1  0
  4  2  1  0
  4  5  1  6
  4  6  1  0
  6  7  2  0
  8  6  1  0
  8  9  1  0
  9 14  1  0
  9 10  1  1
 11 10  1  0
 12 11  1  0
 13 12  2  0
 14 15  2  0
 16 12  1  0
 17 18  1  0
 17 14  1  0
 18 24  1  0
 18 19  1  1
 20 19  1  0
 20 21  1  0
 22 23  1  0
 22 21  1  0
 24 26  2  0
 24 25  1  0
M  END
$$$$
