TEK.pdb
     RDKit          3D

 26 25  0  0  1  0  0  0  0  0999 V2000
   26.6467   -9.7948  -16.6375 C   0  0  0  0  0  0  0  0  0  0  0  0
   26.1223  -11.1573  -16.9725 C   0  0  1  0  0  0  0  0  0  0  0  0
   27.1292  -12.0878  -16.7791 O   0  0  0  0  0  0  0  0  0  0  0  0
   24.8949  -11.4944  -16.1297 C   0  0  2  0  0  0  0  0  0  0  0  0
   24.5167  -12.8715  -16.2702 N   0  0  0  0  0  0  0  0  0  0  0  0
   23.8126  -10.5771  -16.5571 C   0  0  0  0  0  0  0  0  0  0  0  0
   23.2995  -10.6676  -17.6923 O   0  0  0  0  0  0  0  0  0  0  0  0
   23.3450   -9.5764  -15.6689 N   0  0  0  0  0  0  0  0  0  0  0  0
   22.2968   -8.7012  -16.0899 C   0  0  1  0  0  0  0  0  0  0  0  0
   21.4348   -8.3494  -14.8695 C   0  0  0  0  0  0  0  0  0  0  0  0
   20.2983   -7.4743  -15.3342 C   0  0  0  0  0  0  0  0  0  0  0  0
   19.4008   -7.1774  -14.1923 C   0  0  0  0  0  0  0  0  0  0  0  0
   19.0835   -5.9952  -13.9262 O   0  0  0  0  0  0  0  0  0  0  0  0
   22.8158   -7.3984  -16.5991 C   0  0  0  0  0  0  0  0  0  0  0  0
   23.7406   -6.8522  -15.9471 O   0  0  0  0  0  0  0  0  0  0  0  0
   18.9141   -8.2270  -13.4186 O   0  0  0  0  0  0  0  0  0  0  0  0
   22.3322   -6.7619  -17.7501 N   0  0  0  0  0  0  0  0  0  0  0  0
   22.8861   -5.4933  -18.2796 C   0  0  1  0  0  0  0  0  0  0  0  0
   22.4484   -5.2807  -19.6828 C   0  0  0  0  0  0  0  0  0  0  0  0
   22.9236   -3.9545  -20.2027 C   0  0  0  0  0  0  0  0  0  0  0  0
   22.5702   -3.7439  -21.6534 C   0  0  0  0  0  0  0  0  0  0  0  0
   23.0289   -2.4160  -22.1749 C   0  0  0  0  0  0  0  0  0  0  0  0
   22.7705   -2.3255  -23.6059 N   0  0  0  0  0  0  0  0  0  0  0  0
   22.3180   -4.4486  -17.4080 C   0  0  0  0  0  0  0  0  0  0  0  0
   23.1212   -3.4330  -16.9366 O   0  0  0  0  0  0  0  0  0  0  0  0
   21.1086   -4.4253  -17.0533 O   0  0  0  0  0  0  0  0  0  0  0  0
  2  1  1  1
  3  2  1  0
  4  2  1  0
  4  5  1  6
  4  6  1  0
  6  7  2  0
  8  6  1  0
  8  9  1  0
  9 14  1  0
  9 10  1  1
 11 10  1  0
 12 11  1  0
 13 12  2  0
 14 15  2  0
 16 12  1  0
 17 18  1  0
 17 14  1  0
 18 24  1  0
 18 19  1  6
 20 19  1  0
 20 21  1  0
 22 23  1  0
 22 21  1  0
 24 26  2  0
 24 25  1  0
M  END
$$$$
