TEK.pdb
     RDKit          3D

 26 25  0  0  1  0  0  0  0  0999 V2000
   18.9233  -11.4821  -19.4058 C   0  0  0  0  0  0  0  0  0  0  0  0
   20.0551  -11.7592  -18.4646 C   0  0  1  0  0  0  0  0  0  0  0  0
   20.3988  -13.0974  -18.5548 O   0  0  0  0  0  0  0  0  0  0  0  0
   21.2531  -10.8637  -18.7698 C   0  0  2  0  0  0  0  0  0  0  0  0
   22.4393  -11.3186  -18.1024 N   0  0  0  0  0  0  0  0  0  0  0  0
   20.8803   -9.4894  -18.3600 C   0  0  0  0  0  0  0  0  0  0  0  0
   19.8299   -8.9545  -18.7728 O   0  0  0  0  0  0  0  0  0  0  0  0
   21.7246   -8.7615  -17.4845 N   0  0  0  0  0  0  0  0  0  0  0  0
   21.3575   -7.4350  -17.1005 C   0  0  1  0  0  0  0  0  0  0  0  0
   22.0245   -7.1139  -15.7558 C   0  0  0  0  0  0  0  0  0  0  0  0
   21.5178   -5.7728  -15.2889 C   0  0  0  0  0  0  0  0  0  0  0  0
   22.1406   -5.4317  -13.9876 C   0  0  0  0  0  0  0  0  0  0  0  0
   21.8838   -6.1084  -12.9653 O   0  0  0  0  0  0  0  0  0  0  0  0
   21.8683   -6.4068  -18.0532 C   0  0  0  0  0  0  0  0  0  0  0  0
   23.1015   -6.4063  -18.2938 O   0  0  0  0  0  0  0  0  0  0  0  0
   23.0144   -4.3508  -13.9140 O   0  0  0  0  0  0  0  0  0  0  0  0
   21.0555   -5.4555  -18.6844 N   0  0  0  0  0  0  0  0  0  0  0  0
   21.5531   -4.4941  -19.6967 C   0  0  1  0  0  0  0  0  0  0  0  0
   20.4409   -4.0330  -20.5663 C   0  0  0  0  0  0  0  0  0  0  0  0
   20.9346   -3.0793  -21.6159 C   0  0  0  0  0  0  0  0  0  0  0  0
   19.8187   -2.5375  -22.4732 C   0  0  0  0  0  0  0  0  0  0  0  0
   20.3041   -1.5824  -23.5210 C   0  0  0  0  0  0  0  0  0  0  0  0
   19.1738   -0.8971  -24.1337 N   0  0  0  0  0  0  0  0  0  0  0  0
   22.0807   -3.3656  -18.9080 C   0  0  0  0  0  0  0  0  0  0  0  0
   23.2339   -2.7258  -19.3072 O   0  0  0  0  0  0  0  0  0  0  0  0
   21.5292   -2.9369  -17.8586 O   0  0  0  0  0  0  0  0  0  0  0  0
  2  1  1  6
  3  2  1  0
  4  2  1  0
  4  5  1  1
  4  6  1  0
  6  7  2  0
  8  6  1  0
  8  9  1  0
  9 14  1  0
  9 10  1  1
 11 10  1  0
 12 11  1  0
 13 12  2  0
 14 15  2  0
 16 12  1  0
 17 18  1  0
 17 14  1  0
 18 24  1  0
 18 19  1  6
 20 19  1  0
 20 21  1  0
 22 23  1  0
 22 21  1  0
 24 26  2  0
 24 25  1  0
M  END
$$$$
