TEK.pdb
     RDKit          3D

 26 25  0  0  1  0  0  0  0  0999 V2000
   21.9195  -11.2552  -18.5982 C   0  0  0  0  0  0  0  0  0  0  0  0
   22.8735  -11.9306  -17.6614 C   0  0  1  0  0  0  0  0  0  0  0  0
   23.7428  -12.7198  -18.3951 O   0  0  0  0  0  0  0  0  0  0  0  0
   23.6362  -10.9070  -16.8242 C   0  0  2  0  0  0  0  0  0  0  0  0
   24.6431  -11.5293  -16.0130 N   0  0  0  0  0  0  0  0  0  0  0  0
   22.6337  -10.1860  -16.0052 C   0  0  0  0  0  0  0  0  0  0  0  0
   21.9656  -10.7787  -15.1321 O   0  0  0  0  0  0  0  0  0  0  0  0
   22.4225   -8.7994  -16.2092 N   0  0  0  0  0  0  0  0  0  0  0  0
   21.4821   -8.1062  -15.3863 C   0  0  1  0  0  0  0  0  0  0  0  0
   22.1150   -6.7848  -14.9285 C   0  0  0  0  0  0  0  0  0  0  0  0
   21.1663   -6.1194  -13.9639 C   0  0  0  0  0  0  0  0  0  0  0  0
   21.8111   -4.9183  -13.3814 C   0  0  0  0  0  0  0  0  0  0  0  0
   21.1236   -4.0521  -12.7932 O   0  0  0  0  0  0  0  0  0  0  0  0
   20.2507   -7.7192  -16.1343 C   0  0  0  0  0  0  0  0  0  0  0  0
   20.4040   -7.2132  -17.2741 O   0  0  0  0  0  0  0  0  0  0  0  0
   23.1896   -4.7634  -13.4952 O   0  0  0  0  0  0  0  0  0  0  0  0
   18.9508   -7.8885  -15.6386 N   0  0  0  0  0  0  0  0  0  0  0  0
   17.7316   -7.4935  -16.3829 C   0  0  1  0  0  0  0  0  0  0  0  0
   16.5454   -8.2172  -15.8585 C   0  0  0  0  0  0  0  0  0  0  0  0
   15.2895   -7.7693  -16.5491 C   0  0  0  0  0  0  0  0  0  0  0  0
   14.0734   -8.5302  -16.0846 C   0  0  0  0  0  0  0  0  0  0  0  0
   12.8168   -8.0908  -16.7727 C   0  0  0  0  0  0  0  0  0  0  0  0
   11.6729   -8.8131  -16.2319 N   0  0  0  0  0  0  0  0  0  0  0  0
   17.5953   -6.0474  -16.1300 C   0  0  0  0  0  0  0  0  0  0  0  0
   17.1850   -5.2069  -17.1419 O   0  0  0  0  0  0  0  0  0  0  0  0
   17.8399   -5.5137  -15.0145 O   0  0  0  0  0  0  0  0  0  0  0  0
  2  1  1  6
  3  2  1  0
  4  2  1  0
  4  5  1  1
  4  6  1  0
  6  7  2  0
  8  6  1  0
  8  9  1  0
  9 14  1  0
  9 10  1  6
 11 10  1  0
 12 11  1  0
 13 12  2  0
 14 15  2  0
 16 12  1  0
 17 18  1  0
 17 14  1  0
 18 24  1  0
 18 19  1  1
 20 19  1  0
 20 21  1  0
 22 23  1  0
 22 21  1  0
 24 26  2  0
 24 25  1  0
M  END
$$$$
