TEK.pdb
     RDKit          3D

 26 25  0  0  1  0  0  0  0  0999 V2000
   27.4989  -21.1684  -15.7279 C   0  0  0  0  0  0  0  0  0  0  0  0
   26.1623  -20.7450  -15.2008 C   0  0  1  0  0  0  0  0  0  0  0  0
   25.5066  -20.0096  -16.1735 O   0  0  0  0  0  0  0  0  0  0  0  0
   25.3331  -21.9541  -14.7755 C   0  0  2  0  0  0  0  0  0  0  0  0
   25.0510  -22.8204  -15.8842 N   0  0  0  0  0  0  0  0  0  0  0  0
   24.0944  -21.4309  -14.1532 C   0  0  0  0  0  0  0  0  0  0  0  0
   24.1304  -20.7899  -13.0818 O   0  0  0  0  0  0  0  0  0  0  0  0
   22.8421  -21.6570  -14.7775 N   0  0  0  0  0  0  0  0  0  0  0  0
   21.6557  -21.1354  -14.1755 C   0  0  1  0  0  0  0  0  0  0  0  0
   20.8404  -20.4083  -15.2537 C   0  0  0  0  0  0  0  0  0  0  0  0
   19.6683  -19.7374  -14.5831 C   0  0  0  0  0  0  0  0  0  0  0  0
   19.5296  -18.3525  -15.0934 C   0  0  0  0  0  0  0  0  0  0  0  0
   18.7836  -18.1085  -16.0696 O   0  0  0  0  0  0  0  0  0  0  0  0
   20.7613  -22.2120  -13.6590 C   0  0  0  0  0  0  0  0  0  0  0  0
   20.6008  -23.2252  -14.3845 O   0  0  0  0  0  0  0  0  0  0  0  0
   20.2378  -17.3257  -14.4759 O   0  0  0  0  0  0  0  0  0  0  0  0
   20.1006  -22.1524  -12.4245 N   0  0  0  0  0  0  0  0  0  0  0  0
   19.3699  -23.2964  -11.8296 C   0  0  1  0  0  0  0  0  0  0  0  0
   19.3922  -23.2127  -10.3469 C   0  0  0  0  0  0  0  0  0  0  0  0
   18.7894  -24.4403   -9.7267 C   0  0  0  0  0  0  0  0  0  0  0  0
   18.7411  -24.3614   -8.2217 C   0  0  0  0  0  0  0  0  0  0  0  0
   18.1094  -25.5686   -7.5978 C   0  0  0  0  0  0  0  0  0  0  0  0
   18.0276  -25.3988   -6.1531 N   0  0  0  0  0  0  0  0  0  0  0  0
   17.9885  -23.1513  -12.3243 C   0  0  0  0  0  0  0  0  0  0  0  0
   17.2583  -24.2688  -12.6657 O   0  0  0  0  0  0  0  0  0  0  0  0
   17.4160  -22.0367  -12.4617 O   0  0  0  0  0  0  0  0  0  0  0  0
  2  1  1  6
  3  2  1  0
  4  2  1  0
  4  5  1  6
  4  6  1  0
  6  7  2  0
  8  6  1  0
  8  9  1  0
  9 14  1  0
  9 10  1  6
 11 10  1  0
 12 11  1  0
 13 12  2  0
 14 15  2  0
 16 12  1  0
 17 18  1  0
 17 14  1  0
 18 24  1  0
 18 19  1  1
 20 19  1  0
 20 21  1  0
 22 23  1  0
 22 21  1  0
 24 26  2  0
 24 25  1  0
M  END
$$$$
