TEK.pdb
     RDKit          3D

 26 25  0  0  1  0  0  0  0  0999 V2000
   14.9400  -10.2001  -16.8622 C   0  0  0  0  0  0  0  0  0  0  0  0
   15.4293  -11.3456  -16.0301 C   0  0  1  0  0  0  0  0  0  0  0  0
   14.9420  -12.5281  -16.5603 O   0  0  0  0  0  0  0  0  0  0  0  0
   16.9543  -11.3620  -15.9633 C   0  0  2  0  0  0  0  0  0  0  0  0
   17.4430  -12.5245  -15.2785 N   0  0  0  0  0  0  0  0  0  0  0  0
   17.3705  -10.1085  -15.2915 C   0  0  0  0  0  0  0  0  0  0  0  0
   17.1303   -9.9133  -14.0815 O   0  0  0  0  0  0  0  0  0  0  0  0
   18.0538   -9.1080  -16.0271 N   0  0  0  0  0  0  0  0  0  0  0  0
   18.4272   -7.8924  -15.3753 C   0  0  1  0  0  0  0  0  0  0  0  0
   19.9218   -7.6450  -15.6228 C   0  0  0  0  0  0  0  0  0  0  0  0
   20.7002   -8.3588  -14.5468 C   0  0  0  0  0  0  0  0  0  0  0  0
   22.1526   -8.1709  -14.7765 C   0  0  0  0  0  0  0  0  0  0  0  0
   22.8339   -9.0803  -15.3036 O   0  0  0  0  0  0  0  0  0  0  0  0
   17.7276   -6.7047  -15.9459 C   0  0  0  0  0  0  0  0  0  0  0  0
   17.5596   -6.6780  -17.1908 O   0  0  0  0  0  0  0  0  0  0  0  0
   22.7515   -6.9723  -14.3998 O   0  0  0  0  0  0  0  0  0  0  0  0
   17.2551   -5.6330  -15.1764 N   0  0  0  0  0  0  0  0  0  0  0  0
   16.6091   -4.4307  -15.7542 C   0  0  1  0  0  0  0  0  0  0  0  0
   15.2243   -4.2858  -15.2373 C   0  0  0  0  0  0  0  0  0  0  0  0
   14.5910   -3.0185  -15.7351 C   0  0  0  0  0  0  0  0  0  0  0  0
   13.1735   -2.8528  -15.2486 C   0  0  0  0  0  0  0  0  0  0  0  0
   12.5328   -1.5932  -15.7475 C   0  0  0  0  0  0  0  0  0  0  0  0
   11.1599   -1.5076  -15.2675 N   0  0  0  0  0  0  0  0  0  0  0  0
   17.4422   -3.3049  -15.2933 C   0  0  0  0  0  0  0  0  0  0  0  0
   17.5576   -2.1712  -16.0679 O   0  0  0  0  0  0  0  0  0  0  0  0
   18.0771   -3.3141  -14.2043 O   0  0  0  0  0  0  0  0  0  0  0  0
  2  1  1  6
  3  2  1  0
  4  2  1  0
  4  5  1  1
  4  6  1  0
  6  7  2  0
  8  6  1  0
  8  9  1  0
  9 14  1  0
  9 10  1  6
 11 10  1  0
 12 11  1  0
 13 12  2  0
 14 15  2  0
 16 12  1  0
 17 18  1  0
 17 14  1  0
 18 24  1  0
 18 19  1  1
 20 19  1  0
 20 21  1  0
 22 23  1  0
 22 21  1  0
 24 26  2  0
 24 25  1  0
M  END
$$$$
