TEK.pdb
     RDKit          3D

 26 25  0  0  1  0  0  0  0  0999 V2000
   19.9438  -12.7252  -18.8629 C   0  0  0  0  0  0  0  0  0  0  0  0
   20.5249  -11.6877  -17.9521 C   0  0  1  0  0  0  0  0  0  0  0  0
   19.5035  -10.8838  -17.4752 O   0  0  0  0  0  0  0  0  0  0  0  0
   21.2943  -12.3357  -16.8038 C   0  0  2  0  0  0  0  0  0  0  0  0
   20.4354  -13.1258  -15.9688 N   0  0  0  0  0  0  0  0  0  0  0  0
   21.9456  -11.2402  -16.0480 C   0  0  0  0  0  0  0  0  0  0  0  0
   21.4225  -10.7659  -15.0178 O   0  0  0  0  0  0  0  0  0  0  0  0
   23.1841  -10.7151  -16.4946 N   0  0  0  0  0  0  0  0  0  0  0  0
   23.8198   -9.6824  -15.7386 C   0  0  1  0  0  0  0  0  0  0  0  0
   25.3029   -9.6325  -16.1312 C   0  0  0  0  0  0  0  0  0  0  0  0
   25.9948  -10.8156  -15.5027 C   0  0  0  0  0  0  0  0  0  0  0  0
   27.4072  -10.8610  -15.9506 C   0  0  0  0  0  0  0  0  0  0  0  0
   27.8377  -11.8476  -16.5910 O   0  0  0  0  0  0  0  0  0  0  0  0
   23.2780   -8.3297  -16.0586 C   0  0  0  0  0  0  0  0  0  0  0  0
   23.2848   -7.9768  -17.2645 O   0  0  0  0  0  0  0  0  0  0  0  0
   28.2503   -9.7946  -15.6517 O   0  0  0  0  0  0  0  0  0  0  0  0
   22.7693   -7.4454  -15.0978 N   0  0  0  0  0  0  0  0  0  0  0  0
   22.1574   -6.1371  -15.4301 C   0  0  1  0  0  0  0  0  0  0  0  0
   20.7066   -6.1464  -15.1124 C   0  0  0  0  0  0  0  0  0  0  0  0
   19.9406   -6.9717  -16.1059 C   0  0  0  0  0  0  0  0  0  0  0  0
   18.4718   -7.0554  -15.7752 C   0  0  0  0  0  0  0  0  0  0  0  0
   17.7015   -7.8800  -16.7614 C   0  0  0  0  0  0  0  0  0  0  0  0
   16.2799   -7.8368  -16.4456 N   0  0  0  0  0  0  0  0  0  0  0  0
   22.8589   -5.1698  -14.5662 C   0  0  0  0  0  0  0  0  0  0  0  0
   22.6115   -3.8209  -14.7001 O   0  0  0  0  0  0  0  0  0  0  0  0
   23.6979   -5.5075  -13.6881 O   0  0  0  0  0  0  0  0  0  0  0  0
  2  1  1  6
  3  2  1  0
  4  2  1  0
  4  5  1  1
  4  6  1  0
  6  7  2  0
  8  6  1  0
  8  9  1  0
  9 14  1  0
  9 10  1  6
 11 10  1  0
 12 11  1  0
 13 12  2  0
 14 15  2  0
 16 12  1  0
 17 18  1  0
 17 14  1  0
 18 24  1  0
 18 19  1  1
 20 19  1  0
 20 21  1  0
 22 23  1  0
 22 21  1  0
 24 26  2  0
 24 25  1  0
M  END
$$$$
