IGP.pdb
     RDKit          3D

 20 20  0  0  1  0  0  0  0  0999 V2000
    3.8648  -22.4099   23.8657 C   0  0  0  0  0  0  0  0  0  0  0  0
    5.2225  -21.7379   23.7856 C   0  0  0  0  0  0  0  0  0  0  0  0
    5.1892  -20.5144   22.9357 C   0  0  2  0  0  0  0  0  0  0  0  0
    4.4726  -20.7524   21.6145 C   0  0  0  0  0  0  0  0  0  0  0  0
    6.5063  -19.8486   22.7075 C   0  0  2  0  0  0  0  0  0  0  0  0
    7.0945  -19.6510   24.0465 N   0  0  0  0  0  0  0  0  0  0  0  0
    6.4333  -18.5218   22.0722 C   0  0  0  0  0  0  0  0  0  0  0  0
    6.2019  -18.4385   20.8403 O   0  0  0  0  0  0  0  0  0  0  0  0
    6.6044  -17.2736   22.7422 N   0  0  0  0  0  0  0  0  0  0  0  0
    6.5642  -16.0028   22.0781 C   0  0  0  0  0  0  0  0  0  0  0  0
    7.5990  -15.8496   21.0397 C   0  0  0  0  0  0  0  0  0  0  0  0
    8.0166  -16.8757   20.4637 O   0  0  0  0  0  0  0  0  0  0  0  0
    8.1210  -14.5937   20.6860 N   0  0  0  0  0  0  0  0  0  0  0  0
    7.7009  -13.3408   21.2695 C   0  0  0  0  0  0  0  0  0  0  0  0
    7.8895  -12.2902   20.2021 C   0  0  0  0  0  0  0  0  0  0  0  0
    8.7785  -12.9413   19.1799 C   0  0  0  0  0  0  0  0  0  0  0  0
    9.1419  -14.3063   19.7078 C   0  0  1  0  0  0  0  0  0  0  0  0
   10.4904  -14.2619   20.2687 C   0  0  0  0  0  0  0  0  0  0  0  0
   11.4870  -14.2051   19.5094 O   0  0  0  0  0  0  0  0  0  0  0  0
   10.7021  -14.2813   21.6372 O   0  0  0  0  0  0  0  0  0  0  0  0
  2  3  1  0
  2  1  1  0
  3  4  1  6
  5  7  1  0
  5  3  1  0
  5  6  1  1
  7  8  2  0
  9 10  1  0
  9  7  1  0
 11 10  1  0
 12 11  2  0
 13 11  1  0
 13 14  1  0
 15 14  1  0
 16 15  1  0
 17 16  1  0
 17 13  1  0
 17 18  1  1
 18 20  1  0
 19 18  2  0
M  END
$$$$
