IGP.pdb
     RDKit          3D

 20 20  0  0  1  0  0  0  0  0999 V2000
    7.5018  -11.3238   27.1280 C   0  0  0  0  0  0  0  0  0  0  0  0
    7.1787  -12.8056   27.1661 C   0  0  0  0  0  0  0  0  0  0  0  0
    7.4214  -13.4627   25.8509 C   0  0  2  0  0  0  0  0  0  0  0  0
    6.7000  -12.7543   24.7135 C   0  0  0  0  0  0  0  0  0  0  0  0
    7.1619  -14.9326   25.8039 C   0  0  2  0  0  0  0  0  0  0  0  0
    7.9579  -15.5167   26.9007 N   0  0  0  0  0  0  0  0  0  0  0  0
    7.5874  -15.6021   24.5629 C   0  0  0  0  0  0  0  0  0  0  0  0
    8.8089  -15.8188   24.3652 O   0  0  0  0  0  0  0  0  0  0  0  0
    6.7171  -16.0475   23.5234 N   0  0  0  0  0  0  0  0  0  0  0  0
    7.0950  -17.0080   22.5273 C   0  0  0  0  0  0  0  0  0  0  0  0
    7.3275  -16.4153   21.1980 C   0  0  0  0  0  0  0  0  0  0  0  0
    7.1635  -17.1357   20.1913 O   0  0  0  0  0  0  0  0  0  0  0  0
    7.7242  -15.0769   21.0368 N   0  0  0  0  0  0  0  0  0  0  0  0
    7.6172  -14.0642   22.0613 C   0  0  0  0  0  0  0  0  0  0  0  0
    7.4212  -12.7512   21.3426 C   0  0  0  0  0  0  0  0  0  0  0  0
    7.8154  -13.0335   19.9199 C   0  0  0  0  0  0  0  0  0  0  0  0
    8.2968  -14.4614   19.8640 C   0  0  1  0  0  0  0  0  0  0  0  0
    9.7578  -14.4765   19.8524 C   0  0  0  0  0  0  0  0  0  0  0  0
   10.3917  -14.8773   20.8576 O   0  0  0  0  0  0  0  0  0  0  0  0
   10.4735  -14.0539   18.7446 O   0  0  0  0  0  0  0  0  0  0  0  0
  2  3  1  0
  2  1  1  0
  3  4  1  6
  5  7  1  0
  5  3  1  0
  5  6  1  1
  7  8  2  0
  9 10  1  0
  9  7  1  0
 11 10  1  0
 12 11  2  0
 13 11  1  0
 13 14  1  0
 15 14  1  0
 16 15  1  0
 17 16  1  0
 17 13  1  0
 17 18  1  1
 18 20  1  0
 19 18  2  0
M  END
$$$$
