IGP.pdb
     RDKit          3D

 20 20  0  0  1  0  0  0  0  0999 V2000
    7.7401  -13.8948   16.7347 C   0  0  0  0  0  0  0  0  0  0  0  0
    8.5138  -14.5421   17.8679 C   0  0  0  0  0  0  0  0  0  0  0  0
    7.9341  -14.2091   19.1996 C   0  0  2  0  0  0  0  0  0  0  0  0
    7.8762  -12.7078   19.4414 C   0  0  0  0  0  0  0  0  0  0  0  0
    8.5511  -14.9067   20.3671 C   0  0  2  0  0  0  0  0  0  0  0  0
    8.1406  -16.3197   20.2542 N   0  0  0  0  0  0  0  0  0  0  0  0
    8.0993  -14.4339   21.6868 C   0  0  0  0  0  0  0  0  0  0  0  0
    8.6553  -13.4360   22.2093 O   0  0  0  0  0  0  0  0  0  0  0  0
    7.0520  -15.0180   22.4603 N   0  0  0  0  0  0  0  0  0  0  0  0
    6.6283  -14.5131   23.7344 C   0  0  0  0  0  0  0  0  0  0  0  0
    7.7202  -14.4138   24.7195 C   0  0  0  0  0  0  0  0  0  0  0  0
    8.8450  -14.8543   24.4036 O   0  0  0  0  0  0  0  0  0  0  0  0
    7.5297  -13.8430   25.9895 N   0  0  0  0  0  0  0  0  0  0  0  0
    6.2612  -13.3644   26.4880 C   0  0  0  0  0  0  0  0  0  0  0  0
    6.5770  -12.2391   27.4434 C   0  0  0  0  0  0  0  0  0  0  0  0
    8.0434  -12.3892   27.7369 C   0  0  0  0  0  0  0  0  0  0  0  0
    8.5196  -13.6253   27.0164 C   0  0  1  0  0  0  0  0  0  0  0  0
    8.6228  -14.7280   27.9695 C   0  0  0  0  0  0  0  0  0  0  0  0
    7.7699  -15.6475   27.9639 O   0  0  0  0  0  0  0  0  0  0  0  0
    9.6527  -14.7871   28.8936 O   0  0  0  0  0  0  0  0  0  0  0  0
  2  3  1  0
  2  1  1  0
  3  4  1  1
  5  7  1  0
  5  3  1  0
  5  6  1  6
  7  8  2  0
  9 10  1  0
  9  7  1  0
 11 10  1  0
 12 11  2  0
 13 11  1  0
 13 14  1  0
 15 14  1  0
 16 15  1  0
 17 16  1  0
 17 13  1  0
 17 18  1  1
 18 20  1  0
 19 18  2  0
M  END
$$$$
