IGP.pdb
     RDKit          3D

 20 20  0  0  1  0  0  0  0  0999 V2000
    6.9750  -11.9619   28.6799 C   0  0  0  0  0  0  0  0  0  0  0  0
    6.6666  -13.2510   27.9419 C   0  0  0  0  0  0  0  0  0  0  0  0
    7.1722  -13.2252   26.5405 C   0  0  2  0  0  0  0  0  0  0  0  0
    6.6524  -12.0236   25.7646 C   0  0  0  0  0  0  0  0  0  0  0  0
    6.9755  -14.4819   25.7580 C   0  0  2  0  0  0  0  0  0  0  0  0
    7.6516  -15.5445   26.5272 N   0  0  0  0  0  0  0  0  0  0  0  0
    7.5752  -14.4799   24.4128 C   0  0  0  0  0  0  0  0  0  0  0  0
    8.8210  -14.5858   24.2914 O   0  0  0  0  0  0  0  0  0  0  0  0
    6.8545  -14.3665   23.1863 N   0  0  0  0  0  0  0  0  0  0  0  0
    7.3526  -13.6746   22.0327 C   0  0  0  0  0  0  0  0  0  0  0  0
    7.9637  -14.5667   21.0311 C   0  0  0  0  0  0  0  0  0  0  0  0
    7.8662  -15.8003   21.1985 O   0  0  0  0  0  0  0  0  0  0  0  0
    8.6447  -14.0704   19.9065 N   0  0  0  0  0  0  0  0  0  0  0  0
    8.8865  -12.6694   19.6506 C   0  0  0  0  0  0  0  0  0  0  0  0
    8.9305  -12.5127   18.1498 C   0  0  0  0  0  0  0  0  0  0  0  0
    9.0961  -13.9116   17.6257 C   0  0  0  0  0  0  0  0  0  0  0  0
    9.2198  -14.8247   18.8193 C   0  0  1  0  0  0  0  0  0  0  0  0
   10.6269  -15.1614   19.0237 C   0  0  0  0  0  0  0  0  0  0  0  0
   11.1870  -16.0045   18.2832 O   0  0  0  0  0  0  0  0  0  0  0  0
   11.3711  -14.5658   20.0286 O   0  0  0  0  0  0  0  0  0  0  0  0
  2  3  1  0
  2  1  1  0
  3  4  1  6
  5  7  1  0
  5  3  1  0
  5  6  1  1
  7  8  2  0
  9 10  1  0
  9  7  1  0
 11 10  1  0
 12 11  2  0
 13 11  1  0
 13 14  1  0
 15 14  1  0
 16 15  1  0
 17 16  1  0
 17 13  1  0
 17 18  1  1
 18 20  1  0
 19 18  2  0
M  END
$$$$
