SVD.pdb
     RDKit          3D

 22 21  0  0  1  0  0  0  0  0999 V2000
   17.5422  -12.7344  -18.6690 O   0  0  0  0  0  0  0  0  0  0  0  0
   18.1127  -11.9754  -17.6795 C   0  0  0  0  0  0  0  0  0  0  0  0
   19.4065  -12.5638  -17.1711 C   0  0  2  0  0  0  0  0  0  0  0  0
   19.0581  -13.8012  -16.4692 N   0  0  0  0  0  0  0  0  0  0  0  0
   20.0653  -11.6873  -16.1428 C   0  0  0  0  0  0  0  0  0  0  0  0
   19.5881  -11.5044  -14.9964 O   0  0  0  0  0  0  0  0  0  0  0  0
   23.7441  -11.9175  -15.2501 C   0  0  0  0  0  0  0  0  0  0  0  0
   23.4745  -10.4680  -15.5680 C   0  0  2  0  0  0  0  0  0  0  0  0
   24.2871   -9.5307  -14.7075 C   0  0  0  0  0  0  0  0  0  0  0  0
   21.9887  -10.1920  -15.4720 C   0  0  2  0  0  0  0  0  0  0  0  0
   21.2865  -11.0118  -16.4319 N   0  0  0  0  0  0  0  0  0  0  0  0
   21.7837   -8.7419  -15.7167 C   0  0  0  0  0  0  0  0  0  0  0  0
   21.9350   -8.3228  -16.8923 O   0  0  0  0  0  0  0  0  0  0  0  0
   21.4288   -7.8306  -14.6858 N   0  0  0  0  0  0  0  0  0  0  0  0
   21.2282   -6.4282  -14.9800 C   0  0  1  0  0  0  0  0  0  0  0  0
   19.7717   -6.0383  -14.8650 C   0  0  0  0  0  0  0  0  0  0  0  0
   19.6532   -4.6196  -15.2640 C   0  0  0  0  0  0  0  0  0  0  0  0
   19.5011   -3.7302  -14.3619 O   0  0  0  0  0  0  0  0  0  0  0  0
   22.0692   -5.5699  -14.0918 C   0  0  0  0  0  0  0  0  0  0  0  0
   22.3430   -5.9849  -12.9385 O   0  0  0  0  0  0  0  0  0  0  0  0
   19.7023   -4.2493  -16.5902 O   0  0  0  0  0  0  0  0  0  0  0  0
   22.5495   -4.3437  -14.4976 O   0  0  0  0  0  0  0  0  0  0  0  0
  1  2  1  0
  3  2  1  0
  3  4  1  1
  5  6  2  0
  5  3  1  0
  8  7  1  1
  8 10  1  0
  9  8  1  0
 10 11  1  6
 11  5  1  0
 12 10  1  0
 12 14  1  0
 13 12  2  0
 15 14  1  0
 15 19  1  0
 16 17  1  0
 15 16  1  1
 17 21  1  0
 18 17  2  0
 19 20  2  0
 19 22  1  0
M  END
$$$$
