SVD.pdb
     RDKit          3D

 22 21  0  0  1  0  0  0  0  0999 V2000
   23.6259   -9.4554  -19.4386 O   0  0  0  0  0  0  0  0  0  0  0  0
   23.7526  -10.4619  -18.5157 C   0  0  0  0  0  0  0  0  0  0  0  0
   22.4678  -11.2283  -18.3142 C   0  0  2  0  0  0  0  0  0  0  0  0
   22.1022  -11.7857  -19.6184 N   0  0  0  0  0  0  0  0  0  0  0  0
   21.3259  -10.3325  -17.9229 C   0  0  0  0  0  0  0  0  0  0  0  0
   20.5831   -9.7685  -18.7627 O   0  0  0  0  0  0  0  0  0  0  0  0
   19.4030  -10.7332  -14.3072 C   0  0  0  0  0  0  0  0  0  0  0  0
   18.8761   -9.9348  -15.4732 C   0  0  2  0  0  0  0  0  0  0  0  0
   18.1355  -10.7940  -16.4695 C   0  0  0  0  0  0  0  0  0  0  0  0
   20.0079   -9.1593  -16.1140 C   0  0  2  0  0  0  0  0  0  0  0  0
   21.0315  -10.0798  -16.5514 N   0  0  0  0  0  0  0  0  0  0  0  0
   20.5161   -8.1917  -15.1089 C   0  0  0  0  0  0  0  0  0  0  0  0
   21.6859   -8.3590  -14.6795 O   0  0  0  0  0  0  0  0  0  0  0  0
   19.7389   -7.1044  -14.6263 N   0  0  0  0  0  0  0  0  0  0  0  0
   20.3555   -6.0400  -13.8644 C   0  0  1  0  0  0  0  0  0  0  0  0
   21.5831   -5.4966  -14.5604 C   0  0  0  0  0  0  0  0  0  0  0  0
   22.1546   -4.4372  -13.7019 C   0  0  0  0  0  0  0  0  0  0  0  0
   22.0747   -4.5533  -12.4338 O   0  0  0  0  0  0  0  0  0  0  0  0
   19.3797   -4.9409  -13.5949 C   0  0  0  0  0  0  0  0  0  0  0  0
   18.5157   -4.6766  -14.4674 O   0  0  0  0  0  0  0  0  0  0  0  0
   22.7664   -3.3318  -14.2518 O   0  0  0  0  0  0  0  0  0  0  0  0
   19.4001   -4.2124  -12.4254 O   0  0  0  0  0  0  0  0  0  0  0  0
  1  2  1  0
  3  2  1  0
  3  4  1  6
  5  6  2  0
  5  3  1  0
  8  7  1  1
  8 10  1  0
  9  8  1  0
 10 11  1  1
 11  5  1  0
 12 10  1  0
 12 14  1  0
 13 12  2  0
 15 14  1  0
 15 19  1  0
 16 17  1  0
 15 16  1  6
 17 21  1  0
 18 17  2  0
 19 20  2  0
 19 22  1  0
M  END
$$$$
