SVD.pdb
     RDKit          3D

 22 21  0  0  1  0  0  0  0  0999 V2000
   23.2284  -16.5760  -18.8070 O   0  0  0  0  0  0  0  0  0  0  0  0
   23.4484  -15.5150  -17.9664 C   0  0  0  0  0  0  0  0  0  0  0  0
   24.9031  -15.3637  -17.5930 C   0  0  2  0  0  0  0  0  0  0  0  0
   25.2727  -16.5684  -16.8465 N   0  0  0  0  0  0  0  0  0  0  0  0
   25.1321  -14.2167  -16.6488 C   0  0  0  0  0  0  0  0  0  0  0  0
   24.9092  -14.2936  -15.4160 O   0  0  0  0  0  0  0  0  0  0  0  0
   28.2053  -12.3572  -16.1029 C   0  0  0  0  0  0  0  0  0  0  0  0
   27.2098  -11.2771  -16.4451 C   0  0  2  0  0  0  0  0  0  0  0  0
   27.4414  -10.0116  -15.6550 C   0  0  0  0  0  0  0  0  0  0  0  0
   25.8019  -11.8086  -16.2772 C   0  0  2  0  0  0  0  0  0  0  0  0
   25.6229  -12.9656  -17.1233 N   0  0  0  0  0  0  0  0  0  0  0  0
   24.8626  -10.7114  -16.6216 C   0  0  0  0  0  0  0  0  0  0  0  0
   24.8460  -10.3120  -17.8136 O   0  0  0  0  0  0  0  0  0  0  0  0
   23.9990  -10.1100  -15.6667 N   0  0  0  0  0  0  0  0  0  0  0  0
   23.0248   -9.1213  -16.0752 C   0  0  1  0  0  0  0  0  0  0  0  0
   22.1066   -8.7410  -14.9355 C   0  0  0  0  0  0  0  0  0  0  0  0
   21.1105   -7.7830  -15.4612 C   0  0  0  0  0  0  0  0  0  0  0  0
   21.3056   -6.5323  -15.3016 O   0  0  0  0  0  0  0  0  0  0  0  0
   23.6959   -7.9074  -16.6312 C   0  0  0  0  0  0  0  0  0  0  0  0
   23.2591   -7.4160  -17.7013 O   0  0  0  0  0  0  0  0  0  0  0  0
   19.9802   -8.2225  -16.1151 O   0  0  0  0  0  0  0  0  0  0  0  0
   24.7738   -7.3156  -16.0094 O   0  0  0  0  0  0  0  0  0  0  0  0
  1  2  1  0
  3  2  1  0
  3  4  1  1
  5  6  2  0
  5  3  1  0
  8  7  1  1
  8 10  1  0
  9  8  1  0
 10 11  1  6
 11  5  1  0
 12 10  1  0
 12 14  1  0
 13 12  2  0
 15 14  1  0
 15 19  1  0
 16 17  1  0
 15 16  1  1
 17 21  1  0
 18 17  2  0
 19 20  2  0
 19 22  1  0
M  END
$$$$
