SVD.pdb
     RDKit          3D

 22 21  0  0  1  0  0  0  0  0999 V2000
   19.0122  -13.3267  -14.8744 O   0  0  0  0  0  0  0  0  0  0  0  0
   18.9276  -12.0511  -15.3708 C   0  0  0  0  0  0  0  0  0  0  0  0
   17.5129  -11.5247  -15.3774 C   0  0  2  0  0  0  0  0  0  0  0  0
   16.8019  -12.2440  -16.4368 N   0  0  0  0  0  0  0  0  0  0  0  0
   17.4476  -10.0726  -15.7605 C   0  0  0  0  0  0  0  0  0  0  0  0
   17.6745   -9.6640  -16.9253 O   0  0  0  0  0  0  0  0  0  0  0  0
   14.7103   -7.6106  -15.5523 C   0  0  0  0  0  0  0  0  0  0  0  0
   15.8067   -7.0521  -14.6802 C   0  0  2  0  0  0  0  0  0  0  0  0
   15.8402   -5.5428  -14.6958 C   0  0  0  0  0  0  0  0  0  0  0  0
   17.1354   -7.6595  -15.0786 C   0  0  2  0  0  0  0  0  0  0  0  0
   17.1181   -9.0760  -14.7963 N   0  0  0  0  0  0  0  0  0  0  0  0
   18.1990   -6.9501  -14.3235 C   0  0  0  0  0  0  0  0  0  0  0  0
   18.7509   -7.5668  -13.3770 O   0  0  0  0  0  0  0  0  0  0  0  0
   18.6054   -5.6234  -14.6298 N   0  0  0  0  0  0  0  0  0  0  0  0
   19.8342   -5.0861  -14.0866 C   0  0  1  0  0  0  0  0  0  0  0  0
   21.0071   -6.0030  -14.3512 C   0  0  0  0  0  0  0  0  0  0  0  0
   22.2205   -5.3451  -13.8211 C   0  0  0  0  0  0  0  0  0  0  0  0
   22.1746   -4.7850  -12.6756 O   0  0  0  0  0  0  0  0  0  0  0  0
   20.1068   -3.7209  -14.6297 C   0  0  0  0  0  0  0  0  0  0  0  0
   19.6021   -3.4015  -15.7345 O   0  0  0  0  0  0  0  0  0  0  0  0
   23.3921   -5.3277  -14.5460 O   0  0  0  0  0  0  0  0  0  0  0  0
   20.8915   -2.8081  -13.9591 O   0  0  0  0  0  0  0  0  0  0  0  0
  1  2  1  0
  3  2  1  0
  3  4  1  6
  5  6  2  0
  5  3  1  0
  8  7  1  6
  8 10  1  0
  9  8  1  0
 10 11  1  1
 11  5  1  0
 12 10  1  0
 12 14  1  0
 13 12  2  0
 15 14  1  0
 15 19  1  0
 16 17  1  0
 15 16  1  6
 17 21  1  0
 18 17  2  0
 19 20  2  0
 19 22  1  0
M  END
$$$$
