SVD.pdb
     RDKit          3D

 22 21  0  0  1  0  0  0  0  0999 V2000
   18.9628  -13.6874  -17.6423 O   0  0  0  0  0  0  0  0  0  0  0  0
   19.6716  -12.7443  -16.9432 C   0  0  0  0  0  0  0  0  0  0  0  0
   21.1517  -13.0392  -16.9097 C   0  0  2  0  0  0  0  0  0  0  0  0
   21.2995  -14.3845  -16.3498 N   0  0  0  0  0  0  0  0  0  0  0  0
   21.8927  -12.1274  -15.9721 C   0  0  0  0  0  0  0  0  0  0  0  0
   21.6991  -12.1212  -14.7321 O   0  0  0  0  0  0  0  0  0  0  0  0
   25.5778  -11.5451  -15.6962 C   0  0  0  0  0  0  0  0  0  0  0  0
   24.9858  -10.1785  -15.9335 C   0  0  2  0  0  0  0  0  0  0  0  0
   25.7025   -9.0997  -15.1577 C   0  0  0  0  0  0  0  0  0  0  0  0
   23.5009  -10.2070  -15.6383 C   0  0  2  0  0  0  0  0  0  0  0  0
   22.8682  -11.2109  -16.4619 N   0  0  0  0  0  0  0  0  0  0  0  0
   22.9639   -8.8475  -15.8997 C   0  0  0  0  0  0  0  0  0  0  0  0
   22.5225   -8.6077  -17.0522 O   0  0  0  0  0  0  0  0  0  0  0  0
   22.9332   -7.8291  -14.9092 N   0  0  0  0  0  0  0  0  0  0  0  0
   22.2678   -6.5706  -15.1679 C   0  0  1  0  0  0  0  0  0  0  0  0
   20.8048   -6.7714  -15.4932 C   0  0  0  0  0  0  0  0  0  0  0  0
   20.2330   -5.4495  -15.8275 C   0  0  0  0  0  0  0  0  0  0  0  0
   20.9623   -4.5889  -16.4238 O   0  0  0  0  0  0  0  0  0  0  0  0
   22.4212   -5.6370  -14.0112 C   0  0  0  0  0  0  0  0  0  0  0  0
   22.0180   -4.4541  -14.1357 O   0  0  0  0  0  0  0  0  0  0  0  0
   18.9310   -5.1372  -15.5027 O   0  0  0  0  0  0  0  0  0  0  0  0
   22.9895   -6.0326  -12.8198 O   0  0  0  0  0  0  0  0  0  0  0  0
  1  2  1  0
  3  2  1  0
  3  4  1  1
  5  6  2  0
  5  3  1  0
  8  7  1  1
  8 10  1  0
  9  8  1  0
 10 11  1  6
 11  5  1  0
 12 10  1  0
 12 14  1  0
 13 12  2  0
 15 14  1  0
 15 19  1  0
 16 17  1  0
 15 16  1  1
 17 21  1  0
 18 17  2  0
 19 20  2  0
 19 22  1  0
M  END
$$$$
