SVD.pdb
     RDKit          3D

 22 21  0  0  1  0  0  0  0  0999 V2000
   23.8162  -10.6042  -20.9452 O   0  0  0  0  0  0  0  0  0  0  0  0
   22.9086  -10.0600  -20.0729 C   0  0  0  0  0  0  0  0  0  0  0  0
   22.7950  -10.8466  -18.7895 C   0  0  2  0  0  0  0  0  0  0  0  0
   22.1420  -12.1128  -19.1293 N   0  0  0  0  0  0  0  0  0  0  0  0
   21.8901  -10.1799  -17.7915 C   0  0  0  0  0  0  0  0  0  0  0  0
   20.6383  -10.2174  -17.8746 O   0  0  0  0  0  0  0  0  0  0  0  0
   23.2590   -9.4975  -13.9526 C   0  0  0  0  0  0  0  0  0  0  0  0
   21.8060   -9.5565  -14.3525 C   0  0  2  0  0  0  0  0  0  0  0  0
   21.2775  -10.9702  -14.3891 C   0  0  0  0  0  0  0  0  0  0  0  0
   21.6092   -8.8362  -15.6699 C   0  0  2  0  0  0  0  0  0  0  0  0
   22.4265   -9.4611  -16.6838 N   0  0  0  0  0  0  0  0  0  0  0  0
   21.9673   -7.4104  -15.4611 C   0  0  0  0  0  0  0  0  0  0  0  0
   23.1516   -7.0660  -15.7047 O   0  0  0  0  0  0  0  0  0  0  0  0
   21.0334   -6.4418  -15.0041 N   0  0  0  0  0  0  0  0  0  0  0  0
   21.2942   -5.0291  -15.1770 C   0  0  1  0  0  0  0  0  0  0  0  0
   21.5417   -4.6824  -16.6279 C   0  0  0  0  0  0  0  0  0  0  0  0
   21.7860   -3.2263  -16.7068 C   0  0  0  0  0  0  0  0  0  0  0  0
   20.9010   -2.4747  -17.2358 O   0  0  0  0  0  0  0  0  0  0  0  0
   20.1730   -4.2074  -14.6286 C   0  0  0  0  0  0  0  0  0  0  0  0
   20.3488   -2.9726  -14.4808 O   0  0  0  0  0  0  0  0  0  0  0  0
   22.9517   -2.6754  -16.2211 O   0  0  0  0  0  0  0  0  0  0  0  0
   18.9598   -4.7609  -14.2813 O   0  0  0  0  0  0  0  0  0  0  0  0
  1  2  1  0
  3  2  1  0
  3  4  1  6
  5  6  2  0
  5  3  1  0
  8  7  1  6
  8 10  1  0
  9  8  1  0
 10 11  1  6
 11  5  1  0
 12 10  1  0
 12 14  1  0
 13 12  2  0
 15 14  1  0
 15 19  1  0
 16 17  1  0
 15 16  1  6
 17 21  1  0
 18 17  2  0
 19 20  2  0
 19 22  1  0
M  END
$$$$
