CMF.pdb
     RDKit          3D

 26 26  0  0  1  0  0  0  0  0999 V2000
    8.7582  -15.4618   19.1085 N   0  0  0  0  0  0  0  0  0  0  0  0
    8.0255  -15.8874   20.2553 C   0  0  1  0  0  0  0  0  0  0  0  0
    7.8074  -17.3997   20.1299 C   0  0  0  0  0  0  0  0  0  0  0  0
    9.3128  -18.3280   20.4116 S   0  0  0  0  0  0  0  0  0  0  0  0
    8.7091  -15.6531   21.5333 C   0  0  0  0  0  0  0  0  0  0  0  0
    9.9637  -15.5909   21.5590 O   0  0  0  0  0  0  0  0  0  0  0  0
    5.8861  -12.5343   26.7214 C   0  0  0  0  0  0  0  0  0  0  0  0
    7.0516  -11.8491   25.5421 S   0  0  0  0  0  0  0  0  0  0  0  0
    7.5103  -13.0471   24.2494 C   0  0  0  0  0  0  0  0  0  0  0  0
    7.7859  -14.4059   24.8473 C   0  0  0  0  0  0  0  0  0  0  0  0
    8.6934  -15.2514   24.0327 C   0  0  2  0  0  0  0  0  0  0  0  0
    8.0117  -15.4919   22.7529 N   0  0  0  0  0  0  0  0  0  0  0  0
    9.1360  -16.5087   24.6415 C   0  0  0  0  0  0  0  0  0  0  0  0
    8.4192  -17.1747   25.4290 O   0  0  0  0  0  0  0  0  0  0  0  0
   10.4304  -17.0798   24.3840 N   0  0  0  0  0  0  0  0  0  0  0  0
   11.4436  -17.1032   25.4161 C   0  0  1  0  0  0  0  0  0  0  0  0
   11.7828  -15.6990   25.8336 C   0  0  0  0  0  0  0  0  0  0  0  0
   11.2062  -15.3095   27.1271 C   0  0  0  0  0  0  0  0  0  0  0  0
   10.4315  -14.1639   27.2544 C   0  0  0  0  0  0  0  0  0  0  0  0
    9.8786  -13.7932   28.4663 C   0  0  0  0  0  0  0  0  0  0  0  0
   10.0776  -14.5515   29.5974 C   0  0  0  0  0  0  0  0  0  0  0  0
   10.8422  -15.6886   29.4877 C   0  0  0  0  0  0  0  0  0  0  0  0
   11.3953  -16.0572   28.2695 C   0  0  0  0  0  0  0  0  0  0  0  0
   10.9221  -17.9475   26.5120 C   0  0  0  0  0  0  0  0  0  0  0  0
    9.6974  -18.1985   26.5380 O   0  0  0  0  0  0  0  0  0  0  0  0
   11.7235  -18.4708   27.5064 O   0  0  0  0  0  0  0  0  0  0  0  0
  2  3  1  0
  2  5  1  0
  2  1  1  6
  4  3  1  0
  5  6  2  0
  7  8  1  0
  8  9  1  0
  9 10  1  0
 11 10  1  1
 11 13  1  0
 12 11  1  0
 12  5  1  0
 13 14  2  0
 15 16  1  0
 15 13  1  0
 16 24  1  0
 16 17  1  1
 18 19  2  0
 18 17  1  0
 20 19  1  0
 21 20  2  0
 22 21  1  0
 22 23  2  0
 23 18  1  0
 24 25  2  0
 24 26  1  0
M  END
$$$$
