CMF.pdb
     RDKit          3D

 26 26  0  0  1  0  0  0  0  0999 V2000
    9.0888  -16.2363   18.6736 N   0  0  0  0  0  0  0  0  0  0  0  0
    8.2784  -16.4638   19.8245 C   0  0  1  0  0  0  0  0  0  0  0  0
    8.0376  -17.9743   19.9295 C   0  0  0  0  0  0  0  0  0  0  0  0
    9.4729  -18.8488   20.5482 S   0  0  0  0  0  0  0  0  0  0  0  0
    8.8867  -16.0335   21.0895 C   0  0  0  0  0  0  0  0  0  0  0  0
   10.1380  -15.9626   21.1792 O   0  0  0  0  0  0  0  0  0  0  0  0
    5.1785  -13.0949   25.3825 C   0  0  0  0  0  0  0  0  0  0  0  0
    6.7504  -12.7944   26.1931 S   0  0  0  0  0  0  0  0  0  0  0  0
    8.1082  -13.7469   25.4408 C   0  0  0  0  0  0  0  0  0  0  0  0
    7.6404  -14.4599   24.1948 C   0  0  0  0  0  0  0  0  0  0  0  0
    8.7197  -15.1671   23.4623 C   0  0  2  0  0  0  0  0  0  0  0  0
    8.1195  -15.6904   22.2268 N   0  0  0  0  0  0  0  0  0  0  0  0
    9.4246  -16.2215   24.1965 C   0  0  0  0  0  0  0  0  0  0  0  0
    9.0885  -17.4305   24.1445 O   0  0  0  0  0  0  0  0  0  0  0  0
   10.5602  -15.9528   25.0368 N   0  0  0  0  0  0  0  0  0  0  0  0
   11.2335  -17.0284   25.7312 C   0  0  1  0  0  0  0  0  0  0  0  0
   12.2569  -16.4659   26.6785 C   0  0  0  0  0  0  0  0  0  0  0  0
   11.6904  -15.5857   27.7088 C   0  0  0  0  0  0  0  0  0  0  0  0
   11.4762  -16.0384   29.0042 C   0  0  0  0  0  0  0  0  0  0  0  0
   10.9503  -15.2151   29.9826 C   0  0  0  0  0  0  0  0  0  0  0  0
   10.6181  -13.9085   29.7058 C   0  0  0  0  0  0  0  0  0  0  0  0
   10.8243  -13.4454   28.4281 C   0  0  0  0  0  0  0  0  0  0  0  0
   11.3524  -14.2750   27.4490 C   0  0  0  0  0  0  0  0  0  0  0  0
   10.1858  -17.8383   26.3887 C   0  0  0  0  0  0  0  0  0  0  0  0
   10.5120  -18.9335   26.8964 O   0  0  0  0  0  0  0  0  0  0  0  0
    8.8662  -17.4419   26.4679 O   0  0  0  0  0  0  0  0  0  0  0  0
  2  3  1  0
  2  5  1  0
  2  1  1  6
  4  3  1  0
  5  6  2  0
  7  8  1  0
  8  9  1  0
  9 10  1  0
 11 10  1  1
 11 13  1  0
 12 11  1  0
 12  5  1  0
 13 14  2  0
 15 16  1  0
 15 13  1  0
 16 24  1  0
 16 17  1  1
 18 19  2  0
 18 17  1  0
 20 19  1  0
 21 20  2  0
 22 21  1  0
 22 23  2  0
 23 18  1  0
 24 25  2  0
 24 26  1  0
M  END
$$$$
