CMF.pdb
     RDKit          3D

 26 26  0  0  1  0  0  0  0  0999 V2000
    7.6850  -19.8586   20.1493 N   0  0  0  0  0  0  0  0  0  0  0  0
    7.3030  -18.9853   21.2098 C   0  0  1  0  0  0  0  0  0  0  0  0
    7.3813  -19.7828   22.5168 C   0  0  0  0  0  0  0  0  0  0  0  0
    7.7361  -21.5154   22.2341 S   0  0  0  0  0  0  0  0  0  0  0  0
    8.1672  -17.8090   21.3679 C   0  0  0  0  0  0  0  0  0  0  0  0
    9.3702  -17.8754   21.0113 O   0  0  0  0  0  0  0  0  0  0  0  0
    8.3754  -11.6037   20.1745 C   0  0  0  0  0  0  0  0  0  0  0  0
    7.7087  -12.9869   19.2466 S   0  0  0  0  0  0  0  0  0  0  0  0
    7.1473  -14.3386   20.3303 C   0  0  0  0  0  0  0  0  0  0  0  0
    7.7769  -14.2292   21.6984 C   0  0  0  0  0  0  0  0  0  0  0  0
    8.5720  -15.4179   22.0941 C   0  0  2  0  0  0  0  0  0  0  0  0
    7.7024  -16.5885   21.9102 N   0  0  0  0  0  0  0  0  0  0  0  0
    9.1534  -15.3962   23.4391 C   0  0  0  0  0  0  0  0  0  0  0  0
   10.1073  -14.6438   23.7578 O   0  0  0  0  0  0  0  0  0  0  0  0
    8.6756  -16.2380   24.5026 N   0  0  0  0  0  0  0  0  0  0  0  0
    9.3150  -16.2201   25.7999 C   0  0  1  0  0  0  0  0  0  0  0  0
    8.3145  -15.8501   26.8597 C   0  0  0  0  0  0  0  0  0  0  0  0
    7.7578  -14.4999   26.7040 C   0  0  0  0  0  0  0  0  0  0  0  0
    6.4647  -14.3037   26.2366 C   0  0  0  0  0  0  0  0  0  0  0  0
    5.9296  -13.0368   26.0937 C   0  0  0  0  0  0  0  0  0  0  0  0
    6.6643  -11.9173   26.4116 C   0  0  0  0  0  0  0  0  0  0  0  0
    7.9460  -12.0950   26.8756 C   0  0  0  0  0  0  0  0  0  0  0  0
    8.4793  -13.3683   27.0177 C   0  0  0  0  0  0  0  0  0  0  0  0
    9.9328  -17.5493   25.9934 C   0  0  0  0  0  0  0  0  0  0  0  0
   10.5061  -17.7862   27.0792 O   0  0  0  0  0  0  0  0  0  0  0  0
    9.9061  -18.5394   25.0323 O   0  0  0  0  0  0  0  0  0  0  0  0
  2  3  1  0
  2  5  1  0
  2  1  1  6
  4  3  1  0
  5  6  2  0
  7  8  1  0
  8  9  1  0
  9 10  1  0
 11 10  1  1
 11 13  1  0
 12 11  1  0
 12  5  1  0
 13 14  2  0
 15 16  1  0
 15 13  1  0
 16 24  1  0
 16 17  1  1
 18 19  2  0
 18 17  1  0
 20 19  1  0
 21 20  2  0
 22 21  1  0
 22 23  2  0
 23 18  1  0
 24 25  2  0
 24 26  1  0
M  END
$$$$
