CMF.pdb
     RDKit          3D

 26 26  0  0  1  0  0  0  0  0999 V2000
   11.0127  -15.7045   18.7062 N   0  0  0  0  0  0  0  0  0  0  0  0
    9.8762  -16.2215   19.3950 C   0  0  1  0  0  0  0  0  0  0  0  0
    9.9570  -17.7514   19.3374 C   0  0  0  0  0  0  0  0  0  0  0  0
   11.4508  -18.3812   20.0987 S   0  0  0  0  0  0  0  0  0  0  0  0
    9.8027  -15.8449   20.8121 C   0  0  0  0  0  0  0  0  0  0  0  0
   10.8161  -15.3596   21.3744 O   0  0  0  0  0  0  0  0  0  0  0  0
    6.7880  -12.4971   26.4622 C   0  0  0  0  0  0  0  0  0  0  0  0
    7.2182  -13.1478   24.8467 S   0  0  0  0  0  0  0  0  0  0  0  0
    6.8002  -14.9126   24.6798 C   0  0  0  0  0  0  0  0  0  0  0  0
    7.0878  -15.4045   23.2815 C   0  0  0  0  0  0  0  0  0  0  0  0
    8.5322  -15.5695   22.9843 C   0  0  2  0  0  0  0  0  0  0  0  0
    8.6285  -16.0050   21.5838 N   0  0  0  0  0  0  0  0  0  0  0  0
    9.2830  -16.4637   23.8699 C   0  0  0  0  0  0  0  0  0  0  0  0
    9.2247  -17.7154   23.7840 O   0  0  0  0  0  0  0  0  0  0  0  0
   10.1478  -15.9759   24.9100 N   0  0  0  0  0  0  0  0  0  0  0  0
   10.9221  -16.8947   25.7153 C   0  0  1  0  0  0  0  0  0  0  0  0
   11.9594  -16.1401   26.5000 C   0  0  0  0  0  0  0  0  0  0  0  0
   11.3958  -15.1772   27.4553 C   0  0  0  0  0  0  0  0  0  0  0  0
   10.7841  -14.0078   27.0228 C   0  0  0  0  0  0  0  0  0  0  0  0
   10.2442  -13.0992   27.9142 C   0  0  0  0  0  0  0  0  0  0  0  0
   10.2941  -13.3227   29.2712 C   0  0  0  0  0  0  0  0  0  0  0  0
   10.8964  -14.4758   29.7152 C   0  0  0  0  0  0  0  0  0  0  0  0
   11.4369  -15.3854   28.8172 C   0  0  0  0  0  0  0  0  0  0  0  0
    9.9631  -17.6463   26.5528 C   0  0  0  0  0  0  0  0  0  0  0  0
   10.4021  -18.5591   27.2860 O   0  0  0  0  0  0  0  0  0  0  0  0
    8.6075  -17.3873   26.5626 O   0  0  0  0  0  0  0  0  0  0  0  0
  2  3  1  0
  2  5  1  0
  2  1  1  1
  4  3  1  0
  5  6  2  0
  7  8  1  0
  8  9  1  0
  9 10  1  0
 11 10  1  1
 11 13  1  0
 12 11  1  0
 12  5  1  0
 13 14  2  0
 15 16  1  0
 15 13  1  0
 16 24  1  0
 16 17  1  1
 18 19  2  0
 18 17  1  0
 20 19  1  0
 21 20  2  0
 22 21  1  0
 22 23  2  0
 23 18  1  0
 24 25  2  0
 24 26  1  0
M  END
$$$$
