LRS.pdb
     RDKit          3D

 26 25  0  0  1  0  0  0  0  0999 V2000
    7.1109  -11.3951   27.4410 C   0  0  0  0  0  0  0  0  0  0  0  0
    6.3910  -12.2719   26.4174 C   0  0  1  0  0  0  0  0  0  0  0  0
    6.3045  -11.5713   25.0905 C   0  0  0  0  0  0  0  0  0  0  0  0
    7.1799  -13.5637   26.3442 C   0  0  0  0  0  0  0  0  0  0  0  0
    6.5465  -14.4786   25.3485 C   0  0  2  0  0  0  0  0  0  0  0  0
    5.2279  -14.8287   25.7863 N   0  0  0  0  0  0  0  0  0  0  0  0
    7.3925  -15.6654   25.0446 C   0  0  0  0  0  0  0  0  0  0  0  0
    7.2836  -16.7233   25.7291 O   0  0  0  0  0  0  0  0  0  0  0  0
   13.8508  -18.5095   19.7828 N   0  0  0  0  0  0  0  0  0  0  0  0
   12.6774  -19.2293   19.4351 C   0  0  0  0  0  0  0  0  0  0  0  0
   12.7888  -20.3389   18.7778 N   0  0  0  0  0  0  0  0  0  0  0  0
   11.3714  -18.7975   19.7690 N   0  0  0  0  0  0  0  0  0  0  0  0
   11.0576  -17.5769   20.4692 C   0  0  0  0  0  0  0  0  0  0  0  0
   10.7209  -17.7781   21.9173 C   0  0  0  0  0  0  0  0  0  0  0  0
    9.7292  -16.7355   22.3332 C   0  0  0  0  0  0  0  0  0  0  0  0
    9.1494  -16.9147   23.7129 C   0  0  2  0  0  0  0  0  0  0  0  0
    8.3473  -15.6802   23.9961 N   0  0  0  0  0  0  0  0  0  0  0  0
   10.1907  -17.0145   24.7586 C   0  0  0  0  0  0  0  0  0  0  0  0
   10.9808  -16.0272   24.9375 O   0  0  0  0  0  0  0  0  0  0  0  0
   11.9695  -20.8965   18.4640 O   0  0  0  0  0  0  0  0  0  0  0  0
   10.3517  -19.9504   27.5588 C   0  0  0  0  0  0  0  0  0  0  0  0
   11.1673  -18.8530   27.8015 C   0  0  1  0  0  0  0  0  0  0  0  0
   11.5314  -18.1897   26.4949 N   0  0  0  0  0  0  0  0  0  0  0  0
   10.3784  -18.1285   25.5869 C   0  0  0  0  0  0  0  0  0  0  0  0
   12.6700  -18.8830   25.8482 O   0  0  0  0  0  0  0  0  0  0  0  0
   12.5415  -19.2779   24.6769 O   0  0  0  0  0  0  0  0  0  0  0  0
  2  1  1  1
  3  2  1  0
  4  2  1  0
  4  5  1  0
  5  6  1  1
  7  8  2  0
  7  5  1  0
  9 10  1  0
 10 12  1  0
 11 10  2  0
 12 13  1  0
 13 14  1  0
 14 15  1  0
 16 15  1  6
 16 17  1  0
 17  7  1  0
 18 16  1  0
 19 18  2  0
 21 20  1  0
 22 21  1  1
 22 23  1  0
 23 18  1  0
 24 22  1  0
 25 24  2  0
 26 24  1  0
M  END
$$$$
