LRS.pdb
     RDKit          3D

 26 25  0  0  1  0  0  0  0  0999 V2000
   11.2941  -14.2283   29.0475 C   0  0  0  0  0  0  0  0  0  0  0  0
    9.9249  -14.7781   28.6503 C   0  0  1  0  0  0  0  0  0  0  0  0
    8.8829  -13.6968   28.7156 C   0  0  0  0  0  0  0  0  0  0  0  0
   10.0901  -15.3449   27.2547 C   0  0  0  0  0  0  0  0  0  0  0  0
    8.7839  -15.8921   26.7812 C   0  0  2  0  0  0  0  0  0  0  0  0
    8.4612  -17.0763   27.5205 N   0  0  0  0  0  0  0  0  0  0  0  0
    8.7525  -16.1000   25.3074 C   0  0  0  0  0  0  0  0  0  0  0  0
    8.9757  -17.2436   24.8157 O   0  0  0  0  0  0  0  0  0  0  0  0
    8.6930  -15.9611   18.2646 N   0  0  0  0  0  0  0  0  0  0  0  0
    8.2418  -14.6682   17.8899 C   0  0  0  0  0  0  0  0  0  0  0  0
    8.7672  -14.0907   16.8573 N   0  0  0  0  0  0  0  0  0  0  0  0
    7.2358  -13.9610   18.5910 N   0  0  0  0  0  0  0  0  0  0  0  0
    7.0696  -13.9619   20.0231 C   0  0  0  0  0  0  0  0  0  0  0  0
    8.3624  -13.9264   20.7834 C   0  0  0  0  0  0  0  0  0  0  0  0
    8.0664  -14.0393   22.2474 C   0  0  0  0  0  0  0  0  0  0  0  0
    8.5836  -15.2890   22.9127 C   0  0  2  0  0  0  0  0  0  0  0  0
    8.4778  -15.0543   24.3895 N   0  0  0  0  0  0  0  0  0  0  0  0
   10.0075  -15.5478   22.6074 C   0  0  0  0  0  0  0  0  0  0  0  0
   10.8990  -14.8249   23.1676 O   0  0  0  0  0  0  0  0  0  0  0  0
    8.4646  -13.1569   16.5150 O   0  0  0  0  0  0  0  0  0  0  0  0
   13.5422  -18.5333   21.5209 C   0  0  0  0  0  0  0  0  0  0  0  0
   12.1764  -18.3091   21.6341 C   0  0  2  0  0  0  0  0  0  0  0  0
   11.9005  -16.8248   21.6177 N   0  0  0  0  0  0  0  0  0  0  0  0
   10.4631  -16.5467   21.7375 C   0  0  0  0  0  0  0  0  0  0  0  0
   12.4543  -16.1966   20.3954 O   0  0  0  0  0  0  0  0  0  0  0  0
   13.6818  -16.2380   20.2063 O   0  0  0  0  0  0  0  0  0  0  0  0
  2  1  1  6
  3  2  1  0
  4  2  1  0
  4  5  1  0
  5  6  1  1
  7  8  2  0
  7  5  1  0
  9 10  1  0
 10 12  1  0
 11 10  2  0
 12 13  1  0
 13 14  1  0
 14 15  1  0
 16 15  1  6
 16 17  1  0
 17  7  1  0
 18 16  1  0
 19 18  2  0
 21 20  1  0
 22 21  1  1
 22 23  1  0
 23 18  1  0
 24 22  1  0
 25 24  2  0
 26 24  1  0
M  END
$$$$
