LRS.pdb
     RDKit          3D

 26 25  0  0  1  0  0  0  0  0999 V2000
    5.1960  -11.9004   26.4129 C   0  0  0  0  0  0  0  0  0  0  0  0
    6.6201  -12.3669   26.1143 C   0  0  1  0  0  0  0  0  0  0  0  0
    7.5512  -11.9625   27.2228 C   0  0  0  0  0  0  0  0  0  0  0  0
    6.5402  -13.8701   25.9395 C   0  0  0  0  0  0  0  0  0  0  0  0
    7.9195  -14.4400   25.8899 C   0  0  2  0  0  0  0  0  0  0  0  0
    8.8719  -13.3829   25.7208 N   0  0  0  0  0  0  0  0  0  0  0  0
    8.0567  -15.5150   24.8692 C   0  0  0  0  0  0  0  0  0  0  0  0
    7.3059  -16.5322   24.9036 O   0  0  0  0  0  0  0  0  0  0  0  0
    7.7776  -13.0424   17.4806 N   0  0  0  0  0  0  0  0  0  0  0  0
    8.7184  -13.1247   18.5407 C   0  0  0  0  0  0  0  0  0  0  0  0
    9.3709  -12.0625   18.8896 N   0  0  0  0  0  0  0  0  0  0  0  0
    8.9906  -14.3194   19.2493 N   0  0  0  0  0  0  0  0  0  0  0  0
    8.0197  -15.3418   19.5505 C   0  0  0  0  0  0  0  0  0  0  0  0
    7.9002  -15.6522   21.0133 C   0  0  0  0  0  0  0  0  0  0  0  0
    9.2300  -16.1207   21.5191 C   0  0  0  0  0  0  0  0  0  0  0  0
    9.2304  -16.6490   22.9308 C   0  0  2  0  0  0  0  0  0  0  0  0
    9.0137  -15.4645   23.8237 N   0  0  0  0  0  0  0  0  0  0  0  0
   10.5244  -17.2571   23.3098 C   0  0  0  0  0  0  0  0  0  0  0  0
   11.5272  -16.4934   23.5157 O   0  0  0  0  0  0  0  0  0  0  0  0
   10.1184  -12.0683   19.6120 O   0  0  0  0  0  0  0  0  0  0  0  0
   11.0621  -21.2828   23.7237 C   0  0  0  0  0  0  0  0  0  0  0  0
   12.0215  -20.5227   24.3796 C   0  0  1  0  0  0  0  0  0  0  0  0
   12.0821  -19.1425   23.7705 N   0  0  0  0  0  0  0  0  0  0  0  0
   10.7384  -18.6324   23.4674 C   0  0  0  0  0  0  0  0  0  0  0  0
   12.9299  -19.1365   22.5554 O   0  0  0  0  0  0  0  0  0  0  0  0
   12.4244  -18.7848   21.4761 O   0  0  0  0  0  0  0  0  0  0  0  0
  2  1  1  1
  3  2  1  0
  4  2  1  0
  4  5  1  0
  5  6  1  6
  7  8  2  0
  7  5  1  0
  9 10  1  0
 10 12  1  0
 11 10  2  0
 12 13  1  0
 13 14  1  0
 14 15  1  0
 16 15  1  6
 16 17  1  0
 17  7  1  0
 18 16  1  0
 19 18  2  0
 21 20  1  0
 22 21  1  1
 22 23  1  0
 23 18  1  0
 24 22  1  0
 25 24  2  0
 26 24  1  0
M  END
$$$$
