LRS.pdb
     RDKit          3D

 26 25  0  0  1  0  0  0  0  0999 V2000
    5.2942  -11.5879   27.2156 C   0  0  0  0  0  0  0  0  0  0  0  0
    6.6205  -12.0915   26.6483 C   0  0  1  0  0  0  0  0  0  0  0  0
    7.6620  -12.1675   27.7294 C   0  0  0  0  0  0  0  0  0  0  0  0
    6.3246  -13.4422   26.0280 C   0  0  0  0  0  0  0  0  0  0  0  0
    7.6058  -14.1031   25.6387 C   0  0  2  0  0  0  0  0  0  0  0  0
    8.6930  -13.1859   25.8111 N   0  0  0  0  0  0  0  0  0  0  0  0
    7.5524  -14.6915   24.2722 C   0  0  0  0  0  0  0  0  0  0  0  0
    6.9193  -15.7657   24.0603 O   0  0  0  0  0  0  0  0  0  0  0  0
    9.0970  -15.5089   16.6587 N   0  0  0  0  0  0  0  0  0  0  0  0
    8.1506  -14.5043   16.3256 C   0  0  0  0  0  0  0  0  0  0  0  0
    7.5355  -14.5684   15.1884 N   0  0  0  0  0  0  0  0  0  0  0  0
    7.8359  -13.4181   17.1769 N   0  0  0  0  0  0  0  0  0  0  0  0
    8.4924  -13.1306   18.4279 C   0  0  0  0  0  0  0  0  0  0  0  0
    8.5152  -14.2891   19.3808 C   0  0  0  0  0  0  0  0  0  0  0  0
    8.3230  -13.7740   20.7741 C   0  0  0  0  0  0  0  0  0  0  0  0
    8.2803  -14.8298   21.8490 C   0  0  2  0  0  0  0  0  0  0  0  0
    8.1925  -14.0980   23.1545 N   0  0  0  0  0  0  0  0  0  0  0  0
    9.5082  -15.6535   21.8859 C   0  0  0  0  0  0  0  0  0  0  0  0
   10.1855  -15.7017   22.9676 O   0  0  0  0  0  0  0  0  0  0  0  0
    6.8795  -13.8333   14.8567 O   0  0  0  0  0  0  0  0  0  0  0  0
   10.9496  -18.3889   23.2502 C   0  0  0  0  0  0  0  0  0  0  0  0
   10.3122  -18.5168   22.0231 C   0  0  2  0  0  0  0  0  0  0  0  0
   10.9001  -17.5345   21.0387 N   0  0  0  0  0  0  0  0  0  0  0  0
    9.9932  -16.4026   20.8063 C   0  0  0  0  0  0  0  0  0  0  0  0
   11.2391  -18.2037   19.7609 O   0  0  0  0  0  0  0  0  0  0  0  0
   10.4778  -18.0574   18.7897 O   0  0  0  0  0  0  0  0  0  0  0  0
  2  1  1  1
  3  2  1  0
  4  2  1  0
  4  5  1  0
  5  6  1  6
  7  8  2  0
  7  5  1  0
  9 10  1  0
 10 12  1  0
 11 10  2  0
 12 13  1  0
 13 14  1  0
 14 15  1  0
 16 15  1  6
 16 17  1  0
 17  7  1  0
 18 16  1  0
 19 18  2  0
 21 20  1  0
 22 21  1  1
 22 23  1  0
 23 18  1  0
 24 22  1  0
 25 24  2  0
 26 24  1  0
M  END
$$$$
