LRS.pdb
     RDKit          3D

 26 25  0  0  1  0  0  0  0  0999 V2000
    7.8605  -11.8891   27.5331 C   0  0  0  0  0  0  0  0  0  0  0  0
    6.8482  -12.9154   27.0266 C   0  0  1  0  0  0  0  0  0  0  0  0
    5.7575  -12.2390   26.2442 C   0  0  0  0  0  0  0  0  0  0  0  0
    7.6366  -13.9046   26.1922 C   0  0  0  0  0  0  0  0  0  0  0  0
    6.7442  -15.0264   25.7740 C   0  0  2  0  0  0  0  0  0  0  0  0
    6.1162  -15.5983   26.9279 N   0  0  0  0  0  0  0  0  0  0  0  0
    7.4493  -16.0348   24.9359 C   0  0  0  0  0  0  0  0  0  0  0  0
    7.6653  -17.1995   25.3790 O   0  0  0  0  0  0  0  0  0  0  0  0
    9.1096  -13.5347   17.0508 N   0  0  0  0  0  0  0  0  0  0  0  0
    8.5843  -12.9522   18.2343 C   0  0  0  0  0  0  0  0  0  0  0  0
    8.9190  -11.7407   18.5441 N   0  0  0  0  0  0  0  0  0  0  0  0
    7.7028  -13.6295   19.1106 N   0  0  0  0  0  0  0  0  0  0  0  0
    7.8806  -14.9808   19.5808 C   0  0  0  0  0  0  0  0  0  0  0  0
    8.2601  -15.0736   21.0293 C   0  0  0  0  0  0  0  0  0  0  0  0
    8.4151  -16.5171   21.3978 C   0  0  0  0  0  0  0  0  0  0  0  0
    8.6891  -16.7819   22.8561 C   0  0  2  0  0  0  0  0  0  0  0  0
    7.9099  -15.7567   23.6237 N   0  0  0  0  0  0  0  0  0  0  0  0
   10.1152  -16.6071   23.2074 C   0  0  0  0  0  0  0  0  0  0  0  0
   10.5636  -15.4258   23.3934 O   0  0  0  0  0  0  0  0  0  0  0  0
    8.5722  -11.2573   19.3966 O   0  0  0  0  0  0  0  0  0  0  0  0
   12.1091  -18.7654   25.7372 C   0  0  0  0  0  0  0  0  0  0  0  0
   12.9331  -18.5407   24.6421 C   0  0  2  0  0  0  0  0  0  0  0  0
   12.3950  -17.3892   23.8274 N   0  0  0  0  0  0  0  0  0  0  0  0
   11.0291  -17.6579   23.3587 C   0  0  0  0  0  0  0  0  0  0  0  0
   13.2890  -17.0848   22.6857 O   0  0  0  0  0  0  0  0  0  0  0  0
   14.4732  -16.7873   22.9171 O   0  0  0  0  0  0  0  0  0  0  0  0
  2  1  1  6
  3  2  1  0
  4  2  1  0
  4  5  1  0
  5  6  1  1
  7  8  2  0
  7  5  1  0
  9 10  1  0
 10 12  1  0
 11 10  2  0
 12 13  1  0
 13 14  1  0
 14 15  1  0
 16 15  1  6
 16 17  1  0
 17  7  1  0
 18 16  1  0
 19 18  2  0
 21 20  1  0
 22 21  1  1
 22 23  1  0
 23 18  1  0
 24 22  1  0
 25 24  2  0
 26 24  1  0
M  END
$$$$
