LRS.pdb
     RDKit          3D

 26 25  0  0  1  0  0  0  0  0999 V2000
    7.5059  -12.1923   28.0856 C   0  0  0  0  0  0  0  0  0  0  0  0
    6.5859  -12.9281   27.1124 C   0  0  1  0  0  0  0  0  0  0  0  0
    5.7391  -11.9511   26.3458 C   0  0  0  0  0  0  0  0  0  0  0  0
    7.4936  -13.7435   26.2136 C   0  0  0  0  0  0  0  0  0  0  0  0
    6.6661  -14.6298   25.3421 C   0  0  2  0  0  0  0  0  0  0  0  0
    5.9378  -15.5595   26.1534 N   0  0  0  0  0  0  0  0  0  0  0  0
    7.4675  -15.2916   24.2762 C   0  0  0  0  0  0  0  0  0  0  0  0
    7.8751  -16.4797   24.4240 O   0  0  0  0  0  0  0  0  0  0  0  0
    7.0735  -14.8109   16.8471 N   0  0  0  0  0  0  0  0  0  0  0  0
    8.3345  -14.1598   16.8894 C   0  0  0  0  0  0  0  0  0  0  0  0
    9.1506  -14.2988   15.8941 N   0  0  0  0  0  0  0  0  0  0  0  0
    8.7598  -13.3558   17.9739 N   0  0  0  0  0  0  0  0  0  0  0  0
    7.9488  -13.0095   19.1146 C   0  0  0  0  0  0  0  0  0  0  0  0
    7.6839  -14.1590   20.0414 C   0  0  0  0  0  0  0  0  0  0  0  0
    8.8781  -14.3544   20.9242 C   0  0  0  0  0  0  0  0  0  0  0  0
    8.6875  -15.3319   22.0556 C   0  0  2  0  0  0  0  0  0  0  0  0
    7.8135  -14.6457   23.0619 N   0  0  0  0  0  0  0  0  0  0  0  0
    9.9576  -15.6723   22.7327 C   0  0  0  0  0  0  0  0  0  0  0  0
   10.5430  -14.7772   23.4307 O   0  0  0  0  0  0  0  0  0  0  0  0
   10.0969  -13.8690   15.8728 O   0  0  0  0  0  0  0  0  0  0  0  0
   11.2282  -19.3847   23.6406 C   0  0  0  0  0  0  0  0  0  0  0  0
   11.8699  -18.3097   24.2415 C   0  0  1  0  0  0  0  0  0  0  0  0
   11.8917  -17.1346   23.2939 N   0  0  0  0  0  0  0  0  0  0  0  0
   10.5783  -16.9265   22.6698 C   0  0  0  0  0  0  0  0  0  0  0  0
   12.9399  -17.3064   22.2609 O   0  0  0  0  0  0  0  0  0  0  0  0
   12.6111  -17.2633   21.0634 O   0  0  0  0  0  0  0  0  0  0  0  0
  2  1  1  1
  3  2  1  0
  4  2  1  0
  4  5  1  0
  5  6  1  1
  7  8  2  0
  7  5  1  0
  9 10  1  0
 10 12  1  0
 11 10  2  0
 12 13  1  0
 13 14  1  0
 14 15  1  0
 16 15  1  6
 16 17  1  0
 17  7  1  0
 18 16  1  0
 19 18  2  0
 21 20  1  0
 22 21  1  1
 22 23  1  0
 23 18  1  0
 24 22  1  0
 25 24  2  0
 26 24  1  0
M  END
$$$$
