LYD.pdb
     RDKit          3D

 29 29  0  0  1  0  0  0  0  0999 V2000
   14.2709   -5.7066   -6.4564 C   0  0  0  0  0  0  0  0  0  0  0  0
   13.4195   -6.3530   -7.5671 C   0  0  2  0  0  0  0  0  0  0  0  0
   12.2758   -7.0478   -6.8727 C   0  0  0  0  0  0  0  0  0  0  0  0
   14.3401   -7.3178   -8.2598 C   0  0  0  0  0  0  0  0  0  0  0  0
   15.5471   -6.7143   -8.8896 C   0  0  2  0  0  0  0  0  0  0  0  0
   15.0332   -5.5965   -9.7184 N   0  0  0  0  0  0  0  0  0  0  0  0
   16.2901   -7.5882   -9.8147 C   0  0  0  0  0  0  0  0  0  0  0  0
   16.9959   -8.5399   -9.3364 O   0  0  0  0  0  0  0  0  0  0  0  0
   12.2054  -12.5566  -10.3826 O   0  0  0  0  0  0  0  0  0  0  0  0
   13.1127  -11.7266  -11.0085 C   0  0  0  0  0  0  0  0  0  0  0  0
   14.4047  -12.1320  -11.2822 C   0  0  0  0  0  0  0  0  0  0  0  0
   15.2833  -11.2701  -11.9111 C   0  0  0  0  0  0  0  0  0  0  0  0
   14.9254  -10.0055  -12.2834 C   0  0  0  0  0  0  0  0  0  0  0  0
   15.7844   -9.0244  -12.9426 C   0  0  0  0  0  0  0  0  0  0  0  0
   16.9038   -8.5032  -12.0890 C   0  0  2  0  0  0  0  0  0  0  0  0
   16.3196   -7.5049  -11.2184 N   0  0  0  0  0  0  0  0  0  0  0  0
   17.9816   -7.8665  -12.8616 C   0  0  0  0  0  0  0  0  0  0  0  0
   17.9412   -6.6231  -13.0443 O   0  0  0  0  0  0  0  0  0  0  0  0
   13.6174   -9.6247  -11.9949 C   0  0  0  0  0  0  0  0  0  0  0  0
   12.7218  -10.4682  -11.3678 C   0  0  0  0  0  0  0  0  0  0  0  0
   19.0709   -8.5972  -13.4123 N   0  0  0  0  0  0  0  0  0  0  0  0
   20.0629   -7.8337  -14.1816 C   0  0  1  0  0  0  0  0  0  0  0  0
   21.1809   -8.7229  -14.6133 C   0  0  0  0  0  0  0  0  0  0  0  0
   22.1898   -7.9917  -15.3888 C   0  0  0  0  0  0  0  0  0  0  0  0
   22.2932   -6.7446  -15.3282 O   0  0  0  0  0  0  0  0  0  0  0  0
   19.3329   -7.3351  -15.3866 C   0  0  0  0  0  0  0  0  0  0  0  0
   19.5234   -6.0823  -15.9094 O   0  0  0  0  0  0  0  0  0  0  0  0
   23.0891   -8.6584  -16.2379 O   0  0  0  0  0  0  0  0  0  0  0  0
   18.5010   -8.1198  -15.9402 O   0  0  0  0  0  0  0  0  0  0  0  0
  2  1  1  1
  2  4  1  0
  3  2  1  0
  5  4  1  0
  5  6  1  6
  7  5  1  0
  7  8  2  0
  9 10  1  0
 10 20  2  0
 10 11  1  0
 11 12  2  0
 12 13  1  0
 13 14  1  0
 15 14  1  6
 15 16  1  0
 16  7  1  0
 17 21  1  0
 17 15  1  0
 18 17  2  0
 19 13  2  0
 20 19  1  0
 22 21  1  0
 22 26  1  0
 23 24  1  0
 22 23  1  6
 24 28  1  0
 25 24  2  0
 26 27  1  0
 29 26  2  0
M  END
$$$$
