LYD.pdb
     RDKit          3D

 29 29  0  0  1  0  0  0  0  0999 V2000
   27.1232  -18.8362  -21.0358 C   0  0  0  0  0  0  0  0  0  0  0  0
   28.2014  -19.5151  -20.1680 C   0  0  2  0  0  0  0  0  0  0  0  0
   28.9959  -20.3989  -21.0957 C   0  0  0  0  0  0  0  0  0  0  0  0
   27.4417  -20.3022  -19.1378 C   0  0  0  0  0  0  0  0  0  0  0  0
   26.5607  -19.5041  -18.2408 C   0  0  2  0  0  0  0  0  0  0  0  0
   27.4021  -18.3737  -17.7777 N   0  0  0  0  0  0  0  0  0  0  0  0
   26.1043  -20.1889  -17.0184 C   0  0  0  0  0  0  0  0  0  0  0  0
   25.4722  -21.2942  -17.1261 O   0  0  0  0  0  0  0  0  0  0  0  0
   24.7896  -21.5335   -8.2626 O   0  0  0  0  0  0  0  0  0  0  0  0
   25.2578  -21.2002   -9.5169 C   0  0  0  0  0  0  0  0  0  0  0  0
   25.9745  -22.0933  -10.2897 C   0  0  0  0  0  0  0  0  0  0  0  0
   26.4260  -21.7203  -11.5416 C   0  0  0  0  0  0  0  0  0  0  0  0
   26.1914  -20.4799  -12.0631 C   0  0  0  0  0  0  0  0  0  0  0  0
   26.6344  -19.9946  -13.3682 C   0  0  0  0  0  0  0  0  0  0  0  0
   25.8071  -20.4747  -14.5251 C   0  0  2  0  0  0  0  0  0  0  0  0
   26.2868  -19.7624  -15.6906 N   0  0  0  0  0  0  0  0  0  0  0  0
   24.3708  -20.1953  -14.3736 C   0  0  0  0  0  0  0  0  0  0  0  0
   23.9805  -19.0005  -14.4072 O   0  0  0  0  0  0  0  0  0  0  0  0
   25.4667  -19.6012  -11.2621 C   0  0  0  0  0  0  0  0  0  0  0  0
   25.0052  -19.9512  -10.0085 C   0  0  0  0  0  0  0  0  0  0  0  0
   23.4011  -21.2199  -14.1907 N   0  0  0  0  0  0  0  0  0  0  0  0
   22.0037  -20.7933  -14.0351 C   0  0  1  0  0  0  0  0  0  0  0  0
   21.1197  -21.5658  -14.9565 C   0  0  0  0  0  0  0  0  0  0  0  0
   21.1906  -21.0584  -16.3318 C   0  0  0  0  0  0  0  0  0  0  0  0
   21.1901  -21.8279  -17.3204 O   0  0  0  0  0  0  0  0  0  0  0  0
   21.6457  -21.1143  -12.6201 C   0  0  0  0  0  0  0  0  0  0  0  0
   22.2914  -22.0755  -11.8865 O   0  0  0  0  0  0  0  0  0  0  0  0
   21.2628  -19.6819  -16.6042 O   0  0  0  0  0  0  0  0  0  0  0  0
   20.6973  -20.4580  -12.0870 O   0  0  0  0  0  0  0  0  0  0  0  0
  2  1  1  6
  2  4  1  0
  3  2  1  0
  5  4  1  0
  5  6  1  1
  7  5  1  0
  7  8  2  0
  9 10  1  0
 10 20  2  0
 10 11  1  0
 11 12  2  0
 12 13  1  0
 13 14  1  0
 15 14  1  1
 15 16  1  0
 16  7  1  0
 17 21  1  0
 17 15  1  0
 18 17  2  0
 19 13  2  0
 20 19  1  0
 22 21  1  0
 22 26  1  0
 23 24  1  0
 22 23  1  6
 24 28  1  0
 25 24  2  0
 26 27  1  0
 29 26  2  0
M  END
$$$$
