LYD.pdb
     RDKit          3D

 29 29  0  0  1  0  0  0  0  0999 V2000
   28.9763  -17.3197  -17.0022 C   0  0  0  0  0  0  0  0  0  0  0  0
   28.1071  -18.0094  -18.0723 C   0  0  2  0  0  0  0  0  0  0  0  0
   27.3046  -16.9175  -18.7332 C   0  0  0  0  0  0  0  0  0  0  0  0
   27.2425  -18.9776  -17.3153 C   0  0  0  0  0  0  0  0  0  0  0  0
   27.9717  -19.9882  -16.5001 C   0  0  2  0  0  0  0  0  0  0  0  0
   28.2694  -21.0993  -17.4368 N   0  0  0  0  0  0  0  0  0  0  0  0
   27.2056  -20.5919  -15.3955 C   0  0  0  0  0  0  0  0  0  0  0  0
   26.3436  -21.4971  -15.6608 O   0  0  0  0  0  0  0  0  0  0  0  0
   23.9147  -20.8879   -7.0464 O   0  0  0  0  0  0  0  0  0  0  0  0
   24.6776  -20.8303   -8.1946 C   0  0  0  0  0  0  0  0  0  0  0  0
   24.6890  -21.8598   -9.1158 C   0  0  0  0  0  0  0  0  0  0  0  0
   25.4672  -21.7632  -10.2539 C   0  0  0  0  0  0  0  0  0  0  0  0
   26.2446  -20.6713  -10.5168 C   0  0  0  0  0  0  0  0  0  0  0  0
   27.1031  -20.4842  -11.6843 C   0  0  0  0  0  0  0  0  0  0  0  0
   26.4611  -20.8411  -12.9933 C   0  0  2  0  0  0  0  0  0  0  0  0
   27.3100  -20.2863  -14.0265 N   0  0  0  0  0  0  0  0  0  0  0  0
   25.1112  -20.2797  -13.1558 C   0  0  0  0  0  0  0  0  0  0  0  0
   24.9902  -19.0440  -13.3542 O   0  0  0  0  0  0  0  0  0  0  0  0
   26.2130  -19.6498   -9.5711 C   0  0  0  0  0  0  0  0  0  0  0  0
   25.4435  -19.7235   -8.4268 C   0  0  0  0  0  0  0  0  0  0  0  0
   23.9332  -21.0752  -13.0987 N   0  0  0  0  0  0  0  0  0  0  0  0
   22.6507  -20.3778  -13.2650 C   0  0  1  0  0  0  0  0  0  0  0  0
   22.5633  -19.7700  -14.6252 C   0  0  0  0  0  0  0  0  0  0  0  0
   21.2664  -19.1204  -14.8489 C   0  0  0  0  0  0  0  0  0  0  0  0
   20.6275  -18.5824  -13.9151 O   0  0  0  0  0  0  0  0  0  0  0  0
   21.6031  -21.4347  -13.1265 C   0  0  0  0  0  0  0  0  0  0  0  0
   20.2675  -21.1505  -13.0061 O   0  0  0  0  0  0  0  0  0  0  0  0
   20.6794  -19.0716  -16.1245 O   0  0  0  0  0  0  0  0  0  0  0  0
   21.9837  -22.6469  -13.1214 O   0  0  0  0  0  0  0  0  0  0  0  0
  2  1  1  1
  2  4  1  0
  3  2  1  0
  5  4  1  0
  5  6  1  6
  7  5  1  0
  7  8  2  0
  9 10  1  0
 10 20  2  0
 10 11  1  0
 11 12  2  0
 12 13  1  0
 13 14  1  0
 15 14  1  1
 15 16  1  0
 16  7  1  0
 17 21  1  0
 17 15  1  0
 18 17  2  0
 19 13  2  0
 20 19  1  0
 22 21  1  0
 22 26  1  0
 23 24  1  0
 22 23  1  6
 24 28  1  0
 25 24  2  0
 26 27  1  0
 29 26  2  0
M  END
$$$$
