LYD.pdb
     RDKit          3D

 29 29  0  0  1  0  0  0  0  0999 V2000
   15.4359  -14.6940  -16.5940 C   0  0  0  0  0  0  0  0  0  0  0  0
   16.9036  -14.8800  -16.1609 C   0  0  2  0  0  0  0  0  0  0  0  0
   16.9389  -16.1241  -15.3101 C   0  0  0  0  0  0  0  0  0  0  0  0
   17.2452  -13.6423  -15.3802 C   0  0  0  0  0  0  0  0  0  0  0  0
   17.1277  -12.3592  -16.1268 C   0  0  2  0  0  0  0  0  0  0  0  0
   18.0579  -12.4927  -17.2746 N   0  0  0  0  0  0  0  0  0  0  0  0
   17.5624  -11.1539  -15.3990 C   0  0  0  0  0  0  0  0  0  0  0  0
   16.8842  -10.7605  -14.3900 O   0  0  0  0  0  0  0  0  0  0  0  0
   22.5617   -3.8842  -13.8862 O   0  0  0  0  0  0  0  0  0  0  0  0
   22.0610   -5.1472  -14.1270 C   0  0  0  0  0  0  0  0  0  0  0  0
   21.8111   -6.0407  -13.1034 C   0  0  0  0  0  0  0  0  0  0  0  0
   21.3092   -7.2969  -13.3867 C   0  0  0  0  0  0  0  0  0  0  0  0
   21.0422   -7.7063  -14.6621 C   0  0  0  0  0  0  0  0  0  0  0  0
   20.5204   -9.0125  -15.0577 C   0  0  0  0  0  0  0  0  0  0  0  0
   19.0275   -9.1404  -14.9677 C   0  0  2  0  0  0  0  0  0  0  0  0
   18.6794  -10.3485  -15.6854 N   0  0  0  0  0  0  0  0  0  0  0  0
   18.3054   -8.0156  -15.5821 C   0  0  0  0  0  0  0  0  0  0  0  0
   18.2083   -7.9716  -16.8349 O   0  0  0  0  0  0  0  0  0  0  0  0
   21.3036   -6.7849  -15.6730 C   0  0  0  0  0  0  0  0  0  0  0  0
   21.8049   -5.5244  -15.4144 C   0  0  0  0  0  0  0  0  0  0  0  0
   17.7101   -6.9728  -14.8194 N   0  0  0  0  0  0  0  0  0  0  0  0
   17.0529   -5.8928  -15.5681 C   0  0  1  0  0  0  0  0  0  0  0  0
   15.5885   -5.8792  -15.2813 C   0  0  0  0  0  0  0  0  0  0  0  0
   14.9298   -4.7058  -15.8671 C   0  0  0  0  0  0  0  0  0  0  0  0
   13.9514   -4.1527  -15.3136 O   0  0  0  0  0  0  0  0  0  0  0  0
   17.6684   -4.6279  -15.0632 C   0  0  0  0  0  0  0  0  0  0  0  0
   17.6977   -3.4686  -15.7939 O   0  0  0  0  0  0  0  0  0  0  0  0
   15.3672   -4.1467  -17.0797 O   0  0  0  0  0  0  0  0  0  0  0  0
   18.1840   -4.6442  -13.9020 O   0  0  0  0  0  0  0  0  0  0  0  0
  2  1  1  1
  2  4  1  0
  3  2  1  0
  5  4  1  0
  5  6  1  6
  7  5  1  0
  7  8  2  0
  9 10  1  0
 10 20  2  0
 10 11  1  0
 11 12  2  0
 12 13  1  0
 13 14  1  0
 15 14  1  6
 15 16  1  0
 16  7  1  0
 17 21  1  0
 17 15  1  0
 18 17  2  0
 19 13  2  0
 20 19  1  0
 22 21  1  0
 22 26  1  0
 23 24  1  0
 22 23  1  1
 24 28  1  0
 25 24  2  0
 26 27  1  0
 29 26  2  0
M  END
$$$$
