LYD.pdb
     RDKit          3D

 29 29  0  0  1  0  0  0  0  0999 V2000
   20.9982  -11.6549  -19.7122 C   0  0  0  0  0  0  0  0  0  0  0  0
   21.2482  -12.2961  -18.3328 C   0  0  2  0  0  0  0  0  0  0  0  0
   20.6521  -13.6794  -18.3952 C   0  0  0  0  0  0  0  0  0  0  0  0
   20.5367  -11.4095  -17.3501 C   0  0  0  0  0  0  0  0  0  0  0  0
   21.0169  -10.0011  -17.2908 C   0  0  2  0  0  0  0  0  0  0  0  0
   22.4468  -10.0956  -16.9075 N   0  0  0  0  0  0  0  0  0  0  0  0
   20.3842   -9.1525  -16.2656 C   0  0  0  0  0  0  0  0  0  0  0  0
   19.1118   -9.0361  -16.2561 O   0  0  0  0  0  0  0  0  0  0  0  0
   19.3100   -4.4473   -8.7878 O   0  0  0  0  0  0  0  0  0  0  0  0
   19.7698   -5.2474   -9.8135 C   0  0  0  0  0  0  0  0  0  0  0  0
   19.5991   -6.6183   -9.8026 C   0  0  0  0  0  0  0  0  0  0  0  0
   20.0746   -7.3846  -10.8498 C   0  0  0  0  0  0  0  0  0  0  0  0
   20.7214   -6.8369  -11.9210 C   0  0  0  0  0  0  0  0  0  0  0  0
   21.2641   -7.5647  -13.0659 C   0  0  0  0  0  0  0  0  0  0  0  0
   20.3551   -7.6160  -14.2593 C   0  0  2  0  0  0  0  0  0  0  0  0
   21.0319   -8.4252  -15.2508 N   0  0  0  0  0  0  0  0  0  0  0  0
   20.0867   -6.2951  -14.8482 C   0  0  0  0  0  0  0  0  0  0  0  0
   20.9515   -5.7831  -15.6040 O   0  0  0  0  0  0  0  0  0  0  0  0
   20.8788   -5.4534  -11.9048 C   0  0  0  0  0  0  0  0  0  0  0  0
   20.4122   -4.6671  -10.8700 C   0  0  0  0  0  0  0  0  0  0  0  0
   18.8887   -5.5692  -14.6002 N   0  0  0  0  0  0  0  0  0  0  0  0
   18.7165   -4.3022  -15.3241 C   0  0  1  0  0  0  0  0  0  0  0  0
   18.1139   -4.5496  -16.6667 C   0  0  0  0  0  0  0  0  0  0  0  0
   17.7589   -3.2965  -17.3433 C   0  0  0  0  0  0  0  0  0  0  0  0
   18.5059   -2.2915  -17.3065 O   0  0  0  0  0  0  0  0  0  0  0  0
   17.7678   -3.4975  -14.4959 C   0  0  0  0  0  0  0  0  0  0  0  0
   17.7677   -2.1268  -14.4809 O   0  0  0  0  0  0  0  0  0  0  0  0
   16.5610   -3.1656  -18.0659 O   0  0  0  0  0  0  0  0  0  0  0  0
   16.9294   -4.1271  -13.7782 O   0  0  0  0  0  0  0  0  0  0  0  0
  2  1  1  6
  2  4  1  0
  3  2  1  0
  5  4  1  0
  5  6  1  1
  7  5  1  0
  7  8  2  0
  9 10  1  0
 10 20  2  0
 10 11  1  0
 11 12  2  0
 12 13  1  0
 13 14  1  0
 15 14  1  1
 15 16  1  0
 16  7  1  0
 17 21  1  0
 17 15  1  0
 18 17  2  0
 19 13  2  0
 20 19  1  0
 22 21  1  0
 22 26  1  0
 23 24  1  0
 22 23  1  6
 24 28  1  0
 25 24  2  0
 26 27  1  0
 29 26  2  0
M  END
$$$$
