LYD.pdb
     RDKit          3D

 29 29  0  0  1  0  0  0  0  0999 V2000
   27.8308  -13.0715  -14.9946 C   0  0  0  0  0  0  0  0  0  0  0  0
   26.5267  -13.8200  -15.3346 C   0  0  2  0  0  0  0  0  0  0  0  0
   26.8741  -14.7997  -16.4266 C   0  0  0  0  0  0  0  0  0  0  0  0
   25.5713  -12.7579  -15.8006 C   0  0  0  0  0  0  0  0  0  0  0  0
   24.1391  -13.1620  -15.8564 C   0  0  2  0  0  0  0  0  0  0  0  0
   24.0652  -14.1769  -16.9358 N   0  0  0  0  0  0  0  0  0  0  0  0
   23.1902  -12.1018  -16.2398 C   0  0  0  0  0  0  0  0  0  0  0  0
   23.0002  -11.8585  -17.4797 O   0  0  0  0  0  0  0  0  0  0  0  0
   17.7357  -14.5883  -18.7632 O   0  0  0  0  0  0  0  0  0  0  0  0
   18.3357  -13.6940  -17.9007 C   0  0  0  0  0  0  0  0  0  0  0  0
   18.9863  -14.1092  -16.7550 C   0  0  0  0  0  0  0  0  0  0  0  0
   19.5749  -13.1812  -15.9168 C   0  0  0  0  0  0  0  0  0  0  0  0
   19.5427  -11.8402  -16.1744 C   0  0  0  0  0  0  0  0  0  0  0  0
   20.1271  -10.7881  -15.3459 C   0  0  0  0  0  0  0  0  0  0  0  0
   21.4689  -10.3018  -15.8112 C   0  0  2  0  0  0  0  0  0  0  0  0
   22.4325  -11.2907  -15.3759 N   0  0  0  0  0  0  0  0  0  0  0  0
   21.8518   -9.0023  -15.2379 C   0  0  0  0  0  0  0  0  0  0  0  0
   22.2454   -8.9605  -14.0444 O   0  0  0  0  0  0  0  0  0  0  0  0
   18.8805  -11.4512  -17.3360 C   0  0  0  0  0  0  0  0  0  0  0  0
   18.2851  -12.3598  -18.1885 C   0  0  0  0  0  0  0  0  0  0  0  0
   21.7966   -7.7876  -15.9761 N   0  0  0  0  0  0  0  0  0  0  0  0
   22.1836   -6.5601  -15.2672 C   0  0  1  0  0  0  0  0  0  0  0  0
   22.3731   -5.4399  -16.2349 C   0  0  0  0  0  0  0  0  0  0  0  0
   22.5874   -4.1595  -15.5504 C   0  0  0  0  0  0  0  0  0  0  0  0
   22.7425   -4.0922  -14.3090 O   0  0  0  0  0  0  0  0  0  0  0  0
   21.0359   -6.2450  -14.3633 C   0  0  0  0  0  0  0  0  0  0  0  0
   21.1880   -5.6136  -13.1561 O   0  0  0  0  0  0  0  0  0  0  0  0
   22.6286   -2.9462  -16.2576 O   0  0  0  0  0  0  0  0  0  0  0  0
   19.8725   -6.5845  -14.7450 O   0  0  0  0  0  0  0  0  0  0  0  0
  2  1  1  6
  2  4  1  0
  3  2  1  0
  5  4  1  0
  5  6  1  6
  7  5  1  0
  7  8  2  0
  9 10  1  0
 10 20  2  0
 10 11  1  0
 11 12  2  0
 12 13  1  0
 13 14  1  0
 15 14  1  1
 15 16  1  0
 16  7  1  0
 17 21  1  0
 17 15  1  0
 18 17  2  0
 19 13  2  0
 20 19  1  0
 22 21  1  0
 22 26  1  0
 23 24  1  0
 22 23  1  6
 24 28  1  0
 25 24  2  0
 26 27  1  0
 29 26  2  0
M  END
$$$$
