KES.pdb
     RDKit          3D

 25 24  0  0  1  0  0  0  0  0999 V2000
   29.1199  -24.8690  -16.8661 N   0  0  0  0  0  0  0  0  0  0  0  0
   29.1727  -23.4419  -17.0645 C   0  0  1  0  0  0  0  0  0  0  0  0
   30.2666  -23.0022  -17.9893 C   0  0  0  0  0  0  0  0  0  0  0  0
   31.0452  -24.0871  -18.6306 C   0  0  0  0  0  0  0  0  0  0  0  0
   32.0566  -24.7910  -17.8189 C   0  0  0  0  0  0  0  0  0  0  0  0
   32.8354  -25.8575  -18.5080 C   0  0  0  0  0  0  0  0  0  0  0  0
   33.6796  -26.4922  -17.4811 N   0  0  0  0  0  0  0  0  0  0  0  0
   27.8324  -22.9873  -17.5478 C   0  0  0  0  0  0  0  0  0  0  0  0
   27.5757  -21.7623  -17.7185 O   0  0  0  0  0  0  0  0  0  0  0  0
   26.8017  -23.9156  -17.8335 N   0  0  0  0  0  0  0  0  0  0  0  0
   25.4673  -23.5324  -18.2773 C   0  0  1  0  0  0  0  0  0  0  0  0
   24.6510  -24.7118  -18.6897 C   0  0  0  0  0  0  0  0  0  0  0  0
   23.3093  -24.4172  -19.2534 C   0  0  0  0  0  0  0  0  0  0  0  0
   22.4891  -25.5777  -19.6082 C   0  0  0  0  0  0  0  0  0  0  0  0
   21.7973  -26.2263  -18.7810 O   0  0  0  0  0  0  0  0  0  0  0  0
   24.7638  -22.8856  -17.1006 C   0  0  0  0  0  0  0  0  0  0  0  0
   25.4236  -22.6574  -16.0544 O   0  0  0  0  0  0  0  0  0  0  0  0
   22.4180  -26.0580  -20.9325 O   0  0  0  0  0  0  0  0  0  0  0  0
   22.7640  -19.1699  -15.8913 O   0  0  0  0  0  0  0  0  0  0  0  0
   23.4336  -20.1133  -16.7016 C   0  0  0  0  0  0  0  0  0  0  0  0
   22.7770  -21.4389  -16.5350 C   0  0  2  0  0  0  0  0  0  0  0  0
   23.3997  -22.5440  -17.1694 N   0  0  0  0  0  0  0  0  0  0  0  0
   21.2848  -21.3819  -16.7559 C   0  0  0  0  0  0  0  0  0  0  0  0
   20.7275  -22.1322  -17.7387 O   0  0  0  0  0  0  0  0  0  0  0  0
   20.5552  -20.6539  -16.0421 O   0  0  0  0  0  0  0  0  0  0  0  0
  2  8  1  0
  2  1  1  6
  3  2  1  0
  4  3  1  0
  5  4  1  0
  6  5  1  0
  6  7  1  0
  8  9  2  0
 10 11  1  0
 10  8  1  0
 12 13  1  0
 11 12  1  1
 13 14  1  0
 14 18  1  0
 14 15  2  0
 16 17  2  0
 16 11  1  0
 19 20  1  0
 21 20  1  6
 21 22  1  0
 21 23  1  0
 22 16  1  0
 23 24  1  0
 25 23  2  0
M  END
$$$$
