KES.pdb
     RDKit          3D

 25 24  0  0  1  0  0  0  0  0999 V2000
   17.6349  -10.8625  -18.5975 N   0  0  0  0  0  0  0  0  0  0  0  0
   18.5615  -10.6148  -17.5210 C   0  0  1  0  0  0  0  0  0  0  0  0
   19.9460  -11.1210  -17.7892 C   0  0  0  0  0  0  0  0  0  0  0  0
   20.0643  -12.5760  -18.0408 C   0  0  0  0  0  0  0  0  0  0  0  0
   21.4168  -13.1535  -18.1616 C   0  0  0  0  0  0  0  0  0  0  0  0
   21.4950  -14.6323  -18.3218 C   0  0  0  0  0  0  0  0  0  0  0  0
   22.9264  -14.9728  -18.3926 N   0  0  0  0  0  0  0  0  0  0  0  0
   18.5620   -9.1472  -17.2333 C   0  0  0  0  0  0  0  0  0  0  0  0
   18.7041   -8.2962  -18.1561 O   0  0  0  0  0  0  0  0  0  0  0  0
   18.4014   -8.6578  -15.9141 N   0  0  0  0  0  0  0  0  0  0  0  0
   18.3413   -7.2409  -15.5780 C   0  0  1  0  0  0  0  0  0  0  0  0
   17.1004   -6.8931  -14.8252 C   0  0  0  0  0  0  0  0  0  0  0  0
   15.8334   -6.9204  -15.5989 C   0  0  0  0  0  0  0  0  0  0  0  0
   14.6161   -6.5858  -14.8563 C   0  0  0  0  0  0  0  0  0  0  0  0
   14.2069   -5.4097  -14.6744 O   0  0  0  0  0  0  0  0  0  0  0  0
   19.5187   -6.9369  -14.6728 C   0  0  0  0  0  0  0  0  0  0  0  0
   20.1000   -7.8925  -14.0975 O   0  0  0  0  0  0  0  0  0  0  0  0
   13.8012   -7.5831  -14.2810 O   0  0  0  0  0  0  0  0  0  0  0  0
   23.6176   -5.4208  -14.3642 O   0  0  0  0  0  0  0  0  0  0  0  0
   22.3867   -5.8921  -14.8715 C   0  0  0  0  0  0  0  0  0  0  0  0
   21.2785   -5.2074  -14.1511 C   0  0  2  0  0  0  0  0  0  0  0  0
   19.9590   -5.6143  -14.4749 N   0  0  0  0  0  0  0  0  0  0  0  0
   21.4510   -3.7084  -14.1067 C   0  0  0  0  0  0  0  0  0  0  0  0
   22.0004   -3.1331  -13.0081 O   0  0  0  0  0  0  0  0  0  0  0  0
   21.0969   -2.9901  -15.0713 O   0  0  0  0  0  0  0  0  0  0  0  0
  2  8  1  0
  2  1  1  6
  3  2  1  0
  4  3  1  0
  5  4  1  0
  6  5  1  0
  6  7  1  0
  8  9  2  0
 10 11  1  0
 10  8  1  0
 12 13  1  0
 11 12  1  1
 13 14  1  0
 14 18  1  0
 14 15  2  0
 16 17  2  0
 16 11  1  0
 19 20  1  0
 21 20  1  6
 21 22  1  0
 21 23  1  0
 22 16  1  0
 23 24  1  0
 25 23  2  0
M  END
$$$$
