KES.pdb
     RDKit          3D

 25 24  0  0  1  0  0  0  0  0999 V2000
   19.5920  -10.9436  -17.1935 N   0  0  0  0  0  0  0  0  0  0  0  0
   18.6027  -10.4681  -16.2587 C   0  0  1  0  0  0  0  0  0  0  0  0
   18.1641  -11.5025  -15.2674 C   0  0  0  0  0  0  0  0  0  0  0  0
   17.3148  -12.5915  -15.8032 C   0  0  0  0  0  0  0  0  0  0  0  0
   16.7353  -13.5558  -14.8484 C   0  0  0  0  0  0  0  0  0  0  0  0
   15.9012  -14.6448  -15.4289 C   0  0  0  0  0  0  0  0  0  0  0  0
   15.5796  -15.5634  -14.3232 N   0  0  0  0  0  0  0  0  0  0  0  0
   19.1491   -9.2543  -15.5770 C   0  0  0  0  0  0  0  0  0  0  0  0
   18.6639   -8.8375  -14.4877 O   0  0  0  0  0  0  0  0  0  0  0  0
   20.2330   -8.5284  -16.1282 N   0  0  0  0  0  0  0  0  0  0  0  0
   20.8488   -7.3770  -15.4807 C   0  0  1  0  0  0  0  0  0  0  0  0
   22.2773   -7.2053  -15.8776 C   0  0  0  0  0  0  0  0  0  0  0  0
   23.0008   -6.0694  -15.2523 C   0  0  0  0  0  0  0  0  0  0  0  0
   24.3975   -5.8927  -15.6565 C   0  0  0  0  0  0  0  0  0  0  0  0
   24.8809   -4.7988  -16.0480 O   0  0  0  0  0  0  0  0  0  0  0  0
   20.1009   -6.1413  -15.9406 C   0  0  0  0  0  0  0  0  0  0  0  0
   19.9089   -5.9759  -17.1726 O   0  0  0  0  0  0  0  0  0  0  0  0
   25.3166   -6.9625  -15.6339 O   0  0  0  0  0  0  0  0  0  0  0  0
   17.2930   -4.0705  -13.5785 O   0  0  0  0  0  0  0  0  0  0  0  0
   17.4378   -4.0382  -14.9831 C   0  0  0  0  0  0  0  0  0  0  0  0
   18.8889   -4.0202  -15.3144 C   0  0  2  0  0  0  0  0  0  0  0  0
   19.6271   -5.1932  -15.0138 N   0  0  0  0  0  0  0  0  0  0  0  0
   19.5723   -2.7498  -14.8696 C   0  0  0  0  0  0  0  0  0  0  0  0
   19.0262   -1.5510  -15.1926 O   0  0  0  0  0  0  0  0  0  0  0  0
   20.6342   -2.7884  -14.2042 O   0  0  0  0  0  0  0  0  0  0  0  0
  2  8  1  0
  2  1  1  6
  3  2  1  0
  4  3  1  0
  5  4  1  0
  6  5  1  0
  6  7  1  0
  8  9  2  0
 10 11  1  0
 10  8  1  0
 12 13  1  0
 11 12  1  6
 13 14  1  0
 14 18  1  0
 14 15  2  0
 16 17  2  0
 16 11  1  0
 19 20  1  0
 21 20  1  1
 21 22  1  0
 21 23  1  0
 22 16  1  0
 23 24  1  0
 25 23  2  0
M  END
$$$$
