KES.pdb
     RDKit          3D

 25 24  0  0  1  0  0  0  0  0999 V2000
   21.3223  -20.8299  -15.7122 N   0  0  0  0  0  0  0  0  0  0  0  0
   22.0091  -20.4726  -14.4959 C   0  0  1  0  0  0  0  0  0  0  0  0
   21.1733  -20.6329  -13.2627 C   0  0  0  0  0  0  0  0  0  0  0  0
   19.7997  -21.1452  -13.4754 C   0  0  0  0  0  0  0  0  0  0  0  0
   19.3797  -22.3430  -12.7231 C   0  0  0  0  0  0  0  0  0  0  0  0
   17.9810  -22.8067  -12.9407 C   0  0  0  0  0  0  0  0  0  0  0  0
   17.7984  -24.0023  -12.0998 N   0  0  0  0  0  0  0  0  0  0  0  0
   23.2652  -21.2801  -14.4140 C   0  0  0  0  0  0  0  0  0  0  0  0
   24.0887  -21.1212  -13.4693 O   0  0  0  0  0  0  0  0  0  0  0  0
   23.5764  -22.2548  -15.3932 N   0  0  0  0  0  0  0  0  0  0  0  0
   24.8127  -23.0266  -15.4028 C   0  0  1  0  0  0  0  0  0  0  0  0
   24.5730  -24.4696  -15.6996 C   0  0  0  0  0  0  0  0  0  0  0  0
   25.7723  -25.3448  -15.7156 C   0  0  0  0  0  0  0  0  0  0  0  0
   25.5346  -26.7603  -16.0071 C   0  0  0  0  0  0  0  0  0  0  0  0
   24.3941  -27.2525  -16.2094 O   0  0  0  0  0  0  0  0  0  0  0  0
   25.6850  -22.4761  -16.5136 C   0  0  0  0  0  0  0  0  0  0  0  0
   25.1335  -22.0662  -17.5670 O   0  0  0  0  0  0  0  0  0  0  0  0
   26.5932  -27.6895  -16.0825 O   0  0  0  0  0  0  0  0  0  0  0  0
   28.9548  -20.3068  -15.9809 O   0  0  0  0  0  0  0  0  0  0  0  0
   29.2736  -21.3681  -16.8566 C   0  0  0  0  0  0  0  0  0  0  0  0
   28.0085  -21.9734  -17.3556 C   0  0  2  0  0  0  0  0  0  0  0  0
   27.0852  -22.4210  -16.3766 N   0  0  0  0  0  0  0  0  0  0  0  0
   28.2378  -22.9705  -18.4655 C   0  0  0  0  0  0  0  0  0  0  0  0
   29.1227  -22.6788  -19.4511 O   0  0  0  0  0  0  0  0  0  0  0  0
   27.6247  -24.0638  -18.4862 O   0  0  0  0  0  0  0  0  0  0  0  0
  2  8  1  0
  2  1  1  6
  3  2  1  0
  4  3  1  0
  5  4  1  0
  6  5  1  0
  6  7  1  0
  8  9  2  0
 10 11  1  0
 10  8  1  0
 12 13  1  0
 11 12  1  6
 13 14  1  0
 14 18  1  0
 14 15  2  0
 16 17  2  0
 16 11  1  0
 19 20  1  0
 21 20  1  1
 21 22  1  0
 21 23  1  0
 22 16  1  0
 23 24  1  0
 25 23  2  0
M  END
$$$$
