KES.pdb
     RDKit          3D

 25 24  0  0  1  0  0  0  0  0999 V2000
   19.4495  -12.3480  -15.4433 N   0  0  0  0  0  0  0  0  0  0  0  0
   20.1999  -11.8905  -16.5861 C   0  0  1  0  0  0  0  0  0  0  0  0
   19.9372  -12.6775  -17.8338 C   0  0  0  0  0  0  0  0  0  0  0  0
   19.3400  -14.0189  -17.6376 C   0  0  0  0  0  0  0  0  0  0  0  0
   19.0659  -14.8400  -18.8325 C   0  0  0  0  0  0  0  0  0  0  0  0
   18.3901  -16.1467  -18.5990 C   0  0  0  0  0  0  0  0  0  0  0  0
   18.1890  -16.7591  -19.9236 N   0  0  0  0  0  0  0  0  0  0  0  0
   19.9090  -10.4371  -16.7849 C   0  0  0  0  0  0  0  0  0  0  0  0
   19.6386   -9.9709  -17.9275 O   0  0  0  0  0  0  0  0  0  0  0  0
   19.9246   -9.5300  -15.6975 N   0  0  0  0  0  0  0  0  0  0  0  0
   19.6004   -8.1142  -15.8195 C   0  0  1  0  0  0  0  0  0  0  0  0
   18.3229   -7.7678  -15.1298 C   0  0  0  0  0  0  0  0  0  0  0  0
   17.0888   -8.3743  -15.6900 C   0  0  0  0  0  0  0  0  0  0  0  0
   15.8272   -7.9545  -15.0757 C   0  0  0  0  0  0  0  0  0  0  0  0
   15.7195   -7.5856  -13.8774 O   0  0  0  0  0  0  0  0  0  0  0  0
   20.7071   -7.3330  -15.1391 C   0  0  0  0  0  0  0  0  0  0  0  0
   21.2957   -7.8521  -14.1563 O   0  0  0  0  0  0  0  0  0  0  0  0
   14.6189   -7.9352  -15.8033 O   0  0  0  0  0  0  0  0  0  0  0  0
   23.5036   -3.3421  -15.1580 O   0  0  0  0  0  0  0  0  0  0  0  0
   22.4058   -3.9732  -15.7836 C   0  0  0  0  0  0  0  0  0  0  0  0
   22.0867   -5.2241  -15.0423 C   0  0  2  0  0  0  0  0  0  0  0  0
   21.0748   -6.0517  -15.5923 N   0  0  0  0  0  0  0  0  0  0  0  0
   21.9377   -4.9993  -13.5571 C   0  0  0  0  0  0  0  0  0  0  0  0
   23.0382   -5.0284  -12.7649 O   0  0  0  0  0  0  0  0  0  0  0  0
   20.8126   -4.7832  -13.0478 O   0  0  0  0  0  0  0  0  0  0  0  0
  2  8  1  0
  2  1  1  1
  3  2  1  0
  4  3  1  0
  5  4  1  0
  6  5  1  0
  6  7  1  0
  8  9  2  0
 10 11  1  0
 10  8  1  0
 12 13  1  0
 11 12  1  1
 13 14  1  0
 14 18  1  0
 14 15  2  0
 16 17  2  0
 16 11  1  0
 19 20  1  0
 21 20  1  6
 21 22  1  0
 21 23  1  0
 22 16  1  0
 23 24  1  0
 25 23  2  0
M  END
$$$$
