KES.pdb
     RDKit          3D

 25 24  0  0  1  0  0  0  0  0999 V2000
   15.0685  -20.3956    1.8542 N   0  0  0  0  0  0  0  0  0  0  0  0
   15.4924  -20.8142    3.1671 C   0  0  1  0  0  0  0  0  0  0  0  0
   16.1151  -22.1768    3.1932 C   0  0  0  0  0  0  0  0  0  0  0  0
   15.2570  -23.2882    2.7211 C   0  0  0  0  0  0  0  0  0  0  0  0
   15.8532  -24.6345    2.6236 C   0  0  0  0  0  0  0  0  0  0  0  0
   15.0155  -25.6864    1.9832 C   0  0  0  0  0  0  0  0  0  0  0  0
   15.7872  -26.9393    2.0530 N   0  0  0  0  0  0  0  0  0  0  0  0
   16.4229  -19.7772    3.7106 C   0  0  0  0  0  0  0  0  0  0  0  0
   16.9996  -18.9485    2.9514 O   0  0  0  0  0  0  0  0  0  0  0  0
   16.6902  -19.6859    5.0983 N   0  0  0  0  0  0  0  0  0  0  0  0
   17.4395  -18.5946    5.7083 C   0  0  1  0  0  0  0  0  0  0  0  0
   16.5461  -17.6011    6.3732 C   0  0  0  0  0  0  0  0  0  0  0  0
   17.2081  -16.3999    6.9422 C   0  0  0  0  0  0  0  0  0  0  0  0
   16.3195  -15.3637    7.4730 C   0  0  0  0  0  0  0  0  0  0  0  0
   16.7233  -14.2742    7.9565 O   0  0  0  0  0  0  0  0  0  0  0  0
   18.3257  -19.1945    6.7820 C   0  0  0  0  0  0  0  0  0  0  0  0
   17.8933  -20.1725    7.4443 O   0  0  0  0  0  0  0  0  0  0  0  0
   14.9178  -15.5209    7.4784 O   0  0  0  0  0  0  0  0  0  0  0  0
   22.7683  -19.6799    8.5947 O   0  0  0  0  0  0  0  0  0  0  0  0
   21.9884  -18.9879    7.6419 C   0  0  0  0  0  0  0  0  0  0  0  0
   20.5494  -19.1789    7.9715 C   0  0  2  0  0  0  0  0  0  0  0  0
   19.6082  -18.6735    7.0387 N   0  0  0  0  0  0  0  0  0  0  0  0
   20.2273  -18.8231    9.4027 C   0  0  0  0  0  0  0  0  0  0  0  0
   20.8327  -19.4999   10.4101 O   0  0  0  0  0  0  0  0  0  0  0  0
   19.4116  -17.9098    9.6716 O   0  0  0  0  0  0  0  0  0  0  0  0
  2  8  1  0
  2  1  1  6
  3  2  1  0
  4  3  1  0
  5  4  1  0
  6  5  1  0
  6  7  1  0
  8  9  2  0
 10 11  1  0
 10  8  1  0
 12 13  1  0
 11 12  1  1
 13 14  1  0
 14 18  1  0
 14 15  2  0
 16 17  2  0
 16 11  1  0
 19 20  1  0
 21 20  1  6
 21 22  1  0
 21 23  1  0
 22 16  1  0
 23 24  1  0
 25 23  2  0
M  END
$$$$
