KES.pdb
     RDKit          3D

 25 24  0  0  1  0  0  0  0  0999 V2000
   26.3217    6.4979   -9.2527 N   0  0  0  0  0  0  0  0  0  0  0  0
   26.4911    5.1244   -8.8484 C   0  0  1  0  0  0  0  0  0  0  0  0
   27.8527    4.5729   -9.1437 C   0  0  0  0  0  0  0  0  0  0  0  0
   28.1992    4.4416  -10.5779 C   0  0  0  0  0  0  0  0  0  0  0  0
   29.4910    3.8201  -10.9275 C   0  0  0  0  0  0  0  0  0  0  0  0
   29.8104    3.7251  -12.3792 C   0  0  0  0  0  0  0  0  0  0  0  0
   31.1180    3.0541  -12.4794 N   0  0  0  0  0  0  0  0  0  0  0  0
   26.1635    5.0219   -7.3928 C   0  0  0  0  0  0  0  0  0  0  0  0
   26.2633    6.0196   -6.6244 O   0  0  0  0  0  0  0  0  0  0  0  0
   25.7273    3.8010   -6.8229 N   0  0  0  0  0  0  0  0  0  0  0  0
   25.2797    3.6663   -5.4423 C   0  0  1  0  0  0  0  0  0  0  0  0
   23.7975    3.7884   -5.3168 C   0  0  0  0  0  0  0  0  0  0  0  0
   23.2387    3.6284   -3.9504 C   0  0  0  0  0  0  0  0  0  0  0  0
   21.7831    3.7391   -3.8312 C   0  0  0  0  0  0  0  0  0  0  0  0
   21.0114    3.9192   -4.8088 O   0  0  0  0  0  0  0  0  0  0  0  0
   25.6595    2.2757   -4.9737 C   0  0  0  0  0  0  0  0  0  0  0  0
   25.9534    1.4079   -5.8354 O   0  0  0  0  0  0  0  0  0  0  0  0
   21.1328    3.6494   -2.5828 O   0  0  0  0  0  0  0  0  0  0  0  0
   28.7432    0.1188   -2.7597 O   0  0  0  0  0  0  0  0  0  0  0  0
   28.0138    1.1336   -3.4177 C   0  0  0  0  0  0  0  0  0  0  0  0
   26.5974    1.0763   -2.9632 C   0  0  2  0  0  0  0  0  0  0  0  0
   25.6856    1.9539   -3.6032 N   0  0  0  0  0  0  0  0  0  0  0  0
   26.4681    1.0680   -1.4592 C   0  0  0  0  0  0  0  0  0  0  0  0
   26.5264   -0.1113   -0.7919 O   0  0  0  0  0  0  0  0  0  0  0  0
   26.3112    2.1351   -0.8201 O   0  0  0  0  0  0  0  0  0  0  0  0
  2  8  1  0
  2  1  1  1
  3  2  1  0
  4  3  1  0
  5  4  1  0
  6  5  1  0
  6  7  1  0
  8  9  2  0
 10 11  1  0
 10  8  1  0
 12 13  1  0
 11 12  1  6
 13 14  1  0
 14 18  1  0
 14 15  2  0
 16 17  2  0
 16 11  1  0
 19 20  1  0
 21 20  1  1
 21 22  1  0
 21 23  1  0
 22 16  1  0
 23 24  1  0
 25 23  2  0
M  END
$$$$
