VAN.pdb
     RDKit          3D

 21 20  0  0  1  0  0  0  0  0999 V2000
    6.0167  -19.3397   17.0518 C   0  0  0  0  0  0  0  0  0  0  0  0
    6.7558  -18.4550   18.0003 C   0  0  2  0  0  0  0  0  0  0  0  0
    5.9212  -18.1893   19.2096 C   0  0  0  0  0  0  0  0  0  0  0  0
    7.1794  -17.1342   17.3478 C   0  0  2  0  0  0  0  0  0  0  0  0
    7.9945  -17.4183   16.1812 N   0  0  0  0  0  0  0  0  0  0  0  0
    7.8839  -16.3006   18.3330 C   0  0  0  0  0  0  0  0  0  0  0  0
    8.9343  -16.7496   18.8597 O   0  0  0  0  0  0  0  0  0  0  0  0
    7.5308  -12.9041   20.0110 C   0  0  0  0  0  0  0  0  0  0  0  0
    8.1571  -14.2561   19.7773 C   0  0  2  0  0  0  0  0  0  0  0  0
    7.4737  -15.0068   18.7502 N   0  0  0  0  0  0  0  0  0  0  0  0
    8.2446  -14.9943   21.0577 C   0  0  0  0  0  0  0  0  0  0  0  0
    7.2322  -15.5191   21.6243 O   0  0  0  0  0  0  0  0  0  0  0  0
   10.8836  -19.5899   22.9508 N   0  0  0  0  0  0  0  0  0  0  0  0
   10.0232  -18.4768   23.3166 C   0  0  0  0  0  0  0  0  0  0  0  0
    9.7034  -18.4725   24.5273 O   0  0  0  0  0  0  0  0  0  0  0  0
    9.6117  -17.4904   22.3000 C   0  0  0  0  0  0  0  0  0  0  0  0
    9.8199  -16.0827   22.7177 C   0  0  2  0  0  0  0  0  0  0  0  0
    9.4989  -15.1253   21.6812 N   0  0  0  0  0  0  0  0  0  0  0  0
   11.2152  -15.8687   23.1372 C   0  0  0  0  0  0  0  0  0  0  0  0
   11.6871  -15.9996   24.2831 O   0  0  0  0  0  0  0  0  0  0  0  0
   12.1303  -15.4690   22.1308 O   0  0  0  0  0  0  0  0  0  0  0  0
  2  4  1  0
  2  1  1  6
  3  2  1  0
  4  6  1  0
  4  5  1  6
  6  7  2  0
  9  8  1  1
  9 11  1  0
 10  9  1  0
 10  6  1  0
 11 12  2  0
 11 18  1  0
 13 14  1  0
 14 16  1  0
 14 15  2  0
 17 16  1  6
 17 19  1  0
 18 17  1  0
 19 20  2  0
 19 21  1  0
M  END
$$$$
