VAN.pdb
     RDKit          3D

 21 20  0  0  1  0  0  0  0  0999 V2000
    7.2254  -15.0205   18.0157 C   0  0  0  0  0  0  0  0  0  0  0  0
    7.7575  -15.0618   19.4099 C   0  0  2  0  0  0  0  0  0  0  0  0
    7.0812  -16.1443   20.1848 C   0  0  0  0  0  0  0  0  0  0  0  0
    7.5997  -13.7172   20.1287 C   0  0  2  0  0  0  0  0  0  0  0  0
    8.2585  -12.6819   19.3541 N   0  0  0  0  0  0  0  0  0  0  0  0
    8.1360  -13.8214   21.4938 C   0  0  0  0  0  0  0  0  0  0  0  0
    9.3652  -14.0441   21.6419 O   0  0  0  0  0  0  0  0  0  0  0  0
    7.0326  -13.3593   25.0897 C   0  0  0  0  0  0  0  0  0  0  0  0
    7.9216  -13.9067   24.0012 C   0  0  2  0  0  0  0  0  0  0  0  0
    7.3722  -13.6898   22.6835 N   0  0  0  0  0  0  0  0  0  0  0  0
    8.2157  -15.3334   24.2666 C   0  0  0  0  0  0  0  0  0  0  0  0
    7.4012  -16.2713   23.9868 O   0  0  0  0  0  0  0  0  0  0  0  0
   12.4332  -16.1972   22.7792 N   0  0  0  0  0  0  0  0  0  0  0  0
   11.5468  -17.2109   23.3265 C   0  0  0  0  0  0  0  0  0  0  0  0
   11.0592  -17.9676   22.4559 O   0  0  0  0  0  0  0  0  0  0  0  0
   11.2980  -17.2748   24.7790 C   0  0  0  0  0  0  0  0  0  0  0  0
    9.8854  -17.0210   25.1528 C   0  0  2  0  0  0  0  0  0  0  0  0
    9.4478  -15.6745   24.8537 N   0  0  0  0  0  0  0  0  0  0  0  0
    9.6772  -17.2731   26.5888 C   0  0  0  0  0  0  0  0  0  0  0  0
    9.2695  -16.4650   27.4453 O   0  0  0  0  0  0  0  0  0  0  0  0
    9.9711  -18.5786   27.0570 O   0  0  0  0  0  0  0  0  0  0  0  0
  2  4  1  0
  2  1  1  6
  3  2  1  0
  4  6  1  0
  4  5  1  6
  6  7  2  0
  9  8  1  1
  9 11  1  0
 10  9  1  0
 10  6  1  0
 11 12  2  0
 11 18  1  0
 13 14  1  0
 14 16  1  0
 14 15  2  0
 17 16  1  1
 17 19  1  0
 18 17  1  0
 19 20  2  0
 19 21  1  0
M  END
$$$$
