VAN.pdb
     RDKit          3D

 21 20  0  0  1  0  0  0  0  0999 V2000
    8.9934  -16.2316   20.8753 C   0  0  0  0  0  0  0  0  0  0  0  0
    7.5296  -15.9388   20.8797 C   0  0  2  0  0  0  0  0  0  0  0  0
    6.8959  -16.4750   19.6385 C   0  0  0  0  0  0  0  0  0  0  0  0
    7.2406  -14.4397   21.0176 C   0  0  2  0  0  0  0  0  0  0  0  0
    7.8093  -13.7378   19.8819 N   0  0  0  0  0  0  0  0  0  0  0  0
    7.7696  -13.9509   22.2995 C   0  0  0  0  0  0  0  0  0  0  0  0
    8.9432  -13.4993   22.3330 O   0  0  0  0  0  0  0  0  0  0  0  0
    6.6313  -13.0826   25.7839 C   0  0  0  0  0  0  0  0  0  0  0  0
    7.6552  -13.5587   24.7841 C   0  0  2  0  0  0  0  0  0  0  0  0
    7.0569  -13.9440   23.5276 N   0  0  0  0  0  0  0  0  0  0  0  0
    8.4706  -14.6409   25.3809 C   0  0  0  0  0  0  0  0  0  0  0  0
    9.0153  -14.5446   26.5278 O   0  0  0  0  0  0  0  0  0  0  0  0
    6.2082  -18.4705   25.5151 N   0  0  0  0  0  0  0  0  0  0  0  0
    7.5903  -18.4098   25.9611 C   0  0  0  0  0  0  0  0  0  0  0  0
    7.7163  -18.4995   27.2038 O   0  0  0  0  0  0  0  0  0  0  0  0
    8.6816  -18.2562   24.9806 C   0  0  0  0  0  0  0  0  0  0  0  0
    9.4181  -16.9750   25.1052 C   0  0  2  0  0  0  0  0  0  0  0  0
    8.6558  -15.8309   24.6536 N   0  0  0  0  0  0  0  0  0  0  0  0
   10.6788  -17.0272   24.3458 C   0  0  0  0  0  0  0  0  0  0  0  0
   10.8329  -17.3893   23.1634 O   0  0  0  0  0  0  0  0  0  0  0  0
   11.8530  -16.6217   25.0291 O   0  0  0  0  0  0  0  0  0  0  0  0
  2  4  1  0
  2  1  1  6
  3  2  1  0
  4  6  1  0
  4  5  1  6
  6  7  2  0
  9  8  1  1
  9 11  1  0
 10  9  1  0
 10  6  1  0
 11 12  2  0
 11 18  1  0
 13 14  1  0
 14 16  1  0
 14 15  2  0
 17 16  1  6
 17 19  1  0
 18 17  1  0
 19 20  2  0
 19 21  1  0
M  END
$$$$
