VAN.pdb
     RDKit          3D

 21 20  0  0  1  0  0  0  0  0999 V2000
    9.9450  -12.8420   20.2214 C   0  0  0  0  0  0  0  0  0  0  0  0
    8.6990  -13.2373   19.5005 C   0  0  2  0  0  0  0  0  0  0  0  0
    7.5008  -12.7216   20.2272 C   0  0  0  0  0  0  0  0  0  0  0  0
    8.5948  -14.7556   19.3165 C   0  0  2  0  0  0  0  0  0  0  0  0
    7.4539  -15.0565   18.4717 N   0  0  0  0  0  0  0  0  0  0  0  0
    8.5045  -15.4071   20.6315 C   0  0  0  0  0  0  0  0  0  0  0  0
    7.4444  -15.2769   21.2960 O   0  0  0  0  0  0  0  0  0  0  0  0
    9.8296  -18.2768   22.4755 C   0  0  0  0  0  0  0  0  0  0  0  0
    9.3817  -16.8370   22.5094 C   0  0  2  0  0  0  0  0  0  0  0  0
    9.5304  -16.1862   21.2289 N   0  0  0  0  0  0  0  0  0  0  0  0
   10.0861  -16.1201   23.5966 C   0  0  0  0  0  0  0  0  0  0  0  0
   11.0895  -15.3639   23.3899 O   0  0  0  0  0  0  0  0  0  0  0  0
    9.3947  -13.0755   28.7199 N   0  0  0  0  0  0  0  0  0  0  0  0
   10.0226  -14.1908   28.0309 C   0  0  0  0  0  0  0  0  0  0  0  0
   11.1061  -14.5480   28.5474 O   0  0  0  0  0  0  0  0  0  0  0  0
    9.3806  -14.7880   26.8447 C   0  0  0  0  0  0  0  0  0  0  0  0
   10.2636  -15.7110   26.0911 C   0  0  2  0  0  0  0  0  0  0  0  0
    9.6318  -16.2770   24.9187 N   0  0  0  0  0  0  0  0  0  0  0  0
   10.7186  -16.8127   26.9559 C   0  0  0  0  0  0  0  0  0  0  0  0
   10.0458  -17.7791   27.3637 O   0  0  0  0  0  0  0  0  0  0  0  0
   12.0723  -16.7773   27.3759 O   0  0  0  0  0  0  0  0  0  0  0  0
  2  4  1  0
  2  1  1  1
  3  2  1  0
  4  6  1  0
  4  5  1  6
  6  7  2  0
  9  8  1  6
  9 11  1  0
 10  9  1  0
 10  6  1  0
 11 12  2  0
 11 18  1  0
 13 14  1  0
 14 16  1  0
 14 15  2  0
 17 16  1  1
 17 19  1  0
 18 17  1  0
 19 20  2  0
 19 21  1  0
M  END
$$$$
