VAN.pdb
     RDKit          3D

 21 20  0  0  1  0  0  0  0  0999 V2000
    8.0595  -12.7102   26.9300 C   0  0  0  0  0  0  0  0  0  0  0  0
    7.1812  -12.0649   25.9099 C   0  0  2  0  0  0  0  0  0  0  0  0
    6.5363  -10.8472   26.4853 C   0  0  0  0  0  0  0  0  0  0  0  0
    6.1147  -13.0267   25.3740 C   0  0  2  0  0  0  0  0  0  0  0  0
    5.3635  -13.5747   26.4882 N   0  0  0  0  0  0  0  0  0  0  0  0
    6.7557  -14.0723   24.5631 C   0  0  0  0  0  0  0  0  0  0  0  0
    7.1083  -15.1399   25.1275 O   0  0  0  0  0  0  0  0  0  0  0  0
    7.8283  -14.6747   20.9628 C   0  0  0  0  0  0  0  0  0  0  0  0
    7.7188  -15.0029   22.4308 C   0  0  2  0  0  0  0  0  0  0  0  0
    7.0167  -13.9805   23.1704 N   0  0  0  0  0  0  0  0  0  0  0  0
    9.0645  -15.2805   22.9824 C   0  0  0  0  0  0  0  0  0  0  0  0
    9.8035  -14.3770   23.4912 O   0  0  0  0  0  0  0  0  0  0  0  0
   11.9569  -19.2973   26.2560 N   0  0  0  0  0  0  0  0  0  0  0  0
   11.8914  -18.8284   24.8817 C   0  0  0  0  0  0  0  0  0  0  0  0
   12.9809  -18.9227   24.2716 O   0  0  0  0  0  0  0  0  0  0  0  0
   10.6251  -18.3062   24.3342 C   0  0  0  0  0  0  0  0  0  0  0  0
   10.7834  -17.0501   23.5619 C   0  0  2  0  0  0  0  0  0  0  0  0
    9.5543  -16.5989   22.9457 N   0  0  0  0  0  0  0  0  0  0  0  0
   11.8017  -17.2140   22.5107 C   0  0  0  0  0  0  0  0  0  0  0  0
   11.6427  -17.7039   21.3761 O   0  0  0  0  0  0  0  0  0  0  0  0
   13.1121  -16.7670   22.8160 O   0  0  0  0  0  0  0  0  0  0  0  0
  2  4  1  0
  2  1  1  1
  3  2  1  0
  4  6  1  0
  4  5  1  1
  6  7  2  0
  9  8  1  6
  9 11  1  0
 10  9  1  0
 10  6  1  0
 11 12  2  0
 11 18  1  0
 13 14  1  0
 14 16  1  0
 14 15  2  0
 17 16  1  6
 17 19  1  0
 18 17  1  0
 19 20  2  0
 19 21  1  0
M  END
$$$$
