VAN.pdb
     RDKit          3D

 21 20  0  0  1  0  0  0  0  0999 V2000
    7.7252  -12.7900   19.5968 C   0  0  0  0  0  0  0  0  0  0  0  0
    7.5994  -13.4630   20.9233 C   0  0  2  0  0  0  0  0  0  0  0  0
    8.6665  -12.9769   21.8479 C   0  0  0  0  0  0  0  0  0  0  0  0
    7.6563  -14.9902   20.8042 C   0  0  2  0  0  0  0  0  0  0  0  0
    6.6493  -15.4326   19.8575 N   0  0  0  0  0  0  0  0  0  0  0  0
    7.4800  -15.5958   22.1324 C   0  0  0  0  0  0  0  0  0  0  0  0
    6.4206  -15.3562   22.7671 O   0  0  0  0  0  0  0  0  0  0  0  0
    7.8853  -18.4386   24.0978 C   0  0  0  0  0  0  0  0  0  0  0  0
    8.2279  -16.9699   24.1055 C   0  0  2  0  0  0  0  0  0  0  0  0
    8.4202  -16.4446   22.7742 N   0  0  0  0  0  0  0  0  0  0  0  0
    9.3963  -16.7340   24.9838 C   0  0  0  0  0  0  0  0  0  0  0  0
   10.5895  -16.6661   24.5444 O   0  0  0  0  0  0  0  0  0  0  0  0
    9.7625  -13.6438   26.5992 N   0  0  0  0  0  0  0  0  0  0  0  0
    9.5036  -14.0271   27.9772 C   0  0  0  0  0  0  0  0  0  0  0  0
    9.0472  -13.0934   28.6758 O   0  0  0  0  0  0  0  0  0  0  0  0
    9.7792  -15.4037   28.4300 C   0  0  0  0  0  0  0  0  0  0  0  0
   10.2197  -16.3112   27.3428 C   0  0  2  0  0  0  0  0  0  0  0  0
    9.1857  -16.5772   26.3659 N   0  0  0  0  0  0  0  0  0  0  0  0
   10.6824  -17.5950   27.8964 C   0  0  0  0  0  0  0  0  0  0  0  0
   10.1485  -18.7124   27.7586 O   0  0  0  0  0  0  0  0  0  0  0  0
   11.8673  -17.5647   28.6744 O   0  0  0  0  0  0  0  0  0  0  0  0
  2  4  1  0
  2  1  1  6
  3  2  1  0
  4  6  1  0
  4  5  1  6
  6  7  2  0
  9  8  1  6
  9 11  1  0
 10  9  1  0
 10  6  1  0
 11 12  2  0
 11 18  1  0
 13 14  1  0
 14 16  1  0
 14 15  2  0
 17 16  1  1
 17 19  1  0
 18 17  1  0
 19 20  2  0
 19 21  1  0
M  END
$$$$
