VAN.pdb
     RDKit          3D

 21 20  0  0  1  0  0  0  0  0999 V2000
    7.7442  -16.7063   14.4241 C   0  0  0  0  0  0  0  0  0  0  0  0
    8.3426  -16.2983   15.7294 C   0  0  2  0  0  0  0  0  0  0  0  0
    8.0637  -17.3349   16.7674 C   0  0  0  0  0  0  0  0  0  0  0  0
    7.8330  -14.9300   16.1962 C   0  0  2  0  0  0  0  0  0  0  0  0
    8.0785  -13.9491   15.1553 N   0  0  0  0  0  0  0  0  0  0  0  0
    8.4784  -14.5704   17.4674 C   0  0  0  0  0  0  0  0  0  0  0  0
    9.7349  -14.5326   17.5146 O   0  0  0  0  0  0  0  0  0  0  0  0
    7.5138  -13.5702   21.0087 C   0  0  0  0  0  0  0  0  0  0  0  0
    8.4726  -13.9461   19.9068 C   0  0  2  0  0  0  0  0  0  0  0  0
    7.7933  -14.2555   18.6707 N   0  0  0  0  0  0  0  0  0  0  0  0
    9.3516  -15.0467   20.3632 C   0  0  0  0  0  0  0  0  0  0  0  0
    9.0852  -16.2750   20.1585 O   0  0  0  0  0  0  0  0  0  0  0  0
   13.5865  -13.7859   19.5791 N   0  0  0  0  0  0  0  0  0  0  0  0
   13.3255  -15.1149   20.1070 C   0  0  0  0  0  0  0  0  0  0  0  0
   13.5216  -16.0285   19.2733 O   0  0  0  0  0  0  0  0  0  0  0  0
   12.8756  -15.2855   21.5014 C   0  0  0  0  0  0  0  0  0  0  0  0
   11.4540  -15.6904   21.6230 C   0  0  2  0  0  0  0  0  0  0  0  0
   10.5348  -14.7282   21.0544 N   0  0  0  0  0  0  0  0  0  0  0  0
   11.0957  -15.9024   23.0356 C   0  0  0  0  0  0  0  0  0  0  0  0
   11.6059  -16.7161   23.8295 O   0  0  0  0  0  0  0  0  0  0  0  0
   10.0548  -15.0941   23.5584 O   0  0  0  0  0  0  0  0  0  0  0  0
  2  4  1  0
  2  1  1  6
  3  2  1  0
  4  6  1  0
  4  5  1  6
  6  7  2  0
  9  8  1  1
  9 11  1  0
 10  9  1  0
 10  6  1  0
 11 12  2  0
 11 18  1  0
 13 14  1  0
 14 16  1  0
 14 15  2  0
 17 16  1  1
 17 19  1  0
 18 17  1  0
 19 20  2  0
 19 21  1  0
M  END
$$$$
