VAN.pdb
     RDKit          3D

 21 20  0  0  1  0  0  0  0  0999 V2000
    7.8918  -13.2257   21.6896 C   0  0  0  0  0  0  0  0  0  0  0  0
    8.5401  -13.2914   20.3466 C   0  0  2  0  0  0  0  0  0  0  0  0
    7.9947  -12.2199   19.4611 C   0  0  0  0  0  0  0  0  0  0  0  0
    8.3656  -14.6641   19.6871 C   0  0  2  0  0  0  0  0  0  0  0  0
    6.9647  -14.8642   19.3656 N   0  0  0  0  0  0  0  0  0  0  0  0
    8.8901  -15.7098   20.5778 C   0  0  0  0  0  0  0  0  0  0  0  0
    8.1425  -16.1582   21.4848 O   0  0  0  0  0  0  0  0  0  0  0  0
   11.7300  -18.1583   20.7904 C   0  0  0  0  0  0  0  0  0  0  0  0
   10.6694  -17.2843   21.4118 C   0  0  2  0  0  0  0  0  0  0  0  0
   10.1930  -16.2691   20.5019 N   0  0  0  0  0  0  0  0  0  0  0  0
   11.1718  -16.7169   22.6838 C   0  0  0  0  0  0  0  0  0  0  0  0
   11.7246  -15.5724   22.7602 O   0  0  0  0  0  0  0  0  0  0  0  0
   12.3009  -16.2016   27.7178 N   0  0  0  0  0  0  0  0  0  0  0  0
   10.9184  -16.6090   27.5290 C   0  0  0  0  0  0  0  0  0  0  0  0
   10.2307  -16.5336   28.5728 O   0  0  0  0  0  0  0  0  0  0  0  0
   10.4496  -17.0554   26.2035 C   0  0  0  0  0  0  0  0  0  0  0  0
   11.5130  -17.0703   25.1698 C   0  0  2  0  0  0  0  0  0  0  0  0
   11.0353  -17.4706   23.8638 N   0  0  0  0  0  0  0  0  0  0  0  0
   12.6066  -17.9736   25.5657 C   0  0  0  0  0  0  0  0  0  0  0  0
   12.6036  -19.2194   25.5381 O   0  0  0  0  0  0  0  0  0  0  0  0
   13.7997  -17.3658   26.0316 O   0  0  0  0  0  0  0  0  0  0  0  0
  2  4  1  0
  2  1  1  1
  3  2  1  0
  4  6  1  0
  4  5  1  1
  6  7  2  0
  9  8  1  6
  9 11  1  0
 10  9  1  0
 10  6  1  0
 11 12  2  0
 11 18  1  0
 13 14  1  0
 14 16  1  0
 14 15  2  0
 17 16  1  1
 17 19  1  0
 18 17  1  0
 19 20  2  0
 19 21  1  0
M  END
$$$$
