VAN.pdb
     RDKit          3D

 21 20  0  0  1  0  0  0  0  0999 V2000
    7.2644  -12.5748   20.1022 C   0  0  0  0  0  0  0  0  0  0  0  0
    8.3521  -12.9825   19.1646 C   0  0  2  0  0  0  0  0  0  0  0  0
    7.9200  -12.7640   17.7520 C   0  0  0  0  0  0  0  0  0  0  0  0
    8.7755  -14.4413   19.3699 C   0  0  2  0  0  0  0  0  0  0  0  0
    7.7352  -15.3160   18.8613 N   0  0  0  0  0  0  0  0  0  0  0  0
    9.0585  -14.6774   20.7933 C   0  0  0  0  0  0  0  0  0  0  0  0
   10.0798  -14.1457   21.2999 O   0  0  0  0  0  0  0  0  0  0  0  0
    7.4742  -16.2373   23.8548 C   0  0  0  0  0  0  0  0  0  0  0  0
    8.6426  -15.7678   23.0246 C   0  0  2  0  0  0  0  0  0  0  0  0
    8.2634  -15.4691   21.6636 N   0  0  0  0  0  0  0  0  0  0  0  0
    9.7416  -16.7568   23.1044 C   0  0  0  0  0  0  0  0  0  0  0  0
    9.9686  -17.6140   22.1906 O   0  0  0  0  0  0  0  0  0  0  0  0
   15.3765  -16.3140   24.5231 N   0  0  0  0  0  0  0  0  0  0  0  0
   14.3106  -17.0022   23.8136 C   0  0  0  0  0  0  0  0  0  0  0  0
   14.6777  -18.0767   23.2856 O   0  0  0  0  0  0  0  0  0  0  0  0
   12.9545  -16.4237   23.7671 C   0  0  0  0  0  0  0  0  0  0  0  0
   11.9037  -17.3261   24.2971 C   0  0  2  0  0  0  0  0  0  0  0  0
   10.5757  -16.7546   24.2373 N   0  0  0  0  0  0  0  0  0  0  0  0
   12.1933  -17.6930   25.6937 C   0  0  0  0  0  0  0  0  0  0  0  0
   12.9668  -18.5838   26.0949 O   0  0  0  0  0  0  0  0  0  0  0  0
   11.5208  -16.9550   26.7002 O   0  0  0  0  0  0  0  0  0  0  0  0
  2  4  1  0
  2  1  1  1
  3  2  1  0
  4  6  1  0
  4  5  1  1
  6  7  2  0
  9  8  1  1
  9 11  1  0
 10  9  1  0
 10  6  1  0
 11 12  2  0
 11 18  1  0
 13 14  1  0
 14 16  1  0
 14 15  2  0
 17 16  1  1
 17 19  1  0
 18 17  1  0
 19 20  2  0
 19 21  1  0
M  END
$$$$
