VAN.pdb
     RDKit          3D

 21 20  0  0  1  0  0  0  0  0999 V2000
    8.9045  -12.5752   25.6739 C   0  0  0  0  0  0  0  0  0  0  0  0
    7.7103  -12.7473   26.5529 C   0  0  2  0  0  0  0  0  0  0  0  0
    7.9518  -13.8442   27.5369 C   0  0  0  0  0  0  0  0  0  0  0  0
    6.4361  -13.0280   25.7482 C   0  0  2  0  0  0  0  0  0  0  0  0
    5.3206  -13.1895   26.6621 N   0  0  0  0  0  0  0  0  0  0  0  0
    6.6394  -14.2109   24.8988 C   0  0  0  0  0  0  0  0  0  0  0  0
    6.3087  -15.3383   25.3484 O   0  0  0  0  0  0  0  0  0  0  0  0
    7.2322  -14.9642   21.2620 C   0  0  0  0  0  0  0  0  0  0  0  0
    7.1961  -15.3453   22.7208 C   0  0  2  0  0  0  0  0  0  0  0  0
    7.1872  -14.1914   23.5890 N   0  0  0  0  0  0  0  0  0  0  0  0
    8.3087  -16.2746   23.0221 C   0  0  0  0  0  0  0  0  0  0  0  0
    8.4931  -17.3623   22.3862 O   0  0  0  0  0  0  0  0  0  0  0  0
   12.2338  -17.6190   22.2527 N   0  0  0  0  0  0  0  0  0  0  0  0
   12.0134  -16.3495   22.9256 C   0  0  0  0  0  0  0  0  0  0  0  0
   12.2032  -15.3559   22.1874 O   0  0  0  0  0  0  0  0  0  0  0  0
   11.6069  -16.3205   24.3432 C   0  0  0  0  0  0  0  0  0  0  0  0
   10.2316  -16.8232   24.5787 C   0  0  2  0  0  0  0  0  0  0  0  0
    9.2053  -15.9474   24.0556 N   0  0  0  0  0  0  0  0  0  0  0  0
    9.9918  -17.0184   26.0185 C   0  0  0  0  0  0  0  0  0  0  0  0
    9.1177  -16.4720   26.7186 O   0  0  0  0  0  0  0  0  0  0  0  0
   10.8467  -17.9280   26.6906 O   0  0  0  0  0  0  0  0  0  0  0  0
  2  4  1  0
  2  1  1  6
  3  2  1  0
  4  6  1  0
  4  5  1  1
  6  7  2  0
  9  8  1  6
  9 11  1  0
 10  9  1  0
 10  6  1  0
 11 12  2  0
 11 18  1  0
 13 14  1  0
 14 16  1  0
 14 15  2  0
 17 16  1  1
 17 19  1  0
 18 17  1  0
 19 20  2  0
 19 21  1  0
M  END
$$$$
