VQW.pdb
     RDKit          3D

 31 32  0  0  1  0  0  0  0  0999 V2000
   27.1857  -18.1187  -18.1382 C   0  0  0  0  0  0  0  0  0  0  0  0
   28.3297  -17.7370  -17.2180 C   0  0  2  0  0  0  0  0  0  0  0  0
   29.6020  -17.7854  -18.0365 C   0  0  0  0  0  0  0  0  0  0  0  0
   28.3589  -18.6993  -16.0830 C   0  0  2  0  0  0  0  0  0  0  0  0
   28.5910  -20.0649  -16.5830 N   0  0  0  0  0  0  0  0  0  0  0  0
   27.1781  -18.7412  -15.2402 C   0  0  0  0  0  0  0  0  0  0  0  0
   26.8718  -17.6707  -14.6129 O   0  0  0  0  0  0  0  0  0  0  0  0
   21.9193  -20.8988  -16.5710 N   0  0  0  0  0  0  0  0  0  0  0  0
   22.0341  -19.5221  -16.2959 C   0  0  0  0  0  0  0  0  0  0  0  0
   21.1531  -18.7627  -16.7662 O   0  0  0  0  0  0  0  0  0  0  0  0
   23.1824  -19.0646  -15.4739 C   0  0  0  0  0  0  0  0  0  0  0  0
   24.0342  -20.2078  -15.0734 C   0  0  0  0  0  0  0  0  0  0  0  0
   25.1949  -19.9098  -14.1649 C   0  0  2  0  0  0  0  0  0  0  0  0
   26.3672  -19.8899  -15.0848 N   0  0  0  0  0  0  0  0  0  0  0  0
   25.3739  -21.0282  -13.2056 C   0  0  0  0  0  0  0  0  0  0  0  0
   26.3199  -21.8724  -13.3834 O   0  0  0  0  0  0  0  0  0  0  0  0
   24.5649  -21.2507  -12.0671 N   0  0  0  0  0  0  0  0  0  0  0  0
   25.0978  -21.0741  -10.6960 C   0  0  1  0  0  0  0  0  0  0  0  0
   26.1809  -20.0536  -10.7382 C   0  0  0  0  0  0  0  0  0  0  0  0
   27.3644  -20.3948   -9.9319 C   0  0  0  0  0  0  0  0  0  0  0  0
   28.4593  -21.1548  -10.3817 C   0  0  0  0  0  0  0  0  0  0  0  0
   29.3471  -21.3151   -9.4044 N   0  0  0  0  0  0  0  0  0  0  0  0
   28.8819  -20.6867   -8.3169 C   0  0  0  0  0  0  0  0  0  0  0  0
   29.4139  -20.5276   -7.0391 C   0  0  0  0  0  0  0  0  0  0  0  0
   28.7276  -19.8051   -6.0958 C   0  0  0  0  0  0  0  0  0  0  0  0
   27.5115  -19.2249   -6.3806 C   0  0  0  0  0  0  0  0  0  0  0  0
   27.0056  -19.3949   -7.6459 C   0  0  0  0  0  0  0  0  0  0  0  0
   27.6794  -20.1185   -8.6092 C   0  0  0  0  0  0  0  0  0  0  0  0
   24.0089  -20.7969   -9.7869 C   0  0  0  0  0  0  0  0  0  0  0  0
   22.9903  -20.1164  -10.1289 O   0  0  0  0  0  0  0  0  0  0  0  0
   23.9800  -21.2473   -8.4672 O   0  0  0  0  0  0  0  0  0  0  0  0
  2  3  1  6
  2  1  1  0
  4  2  1  0
  4  5  1  6
  6  4  1  0
  6  7  2  0
  8  9  1  0
  9 10  2  0
 11 12  1  0
 11  9  1  0
 13 14  1  0
 13 12  1  6
 14  6  1  0
 15 13  1  0
 16 15  2  0
 17 15  1  0
 18 17  1  0
 18 19  1  6
 20 19  1  0
 20 28  1  0
 21 22  1  0
 21 20  2  0
 22 23  1  0
 23 28  2  0
 23 24  1  0
 24 25  2  0
 25 26  1  0
 27 26  2  0
 28 27  1  0
 29 18  1  0
 29 31  1  0
 30 29  2  0
M  END
$$$$
