VQW.pdb
     RDKit          3D

 31 32  0  0  1  0  0  0  0  0999 V2000
   28.3993  -16.8822  -16.2972 C   0  0  0  0  0  0  0  0  0  0  0  0
   27.3837  -17.9543  -15.9503 C   0  0  2  0  0  0  0  0  0  0  0  0
   27.4823  -18.2036  -14.4606 C   0  0  0  0  0  0  0  0  0  0  0  0
   27.7008  -19.1736  -16.7427 C   0  0  2  0  0  0  0  0  0  0  0  0
   27.8455  -18.8284  -18.1670 N   0  0  0  0  0  0  0  0  0  0  0  0
   26.7497  -20.2665  -16.6561 C   0  0  0  0  0  0  0  0  0  0  0  0
   25.5866  -20.0667  -17.1464 O   0  0  0  0  0  0  0  0  0  0  0  0
   27.2165  -25.5324  -17.5701 N   0  0  0  0  0  0  0  0  0  0  0  0
   26.3202  -25.9708  -16.5757 C   0  0  0  0  0  0  0  0  0  0  0  0
   25.7906  -27.0975  -16.7303 O   0  0  0  0  0  0  0  0  0  0  0  0
   26.0634  -25.0761  -15.4194 C   0  0  0  0  0  0  0  0  0  0  0  0
   26.8099  -23.8047  -15.5589 C   0  0  0  0  0  0  0  0  0  0  0  0
   26.0113  -22.5776  -15.9020 C   0  0  2  0  0  0  0  0  0  0  0  0
   27.0460  -21.5175  -16.0659 N   0  0  0  0  0  0  0  0  0  0  0  0
   25.1464  -22.2112  -14.7527 C   0  0  0  0  0  0  0  0  0  0  0  0
   23.8754  -22.1719  -14.9013 O   0  0  0  0  0  0  0  0  0  0  0  0
   25.6185  -21.8942  -13.4578 N   0  0  0  0  0  0  0  0  0  0  0  0
   24.6964  -21.8028  -12.3018 C   0  0  1  0  0  0  0  0  0  0  0  0
   25.3704  -22.3926  -11.1125 C   0  0  0  0  0  0  0  0  0  0  0  0
   26.0838  -21.4144  -10.2752 C   0  0  0  0  0  0  0  0  0  0  0  0
   25.4705  -20.4534   -9.4512 C   0  0  0  0  0  0  0  0  0  0  0  0
   26.3884  -19.6993   -8.8532 N   0  0  0  0  0  0  0  0  0  0  0  0
   27.5948  -20.1252   -9.2499 C   0  0  0  0  0  0  0  0  0  0  0  0
   28.8814  -19.7039   -8.9209 C   0  0  0  0  0  0  0  0  0  0  0  0
   29.9704  -20.3375   -9.4645 C   0  0  0  0  0  0  0  0  0  0  0  0
   29.8252  -21.3925  -10.3378 C   0  0  0  0  0  0  0  0  0  0  0  0
   28.5482  -21.7907  -10.6487 C   0  0  0  0  0  0  0  0  0  0  0  0
   27.4394  -21.1665  -10.1135 C   0  0  0  0  0  0  0  0  0  0  0  0
   24.2415  -20.4390  -12.1536 C   0  0  0  0  0  0  0  0  0  0  0  0
   24.8988  -19.4473  -12.6034 O   0  0  0  0  0  0  0  0  0  0  0  0
   23.0529  -20.0940  -11.5107 O   0  0  0  0  0  0  0  0  0  0  0  0
  2  3  1  1
  2  1  1  0
  4  2  1  0
  4  5  1  6
  6  4  1  0
  6  7  2  0
  8  9  1  0
  9 10  2  0
 11 12  1  0
 11  9  1  0
 13 14  1  0
 13 12  1  1
 14  6  1  0
 15 13  1  0
 16 15  2  0
 17 15  1  0
 18 17  1  0
 18 19  1  1
 20 19  1  0
 20 28  1  0
 21 22  1  0
 21 20  2  0
 22 23  1  0
 23 28  2  0
 23 24  1  0
 24 25  2  0
 25 26  1  0
 27 26  2  0
 28 27  1  0
 29 18  1  0
 29 31  1  0
 30 29  2  0
M  END
$$$$
