VQW.pdb
     RDKit          3D

 31 32  0  0  1  0  0  0  0  0999 V2000
   28.1946  -16.8945  -15.1953 C   0  0  0  0  0  0  0  0  0  0  0  0
   28.9344  -18.1698  -15.5521 C   0  0  2  0  0  0  0  0  0  0  0  0
   29.9464  -17.8196  -16.6220 C   0  0  0  0  0  0  0  0  0  0  0  0
   27.9409  -19.1698  -16.0293 C   0  0  2  0  0  0  0  0  0  0  0  0
   27.3533  -18.7303  -17.3062 N   0  0  0  0  0  0  0  0  0  0  0  0
   26.8436  -19.4718  -15.1286 C   0  0  0  0  0  0  0  0  0  0  0  0
   25.8663  -18.6488  -15.1044 O   0  0  0  0  0  0  0  0  0  0  0  0
   24.3585  -24.6138  -14.8027 N   0  0  0  0  0  0  0  0  0  0  0  0
   23.6017  -24.1131  -13.7252 C   0  0  0  0  0  0  0  0  0  0  0  0
   22.6452  -24.8136  -13.3153 O   0  0  0  0  0  0  0  0  0  0  0  0
   23.9837  -22.7985  -13.1511 C   0  0  0  0  0  0  0  0  0  0  0  0
   25.1462  -22.2264  -13.8681 C   0  0  0  0  0  0  0  0  0  0  0  0
   25.6554  -20.8943  -13.3909 C   0  0  2  0  0  0  0  0  0  0  0  0
   26.8076  -20.6130  -14.2933 N   0  0  0  0  0  0  0  0  0  0  0  0
   26.1702  -21.0277  -12.0051 C   0  0  0  0  0  0  0  0  0  0  0  0
   27.1661  -21.7968  -11.7686 O   0  0  0  0  0  0  0  0  0  0  0  0
   25.6419  -20.3520  -10.8807 N   0  0  0  0  0  0  0  0  0  0  0  0
   25.9100  -20.8230   -9.5018 C   0  0  1  0  0  0  0  0  0  0  0  0
   26.8499  -19.8691   -8.8513 C   0  0  0  0  0  0  0  0  0  0  0  0
   26.9328  -20.0054   -7.3880 C   0  0  0  0  0  0  0  0  0  0  0  0
   25.9753  -20.6428   -6.5782 C   0  0  0  0  0  0  0  0  0  0  0  0
   26.3243  -20.5662   -5.2971 N   0  0  0  0  0  0  0  0  0  0  0  0
   27.4836  -19.8994   -5.2242 C   0  0  0  0  0  0  0  0  0  0  0  0
   28.2898  -19.5565   -4.1408 C   0  0  0  0  0  0  0  0  0  0  0  0
   29.4623  -18.8744   -4.3474 C   0  0  0  0  0  0  0  0  0  0  0  0
   29.8702  -18.5145   -5.6127 C   0  0  0  0  0  0  0  0  0  0  0  0
   29.0602  -18.8620   -6.6658 C   0  0  0  0  0  0  0  0  0  0  0  0
   27.8765  -19.5473   -6.4797 C   0  0  0  0  0  0  0  0  0  0  0  0
   24.6576  -21.0384   -8.8131 C   0  0  0  0  0  0  0  0  0  0  0  0
   23.5483  -20.6089   -9.2632 O   0  0  0  0  0  0  0  0  0  0  0  0
   24.5568  -21.7300   -7.6062 O   0  0  0  0  0  0  0  0  0  0  0  0
  2  3  1  6
  2  1  1  0
  4  2  1  0
  4  5  1  6
  6  4  1  0
  6  7  2  0
  8  9  1  0
  9 10  2  0
 11 12  1  0
 11  9  1  0
 13 14  1  0
 13 12  1  6
 14  6  1  0
 15 13  1  0
 16 15  2  0
 17 15  1  0
 18 17  1  0
 18 19  1  1
 20 19  1  0
 20 28  1  0
 21 22  1  0
 21 20  2  0
 22 23  1  0
 23 28  2  0
 23 24  1  0
 24 25  2  0
 25 26  1  0
 27 26  2  0
 28 27  1  0
 29 18  1  0
 29 31  1  0
 30 29  2  0
M  END
$$$$
