VQW.pdb
     RDKit          3D

 31 32  0  0  1  0  0  0  0  0999 V2000
   31.1865  -26.1148  -23.0525 C   0  0  0  0  0  0  0  0  0  0  0  0
   30.0030  -26.9998  -22.7102 C   0  0  2  0  0  0  0  0  0  0  0  0
   28.9055  -26.1008  -22.1825 C   0  0  0  0  0  0  0  0  0  0  0  0
   30.4421  -27.9981  -21.6975 C   0  0  2  0  0  0  0  0  0  0  0  0
   31.3091  -29.0091  -22.3261 N   0  0  0  0  0  0  0  0  0  0  0  0
   29.3915  -28.7073  -20.9907 C   0  0  0  0  0  0  0  0  0  0  0  0
   28.8168  -29.6658  -21.6104 O   0  0  0  0  0  0  0  0  0  0  0  0
   28.5380  -31.7378  -16.9540 N   0  0  0  0  0  0  0  0  0  0  0  0
   27.4139  -31.1216  -16.3699 C   0  0  0  0  0  0  0  0  0  0  0  0
   26.6805  -31.8299  -15.6389 O   0  0  0  0  0  0  0  0  0  0  0  0
   27.1734  -29.6852  -16.6569 C   0  0  0  0  0  0  0  0  0  0  0  0
   28.1934  -29.1549  -17.5905 C   0  0  0  0  0  0  0  0  0  0  0  0
   27.8008  -29.0393  -19.0376 C   0  0  2  0  0  0  0  0  0  0  0  0
   28.9832  -28.3921  -19.6734 N   0  0  0  0  0  0  0  0  0  0  0  0
   26.6418  -28.1208  -19.1652 C   0  0  0  0  0  0  0  0  0  0  0  0
   26.7861  -26.8758  -18.9040 O   0  0  0  0  0  0  0  0  0  0  0  0
   25.3442  -28.5122  -19.5692 N   0  0  0  0  0  0  0  0  0  0  0  0
   24.2672  -27.5157  -19.7747 C   0  0  1  0  0  0  0  0  0  0  0  0
   23.4302  -27.9555  -20.9247 C   0  0  0  0  0  0  0  0  0  0  0  0
   22.5395  -29.0886  -20.6255 C   0  0  0  0  0  0  0  0  0  0  0  0
   21.3153  -28.9972  -19.9386 C   0  0  0  0  0  0  0  0  0  0  0  0
   20.7691  -30.2018  -19.7991 N   0  0  0  0  0  0  0  0  0  0  0  0
   21.5874  -31.0949  -20.3707 C   0  0  0  0  0  0  0  0  0  0  0  0
   21.4917  -32.4765  -20.5223 C   0  0  0  0  0  0  0  0  0  0  0  0
   22.4802  -33.1643  -21.1800 C   0  0  0  0  0  0  0  0  0  0  0  0
   23.5792  -32.5183  -21.7015 C   0  0  0  0  0  0  0  0  0  0  0  0
   23.6535  -31.1567  -21.5400 C   0  0  0  0  0  0  0  0  0  0  0  0
   22.6705  -30.4460  -20.8812 C   0  0  0  0  0  0  0  0  0  0  0  0
   23.5629  -27.3026  -18.5307 C   0  0  0  0  0  0  0  0  0  0  0  0
   23.6379  -28.1159  -17.5557 O   0  0  0  0  0  0  0  0  0  0  0  0
   22.7471  -26.1968  -18.2927 O   0  0  0  0  0  0  0  0  0  0  0  0
  2  3  1  1
  2  1  1  0
  4  2  1  0
  4  5  1  6
  6  4  1  0
  6  7  2  0
  8  9  1  0
  9 10  2  0
 11 12  1  0
 11  9  1  0
 13 14  1  0
 13 12  1  1
 14  6  1  0
 15 13  1  0
 16 15  2  0
 17 15  1  0
 18 17  1  0
 18 19  1  6
 20 19  1  0
 20 28  1  0
 21 22  1  0
 21 20  2  0
 22 23  1  0
 23 28  2  0
 23 24  1  0
 24 25  2  0
 25 26  1  0
 27 26  2  0
 28 27  1  0
 29 18  1  0
 29 31  1  0
 30 29  2  0
M  END
$$$$
