VQW.pdb
     RDKit          3D

 31 32  0  0  1  0  0  0  0  0999 V2000
   29.2655  -17.2909  -16.5781 C   0  0  0  0  0  0  0  0  0  0  0  0
   28.2048  -18.0026  -15.7600 C   0  0  2  0  0  0  0  0  0  0  0  0
   28.8841  -18.5581  -14.5266 C   0  0  0  0  0  0  0  0  0  0  0  0
   27.6075  -19.0763  -16.5998 C   0  0  2  0  0  0  0  0  0  0  0  0
   27.1216  -18.5134  -17.8710 N   0  0  0  0  0  0  0  0  0  0  0  0
   26.5125  -19.8246  -16.0105 C   0  0  0  0  0  0  0  0  0  0  0  0
   25.3452  -19.3108  -16.0924 O   0  0  0  0  0  0  0  0  0  0  0  0
   25.9031  -25.5982  -16.4459 N   0  0  0  0  0  0  0  0  0  0  0  0
   24.8805  -25.5002  -15.4820 C   0  0  0  0  0  0  0  0  0  0  0  0
   24.1898  -26.5248  -15.2652 O   0  0  0  0  0  0  0  0  0  0  0  0
   24.6894  -24.1998  -14.7922 C   0  0  0  0  0  0  0  0  0  0  0  0
   25.6785  -23.2024  -15.2612 C   0  0  0  0  0  0  0  0  0  0  0  0
   25.5280  -21.7971  -14.7475 C   0  0  2  0  0  0  0  0  0  0  0  0
   26.6753  -21.0717  -15.3628 N   0  0  0  0  0  0  0  0  0  0  0  0
   25.7055  -21.7859  -13.2739 C   0  0  0  0  0  0  0  0  0  0  0  0
   26.8705  -21.6024  -12.7758 O   0  0  0  0  0  0  0  0  0  0  0  0
   24.6624  -21.9620  -12.3353 N   0  0  0  0  0  0  0  0  0  0  0  0
   24.6336  -21.2032  -11.0631 C   0  0  1  0  0  0  0  0  0  0  0  0
   25.6411  -20.1100  -11.1424 C   0  0  0  0  0  0  0  0  0  0  0  0
   26.8873  -20.3823  -10.4077 C   0  0  0  0  0  0  0  0  0  0  0  0
   28.0186  -21.0254  -10.9419 C   0  0  0  0  0  0  0  0  0  0  0  0
   28.9638  -21.1504  -10.0147 N   0  0  0  0  0  0  0  0  0  0  0  0
   28.5019  -20.6113   -8.8789 C   0  0  0  0  0  0  0  0  0  0  0  0
   29.0810  -20.4617   -7.6206 C   0  0  0  0  0  0  0  0  0  0  0  0
   28.3841  -19.8418   -6.6143 C   0  0  0  0  0  0  0  0  0  0  0  0
   27.1109  -19.3567   -6.8160 C   0  0  0  0  0  0  0  0  0  0  0  0
   26.5592  -19.5154   -8.0635 C   0  0  0  0  0  0  0  0  0  0  0  0
   27.2429  -20.1366   -9.0892 C   0  0  0  0  0  0  0  0  0  0  0  0
   23.2784  -20.7888  -10.7787 C   0  0  0  0  0  0  0  0  0  0  0  0
   22.4304  -20.5511  -11.6963 O   0  0  0  0  0  0  0  0  0  0  0  0
   22.7866  -20.6151   -9.4853 O   0  0  0  0  0  0  0  0  0  0  0  0
  2  3  1  1
  2  1  1  0
  4  2  1  0
  4  5  1  6
  6  4  1  0
  6  7  2  0
  8  9  1  0
  9 10  2  0
 11 12  1  0
 11  9  1  0
 13 14  1  0
 13 12  1  6
 14  6  1  0
 15 13  1  0
 16 15  2  0
 17 15  1  0
 18 17  1  0
 18 19  1  6
 20 19  1  0
 20 28  1  0
 21 22  1  0
 21 20  2  0
 22 23  1  0
 23 28  2  0
 23 24  1  0
 24 25  2  0
 25 26  1  0
 27 26  2  0
 28 27  1  0
 29 18  1  0
 29 31  1  0
 30 29  2  0
M  END
$$$$
