VQW.pdb
     RDKit          3D

 31 32  0  0  1  0  0  0  0  0999 V2000
   30.6330  -17.8539  -19.1015 C   0  0  0  0  0  0  0  0  0  0  0  0
   30.0318  -17.9873  -17.7152 C   0  0  2  0  0  0  0  0  0  0  0  0
   30.1064  -19.4493  -17.3302 C   0  0  0  0  0  0  0  0  0  0  0  0
   28.6287  -17.4935  -17.7636 C   0  0  2  0  0  0  0  0  0  0  0  0
   28.5941  -16.1170  -18.2857 N   0  0  0  0  0  0  0  0  0  0  0  0
   27.8972  -17.5001  -16.5101 C   0  0  0  0  0  0  0  0  0  0  0  0
   28.2830  -16.6832  -15.6062 O   0  0  0  0  0  0  0  0  0  0  0  0
   22.5258  -19.5132  -15.6894 N   0  0  0  0  0  0  0  0  0  0  0  0
   22.5841  -18.8987  -14.4232 C   0  0  0  0  0  0  0  0  0  0  0  0
   21.6630  -19.1572  -13.6117 O   0  0  0  0  0  0  0  0  0  0  0  0
   23.7237  -17.9919  -14.1357 C   0  0  0  0  0  0  0  0  0  0  0  0
   24.6953  -17.9935  -15.2533 C   0  0  0  0  0  0  0  0  0  0  0  0
   26.1131  -18.3729  -14.9258 C   0  0  2  0  0  0  0  0  0  0  0  0
   26.7986  -18.3523  -16.2489 N   0  0  0  0  0  0  0  0  0  0  0  0
   26.1469  -19.7623  -14.4047 C   0  0  0  0  0  0  0  0  0  0  0  0
   25.8283  -20.7365  -15.1720 O   0  0  0  0  0  0  0  0  0  0  0  0
   26.5180  -20.1203  -13.0878 N   0  0  0  0  0  0  0  0  0  0  0  0
   26.3998  -21.5163  -12.6059 C   0  0  1  0  0  0  0  0  0  0  0  0
   27.2765  -21.6801  -11.4138 C   0  0  0  0  0  0  0  0  0  0  0  0
   26.8011  -20.9747  -10.2125 C   0  0  0  0  0  0  0  0  0  0  0  0
   25.5030  -20.4630  -10.0341 C   0  0  0  0  0  0  0  0  0  0  0  0
   25.4016  -19.8517   -8.8573 N   0  0  0  0  0  0  0  0  0  0  0  0
   26.5888  -19.9386   -8.2433 C   0  0  0  0  0  0  0  0  0  0  0  0
   27.0243  -19.4886   -6.9987 C   0  0  0  0  0  0  0  0  0  0  0  0
   28.3128  -19.7316   -6.5942 C   0  0  0  0  0  0  0  0  0  0  0  0
   29.1994  -20.4171   -7.3948 C   0  0  0  0  0  0  0  0  0  0  0  0
   28.7492  -20.8508   -8.6175 C   0  0  0  0  0  0  0  0  0  0  0  0
   27.4574  -20.6162   -9.0437 C   0  0  0  0  0  0  0  0  0  0  0  0
   25.0056  -21.8429  -12.4095 C   0  0  0  0  0  0  0  0  0  0  0  0
   24.5932  -23.0416  -12.3053 O   0  0  0  0  0  0  0  0  0  0  0  0
   23.9998  -20.8812  -12.3178 O   0  0  0  0  0  0  0  0  0  0  0  0
  2  3  1  6
  2  1  1  0
  4  2  1  0
  4  5  1  1
  6  4  1  0
  6  7  2  0
  8  9  1  0
  9 10  2  0
 11 12  1  0
 11  9  1  0
 13 14  1  0
 13 12  1  6
 14  6  1  0
 15 13  1  0
 16 15  2  0
 17 15  1  0
 18 17  1  0
 18 19  1  1
 20 19  1  0
 20 28  1  0
 21 22  1  0
 21 20  2  0
 22 23  1  0
 23 28  2  0
 23 24  1  0
 24 25  2  0
 25 26  1  0
 27 26  2  0
 28 27  1  0
 29 18  1  0
 29 31  1  0
 30 29  2  0
M  END
$$$$
