VQW.pdb
     RDKit          3D

 31 32  0  0  1  0  0  0  0  0999 V2000
   24.7974  -15.2891  -15.1860 C   0  0  0  0  0  0  0  0  0  0  0  0
   26.3092  -15.1709  -15.2246 C   0  0  2  0  0  0  0  0  0  0  0  0
   26.6451  -13.6955  -15.2653 C   0  0  0  0  0  0  0  0  0  0  0  0
   26.8045  -15.8897  -16.4300 C   0  0  2  0  0  0  0  0  0  0  0  0
   26.2052  -15.3130  -17.6453 N   0  0  0  0  0  0  0  0  0  0  0  0
   26.5723  -17.3218  -16.4699 C   0  0  0  0  0  0  0  0  0  0  0  0
   25.5301  -17.7259  -17.0892 O   0  0  0  0  0  0  0  0  0  0  0  0
   29.3744  -21.5874  -18.1674 N   0  0  0  0  0  0  0  0  0  0  0  0
   29.0216  -22.4606  -17.1198 C   0  0  0  0  0  0  0  0  0  0  0  0
   29.1994  -23.6885  -17.3055 O   0  0  0  0  0  0  0  0  0  0  0  0
   28.4662  -21.8735  -15.8747 C   0  0  0  0  0  0  0  0  0  0  0  0
   28.4438  -20.3948  -15.9519 C   0  0  0  0  0  0  0  0  0  0  0  0
   27.1023  -19.7248  -15.8378 C   0  0  2  0  0  0  0  0  0  0  0  0
   27.4301  -18.2713  -15.8665 N   0  0  0  0  0  0  0  0  0  0  0  0
   26.5006  -20.0411  -14.5183 C   0  0  0  0  0  0  0  0  0  0  0  0
   27.0970  -19.6789  -13.4449 O   0  0  0  0  0  0  0  0  0  0  0  0
   25.2787  -20.7289  -14.3339 N   0  0  0  0  0  0  0  0  0  0  0  0
   24.8012  -21.1038  -12.9824 C   0  0  1  0  0  0  0  0  0  0  0  0
   24.7309  -19.8728  -12.1481 C   0  0  0  0  0  0  0  0  0  0  0  0
   24.2612  -20.1015  -10.7719 C   0  0  0  0  0  0  0  0  0  0  0  0
   25.0921  -20.3244   -9.6589 C   0  0  0  0  0  0  0  0  0  0  0  0
   24.3615  -20.5310   -8.5669 N   0  0  0  0  0  0  0  0  0  0  0  0
   23.0701  -20.4527   -8.9133 C   0  0  0  0  0  0  0  0  0  0  0  0
   21.9004  -20.5718   -8.1656 C   0  0  0  0  0  0  0  0  0  0  0  0
   20.6796  -20.4254   -8.7745 C   0  0  0  0  0  0  0  0  0  0  0  0
   20.5766  -20.1604  -10.1221 C   0  0  0  0  0  0  0  0  0  0  0  0
   21.7419  -20.0477  -10.8398 C   0  0  0  0  0  0  0  0  0  0  0  0
   22.9800  -20.1921  -10.2469 C   0  0  0  0  0  0  0  0  0  0  0  0
   23.5725  -21.8563  -13.0960 C   0  0  0  0  0  0  0  0  0  0  0  0
   22.7347  -21.6583  -14.0323 O   0  0  0  0  0  0  0  0  0  0  0  0
   23.2014  -22.8564  -12.1975 O   0  0  0  0  0  0  0  0  0  0  0  0
  2  3  1  6
  2  1  1  0
  4  2  1  0
  4  5  1  6
  6  4  1  0
  6  7  2  0
  8  9  1  0
  9 10  2  0
 11 12  1  0
 11  9  1  0
 13 14  1  0
 13 12  1  1
 14  6  1  0
 15 13  1  0
 16 15  2  0
 17 15  1  0
 18 17  1  0
 18 19  1  1
 20 19  1  0
 20 28  1  0
 21 22  1  0
 21 20  2  0
 22 23  1  0
 23 28  2  0
 23 24  1  0
 24 25  2  0
 25 26  1  0
 27 26  2  0
 28 27  1  0
 29 18  1  0
 29 31  1  0
 30 29  2  0
M  END
$$$$
