VQW.pdb
     RDKit          3D

 31 32  0  0  1  0  0  0  0  0999 V2000
   29.5507  -22.4178  -20.6798 C   0  0  0  0  0  0  0  0  0  0  0  0
   29.7243  -21.6726  -19.3700 C   0  0  2  0  0  0  0  0  0  0  0  0
   31.2090  -21.6047  -19.0832 C   0  0  0  0  0  0  0  0  0  0  0  0
   28.9840  -22.4098  -18.3100 C   0  0  2  0  0  0  0  0  0  0  0  0
   27.6275  -22.7418  -18.7775 N   0  0  0  0  0  0  0  0  0  0  0  0
   28.8493  -21.7395  -17.0298 C   0  0  0  0  0  0  0  0  0  0  0  0
   29.9186  -21.5498  -16.3563 O   0  0  0  0  0  0  0  0  0  0  0  0
   24.6793  -17.7886  -15.1509 N   0  0  0  0  0  0  0  0  0  0  0  0
   25.5664  -17.9629  -14.0705 C   0  0  0  0  0  0  0  0  0  0  0  0
   25.0993  -17.8397  -12.9128 O   0  0  0  0  0  0  0  0  0  0  0  0
   26.9853  -18.2780  -14.3722 C   0  0  0  0  0  0  0  0  0  0  0  0
   27.0864  -19.2320  -15.5004 C   0  0  0  0  0  0  0  0  0  0  0  0
   27.5132  -20.6360  -15.1719 C   0  0  2  0  0  0  0  0  0  0  0  0
   27.6131  -21.2955  -16.5046 N   0  0  0  0  0  0  0  0  0  0  0  0
   26.4426  -21.3113  -14.3966 C   0  0  0  0  0  0  0  0  0  0  0  0
   25.2163  -21.1323  -14.7179 O   0  0  0  0  0  0  0  0  0  0  0  0
   26.6647  -22.1709  -13.2958 N   0  0  0  0  0  0  0  0  0  0  0  0
   26.2151  -21.8086  -11.9314 C   0  0  1  0  0  0  0  0  0  0  0  0
   27.2869  -21.0083  -11.2779 C   0  0  0  0  0  0  0  0  0  0  0  0
   26.9196  -20.4700   -9.9580 C   0  0  0  0  0  0  0  0  0  0  0  0
   25.6407  -20.0067   -9.5994 C   0  0  0  0  0  0  0  0  0  0  0  0
   25.6441  -19.5524   -8.3494 N   0  0  0  0  0  0  0  0  0  0  0  0
   26.8827  -19.6975   -7.8608 C   0  0  0  0  0  0  0  0  0  0  0  0
   27.4278  -19.4031   -6.6128 C   0  0  0  0  0  0  0  0  0  0  0  0
   28.7489  -19.6746   -6.3603 C   0  0  0  0  0  0  0  0  0  0  0  0
   29.5621  -20.2375   -7.3188 C   0  0  0  0  0  0  0  0  0  0  0  0
   29.0044  -20.5188   -8.5418 C   0  0  0  0  0  0  0  0  0  0  0  0
   27.6780  -20.2530   -8.8165 C   0  0  0  0  0  0  0  0  0  0  0  0
   24.9161  -21.1788  -12.0026 C   0  0  0  0  0  0  0  0  0  0  0  0
   24.6127  -20.3400  -12.9093 O   0  0  0  0  0  0  0  0  0  0  0  0
   23.8910  -21.4334  -11.0918 O   0  0  0  0  0  0  0  0  0  0  0  0
  2  3  1  1
  2  1  1  0
  4  2  1  0
  4  5  1  6
  6  4  1  0
  6  7  2  0
  8  9  1  0
  9 10  2  0
 11 12  1  0
 11  9  1  0
 13 14  1  0
 13 12  1  6
 14  6  1  0
 15 13  1  0
 16 15  2  0
 17 15  1  0
 18 17  1  0
 18 19  1  6
 20 19  1  0
 20 28  1  0
 21 22  1  0
 21 20  2  0
 22 23  1  0
 23 28  2  0
 23 24  1  0
 24 25  2  0
 25 26  1  0
 27 26  2  0
 28 27  1  0
 29 18  1  0
 29 31  1  0
 30 29  2  0
M  END
$$$$
