VQW.pdb
     RDKit          3D

 31 32  0  0  1  0  0  0  0  0999 V2000
   19.1195  -21.2973  -13.5298 C   0  0  0  0  0  0  0  0  0  0  0  0
   19.0735  -20.4975  -12.2417 C   0  0  2  0  0  0  0  0  0  0  0  0
   17.9643  -19.4774  -12.3838 C   0  0  0  0  0  0  0  0  0  0  0  0
   20.4009  -19.8548  -12.0418 C   0  0  2  0  0  0  0  0  0  0  0  0
   20.6432  -18.8550  -13.0957 N   0  0  0  0  0  0  0  0  0  0  0  0
   21.5503  -20.7405  -12.0121 C   0  0  0  0  0  0  0  0  0  0  0  0
   21.5998  -21.5992  -11.0670 O   0  0  0  0  0  0  0  0  0  0  0  0
   23.9438  -24.3711  -14.3494 N   0  0  0  0  0  0  0  0  0  0  0  0
   25.2729  -23.9231  -14.4803 C   0  0  0  0  0  0  0  0  0  0  0  0
   26.1716  -24.7945  -14.5630 O   0  0  0  0  0  0  0  0  0  0  0  0
   25.5197  -22.4597  -14.5109 C   0  0  0  0  0  0  0  0  0  0  0  0
   24.2648  -21.7072  -14.2828 C   0  0  0  0  0  0  0  0  0  0  0  0
   23.7929  -21.5806  -12.8606 C   0  0  2  0  0  0  0  0  0  0  0  0
   22.5970  -20.6972  -12.9628 N   0  0  0  0  0  0  0  0  0  0  0  0
   24.8240  -20.8783  -12.0565 C   0  0  0  0  0  0  0  0  0  0  0  0
   25.1422  -19.6723  -12.3452 O   0  0  0  0  0  0  0  0  0  0  0  0
   25.5093  -21.4422  -10.9553 N   0  0  0  0  0  0  0  0  0  0  0  0
   26.5556  -20.6856  -10.2286 C   0  0  1  0  0  0  0  0  0  0  0  0
   26.5008  -21.0665   -8.7904 C   0  0  0  0  0  0  0  0  0  0  0  0
   27.0413  -20.0485   -7.8747 C   0  0  0  0  0  0  0  0  0  0  0  0
   26.9088  -18.6579   -8.0401 C   0  0  0  0  0  0  0  0  0  0  0  0
   27.5375  -18.0112   -7.0627 N   0  0  0  0  0  0  0  0  0  0  0  0
   28.0849  -18.9237   -6.2492 C   0  0  0  0  0  0  0  0  0  0  0  0
   28.8291  -18.7949   -5.0785 C   0  0  0  0  0  0  0  0  0  0  0  0
   29.2618  -19.9149   -4.4143 C   0  0  0  0  0  0  0  0  0  0  0  0
   28.9771  -21.1799   -4.8789 C   0  0  0  0  0  0  0  0  0  0  0  0
   28.2430  -21.2835   -6.0347 C   0  0  0  0  0  0  0  0  0  0  0  0
   27.7988  -20.1696   -6.7184 C   0  0  0  0  0  0  0  0  0  0  0  0
   27.8310  -20.8776  -10.8809 C   0  0  0  0  0  0  0  0  0  0  0  0
   28.1265  -21.9481  -11.5009 O   0  0  0  0  0  0  0  0  0  0  0  0
   28.8400  -19.9148  -10.8876 O   0  0  0  0  0  0  0  0  0  0  0  0
  2  3  1  6
  2  1  1  0
  4  2  1  0
  4  5  1  6
  6  4  1  0
  6  7  2  0
  8  9  1  0
  9 10  2  0
 11 12  1  0
 11  9  1  0
 13 14  1  0
 13 12  1  6
 14  6  1  0
 15 13  1  0
 16 15  2  0
 17 15  1  0
 18 17  1  0
 18 19  1  1
 20 19  1  0
 20 28  1  0
 21 22  1  0
 21 20  2  0
 22 23  1  0
 23 28  2  0
 23 24  1  0
 24 25  2  0
 25 26  1  0
 27 26  2  0
 28 27  1  0
 29 18  1  0
 29 31  1  0
 30 29  2  0
M  END
$$$$
