FKN.pdb
     RDKit          3D

 29 29  0  0  1  0  0  0  0  0999 V2000
    9.4789  -16.7672   20.6957 N   0  0  0  0  0  0  0  0  0  0  0  0
    9.8062  -15.9872   21.8692 C   0  0  1  0  0  0  0  0  0  0  0  0
    8.5958  -15.2575   22.4074 C   0  0  0  0  0  0  0  0  0  0  0  0
    8.0505  -14.2808   21.4667 C   0  0  0  0  0  0  0  0  0  0  0  0
    7.0846  -13.3857   21.8933 C   0  0  0  0  0  0  0  0  0  0  0  0
    6.5918  -12.4781   20.9805 C   0  0  0  0  0  0  0  0  0  0  0  0
    7.0420  -12.4481   19.6601 C   0  0  0  0  0  0  0  0  0  0  0  0
    8.0053  -13.3508   19.2594 C   0  0  0  0  0  0  0  0  0  0  0  0
    8.5161  -14.2698   20.1513 C   0  0  0  0  0  0  0  0  0  0  0  0
   10.3323  -16.9596   22.8931 C   0  0  0  0  0  0  0  0  0  0  0  0
   10.4724  -16.6402   24.1015 O   0  0  0  0  0  0  0  0  0  0  0  0
   10.6925  -18.2860   22.5259 N   0  0  0  0  0  0  0  0  0  0  0  0
   11.2905  -19.2541   23.4264 C   0  0  1  0  0  0  0  0  0  0  0  0
   11.1535  -20.6218   22.8137 C   0  0  0  0  0  0  0  0  0  0  0  0
    9.7319  -20.8464   22.3919 C   0  0  0  0  0  0  0  0  0  0  0  0
    9.6085  -22.1731   21.7069 C   0  0  0  0  0  0  0  0  0  0  0  0
    8.1473  -22.2621   21.2314 C   0  0  0  0  0  0  0  0  0  0  0  0
    8.0384  -23.4829   20.4672 N   0  0  0  0  0  0  0  0  0  0  0  0
   12.7573  -18.9864   23.5829 C   0  0  0  0  0  0  0  0  0  0  0  0
   13.4175  -19.8510   24.2032 O   0  0  0  0  0  0  0  0  0  0  0  0
   17.4609  -16.5138   21.5688 N   0  0  0  0  0  0  0  0  0  0  0  0
   16.5303  -16.0216   22.5484 C   0  0  0  0  0  0  0  0  0  0  0  0
   16.9428  -15.2777   23.4552 O   0  0  0  0  0  0  0  0  0  0  0  0
   15.1257  -16.4055   22.4558 C   0  0  0  0  0  0  0  0  0  0  0  0
   14.7731  -17.6084   23.2646 C   0  0  2  0  0  0  0  0  0  0  0  0
   13.3316  -17.8263   23.0554 N   0  0  0  0  0  0  0  0  0  0  0  0
   14.9948  -17.4796   24.7151 C   0  0  0  0  0  0  0  0  0  0  0  0
   16.0029  -17.8909   25.3381 O   0  0  0  0  0  0  0  0  0  0  0  0
   14.0228  -16.8470   25.5288 O   0  0  0  0  0  0  0  0  0  0  0  0
  2  1  1  6
  3  2  1  0
  3  4  1  0
  4  9  2  0
  4  5  1  0
  5  6  2  0
  6  7  1  0
  8  7  2  0
  9  8  1  0
 10 12  1  0
 10  2  1  0
 11 10  2  0
 13 14  1  6
 13 12  1  0
 14 15  1  0
 15 16  1  0
 16 17  1  0
 17 18  1  0
 19 13  1  0
 20 19  2  0
 21 22  1  0
 22 24  1  0
 22 23  2  0
 25 24  1  6
 25 27  1  0
 25 26  1  0
 26 19  1  0
 27 29  1  0
 28 27  2  0
M  END
$$$$
