FKN.pdb
     RDKit          3D

 29 29  0  0  1  0  0  0  0  0999 V2000
    6.1593  -17.2322   25.4393 N   0  0  0  0  0  0  0  0  0  0  0  0
    6.7341  -16.0150   24.9095 C   0  0  1  0  0  0  0  0  0  0  0  0
    7.7875  -15.4485   25.8352 C   0  0  0  0  0  0  0  0  0  0  0  0
    7.6867  -13.9997   25.9992 C   0  0  0  0  0  0  0  0  0  0  0  0
    8.7419  -13.1923   25.6104 C   0  0  0  0  0  0  0  0  0  0  0  0
    8.6138  -11.8303   25.7791 C   0  0  0  0  0  0  0  0  0  0  0  0
    7.4609  -11.2642   26.3244 C   0  0  0  0  0  0  0  0  0  0  0  0
    6.4232  -12.0902   26.7041 C   0  0  0  0  0  0  0  0  0  0  0  0
    6.5240  -13.4563   26.5469 C   0  0  0  0  0  0  0  0  0  0  0  0
    7.3424  -16.3759   23.5790 C   0  0  0  0  0  0  0  0  0  0  0  0
    7.8365  -17.5118   23.3610 O   0  0  0  0  0  0  0  0  0  0  0  0
    7.3799  -15.4356   22.5120 N   0  0  0  0  0  0  0  0  0  0  0  0
    7.8748  -15.7251   21.1789 C   0  0  1  0  0  0  0  0  0  0  0  0
    7.7637  -14.4750   20.3484 C   0  0  0  0  0  0  0  0  0  0  0  0
    8.3990  -14.7003   19.0087 C   0  0  0  0  0  0  0  0  0  0  0  0
    8.2513  -13.4724   18.1631 C   0  0  0  0  0  0  0  0  0  0  0  0
    8.8795  -13.8252   16.8030 C   0  0  0  0  0  0  0  0  0  0  0  0
    8.7403  -12.6530   15.9706 N   0  0  0  0  0  0  0  0  0  0  0  0
    9.3274  -16.0932   21.2289 C   0  0  0  0  0  0  0  0  0  0  0  0
    9.7743  -16.7285   20.2466 O   0  0  0  0  0  0  0  0  0  0  0  0
   12.0375  -13.4314   19.9136 N   0  0  0  0  0  0  0  0  0  0  0  0
   12.4624  -14.6665   20.5151 C   0  0  0  0  0  0  0  0  0  0  0  0
   12.9739  -15.5444   19.7986 O   0  0  0  0  0  0  0  0  0  0  0  0
   12.2839  -14.8608   21.9502 C   0  0  0  0  0  0  0  0  0  0  0  0
   11.5425  -16.1059   22.3041 C   0  0  2  0  0  0  0  0  0  0  0  0
   10.1175  -15.7344   22.3247 N   0  0  0  0  0  0  0  0  0  0  0  0
   11.8685  -16.6807   23.6207 C   0  0  0  0  0  0  0  0  0  0  0  0
   11.5721  -17.8375   24.0050 O   0  0  0  0  0  0  0  0  0  0  0  0
   12.5753  -15.9104   24.5767 O   0  0  0  0  0  0  0  0  0  0  0  0
  2  1  1  1
  3  2  1  0
  3  4  1  0
  4  9  2  0
  4  5  1  0
  5  6  2  0
  6  7  1  0
  8  7  2  0
  9  8  1  0
 10 12  1  0
 10  2  1  0
 11 10  2  0
 13 14  1  6
 13 12  1  0
 14 15  1  0
 15 16  1  0
 16 17  1  0
 17 18  1  0
 19 13  1  0
 20 19  2  0
 21 22  1  0
 22 24  1  0
 22 23  2  0
 25 24  1  1
 25 27  1  0
 25 26  1  0
 26 19  1  0
 27 29  1  0
 28 27  2  0
M  END
$$$$
