FKN.pdb
     RDKit          3D

 29 29  0  0  1  0  0  0  0  0999 V2000
    5.8449  -17.0293   25.0560 N   0  0  0  0  0  0  0  0  0  0  0  0
    6.5555  -15.8000   24.7795 C   0  0  1  0  0  0  0  0  0  0  0  0
    7.4313  -15.3902   25.9425 C   0  0  0  0  0  0  0  0  0  0  0  0
    7.1389  -14.0450   26.4336 C   0  0  0  0  0  0  0  0  0  0  0  0
    6.3696  -13.1884   25.6649 C   0  0  0  0  0  0  0  0  0  0  0  0
    6.1130  -11.9271   26.1578 C   0  0  0  0  0  0  0  0  0  0  0  0
    6.6065  -11.5085   27.3941 C   0  0  0  0  0  0  0  0  0  0  0  0
    7.3708  -12.3808   28.1412 C   0  0  0  0  0  0  0  0  0  0  0  0
    7.6432  -13.6487   27.6729 C   0  0  0  0  0  0  0  0  0  0  0  0
    7.3948  -16.0600   23.5554 C   0  0  0  0  0  0  0  0  0  0  0  0
    7.8267  -17.2083   23.2781 O   0  0  0  0  0  0  0  0  0  0  0  0
    7.7317  -15.0060   22.6613 N   0  0  0  0  0  0  0  0  0  0  0  0
    8.7427  -15.0997   21.6245 C   0  0  1  0  0  0  0  0  0  0  0  0
    8.9448  -13.7312   21.0321 C   0  0  0  0  0  0  0  0  0  0  0  0
    8.0351  -13.5514   19.8533 C   0  0  0  0  0  0  0  0  0  0  0  0
    8.6802  -14.1127   18.6231 C   0  0  0  0  0  0  0  0  0  0  0  0
    7.6562  -13.9190   17.4905 C   0  0  0  0  0  0  0  0  0  0  0  0
    8.1571  -14.6565   16.3541 N   0  0  0  0  0  0  0  0  0  0  0  0
   10.0555  -15.5242   22.2110 C   0  0  0  0  0  0  0  0  0  0  0  0
   10.4491  -14.8858   23.2139 O   0  0  0  0  0  0  0  0  0  0  0  0
   10.3348  -18.2287   23.8509 N   0  0  0  0  0  0  0  0  0  0  0  0
   11.2792  -19.0257   23.1156 C   0  0  0  0  0  0  0  0  0  0  0  0
   11.2737  -20.2603   23.2626 O   0  0  0  0  0  0  0  0  0  0  0  0
   12.2207  -18.3685   22.2152 C   0  0  0  0  0  0  0  0  0  0  0  0
   12.1105  -16.8808   22.2061 C   0  0  2  0  0  0  0  0  0  0  0  0
   10.7809  -16.5786   21.6492 N   0  0  0  0  0  0  0  0  0  0  0  0
   13.1065  -16.1802   21.3773 C   0  0  0  0  0  0  0  0  0  0  0  0
   12.8724  -15.6010   20.2894 O   0  0  0  0  0  0  0  0  0  0  0  0
   14.4601  -16.1215   21.7911 O   0  0  0  0  0  0  0  0  0  0  0  0
  2  1  1  1
  3  2  1  0
  3  4  1  0
  4  9  2  0
  4  5  1  0
  5  6  2  0
  6  7  1  0
  8  7  2  0
  9  8  1  0
 10 12  1  0
 10  2  1  0
 11 10  2  0
 13 14  1  1
 13 12  1  0
 14 15  1  0
 15 16  1  0
 16 17  1  0
 17 18  1  0
 19 13  1  0
 20 19  2  0
 21 22  1  0
 22 24  1  0
 22 23  2  0
 25 24  1  6
 25 27  1  0
 25 26  1  0
 26 19  1  0
 27 29  1  0
 28 27  2  0
M  END
$$$$
