FKN.pdb
     RDKit          3D

 29 29  0  0  1  0  0  0  0  0999 V2000
    8.3837  -15.2581   25.6365 N   0  0  0  0  0  0  0  0  0  0  0  0
    7.1741  -15.8985   25.1684 C   0  0  1  0  0  0  0  0  0  0  0  0
    5.9650  -15.0100   25.3584 C   0  0  0  0  0  0  0  0  0  0  0  0
    6.2755  -13.7602   26.0497 C   0  0  0  0  0  0  0  0  0  0  0  0
    6.9708  -12.7650   25.3843 C   0  0  0  0  0  0  0  0  0  0  0  0
    7.2471  -11.5991   26.0656 C   0  0  0  0  0  0  0  0  0  0  0  0
    6.8452  -11.4101   27.3884 C   0  0  0  0  0  0  0  0  0  0  0  0
    6.1536  -12.4170   28.0296 C   0  0  0  0  0  0  0  0  0  0  0  0
    5.8635  -13.5939   27.3724 C   0  0  0  0  0  0  0  0  0  0  0  0
    7.3867  -16.1915   23.7057 C   0  0  0  0  0  0  0  0  0  0  0  0
    6.6706  -17.0171   23.0830 O   0  0  0  0  0  0  0  0  0  0  0  0
    8.4144  -15.5386   22.9700 N   0  0  0  0  0  0  0  0  0  0  0  0
    8.6593  -15.7309   21.5527 C   0  0  1  0  0  0  0  0  0  0  0  0
    8.3570  -14.4413   20.8384 C   0  0  0  0  0  0  0  0  0  0  0  0
    8.6157  -14.6042   19.3701 C   0  0  0  0  0  0  0  0  0  0  0  0
    8.1184  -13.4005   18.6297 C   0  0  0  0  0  0  0  0  0  0  0  0
    8.3729  -13.6931   17.1402 C   0  0  0  0  0  0  0  0  0  0  0  0
    7.9637  -12.5131   16.4147 N   0  0  0  0  0  0  0  0  0  0  0  0
   10.1059  -16.0408   21.3092 C   0  0  0  0  0  0  0  0  0  0  0  0
   10.4330  -16.2731   20.1229 O   0  0  0  0  0  0  0  0  0  0  0  0
   13.8840  -19.1435   21.9642 N   0  0  0  0  0  0  0  0  0  0  0  0
   12.4785  -19.4357   21.8811 C   0  0  0  0  0  0  0  0  0  0  0  0
   12.1146  -20.6063   21.6733 O   0  0  0  0  0  0  0  0  0  0  0  0
   11.5130  -18.3536   22.0425 C   0  0  0  0  0  0  0  0  0  0  0  0
   12.1345  -17.0224   22.3013 C   0  0  2  0  0  0  0  0  0  0  0  0
   11.0191  -16.0628   22.3672 N   0  0  0  0  0  0  0  0  0  0  0  0
   13.0647  -16.5485   21.2621 C   0  0  0  0  0  0  0  0  0  0  0  0
   12.7502  -16.2415   20.0871 O   0  0  0  0  0  0  0  0  0  0  0  0
   14.4436  -16.4069   21.5540 O   0  0  0  0  0  0  0  0  0  0  0  0
  2  1  1  6
  3  2  1  0
  3  4  1  0
  4  9  2  0
  4  5  1  0
  5  6  2  0
  6  7  1  0
  8  7  2  0
  9  8  1  0
 10 12  1  0
 10  2  1  0
 11 10  2  0
 13 14  1  6
 13 12  1  0
 14 15  1  0
 15 16  1  0
 16 17  1  0
 17 18  1  0
 19 13  1  0
 20 19  2  0
 21 22  1  0
 22 24  1  0
 22 23  2  0
 25 24  1  6
 25 27  1  0
 25 26  1  0
 26 19  1  0
 27 29  1  0
 28 27  2  0
M  END
$$$$
