FKN.pdb
     RDKit          3D

 29 29  0  0  1  0  0  0  0  0999 V2000
    5.9956  -17.4672   25.8630 N   0  0  0  0  0  0  0  0  0  0  0  0
    6.4903  -16.1677   25.4641 C   0  0  1  0  0  0  0  0  0  0  0  0
    7.3388  -15.5391   26.5468 C   0  0  0  0  0  0  0  0  0  0  0  0
    7.0782  -14.1117   26.7225 C   0  0  0  0  0  0  0  0  0  0  0  0
    8.1174  -13.2639   27.0657 C   0  0  0  0  0  0  0  0  0  0  0  0
    7.8370  -11.9237   27.2236 C   0  0  0  0  0  0  0  0  0  0  0  0
    6.5484  -11.4184   27.0467 C   0  0  0  0  0  0  0  0  0  0  0  0
    5.5298  -12.2838   26.7050 C   0  0  0  0  0  0  0  0  0  0  0  0
    5.7816  -13.6294   26.5404 C   0  0  0  0  0  0  0  0  0  0  0  0
    7.3073  -16.3880   24.2172 C   0  0  0  0  0  0  0  0  0  0  0  0
    7.9876  -17.4318   24.0450 O   0  0  0  0  0  0  0  0  0  0  0  0
    7.3384  -15.4140   23.1808 N   0  0  0  0  0  0  0  0  0  0  0  0
    8.1365  -15.5240   21.9737 C   0  0  1  0  0  0  0  0  0  0  0  0
    7.7417  -14.4122   21.0395 C   0  0  0  0  0  0  0  0  0  0  0  0
    8.4207  -14.5997   19.7155 C   0  0  0  0  0  0  0  0  0  0  0  0
    7.8443  -13.6507   18.7097 C   0  0  0  0  0  0  0  0  0  0  0  0
    8.4668  -14.0466   17.3588 C   0  0  0  0  0  0  0  0  0  0  0  0
    7.8874  -13.1702   16.3677 N   0  0  0  0  0  0  0  0  0  0  0  0
    9.5904  -15.3389   22.2894 C   0  0  0  0  0  0  0  0  0  0  0  0
    9.8648  -14.4947   23.1727 O   0  0  0  0  0  0  0  0  0  0  0  0
   12.3352  -19.0228   24.2299 N   0  0  0  0  0  0  0  0  0  0  0  0
   11.9883  -18.1529   23.1387 C   0  0  0  0  0  0  0  0  0  0  0  0
   11.6077  -18.6508   22.0649 O   0  0  0  0  0  0  0  0  0  0  0  0
   12.0905  -16.7082   23.3163 C   0  0  0  0  0  0  0  0  0  0  0  0
   11.9678  -15.9329   22.0477 C   0  0  2  0  0  0  0  0  0  0  0  0
   10.5666  -16.0812   21.6188 N   0  0  0  0  0  0  0  0  0  0  0  0
   12.8207  -16.3976   20.9402 C   0  0  0  0  0  0  0  0  0  0  0  0
   12.4185  -16.9828   19.9061 O   0  0  0  0  0  0  0  0  0  0  0  0
   14.2219  -16.1952   20.9896 O   0  0  0  0  0  0  0  0  0  0  0  0
  2  1  1  1
  3  2  1  0
  3  4  1  0
  4  9  2  0
  4  5  1  0
  5  6  2  0
  6  7  1  0
  8  7  2  0
  9  8  1  0
 10 12  1  0
 10  2  1  0
 11 10  2  0
 13 14  1  6
 13 12  1  0
 14 15  1  0
 15 16  1  0
 16 17  1  0
 17 18  1  0
 19 13  1  0
 20 19  2  0
 21 22  1  0
 22 24  1  0
 22 23  2  0
 25 24  1  1
 25 27  1  0
 25 26  1  0
 26 19  1  0
 27 29  1  0
 28 27  2  0
M  END
$$$$
