FKN.pdb
     RDKit          3D

 29 29  0  0  1  0  0  0  0  0999 V2000
    8.9261  -14.7971   24.7952 N   0  0  0  0  0  0  0  0  0  0  0  0
    7.6231  -15.3349   24.4701 C   0  0  1  0  0  0  0  0  0  0  0  0
    6.5375  -14.2930   24.6224 C   0  0  0  0  0  0  0  0  0  0  0  0
    6.7615  -13.3932   25.7523 C   0  0  0  0  0  0  0  0  0  0  0  0
    7.5305  -12.2553   25.5785 C   0  0  0  0  0  0  0  0  0  0  0  0
    7.7218  -11.4287   26.6647 C   0  0  0  0  0  0  0  0  0  0  0  0
    7.1640  -11.7149   27.9112 C   0  0  0  0  0  0  0  0  0  0  0  0
    6.4015  -12.8552   28.0588 C   0  0  0  0  0  0  0  0  0  0  0  0
    6.1935  -13.7002   26.9893 C   0  0  0  0  0  0  0  0  0  0  0  0
    7.7022  -15.8068   23.0412 C   0  0  0  0  0  0  0  0  0  0  0  0
    7.0353  -16.7903   22.6290 O   0  0  0  0  0  0  0  0  0  0  0  0
    8.5418  -15.1505   22.0988 N   0  0  0  0  0  0  0  0  0  0  0  0
    8.6442  -15.5129   20.6974 C   0  0  1  0  0  0  0  0  0  0  0  0
    8.5123  -14.2618   19.8716 C   0  0  0  0  0  0  0  0  0  0  0  0
    8.5422  -14.6130   18.4138 C   0  0  0  0  0  0  0  0  0  0  0  0
    8.2478  -13.3958   17.5915 C   0  0  0  0  0  0  0  0  0  0  0  0
    8.0784  -13.8998   16.1471 C   0  0  0  0  0  0  0  0  0  0  0  0
    7.6126  -12.7737   15.3718 N   0  0  0  0  0  0  0  0  0  0  0  0
    9.9951  -16.0937   20.4047 C   0  0  0  0  0  0  0  0  0  0  0  0
   10.1574  -16.5756   19.2604 O   0  0  0  0  0  0  0  0  0  0  0  0
   12.8258  -13.8326   19.3904 N   0  0  0  0  0  0  0  0  0  0  0  0
   13.0267  -15.2556   19.4403 C   0  0  0  0  0  0  0  0  0  0  0  0
   12.9897  -15.9098   18.3837 O   0  0  0  0  0  0  0  0  0  0  0  0
   13.2692  -15.8982   20.7278 C   0  0  0  0  0  0  0  0  0  0  0  0
   12.2161  -16.8784   21.1221 C   0  0  2  0  0  0  0  0  0  0  0  0
   11.0013  -16.0849   21.3749 N   0  0  0  0  0  0  0  0  0  0  0  0
   12.5008  -17.6521   22.3429 C   0  0  0  0  0  0  0  0  0  0  0  0
   11.7887  -17.6732   23.3754 O   0  0  0  0  0  0  0  0  0  0  0  0
   13.6624  -18.4595   22.4174 O   0  0  0  0  0  0  0  0  0  0  0  0
  2  1  1  6
  3  2  1  0
  3  4  1  0
  4  9  2  0
  4  5  1  0
  5  6  2  0
  6  7  1  0
  8  7  2  0
  9  8  1  0
 10 12  1  0
 10  2  1  0
 11 10  2  0
 13 14  1  6
 13 12  1  0
 14 15  1  0
 15 16  1  0
 16 17  1  0
 17 18  1  0
 19 13  1  0
 20 19  2  0
 21 22  1  0
 22 24  1  0
 22 23  2  0
 25 24  1  1
 25 27  1  0
 25 26  1  0
 26 19  1  0
 27 29  1  0
 28 27  2  0
M  END
$$$$
