FKN.pdb
     RDKit          3D

 29 29  0  0  1  0  0  0  0  0999 V2000
    5.6711  -17.7363   24.9921 N   0  0  0  0  0  0  0  0  0  0  0  0
    6.1042  -16.3561   25.0017 C   0  0  1  0  0  0  0  0  0  0  0  0
    6.6542  -15.9550   26.3522 C   0  0  0  0  0  0  0  0  0  0  0  0
    6.9400  -14.5252   26.4527 C   0  0  0  0  0  0  0  0  0  0  0  0
    8.2504  -14.0835   26.3888 C   0  0  0  0  0  0  0  0  0  0  0  0
    8.4846  -12.7288   26.4870 C   0  0  0  0  0  0  0  0  0  0  0  0
    7.4429  -11.8142   26.6465 C   0  0  0  0  0  0  0  0  0  0  0  0
    6.1455  -12.2795   26.7074 C   0  0  0  0  0  0  0  0  0  0  0  0
    5.8819  -13.6295   26.6119 C   0  0  0  0  0  0  0  0  0  0  0  0
    7.1705  -16.2376   23.9435 C   0  0  0  0  0  0  0  0  0  0  0  0
    8.0305  -17.1377   23.7638 O   0  0  0  0  0  0  0  0  0  0  0  0
    7.2429  -15.0927   23.1022 N   0  0  0  0  0  0  0  0  0  0  0  0
    8.2378  -14.8978   22.0639 C   0  0  1  0  0  0  0  0  0  0  0  0
    8.1119  -13.4919   21.5423 C   0  0  0  0  0  0  0  0  0  0  0  0
    7.5281  -13.5157   20.1610 C   0  0  0  0  0  0  0  0  0  0  0  0
    8.5396  -14.0447   19.1907 C   0  0  0  0  0  0  0  0  0  0  0  0
    7.8657  -13.9781   17.8086 C   0  0  0  0  0  0  0  0  0  0  0  0
    8.7492  -14.6553   16.8883 N   0  0  0  0  0  0  0  0  0  0  0  0
    9.6190  -15.0354   22.6306 C   0  0  0  0  0  0  0  0  0  0  0  0
    9.9973  -14.1242   23.4018 O   0  0  0  0  0  0  0  0  0  0  0  0
   10.4203  -19.0691   24.4913 N   0  0  0  0  0  0  0  0  0  0  0  0
   11.3060  -17.9363   24.4963 C   0  0  0  0  0  0  0  0  0  0  0  0
   11.4473  -17.2827   25.5444 O   0  0  0  0  0  0  0  0  0  0  0  0
   12.0175  -17.5804   23.2731 C   0  0  0  0  0  0  0  0  0  0  0  0
   11.7936  -16.1733   22.8309 C   0  0  2  0  0  0  0  0  0  0  0  0
   10.4206  -16.1317   22.2995 N   0  0  0  0  0  0  0  0  0  0  0  0
   12.6940  -15.6961   21.7673 C   0  0  0  0  0  0  0  0  0  0  0  0
   12.3804  -15.5378   20.5630 O   0  0  0  0  0  0  0  0  0  0  0  0
   14.0400  -15.3727   22.0681 O   0  0  0  0  0  0  0  0  0  0  0  0
  2  1  1  1
  3  2  1  0
  3  4  1  0
  4  9  2  0
  4  5  1  0
  5  6  2  0
  6  7  1  0
  8  7  2  0
  9  8  1  0
 10 12  1  0
 10  2  1  0
 11 10  2  0
 13 14  1  1
 13 12  1  0
 14 15  1  0
 15 16  1  0
 16 17  1  0
 17 18  1  0
 19 13  1  0
 20 19  2  0
 21 22  1  0
 22 24  1  0
 22 23  2  0
 25 24  1  6
 25 27  1  0
 25 26  1  0
 26 19  1  0
 27 29  1  0
 28 27  2  0
M  END
$$$$
