LNW.pdb
     RDKit          3D

 31 32  0  0  1  0  0  0  0  0999 V2000
    6.2693  -13.0039   18.3952 C   0  0  0  0  0  0  0  0  0  0  0  0
    7.6520  -13.5477   18.6420 C   0  0  1  0  0  0  0  0  0  0  0  0
    8.6873  -12.4197   18.4873 C   0  0  0  0  0  0  0  0  0  0  0  0
    7.8466  -14.1017   20.0221 C   0  0  0  0  0  0  0  0  0  0  0  0
    9.2242  -14.5782   20.3276 C   0  0  2  0  0  0  0  0  0  0  0  0
    9.7829  -15.2242   19.1479 N   0  0  0  0  0  0  0  0  0  0  0  0
    9.2698  -15.5747   21.4589 C   0  0  0  0  0  0  0  0  0  0  0  0
    8.6624  -15.3362   22.5229 O   0  0  0  0  0  0  0  0  0  0  0  0
   12.1891  -20.6735   23.2031 N   0  0  0  0  0  0  0  0  0  0  0  0
   10.8850  -20.0698   22.9962 C   0  0  0  0  0  0  0  0  0  0  0  0
   10.0038  -20.4547   23.7883 O   0  0  0  0  0  0  0  0  0  0  0  0
   10.7720  -19.0913   21.8967 C   0  0  0  0  0  0  0  0  0  0  0  0
   10.1541  -17.7746   22.3209 C   0  0  2  0  0  0  0  0  0  0  0  0
    9.9929  -16.7791   21.3339 N   0  0  0  0  0  0  0  0  0  0  0  0
   10.5753  -17.3091   23.6570 C   0  0  0  0  0  0  0  0  0  0  0  0
   11.7372  -16.8088   23.8587 O   0  0  0  0  0  0  0  0  0  0  0  0
    9.7611  -17.3694   24.8144 N   0  0  0  0  0  0  0  0  0  0  0  0
   10.1759  -16.8143   26.1061 C   0  0  1  0  0  0  0  0  0  0  0  0
    9.9272  -15.3345   26.0423 C   0  0  0  0  0  0  0  0  0  0  0  0
    8.5204  -14.9273   25.8757 C   0  0  0  0  0  0  0  0  0  0  0  0
    7.5186  -15.7838   25.4081 C   0  0  0  0  0  0  0  0  0  0  0  0
    6.3983  -15.0545   25.3686 N   0  0  0  0  0  0  0  0  0  0  0  0
    6.6278  -13.7979   25.7797 C   0  0  0  0  0  0  0  0  0  0  0  0
    5.7907  -12.7141   25.9203 C   0  0  0  0  0  0  0  0  0  0  0  0
    6.2983  -11.5147   26.3936 C   0  0  0  0  0  0  0  0  0  0  0  0
    7.6248  -11.3737   26.7295 C   0  0  0  0  0  0  0  0  0  0  0  0
    8.4459  -12.4794   26.5791 C   0  0  0  0  0  0  0  0  0  0  0  0
    7.9616  -13.6889   26.1076 C   0  0  0  0  0  0  0  0  0  0  0  0
    9.4915  -17.5558   27.1494 C   0  0  0  0  0  0  0  0  0  0  0  0
    8.6919  -18.5222   26.8642 O   0  0  0  0  0  0  0  0  0  0  0  0
    9.6120  -17.3300   28.5242 O   0  0  0  0  0  0  0  0  0  0  0  0
  2  1  1  1
  2  3  1  0
  4  2  1  0
  5  4  1  0
  5  6  1  6
  7  8  2  0
  7  5  1  0
 10 12  1  0
 10  9  1  0
 11 10  2  0
 13 12  1  6
 13 14  1  0
 14  7  1  0
 15 13  1  0
 15 17  1  0
 16 15  2  0
 18 17  1  0
 18 29  1  0
 19 20  1  0
 18 19  1  6
 20 28  1  0
 21 22  1  0
 21 20  2  0
 22 23  1  0
 23 28  2  0
 23 24  1  0
 24 25  2  0
 25 26  1  0
 27 26  2  0
 28 27  1  0
 29 30  2  0
 29 31  1  0
M  END
$$$$
