LNW.pdb
     RDKit          3D

 31 32  0  0  1  0  0  0  0  0999 V2000
    6.8593  -12.3697   19.6206 C   0  0  0  0  0  0  0  0  0  0  0  0
    7.9996  -13.2243   19.1327 C   0  0  1  0  0  0  0  0  0  0  0  0
    9.3311  -12.4836   19.3486 C   0  0  0  0  0  0  0  0  0  0  0  0
    8.1301  -14.5303   19.8585 C   0  0  0  0  0  0  0  0  0  0  0  0
    9.1944  -15.4382   19.3476 C   0  0  2  0  0  0  0  0  0  0  0  0
    8.8356  -15.8973   18.0127 N   0  0  0  0  0  0  0  0  0  0  0  0
    9.3983  -16.6580   20.2108 C   0  0  0  0  0  0  0  0  0  0  0  0
    9.1465  -17.7921   19.7546 O   0  0  0  0  0  0  0  0  0  0  0  0
   10.4373  -21.1073   22.8285 N   0  0  0  0  0  0  0  0  0  0  0  0
   11.1566  -19.8467   22.8667 C   0  0  0  0  0  0  0  0  0  0  0  0
   12.0099  -19.7638   23.7707 O   0  0  0  0  0  0  0  0  0  0  0  0
   10.7955  -18.8436   21.8457 C   0  0  0  0  0  0  0  0  0  0  0  0
   10.1700  -17.5908   22.4242 C   0  0  2  0  0  0  0  0  0  0  0  0
    9.8710  -16.5375   21.5341 N   0  0  0  0  0  0  0  0  0  0  0  0
   10.7029  -17.2005   23.7444 C   0  0  0  0  0  0  0  0  0  0  0  0
   11.8083  -16.5640   23.8613 O   0  0  0  0  0  0  0  0  0  0  0  0
   10.0642  -17.4843   24.9764 N   0  0  0  0  0  0  0  0  0  0  0  0
   10.3435  -16.7362   26.2056 C   0  0  1  0  0  0  0  0  0  0  0  0
   10.0160  -15.2981   25.9222 C   0  0  0  0  0  0  0  0  0  0  0  0
    8.5822  -14.9564   25.9148 C   0  0  0  0  0  0  0  0  0  0  0  0
    7.5666  -15.8910   25.6893 C   0  0  0  0  0  0  0  0  0  0  0  0
    6.4187  -15.2061   25.7317 N   0  0  0  0  0  0  0  0  0  0  0  0
    6.6438  -13.9046   25.9687 C   0  0  0  0  0  0  0  0  0  0  0  0
    5.7843  -12.8385   26.1100 C   0  0  0  0  0  0  0  0  0  0  0  0
    6.2957  -11.5781   26.3747 C   0  0  0  0  0  0  0  0  0  0  0  0
    7.6479  -11.3588   26.5013 C   0  0  0  0  0  0  0  0  0  0  0  0
    8.4911  -12.4483   26.3549 C   0  0  0  0  0  0  0  0  0  0  0  0
    8.0035  -13.7178   26.0897 C   0  0  0  0  0  0  0  0  0  0  0  0
    9.6227  -17.3775   27.2902 C   0  0  0  0  0  0  0  0  0  0  0  0
    8.8453  -18.3788   27.0724 O   0  0  0  0  0  0  0  0  0  0  0  0
    9.6827  -17.0116   28.6385 O   0  0  0  0  0  0  0  0  0  0  0  0
  2  1  1  1
  2  3  1  0
  4  2  1  0
  5  4  1  0
  5  6  1  6
  7  8  2  0
  7  5  1  0
 10 12  1  0
 10  9  1  0
 11 10  2  0
 13 12  1  6
 13 14  1  0
 14  7  1  0
 15 13  1  0
 15 17  1  0
 16 15  2  0
 18 17  1  0
 18 29  1  0
 19 20  1  0
 18 19  1  6
 20 28  1  0
 21 22  1  0
 21 20  2  0
 22 23  1  0
 23 28  2  0
 23 24  1  0
 24 25  2  0
 25 26  1  0
 27 26  2  0
 28 27  1  0
 29 30  2  0
 29 31  1  0
M  END
$$$$
