LNW.pdb
     RDKit          3D

 31 32  0  0  1  0  0  0  0  0999 V2000
    7.3105  -13.0788   17.3402 C   0  0  0  0  0  0  0  0  0  0  0  0
    8.3206  -13.6939   18.2729 C   0  0  1  0  0  0  0  0  0  0  0  0
    9.2691  -12.6033   18.8012 C   0  0  0  0  0  0  0  0  0  0  0  0
    7.7127  -14.3361   19.4844 C   0  0  0  0  0  0  0  0  0  0  0  0
    8.6787  -14.7321   20.5464 C   0  0  2  0  0  0  0  0  0  0  0  0
    9.6875  -15.6137   19.9753 N   0  0  0  0  0  0  0  0  0  0  0  0
    8.0303  -15.4634   21.6952 C   0  0  0  0  0  0  0  0  0  0  0  0
    7.0277  -14.9760   22.2563 O   0  0  0  0  0  0  0  0  0  0  0  0
    7.0045  -20.8355   23.8719 N   0  0  0  0  0  0  0  0  0  0  0  0
    6.4787  -19.4997   23.6554 C   0  0  0  0  0  0  0  0  0  0  0  0
    5.5455  -19.1801   24.4164 O   0  0  0  0  0  0  0  0  0  0  0  0
    7.1080  -18.7027   22.5840 C   0  0  0  0  0  0  0  0  0  0  0  0
    7.9541  -17.5571   23.1007 C   0  0  2  0  0  0  0  0  0  0  0  0
    8.5421  -16.6967   22.1493 N   0  0  0  0  0  0  0  0  0  0  0  0
    8.7806  -17.8951   24.2762 C   0  0  0  0  0  0  0  0  0  0  0  0
    8.4339  -18.8130   25.0996 O   0  0  0  0  0  0  0  0  0  0  0  0
   10.0018  -17.2554   24.6014 N   0  0  0  0  0  0  0  0  0  0  0  0
   10.1291  -16.3054   25.7103 C   0  0  1  0  0  0  0  0  0  0  0  0
    9.4158  -15.0518   25.2915 C   0  0  0  0  0  0  0  0  0  0  0  0
    8.1373  -14.7830   25.9740 C   0  0  0  0  0  0  0  0  0  0  0  0
    7.1656  -15.7614   26.2071 C   0  0  0  0  0  0  0  0  0  0  0  0
    6.1516  -15.1368   26.8157 N   0  0  0  0  0  0  0  0  0  0  0  0
    6.4201  -13.8325   26.9811 C   0  0  0  0  0  0  0  0  0  0  0  0
    5.6948  -12.8155   27.5598 C   0  0  0  0  0  0  0  0  0  0  0  0
    6.2301  -11.5385   27.6134 C   0  0  0  0  0  0  0  0  0  0  0  0
    7.4748  -11.2545   27.1011 C   0  0  0  0  0  0  0  0  0  0  0  0
    8.1841  -12.2956   26.5245 C   0  0  0  0  0  0  0  0  0  0  0  0
    7.6699  -13.5805   26.4589 C   0  0  0  0  0  0  0  0  0  0  0  0
    9.6586  -16.9630   26.9158 C   0  0  0  0  0  0  0  0  0  0  0  0
    8.9424  -18.0297   26.8559 O   0  0  0  0  0  0  0  0  0  0  0  0
    9.9151  -16.5462   28.2258 O   0  0  0  0  0  0  0  0  0  0  0  0
  2  1  1  6
  2  3  1  0
  4  2  1  0
  5  4  1  0
  5  6  1  6
  7  8  2  0
  7  5  1  0
 10 12  1  0
 10  9  1  0
 11 10  2  0
 13 12  1  6
 13 14  1  0
 14  7  1  0
 15 13  1  0
 15 17  1  0
 16 15  2  0
 18 17  1  0
 18 29  1  0
 19 20  1  0
 18 19  1  6
 20 28  1  0
 21 22  1  0
 21 20  2  0
 22 23  1  0
 23 28  2  0
 23 24  1  0
 24 25  2  0
 25 26  1  0
 27 26  2  0
 28 27  1  0
 29 30  2  0
 29 31  1  0
M  END
$$$$
