LNW.pdb
     RDKit          3D

 31 32  0  0  1  0  0  0  0  0999 V2000
    9.2446  -12.4741   20.1557 C   0  0  0  0  0  0  0  0  0  0  0  0
    8.0832  -13.2101   19.5410 C   0  0  1  0  0  0  0  0  0  0  0  0
    7.1449  -12.2081   18.8453 C   0  0  0  0  0  0  0  0  0  0  0  0
    8.4837  -14.2011   18.4889 C   0  0  0  0  0  0  0  0  0  0  0  0
    9.0160  -15.4937   19.0026 C   0  0  2  0  0  0  0  0  0  0  0  0
    9.2153  -16.4094   17.8877 N   0  0  0  0  0  0  0  0  0  0  0  0
    8.0920  -16.1664   19.9867 C   0  0  0  0  0  0  0  0  0  0  0  0
    7.0676  -16.7511   19.5787 O   0  0  0  0  0  0  0  0  0  0  0  0
    4.9444  -18.7555   23.1191 N   0  0  0  0  0  0  0  0  0  0  0  0
    6.3883  -18.7636   23.2701 C   0  0  0  0  0  0  0  0  0  0  0  0
    6.7951  -19.2554   24.3401 O   0  0  0  0  0  0  0  0  0  0  0  0
    7.1768  -18.2025   22.1554 C   0  0  0  0  0  0  0  0  0  0  0  0
    7.6232  -16.7739   22.3901 C   0  0  2  0  0  0  0  0  0  0  0  0
    8.3677  -16.1448   21.3697 N   0  0  0  0  0  0  0  0  0  0  0  0
    8.0425  -16.4890   23.7765 C   0  0  0  0  0  0  0  0  0  0  0  0
    7.3046  -15.8130   24.5761 O   0  0  0  0  0  0  0  0  0  0  0  0
    9.2670  -16.9208   24.3427 N   0  0  0  0  0  0  0  0  0  0  0  0
    9.9167  -16.2220   25.4553 C   0  0  1  0  0  0  0  0  0  0  0  0
    8.9065  -16.1374   26.5635 C   0  0  0  0  0  0  0  0  0  0  0  0
    7.7576  -15.2474   26.3174 C   0  0  0  0  0  0  0  0  0  0  0  0
    6.4821  -15.7088   25.9769 C   0  0  0  0  0  0  0  0  0  0  0  0
    5.7274  -14.6175   25.8095 N   0  0  0  0  0  0  0  0  0  0  0  0
    6.4417  -13.5016   26.0218 C   0  0  0  0  0  0  0  0  0  0  0  0
    6.0930  -12.1705   25.9805 C   0  0  0  0  0  0  0  0  0  0  0  0
    7.0448  -11.2049   26.2667 C   0  0  0  0  0  0  0  0  0  0  0  0
    8.3385  -11.5398   26.5934 C   0  0  0  0  0  0  0  0  0  0  0  0
    8.6635  -12.8861   26.6282 C   0  0  0  0  0  0  0  0  0  0  0  0
    7.7294  -13.8696   26.3456 C   0  0  0  0  0  0  0  0  0  0  0  0
   11.1617  -16.9092   25.7461 C   0  0  0  0  0  0  0  0  0  0  0  0
   11.5040  -17.9680   25.1008 O   0  0  0  0  0  0  0  0  0  0  0  0
   12.1000  -16.5253   26.7093 O   0  0  0  0  0  0  0  0  0  0  0  0
  2  1  1  6
  2  3  1  0
  4  2  1  0
  5  4  1  0
  5  6  1  6
  7  8  2  0
  7  5  1  0
 10 12  1  0
 10  9  1  0
 11 10  2  0
 13 12  1  6
 13 14  1  0
 14  7  1  0
 15 13  1  0
 15 17  1  0
 16 15  2  0
 18 17  1  0
 18 29  1  0
 19 20  1  0
 18 19  1  1
 20 28  1  0
 21 22  1  0
 21 20  2  0
 22 23  1  0
 23 28  2  0
 23 24  1  0
 24 25  2  0
 25 26  1  0
 27 26  2  0
 28 27  1  0
 29 30  2  0
 29 31  1  0
M  END
$$$$
