LNW.pdb
     RDKit          3D

 31 32  0  0  1  0  0  0  0  0999 V2000
    7.5486  -11.6737   19.6386 C   0  0  0  0  0  0  0  0  0  0  0  0
    7.9922  -13.0951   19.4123 C   0  0  1  0  0  0  0  0  0  0  0  0
    9.3304  -13.1054   18.6524 C   0  0  0  0  0  0  0  0  0  0  0  0
    8.2293  -13.8636   20.6783 C   0  0  0  0  0  0  0  0  0  0  0  0
    8.6926  -15.2668   20.4931 C   0  0  2  0  0  0  0  0  0  0  0  0
    7.8158  -15.9424   19.5465 N   0  0  0  0  0  0  0  0  0  0  0  0
    8.6873  -16.0667   21.7718 C   0  0  0  0  0  0  0  0  0  0  0  0
    7.7964  -15.8717   22.6239 O   0  0  0  0  0  0  0  0  0  0  0  0
    9.4112  -20.9057   24.6430 N   0  0  0  0  0  0  0  0  0  0  0  0
   10.4592  -19.9554   24.3170 C   0  0  0  0  0  0  0  0  0  0  0  0
   11.3615  -19.8652   25.1713 O   0  0  0  0  0  0  0  0  0  0  0  0
   10.3275  -19.2332   23.0362 C   0  0  0  0  0  0  0  0  0  0  0  0
    9.8279  -17.8115   23.1929 C   0  0  2  0  0  0  0  0  0  0  0  0
    9.6794  -17.0372   22.0226 N   0  0  0  0  0  0  0  0  0  0  0  0
   10.3567  -17.1096   24.3790 C   0  0  0  0  0  0  0  0  0  0  0  0
   11.4347  -16.4198   24.3263 O   0  0  0  0  0  0  0  0  0  0  0  0
    9.7434  -17.1303   25.6556 N   0  0  0  0  0  0  0  0  0  0  0  0
   10.4232  -16.6700   26.8699 C   0  0  1  0  0  0  0  0  0  0  0  0
    9.6136  -15.5279   27.4138 C   0  0  0  0  0  0  0  0  0  0  0  0
    8.3761  -15.2115   26.6782 C   0  0  0  0  0  0  0  0  0  0  0  0
    7.4682  -16.1812   26.2411 C   0  0  0  0  0  0  0  0  0  0  0  0
    6.5011  -15.5179   25.5981 N   0  0  0  0  0  0  0  0  0  0  0  0
    6.7394  -14.1974   25.6015 C   0  0  0  0  0  0  0  0  0  0  0  0
    6.0275  -13.1380   25.0858 C   0  0  0  0  0  0  0  0  0  0  0  0
    6.5043  -11.8477   25.2524 C   0  0  0  0  0  0  0  0  0  0  0  0
    7.6778  -11.5919   25.9233 C   0  0  0  0  0  0  0  0  0  0  0  0
    8.3749  -12.6753   26.4327 C   0  0  0  0  0  0  0  0  0  0  0  0
    7.9185  -13.9744   26.2785 C   0  0  0  0  0  0  0  0  0  0  0  0
   10.6121  -17.8189   27.7367 C   0  0  0  0  0  0  0  0  0  0  0  0
   10.0504  -18.9469   27.4787 O   0  0  0  0  0  0  0  0  0  0  0  0
   11.3914  -17.8459   28.8975 O   0  0  0  0  0  0  0  0  0  0  0  0
  2  1  1  1
  2  3  1  0
  4  2  1  0
  5  4  1  0
  5  6  1  6
  7  8  2  0
  7  5  1  0
 10 12  1  0
 10  9  1  0
 11 10  2  0
 13 12  1  6
 13 14  1  0
 14  7  1  0
 15 13  1  0
 15 17  1  0
 16 15  2  0
 18 17  1  0
 18 29  1  0
 19 20  1  0
 18 19  1  1
 20 28  1  0
 21 22  1  0
 21 20  2  0
 22 23  1  0
 23 28  2  0
 23 24  1  0
 24 25  2  0
 25 26  1  0
 27 26  2  0
 28 27  1  0
 29 30  2  0
 29 31  1  0
M  END
$$$$
