LNW.pdb
     RDKit          3D

 31 32  0  0  1  0  0  0  0  0999 V2000
    6.4288  -12.6223   18.9037 C   0  0  0  0  0  0  0  0  0  0  0  0
    7.7581  -13.3254   18.9885 C   0  0  1  0  0  0  0  0  0  0  0  0
    8.8933  -12.2865   19.0049 C   0  0  0  0  0  0  0  0  0  0  0  0
    7.9301  -14.1459   20.2322 C   0  0  0  0  0  0  0  0  0  0  0  0
    9.3164  -14.6240   20.4919 C   0  0  2  0  0  0  0  0  0  0  0  0
    9.7965  -15.3620   19.3317 N   0  0  0  0  0  0  0  0  0  0  0  0
    9.4143  -15.5383   21.6874 C   0  0  0  0  0  0  0  0  0  0  0  0
    8.6447  -15.3790   22.6571 O   0  0  0  0  0  0  0  0  0  0  0  0
   11.7337  -19.6353   20.1888 N   0  0  0  0  0  0  0  0  0  0  0  0
   10.8639  -19.5087   21.3443 C   0  0  0  0  0  0  0  0  0  0  0  0
    9.7638  -20.0823   21.2306 O   0  0  0  0  0  0  0  0  0  0  0  0
   11.3856  -18.7347   22.4880 C   0  0  0  0  0  0  0  0  0  0  0  0
   10.5842  -17.4843   22.7871 C   0  0  2  0  0  0  0  0  0  0  0  0
   10.3678  -16.5767   21.7285 N   0  0  0  0  0  0  0  0  0  0  0  0
   10.8557  -16.8918   24.1117 C   0  0  0  0  0  0  0  0  0  0  0  0
   11.7761  -16.0172   24.2806 O   0  0  0  0  0  0  0  0  0  0  0  0
   10.1472  -17.2234   25.2926 N   0  0  0  0  0  0  0  0  0  0  0  0
   10.4922  -16.6718   26.6061 C   0  0  1  0  0  0  0  0  0  0  0  0
   10.0388  -15.2400   26.6081 C   0  0  0  0  0  0  0  0  0  0  0  0
    8.5983  -15.0232   26.3832 C   0  0  0  0  0  0  0  0  0  0  0  0
    7.7022  -16.0504   26.0709 C   0  0  0  0  0  0  0  0  0  0  0  0
    6.5096  -15.4653   25.9159 N   0  0  0  0  0  0  0  0  0  0  0  0
    6.5953  -14.1403   26.1097 C   0  0  0  0  0  0  0  0  0  0  0  0
    5.6432  -13.1467   26.0715 C   0  0  0  0  0  0  0  0  0  0  0  0
    6.0107  -11.8368   26.3346 C   0  0  0  0  0  0  0  0  0  0  0  0
    7.3094  -11.4970   26.6352 C   0  0  0  0  0  0  0  0  0  0  0  0
    8.2480  -12.5154   26.6674 C   0  0  0  0  0  0  0  0  0  0  0  0
    7.9048  -13.8324   26.4076 C   0  0  0  0  0  0  0  0  0  0  0  0
    9.9275  -17.5460   27.6179 C   0  0  0  0  0  0  0  0  0  0  0  0
    9.2913  -18.6159   27.2935 O   0  0  0  0  0  0  0  0  0  0  0  0
   10.0037  -17.3500   29.0004 O   0  0  0  0  0  0  0  0  0  0  0  0
  2  1  1  1
  2  3  1  0
  4  2  1  0
  5  4  1  0
  5  6  1  6
  7  8  2  0
  7  5  1  0
 10 12  1  0
 10  9  1  0
 11 10  2  0
 13 12  1  6
 13 14  1  0
 14  7  1  0
 15 13  1  0
 15 17  1  0
 16 15  2  0
 18 17  1  0
 18 29  1  0
 19 20  1  0
 18 19  1  6
 20 28  1  0
 21 22  1  0
 21 20  2  0
 22 23  1  0
 23 28  2  0
 23 24  1  0
 24 25  2  0
 25 26  1  0
 27 26  2  0
 28 27  1  0
 29 30  2  0
 29 31  1  0
M  END
$$$$
