LNW.pdb
     RDKit          3D

 31 32  0  0  1  0  0  0  0  0999 V2000
    7.1687  -11.9100   18.9845 C   0  0  0  0  0  0  0  0  0  0  0  0
    8.0824  -13.1072   18.9669 C   0  0  1  0  0  0  0  0  0  0  0  0
    9.5299  -12.6504   18.7130 C   0  0  0  0  0  0  0  0  0  0  0  0
    8.1090  -13.8668   20.2600 C   0  0  0  0  0  0  0  0  0  0  0  0
    9.0519  -15.0188   20.3014 C   0  0  2  0  0  0  0  0  0  0  0  0
    8.7745  -15.9086   19.1822 N   0  0  0  0  0  0  0  0  0  0  0  0
    8.9418  -15.8301   21.5681 C   0  0  0  0  0  0  0  0  0  0  0  0
    8.0419  -15.5744   22.3943 O   0  0  0  0  0  0  0  0  0  0  0  0
   10.4448  -19.8871   20.4004 N   0  0  0  0  0  0  0  0  0  0  0  0
    9.6501  -19.8064   21.6127 C   0  0  0  0  0  0  0  0  0  0  0  0
    8.5128  -20.3067   21.5214 O   0  0  0  0  0  0  0  0  0  0  0  0
   10.2804  -19.1577   22.7794 C   0  0  0  0  0  0  0  0  0  0  0  0
    9.8550  -17.7166   22.9724 C   0  0  2  0  0  0  0  0  0  0  0  0
    9.8453  -16.8792   21.8367 N   0  0  0  0  0  0  0  0  0  0  0  0
   10.3292  -17.1071   24.2306 C   0  0  0  0  0  0  0  0  0  0  0  0
   11.1020  -16.0856   24.2327 O   0  0  0  0  0  0  0  0  0  0  0  0
    9.9879  -17.5787   25.5219 N   0  0  0  0  0  0  0  0  0  0  0  0
   10.5200  -16.9823   26.7505 C   0  0  1  0  0  0  0  0  0  0  0  0
   10.0475  -15.5570   26.7808 C   0  0  0  0  0  0  0  0  0  0  0  0
    8.6141  -15.3507   26.5064 C   0  0  0  0  0  0  0  0  0  0  0  0
    7.7187  -16.3940   26.2504 C   0  0  0  0  0  0  0  0  0  0  0  0
    6.5339  -15.8163   26.0240 N   0  0  0  0  0  0  0  0  0  0  0  0
    6.6237  -14.4810   26.1205 C   0  0  0  0  0  0  0  0  0  0  0  0
    5.6793  -13.4885   25.9858 C   0  0  0  0  0  0  0  0  0  0  0  0
    6.0491  -12.1644   26.1592 C   0  0  0  0  0  0  0  0  0  0  0  0
    7.3427  -11.8093   26.4642 C   0  0  0  0  0  0  0  0  0  0  0  0
    8.2737  -12.8270   26.5945 C   0  0  0  0  0  0  0  0  0  0  0  0
    7.9280  -14.1580   26.4255 C   0  0  0  0  0  0  0  0  0  0  0  0
   10.1318  -17.8317   27.8617 C   0  0  0  0  0  0  0  0  0  0  0  0
   10.4888  -17.5566   29.0664 O   0  0  0  0  0  0  0  0  0  0  0  0
    9.3570  -18.9922   27.7698 O   0  0  0  0  0  0  0  0  0  0  0  0
  2  1  1  1
  2  3  1  0
  4  2  1  0
  5  4  1  0
  5  6  1  6
  7  8  2  0
  7  5  1  0
 10 12  1  0
 10  9  1  0
 11 10  2  0
 13 12  1  6
 13 14  1  0
 14  7  1  0
 15 13  1  0
 15 17  1  0
 16 15  2  0
 18 17  1  0
 18 29  1  0
 19 20  1  0
 18 19  1  1
 20 28  1  0
 21 22  1  0
 21 20  2  0
 22 23  1  0
 23 28  2  0
 23 24  1  0
 24 25  2  0
 25 26  1  0
 27 26  2  0
 28 27  1  0
 29 30  2  0
 29 31  1  0
M  END
$$$$
