LNW.pdb
     RDKit          3D

 31 32  0  0  1  0  0  0  0  0999 V2000
    6.6752  -13.1883   19.2765 C   0  0  0  0  0  0  0  0  0  0  0  0
    7.6470  -14.2406   18.8107 C   0  0  1  0  0  0  0  0  0  0  0  0
    8.5792  -13.6469   17.7398 C   0  0  0  0  0  0  0  0  0  0  0  0
    8.5419  -14.7604   19.8963 C   0  0  0  0  0  0  0  0  0  0  0  0
    9.5233  -15.7963   19.4698 C   0  0  2  0  0  0  0  0  0  0  0  0
    8.8075  -16.9469   18.9359 N   0  0  0  0  0  0  0  0  0  0  0  0
   10.3975  -16.2850   20.5975 C   0  0  0  0  0  0  0  0  0  0  0  0
   10.3021  -17.4653   20.9919 O   0  0  0  0  0  0  0  0  0  0  0  0
   14.6015  -16.1275   20.3641 N   0  0  0  0  0  0  0  0  0  0  0  0
   14.2299  -14.8807   21.0085 C   0  0  0  0  0  0  0  0  0  0  0  0
   14.5425  -13.8555   20.3734 O   0  0  0  0  0  0  0  0  0  0  0  0
   13.5375  -14.9842   22.3081 C   0  0  0  0  0  0  0  0  0  0  0  0
   12.2390  -15.7616   22.2407 C   0  0  2  0  0  0  0  0  0  0  0  0
   11.3266  -15.4245   21.2183 N   0  0  0  0  0  0  0  0  0  0  0  0
   11.6557  -16.0845   23.5578 C   0  0  0  0  0  0  0  0  0  0  0  0
   12.3922  -16.3467   24.5726 O   0  0  0  0  0  0  0  0  0  0  0  0
   10.2651  -16.1365   23.8216 N   0  0  0  0  0  0  0  0  0  0  0  0
    9.7152  -16.6413   25.0831 C   0  0  1  0  0  0  0  0  0  0  0  0
    8.2375  -16.3754   25.0495 C   0  0  0  0  0  0  0  0  0  0  0  0
    7.8430  -14.9590   24.9463 C   0  0  0  0  0  0  0  0  0  0  0  0
    7.5032  -14.3377   23.7403 C   0  0  0  0  0  0  0  0  0  0  0  0
    7.2349  -13.0633   24.0444 N   0  0  0  0  0  0  0  0  0  0  0  0
    7.3828  -12.8414   25.3595 C   0  0  0  0  0  0  0  0  0  0  0  0
    7.2048  -11.7090   26.1219 C   0  0  0  0  0  0  0  0  0  0  0  0
    7.4135  -11.7661   27.4906 C   0  0  0  0  0  0  0  0  0  0  0  0
    7.7965  -12.9304   28.1152 C   0  0  0  0  0  0  0  0  0  0  0  0
    7.9685  -14.0556   27.3255 C   0  0  0  0  0  0  0  0  0  0  0  0
    7.7662  -14.0231   25.9553 C   0  0  0  0  0  0  0  0  0  0  0  0
   10.1357  -18.0228   25.2305 C   0  0  0  0  0  0  0  0  0  0  0  0
   10.6232  -18.6798   24.2379 O   0  0  0  0  0  0  0  0  0  0  0  0
   10.0729  -18.7736   26.4086 O   0  0  0  0  0  0  0  0  0  0  0  0
  2  1  1  1
  2  3  1  0
  4  2  1  0
  5  4  1  0
  5  6  1  1
  7  8  2  0
  7  5  1  0
 10 12  1  0
 10  9  1  0
 11 10  2  0
 13 12  1  1
 13 14  1  0
 14  7  1  0
 15 13  1  0
 15 17  1  0
 16 15  2  0
 18 17  1  0
 18 29  1  0
 19 20  1  0
 18 19  1  6
 20 28  1  0
 21 22  1  0
 21 20  2  0
 22 23  1  0
 23 28  2  0
 23 24  1  0
 24 25  2  0
 25 26  1  0
 27 26  2  0
 28 27  1  0
 29 30  2  0
 29 31  1  0
M  END
$$$$
