LNW.pdb
     RDKit          3D

 31 32  0  0  1  0  0  0  0  0999 V2000
    6.2413  -13.3121   17.9675 C   0  0  0  0  0  0  0  0  0  0  0  0
    7.6817  -13.4386   18.3889 C   0  0  1  0  0  0  0  0  0  0  0  0
    8.2048  -12.0710   18.8626 C   0  0  0  0  0  0  0  0  0  0  0  0
    7.8962  -14.3830   19.5342 C   0  0  0  0  0  0  0  0  0  0  0  0
    9.2683  -14.3790   20.1133 C   0  0  2  0  0  0  0  0  0  0  0  0
   10.2413  -14.5757   19.0476 N   0  0  0  0  0  0  0  0  0  0  0  0
    9.4838  -15.4670   21.1353 C   0  0  0  0  0  0  0  0  0  0  0  0
    8.5686  -15.7639   21.9304 O   0  0  0  0  0  0  0  0  0  0  0  0
   13.8660  -19.1564   23.4007 N   0  0  0  0  0  0  0  0  0  0  0  0
   12.5323  -19.0593   22.8355 C   0  0  0  0  0  0  0  0  0  0  0  0
   11.7270  -19.9113   23.2572 O   0  0  0  0  0  0  0  0  0  0  0  0
   12.3025  -17.9804   21.8545 C   0  0  0  0  0  0  0  0  0  0  0  0
   11.0649  -17.1554   22.1425 C   0  0  2  0  0  0  0  0  0  0  0  0
   10.7108  -16.1586   21.2086 N   0  0  0  0  0  0  0  0  0  0  0  0
   10.8822  -16.8121   23.5666 C   0  0  0  0  0  0  0  0  0  0  0  0
   11.6047  -15.9243   24.1417 O   0  0  0  0  0  0  0  0  0  0  0  0
    9.9196  -17.4140   24.4135 N   0  0  0  0  0  0  0  0  0  0  0  0
    9.4940  -16.8154   25.6821 C   0  0  1  0  0  0  0  0  0  0  0  0
    7.9948  -16.8972   25.7190 C   0  0  0  0  0  0  0  0  0  0  0  0
    7.2900  -15.6311   25.9889 C   0  0  0  0  0  0  0  0  0  0  0  0
    5.9062  -15.4750   25.8613 C   0  0  0  0  0  0  0  0  0  0  0  0
    5.6498  -14.1970   26.1607 N   0  0  0  0  0  0  0  0  0  0  0  0
    6.7783  -13.5394   26.4680 C   0  0  0  0  0  0  0  0  0  0  0  0
    7.0027  -12.2353   26.8480 C   0  0  0  0  0  0  0  0  0  0  0  0
    8.2935  -11.8174   27.1295 C   0  0  0  0  0  0  0  0  0  0  0  0
    9.3663  -12.6739   27.0396 C   0  0  0  0  0  0  0  0  0  0  0  0
    9.1135  -13.9808   26.6554 C   0  0  0  0  0  0  0  0  0  0  0  0
    7.8317  -14.4219   26.3685 C   0  0  0  0  0  0  0  0  0  0  0  0
   10.2192  -17.4768   26.7515 C   0  0  0  0  0  0  0  0  0  0  0  0
   10.0153  -17.1690   27.9836 O   0  0  0  0  0  0  0  0  0  0  0  0
   11.1765  -18.4830   26.5877 O   0  0  0  0  0  0  0  0  0  0  0  0
  2  1  1  1
  2  3  1  0
  4  2  1  0
  5  4  1  0
  5  6  1  6
  7  8  2  0
  7  5  1  0
 10 12  1  0
 10  9  1  0
 11 10  2  0
 13 12  1  1
 13 14  1  0
 14  7  1  0
 15 13  1  0
 15 17  1  0
 16 15  2  0
 18 17  1  0
 18 29  1  0
 19 20  1  0
 18 19  1  1
 20 28  1  0
 21 22  1  0
 21 20  2  0
 22 23  1  0
 23 28  2  0
 23 24  1  0
 24 25  2  0
 25 26  1  0
 27 26  2  0
 28 27  1  0
 29 30  2  0
 29 31  1  0
M  END
$$$$
