HDQ.pdb
     RDKit          3D

 28 28  0  0  1  0  0  0  0  0999 V2000
   18.0735  -13.7356  -16.3757 N   0  0  0  0  0  0  0  0  0  0  0  0
   17.5997  -12.3661  -16.5684 C   0  0  1  0  0  0  0  0  0  0  0  0
   16.8581  -11.9929  -15.3045 C   0  0  0  0  0  0  0  0  0  0  0  0
   15.5863  -12.7915  -15.2220 C   0  0  0  0  0  0  0  0  0  0  0  0
   14.3014  -12.3047  -15.4556 C   0  0  0  0  0  0  0  0  0  0  0  0
   13.4540  -13.3343  -15.2814 N   0  0  0  0  0  0  0  0  0  0  0  0
   14.1605  -14.4443  -14.9482 C   0  0  0  0  0  0  0  0  0  0  0  0
   15.4352  -14.0844  -14.9213 N   0  0  0  0  0  0  0  0  0  0  0  0
   18.7546  -11.4792  -16.8146 C   0  0  0  0  0  0  0  0  0  0  0  0
   19.7682  -11.4311  -16.0500 O   0  0  0  0  0  0  0  0  0  0  0  0
   18.7878  -10.6192  -17.9442 N   0  0  0  0  0  0  0  0  0  0  0  0
   19.8906   -9.7475  -18.2444 C   0  0  1  0  0  0  0  0  0  0  0  0
   20.1243   -9.6563  -19.7369 C   0  0  0  0  0  0  0  0  0  0  0  0
   21.2666   -8.7901  -20.1016 C   0  0  0  0  0  0  0  0  0  0  0  0
   22.4228   -9.2698  -20.1356 O   0  0  0  0  0  0  0  0  0  0  0  0
   19.8165   -8.4441  -17.5922 C   0  0  0  0  0  0  0  0  0  0  0  0
   18.6914   -7.8748  -17.5562 O   0  0  0  0  0  0  0  0  0  0  0  0
   21.1208   -7.4487  -20.4132 O   0  0  0  0  0  0  0  0  0  0  0  0
   23.3471   -6.2452  -12.7565 N   0  0  0  0  0  0  0  0  0  0  0  0
   22.5862   -5.1317  -13.1962 C   0  0  0  0  0  0  0  0  0  0  0  0
   22.7444   -4.0410  -12.5690 O   0  0  0  0  0  0  0  0  0  0  0  0
   21.6410   -5.1551  -14.3230 C   0  0  0  0  0  0  0  0  0  0  0  0
   21.5689   -6.4097  -15.1031 C   0  0  0  0  0  0  0  0  0  0  0  0
   20.7793   -6.4401  -16.3472 C   0  0  2  0  0  0  0  0  0  0  0  0
   20.8936   -7.7632  -16.9982 N   0  0  0  0  0  0  0  0  0  0  0  0
   20.9400   -5.3573  -17.2886 C   0  0  0  0  0  0  0  0  0  0  0  0
   20.1402   -4.4001  -17.4087 O   0  0  0  0  0  0  0  0  0  0  0  0
   22.0524   -5.3153  -18.1609 O   0  0  0  0  0  0  0  0  0  0  0  0
  2  1  1  1
  3  4  1  0
  3  2  1  0
  4  5  2  0
  4  8  1  0
  5  6  1  0
  6  7  1  0
  8  7  2  0
  9 11  1  0
  9  2  1  0
 10  9  2  0
 12 11  1  0
 13 14  1  0
 12 13  1  6
 14 15  2  0
 16 17  2  0
 16 12  1  0
 18 14  1  0
 19 20  1  0
 20 22  1  0
 21 20  2  0
 23 22  1  0
 24 25  1  0
 24 23  1  1
 25 16  1  0
 26 24  1  0
 27 26  2  0
 28 26  1  0
M  END
$$$$
