HDQ.pdb
     RDKit          3D

 28 28  0  0  1  0  0  0  0  0999 V2000
   20.5853  -21.0699  -12.8465 N   0  0  0  0  0  0  0  0  0  0  0  0
   21.6640  -21.5969  -13.6805 C   0  0  1  0  0  0  0  0  0  0  0  0
   21.1801  -21.5000  -15.1098 C   0  0  0  0  0  0  0  0  0  0  0  0
   20.0587  -22.4798  -15.3210 C   0  0  0  0  0  0  0  0  0  0  0  0
   20.1495  -23.8641  -15.1867 C   0  0  0  0  0  0  0  0  0  0  0  0
   18.9316  -24.3655  -15.4583 N   0  0  0  0  0  0  0  0  0  0  0  0
   18.0847  -23.3477  -15.7569 C   0  0  0  0  0  0  0  0  0  0  0  0
   18.7921  -22.2312  -15.6653 N   0  0  0  0  0  0  0  0  0  0  0  0
   22.8885  -20.8025  -13.4559 C   0  0  0  0  0  0  0  0  0  0  0  0
   22.9562  -19.5535  -13.6789 O   0  0  0  0  0  0  0  0  0  0  0  0
   24.0752  -21.4110  -12.9677 N   0  0  0  0  0  0  0  0  0  0  0  0
   25.3546  -20.7561  -12.9558 C   0  0  1  0  0  0  0  0  0  0  0  0
   26.2424  -21.3112  -11.8630 C   0  0  0  0  0  0  0  0  0  0  0  0
   25.6288  -21.2491  -10.5184 C   0  0  0  0  0  0  0  0  0  0  0  0
   24.5647  -20.6107  -10.3510 O   0  0  0  0  0  0  0  0  0  0  0  0
   26.0100  -20.7017  -14.2586 C   0  0  0  0  0  0  0  0  0  0  0  0
   26.1840  -21.7923  -14.8682 O   0  0  0  0  0  0  0  0  0  0  0  0
   26.1819  -21.8726   -9.4125 O   0  0  0  0  0  0  0  0  0  0  0  0
   23.1472  -18.9739  -17.0492 N   0  0  0  0  0  0  0  0  0  0  0  0
   24.0059  -17.8740  -17.3043 C   0  0  0  0  0  0  0  0  0  0  0  0
   23.4645  -16.7324  -17.4117 O   0  0  0  0  0  0  0  0  0  0  0  0
   25.4672  -17.9666  -17.4446 C   0  0  0  0  0  0  0  0  0  0  0  0
   26.0664  -19.3086  -17.2776 C   0  0  0  0  0  0  0  0  0  0  0  0
   27.0906  -19.5159  -16.2383 C   0  0  2  0  0  0  0  0  0  0  0  0
   26.4675  -19.5357  -14.8970 N   0  0  0  0  0  0  0  0  0  0  0  0
   28.2784  -18.6957  -16.2719 C   0  0  0  0  0  0  0  0  0  0  0  0
   28.5754  -17.8454  -15.4007 O   0  0  0  0  0  0  0  0  0  0  0  0
   29.2085  -18.8114  -17.3309 O   0  0  0  0  0  0  0  0  0  0  0  0
  2  1  1  1
  3  4  1  0
  3  2  1  0
  4  5  2  0
  4  8  1  0
  5  6  1  0
  6  7  1  0
  8  7  2  0
  9 11  1  0
  9  2  1  0
 10  9  2  0
 12 11  1  0
 13 14  1  0
 12 13  1  1
 14 15  2  0
 16 17  2  0
 16 12  1  0
 18 14  1  0
 19 20  1  0
 20 22  1  0
 21 20  2  0
 23 22  1  0
 24 25  1  0
 24 23  1  6
 25 16  1  0
 26 24  1  0
 27 26  2  0
 28 26  1  0
M  END
$$$$
