HDQ.pdb
     RDKit          3D

 28 28  0  0  1  0  0  0  0  0999 V2000
   17.1794  -11.5426  -14.5342 N   0  0  0  0  0  0  0  0  0  0  0  0
   16.5082  -10.6846  -15.5091 C   0  0  1  0  0  0  0  0  0  0  0  0
   15.0274  -10.7981  -15.2243 C   0  0  0  0  0  0  0  0  0  0  0  0
   14.6026  -12.2331  -15.3736 C   0  0  0  0  0  0  0  0  0  0  0  0
   14.0861  -13.0399  -14.3612 C   0  0  0  0  0  0  0  0  0  0  0  0
   13.8339  -14.2424  -14.9080 N   0  0  0  0  0  0  0  0  0  0  0  0
   14.1732  -14.2169  -16.2219 C   0  0  0  0  0  0  0  0  0  0  0  0
   14.6303  -12.9982  -16.4684 N   0  0  0  0  0  0  0  0  0  0  0  0
   16.9959   -9.2988  -15.3586 C   0  0  0  0  0  0  0  0  0  0  0  0
   17.0760   -8.7093  -14.2359 O   0  0  0  0  0  0  0  0  0  0  0  0
   17.4091   -8.5428  -16.4875 N   0  0  0  0  0  0  0  0  0  0  0  0
   17.8684   -7.1832  -16.4059 C   0  0  1  0  0  0  0  0  0  0  0  0
   19.1246   -6.9809  -17.2253 C   0  0  0  0  0  0  0  0  0  0  0  0
   19.6666   -5.6071  -17.1414 C   0  0  0  0  0  0  0  0  0  0  0  0
   20.2648   -5.2384  -16.1049 O   0  0  0  0  0  0  0  0  0  0  0  0
   16.8370   -6.1870  -16.6770 C   0  0  0  0  0  0  0  0  0  0  0  0
   16.1941   -6.2943  -17.7569 O   0  0  0  0  0  0  0  0  0  0  0  0
   19.5439   -4.6886  -18.1705 O   0  0  0  0  0  0  0  0  0  0  0  0
   14.1761   -5.7252  -12.8179 N   0  0  0  0  0  0  0  0  0  0  0  0
   13.2803   -5.7961  -13.9155 C   0  0  0  0  0  0  0  0  0  0  0  0
   12.3103   -6.6070  -13.8170 O   0  0  0  0  0  0  0  0  0  0  0  0
   13.3956   -4.9960  -15.1444 C   0  0  0  0  0  0  0  0  0  0  0  0
   14.4621   -3.9714  -15.1718 C   0  0  0  0  0  0  0  0  0  0  0  0
   15.5199   -4.0597  -16.1941 C   0  0  2  0  0  0  0  0  0  0  0  0
   16.4954   -5.1125  -15.8370 N   0  0  0  0  0  0  0  0  0  0  0  0
   16.1685   -2.8413  -16.6177 C   0  0  0  0  0  0  0  0  0  0  0  0
   15.5622   -1.8153  -17.0049 O   0  0  0  0  0  0  0  0  0  0  0  0
   17.5786   -2.7341  -16.6186 O   0  0  0  0  0  0  0  0  0  0  0  0
  2  1  1  1
  3  4  1  0
  3  2  1  0
  4  5  2  0
  4  8  1  0
  5  6  1  0
  6  7  1  0
  8  7  2  0
  9 11  1  0
  9  2  1  0
 10  9  2  0
 12 11  1  0
 13 14  1  0
 12 13  1  6
 14 15  2  0
 16 17  2  0
 16 12  1  0
 18 14  1  0
 19 20  1  0
 20 22  1  0
 21 20  2  0
 23 22  1  0
 24 25  1  0
 24 23  1  1
 25 16  1  0
 26 24  1  0
 27 26  2  0
 28 26  1  0
M  END
$$$$
