HDQ.pdb
     RDKit          3D

 28 28  0  0  1  0  0  0  0  0999 V2000
   20.9467  -31.5157   -9.1568 N   0  0  0  0  0  0  0  0  0  0  0  0
   20.5495  -32.7639   -8.5077 C   0  0  1  0  0  0  0  0  0  0  0  0
   19.9556  -33.6346   -9.5920 C   0  0  0  0  0  0  0  0  0  0  0  0
   18.6085  -33.0911   -9.9820 C   0  0  0  0  0  0  0  0  0  0  0  0
   17.9308  -32.0553   -9.3414 C   0  0  0  0  0  0  0  0  0  0  0  0
   16.7719  -31.8781  -10.0002 N   0  0  0  0  0  0  0  0  0  0  0  0
   16.7005  -32.7632  -11.0267 C   0  0  0  0  0  0  0  0  0  0  0  0
   17.8171  -33.4750  -10.9875 N   0  0  0  0  0  0  0  0  0  0  0  0
   21.7329  -33.3883   -7.8829 C   0  0  0  0  0  0  0  0  0  0  0  0
   21.7783  -34.6147   -7.5541 O   0  0  0  0  0  0  0  0  0  0  0  0
   22.9035  -32.6301   -7.6150 N   0  0  0  0  0  0  0  0  0  0  0  0
   24.0801  -33.1799   -6.9990 C   0  0  1  0  0  0  0  0  0  0  0  0
   25.3179  -32.4059   -7.3980 C   0  0  0  0  0  0  0  0  0  0  0  0
   25.7359  -32.6452   -8.7966 C   0  0  0  0  0  0  0  0  0  0  0  0
   25.4137  -33.7128   -9.3664 O   0  0  0  0  0  0  0  0  0  0  0  0
   23.9633  -33.3769   -5.5577 C   0  0  0  0  0  0  0  0  0  0  0  0
   23.4002  -32.4668   -4.8900 O   0  0  0  0  0  0  0  0  0  0  0  0
   26.4808  -31.7315   -9.5233 O   0  0  0  0  0  0  0  0  0  0  0  0
   22.1887  -38.0875   -0.2104 N   0  0  0  0  0  0  0  0  0  0  0  0
   22.4787  -37.5290   -1.4816 C   0  0  0  0  0  0  0  0  0  0  0  0
   22.0479  -38.1533   -2.4979 O   0  0  0  0  0  0  0  0  0  0  0  0
   23.2320  -36.2842   -1.6980 C   0  0  0  0  0  0  0  0  0  0  0  0
   23.5393  -35.9295   -3.1007 C   0  0  0  0  0  0  0  0  0  0  0  0
   24.2594  -34.6755   -3.3855 C   0  0  2  0  0  0  0  0  0  0  0  0
   24.4259  -34.4964   -4.8441 N   0  0  0  0  0  0  0  0  0  0  0  0
   25.4805  -34.4062   -2.6636 C   0  0  0  0  0  0  0  0  0  0  0  0
   26.6279  -34.4848   -3.1610 O   0  0  0  0  0  0  0  0  0  0  0  0
   25.4476  -34.0235   -1.3025 O   0  0  0  0  0  0  0  0  0  0  0  0
  2  1  1  6
  3  4  1  0
  3  2  1  0
  4  5  2  0
  4  8  1  0
  5  6  1  0
  6  7  1  0
  8  7  2  0
  9 11  1  0
  9  2  1  0
 10  9  2  0
 12 11  1  0
 13 14  1  0
 12 13  1  1
 14 15  2  0
 16 17  2  0
 16 12  1  0
 18 14  1  0
 19 20  1  0
 20 22  1  0
 21 20  2  0
 23 22  1  0
 24 25  1  0
 24 23  1  6
 25 16  1  0
 26 24  1  0
 27 26  2  0
 28 26  1  0
M  END
$$$$
