HDQ.pdb
     RDKit          3D

 28 28  0  0  1  0  0  0  0  0999 V2000
   17.9638  -12.5054  -18.0746 N   0  0  0  0  0  0  0  0  0  0  0  0
   19.2554  -12.3580  -17.4059 C   0  0  1  0  0  0  0  0  0  0  0  0
   20.1350  -13.4685  -17.9346 C   0  0  0  0  0  0  0  0  0  0  0  0
   19.5593  -14.7956  -17.5228 C   0  0  0  0  0  0  0  0  0  0  0  0
   19.9222  -15.5263  -16.3928 C   0  0  0  0  0  0  0  0  0  0  0  0
   19.1739  -16.6436  -16.3911 N   0  0  0  0  0  0  0  0  0  0  0  0
   18.3585  -16.6382  -17.4761 C   0  0  0  0  0  0  0  0  0  0  0  0
   18.6148  -15.5167  -18.1331 N   0  0  0  0  0  0  0  0  0  0  0  0
   19.8109  -11.0225  -17.7042 C   0  0  0  0  0  0  0  0  0  0  0  0
   20.9675  -10.6527  -17.3304 O   0  0  0  0  0  0  0  0  0  0  0  0
   19.0617  -10.0673  -18.4410 N   0  0  0  0  0  0  0  0  0  0  0  0
   19.4980   -8.7152  -18.6592 C   0  0  1  0  0  0  0  0  0  0  0  0
   18.9789   -8.1795  -19.9760 C   0  0  0  0  0  0  0  0  0  0  0  0
   19.3913   -6.7850  -20.2473 C   0  0  0  0  0  0  0  0  0  0  0  0
   20.1397   -6.1908  -19.4380 O   0  0  0  0  0  0  0  0  0  0  0  0
   19.2503   -7.8187  -17.5346 C   0  0  0  0  0  0  0  0  0  0  0  0
   18.0602   -7.7054  -17.1322 O   0  0  0  0  0  0  0  0  0  0  0  0
   18.9838   -6.0881  -21.3725 O   0  0  0  0  0  0  0  0  0  0  0  0
   19.0261   -8.6292  -12.1725 N   0  0  0  0  0  0  0  0  0  0  0  0
   20.3568   -8.4183  -12.6162 C   0  0  0  0  0  0  0  0  0  0  0  0
   21.2805   -8.9900  -11.9620 O   0  0  0  0  0  0  0  0  0  0  0  0
   20.7330   -7.5952  -13.7758 C   0  0  0  0  0  0  0  0  0  0  0  0
   19.6293   -6.9394  -14.5105 C   0  0  0  0  0  0  0  0  0  0  0  0
   19.9342   -6.1611  -15.7243 C   0  0  2  0  0  0  0  0  0  0  0  0
   20.2256   -7.0660  -16.8573 N   0  0  0  0  0  0  0  0  0  0  0  0
   20.8944   -5.0871  -15.6277 C   0  0  0  0  0  0  0  0  0  0  0  0
   20.8402   -4.1641  -14.7819 O   0  0  0  0  0  0  0  0  0  0  0  0
   21.9920   -5.0151  -16.5165 O   0  0  0  0  0  0  0  0  0  0  0  0
  2  1  1  6
  3  4  1  0
  3  2  1  0
  4  5  2  0
  4  8  1  0
  5  6  1  0
  6  7  1  0
  8  7  2  0
  9 11  1  0
  9  2  1  0
 10  9  2  0
 12 11  1  0
 13 14  1  0
 12 13  1  6
 14 15  2  0
 16 17  2  0
 16 12  1  0
 18 14  1  0
 19 20  1  0
 20 22  1  0
 21 20  2  0
 23 22  1  0
 24 25  1  0
 24 23  1  1
 25 16  1  0
 26 24  1  0
 27 26  2  0
 28 26  1  0
M  END
$$$$
