HDQ.pdb
     RDKit          3D

 28 28  0  0  1  0  0  0  0  0999 V2000
   15.8054  -10.2800   -9.5931 N   0  0  0  0  0  0  0  0  0  0  0  0
   15.4246   -9.1589  -10.4507 C   0  0  1  0  0  0  0  0  0  0  0  0
   14.4834   -8.3020   -9.6344 C   0  0  0  0  0  0  0  0  0  0  0  0
   13.2438   -9.0922   -9.3161 C   0  0  0  0  0  0  0  0  0  0  0  0
   12.7643   -9.3773   -8.0390 C   0  0  0  0  0  0  0  0  0  0  0  0
   11.6399  -10.0986   -8.1939 N   0  0  0  0  0  0  0  0  0  0  0  0
   11.3996  -10.2744   -9.5181 C   0  0  0  0  0  0  0  0  0  0  0  0
   12.3796   -9.6588  -10.1628 N   0  0  0  0  0  0  0  0  0  0  0  0
   16.6369   -8.4187  -10.8549 C   0  0  0  0  0  0  0  0  0  0  0  0
   17.5512   -8.0854  -10.0380 O   0  0  0  0  0  0  0  0  0  0  0  0
   16.8431   -8.0367  -12.2070 N   0  0  0  0  0  0  0  0  0  0  0  0
   17.9255   -7.1939  -12.6362 C   0  0  1  0  0  0  0  0  0  0  0  0
   18.5873   -7.7458  -13.8803 C   0  0  0  0  0  0  0  0  0  0  0  0
   19.7225   -6.9252  -14.3559 C   0  0  0  0  0  0  0  0  0  0  0  0
   20.5001   -6.4014  -13.5258 O   0  0  0  0  0  0  0  0  0  0  0  0
   17.5748   -5.7817  -12.7483 C   0  0  0  0  0  0  0  0  0  0  0  0
   16.6737   -5.4699  -13.5742 O   0  0  0  0  0  0  0  0  0  0  0  0
   19.9749   -6.7013  -15.6990 O   0  0  0  0  0  0  0  0  0  0  0  0
   17.7068   -1.4277   -8.1112 N   0  0  0  0  0  0  0  0  0  0  0  0
   17.3259   -0.7171   -9.2783 C   0  0  0  0  0  0  0  0  0  0  0  0
   16.9585    0.4870   -9.1264 O   0  0  0  0  0  0  0  0  0  0  0  0
   17.3346   -1.2750  -10.6393 C   0  0  0  0  0  0  0  0  0  0  0  0
   17.7244   -2.6957  -10.7720 C   0  0  0  0  0  0  0  0  0  0  0  0
   17.7271   -3.3204  -12.1068 C   0  0  2  0  0  0  0  0  0  0  0  0
   18.1558   -4.7329  -12.0141 N   0  0  0  0  0  0  0  0  0  0  0  0
   18.3834   -2.6249  -13.1886 C   0  0  0  0  0  0  0  0  0  0  0  0
   19.5445   -2.8742  -13.5883 O   0  0  0  0  0  0  0  0  0  0  0  0
   17.7261   -1.5837  -13.8843 O   0  0  0  0  0  0  0  0  0  0  0  0
  2  1  1  1
  3  4  1  0
  3  2  1  0
  4  5  2  0
  4  8  1  0
  5  6  1  0
  6  7  1  0
  8  7  2  0
  9 11  1  0
  9  2  1  0
 10  9  2  0
 12 11  1  0
 13 14  1  0
 12 13  1  6
 14 15  2  0
 16 17  2  0
 16 12  1  0
 18 14  1  0
 19 20  1  0
 20 22  1  0
 21 20  2  0
 23 22  1  0
 24 25  1  0
 24 23  1  1
 25 16  1  0
 26 24  1  0
 27 26  2  0
 28 26  1  0
M  END
$$$$
