WAD.pdb
     RDKit          3D

 28 29  0  0  1  0  0  0  0  0999 V2000
   16.1667  -14.2566    7.9188 N   0  0  0  0  0  0  0  0  0  0  0  0
   16.8764  -15.3606    7.3003 C   0  0  1  0  0  0  0  0  0  0  0  0
   18.3348  -15.0498    7.2475 C   0  0  0  0  0  0  0  0  0  0  0  0
   18.7033  -14.0667    6.2026 C   0  0  0  0  0  0  0  0  0  0  0  0
   19.1514  -12.7761    6.3556 C   0  0  0  0  0  0  0  0  0  0  0  0
   19.3511  -12.2009    5.1526 N   0  0  0  0  0  0  0  0  0  0  0  0
   19.0378  -13.1046    4.1840 C   0  0  0  0  0  0  0  0  0  0  0  0
   19.0763  -12.9920    2.8098 C   0  0  0  0  0  0  0  0  0  0  0  0
   18.7016  -14.0705    2.0440 C   0  0  0  0  0  0  0  0  0  0  0  0
   18.2942  -15.2452    2.6463 C   0  0  0  0  0  0  0  0  0  0  0  0
   18.2737  -15.3085    4.0179 C   0  0  0  0  0  0  0  0  0  0  0  0
   18.6385  -14.2556    4.8400 C   0  0  0  0  0  0  0  0  0  0  0  0
   16.4749  -16.6042    7.9313 C   0  0  0  0  0  0  0  0  0  0  0  0
   16.6632  -16.8162    9.1564 O   0  0  0  0  0  0  0  0  0  0  0  0
   14.3825  -19.5547    7.1144 C   0  0  0  0  0  0  0  0  0  0  0  0
   15.6035  -18.9714    7.8734 C   0  0  2  0  0  0  0  0  0  0  0  0
   15.8345  -17.6940    7.2420 N   0  0  0  0  0  0  0  0  0  0  0  0
   16.6753  -19.9720    7.6401 C   0  0  0  0  0  0  0  0  0  0  0  0
   17.4144  -19.7586    6.6451 O   0  0  0  0  0  0  0  0  0  0  0  0
   16.9197  -21.1104    8.4329 N   0  0  0  0  0  0  0  0  0  0  0  0
   17.9398  -22.0905    8.2632 C   0  0  1  0  0  0  0  0  0  0  0  0
   18.1694  -22.9968    9.4643 C   0  0  0  0  0  0  0  0  0  0  0  0
   19.3163  -23.8907    9.3064 C   0  0  0  0  0  0  0  0  0  0  0  0
   20.1076  -23.8745    8.3480 O   0  0  0  0  0  0  0  0  0  0  0  0
   17.8283  -22.9326    7.0641 C   0  0  0  0  0  0  0  0  0  0  0  0
   18.9077  -23.3085    6.2908 O   0  0  0  0  0  0  0  0  0  0  0  0
   19.5617  -24.8535   10.3060 O   0  0  0  0  0  0  0  0  0  0  0  0
   16.7030  -23.3433    6.7052 O   0  0  0  0  0  0  0  0  0  0  0  0
  2  3  1  0
  2  1  1  1
  3  4  1  0
  4 12  1  0
  5  6  1  0
  5  4  2  0
  6  7  1  0
  7 12  2  0
  7  8  1  0
  8  9  2  0
  9 10  1  0
 11 10  2  0
 12 11  1  0
 13  2  1  0
 13 14  2  0
 16 15  1  6
 16 18  1  0
 16 17  1  0
 17 13  1  0
 18 19  2  0
 20 18  1  0
 20 21  1  0
 21 22  1  1
 22 23  1  0
 23 24  2  0
 25 21  1  0
 26 25  1  0
 27 23  1  0
 28 25  2  0
M  END
$$$$
