WAD.pdb
     RDKit          3D

 28 29  0  0  1  0  0  0  0  0999 V2000
   28.2944  -21.5745  -10.2151 N   0  0  0  0  0  0  0  0  0  0  0  0
   26.8754  -21.5863   -9.9134 C   0  0  1  0  0  0  0  0  0  0  0  0
   26.6512  -21.0372   -8.5441 C   0  0  0  0  0  0  0  0  0  0  0  0
   27.8907  -20.6017   -7.8600 C   0  0  0  0  0  0  0  0  0  0  0  0
   29.1456  -20.4156   -8.3896 C   0  0  0  0  0  0  0  0  0  0  0  0
   30.0121  -20.0397   -7.4275 N   0  0  0  0  0  0  0  0  0  0  0  0
   29.3418  -19.9712   -6.2447 C   0  0  0  0  0  0  0  0  0  0  0  0
   29.7867  -19.6359   -4.9828 C   0  0  0  0  0  0  0  0  0  0  0  0
   28.8923  -19.6448   -3.9388 C   0  0  0  0  0  0  0  0  0  0  0  0
   27.5709  -19.9846   -4.1558 C   0  0  0  0  0  0  0  0  0  0  0  0
   27.1761  -20.3100   -5.4302 C   0  0  0  0  0  0  0  0  0  0  0  0
   28.0312  -20.3195   -6.5193 C   0  0  0  0  0  0  0  0  0  0  0  0
   26.1453  -20.9789  -11.0107 C   0  0  0  0  0  0  0  0  0  0  0  0
   26.3460  -19.7880  -11.3608 O   0  0  0  0  0  0  0  0  0  0  0  0
   24.4460  -22.1565  -13.9955 C   0  0  0  0  0  0  0  0  0  0  0  0
   24.5048  -21.0331  -12.9270 C   0  0  2  0  0  0  0  0  0  0  0  0
   25.1451  -21.6570  -11.7936 N   0  0  0  0  0  0  0  0  0  0  0  0
   23.0796  -20.6801  -12.7069 C   0  0  0  0  0  0  0  0  0  0  0  0
   22.4726  -21.3697  -11.8479 O   0  0  0  0  0  0  0  0  0  0  0  0
   22.3779  -19.6545  -13.3702 N   0  0  0  0  0  0  0  0  0  0  0  0
   20.9885  -19.3505  -13.2855 C   0  0  1  0  0  0  0  0  0  0  0  0
   20.5253  -18.1999  -14.1678 C   0  0  0  0  0  0  0  0  0  0  0  0
   19.1181  -17.8507  -13.9752 C   0  0  0  0  0  0  0  0  0  0  0  0
   18.1552  -18.4811  -14.4446 O   0  0  0  0  0  0  0  0  0  0  0  0
   20.0706  -20.4811  -13.4817 C   0  0  0  0  0  0  0  0  0  0  0  0
   19.0072  -20.7564  -12.6463 O   0  0  0  0  0  0  0  0  0  0  0  0
   18.8065  -16.7145  -13.2015 O   0  0  0  0  0  0  0  0  0  0  0  0
   20.2428  -21.2499  -14.4528 O   0  0  0  0  0  0  0  0  0  0  0  0
  2  3  1  0
  2  1  1  6
  3  4  1  0
  4 12  1  0
  5  6  1  0
  5  4  2  0
  6  7  1  0
  7 12  2  0
  7  8  1  0
  8  9  2  0
  9 10  1  0
 11 10  2  0
 12 11  1  0
 13  2  1  0
 13 14  2  0
 16 15  1  6
 16 18  1  0
 16 17  1  0
 17 13  1  0
 18 19  2  0
 20 18  1  0
 20 21  1  0
 21 22  1  6
 22 23  1  0
 23 24  2  0
 25 21  1  0
 26 25  1  0
 27 23  1  0
 28 25  2  0
M  END
$$$$
