WAD.pdb
     RDKit          3D

 28 29  0  0  1  0  0  0  0  0999 V2000
   28.0873  -20.4794   -9.8829 N   0  0  0  0  0  0  0  0  0  0  0  0
   26.8068  -21.1576   -9.8115 C   0  0  1  0  0  0  0  0  0  0  0  0
   26.1331  -20.8187   -8.5239 C   0  0  0  0  0  0  0  0  0  0  0  0
   26.9149  -19.9066   -7.6574 C   0  0  0  0  0  0  0  0  0  0  0  0
   27.1877  -18.5714   -7.8386 C   0  0  0  0  0  0  0  0  0  0  0  0
   27.9580  -18.1073   -6.8341 N   0  0  0  0  0  0  0  0  0  0  0  0
   28.2066  -19.1306   -5.9717 C   0  0  0  0  0  0  0  0  0  0  0  0
   28.9391  -19.1574   -4.8032 C   0  0  0  0  0  0  0  0  0  0  0  0
   29.0372  -20.3390   -4.1073 C   0  0  0  0  0  0  0  0  0  0  0  0
   28.4101  -21.4776   -4.5752 C   0  0  0  0  0  0  0  0  0  0  0  0
   27.6916  -21.4003   -5.7430 C   0  0  0  0  0  0  0  0  0  0  0  0
   27.5587  -20.2396   -6.4864 C   0  0  0  0  0  0  0  0  0  0  0  0
   26.0697  -20.9238  -11.0395 C   0  0  0  0  0  0  0  0  0  0  0  0
   25.7624  -19.7644  -11.4170 O   0  0  0  0  0  0  0  0  0  0  0  0
   24.8519  -23.0348  -13.8904 C   0  0  0  0  0  0  0  0  0  0  0  0
   24.8902  -21.6782  -13.1386 C   0  0  2  0  0  0  0  0  0  0  0  0
   25.6276  -21.9644  -11.9310 N   0  0  0  0  0  0  0  0  0  0  0  0
   23.4577  -21.3555  -12.9189 C   0  0  0  0  0  0  0  0  0  0  0  0
   22.9567  -21.7938  -11.8517 O   0  0  0  0  0  0  0  0  0  0  0  0
   22.6422  -20.6115  -13.7939 N   0  0  0  0  0  0  0  0  0  0  0  0
   21.2605  -20.2973  -13.6451 C   0  0  1  0  0  0  0  0  0  0  0  0
   20.7148  -19.2960  -14.6533 C   0  0  0  0  0  0  0  0  0  0  0  0
   21.2411  -17.9435  -14.4715 C   0  0  0  0  0  0  0  0  0  0  0  0
   21.9778  -17.5835  -13.5373 O   0  0  0  0  0  0  0  0  0  0  0  0
   20.3432  -21.4440  -13.5906 C   0  0  0  0  0  0  0  0  0  0  0  0
   19.2817  -21.5329  -12.7132 O   0  0  0  0  0  0  0  0  0  0  0  0
   20.8985  -16.9555  -15.4164 O   0  0  0  0  0  0  0  0  0  0  0  0
   20.5142  -22.4043  -14.3732 O   0  0  0  0  0  0  0  0  0  0  0  0
  2  3  1  0
  2  1  1  6
  3  4  1  0
  4 12  1  0
  5  6  1  0
  5  4  2  0
  6  7  1  0
  7 12  2  0
  7  8  1  0
  8  9  2  0
  9 10  1  0
 11 10  2  0
 12 11  1  0
 13  2  1  0
 13 14  2  0
 16 15  1  6
 16 18  1  0
 16 17  1  0
 17 13  1  0
 18 19  2  0
 20 18  1  0
 20 21  1  0
 21 22  1  6
 22 23  1  0
 23 24  2  0
 25 21  1  0
 26 25  1  0
 27 23  1  0
 28 25  2  0
M  END
$$$$
