WAD.pdb
     RDKit          3D

 28 29  0  0  1  0  0  0  0  0999 V2000
   23.5495  -20.4951  -14.2667 N   0  0  0  0  0  0  0  0  0  0  0  0
   22.2768  -20.0304  -13.7479 C   0  0  1  0  0  0  0  0  0  0  0  0
   21.2488  -20.0806  -14.8282 C   0  0  0  0  0  0  0  0  0  0  0  0
   21.3116  -18.9410  -15.7724 C   0  0  0  0  0  0  0  0  0  0  0  0
   21.8962  -18.8850  -17.0154 C   0  0  0  0  0  0  0  0  0  0  0  0
   21.7586  -17.6532  -17.5458 N   0  0  0  0  0  0  0  0  0  0  0  0
   21.0793  -16.8744  -16.6598 C   0  0  0  0  0  0  0  0  0  0  0  0
   20.6961  -15.5519  -16.7421 C   0  0  0  0  0  0  0  0  0  0  0  0
   20.0081  -14.9927  -15.6914 C   0  0  0  0  0  0  0  0  0  0  0  0
   19.7079  -15.7479  -14.5742 C   0  0  0  0  0  0  0  0  0  0  0  0
   20.1101  -17.0605  -14.5397 C   0  0  0  0  0  0  0  0  0  0  0  0
   20.8058  -17.6767  -15.5662 C   0  0  0  0  0  0  0  0  0  0  0  0
   21.9830  -20.7205  -12.5056 C   0  0  0  0  0  0  0  0  0  0  0  0
   22.0962  -21.9682  -12.3983 O   0  0  0  0  0  0  0  0  0  0  0  0
   21.0330  -19.7183   -9.0181 C   0  0  0  0  0  0  0  0  0  0  0  0
   21.1949  -20.8084  -10.1103 C   0  0  2  0  0  0  0  0  0  0  0  0
   21.5462  -20.0681  -11.2987 N   0  0  0  0  0  0  0  0  0  0  0  0
   19.8595  -21.4550  -10.1646 C   0  0  0  0  0  0  0  0  0  0  0  0
   19.1170  -21.0959  -11.1141 O   0  0  0  0  0  0  0  0  0  0  0  0
   19.3782  -22.4179   -9.2561 N   0  0  0  0  0  0  0  0  0  0  0  0
   18.1170  -23.0806   -9.2722 C   0  0  1  0  0  0  0  0  0  0  0  0
   17.8449  -23.9781   -8.0733 C   0  0  0  0  0  0  0  0  0  0  0  0
   18.9210  -24.9320   -7.8060 C   0  0  0  0  0  0  0  0  0  0  0  0
   19.8622  -25.1817   -8.5786 O   0  0  0  0  0  0  0  0  0  0  0  0
   16.9430  -22.2221   -9.4820 C   0  0  0  0  0  0  0  0  0  0  0  0
   15.8686  -22.5760  -10.2724 O   0  0  0  0  0  0  0  0  0  0  0  0
   18.9094  -25.6345   -6.5842 O   0  0  0  0  0  0  0  0  0  0  0  0
   16.8925  -21.1043   -8.9234 O   0  0  0  0  0  0  0  0  0  0  0  0
  2  3  1  0
  2  1  1  6
  3  4  1  0
  4 12  1  0
  5  6  1  0
  5  4  2  0
  6  7  1  0
  7 12  2  0
  7  8  1  0
  8  9  2  0
  9 10  1  0
 11 10  2  0
 12 11  1  0
 13  2  1  0
 13 14  2  0
 16 15  1  1
 16 18  1  0
 16 17  1  0
 17 13  1  0
 18 19  2  0
 20 18  1  0
 20 21  1  0
 21 22  1  1
 22 23  1  0
 23 24  2  0
 25 21  1  0
 26 25  1  0
 27 23  1  0
 28 25  2  0
M  END
$$$$
