WAD.pdb
     RDKit          3D

 28 29  0  0  1  0  0  0  0  0999 V2000
   26.6091  -18.6872   -9.1625 N   0  0  0  0  0  0  0  0  0  0  0  0
   26.3489  -19.9580   -9.8123 C   0  0  1  0  0  0  0  0  0  0  0  0
   26.3370  -21.0473   -8.7926 C   0  0  0  0  0  0  0  0  0  0  0  0
   26.4373  -20.5651   -7.3956 C   0  0  0  0  0  0  0  0  0  0  0  0
   25.4309  -20.1611   -6.5507 C   0  0  0  0  0  0  0  0  0  0  0  0
   25.9399  -19.7671   -5.3661 N   0  0  0  0  0  0  0  0  0  0  0  0
   27.2934  -19.9050   -5.4097 C   0  0  0  0  0  0  0  0  0  0  0  0
   28.2511  -19.6356   -4.4543 C   0  0  0  0  0  0  0  0  0  0  0  0
   29.5728  -19.8654   -4.7549 C   0  0  0  0  0  0  0  0  0  0  0  0
   29.9301  -20.3584   -5.9950 C   0  0  0  0  0  0  0  0  0  0  0  0
   28.9401  -20.6117   -6.9124 C   0  0  0  0  0  0  0  0  0  0  0  0
   27.5940  -20.3990   -6.6668 C   0  0  0  0  0  0  0  0  0  0  0  0
   25.1883  -19.8288  -10.6738 C   0  0  0  0  0  0  0  0  0  0  0  0
   24.0170  -19.8858  -10.2200 O   0  0  0  0  0  0  0  0  0  0  0  0
   24.6087  -19.2201  -14.3354 C   0  0  0  0  0  0  0  0  0  0  0  0
   24.0666  -19.5184  -12.9125 C   0  0  2  0  0  0  0  0  0  0  0  0
   25.2534  -19.6249  -12.0976 N   0  0  0  0  0  0  0  0  0  0  0  0
   23.3217  -20.7920  -13.0782 C   0  0  0  0  0  0  0  0  0  0  0  0
   24.0196  -21.8384  -13.0655 O   0  0  0  0  0  0  0  0  0  0  0  0
   21.9276  -20.9103  -13.2409 N   0  0  0  0  0  0  0  0  0  0  0  0
   21.1737  -22.0949  -13.4824 C   0  0  1  0  0  0  0  0  0  0  0  0
   19.8535  -22.1837  -12.7299 C   0  0  0  0  0  0  0  0  0  0  0  0
   19.1783  -23.4709  -12.8921 C   0  0  0  0  0  0  0  0  0  0  0  0
   19.5837  -24.4053  -13.6046 O   0  0  0  0  0  0  0  0  0  0  0  0
   20.9236  -22.4206  -14.8934 C   0  0  0  0  0  0  0  0  0  0  0  0
   20.9897  -23.7002  -15.4060 O   0  0  0  0  0  0  0  0  0  0  0  0
   17.9723  -23.6905  -12.1964 O   0  0  0  0  0  0  0  0  0  0  0  0
   20.6329  -21.5037  -15.6926 O   0  0  0  0  0  0  0  0  0  0  0  0
  2  3  1  0
  2  1  1  1
  3  4  1  0
  4 12  1  0
  5  6  1  0
  5  4  2  0
  6  7  1  0
  7 12  2  0
  7  8  1  0
  8  9  2  0
  9 10  1  0
 11 10  2  0
 12 11  1  0
 13  2  1  0
 13 14  2  0
 16 15  1  6
 16 18  1  0
 16 17  1  0
 17 13  1  0
 18 19  2  0
 20 18  1  0
 20 21  1  0
 21 22  1  1
 22 23  1  0
 23 24  2  0
 25 21  1  0
 26 25  1  0
 27 23  1  0
 28 25  2  0
M  END
$$$$
