WAD.pdb
     RDKit          3D

 28 29  0  0  1  0  0  0  0  0999 V2000
   27.6238  -20.2847  -15.8542 N   0  0  0  0  0  0  0  0  0  0  0  0
   26.3875  -20.5504  -16.5654 C   0  0  1  0  0  0  0  0  0  0  0  0
   26.3039  -22.0030  -16.8964 C   0  0  0  0  0  0  0  0  0  0  0  0
   27.4788  -22.5205  -17.6353 C   0  0  0  0  0  0  0  0  0  0  0  0
   28.3628  -23.5056  -17.2641 C   0  0  0  0  0  0  0  0  0  0  0  0
   29.3147  -23.6638  -18.2057 N   0  0  0  0  0  0  0  0  0  0  0  0
   29.0739  -22.7839  -19.2160 C   0  0  0  0  0  0  0  0  0  0  0  0
   29.7603  -22.5626  -20.3918 C   0  0  0  0  0  0  0  0  0  0  0  0
   29.3018  -21.5981  -21.2575 C   0  0  0  0  0  0  0  0  0  0  0  0
   28.1715  -20.8657  -20.9498 C   0  0  0  0  0  0  0  0  0  0  0  0
   27.5222  -21.1235  -19.7675 C   0  0  0  0  0  0  0  0  0  0  0  0
   27.9375  -22.0807  -18.8572 C   0  0  0  0  0  0  0  0  0  0  0  0
   25.2784  -19.9600  -15.8392 C   0  0  0  0  0  0  0  0  0  0  0  0
   25.1889  -20.0400  -14.5875 O   0  0  0  0  0  0  0  0  0  0  0  0
   22.4105  -17.7081  -16.6926 C   0  0  0  0  0  0  0  0  0  0  0  0
   23.1333  -18.6405  -15.6848 C   0  0  2  0  0  0  0  0  0  0  0  0
   24.1963  -19.2387  -16.4570 N   0  0  0  0  0  0  0  0  0  0  0  0
   22.0746  -19.5914  -15.2614 C   0  0  0  0  0  0  0  0  0  0  0  0
   21.9200  -20.5995  -15.9974 O   0  0  0  0  0  0  0  0  0  0  0  0
   21.2552  -19.4516  -14.1243 N   0  0  0  0  0  0  0  0  0  0  0  0
   20.2338  -20.3349  -13.6697 C   0  0  1  0  0  0  0  0  0  0  0  0
   20.2825  -20.6670  -12.1850 C   0  0  0  0  0  0  0  0  0  0  0  0
   19.3201  -21.6944  -11.7881 C   0  0  0  0  0  0  0  0  0  0  0  0
   18.1861  -21.4719  -11.3302 O   0  0  0  0  0  0  0  0  0  0  0  0
   18.8564  -19.9547  -14.0127 C   0  0  0  0  0  0  0  0  0  0  0  0
   17.8863  -20.8589  -14.3944 O   0  0  0  0  0  0  0  0  0  0  0  0
   19.6860  -23.0485  -11.9260 O   0  0  0  0  0  0  0  0  0  0  0  0
   18.5217  -18.7508  -13.9631 O   0  0  0  0  0  0  0  0  0  0  0  0
  2  3  1  0
  2  1  1  1
  3  4  1  0
  4 12  1  0
  5  6  1  0
  5  4  2  0
  6  7  1  0
  7 12  2  0
  7  8  1  0
  8  9  2  0
  9 10  1  0
 11 10  2  0
 12 11  1  0
 13  2  1  0
 13 14  2  0
 16 15  1  6
 16 18  1  0
 16 17  1  0
 17 13  1  0
 18 19  2  0
 20 18  1  0
 20 21  1  0
 21 22  1  1
 22 23  1  0
 23 24  2  0
 25 21  1  0
 26 25  1  0
 27 23  1  0
 28 25  2  0
M  END
$$$$
