WAD.pdb
     RDKit          3D

 28 29  0  0  1  0  0  0  0  0999 V2000
   27.5124  -22.1581  -10.6337 N   0  0  0  0  0  0  0  0  0  0  0  0
   26.6254  -21.1991  -10.0025 C   0  0  1  0  0  0  0  0  0  0  0  0
   27.3576  -19.9202   -9.7683 C   0  0  0  0  0  0  0  0  0  0  0  0
   28.4505  -20.0258   -8.7741 C   0  0  0  0  0  0  0  0  0  0  0  0
   29.7698  -20.3544   -8.9776 C   0  0  0  0  0  0  0  0  0  0  0  0
   30.4382  -20.3673   -7.8068 N   0  0  0  0  0  0  0  0  0  0  0  0
   29.5693  -20.0464   -6.8094 C   0  0  0  0  0  0  0  0  0  0  0  0
   29.7719  -19.9299   -5.4499 C   0  0  0  0  0  0  0  0  0  0  0  0
   28.7097  -19.5886   -4.6466 C   0  0  0  0  0  0  0  0  0  0  0  0
   27.4623  -19.3670   -5.1974 C   0  0  0  0  0  0  0  0  0  0  0  0
   27.3110  -19.4944   -6.5563 C   0  0  0  0  0  0  0  0  0  0  0  0
   28.3427  -19.8363   -7.4142 C   0  0  0  0  0  0  0  0  0  0  0  0
   25.3794  -21.1361  -10.7438 C   0  0  0  0  0  0  0  0  0  0  0  0
   25.3580  -21.0871  -12.0001 O   0  0  0  0  0  0  0  0  0  0  0  0
   21.7334  -20.9435   -9.8606 C   0  0  0  0  0  0  0  0  0  0  0  0
   22.8647  -21.0274  -10.9192 C   0  0  2  0  0  0  0  0  0  0  0  0
   24.0738  -21.1260  -10.1369 N   0  0  0  0  0  0  0  0  0  0  0  0
   22.7303  -19.7600  -11.6809 C   0  0  0  0  0  0  0  0  0  0  0  0
   23.7457  -19.0178  -11.6895 O   0  0  0  0  0  0  0  0  0  0  0  0
   21.5803  -19.3415  -12.3783 N   0  0  0  0  0  0  0  0  0  0  0  0
   21.4041  -19.2349  -13.7881 C   0  0  1  0  0  0  0  0  0  0  0  0
   22.4014  -20.0246  -14.6240 C   0  0  0  0  0  0  0  0  0  0  0  0
   23.2204  -19.1847  -15.4975 C   0  0  0  0  0  0  0  0  0  0  0  0
   23.3810  -19.3656  -16.7167 O   0  0  0  0  0  0  0  0  0  0  0  0
   20.0528  -19.5205  -14.2900 C   0  0  0  0  0  0  0  0  0  0  0  0
   19.1712  -18.5452  -14.7095 O   0  0  0  0  0  0  0  0  0  0  0  0
   23.8894  -18.0794  -14.9342 O   0  0  0  0  0  0  0  0  0  0  0  0
   19.6580  -20.7056  -14.3494 O   0  0  0  0  0  0  0  0  0  0  0  0
  2  3  1  0
  2  1  1  6
  3  4  1  0
  4 12  1  0
  5  6  1  0
  5  4  2  0
  6  7  1  0
  7 12  2  0
  7  8  1  0
  8  9  2  0
  9 10  1  0
 11 10  2  0
 12 11  1  0
 13  2  1  0
 13 14  2  0
 16 15  1  1
 16 18  1  0
 16 17  1  0
 17 13  1  0
 18 19  2  0
 20 18  1  0
 20 21  1  0
 21 22  1  6
 22 23  1  0
 23 24  2  0
 25 21  1  0
 26 25  1  0
 27 23  1  0
 28 25  2  0
M  END
$$$$
