WAD.pdb
     RDKit          3D

 28 29  0  0  1  0  0  0  0  0999 V2000
   14.7332   -9.8460  -11.4121 N   0  0  0  0  0  0  0  0  0  0  0  0
   15.2280   -8.5077  -11.1494 C   0  0  1  0  0  0  0  0  0  0  0  0
   15.7146   -8.4226   -9.7414 C   0  0  0  0  0  0  0  0  0  0  0  0
   14.6316   -8.3452   -8.7339 C   0  0  0  0  0  0  0  0  0  0  0  0
   13.8102   -9.3477   -8.2754 C   0  0  0  0  0  0  0  0  0  0  0  0
   12.9317   -8.8623   -7.3752 N   0  0  0  0  0  0  0  0  0  0  0  0
   13.1595   -7.5288   -7.2244 C   0  0  0  0  0  0  0  0  0  0  0  0
   12.5282   -6.5983   -6.4253 C   0  0  0  0  0  0  0  0  0  0  0  0
   12.9572   -5.2927   -6.4596 C   0  0  0  0  0  0  0  0  0  0  0  0
   14.0040   -4.9243   -7.2825 C   0  0  0  0  0  0  0  0  0  0  0  0
   14.6009   -5.8871   -8.0586 C   0  0  0  0  0  0  0  0  0  0  0  0
   14.2117   -7.2159   -8.0668 C   0  0  0  0  0  0  0  0  0  0  0  0
   16.1457   -8.1187  -12.2041 C   0  0  0  0  0  0  0  0  0  0  0  0
   17.2503   -8.6969  -12.3676 O   0  0  0  0  0  0  0  0  0  0  0  0
   16.0811   -5.7068  -15.0769 C   0  0  0  0  0  0  0  0  0  0  0  0
   16.8524   -6.6982  -14.1661 C   0  0  2  0  0  0  0  0  0  0  0  0
   15.8945   -7.0620  -13.1493 N   0  0  0  0  0  0  0  0  0  0  0  0
   18.0005   -5.8996  -13.6675 C   0  0  0  0  0  0  0  0  0  0  0  0
   17.7670   -5.1726  -12.6681 O   0  0  0  0  0  0  0  0  0  0  0  0
   19.2980   -5.8997  -14.2160 N   0  0  0  0  0  0  0  0  0  0  0  0
   20.4386   -5.1771  -13.7613 C   0  0  1  0  0  0  0  0  0  0  0  0
   21.7643   -5.9125  -13.8977 C   0  0  0  0  0  0  0  0  0  0  0  0
   21.7707   -7.2230  -13.2481 C   0  0  0  0  0  0  0  0  0  0  0  0
   21.1905   -7.4949  -12.1829 O   0  0  0  0  0  0  0  0  0  0  0  0
   20.6027   -3.8240  -14.3106 C   0  0  0  0  0  0  0  0  0  0  0  0
   19.9058   -3.3535  -15.4048 O   0  0  0  0  0  0  0  0  0  0  0  0
   22.4844   -8.2735  -13.8592 O   0  0  0  0  0  0  0  0  0  0  0  0
   21.4132   -3.0377  -13.7732 O   0  0  0  0  0  0  0  0  0  0  0  0
  2  3  1  0
  2  1  1  6
  3  4  1  0
  4 12  1  0
  5  6  1  0
  5  4  2  0
  6  7  1  0
  7 12  2  0
  7  8  1  0
  8  9  2  0
  9 10  1  0
 11 10  2  0
 12 11  1  0
 13  2  1  0
 13 14  2  0
 16 15  1  6
 16 18  1  0
 16 17  1  0
 17 13  1  0
 18 19  2  0
 20 18  1  0
 20 21  1  0
 21 22  1  6
 22 23  1  0
 23 24  2  0
 25 21  1  0
 26 25  1  0
 27 23  1  0
 28 25  2  0
M  END
$$$$
