WAD.pdb
     RDKit          3D

 28 29  0  0  1  0  0  0  0  0999 V2000
   26.1922  -22.8752  -12.0501 N   0  0  0  0  0  0  0  0  0  0  0  0
   25.5146  -21.6751  -11.5969 C   0  0  1  0  0  0  0  0  0  0  0  0
   26.4568  -20.5193  -11.6499 C   0  0  0  0  0  0  0  0  0  0  0  0
   27.6478  -20.6734  -10.7827 C   0  0  0  0  0  0  0  0  0  0  0  0
   28.9468  -20.9406  -11.1449 C   0  0  0  0  0  0  0  0  0  0  0  0
   29.7315  -21.0311  -10.0523 N   0  0  0  0  0  0  0  0  0  0  0  0
   28.9617  -20.8245   -8.9489 C   0  0  0  0  0  0  0  0  0  0  0  0
   29.2994  -20.8173   -7.6115 C   0  0  0  0  0  0  0  0  0  0  0  0
   28.3171  -20.5801   -6.6793 C   0  0  0  0  0  0  0  0  0  0  0  0
   27.0150  -20.3531   -7.0813 C   0  0  0  0  0  0  0  0  0  0  0  0
   26.7287  -20.3695   -8.4243 C   0  0  0  0  0  0  0  0  0  0  0  0
   27.6751  -20.6037   -9.4075 C   0  0  0  0  0  0  0  0  0  0  0  0
   24.2488  -21.5450  -12.2944 C   0  0  0  0  0  0  0  0  0  0  0  0
   24.1611  -21.6908  -13.5403 O   0  0  0  0  0  0  0  0  0  0  0  0
   20.6911  -20.8509  -11.3040 C   0  0  0  0  0  0  0  0  0  0  0  0
   21.7511  -21.1981  -12.3825 C   0  0  2  0  0  0  0  0  0  0  0  0
   22.9953  -21.2466  -11.6520 N   0  0  0  0  0  0  0  0  0  0  0  0
   21.6523  -20.0756  -13.3491 C   0  0  0  0  0  0  0  0  0  0  0  0
   22.1678  -18.9896  -12.9794 O   0  0  0  0  0  0  0  0  0  0  0  0
   21.0424  -20.1380  -14.6173 N   0  0  0  0  0  0  0  0  0  0  0  0
   20.9411  -19.1017  -15.5898 C   0  0  1  0  0  0  0  0  0  0  0  0
   20.8007  -19.5790  -17.0284 C   0  0  0  0  0  0  0  0  0  0  0  0
   22.0672  -20.0000  -17.6266 C   0  0  0  0  0  0  0  0  0  0  0  0
   23.1800  -19.9094  -17.0803 O   0  0  0  0  0  0  0  0  0  0  0  0
   19.9116  -18.0836  -15.3387 C   0  0  0  0  0  0  0  0  0  0  0  0
   19.9867  -16.7883  -15.8087 O   0  0  0  0  0  0  0  0  0  0  0  0
   22.0481  -20.5532  -18.9228 O   0  0  0  0  0  0  0  0  0  0  0  0
   18.9024  -18.3848  -14.6643 O   0  0  0  0  0  0  0  0  0  0  0  0
  2  3  1  0
  2  1  1  6
  3  4  1  0
  4 12  1  0
  5  6  1  0
  5  4  2  0
  6  7  1  0
  7 12  2  0
  7  8  1  0
  8  9  2  0
  9 10  1  0
 11 10  2  0
 12 11  1  0
 13  2  1  0
 13 14  2  0
 16 15  1  1
 16 18  1  0
 16 17  1  0
 17 13  1  0
 18 19  2  0
 20 18  1  0
 20 21  1  0
 21 22  1  6
 22 23  1  0
 23 24  2  0
 25 21  1  0
 26 25  1  0
 27 23  1  0
 28 25  2  0
M  END
$$$$
