TII.pdb
     RDKit          3D

 24 23  0  0  1  0  0  0  0  0999 V2000
   21.0287  -12.0617  -19.7835 C   0  0  0  0  0  0  0  0  0  0  0  0
   20.9275  -13.4704  -19.2286 C   0  0  1  0  0  0  0  0  0  0  0  0
   20.6716  -14.3251  -20.2786 O   0  0  0  0  0  0  0  0  0  0  0  0
   22.2521  -13.8643  -18.5680 C   0  0  2  0  0  0  0  0  0  0  0  0
   22.0427  -15.2271  -18.0975 N   0  0  0  0  0  0  0  0  0  0  0  0
   22.5864  -12.9644  -17.4413 C   0  0  0  0  0  0  0  0  0  0  0  0
   21.8934  -13.0946  -16.3754 O   0  0  0  0  0  0  0  0  0  0  0  0
   27.5929  -11.7307  -16.0122 C   0  0  0  0  0  0  0  0  0  0  0  0
   26.1311  -12.0124  -16.1052 C   0  0  0  0  0  0  0  0  0  0  0  0
   25.3006  -10.7615  -16.2703 C   0  0  2  0  0  0  0  0  0  0  0  0
   25.5532   -9.7674  -15.1702 C   0  0  0  0  0  0  0  0  0  0  0  0
   23.8381  -11.0655  -16.4474 C   0  0  2  0  0  0  0  0  0  0  0  0
   23.6263  -11.9923  -17.5166 N   0  0  0  0  0  0  0  0  0  0  0  0
   23.0963   -9.7854  -16.6433 C   0  0  0  0  0  0  0  0  0  0  0  0
   23.3533   -9.0659  -17.6428 O   0  0  0  0  0  0  0  0  0  0  0  0
   18.0519   -9.2429  -17.3537 C   0  0  0  0  0  0  0  0  0  0  0  0
   19.5627   -9.0235  -17.4183 C   0  0  0  0  0  0  0  0  0  0  0  0
   19.9288   -8.2273  -16.1865 C   0  0  2  0  0  0  0  0  0  0  0  0
   19.3455   -6.8309  -16.4026 C   0  0  0  0  0  0  0  0  0  0  0  0
   21.4159   -8.0593  -16.0143 C   0  0  2  0  0  0  0  0  0  0  0  0
   22.0930   -9.3073  -15.7566 N   0  0  0  0  0  0  0  0  0  0  0  0
   21.6228   -7.1595  -14.8575 C   0  0  0  0  0  0  0  0  0  0  0  0
   21.4463   -5.9437  -14.9844 O   0  0  0  0  0  0  0  0  0  0  0  0
   22.0158   -7.6576  -13.6160 O   0  0  0  0  0  0  0  0  0  0  0  0
  2  1  1  6
  3  2  1  0
  4  2  1  0
  4  5  1  1
  6  4  1  0
  6  7  2  0
  9 10  1  0
  9  8  1  0
 10 12  1  0
 10 11  1  1
 12 13  1  6
 13  6  1  0
 14 12  1  0
 15 14  2  0
 16 17  1  0
 17 18  1  0
 18 19  1  6
 18 20  1  0
 20 21  1  1
 20 22  1  0
 21 14  1  0
 22 24  1  0
 23 22  2  0
M  END
$$$$
