TII.pdb
     RDKit          3D

 24 23  0  0  1  0  0  0  0  0999 V2000
   20.1676   -7.7732  -19.7677 C   0  0  0  0  0  0  0  0  0  0  0  0
   19.0417   -8.7772  -19.6036 C   0  0  1  0  0  0  0  0  0  0  0  0
   18.5086   -9.0276  -20.8492 O   0  0  0  0  0  0  0  0  0  0  0  0
   19.5911  -10.0815  -19.0177 C   0  0  2  0  0  0  0  0  0  0  0  0
   18.4395  -10.9711  -18.9453 N   0  0  0  0  0  0  0  0  0  0  0  0
   20.1775   -9.8700  -17.6753 C   0  0  0  0  0  0  0  0  0  0  0  0
   19.3583   -9.6877  -16.7114 O   0  0  0  0  0  0  0  0  0  0  0  0
   24.2345  -12.8060  -15.9233 C   0  0  0  0  0  0  0  0  0  0  0  0
   23.0150  -11.9536  -16.0279 C   0  0  0  0  0  0  0  0  0  0  0  0
   23.3099  -10.4818  -15.8578 C   0  0  2  0  0  0  0  0  0  0  0  0
   23.9380  -10.1829  -14.5242 C   0  0  0  0  0  0  0  0  0  0  0  0
   22.1069   -9.6221  -16.1337 C   0  0  2  0  0  0  0  0  0  0  0  0
   21.5840   -9.8658  -17.4430 N   0  0  0  0  0  0  0  0  0  0  0  0
   22.4736   -8.1912  -15.9204 C   0  0  0  0  0  0  0  0  0  0  0  0
   23.4359   -7.6949  -16.5611 O   0  0  0  0  0  0  0  0  0  0  0  0
   20.4445   -2.7220  -15.9562 C   0  0  0  0  0  0  0  0  0  0  0  0
   21.5080   -3.5406  -15.2257 C   0  0  0  0  0  0  0  0  0  0  0  0
   21.1677   -4.9930  -15.4704 C   0  0  2  0  0  0  0  0  0  0  0  0
   19.8543   -5.2452  -14.7300 C   0  0  0  0  0  0  0  0  0  0  0  0
   22.1855   -5.9418  -14.8930 C   0  0  2  0  0  0  0  0  0  0  0  0
   21.7949   -7.3251  -15.0200 N   0  0  0  0  0  0  0  0  0  0  0  0
   22.3194   -5.6166  -13.4553 C   0  0  0  0  0  0  0  0  0  0  0  0
   22.8925   -4.5784  -13.1101 O   0  0  0  0  0  0  0  0  0  0  0  0
   21.8086   -6.4632  -12.4725 O   0  0  0  0  0  0  0  0  0  0  0  0
  2  1  1  6
  3  2  1  0
  4  2  1  0
  4  5  1  1
  6  4  1  0
  6  7  2  0
  9 10  1  0
  9  8  1  0
 10 12  1  0
 10 11  1  1
 12 13  1  6
 13  6  1  0
 14 12  1  0
 15 14  2  0
 16 17  1  0
 17 18  1  0
 18 19  1  1
 18 20  1  0
 20 21  1  1
 20 22  1  0
 21 14  1  0
 22 24  1  0
 23 22  2  0
M  END
$$$$
