TII.pdb
     RDKit          3D

 24 23  0  0  1  0  0  0  0  0999 V2000
   18.0906  -13.7079  -14.8847 C   0  0  0  0  0  0  0  0  0  0  0  0
   17.8766  -14.3107  -16.2607 C   0  0  1  0  0  0  0  0  0  0  0  0
   17.3229  -15.5617  -16.0970 O   0  0  0  0  0  0  0  0  0  0  0  0
   16.9139  -13.4338  -17.0672 C   0  0  2  0  0  0  0  0  0  0  0  0
   16.7736  -14.1151  -18.3473 N   0  0  0  0  0  0  0  0  0  0  0  0
   17.4507  -12.0672  -17.2547 C   0  0  0  0  0  0  0  0  0  0  0  0
   18.4236  -11.9383  -18.0733 O   0  0  0  0  0  0  0  0  0  0  0  0
   14.3790   -7.6955  -17.7066 C   0  0  0  0  0  0  0  0  0  0  0  0
   15.4961   -8.6785  -17.8109 C   0  0  0  0  0  0  0  0  0  0  0  0
   16.4975   -8.5521  -16.6871 C   0  0  2  0  0  0  0  0  0  0  0  0
   17.1127   -7.1806  -16.6313 C   0  0  0  0  0  0  0  0  0  0  0  0
   17.5297   -9.6458  -16.7154 C   0  0  2  0  0  0  0  0  0  0  0  0
   16.9251  -10.9341  -16.5678 N   0  0  0  0  0  0  0  0  0  0  0  0
   18.5567   -9.3714  -15.6678 C   0  0  0  0  0  0  0  0  0  0  0  0
   18.2232   -9.3784  -14.4548 O   0  0  0  0  0  0  0  0  0  0  0  0
   23.3408  -11.6752  -15.1448 C   0  0  0  0  0  0  0  0  0  0  0  0
   21.9487  -11.0614  -15.0033 C   0  0  0  0  0  0  0  0  0  0  0  0
   22.1433   -9.5623  -15.0102 C   0  0  2  0  0  0  0  0  0  0  0  0
   22.9706   -9.2422  -13.7653 C   0  0  0  0  0  0  0  0  0  0  0  0
   20.8500   -8.8000  -14.8849 C   0  0  2  0  0  0  0  0  0  0  0  0
   19.9223   -9.0946  -15.9503 N   0  0  0  0  0  0  0  0  0  0  0  0
   21.1858   -7.3593  -14.9331 C   0  0  0  0  0  0  0  0  0  0  0  0
   21.0505   -6.7309  -15.9876 O   0  0  0  0  0  0  0  0  0  0  0  0
   21.6557   -6.6889  -13.8046 O   0  0  0  0  0  0  0  0  0  0  0  0
  2  1  1  1
  3  2  1  0
  4  2  1  0
  4  5  1  6
  6  4  1  0
  6  7  2  0
  9 10  1  0
  9  8  1  0
 10 12  1  0
 10 11  1  6
 12 13  1  1
 13  6  1  0
 14 12  1  0
 15 14  2  0
 16 17  1  0
 17 18  1  0
 18 19  1  1
 18 20  1  0
 20 21  1  6
 20 22  1  0
 21 14  1  0
 22 24  1  0
 23 22  2  0
M  END
$$$$
