TII.pdb
     RDKit          3D

 24 23  0  0  1  0  0  0  0  0999 V2000
   18.6733  -11.6170  -19.6236 C   0  0  0  0  0  0  0  0  0  0  0  0
   18.1570  -12.8917  -18.9823 C   0  0  1  0  0  0  0  0  0  0  0  0
   17.7265  -13.7306  -19.9870 O   0  0  0  0  0  0  0  0  0  0  0  0
   19.2854  -13.5743  -18.2031 C   0  0  2  0  0  0  0  0  0  0  0  0
   18.6987  -14.8117  -17.7059 N   0  0  0  0  0  0  0  0  0  0  0  0
   19.7609  -12.7306  -17.0838 C   0  0  0  0  0  0  0  0  0  0  0  0
   18.9226  -12.4865  -16.1506 O   0  0  0  0  0  0  0  0  0  0  0  0
   24.7058  -13.3666  -15.1829 C   0  0  0  0  0  0  0  0  0  0  0  0
   23.2538  -13.1015  -15.3979 C   0  0  0  0  0  0  0  0  0  0  0  0
   22.9451  -11.6343  -15.5826 C   0  0  2  0  0  0  0  0  0  0  0  0
   23.4064  -10.8092  -14.4126 C   0  0  0  0  0  0  0  0  0  0  0  0
   21.5002  -11.3927  -15.9239 C   0  0  2  0  0  0  0  0  0  0  0  0
   21.0845  -12.2045  -17.0263 N   0  0  0  0  0  0  0  0  0  0  0  0
   21.2981   -9.9358  -16.1769 C   0  0  0  0  0  0  0  0  0  0  0  0
   21.9303   -9.3741  -17.1083 O   0  0  0  0  0  0  0  0  0  0  0  0
   16.5565   -7.7064  -16.6258 C   0  0  0  0  0  0  0  0  0  0  0  0
   18.0389   -7.9029  -16.9396 C   0  0  0  0  0  0  0  0  0  0  0  0
   18.8012   -7.3013  -15.7810 C   0  0  2  0  0  0  0  0  0  0  0  0
   18.7806   -5.7896  -16.0069 C   0  0  0  0  0  0  0  0  0  0  0  0
   20.2480   -7.7197  -15.7472 C   0  0  2  0  0  0  0  0  0  0  0  0
   20.4187   -9.1147  -15.4195 N   0  0  0  0  0  0  0  0  0  0  0  0
   20.9146   -6.9032  -14.7081 C   0  0  0  0  0  0  0  0  0  0  0  0
   20.9274   -7.2907  -13.5355 O   0  0  0  0  0  0  0  0  0  0  0  0
   21.5344   -5.6955  -15.0257 O   0  0  0  0  0  0  0  0  0  0  0  0
  2  1  1  6
  3  2  1  0
  4  2  1  0
  4  5  1  1
  6  4  1  0
  6  7  2  0
  9 10  1  0
  9  8  1  0
 10 12  1  0
 10 11  1  1
 12 13  1  6
 13  6  1  0
 14 12  1  0
 15 14  2  0
 16 17  1  0
 17 18  1  0
 18 19  1  6
 18 20  1  0
 20 21  1  1
 20 22  1  0
 21 14  1  0
 22 24  1  0
 23 22  2  0
M  END
$$$$
