TII.pdb
     RDKit          3D

 24 23  0  0  1  0  0  0  0  0999 V2000
   19.4497  -12.4184  -19.3024 C   0  0  0  0  0  0  0  0  0  0  0  0
   19.3611  -13.8324  -18.7589 C   0  0  1  0  0  0  0  0  0  0  0  0
   19.0202  -14.6688  -19.7994 O   0  0  0  0  0  0  0  0  0  0  0  0
   20.7201  -14.2571  -18.1938 C   0  0  2  0  0  0  0  0  0  0  0  0
   20.5179  -15.6213  -17.7240 N   0  0  0  0  0  0  0  0  0  0  0  0
   21.1465  -13.3761  -17.0835 C   0  0  0  0  0  0  0  0  0  0  0  0
   20.4792  -13.4561  -15.9964 O   0  0  0  0  0  0  0  0  0  0  0  0
   26.1539  -13.0643  -15.6204 C   0  0  0  0  0  0  0  0  0  0  0  0
   24.6652  -13.0371  -15.7094 C   0  0  0  0  0  0  0  0  0  0  0  0
   24.1125  -11.6436  -15.8952 C   0  0  2  0  0  0  0  0  0  0  0  0
   24.5473  -10.7132  -14.7963 C   0  0  0  0  0  0  0  0  0  0  0  0
   22.6217  -11.6418  -16.0954 C   0  0  2  0  0  0  0  0  0  0  0  0
   22.2448  -12.4744  -17.1962 N   0  0  0  0  0  0  0  0  0  0  0  0
   22.1551  -10.2334  -16.2563 C   0  0  0  0  0  0  0  0  0  0  0  0
   22.5541   -9.5557  -17.2383 O   0  0  0  0  0  0  0  0  0  0  0  0
   17.2998   -8.5123  -16.7967 C   0  0  0  0  0  0  0  0  0  0  0  0
   18.8161   -8.6653  -16.9073 C   0  0  0  0  0  0  0  0  0  0  0  0
   19.3988   -8.0222  -15.6695 C   0  0  2  0  0  0  0  0  0  0  0  0
   19.1466   -6.5220  -15.8195 C   0  0  0  0  0  0  0  0  0  0  0  0
   20.8896   -8.2068  -15.5562 C   0  0  2  0  0  0  0  0  0  0  0  0
   21.2682   -9.5846  -15.3542 N   0  0  0  0  0  0  0  0  0  0  0  0
   21.3403   -7.4150  -14.3897 C   0  0  0  0  0  0  0  0  0  0  0  0
   21.4560   -6.1892  -14.4859 O   0  0  0  0  0  0  0  0  0  0  0  0
   21.6399   -8.0269  -13.1734 O   0  0  0  0  0  0  0  0  0  0  0  0
  2  1  1  6
  3  2  1  0
  4  2  1  0
  4  5  1  1
  6  4  1  0
  6  7  2  0
  9 10  1  0
  9  8  1  0
 10 12  1  0
 10 11  1  1
 12 13  1  6
 13  6  1  0
 14 12  1  0
 15 14  2  0
 16 17  1  0
 17 18  1  0
 18 19  1  6
 18 20  1  0
 20 21  1  1
 20 22  1  0
 21 14  1  0
 22 24  1  0
 23 22  2  0
M  END
$$$$
