TII.pdb
     RDKit          3D

 24 23  0  0  1  0  0  0  0  0999 V2000
   26.3245  -19.4786  -17.0577 C   0  0  0  0  0  0  0  0  0  0  0  0
   27.2573  -20.5420  -17.6069 C   0  0  1  0  0  0  0  0  0  0  0  0
   27.9417  -19.9999  -18.6728 O   0  0  0  0  0  0  0  0  0  0  0  0
   28.2575  -20.9632  -16.5258 C   0  0  2  0  0  0  0  0  0  0  0  0
   29.0106  -22.0586  -17.1220 N   0  0  0  0  0  0  0  0  0  0  0  0
   27.5701  -21.4074  -15.2925 C   0  0  0  0  0  0  0  0  0  0  0  0
   26.9459  -22.5211  -15.3507 O   0  0  0  0  0  0  0  0  0  0  0  0
   29.9002  -20.9301  -10.5556 C   0  0  0  0  0  0  0  0  0  0  0  0
   29.0534  -21.3931  -11.6928 C   0  0  0  0  0  0  0  0  0  0  0  0
   27.6631  -20.8027  -11.6692 C   0  0  2  0  0  0  0  0  0  0  0  0
   26.9101  -21.1824  -10.4237 C   0  0  0  0  0  0  0  0  0  0  0  0
   26.8915  -21.1066  -12.9241 C   0  0  2  0  0  0  0  0  0  0  0  0
   27.5891  -20.6482  -14.0862 N   0  0  0  0  0  0  0  0  0  0  0  0
   25.5244  -20.5194  -12.8077 C   0  0  0  0  0  0  0  0  0  0  0  0
   25.3906  -19.2720  -12.7143 O   0  0  0  0  0  0  0  0  0  0  0  0
   21.8398  -21.1800  -16.3434 C   0  0  0  0  0  0  0  0  0  0  0  0
   22.7581  -20.6035  -15.2668 C   0  0  0  0  0  0  0  0  0  0  0  0
   22.1723  -21.0257  -13.9388 C   0  0  2  0  0  0  0  0  0  0  0  0
   20.8629  -20.2502  -13.7938 C   0  0  0  0  0  0  0  0  0  0  0  0
   23.0383  -20.6467  -12.7659 C   0  0  2  0  0  0  0  0  0  0  0  0
   24.3297  -21.2900  -12.7939 N   0  0  0  0  0  0  0  0  0  0  0  0
   22.3238  -21.0698  -11.5406 C   0  0  0  0  0  0  0  0  0  0  0  0
   22.6655  -22.1019  -10.9547 O   0  0  0  0  0  0  0  0  0  0  0  0
   21.2642  -20.3229  -11.0279 O   0  0  0  0  0  0  0  0  0  0  0  0
  2  1  1  1
  3  2  1  0
  4  2  1  0
  4  5  1  6
  6  4  1  0
  6  7  2  0
  9 10  1  0
  9  8  1  0
 10 12  1  0
 10 11  1  1
 12 13  1  6
 13  6  1  0
 14 12  1  0
 15 14  2  0
 16 17  1  0
 17 18  1  0
 18 19  1  1
 18 20  1  0
 20 21  1  6
 20 22  1  0
 21 14  1  0
 22 24  1  0
 23 22  2  0
M  END
$$$$
