TII.pdb
     RDKit          3D

 24 23  0  0  1  0  0  0  0  0999 V2000
   29.4057  -19.7700  -13.4937 C   0  0  0  0  0  0  0  0  0  0  0  0
   30.4220  -20.7913  -13.0174 C   0  0  1  0  0  0  0  0  0  0  0  0
   31.6765  -20.3368  -13.3608 O   0  0  0  0  0  0  0  0  0  0  0  0
   30.3366  -20.9370  -11.4950 C   0  0  2  0  0  0  0  0  0  0  0  0
   31.3466  -21.9318  -11.1592 N   0  0  0  0  0  0  0  0  0  0  0  0
   28.9929  -21.3861  -11.0663 C   0  0  0  0  0  0  0  0  0  0  0  0
   28.7097  -22.6177  -11.2568 O   0  0  0  0  0  0  0  0  0  0  0  0
   24.5295  -20.5296   -7.0172 C   0  0  0  0  0  0  0  0  0  0  0  0
   24.9305  -20.9511   -8.3907 C   0  0  0  0  0  0  0  0  0  0  0  0
   26.3187  -20.4884   -8.7659 C   0  0  2  0  0  0  0  0  0  0  0  0
   26.4801  -19.0016   -8.6062 C   0  0  0  0  0  0  0  0  0  0  0  0
   26.7325  -20.9696  -10.1297 C   0  0  2  0  0  0  0  0  0  0  0  0
   28.0437  -20.5073  -10.4674 N   0  0  0  0  0  0  0  0  0  0  0  0
   25.7029  -20.5505  -11.1255 C   0  0  0  0  0  0  0  0  0  0  0  0
   25.6577  -19.3516  -11.5042 O   0  0  0  0  0  0  0  0  0  0  0  0
   25.2346  -23.3135  -15.5865 C   0  0  0  0  0  0  0  0  0  0  0  0
   25.3512  -22.1896  -14.5579 C   0  0  0  0  0  0  0  0  0  0  0  0
   23.9770  -22.0274  -13.9492 C   0  0  2  0  0  0  0  0  0  0  0  0
   23.0892  -21.4723  -15.0630 C   0  0  0  0  0  0  0  0  0  0  0  0
   23.9458  -21.0263  -12.8239 C   0  0  2  0  0  0  0  0  0  0  0  0
   24.7429  -21.4331  -11.6919 N   0  0  0  0  0  0  0  0  0  0  0  0
   22.5361  -20.9000  -12.3907 C   0  0  0  0  0  0  0  0  0  0  0  0
   22.1018  -21.6254  -11.4905 O   0  0  0  0  0  0  0  0  0  0  0  0
   21.6793  -19.9721  -12.9810 O   0  0  0  0  0  0  0  0  0  0  0  0
  2  1  1  1
  3  2  1  0
  4  2  1  0
  4  5  1  6
  6  4  1  0
  6  7  2  0
  9 10  1  0
  9  8  1  0
 10 12  1  0
 10 11  1  6
 12 13  1  6
 13  6  1  0
 14 12  1  0
 15 14  2  0
 16 17  1  0
 17 18  1  0
 18 19  1  6
 18 20  1  0
 20 21  1  1
 20 22  1  0
 21 14  1  0
 22 24  1  0
 23 22  2  0
M  END
$$$$
