LLH.pdb
     RDKit          3D

 27 27  0  0  1  0  0  0  0  0999 V2000
   17.4713  -10.4832  -10.6646 C   0  0  0  0  0  0  0  0  0  0  0  0
   16.4379  -10.5847  -11.7820 C   0  0  1  0  0  0  0  0  0  0  0  0
   15.0689  -10.2313  -11.2699 C   0  0  0  0  0  0  0  0  0  0  0  0
   16.8421   -9.6053  -12.8438 C   0  0  0  0  0  0  0  0  0  0  0  0
   15.8560   -9.7160  -13.9882 C   0  0  2  0  0  0  0  0  0  0  0  0
   15.9184  -10.9657  -14.6623 N   0  0  0  0  0  0  0  0  0  0  0  0
   16.1133   -8.6005  -14.9071 C   0  0  0  0  0  0  0  0  0  0  0  0
   16.7563   -8.8376  -15.9653 O   0  0  0  0  0  0  0  0  0  0  0  0
   14.8879   -4.3570  -17.7097 C   0  0  0  0  0  0  0  0  0  0  0  0
   15.0127   -3.9679  -16.2484 C   0  0  1  0  0  0  0  0  0  0  0  0
   13.9098   -2.9443  -15.9651 C   0  0  0  0  0  0  0  0  0  0  0  0
   14.8199   -5.1693  -15.3471 C   0  0  0  0  0  0  0  0  0  0  0  0
   15.8850   -6.1849  -15.4981 C   0  0  2  0  0  0  0  0  0  0  0  0
   15.6474   -7.3013  -14.6018 N   0  0  0  0  0  0  0  0  0  0  0  0
   17.2583   -5.7122  -15.2912 C   0  0  0  0  0  0  0  0  0  0  0  0
   17.6639   -5.6064  -14.1027 O   0  0  0  0  0  0  0  0  0  0  0  0
   18.1605   -5.3672  -16.3053 N   0  0  0  0  0  0  0  0  0  0  0  0
   19.5105   -4.9980  -15.9550 C   0  0  1  0  0  0  0  0  0  0  0  0
   20.4265   -5.8272  -16.8256 C   0  0  0  0  0  0  0  0  0  0  0  0
   21.8553   -5.4937  -16.6190 C   0  0  0  0  0  0  0  0  0  0  0  0
   22.3184   -4.6210  -15.6606 C   0  0  0  0  0  0  0  0  0  0  0  0
   23.6564   -4.5720  -15.7803 N   0  0  0  0  0  0  0  0  0  0  0  0
   24.0261   -5.3998  -16.7964 C   0  0  0  0  0  0  0  0  0  0  0  0
   22.9271   -5.9716  -17.3191 N   0  0  0  0  0  0  0  0  0  0  0  0
   19.7175   -3.5522  -16.0675 C   0  0  0  0  0  0  0  0  0  0  0  0
   19.2093   -2.9199  -17.0288 O   0  0  0  0  0  0  0  0  0  0  0  0
   20.4609   -2.8401  -15.1449 O   0  0  0  0  0  0  0  0  0  0  0  0
  2  4  1  0
  2  1  1  1
  3  2  1  0
  5  4  1  0
  5  6  1  6
  7  8  2  0
  7  5  1  0
 10  9  1  6
 10 12  1  0
 11 10  1  0
 13 12  1  1
 13 14  1  0
 14  7  1  0
 15 13  1  0
 15 17  1  0
 16 15  2  0
 18 17  1  0
 18 25  1  0
 18 19  1  6
 19 20  1  0
 20 21  2  0
 21 22  1  0
 23 22  1  0
 24 20  1  0
 24 23  2  0
 25 27  1  0
 26 25  2  0
M  END
$$$$
