LLH.pdb
     RDKit          3D

 27 27  0  0  1  0  0  0  0  0999 V2000
   30.2167  -20.6120  -11.0112 C   0  0  0  0  0  0  0  0  0  0  0  0
   28.9319  -21.2304  -11.5532 C   0  0  1  0  0  0  0  0  0  0  0  0
   28.3102  -22.1399  -10.5298 C   0  0  0  0  0  0  0  0  0  0  0  0
   27.9929  -20.0996  -11.8524 C   0  0  0  0  0  0  0  0  0  0  0  0
   26.7148  -20.6841  -12.4173 C   0  0  2  0  0  0  0  0  0  0  0  0
   26.9433  -21.7119  -13.3720 N   0  0  0  0  0  0  0  0  0  0  0  0
   25.9385  -19.5808  -12.9962 C   0  0  0  0  0  0  0  0  0  0  0  0
   25.5751  -18.6449  -12.2337 O   0  0  0  0  0  0  0  0  0  0  0  0
   27.6254  -16.7545  -16.9757 C   0  0  0  0  0  0  0  0  0  0  0  0
   26.8502  -17.1906  -15.7463 C   0  0  1  0  0  0  0  0  0  0  0  0
   26.4615  -15.9168  -14.9908 C   0  0  0  0  0  0  0  0  0  0  0  0
   25.5941  -17.9423  -16.1335 C   0  0  0  0  0  0  0  0  0  0  0  0
   24.8641  -18.4911  -14.9696 C   0  0  2  0  0  0  0  0  0  0  0  0
   25.6143  -19.5801  -14.3721 N   0  0  0  0  0  0  0  0  0  0  0  0
   23.4987  -18.9606  -15.2299 C   0  0  0  0  0  0  0  0  0  0  0  0
   23.3668  -20.0667  -15.8192 O   0  0  0  0  0  0  0  0  0  0  0  0
   22.3252  -18.2821  -14.8782 N   0  0  0  0  0  0  0  0  0  0  0  0
   21.0493  -18.8183  -15.2861 C   0  0  1  0  0  0  0  0  0  0  0  0
   20.0115  -18.2134  -14.3688 C   0  0  0  0  0  0  0  0  0  0  0  0
   18.6337  -18.6229  -14.7282 C   0  0  0  0  0  0  0  0  0  0  0  0
   18.3244  -19.5066  -15.7372 C   0  0  0  0  0  0  0  0  0  0  0  0
   16.9858  -19.6255  -15.7656 N   0  0  0  0  0  0  0  0  0  0  0  0
   16.4644  -18.8299  -14.7913 C   0  0  0  0  0  0  0  0  0  0  0  0
   17.4682  -18.2089  -14.1473 N   0  0  0  0  0  0  0  0  0  0  0  0
   20.8018  -18.5880  -16.7114 C   0  0  0  0  0  0  0  0  0  0  0  0
   21.1698  -17.5098  -17.2445 O   0  0  0  0  0  0  0  0  0  0  0  0
   20.1699  -19.5227  -17.5101 O   0  0  0  0  0  0  0  0  0  0  0  0
  2  4  1  0
  2  1  1  1
  3  2  1  0
  5  4  1  0
  5  6  1  6
  7  8  2  0
  7  5  1  0
 10  9  1  6
 10 12  1  0
 11 10  1  0
 13 12  1  6
 13 14  1  0
 14  7  1  0
 15 13  1  0
 15 17  1  0
 16 15  2  0
 18 17  1  0
 18 25  1  0
 18 19  1  1
 19 20  1  0
 20 21  2  0
 21 22  1  0
 23 22  1  0
 24 20  1  0
 24 23  2  0
 25 27  1  0
 26 25  2  0
M  END
$$$$
