LLH.pdb
     RDKit          3D

 27 27  0  0  1  0  0  0  0  0999 V2000
   29.2716  -38.2407    3.0969 C   0  0  0  0  0  0  0  0  0  0  0  0
   28.1918  -37.3392    2.5069 C   0  0  1  0  0  0  0  0  0  0  0  0
   26.8265  -37.7949    2.9423 C   0  0  0  0  0  0  0  0  0  0  0  0
   28.4449  -35.9545    3.0250 C   0  0  0  0  0  0  0  0  0  0  0  0
   27.3909  -35.0337    2.4457 C   0  0  2  0  0  0  0  0  0  0  0  0
   27.6069  -34.7277    1.0748 N   0  0  0  0  0  0  0  0  0  0  0  0
   27.3632  -33.8168    3.2663 C   0  0  0  0  0  0  0  0  0  0  0  0
   28.2702  -32.9591    3.0893 O   0  0  0  0  0  0  0  0  0  0  0  0
   23.7937  -29.8856    3.9127 C   0  0  0  0  0  0  0  0  0  0  0  0
   25.1448  -30.5628    4.0491 C   0  0  1  0  0  0  0  0  0  0  0  0
   26.1114  -29.5171    4.6114 C   0  0  0  0  0  0  0  0  0  0  0  0
   25.0712  -31.7364    5.0031 C   0  0  0  0  0  0  0  0  0  0  0  0
   26.3477  -32.4763    5.1124 C   0  0  2  0  0  0  0  0  0  0  0  0
   26.3422  -33.6244    4.2249 N   0  0  0  0  0  0  0  0  0  0  0  0
   26.7117  -32.9355    6.4574 C   0  0  0  0  0  0  0  0  0  0  0  0
   27.1091  -34.1253    6.5777 O   0  0  0  0  0  0  0  0  0  0  0  0
   26.6551  -32.1617    7.6233 N   0  0  0  0  0  0  0  0  0  0  0  0
   27.0286  -32.7550    8.8844 C   0  0  1  0  0  0  0  0  0  0  0  0
   28.4643  -33.2060    8.7430 C   0  0  0  0  0  0  0  0  0  0  0  0
   28.5780  -34.6681    8.5323 C   0  0  0  0  0  0  0  0  0  0  0  0
   27.5075  -35.5091    8.3290 C   0  0  0  0  0  0  0  0  0  0  0  0
   27.9996  -36.7514    8.1827 N   0  0  0  0  0  0  0  0  0  0  0  0
   29.3555  -36.6906    8.2923 C   0  0  0  0  0  0  0  0  0  0  0  0
   29.7221  -35.4149    8.5072 N   0  0  0  0  0  0  0  0  0  0  0  0
   26.7923  -31.8359   10.0003 C   0  0  0  0  0  0  0  0  0  0  0  0
   27.0797  -32.1882   11.1731 O   0  0  0  0  0  0  0  0  0  0  0  0
   26.2576  -30.5746    9.8157 O   0  0  0  0  0  0  0  0  0  0  0  0
  2  4  1  0
  2  1  1  1
  3  2  1  0
  5  4  1  0
  5  6  1  6
  7  8  2  0
  7  5  1  0
 10  9  1  1
 10 12  1  0
 11 10  1  0
 13 12  1  1
 13 14  1  0
 14  7  1  0
 15 13  1  0
 15 17  1  0
 16 15  2  0
 18 17  1  0
 18 25  1  0
 18 19  1  6
 19 20  1  0
 20 21  2  0
 21 22  1  0
 23 22  1  0
 24 20  1  0
 24 23  2  0
 25 27  1  0
 26 25  2  0
M  END
$$$$
