LLH.pdb
     RDKit          3D

 27 27  0  0  1  0  0  0  0  0999 V2000
   25.5142  -15.2448  -17.6677 C   0  0  0  0  0  0  0  0  0  0  0  0
   26.6390  -16.1548  -17.1843 C   0  0  1  0  0  0  0  0  0  0  0  0
   27.5253  -15.4284  -16.2106 C   0  0  0  0  0  0  0  0  0  0  0  0
   25.9944  -17.3224  -16.4978 C   0  0  0  0  0  0  0  0  0  0  0  0
   27.0884  -18.2699  -16.0507 C   0  0  2  0  0  0  0  0  0  0  0  0
   27.8313  -18.8173  -17.1316 N   0  0  0  0  0  0  0  0  0  0  0  0
   26.4616  -19.3251  -15.2453 C   0  0  0  0  0  0  0  0  0  0  0  0
   26.2492  -20.4422  -15.7898 O   0  0  0  0  0  0  0  0  0  0  0  0
   26.2314  -22.1795  -10.8416 C   0  0  0  0  0  0  0  0  0  0  0  0
   25.3346  -20.9612  -10.7230 C   0  0  1  0  0  0  0  0  0  0  0  0
   25.4206  -20.4855   -9.2703 C   0  0  0  0  0  0  0  0  0  0  0  0
   25.8026  -19.8500  -11.6391 C   0  0  0  0  0  0  0  0  0  0  0  0
   25.5363  -20.1251  -13.0681 C   0  0  2  0  0  0  0  0  0  0  0  0
   26.1111  -19.0822  -13.8976 N   0  0  0  0  0  0  0  0  0  0  0  0
   24.1263  -20.2851  -13.4403 C   0  0  0  0  0  0  0  0  0  0  0  0
   23.4461  -21.1260  -12.7933 O   0  0  0  0  0  0  0  0  0  0  0  0
   23.4691  -19.5809  -14.4569 N   0  0  0  0  0  0  0  0  0  0  0  0
   22.0509  -19.7691  -14.6443 C   0  0  1  0  0  0  0  0  0  0  0  0
   21.3757  -19.2481  -13.3964 C   0  0  0  0  0  0  0  0  0  0  0  0
   20.6246  -20.3044  -12.6787 C   0  0  0  0  0  0  0  0  0  0  0  0
   20.5819  -21.6251  -13.0639 C   0  0  0  0  0  0  0  0  0  0  0  0
   19.8051  -22.2730  -12.1787 N   0  0  0  0  0  0  0  0  0  0  0  0
   19.3680  -21.3740  -11.2540 C   0  0  0  0  0  0  0  0  0  0  0  0
   19.8656  -20.1608  -11.5515 N   0  0  0  0  0  0  0  0  0  0  0  0
   21.5867  -19.1456  -15.8860 C   0  0  0  0  0  0  0  0  0  0  0  0
   22.2337  -18.1902  -16.3867 O   0  0  0  0  0  0  0  0  0  0  0  0
   20.4473  -19.5710  -16.5430 O   0  0  0  0  0  0  0  0  0  0  0  0
  2  4  1  0
  2  1  1  1
  3  2  1  0
  5  4  1  0
  5  6  1  6
  7  8  2  0
  7  5  1  0
 10  9  1  1
 10 12  1  0
 11 10  1  0
 13 12  1  1
 13 14  1  0
 14  7  1  0
 15 13  1  0
 15 17  1  0
 16 15  2  0
 18 17  1  0
 18 25  1  0
 18 19  1  1
 19 20  1  0
 20 21  2  0
 21 22  1  0
 23 22  1  0
 24 20  1  0
 24 23  2  0
 25 27  1  0
 26 25  2  0
M  END
$$$$
