LLH.pdb
     RDKit          3D

 27 27  0  0  1  0  0  0  0  0999 V2000
   28.1506  -22.6212  -19.4042 C   0  0  0  0  0  0  0  0  0  0  0  0
   28.3790  -21.5859  -18.3074 C   0  0  1  0  0  0  0  0  0  0  0  0
   28.5197  -20.2108  -18.8992 C   0  0  0  0  0  0  0  0  0  0  0  0
   27.1765  -21.6234  -17.4114 C   0  0  0  0  0  0  0  0  0  0  0  0
   27.3731  -20.5976  -16.3143 C   0  0  2  0  0  0  0  0  0  0  0  0
   28.7205  -20.5013  -15.8727 N   0  0  0  0  0  0  0  0  0  0  0  0
   26.4731  -20.9496  -15.2093 C   0  0  0  0  0  0  0  0  0  0  0  0
   25.5464  -21.7738  -15.4363 O   0  0  0  0  0  0  0  0  0  0  0  0
   25.3277  -21.9442   -9.9804 C   0  0  0  0  0  0  0  0  0  0  0  0
   25.4220  -20.4802  -10.3682 C   0  0  1  0  0  0  0  0  0  0  0  0
   25.9835  -19.7341   -9.1549 C   0  0  0  0  0  0  0  0  0  0  0  0
   26.3546  -20.2884  -11.5457 C   0  0  0  0  0  0  0  0  0  0  0  0
   25.7418  -20.6643  -12.8387 C   0  0  2  0  0  0  0  0  0  0  0  0
   26.6516  -20.3731  -13.9311 N   0  0  0  0  0  0  0  0  0  0  0  0
   24.4464  -20.0453  -13.1405 C   0  0  0  0  0  0  0  0  0  0  0  0
   24.4576  -18.8942  -13.6532 O   0  0  0  0  0  0  0  0  0  0  0  0
   23.1938  -20.6264  -12.9066 N   0  0  0  0  0  0  0  0  0  0  0  0
   22.0193  -20.0390  -13.5043 C   0  0  1  0  0  0  0  0  0  0  0  0
   22.2168  -20.1025  -15.0015 C   0  0  0  0  0  0  0  0  0  0  0  0
   21.0182  -19.6538  -15.7480 C   0  0  0  0  0  0  0  0  0  0  0  0
   19.8440  -19.2442  -15.1580 C   0  0  0  0  0  0  0  0  0  0  0  0
   18.9936  -18.9199  -16.1471 N   0  0  0  0  0  0  0  0  0  0  0  0
   19.6236  -19.1226  -17.3372 C   0  0  0  0  0  0  0  0  0  0  0  0
   20.8687  -19.5737  -17.1039 N   0  0  0  0  0  0  0  0  0  0  0  0
   20.7946  -20.6877  -13.0297 C   0  0  0  0  0  0  0  0  0  0  0  0
   19.7742  -19.9948  -12.7836 O   0  0  0  0  0  0  0  0  0  0  0  0
   20.7113  -22.0541  -12.8376 O   0  0  0  0  0  0  0  0  0  0  0  0
  2  4  1  0
  2  1  1  6
  3  2  1  0
  5  4  1  0
  5  6  1  1
  7  8  2  0
  7  5  1  0
 10  9  1  1
 10 12  1  0
 11 10  1  0
 13 12  1  1
 13 14  1  0
 14  7  1  0
 15 13  1  0
 15 17  1  0
 16 15  2  0
 18 17  1  0
 18 25  1  0
 18 19  1  6
 19 20  1  0
 20 21  2  0
 21 22  1  0
 23 22  1  0
 24 20  1  0
 24 23  2  0
 25 27  1  0
 26 25  2  0
M  END
$$$$
