LLH.pdb
     RDKit          3D

 27 27  0  0  1  0  0  0  0  0999 V2000
   10.8044  -25.2858   -9.4236 C   0  0  0  0  0  0  0  0  0  0  0  0
   11.9482  -24.2786   -9.3593 C   0  0  1  0  0  0  0  0  0  0  0  0
   11.6369  -23.1871   -8.3729 C   0  0  0  0  0  0  0  0  0  0  0  0
   13.1671  -25.0272   -8.9075 C   0  0  0  0  0  0  0  0  0  0  0  0
   14.3363  -24.0642   -8.8990 C   0  0  2  0  0  0  0  0  0  0  0  0
   14.6903  -23.6017  -10.1954 N   0  0  0  0  0  0  0  0  0  0  0  0
   15.4646  -24.7397   -8.2466 C   0  0  0  0  0  0  0  0  0  0  0  0
   15.3842  -25.9835   -8.0568 O   0  0  0  0  0  0  0  0  0  0  0  0
   18.7995  -24.6525   -9.7731 C   0  0  0  0  0  0  0  0  0  0  0  0
   19.7351  -24.1948   -8.6695 C   0  0  1  0  0  0  0  0  0  0  0  0
   20.4572  -22.9480   -9.1874 C   0  0  0  0  0  0  0  0  0  0  0  0
   18.9643  -23.8386   -7.4158 C   0  0  0  0  0  0  0  0  0  0  0  0
   17.7450  -24.6562   -7.2322 C   0  0  2  0  0  0  0  0  0  0  0  0
   16.6038  -24.0042   -7.8474 N   0  0  0  0  0  0  0  0  0  0  0  0
   17.3950  -24.9867   -5.8463 C   0  0  0  0  0  0  0  0  0  0  0  0
   16.6683  -24.1698   -5.2197 O   0  0  0  0  0  0  0  0  0  0  0  0
   17.8009  -26.1366   -5.1577 N   0  0  0  0  0  0  0  0  0  0  0  0
   17.5001  -26.2621   -3.7522 C   0  0  1  0  0  0  0  0  0  0  0  0
   16.2389  -27.0889   -3.6508 C   0  0  0  0  0  0  0  0  0  0  0  0
   15.9196  -27.4616   -2.2528 C   0  0  0  0  0  0  0  0  0  0  0  0
   16.6549  -27.0694   -1.1573 C   0  0  0  0  0  0  0  0  0  0  0  0
   16.0660  -27.6006   -0.0720 N   0  0  0  0  0  0  0  0  0  0  0  0
   14.9800  -28.3136   -0.4798 C   0  0  0  0  0  0  0  0  0  0  0  0
   14.8803  -28.2351   -1.8184 N   0  0  0  0  0  0  0  0  0  0  0  0
   18.6383  -26.8047   -3.0066 C   0  0  0  0  0  0  0  0  0  0  0  0
   18.5123  -27.0824   -1.7863 O   0  0  0  0  0  0  0  0  0  0  0  0
   19.8674  -27.0290   -3.5981 O   0  0  0  0  0  0  0  0  0  0  0  0
  2  4  1  0
  2  1  1  1
  3  2  1  0
  5  4  1  0
  5  6  1  6
  7  8  2  0
  7  5  1  0
 10  9  1  6
 10 12  1  0
 11 10  1  0
 13 12  1  1
 13 14  1  0
 14  7  1  0
 15 13  1  0
 15 17  1  0
 16 15  2  0
 18 17  1  0
 18 25  1  0
 18 19  1  6
 19 20  1  0
 20 21  2  0
 21 22  1  0
 23 22  1  0
 24 20  1  0
 24 23  2  0
 25 27  1  0
 26 25  2  0
M  END
$$$$
