LLH.pdb
     RDKit          3D

 27 27  0  0  1  0  0  0  0  0999 V2000
   23.5350  -17.9968  -19.1257 C   0  0  0  0  0  0  0  0  0  0  0  0
   24.6215  -18.2105  -18.0766 C   0  0  1  0  0  0  0  0  0  0  0  0
   24.5749  -17.1239  -17.0382 C   0  0  0  0  0  0  0  0  0  0  0  0
   24.3493  -19.5346  -17.4264 C   0  0  0  0  0  0  0  0  0  0  0  0
   25.2998  -19.6907  -16.2574 C   0  0  2  0  0  0  0  0  0  0  0  0
   26.5717  -20.2008  -16.6342 N   0  0  0  0  0  0  0  0  0  0  0  0
   24.6490  -20.5574  -15.2673 C   0  0  0  0  0  0  0  0  0  0  0  0
   24.4351  -21.7602  -15.5787 O   0  0  0  0  0  0  0  0  0  0  0  0
   25.8401  -20.2495   -9.9377 C   0  0  0  0  0  0  0  0  0  0  0  0
   25.4927  -20.6948  -11.3461 C   0  0  1  0  0  0  0  0  0  0  0  0
   25.7834  -22.1961  -11.4221 C   0  0  0  0  0  0  0  0  0  0  0  0
   24.0280  -20.4557  -11.6466 C   0  0  0  0  0  0  0  0  0  0  0  0
   23.6373  -20.8841  -13.0077 C   0  0  2  0  0  0  0  0  0  0  0  0
   24.2777  -20.0448  -14.0033 N   0  0  0  0  0  0  0  0  0  0  0  0
   22.1968  -20.9106  -13.2849 C   0  0  0  0  0  0  0  0  0  0  0  0
   21.5799  -19.8119  -13.2605 O   0  0  0  0  0  0  0  0  0  0  0  0
   21.4460  -22.0565  -13.5753 N   0  0  0  0  0  0  0  0  0  0  0  0
   20.0328  -21.9284  -13.8362 C   0  0  1  0  0  0  0  0  0  0  0  0
   19.7604  -22.6720  -15.1236 C   0  0  0  0  0  0  0  0  0  0  0  0
   18.3260  -22.6512  -15.4942 C   0  0  0  0  0  0  0  0  0  0  0  0
   17.3414  -22.0373  -14.7538 C   0  0  0  0  0  0  0  0  0  0  0  0
   16.1783  -22.2328  -15.3987 N   0  0  0  0  0  0  0  0  0  0  0  0
   16.4292  -22.9569  -16.5244 C   0  0  0  0  0  0  0  0  0  0  0  0
   17.7461  -23.2196  -16.5932 N   0  0  0  0  0  0  0  0  0  0  0  0
   19.2336  -22.3838  -12.6961 C   0  0  0  0  0  0  0  0  0  0  0  0
   19.6663  -23.3041  -11.9560 O   0  0  0  0  0  0  0  0  0  0  0  0
   18.0016  -21.8346  -12.3935 O   0  0  0  0  0  0  0  0  0  0  0  0
  2  4  1  0
  2  1  1  6
  3  2  1  0
  5  4  1  0
  5  6  1  6
  7  8  2  0
  7  5  1  0
 10  9  1  1
 10 12  1  0
 11 10  1  0
 13 12  1  1
 13 14  1  0
 14  7  1  0
 15 13  1  0
 15 17  1  0
 16 15  2  0
 18 17  1  0
 18 25  1  0
 18 19  1  6
 19 20  1  0
 20 21  2  0
 21 22  1  0
 23 22  1  0
 24 20  1  0
 24 23  2  0
 25 27  1  0
 26 25  2  0
M  END
$$$$
