LLH.pdb
     RDKit          3D

 27 27  0  0  1  0  0  0  0  0999 V2000
   17.9204  -19.1987    0.0626 C   0  0  0  0  0  0  0  0  0  0  0  0
   17.2247  -19.2536    1.4189 C   0  0  1  0  0  0  0  0  0  0  0  0
   17.1852  -20.6649    1.9362 C   0  0  0  0  0  0  0  0  0  0  0  0
   18.0250  -18.3999    2.3575 C   0  0  0  0  0  0  0  0  0  0  0  0
   17.3646  -18.4491    3.7198 C   0  0  2  0  0  0  0  0  0  0  0  0
   15.9683  -18.1883    3.6749 N   0  0  0  0  0  0  0  0  0  0  0  0
   18.0594  -17.4891    4.5862 C   0  0  0  0  0  0  0  0  0  0  0  0
   19.2969  -17.6425    4.7718 O   0  0  0  0  0  0  0  0  0  0  0  0
   17.4486  -12.1813    4.3615 C   0  0  0  0  0  0  0  0  0  0  0  0
   18.1162  -13.5094    4.6662 C   0  0  1  0  0  0  0  0  0  0  0  0
   19.6008  -13.2173    4.9004 C   0  0  0  0  0  0  0  0  0  0  0  0
   17.5305  -14.1396    5.9122 C   0  0  0  0  0  0  0  0  0  0  0  0
   17.9906  -15.5285    6.1313 C   0  0  2  0  0  0  0  0  0  0  0  0
   17.3486  -16.4265    5.1894 N   0  0  0  0  0  0  0  0  0  0  0  0
   17.7976  -16.0641    7.4835 C   0  0  0  0  0  0  0  0  0  0  0  0
   18.3179  -15.4295    8.4399 O   0  0  0  0  0  0  0  0  0  0  0  0
   17.0820  -17.2246    7.8034 N   0  0  0  0  0  0  0  0  0  0  0  0
   17.0145  -17.6572    9.1782 C   0  0  1  0  0  0  0  0  0  0  0  0
   15.5480  -17.7489    9.5324 C   0  0  0  0  0  0  0  0  0  0  0  0
   14.9473  -16.4204    9.7959 C   0  0  0  0  0  0  0  0  0  0  0  0
   15.6327  -15.3486   10.3212 C   0  0  0  0  0  0  0  0  0  0  0  0
   14.7624  -14.3288   10.4186 N   0  0  0  0  0  0  0  0  0  0  0  0
   13.5519  -14.7537    9.9622 C   0  0  0  0  0  0  0  0  0  0  0  0
   13.6538  -16.0379    9.5769 N   0  0  0  0  0  0  0  0  0  0  0  0
   17.7641  -18.8983    9.3872 C   0  0  0  0  0  0  0  0  0  0  0  0
   17.7502  -19.4556   10.5147 O   0  0  0  0  0  0  0  0  0  0  0  0
   18.4991  -19.4940    8.3794 O   0  0  0  0  0  0  0  0  0  0  0  0
  2  4  1  0
  2  1  1  6
  3  2  1  0
  5  4  1  0
  5  6  1  6
  7  8  2  0
  7  5  1  0
 10  9  1  1
 10 12  1  0
 11 10  1  0
 13 12  1  1
 13 14  1  0
 14  7  1  0
 15 13  1  0
 15 17  1  0
 16 15  2  0
 18 17  1  0
 18 25  1  0
 18 19  1  6
 19 20  1  0
 20 21  2  0
 21 22  1  0
 23 22  1  0
 24 20  1  0
 24 23  2  0
 25 27  1  0
 26 25  2  0
M  END
$$$$
