LLH.pdb
     RDKit          3D

 27 27  0  0  1  0  0  0  0  0999 V2000
   21.3857  -27.7766  -15.2143 C   0  0  0  0  0  0  0  0  0  0  0  0
   22.1865  -26.5287  -15.5724 C   0  0  1  0  0  0  0  0  0  0  0  0
   22.7361  -25.8791  -14.3326 C   0  0  0  0  0  0  0  0  0  0  0  0
   23.3205  -26.9715  -16.4488 C   0  0  0  0  0  0  0  0  0  0  0  0
   24.2290  -25.7822  -16.6823 C   0  0  2  0  0  0  0  0  0  0  0  0
   23.6410  -24.7807  -17.5016 N   0  0  0  0  0  0  0  0  0  0  0  0
   25.4784  -26.2844  -17.2670 C   0  0  0  0  0  0  0  0  0  0  0  0
   25.4643  -26.6560  -18.4716 O   0  0  0  0  0  0  0  0  0  0  0  0
   30.3368  -23.9362  -16.5016 C   0  0  0  0  0  0  0  0  0  0  0  0
   29.1448  -24.6778  -17.0776 C   0  0  1  0  0  0  0  0  0  0  0  0
   29.3636  -24.7641  -18.5905 C   0  0  0  0  0  0  0  0  0  0  0  0
   29.0479  -26.0775  -16.5082 C   0  0  0  0  0  0  0  0  0  0  0  0
   27.9019  -26.8442  -17.0444 C   0  0  2  0  0  0  0  0  0  0  0  0
   26.6575  -26.3444  -16.4897 N   0  0  0  0  0  0  0  0  0  0  0  0
   27.9472  -28.2962  -16.8397 C   0  0  0  0  0  0  0  0  0  0  0  0
   27.3677  -28.7579  -15.8203 O   0  0  0  0  0  0  0  0  0  0  0  0
   28.5818  -29.2164  -17.6834 N   0  0  0  0  0  0  0  0  0  0  0  0
   28.4096  -30.6291  -17.4455 C   0  0  1  0  0  0  0  0  0  0  0  0
   26.9207  -30.8891  -17.4377 C   0  0  0  0  0  0  0  0  0  0  0  0
   26.6003  -32.3279  -17.2874 C   0  0  0  0  0  0  0  0  0  0  0  0
   27.5404  -33.3200  -17.1243 C   0  0  0  0  0  0  0  0  0  0  0  0
   26.8768  -34.4850  -17.0275 N   0  0  0  0  0  0  0  0  0  0  0  0
   25.5433  -34.2279  -17.1281 C   0  0  0  0  0  0  0  0  0  0  0  0
   25.3618  -32.9053  -17.2882 N   0  0  0  0  0  0  0  0  0  0  0  0
   29.1567  -31.4314  -18.4171 C   0  0  0  0  0  0  0  0  0  0  0  0
   29.6417  -30.8838  -19.4403 O   0  0  0  0  0  0  0  0  0  0  0  0
   29.3553  -32.7897  -18.2539 O   0  0  0  0  0  0  0  0  0  0  0  0
  2  4  1  0
  2  1  1  1
  3  2  1  0
  5  4  1  0
  5  6  1  6
  7  8  2  0
  7  5  1  0
 10  9  1  1
 10 12  1  0
 11 10  1  0
 13 12  1  1
 13 14  1  0
 14  7  1  0
 15 13  1  0
 15 17  1  0
 16 15  2  0
 18 17  1  0
 18 25  1  0
 18 19  1  6
 19 20  1  0
 20 21  2  0
 21 22  1  0
 23 22  1  0
 24 20  1  0
 24 23  2  0
 25 27  1  0
 26 25  2  0
M  END
$$$$
