GTQ.pdb
     RDKit          3D

 21 20  0  0  1  0  0  0  0  0999 V2000
    8.2415  -17.4564   16.7616 N   0  0  0  0  0  0  0  0  0  0  0  0
    7.8605  -17.8291   18.1111 C   0  0  0  0  0  0  0  0  0  0  0  0
    8.6230  -16.9589   19.0431 C   0  0  0  0  0  0  0  0  0  0  0  0
    9.8246  -16.6561   18.8432 O   0  0  0  0  0  0  0  0  0  0  0  0
    6.8373  -13.8507   21.0837 C   0  0  0  0  0  0  0  0  0  0  0  0
    7.6534  -14.7771   21.9100 C   0  0  1  0  0  0  0  0  0  0  0  0
    6.7917  -15.7439   22.4484 O   0  0  0  0  0  0  0  0  0  0  0  0
    8.6986  -15.5285   21.1182 C   0  0  2  0  0  0  0  0  0  0  0  0
    8.0120  -16.4289   20.2127 N   0  0  0  0  0  0  0  0  0  0  0  0
    9.5573  -16.3617   21.9981 C   0  0  0  0  0  0  0  0  0  0  0  0
    9.3322  -17.6006   22.1829 O   0  0  0  0  0  0  0  0  0  0  0  0
   16.5305  -17.4340   23.6131 N   0  0  0  0  0  0  0  0  0  0  0  0
   15.3823  -16.5914   23.6734 C   0  0  0  0  0  0  0  0  0  0  0  0
   15.5921  -15.3588   23.4598 O   0  0  0  0  0  0  0  0  0  0  0  0
   14.0279  -17.1327   23.9688 C   0  0  0  0  0  0  0  0  0  0  0  0
   13.0463  -16.3624   23.1347 C   0  0  0  0  0  0  0  0  0  0  0  0
   11.6079  -16.6962   23.4205 C   0  0  2  0  0  0  0  0  0  0  0  0
   10.6871  -15.8429   22.6955 N   0  0  0  0  0  0  0  0  0  0  0  0
   11.2826  -16.7231   24.8488 C   0  0  0  0  0  0  0  0  0  0  0  0
   10.5675  -15.8466   25.3691 O   0  0  0  0  0  0  0  0  0  0  0  0
   11.7656  -17.7285   25.6554 O   0  0  0  0  0  0  0  0  0  0  0  0
  1  2  1  0
  2  3  1  0
  3  4  2  0
  6  5  1  6
  6  8  1  0
  7  6  1  0
  8 10  1  0
  8  9  1  6
  9  3  1  0
 10 11  2  0
 10 18  1  0
 12 13  1  0
 13 14  2  0
 13 15  1  0
 15 16  1  0
 17 16  1  1
 17 19  1  0
 18 17  1  0
 19 20  2  0
 19 21  1  0
M  END
$$$$
