GTQ.pdb
     RDKit          3D

 21 20  0  0  1  0  0  0  0  0999 V2000
    7.8781  -12.5560   18.5711 N   0  0  0  0  0  0  0  0  0  0  0  0
    8.9937  -13.2185   19.2205 C   0  0  0  0  0  0  0  0  0  0  0  0
    8.4369  -14.0502   20.3184 C   0  0  0  0  0  0  0  0  0  0  0  0
    7.2353  -13.9724   20.6728 O   0  0  0  0  0  0  0  0  0  0  0  0
    7.5963  -17.2204   20.2991 C   0  0  0  0  0  0  0  0  0  0  0  0
    8.5309  -17.2199   21.4539 C   0  0  1  0  0  0  0  0  0  0  0  0
    9.7840  -17.6481   20.9917 O   0  0  0  0  0  0  0  0  0  0  0  0
    8.7421  -15.8505   22.0573 C   0  0  2  0  0  0  0  0  0  0  0  0
    9.2553  -14.9785   21.0188 N   0  0  0  0  0  0  0  0  0  0  0  0
    9.7542  -15.8816   23.1439 C   0  0  0  0  0  0  0  0  0  0  0  0
   10.9918  -15.6892   22.9184 O   0  0  0  0  0  0  0  0  0  0  0  0
    7.9878  -12.5890   28.1724 N   0  0  0  0  0  0  0  0  0  0  0  0
    9.0020  -13.5791   28.0202 C   0  0  0  0  0  0  0  0  0  0  0  0
    9.5036  -14.0236   29.0972 O   0  0  0  0  0  0  0  0  0  0  0  0
    9.4379  -14.0546   26.6791 C   0  0  0  0  0  0  0  0  0  0  0  0
    9.8796  -15.4809   26.8316 C   0  0  0  0  0  0  0  0  0  0  0  0
   10.4111  -16.0941   25.5653 C   0  0  2  0  0  0  0  0  0  0  0  0
    9.4200  -16.1267   24.5078 N   0  0  0  0  0  0  0  0  0  0  0  0
   11.0136  -17.4154   25.7591 C   0  0  0  0  0  0  0  0  0  0  0  0
   10.5067  -18.4396   25.2649 O   0  0  0  0  0  0  0  0  0  0  0  0
   12.1654  -17.5550   26.4997 O   0  0  0  0  0  0  0  0  0  0  0  0
  1  2  1  0
  2  3  1  0
  3  4  2  0
  6  5  1  6
  6  8  1  0
  7  6  1  0
  8 10  1  0
  8  9  1  6
  9  3  1  0
 10 11  2  0
 10 18  1  0
 12 13  1  0
 13 14  2  0
 13 15  1  0
 15 16  1  0
 17 16  1  1
 17 19  1  0
 18 17  1  0
 19 20  2  0
 19 21  1  0
M  END
$$$$
