GTQ.pdb
     RDKit          3D

 21 20  0  0  1  0  0  0  0  0999 V2000
    3.3303  -18.9627   21.8411 N   0  0  0  0  0  0  0  0  0  0  0  0
    3.8728  -17.6803   22.2488 C   0  0  0  0  0  0  0  0  0  0  0  0
    5.3085  -17.6649   21.8669 C   0  0  0  0  0  0  0  0  0  0  0  0
    5.8772  -18.6642   21.3633 O   0  0  0  0  0  0  0  0  0  0  0  0
    6.8509  -15.2170   19.5906 C   0  0  0  0  0  0  0  0  0  0  0  0
    7.6919  -15.2114   20.8152 C   0  0  1  0  0  0  0  0  0  0  0  0
    7.3091  -14.1091   21.5934 O   0  0  0  0  0  0  0  0  0  0  0  0
    7.5016  -16.4345   21.6822 C   0  0  2  0  0  0  0  0  0  0  0  0
    6.1034  -16.5018   22.0600 N   0  0  0  0  0  0  0  0  0  0  0  0
    8.2912  -16.3439   22.9369 C   0  0  0  0  0  0  0  0  0  0  0  0
    7.9643  -15.5595   23.8843 O   0  0  0  0  0  0  0  0  0  0  0  0
    9.8546  -17.6450   27.4824 N   0  0  0  0  0  0  0  0  0  0  0  0
    9.1800  -18.7036   26.8069 C   0  0  0  0  0  0  0  0  0  0  0  0
    8.2760  -19.2938   27.4728 O   0  0  0  0  0  0  0  0  0  0  0  0
    9.5218  -19.0848   25.4096 C   0  0  0  0  0  0  0  0  0  0  0  0
   10.6857  -18.2371   24.9862 C   0  0  0  0  0  0  0  0  0  0  0  0
   10.2914  -16.9335   24.3482 C   0  0  2  0  0  0  0  0  0  0  0  0
    9.4629  -17.1205   23.1733 N   0  0  0  0  0  0  0  0  0  0  0  0
   11.4266  -16.0552   24.0539 C   0  0  0  0  0  0  0  0  0  0  0  0
   11.6926  -15.7053   22.8890 O   0  0  0  0  0  0  0  0  0  0  0  0
   12.2324  -15.5928   25.0696 O   0  0  0  0  0  0  0  0  0  0  0  0
  1  2  1  0
  2  3  1  0
  3  4  2  0
  6  5  1  6
  6  8  1  0
  7  6  1  0
  8 10  1  0
  8  9  1  1
  9  3  1  0
 10 11  2  0
 10 18  1  0
 12 13  1  0
 13 14  2  0
 13 15  1  0
 15 16  1  0
 17 16  1  6
 17 19  1  0
 18 17  1  0
 19 20  2  0
 19 21  1  0
M  END
$$$$
