GTQ.pdb
     RDKit          3D

 21 20  0  0  1  0  0  0  0  0999 V2000
    8.9043  -17.4702   16.9235 N   0  0  0  0  0  0  0  0  0  0  0  0
    8.4728  -17.8002   18.2689 C   0  0  0  0  0  0  0  0  0  0  0  0
    9.0219  -16.7611   19.1777 C   0  0  0  0  0  0  0  0  0  0  0  0
   10.1769  -16.2907   19.0351 O   0  0  0  0  0  0  0  0  0  0  0  0
    6.8551  -13.8237   21.1053 C   0  0  0  0  0  0  0  0  0  0  0  0
    7.6550  -14.7091   21.9903 C   0  0  1  0  0  0  0  0  0  0  0  0
    6.8114  -15.7304   22.4513 O   0  0  0  0  0  0  0  0  0  0  0  0
    8.8038  -15.3896   21.2823 C   0  0  2  0  0  0  0  0  0  0  0  0
    8.2494  -16.2533   20.2582 N   0  0  0  0  0  0  0  0  0  0  0  0
    9.5837  -16.2507   22.2075 C   0  0  0  0  0  0  0  0  0  0  0  0
    9.4427  -17.5152   22.2320 O   0  0  0  0  0  0  0  0  0  0  0  0
   16.2621  -17.6527   23.5626 N   0  0  0  0  0  0  0  0  0  0  0  0
   15.2430  -16.7052   23.8717 C   0  0  0  0  0  0  0  0  0  0  0  0
   15.5748  -15.4855   23.7659 O   0  0  0  0  0  0  0  0  0  0  0  0
   13.8796  -17.1296   24.2910 C   0  0  0  0  0  0  0  0  0  0  0  0
   12.8952  -16.3147   23.5039 C   0  0  0  0  0  0  0  0  0  0  0  0
   11.4583  -16.5871   23.8546 C   0  0  2  0  0  0  0  0  0  0  0  0
   10.5397  -15.7320   23.1289 N   0  0  0  0  0  0  0  0  0  0  0  0
   11.1858  -16.5463   25.2936 C   0  0  0  0  0  0  0  0  0  0  0  0
   11.7744  -17.3028   26.0882 O   0  0  0  0  0  0  0  0  0  0  0  0
   10.2634  -15.6611   25.8039 O   0  0  0  0  0  0  0  0  0  0  0  0
  1  2  1  0
  2  3  1  0
  3  4  2  0
  6  5  1  6
  6  8  1  0
  7  6  1  0
  8 10  1  0
  8  9  1  6
  9  3  1  0
 10 11  2  0
 10 18  1  0
 12 13  1  0
 13 14  2  0
 13 15  1  0
 15 16  1  0
 17 16  1  1
 17 19  1  0
 18 17  1  0
 19 20  2  0
 19 21  1  0
M  END
$$$$
