GTQ.pdb
     RDKit          3D

 21 20  0  0  1  0  0  0  0  0999 V2000
    8.2892  -12.7786   17.6138 N   0  0  0  0  0  0  0  0  0  0  0  0
    9.2447  -13.4227   18.4954 C   0  0  0  0  0  0  0  0  0  0  0  0
    8.4800  -14.0036   19.6290 C   0  0  0  0  0  0  0  0  0  0  0  0
    7.2697  -13.7357   19.8262 O   0  0  0  0  0  0  0  0  0  0  0  0
    7.9646  -17.4938   19.9194 C   0  0  0  0  0  0  0  0  0  0  0  0
    8.4966  -17.1060   21.2511 C   0  0  1  0  0  0  0  0  0  0  0  0
    9.8715  -17.3828   21.2610 O   0  0  0  0  0  0  0  0  0  0  0  0
    8.3544  -15.6315   21.5505 C   0  0  2  0  0  0  0  0  0  0  0  0
    9.0987  -14.8974   20.5457 N   0  0  0  0  0  0  0  0  0  0  0  0
    8.9380  -15.2825   22.8709 C   0  0  0  0  0  0  0  0  0  0  0  0
   10.1728  -15.0082   23.0112 O   0  0  0  0  0  0  0  0  0  0  0  0
    5.7533  -11.0458   26.4528 N   0  0  0  0  0  0  0  0  0  0  0  0
    6.4217  -12.2772   26.7150 C   0  0  0  0  0  0  0  0  0  0  0  0
    6.4560  -12.6370   27.9309 O   0  0  0  0  0  0  0  0  0  0  0  0
    7.0371  -13.0823   25.6251 C   0  0  0  0  0  0  0  0  0  0  0  0
    7.7863  -14.2112   26.2708 C   0  0  0  0  0  0  0  0  0  0  0  0
    8.7563  -14.9038   25.3536 C   0  0  2  0  0  0  0  0  0  0  0  0
    8.1678  -15.2288   24.0691 N   0  0  0  0  0  0  0  0  0  0  0  0
    9.3931  -16.0805   25.9505 C   0  0  0  0  0  0  0  0  0  0  0  0
    9.1859  -17.2259   25.5086 O   0  0  0  0  0  0  0  0  0  0  0  0
   10.2434  -15.9441   27.0244 O   0  0  0  0  0  0  0  0  0  0  0  0
  1  2  1  0
  2  3  1  0
  3  4  2  0
  6  5  1  6
  6  8  1  0
  7  6  1  0
  8 10  1  0
  8  9  1  6
  9  3  1  0
 10 11  2  0
 10 18  1  0
 12 13  1  0
 13 14  2  0
 13 15  1  0
 15 16  1  0
 17 16  1  1
 17 19  1  0
 18 17  1  0
 19 20  2  0
 19 21  1  0
M  END
$$$$
