GTQ.pdb
     RDKit          3D

 21 20  0  0  1  0  0  0  0  0999 V2000
   13.3790  -14.6040   18.7667 N   0  0  0  0  0  0  0  0  0  0  0  0
   12.0855  -15.2494   18.8912 C   0  0  0  0  0  0  0  0  0  0  0  0
   11.5131  -14.8455   20.2012 C   0  0  0  0  0  0  0  0  0  0  0  0
   12.2075  -14.3055   21.0965 O   0  0  0  0  0  0  0  0  0  0  0  0
    7.6454  -13.5526   20.4190 C   0  0  0  0  0  0  0  0  0  0  0  0
    8.0250  -14.5161   21.4841 C   0  0  1  0  0  0  0  0  0  0  0  0
    7.6182  -15.7935   21.0719 O   0  0  0  0  0  0  0  0  0  0  0  0
    9.5156  -14.5968   21.7199 C   0  0  2  0  0  0  0  0  0  0  0  0
   10.1380  -15.0585   20.4944 N   0  0  0  0  0  0  0  0  0  0  0  0
    9.8493  -15.5824   22.7797 C   0  0  0  0  0  0  0  0  0  0  0  0
   10.3306  -16.7286   22.5073 O   0  0  0  0  0  0  0  0  0  0  0  0
    9.5055  -13.0780   28.6099 N   0  0  0  0  0  0  0  0  0  0  0  0
    9.5130  -14.4994   28.5022 C   0  0  0  0  0  0  0  0  0  0  0  0
    9.9015  -15.1276   29.5334 O   0  0  0  0  0  0  0  0  0  0  0  0
    9.0902  -15.1929   27.2552 C   0  0  0  0  0  0  0  0  0  0  0  0
   10.3364  -15.5802   26.5138 C   0  0  0  0  0  0  0  0  0  0  0  0
   10.0773  -16.2557   25.1953 C   0  0  2  0  0  0  0  0  0  0  0  0
    9.6580  -15.3225   24.1682 N   0  0  0  0  0  0  0  0  0  0  0  0
    9.1500  -17.3864   25.2855 C   0  0  0  0  0  0  0  0  0  0  0  0
    8.0287  -17.3519   24.7453 O   0  0  0  0  0  0  0  0  0  0  0  0
    9.5017  -18.5236   25.9767 O   0  0  0  0  0  0  0  0  0  0  0  0
  1  2  1  0
  2  3  1  0
  3  4  2  0
  6  5  1  6
  6  8  1  0
  7  6  1  0
  8 10  1  0
  8  9  1  6
  9  3  1  0
 10 11  2  0
 10 18  1  0
 12 13  1  0
 13 14  2  0
 13 15  1  0
 15 16  1  0
 17 16  1  1
 17 19  1  0
 18 17  1  0
 19 20  2  0
 19 21  1  0
M  END
$$$$
