GTQ.pdb
     RDKit          3D

 21 20  0  0  1  0  0  0  0  0999 V2000
   11.3880  -17.2817   18.3309 N   0  0  0  0  0  0  0  0  0  0  0  0
   10.2494  -17.5934   19.1744 C   0  0  0  0  0  0  0  0  0  0  0  0
   10.1103  -16.4879   20.1571 C   0  0  0  0  0  0  0  0  0  0  0  0
   11.0406  -15.6777   20.3883 O   0  0  0  0  0  0  0  0  0  0  0  0
    6.8196  -14.2111   20.8526 C   0  0  0  0  0  0  0  0  0  0  0  0
    7.3131  -14.9410   22.0486 C   0  0  1  0  0  0  0  0  0  0  0  0
    6.5833  -16.1341   22.1545 O   0  0  0  0  0  0  0  0  0  0  0  0
    8.7687  -15.3364   21.9549 C   0  0  2  0  0  0  0  0  0  0  0  0
    8.9014  -16.3035   20.8829 N   0  0  0  0  0  0  0  0  0  0  0  0
    9.2381  -15.9950   23.2007 C   0  0  0  0  0  0  0  0  0  0  0  0
    9.4877  -17.2419   23.2514 O   0  0  0  0  0  0  0  0  0  0  0  0
    9.7465  -13.3318   28.9129 N   0  0  0  0  0  0  0  0  0  0  0  0
   10.2093  -14.6539   29.1769 C   0  0  0  0  0  0  0  0  0  0  0  0
   10.4810  -14.9104   30.3891 O   0  0  0  0  0  0  0  0  0  0  0  0
   10.3609  -15.6621   28.0928 C   0  0  0  0  0  0  0  0  0  0  0  0
    9.9345  -15.0085   26.8108 C   0  0  0  0  0  0  0  0  0  0  0  0
    9.8008  -15.9612   25.6547 C   0  0  2  0  0  0  0  0  0  0  0  0
    9.4426  -15.2882   24.4216 N   0  0  0  0  0  0  0  0  0  0  0  0
    8.8982  -17.0845   25.9193 C   0  0  0  0  0  0  0  0  0  0  0  0
    7.6836  -17.0188   25.6538 O   0  0  0  0  0  0  0  0  0  0  0  0
    9.3785  -18.2497   26.4730 O   0  0  0  0  0  0  0  0  0  0  0  0
  1  2  1  0
  2  3  1  0
  3  4  2  0
  6  5  1  6
  6  8  1  0
  7  6  1  0
  8 10  1  0
  8  9  1  6
  9  3  1  0
 10 11  2  0
 10 18  1  0
 12 13  1  0
 13 14  2  0
 13 15  1  0
 15 16  1  0
 17 16  1  1
 17 19  1  0
 18 17  1  0
 19 20  2  0
 19 21  1  0
M  END
$$$$
